data_PCOD9300980
_publ_section_title
;
Structure prediction by ZEFSAII (Michael W. Deem and Ramdas Pophale) SiO2 
 PCOD9300980
Probable space group: C 2/C
;
_chemical_formula_sum "Si O2"
_cell_formula_units_Z 56
_cell_length_a 29.884215
_cell_length_b 15.084583
_cell_length_c 12.244940
_cell_angle_alpha 90.000000
_cell_angle_beta 31.168969
_cell_angle_gamma 90.000000
_cell_volume 2856.903755
_symmetry_space_group_name_H-M "C 2/C"
_symmetry_group_IT_number 15
_symmetry_cell_setting 'monoclinic'
loop_
_space_group_symop_operation_xyz
x,y,z
-x,y,1/2-z
-x,-y,-z
x,-y,1/2+z
1/2+x,1/2+y,z
1/2-x,1/2+y,1/2-z
1/2-x,1/2-y,-z
1/2+x,1/2-y,1/2+z
loop_
_atom_site_type_symbol
_atom_site_label
_atom_site_fract_x
_atom_site_fract_y
_atom_site_fract_z
Si Si1 0.735471 0.983493 0.114393
Si Si2 0.407749 0.804551 0.391971
Si Si3 0.754256 0.812116 0.600408
Si Si4 0.168254 0.812920 0.642223
Si Si5 0.599187 0.287831 0.019475
Si Si6 0.911250 0.483025 0.247784
Si Si7 0.901044 0.586047 0.447507
O O1 0.667331 0.957135 0.163889
O O2 0.675365 0.972454 0.345667
O O3 0.761573 0.085023 0.049162
O O4 0.806458 0.907218 0.962883
O O5 0.500000 0.779777 0.250000
O O6 0.331645 0.800959 0.642819
O O7 0.385205 0.741550 0.336341
O O8 0.417922 0.903464 0.320363
O O9 0.750000 0.750000 0.500000
O O10 0.835123 0.799113 0.515932
O O11 0.250000 0.750000 0.500000
O O12 0.127178 0.830554 0.846858
O O13 0.500000 0.312480 0.250000
O O14 0.600937 0.181732 0.995891
O O15 0.887501 0.579209 0.347207
O O16 0.000000 0.500000 0.000000
O O17 0.000000 0.553311 0.250000
#
# Coordination Sequence:
#
# PCOD9300980 Si02
#       7
#     8   8   8   8   8   8   8
#     4  12  23  40  66  93 133 181 223 281 343 409
#     4  12  25  43  70 103 147 177 224 292 354 420
#     4  12  26  46  66 104 143 178 234 293 350 407
#     4  12  23  46  68  98 132 185 231 268 347 416
#     4  11  25  45  70  95 135 185 235 283 333 414
#     4  12  21  34  61 103 140 172 209 272 362 432
#     4  11  20  35  60  98 130 163 216 269 349 419
#
# _framework density 19.60164
#
# number of rings (size 3 to 8) (size 9 to 14) (size 15 to 20)
#    0.000    0.286    7.143    2.143    4.000    0.000 
#    0.000    1.429    0.000    0.000    0.000    0.000 
#    0.000    0.000    0.000    0.000    0.000    0.000 
#
# Total GULP energy -156107.419043 kJ/mol
# GULP energy per Si atom -5575.264966 kJ/mol
# Density = 1.955703 g / cm^3
# Si number density = 19.601640 Si / 1000 Ang^3
#
#
#
# Elastic Constant Matrix: (Units=GPa)
#
#
# Indices 1 2 3 4 5 6 
#
# 1 136.8309 41.1431 56.5640 0.0000 -12.6370 0.0000
# 2 41.1431 121.2095 48.7670 0.0000 2.5605 0.0000
# 3 56.5640 48.7670 124.5245 0.0000 3.0944 0.0000
# 4 0.0000 0.0000 0.0000 -41.0382 0.0000 23.2645
# 5 -12.6370 2.5605 3.0944 0.0000 34.8024 0.0000
# 6 0.0000 0.0000 0.0000 23.2645 0.0000 29.9926
#
#
#
# Elastic Compliance Matrix: (Units=1/GPa)
#
#
# Indices 1 2 3 4 5 6 
#
# 1 0.009831 -0.001882 -0.003829 0.000000 0.004049 0.000000
# 2 -0.001882 0.010159 -0.003095 0.000000 -0.001156 0.000000
# 3 -0.003829 -0.003095 0.011035 0.000000 -0.002144 0.000000
# 4 0.000000 0.000000 0.000000 -0.016925 0.000000 0.013128
# 5 0.004049 -0.001156 -0.002144 0.000000 0.030479 0.000000
# 6 0.000000 0.000000 0.000000 0.013128 0.000000 0.023158
#
#
# Mechanical properties :
#
#
# Convention : Reuss Voigt Hill
#
# Bulk Modulus (GPa) = 74.55516 75.05701 74.80609
# Shear Modulus (GPa) = 55.66684 20.49075 38.07880
#
# Velocity S-wave (km/s) = 5.33486 3.23671 4.41231
# Velocity P-wave (km/s) = 8.72155 7.23483 8.01274
#
# Compressibility (1/GPa) = 0.01341289
#
# Stress axis : x y z
#
# Youngs Moduli (GPa) = 101.71885 98.43948 90.61895
#
# Poissons Ratio (x) = 0.18525 0.34700
# Poissons Ratio (y) = 0.19142 0.28045
# Poissons Ratio (z) = 0.38951 0.30465
#
# Static dielectric constant tensor:
#      x y z
#    x 1.790770 0.000000 0.032760 
#    y 0.000000 1.661390 0.000000 
#    z 0.032760 0.000000 1.714940 
# 
# From -- ./inp_files/126959.got.cif
#   From: 2010.05.17/outbox.cif.g08.bks.cpg/sg15_64_cif.got.tgz:126959.got - 2010.06.03 18:47:42.
