data_PCOD9300620
_publ_section_title
;
Structure prediction by ZEFSAII (Michael W. Deem and Ramdas Pophale) SiO2 
 PCOD9300620
Probable space group: C 2/C
;
_chemical_formula_sum "Si O2"
_cell_formula_units_Z 48
_cell_length_a 17.572799
_cell_length_b 9.049582
_cell_length_c 14.783724
_cell_angle_alpha 90.000000
_cell_angle_beta 76.048313
_cell_angle_gamma 90.000000
_cell_volume 2281.647593
_symmetry_space_group_name_H-M "C 2/C"
_symmetry_group_IT_number 15
_symmetry_cell_setting 'monoclinic'
loop_
_space_group_symop_operation_xyz
x,y,z
-x,y,1/2-z
-x,-y,-z
x,-y,1/2+z
1/2+x,1/2+y,z
1/2-x,1/2+y,1/2-z
1/2-x,1/2-y,-z
1/2+x,1/2-y,1/2+z
loop_
_atom_site_type_symbol
_atom_site_label
_atom_site_fract_x
_atom_site_fract_y
_atom_site_fract_z
Si Si1 0.734510 0.320386 0.403890
Si Si2 0.190175 0.828126 0.089668
Si Si3 0.312948 0.030464 0.137540
Si Si4 0.080456 0.933078 0.515224
Si Si5 0.059275 0.589384 0.546426
Si Si6 0.373391 0.037080 0.309326
O O1 0.750000 0.250000 0.500000
O O2 0.735265 0.181931 0.337006
O O3 0.648492 0.392254 0.424031
O O4 0.797975 0.440842 0.361594
O O5 0.140674 0.703522 0.154280
O O6 0.249470 0.904743 0.142460
O O7 0.250000 0.750000 0.000000
O O8 0.129921 0.950815 0.064213
O O9 0.360618 0.048640 0.030580
O O10 0.372835 0.017363 0.202503
O O11 0.056692 0.767592 0.555725
O O12 0.000000 0.000000 0.500000
O O13 0.058829 0.525902 0.647140
O O14 0.000000 0.500000 0.500000
#
# Coordination Sequence:
#
# PCOD9300620 Si02
#       6
#     8   8   8   8   8   8
#     4  11  18  42  62  88 127 166 206 263 324 375
#     4  12  20  38  64  96 127 160 220 264 319 381
#     4  11  23  38  63  94 123 167 220 263 315 384
#     4  11  22  37  66  93 125 169 214 260 326 388
#     4  11  23  42  64  86 133 176 211 261 332 383
#     4  12  22  37  66  93 122 167 219 268 314 383
#
# _framework density 21.037428999999999
#
# number of rings (size 3 to 8) (size 9 to 14) (size 15 to 20)
#    0.000    0.667    8.333    2.000    0.000    0.667 
#    0.000    0.000    0.000    3.000    0.000    0.000 
#    0.000    0.000    0.000    0.000    0.000    0.000 
#
# Total GULP energy -133775.308224 kJ/mol
# GULP energy per Si atom -5573.971176 kJ/mol
# Density = 2.098955 g / cm^3
# Si number density = 21.037429 Si / 1000 Ang^3
#
#
#
# Elastic Constant Matrix: (Units=GPa)
#
#
# Indices 1 2 3 4 5 6 
#
# 1 107.4406 43.1250 25.6862 0.0000 29.4441 0.0000
# 2 43.1250 131.3055 31.9137 0.0000 22.5371 0.0000
# 3 25.6862 31.9137 97.6216 0.0000 33.8079 0.0000
# 4 0.0000 0.0000 0.0000 18.6728 0.0000 11.9063
# 5 29.4441 22.5371 33.8079 0.0000 36.1216 0.0000
# 6 0.0000 0.0000 0.0000 11.9063 0.0000 42.9591
#
#
#
# Elastic Compliance Matrix: (Units=1/GPa)
#
#
# Indices 1 2 3 4 5 6 
#
# 1 0.012829 -0.002784 0.000821 0.000000 -0.009488 0.000000
# 2 -0.002784 0.009265 -0.001598 0.000000 -0.002015 0.000000
# 3 0.000821 -0.001598 0.015442 0.000000 -0.014124 0.000000
# 4 0.000000 0.000000 0.000000 0.065049 0.000000 -0.018029
# 5 -0.009488 -0.002015 -0.014124 0.000000 0.049895 0.000000
# 6 0.000000 0.000000 0.000000 -0.018029 0.000000 0.028275
#
#
# Mechanical properties :
#
#
# Convention : Reuss Voigt Hill
#
# Bulk Modulus (GPa) = 32.88265 59.75750 46.32007
# Shear Modulus (GPa) = 25.25048 35.26024 30.25536
#
# Velocity S-wave (km/s) = 3.46824 4.09843 3.79643
# Velocity P-wave (km/s) = 5.63052 7.13184 6.42518
#
# Compressibility (1/GPa) = 0.03041118
#
# Stress axis : x y z
#
# Youngs Moduli (GPa) = 77.94730 107.93771 64.75983
#
# Poissons Ratio (x) = 0.30054 -0.05314
# Poissons Ratio (y) = 0.21704 0.10351
# Poissons Ratio (z) = -0.06396 0.17252
#
# Static dielectric constant tensor:
#      x y z
#    x 1.876420 0.000000 0.061290 
#    y 0.000000 1.834100 0.000000 
#    z 0.061290 0.000000 1.799600 
# 
# From -- ./inp_files/159723.got.cif
#   From: 2010.05.17/outbox.cif.g08.bks.cpg/sg15_80_cif.got.tgz:159723.got - 2010.06.03 18:47:42.
