data_PCOD9300852
_publ_section_title
;
Structure prediction by ZEFSAII (Michael W. Deem and Ramdas Pophale) SiO2 
 PCOD9300852
Probable space group: C 2/C
;
_chemical_formula_sum "Si O2"
_cell_formula_units_Z 64
_cell_length_a 16.985365
_cell_length_b 9.961416
_cell_length_c 20.040000
_cell_angle_alpha 90.000000
_cell_angle_beta 86.137600
_cell_angle_gamma 90.000000
_cell_volume 3383.032287
_symmetry_space_group_name_H-M "C 2/C"
_symmetry_group_IT_number 15
_symmetry_cell_setting 'monoclinic'
loop_
_space_group_symop_operation_xyz
x,y,z
-x,y,1/2-z
-x,-y,-z
x,-y,1/2+z
1/2+x,1/2+y,z
1/2-x,1/2+y,1/2-z
1/2-x,1/2-y,-z
1/2+x,1/2-y,1/2+z
loop_
_atom_site_type_symbol
_atom_site_label
_atom_site_fract_x
_atom_site_fract_y
_atom_site_fract_z
Si Si1 0.127621 0.920596 0.133066
Si Si2 0.328240 0.528523 0.134691
Si Si3 0.543691 0.685988 0.857370
Si Si4 0.162700 0.803442 0.996093
Si Si5 0.820865 0.837537 0.779094
Si Si6 0.042190 0.417639 0.555513
Si Si7 0.144910 0.555843 0.662200
Si Si8 0.147246 0.298018 0.738180
O O1 0.148206 0.913952 0.054344
O O2 0.159195 0.787340 0.169721
O O3 0.033379 0.907049 0.144878
O O4 0.164079 0.046193 0.168381
O O5 0.386052 0.403951 0.117257
O O6 0.344721 0.597502 0.206046
O O7 0.237055 0.478281 0.139853
O O8 0.344038 0.636440 0.076636
O O9 0.516177 0.818013 0.899747
O O10 0.579379 0.730970 0.784989
O O11 0.103258 0.684010 0.017018
O O12 0.250000 0.750000 0.000000
O O13 0.861099 0.703274 0.805628
O O14 0.728794 0.801125 0.773890
O O15 0.089426 0.516622 0.603083
O O16 0.000000 0.500000 0.500000
O O17 0.124290 0.447445 0.719990
#
# Coordination Sequence:
#
# PCOD9300852 Si02
#       8
#     8   8   8   8   8   8   8   8
#     4  11  23  40  67  94 130 175 217 268 329 399
#     4  11  23  41  69  97 129 176 228 269 333 410
#     4  11  23  42  68  92 126 180 213 265 333 404
#     4  11  22  43  68  90 128 181 220 261 329 406
#     4  11  23  38  66 103 130 160 226 287 317 387
#     4  11  26  43  64  95 138 174 221 276 336 391
#     4  11  22  42  64  99 134 168 222 281 323 396
#     4  11  19  41  68  91 127 176 217 261 339 396
#
# _framework density 18.917937999999999
#
# number of rings (size 3 to 8) (size 9 to 14) (size 15 to 20)
#    0.000    1.000    6.250    1.875    0.000    6.000 
#    0.000    2.500    0.000    0.000    0.000    0.000 
#    0.000    0.000    0.000    0.000    0.000    0.000 
#
# Total GULP energy -178643.494345 kJ/mol
# GULP energy per Si atom -5582.609198 kJ/mol
# Density = 1.887488 g / cm^3
# Si number density = 18.917938 Si / 1000 Ang^3
#
#
#
# Elastic Constant Matrix: (Units=GPa)
#
#
# Indices 1 2 3 4 5 6 
#
# 1 75.8711 19.1673 33.8593 0.0000 8.9003 0.0000
# 2 19.1673 92.6437 35.9664 0.0000 15.7488 0.0000
# 3 33.8593 35.9664 94.1112 0.0000 8.6890 0.0000
# 4 0.0000 0.0000 0.0000 33.5602 0.0000 14.5613
# 5 8.9003 15.7488 8.6890 0.0000 33.2505 0.0000
# 6 0.0000 0.0000 0.0000 14.5613 0.0000 29.7913
#
#
#
# Elastic Compliance Matrix: (Units=1/GPa)
#
#
# Indices 1 2 3 4 5 6 
#
# 1 0.016014 -0.000867 -0.005198 0.000000 -0.002518 0.000000
# 2 -0.000867 0.013535 -0.004396 0.000000 -0.005030 0.000000
# 3 -0.005198 -0.004396 0.014198 0.000000 -0.000237 0.000000
# 4 0.000000 0.000000 0.000000 0.037817 0.000000 -0.018484
# 5 -0.002518 -0.005030 -0.000237 0.000000 0.033193 0.000000
# 6 0.000000 0.000000 0.000000 -0.018484 0.000000 0.042602
#
#
# Mechanical properties :
#
#
# Convention : Reuss Voigt Hill
#
# Bulk Modulus (GPa) = 43.81257 48.95690 46.38473
# Shear Modulus (GPa) = 26.89765 30.89594 28.89679
#
# Velocity S-wave (km/s) = 3.77478 4.04562 3.91254
# Velocity P-wave (km/s) = 6.49678 6.91067 6.70692
#
# Compressibility (1/GPa) = 0.02282450
#
# Stress axis : x y z
#
# Youngs Moduli (GPa) = 62.44423 73.88100 70.43385
#
# Poissons Ratio (x) = 0.06408 0.36609
# Poissons Ratio (y) = 0.05416 0.30965
# Poissons Ratio (z) = 0.32457 0.32480
#
# Static dielectric constant tensor:
#      x y z
#    x 1.666010 0.000000 0.004580 
#    y 0.000000 1.611940 0.000000 
#    z 0.004580 0.000000 1.659140 
# 
# From -- ./inp_files/247483.got.cif
#   From: 2010.05.17/outbox.cif.g08.bks.cpg/sg15_124_cif.got.tgz:247483.got - 2010.06.03 18:47:42.
