data_PCOD9300760
_publ_section_title
;
Structure prediction by ZEFSAII (Michael W. Deem and Ramdas Pophale) SiO2 
 PCOD9300760
Probable space group: C 2/C
;
_chemical_formula_sum "Si O2"
_cell_formula_units_Z 40
_cell_length_a 18.100134
_cell_length_b 6.725620
_cell_length_c 18.113625
_cell_angle_alpha 90.000000
_cell_angle_beta 49.141090
_cell_angle_gamma 90.000000
_cell_volume 1667.733667
_symmetry_space_group_name_H-M "C 2/C"
_symmetry_group_IT_number 15
_symmetry_cell_setting 'monoclinic'
loop_
_space_group_symop_operation_xyz
x,y,z
-x,y,1/2-z
-x,-y,-z
x,-y,1/2+z
1/2+x,1/2+y,z
1/2-x,1/2+y,1/2-z
1/2-x,1/2-y,-z
1/2+x,1/2-y,1/2+z
loop_
_atom_site_type_symbol
_atom_site_label
_atom_site_fract_x
_atom_site_fract_y
_atom_site_fract_z
Si Si1 0.140660 0.496295 0.356646
Si Si2 0.201523 0.710096 0.675705
Si Si3 0.893668 0.083174 0.792395
Si Si4 0.510559 0.648971 0.923056
Si Si5 0.301328 0.326244 0.564326
O O1 0.143829 0.429846 0.269936
O O2 0.228965 0.640078 0.324238
O O3 0.158813 0.294148 0.389862
O O4 0.048915 0.639812 0.426474
O O5 0.270443 0.555081 0.589207
O O6 0.132497 0.853014 0.673615
O O7 0.800337 0.209296 0.881927
O O8 0.000000 0.146189 0.750000
O O9 0.910646 0.088643 0.691360
O O10 0.500000 0.500000 0.000000
O O11 0.404296 0.671111 0.954599
#
# Coordination Sequence:
#
# PCOD9300760 Si02
#       5
#     8   8   8   8   8
#     4  11  19  37  65 102 135 160 211 276 338 385
#     4  11  19  38  65  93 128 175 215 265 330 389
#     4  11  27  46  63  92 138 183 222 270 330 391
#     4  12  23  41  71 106 133 167 221 274 339 394
#     4  11  23  39  68  98 134 174 217 275 328 398
#
# _framework density 23.984643999999999
#
# number of rings (size 3 to 8) (size 9 to 14) (size 15 to 20)
#    0.000    0.800    6.000    3.000    0.000    1.600 
#    0.000    1.000    0.000    0.000    0.000    0.000 
#    0.000    0.000    0.000    0.000    0.000    0.000 
#
# Total GULP energy -111538.378445 kJ/mol
# GULP energy per Si atom -5576.918922 kJ/mol
# Density = 2.393005 g / cm^3
# Si number density = 23.984644 Si / 1000 Ang^3
#
#
#
# Elastic Constant Matrix: (Units=GPa)
#
#
# Indices 1 2 3 4 5 6 
#
# 1 78.4234 13.7257 41.8671 -0.0001 -35.0113 0.0000
# 2 13.7257 99.5563 39.8772 0.0005 -25.5934 -0.0002
# 3 41.8671 39.8772 107.7160 0.0001 -48.7193 0.0000
# 4 -0.0001 0.0005 0.0001 47.4650 0.0000 -23.0102
# 5 -35.0113 -25.5934 -48.7193 0.0000 43.4048 0.0001
# 6 0.0000 -0.0002 0.0000 -23.0102 0.0001 20.4123
#
#
#
# Elastic Compliance Matrix: (Units=1/GPa)
#
#
# Indices 1 2 3 4 5 6 
#
# 1 0.020251 0.001839 -0.001368 0.000000 0.015884 0.000000
# 2 0.001839 0.012344 -0.002685 0.000000 0.005749 0.000000
# 3 -0.001368 -0.002685 0.019487 0.000000 0.019187 0.000000
# 4 0.000000 0.000000 0.000000 0.046455 0.000000 0.052368
# 5 0.015884 0.005749 0.019187 0.000000 0.060778 0.000000
# 6 0.000000 0.000000 0.000000 0.052368 0.000000 0.108023
#
#
# Mechanical properties :
#
#
# Convention : Reuss Voigt Hill
#
# Bulk Modulus (GPa) = 20.98351 52.95953 36.97152
# Shear Modulus (GPa) = 17.38226 34.93814 26.16020
#
# Velocity S-wave (km/s) = 2.69499 3.82080 3.30617
# Velocity P-wave (km/s) = 4.29554 6.44928 5.47927
#
# Compressibility (1/GPa) = 0.04765647
#
# Stress axis : x y z
#
# Youngs Moduli (GPa) = 49.38059 81.00960 51.31530
#
# Poissons Ratio (x) = -0.14900 0.07019
# Poissons Ratio (y) = -0.09083 0.13776
# Poissons Ratio (z) = 0.06754 0.21747
#
# Static dielectric constant tensor:
#      x y z
#    x 1.991440 0.000000 0.029790 
#    y 0.000000 1.930990 0.000000 
#    z 0.029790 0.000000 2.016190 
# 
# From -- ./inp_files/208047.got.cif
#   From: 2010.05.17/outbox.cif.g08.bks.cpg/sg15_105_cif.got.tgz:208047.got - 2010.06.03 18:47:42.
