data_PCOD9300670
_publ_section_title
;
Structure prediction by ZEFSAII (Michael W. Deem and Ramdas Pophale) SiO2 
 PCOD9300670
Probable space group: C 2/C
;
_chemical_formula_sum "Si O2"
_cell_formula_units_Z 60
_cell_length_a 7.960626
_cell_length_b 31.543429
_cell_length_c 11.003612
_cell_angle_alpha 90.000000
_cell_angle_beta 89.351930
_cell_angle_gamma 90.000000
_cell_volume 2762.890096
_symmetry_space_group_name_H-M "C 2/C"
_symmetry_group_IT_number 15
_symmetry_cell_setting 'monoclinic'
loop_
_space_group_symop_operation_xyz
x,y,z
-x,y,1/2-z
-x,-y,-z
x,-y,1/2+z
1/2+x,1/2+y,z
1/2-x,1/2+y,1/2-z
1/2-x,1/2-y,-z
1/2+x,1/2-y,1/2+z
loop_
_atom_site_type_symbol
_atom_site_label
_atom_site_fract_x
_atom_site_fract_y
_atom_site_fract_z
Si Si1 0.702656 0.565527 0.215451
Si Si2 0.254951 0.597101 0.025826
Si Si3 0.895743 0.981069 0.379377
Si Si4 0.120435 0.862080 0.558515
Si Si5 0.500000 0.299100 0.750000
Si Si6 0.757565 0.289235 0.406213
Si Si7 0.808495 0.249750 0.840347
Si Si8 0.108782 0.685887 0.978178
O O1 0.500000 0.567228 0.250000
O O2 0.789244 0.577352 0.341598
O O3 0.726107 0.518878 0.162847
O O4 0.730746 0.599228 0.107810
O O5 0.435029 0.620163 0.040144
O O6 0.133416 0.635929 0.992679
O O7 0.295160 0.559617 0.930112
O O8 0.000000 0.971849 0.250000
O O9 0.000000 0.000000 0.500000
O O10 0.175357 0.833125 0.447989
O O11 0.115194 0.829146 0.669116
O O12 0.625188 0.271780 0.827796
O O13 0.750000 0.250000 0.500000
O O14 0.666419 0.270573 0.290472
O O15 0.951639 0.302938 0.394940
O O16 0.917660 0.287653 0.896307
O O17 0.775607 0.209299 0.926474
#
# Coordination Sequence:
#
# PCOD9300670 Si02
#       8
#     8   8   8   8   4   8   8   8
#     4   9  17  34  59  86 123 162 194 253 324 376
#     4  11  21  37  62  93 121 166 211 256 319 395
#     4  11  19  35  62  98 131 158 205 271 332 385
#     4  11  19  34  60  87 121 163 208 260 319 367
#     4  12  16  38  58  78 120 172 200 252 328 372
#     4  12  25  39  58  92 126 166 217 274 308 365
#     4  11  22  40  60  79 122 169 213 255 320 377
#     4  11  24  41  62  85 122 176 214 253 325 388
#
# _framework density 21.716390000000001
#
# number of rings (size 3 to 8) (size 9 to 14) (size 15 to 20)
#    0.000    1.067   10.000    0.000    1.867    1.600 
#    0.000    0.000    0.000    0.800    0.000    0.000 
#    0.000    0.000    0.000    0.000    0.000    0.000 
#
# Total GULP energy -167225.920161 kJ/mol
# GULP energy per Si atom -5574.197339 kJ/mol
# Density = 2.166696 g / cm^3
# Si number density = 21.716390 Si / 1000 Ang^3
#
#
#
# Elastic Constant Matrix: (Units=GPa)
#
#
# Indices 1 2 3 4 5 6 
#
# 1 36.1040 28.1384 18.4362 0.0000 12.1495 0.0000
# 2 28.1384 174.3014 68.5520 0.0000 -0.8564 0.0000
# 3 18.4362 68.5520 127.9719 0.0000 4.0706 0.0000
# 4 0.0000 0.0000 0.0000 36.7129 0.0000 -1.6233
# 5 12.1495 -0.8564 4.0706 0.0000 17.3427 0.0000
# 6 0.0000 0.0000 0.0000 -1.6233 0.0000 21.5625
#
#
#
# Elastic Compliance Matrix: (Units=1/GPa)
#
#
# Indices 1 2 3 4 5 6 
#
# 1 0.044106 -0.006534 -0.001875 0.000000 -0.030782 0.000000
# 2 -0.006534 0.008265 -0.003672 0.000000 0.005848 0.000000
# 3 -0.001875 -0.003672 0.010091 0.000000 -0.001236 0.000000
# 4 0.000000 0.000000 0.000000 0.027329 0.000000 0.002057
# 5 -0.030782 0.005848 -0.001236 0.000000 0.079804 0.000000
# 6 0.000000 0.000000 0.000000 0.002057 0.000000 0.046532
#
#
# Mechanical properties :
#
#
# Convention : Reuss Voigt Hill
#
# Bulk Modulus (GPa) = 26.10981 63.18118 44.64550
# Shear Modulus (GPa) = 19.75849 30.00701 24.88275
#
# Velocity S-wave (km/s) = 3.01963 3.72125 3.38865
# Velocity P-wave (km/s) = 4.92004 6.90076 5.99280
#
# Compressibility (1/GPa) = 0.03829977
#
# Stress axis : x y z
#
# Youngs Moduli (GPa) = 22.67256 120.99250 99.10144
#
# Poissons Ratio (x) = 0.79059 0.18579
# Poissons Ratio (y) = 0.14815 0.36390
# Poissons Ratio (z) = 0.04251 0.44429
#
# Static dielectric constant tensor:
#      x y z
#    x 1.836290 0.000000 -0.052370 
#    y 0.000000 1.795630 0.000000 
#    z -0.052370 0.000000 1.908830 
# 
# From -- ./inp_files/82238.got.cif
#   From: 2010.05.17/outbox.cif.g08.bks.cpg/sg15_42_cif.got.tgz:82238.got - 2010.06.03 18:47:42.
