data_PCOD9300479
_publ_section_title
;
Structure prediction by ZEFSAII (Michael W. Deem and Ramdas Pophale) SiO2 
 PCOD9300479
Probable space group: C 2/C
;
_chemical_formula_sum "Si O2"
_cell_formula_units_Z 36
_cell_length_a 18.104499
_cell_length_b 5.125692
_cell_length_c 28.579155
_cell_angle_alpha 90.000000
_cell_angle_beta 146.720156
_cell_angle_gamma 90.000000
_cell_volume 1455.278528
_symmetry_space_group_name_H-M "C 2/C"
_symmetry_group_IT_number 15
_symmetry_cell_setting 'monoclinic'
loop_
_space_group_symop_operation_xyz
x,y,z
-x,y,1/2-z
-x,-y,-z
x,-y,1/2+z
1/2+x,1/2+y,z
1/2-x,1/2+y,1/2-z
1/2-x,1/2-y,-z
1/2+x,1/2-y,1/2+z
loop_
_atom_site_type_symbol
_atom_site_label
_atom_site_fract_x
_atom_site_fract_y
_atom_site_fract_z
Si Si1 0.448802 0.198836 0.822971
Si Si2 0.914902 0.010161 0.029885
Si Si3 0.212706 0.476852 0.083447
Si Si4 0.000000 0.212373 0.250000
Si Si5 0.143311 0.352928 0.643952
O O1 0.553900 0.406621 0.900046
O O2 0.485444 0.123740 0.789818
O O3 0.297167 0.310233 0.739873
O O4 0.435903 0.973561 0.854339
O O5 0.061449 0.910532 0.089273
O O6 0.818926 0.770642 0.965272
O O7 0.851652 0.264333 0.973043
O O8 0.368818 0.534658 0.174495
O O9 0.147280 0.464000 0.100621
#
# Coordination Sequence:
#
# PCOD9300479 Si02
#       5
#     8   8   8   4   8
#     4  11  24  45  75 104 149 188 241 288 361 424
#     4  12  24  44  75 110 137 185 241 298 346 423
#     4  11  27  45  74 103 148 181 240 294 360 417
#     4  10  28  54  64 108 146 202 228 300 360 428
#     4  11  23  43  73 110 141 187 233 298 353 425
#
# _framework density 24.737532000000002
#
# number of rings (size 3 to 8) (size 9 to 14) (size 15 to 20)
#    0.000    0.889    4.444    1.333    3.111    2.667 
#    4.000    0.000    0.000    0.000    0.000    0.000 
#    0.000    0.000    0.000    0.000    0.000    0.000 
#
# Total GULP energy -100755.302911 kJ/mol
# GULP energy per Si atom -5597.516828 kJ/mol
# Density = 2.468123 g / cm^3
# Si number density = 24.737532 Si / 1000 Ang^3
#
#
#
# Elastic Constant Matrix: (Units=GPa)
#
#
# Indices 1 2 3 4 5 6 
#
# 1 135.6320 40.8461 55.5177 0.0009 -22.6877 0.0071
# 2 40.8461 133.8722 73.3633 0.0057 -3.8342 0.0097
# 3 55.5177 73.3633 185.8612 0.0028 2.2874 0.0017
# 4 0.0009 0.0057 0.0028 15.5405 0.0028 -4.9234
# 5 -22.6877 -3.8342 2.2874 0.0028 26.3601 -0.0014
# 6 0.0071 0.0097 0.0017 -4.9234 -0.0014 15.3013
#
#
#
# Elastic Compliance Matrix: (Units=1/GPa)
#
#
# Indices 1 2 3 4 5 6 
#
# 1 0.010393 -0.001471 -0.002634 -0.000002 0.008959 -0.000004
# 2 -0.001471 0.009818 -0.003442 -0.000005 0.000461 -0.000007
# 3 -0.002634 -0.003442 0.007568 0.000002 -0.003424 0.000003
# 4 -0.000002 -0.000005 0.000002 0.071652 -0.000009 0.023055
# 5 0.008959 0.000461 -0.003424 -0.000009 0.046012 -0.000003
# 6 -0.000004 -0.000007 0.000003 0.023055 -0.000003 0.072772
#
#
# Mechanical properties :
#
#
# Convention : Reuss Voigt Hill
#
# Bulk Modulus (GPa) = 78.83152 88.31327 83.57240
# Shear Modulus (GPa) = 21.04948 30.48294 25.76621
#
# Velocity S-wave (km/s) = 2.92021 3.51416 3.23086
# Velocity P-wave (km/s) = 6.58077 7.22796 6.91194
#
# Compressibility (1/GPa) = 0.01268528
#
# Stress axis : x y z
#
# Youngs Moduli (GPa) = 96.22130 101.85553 132.13917
#
# Poissons Ratio (x) = 0.14982 0.34806
# Poissons Ratio (y) = 0.14153 0.45477
# Poissons Ratio (z) = 0.25345 0.35055
#
# Static dielectric constant tensor:
#      x y z
#    x 1.974700 0.000000 -0.021430 
#    y 0.000000 1.972290 0.000000 
#    z -0.021430 0.000000 1.962700 
# 
# From -- ./inp_files/297597.got.cif
#   From: 2010.05.17/outbox.cif.g08.bks.cpg/sg15_149_cif.got.tgz:297597.got - 2010.06.03 18:47:42.
