data_PCOD9300808
_publ_section_title
;
Structure prediction by ZEFSAII (Michael W. Deem and Ramdas Pophale) SiO2 
 PCOD9300808
Probable space group: C 2/C
;
_chemical_formula_sum "Si O2"
_cell_formula_units_Z 60
_cell_length_a 26.136111
_cell_length_b 20.201453
_cell_length_c 14.549019
_cell_angle_alpha 90.000000
_cell_angle_beta 156.261198
_cell_angle_gamma 90.000000
_cell_volume 3092.404595
_symmetry_space_group_name_H-M "C 2/C"
_symmetry_group_IT_number 15
_symmetry_cell_setting 'monoclinic'
loop_
_space_group_symop_operation_xyz
x,y,z
-x,y,1/2-z
-x,-y,-z
x,-y,1/2+z
1/2+x,1/2+y,z
1/2-x,1/2+y,1/2-z
1/2-x,1/2-y,-z
1/2+x,1/2-y,1/2+z
loop_
_atom_site_type_symbol
_atom_site_label
_atom_site_fract_x
_atom_site_fract_y
_atom_site_fract_z
Si Si1 0.622270 0.903322 0.889307
Si Si2 0.883105 0.092448 0.287058
Si Si3 0.500000 0.703810 0.250000
Si Si4 0.101385 0.242166 0.234717
Si Si5 0.280190 0.607088 0.814990
Si Si6 0.027960 0.007896 0.897452
Si Si7 0.032261 0.375889 0.029903
Si Si8 0.907348 0.561060 0.680907
O O1 0.500000 0.885110 0.750000
O O2 0.592918 0.879839 0.738554
O O3 0.622465 0.983018 0.881018
O O4 0.738355 0.876402 0.141211
O O5 0.926242 0.167228 0.341386
O O6 0.924958 0.043960 0.271568
O O7 0.945224 0.061409 0.480217
O O8 0.731194 0.094240 0.046981
O O9 0.530695 0.749071 0.214645
O O10 0.620054 0.657197 0.474091
O O11 0.250000 0.250000 0.500000
O O12 0.058666 0.299923 0.097926
O O13 0.154480 0.601305 0.670599
O O14 0.348311 0.537017 0.915635
O O15 0.000000 0.034918 0.750000
O O16 0.029781 0.419721 0.118172
O O17 0.000000 0.580225 0.750000
#
# Coordination Sequence:
#
# PCOD9300808 Si02
#       8
#     8   8   4   8   8   8   8   8
#     4   9  21  38  59  87 121 162 199 249 305 365
#     4  11  23  39  61  94 122 154 208 257 305 358
#     4  12  22  38  66  90 114 160 210 250 302 354
#     4  12  23  39  62  89 123 161 205 251 295 367
#     4  11  19  39  65  90 115 156 210 249 301 364
#     4  11  21  39  66  90 119 158 202 262 310 358
#     4  11  23  39  61  88 125 165 206 243 305 368
#     4  11  21  37  57  90 125 156 200 258 305 357
#
# _framework density 19.402377000000001
#
# number of rings (size 3 to 8) (size 9 to 14) (size 15 to 20)
#    0.000    1.067    6.000    1.200    0.933    0.000 
#    2.400    2.667    0.000    0.000    0.000    0.000 
#    0.000    0.000    0.000    0.000    0.000    0.000 
#
# Total GULP energy -167484.884877 kJ/mol
# GULP energy per Si atom -5582.829496 kJ/mol
# Density = 1.935822 g / cm^3
# Si number density = 19.402377 Si / 1000 Ang^3
#
#
#
# Elastic Constant Matrix: (Units=GPa)
#
#
# Indices 1 2 3 4 5 6 
#
# 1 129.5152 20.3765 34.4908 0.0000 -9.9587 0.0000
# 2 20.3765 36.6093 1.5912 0.0000 4.5488 0.0000
# 3 34.4908 1.5912 73.9319 0.0000 -25.5001 0.0000
# 4 0.0000 0.0000 0.0000 18.4867 0.0000 -4.4668
# 5 -9.9587 4.5488 -25.5001 0.0000 28.5747 0.0000
# 6 0.0000 0.0000 0.0000 -4.4668 0.0000 27.3435
#
#
#
# Elastic Compliance Matrix: (Units=1/GPa)
#
#
# Indices 1 2 3 4 5 6 
#
# 1 0.009723 -0.005276 -0.004282 0.000000 0.000407 0.000000
# 2 -0.005276 0.031223 -0.000808 0.000000 -0.007530 0.000000
# 3 -0.004282 -0.000808 0.021772 0.000000 0.018066 0.000000
# 4 0.000000 0.000000 0.000000 0.056316 0.000000 0.009200
# 5 0.000407 -0.007530 0.018066 0.000000 0.052458 0.000000
# 6 0.000000 0.000000 0.000000 0.009200 0.000000 0.038075
#
#
# Mechanical properties :
#
#
# Convention : Reuss Voigt Hill
#
# Bulk Modulus (GPa) = 23.81738 39.21925 31.51832
# Shear Modulus (GPa) = 20.46721 27.12084 23.79402
#
# Velocity S-wave (km/s) = 3.25142 3.74279 3.50572
# Velocity P-wave (km/s) = 5.13788 6.23983 5.71547
#
# Compressibility (1/GPa) = 0.04198614
#
# Stress axis : x y z
#
# Youngs Moduli (GPa) = 102.85109 32.02784 45.93058
#
# Poissons Ratio (x) = 0.16898 0.19667
# Poissons Ratio (y) = 0.54266 0.03710
# Poissons Ratio (z) = 0.44039 0.02587
#
# Static dielectric constant tensor:
#      x y z
#    x 1.702250 0.000000 -0.013890 
#    y 0.000000 1.697600 0.000000 
#    z -0.013890 0.000000 1.717550 
# 
# From -- ./inp_files/179131.got.cif
#   From: 2010.05.17/outbox.cif.g08.bks.cpg/sg15_90_cif.got.tgz:179131.got - 2010.06.03 18:47:42.
