data_PCOD9300169
_publ_section_title
;
Structure prediction by ZEFSAII (Michael W. Deem and Ramdas Pophale) SiO2 
 PCOD9300169
Probable space group: C 2/C
;
_chemical_formula_sum "Si O2"
_cell_formula_units_Z 44
_cell_length_a 28.314470
_cell_length_b 16.887561
_cell_length_c 12.393422
_cell_angle_alpha 90.000000
_cell_angle_beta 159.969356
_cell_angle_gamma 90.000000
_cell_volume 2029.812566
_symmetry_space_group_name_H-M "C 2/C"
_symmetry_group_IT_number 15
_symmetry_cell_setting 'monoclinic'
loop_
_space_group_symop_operation_xyz
x,y,z
-x,y,1/2-z
-x,-y,-z
x,-y,1/2+z
1/2+x,1/2+y,z
1/2-x,1/2+y,1/2-z
1/2-x,1/2-y,-z
1/2+x,1/2-y,1/2+z
loop_
_atom_site_type_symbol
_atom_site_label
_atom_site_fract_x
_atom_site_fract_y
_atom_site_fract_z
Si Si1 0.627229 0.124607 0.777193
Si Si2 0.337259 0.131515 0.892073
Si Si3 0.277736 0.527007 0.670025
Si Si4 0.679186 0.165770 0.325213
Si Si5 0.500000 0.575656 0.750000
Si Si6 0.241669 0.808033 0.730774
O O1 0.692633 0.133093 0.799421
O O2 0.467344 0.149440 0.432928
O O3 0.698108 0.176782 0.021749
O O4 0.658055 0.035032 0.881256
O O5 0.257207 0.066501 0.789662
O O6 0.302398 0.216867 0.867781
O O7 0.500000 0.115578 0.250000
O O8 0.276859 0.596179 0.579821
O O9 0.417749 0.478234 0.988125
O O10 0.750000 0.250000 0.500000
O O11 0.658487 0.166895 0.151970
O O12 0.388646 0.634310 0.563046
#
# Coordination Sequence:
#
# PCOD9300169 Si02
#       6
#     8   8   8   8   4   8
#     4  11  26  44  72 102 138 184 229 286 348 406
#     4  12  23  45  72  99 139 178 235 278 346 413
#     4  11  26  45  69 106 136 184 227 286 342 413
#     4  12  24  45  71 102 137 179 230 286 340 405
#     4  10  26  46  66 100 140 180 226 280 352 396
#     4  11  24  46  70 101 139 182 231 284 342 416
#
# _framework density 21.676877999999999
#
# number of rings (size 3 to 8) (size 9 to 14) (size 15 to 20)
#    0.000    0.727    4.545    1.636    5.091    2.182 
#    3.273    0.000    0.000    0.000    0.000    0.000 
#    0.000    0.000    0.000    0.000    0.000    0.000 
#
# Total GULP energy -123001.915160 kJ/mol
# GULP energy per Si atom -5590.996144 kJ/mol
# Density = 2.162754 g / cm^3
# Si number density = 21.676878 Si / 1000 Ang^3
#
#
#
# Elastic Constant Matrix: (Units=GPa)
#
#
# Indices 1 2 3 4 5 6 
#
# 1 123.8322 24.8428 22.3803 0.0000 -31.3772 0.0000
# 2 24.8428 142.4229 47.5029 0.0000 2.1507 0.0000
# 3 22.3803 47.5029 81.0481 0.0000 -8.9647 0.0000
# 4 0.0000 0.0000 0.0000 18.7536 0.0000 -14.2172
# 5 -31.3772 2.1507 -8.9647 0.0000 27.8636 0.0000
# 6 0.0000 0.0000 0.0000 -14.2172 0.0000 17.0617
#
#
#
# Elastic Compliance Matrix: (Units=1/GPa)
#
#
# Indices 1 2 3 4 5 6 
#
# 1 0.012030 -0.002105 -0.000593 0.000000 0.013519 0.000000
# 2 -0.002105 0.009254 -0.005375 0.000000 -0.004814 0.000000
# 3 -0.000593 -0.005375 0.016201 0.000000 0.004960 0.000000
# 4 0.000000 0.000000 0.000000 0.144786 0.000000 0.120647
# 5 0.013519 -0.004814 0.004960 0.000000 0.053080 0.000000
# 6 0.000000 0.000000 0.000000 0.120647 0.000000 0.159144
#
#
# Mechanical properties :
#
#
# Convention : Reuss Voigt Hill
#
# Bulk Modulus (GPa) = 46.86121 59.63944 53.25033
# Shear Modulus (GPa) = 11.96875 29.57428 20.77152
#
# Velocity S-wave (km/s) = 2.35232 3.69768 3.09889
# Velocity P-wave (km/s) = 5.38915 6.76780 6.11744
#
# Compressibility (1/GPa) = 0.02133961
#
# Stress axis : x y z
#
# Youngs Moduli (GPa) = 83.12266 108.06211 61.72444
#
# Poissons Ratio (x) = 0.22745 0.03660
# Poissons Ratio (y) = 0.17496 0.33177
# Poissons Ratio (z) = 0.04929 0.58084
#
# Static dielectric constant tensor:
#      x y z
#    x 1.799980 0.000000 -0.021750 
#    y 0.000000 1.769220 0.000000 
#    z -0.021750 0.000000 1.818980 
# 
# From -- ./inp_files/127326.got.cif
#   From: 2010.05.17/outbox.cif.g08.bks.cpg/sg15_64_cif.got.tgz:127326.got - 2010.06.03 18:47:42.
