data_PCOD9300575
_publ_section_title
;
Structure prediction by ZEFSAII (Michael W. Deem and Ramdas Pophale) SiO2 
 PCOD9300575
Probable space group: C 2/C
;
_chemical_formula_sum "Si O2"
_cell_formula_units_Z 48
_cell_length_a 14.774542
_cell_length_b 13.432931
_cell_length_c 25.001249
_cell_angle_alpha 90.000000
_cell_angle_beta 150.420154
_cell_angle_gamma 90.000000
_cell_volume 2449.364000
_symmetry_space_group_name_H-M "C 2/C"
_symmetry_group_IT_number 15
_symmetry_cell_setting 'monoclinic'
loop_
_space_group_symop_operation_xyz
x,y,z
-x,y,1/2-z
-x,-y,-z
x,-y,1/2+z
1/2+x,1/2+y,z
1/2-x,1/2+y,1/2-z
1/2-x,1/2-y,-z
1/2+x,1/2-y,1/2+z
loop_
_atom_site_type_symbol
_atom_site_label
_atom_site_fract_x
_atom_site_fract_y
_atom_site_fract_z
Si Si1 0.540793 0.544175 0.463154
Si Si2 0.733558 0.082956 0.226929
Si Si3 0.723337 0.269615 0.089512
Si Si4 0.073044 0.291745 0.200845
Si Si5 0.618336 0.011435 0.938385
Si Si6 0.721164 0.554195 0.365708
O O1 0.500000 0.500000 0.500000
O O2 0.371534 0.527740 0.337364
O O3 0.568432 0.662226 0.486164
O O4 0.727422 0.512068 0.528671
O O5 0.814536 0.195413 0.262246
O O6 0.733039 0.020890 0.170724
O O7 0.527274 0.077147 0.141905
O O8 0.812700 0.323291 0.187174
O O9 0.672144 0.159590 0.079511
O O10 0.881375 0.251964 0.126788
O O11 0.002906 0.386246 0.130780
O O12 0.717199 0.005406 0.047158
O O13 0.500000 0.567537 0.250000
#
# Coordination Sequence:
#
# PCOD9300575 Si02
#       6
#     8   8   8   8   8   8
#     4  11  22  35  55  84 117 153 188 234 285 346
#     4  11  21  35  56  87 116 149 190 239 288 339
#     4   9  16  32  56  81 110 141 183 238 286 327
#     4   9  17  33  55  84 113 141 186 234 282 340
#     4  11  22  35  58  86 118 154 189 236 293 335
#     4  11  18  35  57  84 114 146 190 245 285 332
#
# _framework density 19.596924000000001
#
# number of rings (size 3 to 8) (size 9 to 14) (size 15 to 20)
#    0.000    1.667    5.000    2.500    0.000    4.667 
#    0.000    0.000    0.000    9.000    4.333    0.000 
#    0.000    0.000    0.000    0.000    0.000    0.000 
#
# Total GULP energy -133614.123818 kJ/mol
# GULP energy per Si atom -5567.255159 kJ/mol
# Density = 1.955232 g / cm^3
# Si number density = 19.596924 Si / 1000 Ang^3
#
#
#
# Elastic Constant Matrix: (Units=GPa)
#
#
# Indices 1 2 3 4 5 6 
#
# 1 116.6817 36.4276 72.0841 0.0000 -6.3489 0.0000
# 2 36.4276 41.2209 37.3006 0.0000 3.6939 0.0000
# 3 72.0841 37.3006 116.3542 0.0003 -7.4410 0.0000
# 4 0.0000 0.0000 0.0003 22.1432 0.0000 1.3712
# 5 -6.3489 3.6939 -7.4410 0.0000 25.7717 0.0000
# 6 0.0000 0.0000 0.0000 1.3712 0.0000 29.9705
#
#
#
# Elastic Compliance Matrix: (Units=1/GPa)
#
#
# Indices 1 2 3 4 5 6 
#
# 1 0.015357 -0.007588 -0.006897 0.000000 0.002879 0.000000
# 2 -0.007588 0.039718 -0.008676 0.000000 -0.010067 0.000000
# 3 -0.006897 -0.008676 0.015913 0.000000 0.004139 0.000000
# 4 0.000000 0.000000 0.000000 0.045289 0.000000 -0.002072
# 5 0.002879 -0.010067 0.004139 0.000000 0.042149 0.000000
# 6 0.000000 0.000000 0.000000 -0.002072 0.000000 0.033461
#
#
# Mechanical properties :
#
#
# Convention : Reuss Voigt Hill
#
# Bulk Modulus (GPa) = 40.54080 62.87570 51.70825
# Shear Modulus (GPa) = 20.28965 24.14005 22.21485
#
# Velocity S-wave (km/s) = 3.22117 3.51355 3.37053
# Velocity P-wave (km/s) = 5.87936 6.97239 6.44907
#
# Compressibility (1/GPa) = 0.02466651
#
# Stress axis : x y z
#
# Youngs Moduli (GPa) = 65.11699 25.17769 62.84015
#
# Poissons Ratio (x) = 0.19104 0.43343
# Poissons Ratio (y) = 0.49410 0.54517
# Poissons Ratio (z) = 0.44913 0.21843
#
# Static dielectric constant tensor:
#      x y z
#    x 1.762550 0.000000 -0.035750 
#    y 0.000000 1.738890 0.000000 
#    z -0.035750 0.000000 1.734420 
# 
# From -- ./inp_files/153301.got.cif
#   From: 2010.05.17/outbox.cif.g08.bks.cpg/sg15_77_cif.got.tgz:153301.got - 2010.06.03 18:47:42.
