data_PCOD9300142
_publ_section_title
;
Structure prediction by ZEFSAII (Michael W. Deem and Ramdas Pophale) SiO2 
 PCOD9300142
Probable space group: C 2/C
;
_chemical_formula_sum "Si O2"
_cell_formula_units_Z 48
_cell_length_a 14.019530
_cell_length_b 16.541045
_cell_length_c 14.247036
_cell_angle_alpha 90.000000
_cell_angle_beta 139.446417
_cell_angle_gamma 90.000000
_cell_volume 2148.030424
_symmetry_space_group_name_H-M "C 2/C"
_symmetry_group_IT_number 15
_symmetry_cell_setting 'monoclinic'
loop_
_space_group_symop_operation_xyz
x,y,z
-x,y,1/2-z
-x,-y,-z
x,-y,1/2+z
1/2+x,1/2+y,z
1/2-x,1/2+y,1/2-z
1/2-x,1/2-y,-z
1/2+x,1/2-y,1/2+z
loop_
_atom_site_type_symbol
_atom_site_label
_atom_site_fract_x
_atom_site_fract_y
_atom_site_fract_z
Si Si1 0.000000 0.458128 0.750000
Si Si2 0.000000 0.059320 0.250000
Si Si3 0.911816 0.591352 0.817343
Si Si4 0.199461 0.175921 0.524778
Si Si5 0.638598 0.487681 0.672364
Si Si6 0.502137 0.766148 0.977618
Si Si7 0.221567 0.658293 0.326689
O O1 0.007662 0.517377 0.846818
O O2 0.855908 0.402043 0.656578
O O3 0.110888 0.114179 0.393402
O O4 0.086122 0.007846 0.238848
O O5 0.844914 0.639107 0.678970
O O6 0.767101 0.550358 0.751453
O O7 0.973643 0.654831 0.938224
O O8 0.250000 0.250000 0.500000
O O9 0.093836 0.206252 0.529147
O O10 0.500000 0.500000 0.500000
O O11 0.706375 0.400538 0.697774
O O12 0.649639 0.721241 0.054360
O O13 0.408880 0.792967 0.819106
#
# Coordination Sequence:
#
# PCOD9300142 Si02
#       7
#     4   4   8   8   8   8   8
#     4  10  26  45  67 104 140 196 236 304 358 437
#     4  12  22  37  69 100 132 188 226 278 362 423
#     4  11  23  43  69  96 150 181 233 302 353 423
#     4  12  22  38  68 107 137 176 237 295 359 417
#     4  11  23  45  66 104 149 184 233 300 358 430
#     4  12  23  45  71 105 142 191 234 310 361 421
#     4  11  25  46  73 100 150 187 247 297 366 430
#
# _framework density 22.346052
#
# number of rings (size 3 to 8) (size 9 to 14) (size 15 to 20)
#    0.000    0.667    5.000    3.000    0.000    4.667 
#    0.000    0.833    0.000    0.000    0.000    0.000 
#    0.000    0.000    0.000    0.000    0.000    0.000 
#
# Total GULP energy -134323.634850 kJ/mol
# GULP energy per Si atom -5596.818119 kJ/mol
# Density = 2.229519 g / cm^3
# Si number density = 22.346052 Si / 1000 Ang^3
#
#
#
# Elastic Constant Matrix: (Units=GPa)
#
#
# Indices 1 2 3 4 5 6 
#
# 1 149.1567 59.9584 22.4556 0.0001 14.2424 -0.0001
# 2 59.9584 97.5399 42.8901 0.0002 13.0234 -0.0001
# 3 22.4556 42.8901 76.1983 0.0003 24.3990 -0.0001
# 4 0.0001 0.0002 0.0003 13.0407 0.0001 30.1062
# 5 14.2424 13.0234 24.3990 0.0001 24.7604 -0.0001
# 6 -0.0001 -0.0001 -0.0001 30.1062 -0.0001 32.1407
#
#
#
# Elastic Compliance Matrix: (Units=1/GPa)
#
#
# Indices 1 2 3 4 5 6 
#
# 1 0.009199 -0.005970 0.001955 0.000000 -0.004078 0.000000
# 2 -0.005970 0.017504 -0.009124 0.000000 0.003218 0.000000
# 3 0.001955 -0.009124 0.024116 0.000000 -0.020090 0.000000
# 4 0.000000 0.000000 0.000000 -0.065964 0.000000 0.061788
# 5 -0.004078 0.003218 -0.020090 0.000000 0.060837 0.000000
# 6 0.000000 0.000000 0.000000 0.061788 0.000000 -0.026764
#
#
# Mechanical properties :
#
#
# Convention : Reuss Voigt Hill
#
# Bulk Modulus (GPa) = 40.74625 63.72256 52.23441
# Shear Modulus (GPa) = 93.65762 27.16108 60.40935
#
# Velocity S-wave (km/s) = 6.48100 3.49015 5.20502
# Velocity P-wave (km/s) = 8.61848 6.69475 7.71680
#
# Compressibility (1/GPa) = 0.02454213
#
# Stress axis : x y z
#
# Youngs Moduli (GPa) = 108.70427 57.12885 41.46679
#
# Poissons Ratio (x) = 0.34106 -0.08108
# Poissons Ratio (y) = 0.64897 0.37833
# Poissons Ratio (z) = -0.21254 0.52122
#
# Static dielectric constant tensor:
#      x y z
#    x 1.847110 0.000000 0.045690 
#    y 0.000000 1.866090 0.000000 
#    z 0.045690 0.000000 1.816810 
# 
# From -- ./inp_files/155306.got.cif
#   From: 2010.05.17/outbox.cif.g08.bks.cpg/sg15_78_cif.got.tgz:155306.got - 2010.06.03 18:47:42.
