data_PCOD9300681
_publ_section_title
;
Structure prediction by ZEFSAII (Michael W. Deem and Ramdas Pophale) SiO2 
 PCOD9300681
Probable space group: C 2/C
;
_chemical_formula_sum "Si O2"
_cell_formula_units_Z 40
_cell_length_a 13.717542
_cell_length_b 16.827383
_cell_length_c 14.642421
_cell_angle_alpha 90.000000
_cell_angle_beta 148.654806
_cell_angle_gamma 90.000000
_cell_volume 1758.207856
_symmetry_space_group_name_H-M "C 2/C"
_symmetry_group_IT_number 15
_symmetry_cell_setting 'monoclinic'
loop_
_space_group_symop_operation_xyz
x,y,z
-x,y,1/2-z
-x,-y,-z
x,-y,1/2+z
1/2+x,1/2+y,z
1/2-x,1/2+y,1/2-z
1/2-x,1/2-y,-z
1/2+x,1/2-y,1/2+z
loop_
_atom_site_type_symbol
_atom_site_label
_atom_site_fract_x
_atom_site_fract_y
_atom_site_fract_z
Si Si1 0.629229 0.334164 0.772936
Si Si2 0.895209 0.918776 0.935266
Si Si3 0.537201 0.148797 0.679420
Si Si4 0.192941 0.835483 0.263809
Si Si5 0.032919 0.336165 0.670147
O O1 0.500000 0.368223 0.750000
O O2 0.570730 0.367158 0.628754
O O3 0.596862 0.239925 0.746537
O O4 0.842497 0.352454 0.969157
O O5 0.671755 0.911328 0.769736
O O6 0.993789 0.878898 0.101977
O O7 0.000000 0.000000 0.000000
O O8 0.500000 0.111624 0.750000
O O9 0.697459 0.126349 0.735525
O O10 0.140324 0.741840 0.215616
O O11 0.336674 0.845518 0.461458
O O12 0.000000 0.320501 0.750000
#
# Coordination Sequence:
#
# PCOD9300681 Si02
#       5
#     8   8   8   8   8
#     4  11  20  37  60  96 132 172 216 271 338 409
#     4  12  27  46  66 100 143 183 229 288 355 415
#     4  11  19  34  67 101 130 166 219 278 337 400
#     4  12  22  43  74 100 142 177 232 294 343 410
#     4  12  25  45  74 107 134 184 245 290 339 411
#
# _framework density 22.750437000000002
#
# number of rings (size 3 to 8) (size 9 to 14) (size 15 to 20)
#    0.000    0.400    6.000    5.400    0.000    0.800 
#    3.600    1.000    0.000    0.000    0.000    0.000 
#    0.000    0.000    0.000    0.000    0.000    0.000 
#
# Total GULP energy -111732.846202 kJ/mol
# GULP energy per Si atom -5586.642310 kJ/mol
# Density = 2.269866 g / cm^3
# Si number density = 22.750437 Si / 1000 Ang^3
#
#
#
# Elastic Constant Matrix: (Units=GPa)
#
#
# Indices 1 2 3 4 5 6 
#
# 1 77.5531 -16.7477 8.1825 0.0016 -11.0201 0.0010
# 2 -16.7477 35.5791 3.1329 -0.0021 3.0745 0.0004
# 3 8.1825 3.1329 188.4127 -0.0004 -10.1846 0.0014
# 4 0.0016 -0.0021 -0.0004 17.1524 0.0006 3.5552
# 5 -11.0201 3.0745 -10.1846 0.0006 32.3561 0.0010
# 6 0.0010 0.0004 0.0014 3.5552 0.0010 1.5440
#
#
#
# Elastic Compliance Matrix: (Units=1/GPa)
#
#
# Indices 1 2 3 4 5 6 
#
# 1 0.015019 0.006744 -0.000532 0.000004 0.004307 -0.000023
# 2 0.006744 0.031441 -0.000868 0.000011 -0.000964 -0.000036
# 3 -0.000532 -0.000868 0.005432 0.000002 0.001611 -0.000010
# 4 0.000004 0.000011 0.000002 0.111532 0.000007 -0.256817
# 5 0.004307 -0.000964 0.001611 0.000007 0.032972 -0.000042
# 6 -0.000023 -0.000036 -0.000010 -0.256817 -0.000042 1.239038
#
#
# Mechanical properties :
#
#
# Convention : Reuss Voigt Hill
#
# Bulk Modulus (GPa) = 15.97910 32.29780 24.13845
# Shear Modulus (GPa) = 3.45876 30.67565 17.06721
#
# Velocity S-wave (km/s) = 1.23434 3.67598 2.74194
# Velocity P-wave (km/s) = 3.01171 5.67842 4.54504
#
# Compressibility (1/GPa) = 0.06258173
#
# Stress axis : x y z
#
# Youngs Moduli (GPa) = 66.58259 31.80584 184.09054
#
# Poissons Ratio (x) = -0.21451 0.09786
# Poissons Ratio (y) = -0.44905 0.15975
# Poissons Ratio (z) = 0.03539 0.02760
#
# Static dielectric constant tensor:
#      x y z
#    x 1.939180 0.000000 0.021930 
#    y 0.000000 1.857830 0.000000 
#    z 0.021930 0.000000 1.847610 
# 
# From -- ./inp_files/155356.got.cif
#   From: 2010.05.17/outbox.cif.g08.bks.cpg/sg15_78_cif.got.tgz:155356.got - 2010.06.03 18:47:42.
