data_PCOD9300237
_publ_section_title
;
Structure prediction by ZEFSAII (Michael W. Deem and Ramdas Pophale) SiO2 
 PCOD9300237
Probable space group: C 2/C
;
_chemical_formula_sum "Si O2"
_cell_formula_units_Z 36
_cell_length_a 7.845943
_cell_length_b 22.186349
_cell_length_c 15.192106
_cell_angle_alpha 90.000000
_cell_angle_beta 33.772171
_cell_angle_gamma 90.000000
_cell_volume 1470.074498
_symmetry_space_group_name_H-M "C 2/C"
_symmetry_group_IT_number 15
_symmetry_cell_setting 'monoclinic'
loop_
_space_group_symop_operation_xyz
x,y,z
-x,y,1/2-z
-x,-y,-z
x,-y,1/2+z
1/2+x,1/2+y,z
1/2-x,1/2+y,1/2-z
1/2-x,1/2-y,-z
1/2+x,1/2-y,1/2+z
loop_
_atom_site_type_symbol
_atom_site_label
_atom_site_fract_x
_atom_site_fract_y
_atom_site_fract_z
Si Si1 0.398132 0.524690 0.137987
Si Si2 0.500000 0.266290 0.750000
Si Si3 0.405312 0.323035 0.187425
Si Si4 0.302175 0.871740 0.514939
Si Si5 0.156417 0.429274 0.520665
O O1 0.542990 0.590698 0.079872
O O2 0.055948 0.536141 0.317848
O O3 0.500000 0.500000 0.000000
O O4 0.578080 0.475817 0.120269
O O5 0.225170 0.229855 0.818819
O O6 0.666905 0.309133 0.607616
O O7 0.500000 0.307671 0.250000
O O8 0.098137 0.362544 0.328689
O O9 0.672140 0.365511 0.033238
O O10 0.420389 0.910739 0.546243
#
# Coordination Sequence:
#
# PCOD9300237 Si02
#       5
#     8   4   8   8   8
#     4  12  25  44  73 113 153 198 260 329 394 476
#     4  12  24  50  82 108 170 206 264 336 378 476
#     4  10  26  46  77 114 155 213 270 316 393 472
#     4  11  24  49  70 113 152 212 260 323 398 467
#     4  11  24  47  74 107 157 203 260 321 400 473
#
# _framework density 24.488555999999999
#
# number of rings (size 3 to 8) (size 9 to 14) (size 15 to 20)
#    0.000    0.889    2.222    3.333    3.111    7.111 
#    4.000    0.000    0.000    0.000    0.000    0.000 
#    0.000    0.000    0.000    0.000    0.000    0.000 
#
# Total GULP energy -100587.869032 kJ/mol
# GULP energy per Si atom -5588.214946 kJ/mol
# Density = 2.443282 g / cm^3
# Si number density = 24.488556 Si / 1000 Ang^3
#
#
#
# Elastic Constant Matrix: (Units=GPa)
#
#
# Indices 1 2 3 4 5 6 
#
# 1 97.8590 76.0568 58.8480 0.0000 -5.1386 0.0000
# 2 76.0568 145.6363 63.5758 0.0000 -6.5167 -0.0001
# 3 58.8480 63.5758 161.7351 0.0000 -12.9556 0.0000
# 4 0.0000 0.0000 0.0000 39.1368 0.0000 -22.9128
# 5 -5.1386 -6.5167 -12.9556 0.0000 36.1981 0.0000
# 6 0.0000 -0.0001 0.0000 -22.9128 0.0000 61.7440
#
#
#
# Elastic Compliance Matrix: (Units=1/GPa)
#
#
# Indices 1 2 3 4 5 6 
#
# 1 0.018787 -0.008243 -0.003604 0.000000 -0.000107 0.000000
# 2 -0.008243 0.011909 -0.001652 0.000000 0.000383 0.000000
# 3 -0.003604 -0.001652 0.008317 0.000000 0.002168 0.000000
# 4 0.000000 0.000000 0.000000 0.032643 0.000000 0.012114
# 5 -0.000107 0.000383 0.002168 0.000000 0.028455 0.000000
# 6 0.000000 0.000000 0.000000 0.012114 0.000000 0.020691
#
#
# Mechanical properties :
#
#
# Convention : Reuss Voigt Hill
#
# Bulk Modulus (GPa) = 83.21912 89.13242 86.17577
# Shear Modulus (GPa) = 32.93692 41.19906 37.06799
#
# Velocity S-wave (km/s) = 3.67139 4.10613 3.89483
# Velocity P-wave (km/s) = 7.21310 7.67835 7.44936
#
# Compressibility (1/GPa) = 0.01201647
#
# Stress axis : x y z
#
# Youngs Moduli (GPa) = 53.22891 83.96935 120.23290
#
# Poissons Ratio (x) = 0.69213 0.43334
# Poissons Ratio (y) = 0.43874 0.19857
# Poissons Ratio (z) = 0.19185 0.13868
#
# Static dielectric constant tensor:
#      x y z
#    x 2.082500 0.000000 0.052290 
#    y 0.000000 1.976790 0.000000 
#    z 0.052290 0.000000 1.936590 
# 
# From -- ./inp_files/192423.got.cif
#   From: 2010.05.17/outbox.cif.g08.bks.cpg/sg15_97_cif.got.tgz:192423.got - 2010.06.03 18:47:42.
