data_PCOD9300896
_publ_section_title
;
Structure prediction by ZEFSAII (Michael W. Deem and Ramdas Pophale) SiO2 
 PCOD9300896
Probable space group: C 2/C
;
_chemical_formula_sum "Si O2"
_cell_formula_units_Z 64
_cell_length_a 22.571213
_cell_length_b 20.471704
_cell_length_c 12.533891
_cell_angle_alpha 90.000000
_cell_angle_beta 37.292963
_cell_angle_gamma 90.000000
_cell_volume 3509.046232
_symmetry_space_group_name_H-M "C 2/C"
_symmetry_group_IT_number 15
_symmetry_cell_setting 'monoclinic'
loop_
_space_group_symop_operation_xyz
x,y,z
-x,y,1/2-z
-x,-y,-z
x,-y,1/2+z
1/2+x,1/2+y,z
1/2-x,1/2+y,1/2-z
1/2-x,1/2-y,-z
1/2+x,1/2-y,1/2+z
loop_
_atom_site_type_symbol
_atom_site_label
_atom_site_fract_x
_atom_site_fract_y
_atom_site_fract_z
Si Si1 0.226822 0.054407 0.071686
Si Si2 0.696299 0.595281 0.692997
Si Si3 0.442929 0.044705 0.727163
Si Si4 0.610624 0.163773 0.134698
Si Si5 0.184939 0.085622 0.355406
Si Si6 0.387624 0.317485 0.377908
Si Si7 0.606459 0.079803 0.347452
Si Si8 0.603239 0.549035 0.043560
O O1 0.173503 0.090280 0.245417
O O2 0.182358 0.065811 0.020201
O O3 0.214352 0.977087 0.117669
O O4 0.339893 0.073988 0.908746
O O5 0.804453 0.626495 0.553265
O O6 0.642132 0.640734 0.683635
O O7 0.632751 0.585475 0.891445
O O8 0.500000 0.021357 0.750000
O O9 0.515897 0.090371 0.556280
O O10 0.416614 0.983844 0.690046
O O11 0.500000 0.152792 0.250000
O O12 0.631065 0.240854 0.107435
O O13 0.619088 0.136318 0.242698
O O14 0.169400 0.151604 0.441248
O O15 0.296007 0.065226 0.225126
O O16 0.114941 0.028115 0.499083
O O17 0.500000 0.326047 0.250000
O O18 0.500000 0.560887 0.250000
#
# Coordination Sequence:
#
# PCOD9300896 Si02
#       8
#     8   8   8   8   8   8   8   8
#     4  11  22  36  56  90 121 153 189 233 295 354
#     4  11  23  38  61  86 119 151 194 237 292 341
#     4  11  20  32  53  85 125 154 179 232 295 349
#     4  11  23  38  60  88 113 150 196 238 289 341
#     4  11  21  36  58  85 118 152 190 237 293 338
#     4  11  23  40  61  85 112 148 196 246 288 331
#     4  11  21  32  56  85 121 156 187 231 291 349
#     4  11  24  38  57  86 118 155 193 236 289 349
#
# _framework density 18.238575000000001
#
# number of rings (size 3 to 8) (size 9 to 14) (size 15 to 20)
#    0.000    1.000    6.250    1.125    3.500    1.000 
#    0.000    0.000    0.000    3.000    0.000    0.000 
#    0.000    0.000    0.000    0.000    0.000    0.000 
#
# Total GULP energy -178614.882646 kJ/mol
# GULP energy per Si atom -5581.715083 kJ/mol
# Density = 1.819706 g / cm^3
# Si number density = 18.238575 Si / 1000 Ang^3
#
#
#
# Elastic Constant Matrix: (Units=GPa)
#
#
# Indices 1 2 3 4 5 6 
#
# 1 35.9745 6.3261 17.2599 0.0000 2.8917 0.0000
# 2 6.3261 67.9309 32.5603 0.0000 7.5897 0.0000
# 3 17.2599 32.5603 124.0741 0.0000 6.0493 0.0000
# 4 0.0000 0.0000 0.0000 16.2814 0.0000 1.1429
# 5 2.8917 7.5897 6.0493 0.0000 35.7507 0.0000
# 6 0.0000 0.0000 0.0000 1.1429 0.0000 16.8371
#
#
#
# Elastic Compliance Matrix: (Units=1/GPa)
#
#
# Indices 1 2 3 4 5 6 
#
# 1 0.029923 -0.000743 -0.003889 0.000000 -0.001604 0.000000
# 2 -0.000743 0.017150 -0.004258 0.000000 -0.002860 0.000000
# 3 -0.003889 -0.004258 0.009739 0.000000 -0.000429 0.000000
# 4 0.000000 0.000000 0.000000 0.061714 0.000000 -0.004189
# 5 -0.001604 -0.002860 -0.000429 0.000000 0.028781 0.000000
# 6 0.000000 0.000000 0.000000 -0.004189 0.000000 0.059677
#
#
# Mechanical properties :
#
#
# Convention : Reuss Voigt Hill
#
# Bulk Modulus (GPa) = 25.62005 37.80801 31.71403
# Shear Modulus (GPa) = 21.02819 25.22940 23.12880
#
# Velocity S-wave (km/s) = 3.39920 3.72331 3.56494
# Velocity P-wave (km/s) = 5.42989 6.26568 5.86270
#
# Compressibility (1/GPa) = 0.03903193
#
# Stress axis : x y z
#
# Youngs Moduli (GPa) = 33.41898 58.30736 102.67928
#
# Poissons Ratio (x) = 0.04333 0.39935
# Poissons Ratio (y) = 0.02483 0.43720
# Poissons Ratio (z) = 0.12998 0.24827
#
# Static dielectric constant tensor:
#      x y z
#    x 1.640430 0.000000 -0.032670 
#    y 0.000000 1.602670 0.000000 
#    z -0.032670 0.000000 1.688190 
# 
# From -- ./inp_files/114254.got.cif
#   From: 2010.05.17/outbox.cif.g08.bks.cpg/sg15_58_cif.got.tgz:114254.got - 2010.06.03 18:47:42.
