data_PCOD9300883
_publ_section_title
;
Structure prediction by ZEFSAII (Michael W. Deem and Ramdas Pophale) SiO2 
 PCOD9300883
Probable space group: C 2/C
;
_chemical_formula_sum "Si O2"
_cell_formula_units_Z 56
_cell_length_a 16.632794
_cell_length_b 20.268943
_cell_length_c 23.695242
_cell_angle_alpha 90.000000
_cell_angle_beta 21.045616
_cell_angle_gamma 90.000000
_cell_volume 2868.707669
_symmetry_space_group_name_H-M "C 2/C"
_symmetry_group_IT_number 15
_symmetry_cell_setting 'monoclinic'
loop_
_space_group_symop_operation_xyz
x,y,z
-x,y,1/2-z
-x,-y,-z
x,-y,1/2+z
1/2+x,1/2+y,z
1/2-x,1/2+y,1/2-z
1/2-x,1/2-y,-z
1/2+x,1/2-y,1/2+z
loop_
_atom_site_type_symbol
_atom_site_label
_atom_site_fract_x
_atom_site_fract_y
_atom_site_fract_z
Si Si1 0.000000 0.760141 0.750000
Si Si2 0.400447 0.343461 0.002046
Si Si3 0.252663 0.869534 0.280666
Si Si4 0.345811 0.763899 0.721336
Si Si5 0.000000 0.018408 0.250000
Si Si6 0.767299 0.871867 0.970489
Si Si7 0.753087 0.816256 0.391042
Si Si8 0.305744 0.053631 0.635045
O O1 0.786759 0.715255 0.874023
O O2 0.916129 0.809202 0.854018
O O3 0.381952 0.380686 0.073578
O O4 0.644332 0.311860 0.835276
O O5 0.330971 0.385769 0.993221
O O6 0.166201 0.803400 0.306982
O O7 0.252455 0.927492 0.234436
O O8 0.508372 0.856277 0.131720
O O9 0.585815 0.795494 0.550375
O O10 0.296077 0.742440 0.818082
O O11 0.098979 0.975879 0.235736
O O12 0.180827 0.067543 0.104478
O O13 0.640376 0.876628 0.430636
O O14 0.000000 0.835632 0.250000
O O15 0.500000 0.000000 0.500000
#
# Coordination Sequence:
#
# PCOD9300883 Si02
#       8
#     4   8   8   8   4   8   8   8
#     4  11  20  30  54  92 138 170 195 248 316 394
#     4  12  21  34  56  95 138 168 204 252 328 390
#     4  11  21  38  59  93 129 174 206 263 322 387
#     4  11  23  37  63  94 131 168 209 265 322 389
#     4  11  24  44  64  90 114 166 227 274 310 380
#     4  11  22  33  61  91 130 168 209 254 320 384
#     4  11  24  43  66  92 125 169 217 270 327 381
#     4  11  24  43  67  91 123 165 228 276 316 380
#
# _framework density 19.520983999999999
#
# number of rings (size 3 to 8) (size 9 to 14) (size 15 to 20)
#    0.000    0.857    6.429    1.714    2.000    0.000 
#    0.000    0.714    0.000    0.000    0.000    0.000 
#    0.000    0.000    0.000    0.000    0.000    0.000 
#
# Total GULP energy -156382.801297 kJ/mol
# GULP energy per Si atom -5585.100046 kJ/mol
# Density = 1.947655 g / cm^3
# Si number density = 19.520984 Si / 1000 Ang^3
#
#
#
# Elastic Constant Matrix: (Units=GPa)
#
#
# Indices 1 2 3 4 5 6 
#
# 1 100.9876 23.8529 22.5181 -0.0407 14.5340 0.0863
# 2 23.8529 54.9054 28.0212 -0.0547 10.0743 0.0507
# 3 22.5181 28.0212 102.3201 -0.1251 2.5133 0.0545
# 4 -0.0407 -0.0547 -0.1251 8.3863 0.0192 -4.0171
# 5 14.5340 10.0743 2.5133 0.0192 33.3969 -0.0499
# 6 0.0863 0.0507 0.0545 -4.0171 -0.0499 21.2090
#
#
#
# Elastic Compliance Matrix: (Units=1/GPa)
#
#
# Indices 1 2 3 4 5 6 
#
# 1 0.011638 -0.003589 -0.001483 -0.000002 -0.003871 -0.000044
# 2 -0.003589 0.023534 -0.005529 0.000051 -0.005121 -0.000030
# 3 -0.001483 -0.005529 0.011579 0.000135 0.001442 0.000018
# 4 -0.000002 0.000051 0.000135 0.131142 -0.000063 0.024838
# 5 -0.003871 -0.005121 0.001442 -0.000063 0.033064 0.000090
# 6 -0.000044 -0.000030 0.000018 0.024838 0.000090 0.051855
#
#
# Mechanical properties :
#
#
# Convention : Reuss Voigt Hill
#
# Bulk Modulus (GPa) = 39.14238 45.22196 42.18217
# Shear Modulus (GPa) = 17.09234 24.85316 20.97275
#
# Velocity S-wave (km/s) = 2.96224 3.57200 3.28131
# Velocity P-wave (km/s) = 5.63869 6.34258 6.00096
#
# Compressibility (1/GPa) = 0.02554776
#
# Stress axis : x y z
#
# Youngs Moduli (GPa) = 85.92801 42.49203 86.36570
#
# Poissons Ratio (x) = 0.15249 0.12811
# Poissons Ratio (y) = 0.30836 0.47754
# Poissons Ratio (z) = 0.12746 0.23495
#
# Static dielectric constant tensor:
#      x y z
#    x 1.716990 0.000030 0.006620 
#    y 0.000030 1.684090 0.000130 
#    z 0.006620 0.000130 1.680380 
# 
# From -- ./inp_files/299335.got.cif
#   From: 2010.05.17/outbox.cif.g08.bks.cpg/sg15_150_cif.got.tgz:299335.got - 2010.06.03 18:47:42.
