data_PCOD9300335
_publ_section_title
;
Structure prediction by ZEFSAII (Michael W. Deem and Ramdas Pophale) SiO2 
 PCOD9300335
Probable space group: C 2/C
;
_chemical_formula_sum "Si O2"
_cell_formula_units_Z 24
_cell_length_a 4.623977
_cell_length_b 22.807843
_cell_length_c 7.297227
_cell_angle_alpha 90.000000
_cell_angle_beta 105.315743
_cell_angle_gamma 90.000000
_cell_volume 742.255047
_symmetry_space_group_name_H-M "C 2/C"
_symmetry_group_IT_number 15
_symmetry_cell_setting 'monoclinic'
loop_
_space_group_symop_operation_xyz
x,y,z
-x,y,1/2-z
-x,-y,-z
x,-y,1/2+z
1/2+x,1/2+y,z
1/2-x,1/2+y,1/2-z
1/2-x,1/2-y,-z
1/2+x,1/2-y,1/2+z
loop_
_atom_site_type_symbol
_atom_site_label
_atom_site_fract_x
_atom_site_fract_y
_atom_site_fract_z
Si Si1 0.000000 0.251085 0.750000
Si Si2 0.718407 0.826339 0.454449
Si Si3 0.000000 0.957540 0.750000
Si Si4 0.231213 0.427032 0.072801
O O1 0.027536 0.201793 0.925284
O O2 0.169422 0.297280 0.642919
O O3 0.500000 0.803781 0.250000
O O4 0.573473 0.891694 0.451724
O O5 0.156263 0.922383 0.615516
O O6 0.757449 0.004264 0.630870
O O7 0.500000 0.403666 0.250000
#
# Coordination Sequence:
#
# PCOD9300335 Si02
#       4
#     4   8   4   8
#     4  10  26  49  68 102 148 190 241 296 352 424
#     4  11  24  46  73 101 140 195 238 296 357 425
#     4   8  18  41  72 112 146 182 235 292 360 428
#     4   9  19  40  74 107 141 187 238 292 359 423
#
# _framework density 32.333902999999999
#
# number of rings (size 3 to 8) (size 9 to 14) (size 15 to 20)
#    1.000    1.333    0.000    1.000    2.333    2.667 
#    9.000    1.667    0.000    2.000    0.000    0.000 
#    0.000    0.000    0.000    0.000    0.000    0.000 
#
# Total GULP energy -66956.669542 kJ/mol
# GULP energy per Si atom -5579.722462 kJ/mol
# Density = 3.226031 g / cm^3
# Si number density = 32.333903 Si / 1000 Ang^3
#
#
#
# Elastic Constant Matrix: (Units=GPa)
#
#
# Indices 1 2 3 4 5 6 
#
# 1 218.9287 49.9576 89.9825 0.0000 -22.6037 0.0000
# 2 49.9576 246.9981 62.6728 0.0000 -27.1565 0.0000
# 3 89.9825 62.6728 339.0794 0.0000 -87.9266 0.0000
# 4 0.0000 0.0000 0.0000 19.3700 0.0000 86.0471
# 5 -22.6037 -27.1565 -87.9266 0.0000 88.4949 0.0000
# 6 0.0000 0.0000 0.0000 86.0471 0.0000 -179.8539
#
#
#
# Elastic Compliance Matrix: (Units=1/GPa)
#
#
# Indices 1 2 3 4 5 6 
#
# 1 0.005256 -0.000753 -0.001303 0.000000 -0.000183 0.000000
# 2 -0.000753 0.004389 -0.000420 0.000000 0.000737 0.000000
# 3 -0.001303 -0.000420 0.004382 0.000000 0.003892 0.000000
# 4 0.000000 0.000000 0.000000 0.016519 0.000000 0.007903
# 5 -0.000183 0.000737 0.003892 0.000000 0.015346 0.000000
# 6 0.000000 0.000000 0.000000 0.007903 0.000000 -0.001779
#
#
# Mechanical properties :
#
#
# Convention : Reuss Voigt Hill
#
# Bulk Modulus (GPa) = 110.20287 134.47020 122.33654
# Shear Modulus (GPa) = 95.98823 25.76174 60.87499
#
# Velocity S-wave (km/s) = 5.45445 2.82572 4.34371
# Velocity P-wave (km/s) = 8.59213 7.23357 7.94196
#
# Compressibility (1/GPa) = 0.00907417
#
# Stress axis : x y z
#
# Youngs Moduli (GPa) = 190.25282 227.86826 228.21051
#
# Poissons Ratio (x) = 0.17149 0.29742
# Poissons Ratio (y) = 0.14318 0.09593
# Poissons Ratio (z) = 0.24795 0.09579
#
# Static dielectric constant tensor:
#      x y z
#    x 5.523810 0.000000 -0.110750 
#    y 0.000000 2.689820 0.000000 
#    z -0.110750 0.000000 2.467080 
# 
# From -- ./inp_files/19501.got.cif
#   From: 2010.05.17/outbox.cif.g08.bks.cpg/sg15_10_cif.got.tgz:19501.got - 2010.06.03 18:47:42.
