data_PCOD9300376
_publ_section_title
;
Structure prediction by ZEFSAII (Michael W. Deem and Ramdas Pophale) SiO2 
 PCOD9300376
Probable space group: C 2/C
;
_chemical_formula_sum "Si O2"
_cell_formula_units_Z 44
_cell_length_a 24.913757
_cell_length_b 9.313126
_cell_length_c 7.429886
_cell_angle_alpha 90.000000
_cell_angle_beta 70.742741
_cell_angle_gamma 90.000000
_cell_volume 1627.460968
_symmetry_space_group_name_H-M "C 2/C"
_symmetry_group_IT_number 15
_symmetry_cell_setting 'monoclinic'
loop_
_space_group_symop_operation_xyz
x,y,z
-x,y,1/2-z
-x,-y,-z
x,-y,1/2+z
1/2+x,1/2+y,z
1/2-x,1/2+y,1/2-z
1/2-x,1/2-y,-z
1/2+x,1/2-y,1/2+z
loop_
_atom_site_type_symbol
_atom_site_label
_atom_site_fract_x
_atom_site_fract_y
_atom_site_fract_z
Si Si1 0.150976 0.796873 0.559234
Si Si2 0.289018 0.400768 0.462195
Si Si3 0.704905 0.035822 0.344149
Si Si4 0.383745 0.802105 0.038364
Si Si5 0.500000 0.589737 0.250000
Si Si6 0.063981 0.174229 0.839169
O O1 0.194338 0.663063 0.497819
O O2 0.121027 0.814784 0.397504
O O3 0.180204 0.944651 0.576327
O O4 0.107726 0.754252 0.768434
O O5 0.254665 0.417636 0.313746
O O6 0.230339 0.387296 0.642664
O O7 0.335148 0.301548 0.506889
O O8 0.644308 0.957829 0.407327
O O9 0.431331 0.786938 0.830580
O O10 0.481814 0.676234 0.447943
O O11 0.450255 0.475949 0.246245
#
# Coordination Sequence:
#
# PCOD9300376 Si02
#       6
#     8   8   8   8   4   8
#     4  12  26  43  68 103 145 185 238 289 337 405
#     4  12  22  39  64  99 144 196 250 282 311 382
#     4  12  23  43  63  97 148 202 236 273 330 392
#     4  12  26  43  70 101 145 192 236 286 337 401
#     4  10  26  50  78 104 138 154 224 302 372 436
#     4  11  26  45  73 108 131 172 217 295 368 423
#
# _framework density 27.035981
#
# number of rings (size 3 to 8) (size 9 to 14) (size 15 to 20)
#    0.000    0.364    3.636    5.455   10.182    0.000 
#    0.000    0.000    0.000    3.273    0.000    0.000 
#    0.000    0.000    0.000    0.000    0.000    0.000 
#
# Total GULP energy -122860.370320 kJ/mol
# GULP energy per Si atom -5584.562287 kJ/mol
# Density = 2.697445 g / cm^3
# Si number density = 27.035981 Si / 1000 Ang^3
#
#
#
# Elastic Constant Matrix: (Units=GPa)
#
#
# Indices 1 2 3 4 5 6 
#
# 1 87.7082 12.3919 11.9713 0.0000 8.5813 0.0000
# 2 12.3919 55.6201 -29.2324 0.0000 -3.1623 0.0000
# 3 11.9713 -29.2324 176.5675 0.0000 7.7560 0.0000
# 4 0.0000 0.0000 0.0000 25.5589 0.0000 -5.5933
# 5 8.5813 -3.1623 7.7560 0.0000 56.0697 0.0000
# 6 0.0000 0.0000 0.0000 -5.5933 0.0000 33.1631
#
#
#
# Elastic Compliance Matrix: (Units=1/GPa)
#
#
# Indices 1 2 3 4 5 6 
#
# 1 0.012269 -0.003543 -0.001335 0.000000 -0.001893 0.000000
# 2 -0.003543 0.020740 0.003621 0.000000 0.001211 0.000000
# 3 -0.001335 0.003621 0.006374 0.000000 -0.000473 0.000000
# 4 0.000000 0.000000 0.000000 0.040625 0.000000 0.006852
# 5 -0.001893 0.001211 -0.000473 0.000000 0.018258 0.000000
# 6 0.000000 0.000000 0.000000 0.006852 0.000000 0.031310
#
#
# Mechanical properties :
#
#
# Convention : Reuss Voigt Hill
#
# Bulk Modulus (GPa) = 27.12302 34.46192 30.79247
# Shear Modulus (GPa) = 34.63045 44.60935 39.61990
#
# Velocity S-wave (km/s) = 3.58285 4.06643 3.83227
# Velocity P-wave (km/s) = 5.21246 5.90103 5.56740
#
# Compressibility (1/GPa) = 0.03686905
#
# Stress axis : x y z
#
# Youngs Moduli (GPa) = 81.50313 48.21530 156.87925
#
# Poissons Ratio (x) = 0.17083 0.20948
# Poissons Ratio (y) = 0.28877 -0.56802
# Poissons Ratio (z) = 0.10883 -0.17458
#
# Static dielectric constant tensor:
#      x y z
#    x 2.169360 0.000000 -0.054580 
#    y 0.000000 2.313580 0.000000 
#    z -0.054580 0.000000 2.292900 
# 
# From -- ./inp_files/68506.got.cif
#   From: 2010.05.17/outbox.cif.g08.bks.cpg/sg15_35_cif.got.tgz:68506.got - 2010.06.03 18:47:42.
