data_PCOD9300871
_publ_section_title
;
Structure prediction by ZEFSAII (Michael W. Deem and Ramdas Pophale) SiO2 
 PCOD9300871
Probable space group: C 2/C
;
_chemical_formula_sum "Si O2"
_cell_formula_units_Z 52
_cell_length_a 20.705162
_cell_length_b 11.172116
_cell_length_c 14.572931
_cell_angle_alpha 90.000000
_cell_angle_beta 129.973868
_cell_angle_gamma 90.000000
_cell_volume 2583.337057
_symmetry_space_group_name_H-M "C 2/C"
_symmetry_group_IT_number 15
_symmetry_cell_setting 'monoclinic'
loop_
_space_group_symop_operation_xyz
x,y,z
-x,y,1/2-z
-x,-y,-z
x,-y,1/2+z
1/2+x,1/2+y,z
1/2-x,1/2+y,1/2-z
1/2-x,1/2-y,-z
1/2+x,1/2-y,1/2+z
loop_
_atom_site_type_symbol
_atom_site_label
_atom_site_fract_x
_atom_site_fract_y
_atom_site_fract_z
Si Si1 0.329484 0.023183 0.980596
Si Si2 0.487199 0.629713 0.440820
Si Si3 0.314558 0.277429 0.869791
Si Si4 0.333274 0.399153 0.076382
Si Si5 0.368979 0.817590 0.875103
Si Si6 0.089667 0.344403 0.789507
Si Si7 0.000000 0.949789 0.750000
O O1 0.334531 0.145996 0.927263
O O2 0.233104 0.022737 0.927374
O O3 0.360908 0.914235 0.948530
O O4 0.381441 0.046262 0.120820
O O5 0.500000 0.500000 0.500000
O O6 0.397846 0.680552 0.393092
O O7 0.566795 0.711467 0.541597
O O8 0.483849 0.621578 0.328096
O O9 0.227136 0.277147 0.734390
O O10 0.304647 0.368105 0.947251
O O11 0.349411 0.270143 0.138390
O O12 0.420599 0.467243 0.155534
O O13 0.406759 0.871248 0.814620
O O14 0.000000 0.307281 0.750000
#
# Coordination Sequence:
#
# PCOD9300871 Si02
#       7
#     8   8   8   8   8   8   4
#     4  11  24  41  67 101 136 175 233 291 355 410
#     4  12  27  47  73 105 142 192 239 289 362 432
#     4  11  23  43  75 103 136 183 247 295 349 422
#     4  11  19  42  71 103 130 179 239 295 337 419
#     4  12  25  45  69 106 145 184 236 299 360 425
#     4  11  21  40  69  97 129 182 237 291 338 418
#     4  12  24  42  74 100 144 178 236 296 350 422
#
# _framework density 20.129003999999998
#
# number of rings (size 3 to 8) (size 9 to 14) (size 15 to 20)
#    0.000    0.615    5.385    4.615    2.154    2.462 
#    4.154    1.538    0.000    0.000    0.000    0.000 
#    0.000    0.000    0.000    0.000    0.000    0.000 
#
# Total GULP energy -145330.143116 kJ/mol
# GULP energy per Si atom -5589.620889 kJ/mol
# Density = 2.008319 g / cm^3
# Si number density = 20.129004 Si / 1000 Ang^3
#
#
#
# Elastic Constant Matrix: (Units=GPa)
#
#
# Indices 1 2 3 4 5 6 
#
# 1 159.7329 63.2853 48.4521 0.0000 9.3495 0.0000
# 2 63.2853 88.1127 45.0285 0.0000 -2.1145 0.0000
# 3 48.4521 45.0285 87.6544 0.0000 4.4926 0.0000
# 4 0.0000 0.0000 0.0000 13.5861 0.0000 0.2996
# 5 9.3495 -2.1145 4.4926 0.0000 39.5004 0.0000
# 6 0.0000 0.0000 0.0000 0.2996 0.0000 30.4133
#
#
#
# Elastic Compliance Matrix: (Units=1/GPa)
#
#
# Indices 1 2 3 4 5 6 
#
# 1 0.009263 -0.005626 -0.002114 0.000000 -0.002253 0.000000
# 2 -0.005626 0.018925 -0.006772 0.000000 0.003115 0.000000
# 3 -0.002114 -0.006772 0.016143 0.000000 -0.001698 0.000000
# 4 0.000000 0.000000 0.000000 0.073620 0.000000 -0.000725
# 5 -0.002253 0.003115 -0.001698 0.000000 0.026209 0.000000
# 6 0.000000 0.000000 0.000000 -0.000725 0.000000 0.032888
#
#
# Mechanical properties :
#
#
# Convention : Reuss Voigt Hill
#
# Bulk Modulus (GPa) = 65.33279 72.11466 68.72372
# Shear Modulus (GPa) = 23.67699 28.61557 26.14628
#
# Velocity S-wave (km/s) = 3.43339 3.77451 3.60798
# Velocity P-wave (km/s) = 6.94587 7.40945 7.18140
#
# Compressibility (1/GPa) = 0.01530625
#
# Stress axis : x y z
#
# Youngs Moduli (GPa) = 107.95818 52.83879 61.94694
#
# Poissons Ratio (x) = 0.29729 0.13098
# Poissons Ratio (y) = 0.60742 0.41948
# Poissons Ratio (z) = 0.22826 0.35781
#
# Static dielectric constant tensor:
#      x y z
#    x 1.763130 0.000000 0.014900 
#    y 0.000000 1.685440 0.000000 
#    z 0.014900 0.000000 1.744020 
# 
# From -- ./inp_files/167717.got.cif
#   From: 2010.05.17/outbox.cif.g08.bks.cpg/sg15_84_cif.got.tgz:167717.got - 2010.06.03 18:47:42.
