data_PCOD9300825
_publ_section_title
;
Structure prediction by ZEFSAII (Michael W. Deem and Ramdas Pophale) SiO2 
 PCOD9300825
Probable space group: C 2/C
;
_chemical_formula_sum "Si O2"
_cell_formula_units_Z 56
_cell_length_a 20.403433
_cell_length_b 17.277536
_cell_length_c 8.846070
_cell_angle_alpha 90.000000
_cell_angle_beta 112.449136
_cell_angle_gamma 90.000000
_cell_volume 2882.108106
_symmetry_space_group_name_H-M "C 2/C"
_symmetry_group_IT_number 15
_symmetry_cell_setting 'monoclinic'
loop_
_space_group_symop_operation_xyz
x,y,z
-x,y,1/2-z
-x,-y,-z
x,-y,1/2+z
1/2+x,1/2+y,z
1/2-x,1/2+y,1/2-z
1/2-x,1/2-y,-z
1/2+x,1/2-y,1/2+z
loop_
_atom_site_type_symbol
_atom_site_label
_atom_site_fract_x
_atom_site_fract_y
_atom_site_fract_z
Si Si1 0.159411 0.752250 0.734030
Si Si2 0.802698 0.462023 0.511791
Si Si3 0.719321 0.804113 0.835145
Si Si4 0.380881 0.292440 0.465735
Si Si5 0.752803 0.096759 0.829051
Si Si6 0.462515 0.066981 0.056535
Si Si7 0.980614 0.743011 0.055247
O O1 0.221916 0.810967 0.744786
O O2 0.199900 0.670018 0.761129
O O3 0.099237 0.766173 0.556340
O O4 0.128489 0.759215 0.874086
O O5 0.799976 0.387544 0.618795
O O6 0.781670 0.539850 0.579057
O O7 0.747346 0.447738 0.329299
O O8 0.880751 0.456738 0.507031
O O9 0.654294 0.762015 0.694796
O O10 0.750000 0.750000 0.000000
O O11 0.330971 0.368518 0.425615
O O12 0.462726 0.292577 0.489716
O O13 0.500000 0.070186 0.250000
O O14 0.477492 0.152274 0.003130
O O15 0.500000 0.000000 0.000000
O O16 0.000000 0.747956 0.250000
#
# Coordination Sequence:
#
# PCOD9300825 Si02
#       7
#     8   8   8   8   8   8   8
#     4  11  23  41  62  95 126 165 220 272 321 376
#     4  12  24  40  63  91 133 169 216 263 331 389
#     4  11  19  40  65  88 123 170 219 272 310 386
#     4  11  24  40  64  94 131 164 227 269 319 383
#     4  11  25  40  62  98 129 172 216 265 325 388
#     4  11  23  37  55  87 129 171 204 249 318 393
#     4  11  23  41  64  90 122 173 218 260 329 382
#
# _framework density 19.430221
#
# number of rings (size 3 to 8) (size 9 to 14) (size 15 to 20)
#    0.000    0.857    4.286    5.571    6.000    0.000 
#    0.000    0.000    0.000    0.857    0.000    0.000 
#    0.000    0.000    0.000    0.000    0.000    0.000 
#
# Total GULP energy -156317.574446 kJ/mol
# GULP energy per Si atom -5582.770516 kJ/mol
# Density = 1.938600 g / cm^3
# Si number density = 19.430221 Si / 1000 Ang^3
#
#
#
# Elastic Constant Matrix: (Units=GPa)
#
#
# Indices 1 2 3 4 5 6 
#
# 1 105.1247 50.8950 -1.9023 0.0000 -6.5661 0.0000
# 2 50.8950 70.0500 12.6298 0.0000 -3.7238 0.0000
# 3 -1.9023 12.6298 50.2750 0.0000 -4.8861 0.0000
# 4 0.0000 0.0000 0.0000 -54.3877 0.0000 -20.1571
# 5 -6.5661 -3.7238 -4.8861 0.0000 35.2431 0.0000
# 6 0.0000 0.0000 0.0000 -20.1571 0.0000 18.4194
#
#
#
# Elastic Compliance Matrix: (Units=1/GPa)
#
#
# Indices 1 2 3 4 5 6 
#
# 1 0.015404 -0.011753 0.003744 0.000000 0.002147 0.000000
# 2 -0.011753 0.023960 -0.006518 0.000000 -0.000562 0.000000
# 3 0.003744 -0.006518 0.021967 0.000000 0.003054 0.000000
# 4 0.000000 0.000000 0.000000 -0.013081 0.000000 -0.014315
# 5 0.002147 -0.000562 0.003054 0.000000 0.029138 0.000000
# 6 0.000000 0.000000 0.000000 -0.014315 0.000000 0.038625
#
#
# Mechanical properties :
#
#
# Convention : Reuss Voigt Hill
#
# Bulk Modulus (GPa) = 30.98238 38.74386 34.86312
# Shear Modulus (GPa) = 32.08685 10.77680 21.43182
#
# Velocity S-wave (km/s) = 4.06814 2.35764 3.32477
# Velocity P-wave (km/s) = 6.16818 5.23398 5.72018
#
# Compressibility (1/GPa) = 0.03227641
#
# Stress axis : x y z
#
# Youngs Moduli (GPa) = 64.91614 41.73603 45.52365
#
# Poissons Ratio (x) = 0.49053 -0.17044
# Poissons Ratio (y) = 0.76296 0.29674
# Poissons Ratio (z) = -0.24305 0.27205
#
# Static dielectric constant tensor:
#      x y z
#    x 1.684730 0.000000 0.003350 
#    y 0.000000 1.717850 0.000000 
#    z 0.003350 0.000000 1.724100 
# 
# From -- ./inp_files/49166.got.cif
#   From: 2010.05.17/outbox.cif.g08.bks.cpg/sg15_25_cif.got.tgz:49166.got - 2010.06.03 18:47:42.
