data_PCOD9300773
_publ_section_title
;
Structure prediction by ZEFSAII (Michael W. Deem and Ramdas Pophale) SiO2 
 PCOD9300773
Probable space group: C 2/C
;
_chemical_formula_sum "Si O2"
_cell_formula_units_Z 56
_cell_length_a 24.139836
_cell_length_b 12.975912
_cell_length_c 11.705338
_cell_angle_alpha 90.000000
_cell_angle_beta 47.401684
_cell_angle_gamma 90.000000
_cell_volume 2699.000730
_symmetry_space_group_name_H-M "C 2/C"
_symmetry_group_IT_number 15
_symmetry_cell_setting 'monoclinic'
loop_
_space_group_symop_operation_xyz
x,y,z
-x,y,1/2-z
-x,-y,-z
x,-y,1/2+z
1/2+x,1/2+y,z
1/2-x,1/2+y,1/2-z
1/2-x,1/2-y,-z
1/2+x,1/2-y,1/2+z
loop_
_atom_site_type_symbol
_atom_site_label
_atom_site_fract_x
_atom_site_fract_y
_atom_site_fract_z
Si Si1 0.780037 0.881957 0.992782
Si Si2 0.928169 0.991785 0.021494
Si Si3 0.081567 0.784946 0.604874
Si Si4 0.188938 0.388616 0.351804
Si Si5 0.699415 0.871081 0.861035
Si Si6 0.687775 0.596137 0.636752
Si Si7 0.645432 0.688766 0.481390
O O1 0.735409 0.861130 0.172161
O O2 0.857904 0.817776 0.881759
O O3 0.731878 0.867889 0.945691
O O4 0.797433 0.003082 0.971422
O O5 0.860789 0.958444 0.198159
O O6 0.909103 0.098930 0.987449
O O7 0.935788 0.895026 0.927612
O O8 0.000000 0.000000 0.000000
O O9 0.129814 0.708405 0.456938
O O10 0.000000 0.739924 0.750000
O O11 0.173981 0.511233 0.370477
O O12 0.238889 0.371537 0.396506
O O13 0.126207 0.300935 0.456706
O O14 0.770244 0.838734 0.684048
O O15 0.648743 0.682148 0.614387
#
# Coordination Sequence:
#
# PCOD9300773 Si02
#       7
#     8   8   8   8   8   8   8
#     4  11  19  38  62  94 124 157 216 266 315 372
#     4  12  25  40  63  96 134 167 212 266 330 389
#     4  12  24  40  64  90 127 172 214 268 326 383
#     4  11  22  37  62  95 123 166 209 267 319 374
#     4  11  23  39  64  97 127 164 222 272 312 384
#     4  11  19  39  59  96 127 162 205 262 324 375
#     4  12  22  38  65  94 131 163 211 266 326 373
#
# _framework density 20.748418999999998
#
# number of rings (size 3 to 8) (size 9 to 14) (size 15 to 20)
#    0.000    0.571    8.571    1.714    0.000    0.000 
#    0.000    0.000    3.143    1.714    0.000    0.000 
#    0.000    0.000    0.000    0.000    0.000    0.000 
#
# Total GULP energy -156286.195454 kJ/mol
# GULP energy per Si atom -5581.649838 kJ/mol
# Density = 2.070119 g / cm^3
# Si number density = 20.748419 Si / 1000 Ang^3
#
#
#
# Elastic Constant Matrix: (Units=GPa)
#
#
# Indices 1 2 3 4 5 6 
#
# 1 42.2910 15.8503 11.3218 0.0000 -6.9230 0.0000
# 2 15.8503 115.1065 2.5305 0.0000 -8.8354 0.0000
# 3 11.3218 2.5305 23.2310 0.0000 6.0572 0.0000
# 4 0.0000 0.0000 0.0000 31.0770 0.0000 7.0442
# 5 -6.9230 -8.8354 6.0572 0.0000 26.9336 0.0000
# 6 0.0000 0.0000 0.0000 7.0442 0.0000 12.9603
#
#
#
# Elastic Compliance Matrix: (Units=1/GPa)
#
#
# Indices 1 2 3 4 5 6 
#
# 1 0.031392 -0.003080 -0.017850 0.000000 0.011073 0.000000
# 2 -0.003080 0.009289 -0.000105 0.000000 0.002279 0.000000
# 3 -0.017850 -0.000105 0.056261 0.000000 -0.017276 0.000000
# 4 0.000000 0.000000 0.000000 0.036699 0.000000 -0.019947
# 5 0.011073 0.002279 -0.017276 0.000000 0.044607 0.000000
# 6 0.000000 0.000000 0.000000 -0.019947 0.000000 0.088000
#
#
# Mechanical properties :
#
#
# Convention : Reuss Voigt Hill
#
# Bulk Modulus (GPa) = 18.22470 26.67041 22.44755
# Shear Modulus (GPa) = 15.30876 24.25591 19.78234
#
# Velocity S-wave (km/s) = 2.71925 3.42284 3.09113
# Velocity P-wave (km/s) = 4.31993 5.33884 4.85618
#
# Compressibility (1/GPa) = 0.05487059
#
# Stress axis : x y z
#
# Youngs Moduli (GPa) = 31.85574 107.65412 17.77421
#
# Poissons Ratio (x) = 0.33160 0.31728
# Poissons Ratio (y) = 0.09812 0.00186
# Poissons Ratio (z) = 0.56864 0.01129
#
# Static dielectric constant tensor:
#      x y z
#    x 1.736890 0.000000 0.028410 
#    y 0.000000 1.833010 0.000000 
#    z 0.028410 0.000000 1.764480 
# 
# From -- ./inp_files/123320.got.cif
#   From: 2010.05.17/outbox.cif.g08.bks.cpg/sg15_62_cif.got.tgz:123320.got - 2010.06.03 18:47:42.
