data_PCOD9300424
_publ_section_title
;
Structure prediction by ZEFSAII (Michael W. Deem and Ramdas Pophale) SiO2 
 PCOD9300424
Probable space group: C 2/C
;
_chemical_formula_sum "Si O2"
_cell_formula_units_Z 40
_cell_length_a 13.370552
_cell_length_b 18.848807
_cell_length_c 8.107668
_cell_angle_alpha 90.000000
_cell_angle_beta 134.955028
_cell_angle_gamma 90.000000
_cell_volume 1445.955002
_symmetry_space_group_name_H-M "C 2/C"
_symmetry_group_IT_number 15
_symmetry_cell_setting 'monoclinic'
loop_
_space_group_symop_operation_xyz
x,y,z
-x,y,1/2-z
-x,-y,-z
x,-y,1/2+z
1/2+x,1/2+y,z
1/2-x,1/2+y,1/2-z
1/2-x,1/2-y,-z
1/2+x,1/2-y,1/2+z
loop_
_atom_site_type_symbol
_atom_site_label
_atom_site_fract_x
_atom_site_fract_y
_atom_site_fract_z
Si Si1 0.789612 0.465984 0.080058
Si Si2 0.000000 0.030264 0.750000
Si Si3 0.243297 0.168157 0.313836
Si Si4 0.500000 0.739736 0.250000
Si Si5 0.631098 0.333273 0.323282
Si Si6 0.378191 0.108556 0.996871
O O1 0.842342 0.539613 0.068070
O O2 0.888746 0.427529 0.329807
O O3 0.632077 0.484740 0.961974
O O4 0.768388 0.410373 0.910110
O O5 0.941168 0.090454 0.806717
O O6 0.383476 0.212955 0.520389
O O7 0.099890 0.196550 0.237969
O O8 0.224919 0.163806 0.097691
O O9 0.753940 0.331683 0.330850
O O10 0.500000 0.291392 0.250000
O O11 0.500000 0.140937 0.250000
#
# Coordination Sequence:
#
# PCOD9300424 Si02
#       6
#     8   4   8   4   8   8
#     4  11  22  35  69  90 137 170 204 250 318 371
#     4   8  19  34  58 100 124 158 201 232 296 404
#     4  11  24  45  68  91 124 169 216 275 314 370
#     4  10  27  44  68  90 120 160 241 262 324 362
#     4   9  22  40  65  92 135 158 208 253 317 382
#     4  11  24  38  59 107 136 167 202 245 313 411
#
# _framework density 27.663378000000002
#
# number of rings (size 3 to 8) (size 9 to 14) (size 15 to 20)
#    0.600    1.200    0.000    3.600    9.800    2.400 
#    0.000    1.000    0.000    0.000    0.000    0.000 
#    0.000    0.000    0.000    0.000    0.000    0.000 
#
# Total GULP energy -111629.196581 kJ/mol
# GULP energy per Si atom -5581.459829 kJ/mol
# Density = 2.760041 g / cm^3
# Si number density = 27.663378 Si / 1000 Ang^3
#
#
#
# Elastic Constant Matrix: (Units=GPa)
#
#
# Indices 1 2 3 4 5 6 
#
# 1 83.1144 34.7447 25.0133 0.0000 25.6816 0.0000
# 2 34.7447 133.8513 35.7034 0.0000 13.0971 0.0000
# 3 25.0133 35.7034 92.2158 0.0000 10.8529 0.0000
# 4 0.0000 0.0000 0.0000 478.7619 0.0000 -589.3046
# 5 25.6816 13.0971 10.8529 0.0000 61.2184 0.0000
# 6 0.0000 0.0000 0.0000 -589.3046 0.0000 770.2161
#
#
#
# Elastic Compliance Matrix: (Units=1/GPa)
#
#
# Indices 1 2 3 4 5 6 
#
# 1 0.015688 -0.002866 -0.002495 0.000000 -0.005526 0.000000
# 2 -0.002866 0.008948 -0.002659 0.000000 -0.000241 0.000000
# 3 -0.002495 -0.002659 0.012624 0.000000 -0.000622 0.000000
# 4 0.000000 0.000000 0.000000 0.035874 0.000000 0.027448
# 5 -0.005526 -0.000241 -0.000622 0.000000 0.018815 0.000000
# 6 0.000000 0.000000 0.000000 0.027448 0.000000 0.022299
#
#
# Mechanical properties :
#
#
# Convention : Reuss Voigt Hill
#
# Bulk Modulus (GPa) = 47.12667 55.56715 51.34691
# Shear Modulus (GPa) = 36.40074 276.28729 156.34402
#
# Velocity S-wave (km/s) = 3.63139 10.00458 7.52591
# Velocity P-wave (km/s) = 5.88689 12.39298 9.70158
#
# Compressibility (1/GPa) = 0.02121941
#
# Stress axis : x y z
#
# Youngs Moduli (GPa) = 63.74269 111.76182 79.21698
#
# Poissons Ratio (x) = 0.32030 0.19768
# Poissons Ratio (y) = 0.18268 0.21060
# Poissons Ratio (z) = 0.15906 0.29713
#
# Static dielectric constant tensor:
#      x y z
#    x 2.379420 0.000000 0.149380 
#    y 0.000000 2.123080 0.000000 
#    z 0.149380 0.000000 2.238080 
# 
# From -- ./inp_files/42461.got.cif
#   From: 2010.05.17/outbox.cif.g08.bks.cpg/sg15_22_cif.got.tgz:42461.got - 2010.06.03 18:47:42.
