data_PCOD9300263
_publ_section_title
;
Structure prediction by ZEFSAII (Michael W. Deem and Ramdas Pophale) SiO2 
 PCOD9300263
Probable space group: C 2/C
;
_chemical_formula_sum "Si O2"
_cell_formula_units_Z 36
_cell_length_a 13.284083
_cell_length_b 5.331981
_cell_length_c 20.963571
_cell_angle_alpha 90.000000
_cell_angle_beta 113.555513
_cell_angle_gamma 90.000000
_cell_volume 1361.131297
_symmetry_space_group_name_H-M "C 2/C"
_symmetry_group_IT_number 15
_symmetry_cell_setting 'monoclinic'
loop_
_space_group_symop_operation_xyz
x,y,z
-x,y,1/2-z
-x,-y,-z
x,-y,1/2+z
1/2+x,1/2+y,z
1/2-x,1/2+y,1/2-z
1/2-x,1/2-y,-z
1/2+x,1/2-y,1/2+z
loop_
_atom_site_type_symbol
_atom_site_label
_atom_site_fract_x
_atom_site_fract_y
_atom_site_fract_z
Si Si1 0.800695 0.381882 0.731600
Si Si2 0.025106 0.015022 0.431336
Si Si3 0.000000 0.304862 0.250000
Si Si4 0.566590 0.021554 0.083686
Si Si5 0.684445 0.516996 0.872517
O O1 0.726176 0.617439 0.738369
O O2 0.807174 0.414979 0.895904
O O3 0.800596 0.290131 0.657234
O O4 0.985191 0.753657 0.393556
O O5 0.954820 0.251378 0.391699
O O6 0.148826 0.018423 0.437082
O O7 0.000000 0.000000 0.500000
O O8 0.919665 0.492631 0.267409
O O9 0.086845 0.128508 0.310318
O O10 0.500000 0.000000 0.000000
#
# Coordination Sequence:
#
# PCOD9300263 Si02
#       5
#     8   8   4   8   8
#     4  12  29  50  75 114 164 209 266 323 392 486
#     4  10  26  49  77 114 157 201 264 322 392 467
#     4  12  30  50  76 122 160 212 272 314 408 478
#     4  10  26  47  75 111 153 203 262 321 386 461
#     4  12  29  48  84 114 161 210 257 327 399 472
#
# _framework density 26.448589999999999
#
# number of rings (size 3 to 8) (size 9 to 14) (size 15 to 20)
#    0.000    0.889    2.222    0.667    9.333    8.889 
#    0.000    0.000    0.000    0.000    0.000    0.000 
#    0.000    0.000    0.000    0.000    0.000    0.000 
#
# Total GULP energy -100470.777068 kJ/mol
# GULP energy per Si atom -5581.709837 kJ/mol
# Density = 2.638839 g / cm^3
# Si number density = 26.448590 Si / 1000 Ang^3
#
#
#
# Elastic Constant Matrix: (Units=GPa)
#
#
# Indices 1 2 3 4 5 6 
#
# 1 130.4682 34.2096 2.7635 0.0000 -13.1406 0.0000
# 2 34.2096 195.6233 23.5494 0.0000 -18.3949 0.0000
# 3 2.7635 23.5494 85.5975 0.0000 -6.2964 0.0000
# 4 0.0000 0.0000 0.0000 24.5452 0.0000 -9.1491
# 5 -13.1406 -18.3949 -6.2964 0.0000 56.4915 0.0000
# 6 0.0000 0.0000 0.0000 -9.1491 0.0000 47.3647
#
#
#
# Elastic Compliance Matrix: (Units=1/GPa)
#
#
# Indices 1 2 3 4 5 6 
#
# 1 0.008154 -0.001311 0.000207 0.000000 0.001493 0.000000
# 2 -0.001311 0.005640 -0.001408 0.000000 0.001375 0.000000
# 3 0.000207 -0.001408 0.012133 0.000000 0.000942 0.000000
# 4 0.000000 0.000000 0.000000 0.043902 0.000000 0.008480
# 5 0.001493 0.001375 0.000942 0.000000 0.018602 0.000000
# 6 0.000000 0.000000 0.000000 0.008480 0.000000 0.022751
#
#
# Mechanical properties :
#
#
# Convention : Reuss Voigt Hill
#
# Bulk Modulus (GPa) = 47.83870 59.19268 53.51569
# Shear Modulus (GPa) = 40.59346 49.09137 44.84241
#
# Velocity S-wave (km/s) = 3.92191 4.31293 4.12206
# Velocity P-wave (km/s) = 6.21572 6.87246 6.55232
#
# Compressibility (1/GPa) = 0.02090358
#
# Stress axis : x y z
#
# Youngs Moduli (GPa) = 122.63425 177.31046 82.42257
#
# Poissons Ratio (x) = 0.23237 -0.01707
# Poissons Ratio (y) = 0.16071 0.11607
# Poissons Ratio (z) = -0.02540 0.24969
#
# Static dielectric constant tensor:
#      x y z
#    x 1.902010 0.000000 -0.146570 
#    y 0.000000 1.931660 0.000000 
#    z -0.146570 0.000000 2.030720 
# 
# From -- ./inp_files/212477.got.cif
#   From: 2010.05.17/outbox.cif.g08.bks.cpg/sg15_107_cif.got.tgz:212477.got - 2010.06.03 18:47:42.
