data_PCOD9300772
_publ_section_title
;
Structure prediction by ZEFSAII (Michael W. Deem and Ramdas Pophale) SiO2 
 PCOD9300772
Probable space group: C 2/C
;
_chemical_formula_sum "Si O2"
_cell_formula_units_Z 60
_cell_length_a 18.373741
_cell_length_b 8.812194
_cell_length_c 15.455198
_cell_angle_alpha 90.000000
_cell_angle_beta 93.595010
_cell_angle_gamma 90.000000
_cell_volume 2497.472779
_symmetry_space_group_name_H-M "C 2/C"
_symmetry_group_IT_number 15
_symmetry_cell_setting 'monoclinic'
loop_
_space_group_symop_operation_xyz
x,y,z
-x,y,1/2-z
-x,-y,-z
x,-y,1/2+z
1/2+x,1/2+y,z
1/2-x,1/2+y,1/2-z
1/2-x,1/2-y,-z
1/2+x,1/2-y,1/2+z
loop_
_atom_site_type_symbol
_atom_site_label
_atom_site_fract_x
_atom_site_fract_y
_atom_site_fract_z
Si Si1 0.822240 0.011579 0.971874
Si Si2 0.908067 0.267986 0.438065
Si Si3 0.681330 0.968749 0.545524
Si Si4 0.229917 0.036244 0.790125
Si Si5 0.942084 0.149567 0.106802
Si Si6 0.145707 0.285894 0.262826
Si Si7 0.000000 0.903069 0.250000
Si Si8 0.632581 0.291783 0.172914
O O1 0.850830 0.055852 0.879136
O O2 0.847445 0.838291 0.978087
O O3 0.874312 0.100417 0.042566
O O4 0.737959 0.063080 0.973202
O O5 0.889961 0.432165 0.476575
O O6 0.892447 0.280019 0.333666
O O7 0.988726 0.196316 0.446572
O O8 0.739270 0.057435 0.611392
O O9 0.657843 0.834960 0.608292
O O10 0.300274 0.070762 0.735674
O O11 0.177344 0.175631 0.763062
O O12 0.192182 0.871636 0.778802
O O13 0.913077 0.285035 0.165365
O O14 0.962423 0.016367 0.177017
O O15 0.050604 0.795382 0.196693
#
# Coordination Sequence:
#
# PCOD9300772 Si02
#       8
#     8   8   8   8   8   8   4   8
#     4  12  22  39  70  87 124 166 213 251 313 380
#     4  11  23  39  63  90 129 161 207 256 316 371
#     4  11  25  41  60  96 130 160 207 263 317 369
#     4  11  19  38  61  89 118 156 210 257 304 358
#     4  12  20  41  64  95 115 168 216 255 304 389
#     4  11  20  37  63  87 122 161 206 265 300 368
#     4  12  22  40  66  86 122 156 218 256 306 372
#     4  12  23  41  62  93 123 164 204 261 311 372
#
# _framework density 24.024284999999999
#
# number of rings (size 3 to 8) (size 9 to 14) (size 15 to 20)
#    0.000    0.533    8.000    1.200    0.000    0.000 
#    4.800    0.667    0.000    0.000    0.000    0.000 
#    0.000    0.000    0.000    0.000    0.000    0.000 
#
# Total GULP energy -167486.568493 kJ/mol
# GULP energy per Si atom -5582.885616 kJ/mol
# Density = 2.396960 g / cm^3
# Si number density = 24.024285 Si / 1000 Ang^3
#
#
#
# Elastic Constant Matrix: (Units=GPa)
#
#
# Indices 1 2 3 4 5 6 
#
# 1 101.8714 20.3078 16.1640 0.0000 -32.2042 0.0000
# 2 20.3078 48.3729 -8.6223 0.0000 -9.9333 0.0000
# 3 16.1640 -8.6223 57.4877 0.0000 -10.8907 0.0000
# 4 0.0000 0.0000 0.0000 11.9828 0.0000 -4.7031
# 5 -32.2042 -9.9333 -10.8907 0.0000 39.8516 0.0000
# 6 0.0000 0.0000 0.0000 -4.7031 0.0000 30.7983
#
#
#
# Elastic Compliance Matrix: (Units=1/GPa)
#
#
# Indices 1 2 3 4 5 6 
#
# 1 0.014190 -0.004502 -0.002853 0.000000 0.009565 0.000000
# 2 -0.004502 0.024396 0.005682 0.000000 0.003996 0.000000
# 3 -0.002853 0.005682 0.019912 0.000000 0.004552 0.000000
# 4 0.000000 0.000000 0.000000 0.088774 0.000000 0.013556
# 5 0.009565 0.003996 0.004552 0.000000 0.035063 0.000000
# 6 0.000000 0.000000 0.000000 0.013556 0.000000 0.034540
#
#
# Mechanical properties :
#
#
# Convention : Reuss Voigt Hill
#
# Bulk Modulus (GPa) = 18.13164 29.27012 23.70088
# Shear Modulus (GPa) = 20.95522 28.51869 24.73695
#
# Velocity S-wave (km/s) = 2.95659 3.44914 3.21232
# Velocity P-wave (km/s) = 4.38393 5.29831 4.86266
#
# Compressibility (1/GPa) = 0.05515221
#
# Stress axis : x y z
#
# Youngs Moduli (GPa) = 70.47092 40.99056 50.22155
#
# Poissons Ratio (x) = 0.18452 0.14328
# Poissons Ratio (y) = 0.31723 -0.28535
# Poissons Ratio (z) = 0.20105 -0.23290
#
# Static dielectric constant tensor:
#      x y z
#    x 2.070220 0.000000 -0.018880 
#    y 0.000000 1.995680 0.000000 
#    z -0.018880 0.000000 2.014970 
# 
# From -- ./inp_files/209576.got.cif
#   From: 2010.05.17/outbox.cif.g08.bks.cpg/sg15_105_cif.got.tgz:209576.got - 2010.06.03 18:47:42.
