data_PCOD9300389
_publ_section_title
;
Structure prediction by ZEFSAII (Michael W. Deem and Ramdas Pophale) SiO2 
 PCOD9300389
Probable space group: C 2/C
;
_chemical_formula_sum "Si O2"
_cell_formula_units_Z 48
_cell_length_a 18.174520
_cell_length_b 4.816355
_cell_length_c 19.563964
_cell_angle_alpha 90.000000
_cell_angle_beta 99.786039
_cell_angle_gamma 90.000000
_cell_volume 1687.611978
_symmetry_space_group_name_H-M "C 2/C"
_symmetry_group_IT_number 15
_symmetry_cell_setting 'monoclinic'
loop_
_space_group_symop_operation_xyz
x,y,z
-x,y,1/2-z
-x,-y,-z
x,-y,1/2+z
1/2+x,1/2+y,z
1/2-x,1/2+y,1/2-z
1/2-x,1/2-y,-z
1/2+x,1/2-y,1/2+z
loop_
_atom_site_type_symbol
_atom_site_label
_atom_site_fract_x
_atom_site_fract_y
_atom_site_fract_z
Si Si1 0.113968 0.832410 0.009893
Si Si2 0.668779 0.264270 0.408699
Si Si3 0.750000 0.750000 0.500000
Si Si4 0.756514 0.779519 0.792080
Si Si5 0.476340 0.031611 0.618670
Si Si6 0.899914 0.134316 0.849883
Si Si7 0.500000 0.374376 0.750000
O O1 0.174517 0.003280 0.969908
O O2 0.919406 0.020912 0.930170
O O3 0.182180 0.643259 0.047002
O O4 0.053937 0.690350 0.952832
O O5 0.708263 0.981201 0.437005
O O6 0.703350 0.338429 0.342333
O O7 0.579678 0.230080 0.390402
O O8 0.710953 0.006920 0.739865
O O9 0.821416 0.985143 0.826612
O O10 0.459372 0.188299 0.686385
O O11 0.562103 0.938563 0.632619
O O12 0.944503 0.046094 0.788835
#
# Coordination Sequence:
#
# PCOD9300389 Si02
#       7
#     8   8   4   8   8   8   4
#     4  10  26  50  85 122 163 225 284 363 438 519
#     4  10  26  51  83 122 167 221 287 363 433 523
#     4   8  24  48  80 120 162 214 278 364 430 516
#     4  12  32  53  89 131 178 239 296 364 444 541
#     4  12  27  49  86 117 170 224 289 365 439 529
#     4  12  30  52  82 127 169 230 291 368 445 531
#     4  12  30  52  76 116 172 224 284 354 438 532
#
# _framework density 28.442554999999999
#
# number of rings (size 3 to 8) (size 9 to 14) (size 15 to 20)
#    1.000    0.000    0.000    3.000   16.333    6.667 
#    0.000    0.000    0.000    0.000    0.000    0.000 
#    0.000    0.000    0.000    0.000    0.000    0.000 
#
# Total GULP energy -133862.682706 kJ/mol
# GULP energy per Si atom -5577.611779 kJ/mol
# Density = 2.837782 g / cm^3
# Si number density = 28.442555 Si / 1000 Ang^3
#
#
#
# Elastic Constant Matrix: (Units=GPa)
#
#
# Indices 1 2 3 4 5 6 
#
# 1 124.7550 17.4027 29.1832 0.0000 -19.9402 0.0000
# 2 17.4027 119.6225 50.9759 0.0000 -9.7169 0.0000
# 3 29.1832 50.9759 126.1717 0.0000 -17.3516 0.0000
# 4 0.0000 0.0000 0.0000 65.8458 0.0000 3.5975
# 5 -19.9402 -9.7169 -17.3516 0.0000 58.2132 0.0000
# 6 0.0000 0.0000 0.0000 3.5975 0.0000 29.8147
#
#
#
# Elastic Compliance Matrix: (Units=1/GPa)
#
#
# Indices 1 2 3 4 5 6 
#
# 1 0.008832 -0.000432 -0.001525 0.000000 0.002499 0.000000
# 2 -0.000432 0.010133 -0.003943 0.000000 0.000368 0.000000
# 3 -0.001525 -0.003943 0.010124 0.000000 0.001837 0.000000
# 4 0.000000 0.000000 0.000000 0.015288 0.000000 -0.001845
# 5 0.002499 0.000368 0.001837 0.000000 0.018643 0.000000
# 6 0.000000 0.000000 0.000000 -0.001845 0.000000 0.033763
#
#
# Mechanical properties :
#
#
# Convention : Reuss Voigt Hill
#
# Bulk Modulus (GPa) = 57.84081 62.85254 60.34667
# Shear Modulus (GPa) = 43.72689 48.97389 46.35039
#
# Velocity S-wave (km/s) = 3.92519 4.15402 4.04123
# Velocity P-wave (km/s) = 6.39711 6.71967 6.56037
#
# Compressibility (1/GPa) = 0.01728883
#
# Stress axis : x y z
#
# Youngs Moduli (GPa) = 113.22434 98.68951 98.77354
#
# Poissons Ratio (x) = 0.04266 0.15059
# Poissons Ratio (y) = 0.04894 0.38949
# Poissons Ratio (z) = 0.17262 0.38916
#
# Static dielectric constant tensor:
#      x y z
#    x 2.330010 0.000000 -0.035140 
#    y 0.000000 2.431090 0.000000 
#    z -0.035140 0.000000 2.316220 
# 
# From -- ./inp_files/275906.got.cif
#   From: 2010.05.17/outbox.cif.g08.bks.cpg/sg15_138_cif.got.tgz:275906.got - 2010.06.03 18:47:42.
