data_PCOD9300257
_publ_section_title
;
Structure prediction by ZEFSAII (Michael W. Deem and Ramdas Pophale) SiO2 
 PCOD9300257
Probable space group: C 2/C
;
_chemical_formula_sum "Si O2"
_cell_formula_units_Z 48
_cell_length_a 16.281664
_cell_length_b 12.756542
_cell_length_c 9.179494
_cell_angle_alpha 90.000000
_cell_angle_beta 83.116971
_cell_angle_gamma 90.000000
_cell_volume 1892.819271
_symmetry_space_group_name_H-M "C 2/C"
_symmetry_group_IT_number 15
_symmetry_cell_setting 'monoclinic'
loop_
_space_group_symop_operation_xyz
x,y,z
-x,y,1/2-z
-x,-y,-z
x,-y,1/2+z
1/2+x,1/2+y,z
1/2-x,1/2+y,1/2-z
1/2-x,1/2-y,-z
1/2+x,1/2-y,1/2+z
loop_
_atom_site_type_symbol
_atom_site_label
_atom_site_fract_x
_atom_site_fract_y
_atom_site_fract_z
Si Si1 0.077953 0.614820 0.443319
Si Si2 0.797930 0.707966 0.631433
Si Si3 0.500000 0.571355 0.250000
Si Si4 0.764937 0.149025 0.398570
Si Si5 0.847557 0.055708 0.844616
Si Si6 0.040074 0.217241 0.502609
Si Si7 0.000000 0.555803 0.750000
O O1 0.173008 0.613113 0.386234
O O2 0.062416 0.613371 0.623151
O O3 0.032442 0.720626 0.402465
O O4 0.043121 0.520338 0.356671
O O5 0.750000 0.750000 0.500000
O O6 0.803690 0.802340 0.745075
O O7 0.735485 0.614941 0.696572
O O8 0.894359 0.693031 0.568257
O O9 0.580032 0.499031 0.264860
O O10 0.495778 0.648662 0.388208
O O11 0.750000 0.250000 0.500000
O O12 0.813350 0.046023 0.439757
O O13 0.901498 0.139578 0.921171
#
# Coordination Sequence:
#
# PCOD9300257 Si02
#       7
#     8   8   4   8   8   8   4
#     4  11  27  46  79 107 155 194 264 312 388 457
#     4  10  26  47  71 106 150 197 245 308 376 449
#     4  12  23  45  72 102 146 194 247 305 370 446
#     4  12  28  47  75 114 144 199 252 315 374 455
#     4  11  27  44  74 104 149 192 248 306 376 447
#     4  11  25  47  72 109 151 200 245 313 381 452
#     4  10  27  47  74 112 144 210 245 325 380 464
#
# _framework density 25.358998
#
# number of rings (size 3 to 8) (size 9 to 14) (size 15 to 20)
#    0.000    1.000    1.667    2.000   16.333    1.333 
#    0.000    0.000    0.000    0.000    0.000    0.000 
#    0.000    0.000    0.000    0.000    0.000    0.000 
#
# Total GULP energy -134058.035893 kJ/mol
# GULP energy per Si atom -5585.751496 kJ/mol
# Density = 2.530128 g / cm^3
# Si number density = 25.358998 Si / 1000 Ang^3
#
#
#
# Elastic Constant Matrix: (Units=GPa)
#
#
# Indices 1 2 3 4 5 6 
#
# 1 106.9807 40.7014 -13.9088 0.0000 -10.4007 0.0000
# 2 40.7014 150.4163 19.6121 0.0000 6.7723 0.0000
# 3 -13.9088 19.6121 51.6230 0.0000 12.1833 0.0000
# 4 0.0000 0.0000 0.0000 25.8984 0.0000 -3.5265
# 5 -10.4007 6.7723 12.1833 0.0000 27.7982 0.0000
# 6 0.0000 0.0000 0.0000 -3.5265 0.0000 29.0587
#
#
#
# Elastic Compliance Matrix: (Units=1/GPa)
#
#
# Indices 1 2 3 4 5 6 
#
# 1 0.011629 -0.003795 0.003714 0.000000 0.003648 0.000000
# 2 -0.003795 0.008242 -0.003731 0.000000 -0.001793 0.000000
# 3 0.003714 -0.003731 0.023698 0.000000 -0.008088 0.000000
# 4 0.000000 0.000000 0.000000 0.039261 0.000000 0.004765
# 5 0.003648 -0.001793 -0.008088 0.000000 0.041320 0.000000
# 6 0.000000 0.000000 0.000000 0.004765 0.000000 0.034991
#
#
# Mechanical properties :
#
#
# Convention : Reuss Voigt Hill
#
# Bulk Modulus (GPa) = 27.81979 44.64769 36.23374
# Shear Modulus (GPa) = 27.97249 34.05876 31.01562
#
# Velocity S-wave (km/s) = 3.32484 3.66876 3.50102
# Velocity P-wave (km/s) = 5.07283 5.96581 5.53735
#
# Compressibility (1/GPa) = 0.03594563
#
# Stress axis : x y z
#
# Youngs Moduli (GPa) = 85.99265 121.32507 42.19761
#
# Poissons Ratio (x) = 0.46045 -0.15673
# Poissons Ratio (y) = 0.32636 0.15743
# Poissons Ratio (z) = -0.31939 0.45263
#
# Static dielectric constant tensor:
#      x y z
#    x 1.979670 0.000000 -0.054550 
#    y 0.000000 2.043940 0.000000 
#    z -0.054550 0.000000 2.018530 
# 
# From -- ./inp_files/103698.got.cif
#   From: 2010.05.17/outbox.cif.g08.bks.cpg/sg15_52_cif.got.tgz:103698.got - 2010.06.03 18:47:42.
