data_PCOD9300476
_publ_section_title
;
Structure prediction by ZEFSAII (Michael W. Deem and Ramdas Pophale) SiO2 
 PCOD9300476
Probable space group: C 2/C
;
_chemical_formula_sum "Si O2"
_cell_formula_units_Z 48
_cell_length_a 19.420527
_cell_length_b 11.271677
_cell_length_c 9.649266
_cell_angle_alpha 90.000000
_cell_angle_beta 63.012026
_cell_angle_gamma 90.000000
_cell_volume 1882.223289
_symmetry_space_group_name_H-M "C 2/C"
_symmetry_group_IT_number 15
_symmetry_cell_setting 'monoclinic'
loop_
_space_group_symop_operation_xyz
x,y,z
-x,y,1/2-z
-x,-y,-z
x,-y,1/2+z
1/2+x,1/2+y,z
1/2-x,1/2+y,1/2-z
1/2-x,1/2-y,-z
1/2+x,1/2-y,1/2+z
loop_
_atom_site_type_symbol
_atom_site_label
_atom_site_fract_x
_atom_site_fract_y
_atom_site_fract_z
Si Si1 0.958286 0.741232 0.589602
Si Si2 0.851858 0.023202 0.522339
Si Si3 0.000000 0.000000 0.000000
Si Si4 0.000000 0.547196 0.750000
Si Si5 0.745816 0.430020 0.652160
Si Si6 0.636359 0.127938 0.041394
Si Si7 0.869281 0.736015 0.155380
O O1 0.947059 0.641438 0.715786
O O2 0.888469 0.721305 0.550117
O O3 0.970903 0.878466 0.610261
O O4 0.041897 0.701070 0.451548
O O5 0.815365 0.077623 0.417449
O O6 0.870147 0.124137 0.623645
O O7 0.791551 0.944372 0.662284
O O8 0.936335 0.967680 0.434137
O O9 0.937314 0.460999 0.877554
O O10 0.792774 0.549744 0.574466
O O11 0.808482 0.325485 0.608095
O O12 0.649866 0.194708 0.173057
#
# Coordination Sequence:
#
# PCOD9300476 Si02
#       7
#     8   8   4   4   8   8   8
#     4  11  24  43  73 104 144 187 236 291 349 423
#     4  11  28  46  73  97 144 187 237 288 358 424
#     4  10  28  52  68 102 138 196 238 290 348 446
#     4  12  22  40  70 110 136 186 234 290 348 418
#     4  12  25  46  70 107 141 184 233 298 357 420
#     4  12  23  41  74 107 142 180 238 295 356 415
#     4  11  23  45  69 103 140 186 232 294 350 421
#
# _framework density 25.501756
#
# number of rings (size 3 to 8) (size 9 to 14) (size 15 to 20)
#    0.000    0.667    5.000    2.000    2.333    5.333 
#    3.000    0.000    0.000    0.000    0.000    0.000 
#    0.000    0.000    0.000    0.000    0.000    0.000 
#
# Total GULP energy -133758.243322 kJ/mol
# GULP energy per Si atom -5573.260138 kJ/mol
# Density = 2.544371 g / cm^3
# Si number density = 25.501756 Si / 1000 Ang^3
#
#
#
# Elastic Constant Matrix: (Units=GPa)
#
#
# Indices 1 2 3 4 5 6 
#
# 1 94.2112 -32.8852 4.4389 0.0000 23.9217 0.0000
# 2 -32.8852 73.7205 -3.7258 0.0000 13.1968 0.0000
# 3 4.4389 -3.7258 62.1136 0.0000 2.5566 0.0000
# 4 0.0000 0.0000 0.0000 -29.0328 0.0000 16.4358
# 5 23.9217 13.1968 2.5566 0.0000 43.7447 0.0000
# 6 0.0000 0.0000 0.0000 16.4358 0.0000 19.1066
#
#
#
# Elastic Compliance Matrix: (Units=1/GPa)
#
#
# Indices 1 2 3 4 5 6 
#
# 1 0.017222 0.009895 -0.000127 0.000000 -0.012395 0.000000
# 2 0.009895 0.020091 0.000973 0.000000 -0.011529 0.000000
# 3 -0.000127 0.000973 0.016215 0.000000 -0.001172 0.000000
# 4 0.000000 0.000000 0.000000 -0.023164 0.000000 0.019926
# 5 -0.012395 -0.011529 -0.001172 0.000000 0.033185 0.000000
# 6 0.000000 0.000000 0.000000 0.019926 0.000000 0.035197
#
#
# Mechanical properties :
#
#
# Convention : Reuss Voigt Hill
#
# Bulk Modulus (GPa) = 13.33182 18.41125 15.87153
# Shear Modulus (GPa) = 48.89054 24.24486 36.56770
#
# Velocity S-wave (km/s) = 4.38327 3.08671 3.79083
# Velocity P-wave (km/s) = 5.55487 4.46531 5.03962
#
# Compressibility (1/GPa) = 0.07500853
#
# Stress axis : x y z
#
# Youngs Moduli (GPa) = 58.06675 49.77236 61.67066
#
# Poissons Ratio (x) = -0.49248 0.00783
# Poissons Ratio (y) = -0.57455 -0.05998
# Poissons Ratio (z) = 0.00738 -0.04841
#
# Static dielectric constant tensor:
#      x y z
#    x 1.733720 0.000000 -0.052720 
#    y 0.000000 2.037200 0.000000 
#    z -0.052720 0.000000 2.164890 
# 
# From -- ./inp_files/104226.got.cif
#   From: 2010.05.17/outbox.cif.g08.bks.cpg/sg15_53_cif.got.tgz:104226.got - 2010.06.03 18:47:42.
