data_PCOD9300453
_publ_section_title
;
Structure prediction by ZEFSAII (Michael W. Deem and Ramdas Pophale) SiO2 
 PCOD9300453
Probable space group: C 2/C
;
_chemical_formula_sum "Si O2"
_cell_formula_units_Z 36
_cell_length_a 13.523638
_cell_length_b 5.022795
_cell_length_c 21.441329
_cell_angle_alpha 90.000000
_cell_angle_beta 89.939741
_cell_angle_gamma 90.000000
_cell_volume 1456.432800
_symmetry_space_group_name_H-M "C 2/C"
_symmetry_group_IT_number 15
_symmetry_cell_setting 'monoclinic'
loop_
_space_group_symop_operation_xyz
x,y,z
-x,y,1/2-z
-x,-y,-z
x,-y,1/2+z
1/2+x,1/2+y,z
1/2-x,1/2+y,1/2-z
1/2-x,1/2-y,-z
1/2+x,1/2-y,1/2+z
loop_
_atom_site_type_symbol
_atom_site_label
_atom_site_fract_x
_atom_site_fract_y
_atom_site_fract_z
Si Si1 0.820790 0.494567 0.511431
Si Si2 0.907672 0.270681 0.393290
Si Si3 0.500000 0.267152 0.250000
Si Si4 0.825561 0.790929 0.332230
Si Si5 0.893248 0.402022 0.148108
O O1 0.750000 0.750000 0.500000
O O2 0.903292 0.429342 0.458605
O O3 0.863574 0.483544 0.580779
O O4 0.750000 0.250000 0.500000
O O5 0.854564 0.487779 0.348209
O O6 0.019064 0.202545 0.371620
O O7 0.849463 0.994233 0.388667
O O8 0.402093 0.398339 0.279936
O O9 0.449127 0.096361 0.195177
O O10 0.708700 0.804867 0.321161
#
# Coordination Sequence:
#
# PCOD9300453 Si02
#       5
#     8   8   4   8   8
#     4  12  23  45  75 107 143 183 234 298 365 422
#     4  11  24  45  72 110 137 185 234 290 369 417
#     4  10  28  46  70 108 138 196 246 282 360 422
#     4  11  25  47  72 101 146 183 239 295 347 427
#     4  11  25  47  75 102 148 187 234 299 351 427
#
# _framework density 24.717929000000002
#
# number of rings (size 3 to 8) (size 9 to 14) (size 15 to 20)
#    0.000    0.889    4.444    0.667    0.000   16.000 
#    0.000    7.778    0.000    0.000    0.000    0.000 
#    0.000    0.000    0.000    0.000    0.000    0.000 
#
# Total GULP energy -100479.407549 kJ/mol
# GULP energy per Si atom -5582.189308 kJ/mol
# Density = 2.466167 g / cm^3
# Si number density = 24.717929 Si / 1000 Ang^3
#
#
#
# Elastic Constant Matrix: (Units=GPa)
#
#
# Indices 1 2 3 4 5 6 
#
# 1 221.0556 36.8780 48.8374 0.0000 -24.9256 0.0000
# 2 36.8780 105.8202 24.8121 0.0000 13.5232 0.0000
# 3 48.8374 24.8121 120.0090 0.0000 5.0961 0.0000
# 4 0.0000 0.0000 0.0000 25.1769 0.0000 -9.8687
# 5 -24.9256 13.5232 5.0961 0.0000 63.2012 0.0000
# 6 0.0000 0.0000 0.0000 -9.8687 0.0000 13.4649
#
#
#
# Elastic Compliance Matrix: (Units=1/GPa)
#
#
# Indices 1 2 3 4 5 6 
#
# 1 0.005583 -0.001826 -0.002012 0.000000 0.002755 0.000000
# 2 -0.001826 0.010778 -0.001361 0.000000 -0.002917 0.000000
# 3 -0.002012 -0.001361 0.009487 0.000000 -0.001267 0.000000
# 4 0.000000 0.000000 0.000000 0.055729 0.000000 0.040845
# 5 0.002755 -0.002917 -0.001267 0.000000 0.017635 0.000000
# 6 0.000000 0.000000 0.000000 0.040845 0.000000 0.104203
#
#
# Mechanical properties :
#
#
# Convention : Reuss Voigt Hill
#
# Bulk Modulus (GPa) = 64.72501 74.21553 69.47027
# Shear Modulus (GPa) = 22.83472 42.79241 32.81356
#
# Velocity S-wave (km/s) = 3.04272 4.16532 3.64747
# Velocity P-wave (km/s) = 6.21181 7.29543 6.77532
#
# Compressibility (1/GPa) = 0.01544998
#
# Stress axis : x y z
#
# Youngs Moduli (GPa) = 179.09987 92.77828 105.41184
#
# Poissons Ratio (x) = 0.16943 0.21205
# Poissons Ratio (y) = 0.32708 0.14351
# Poissons Ratio (z) = 0.36028 0.12631
#
# Static dielectric constant tensor:
#      x y z
#    x 1.990400 0.000000 -0.133440 
#    y 0.000000 1.934490 0.000000 
#    z -0.133440 0.000000 2.112300 
# 
# From -- ./inp_files/267070.got.cif
#   From: 2010.05.17/outbox.cif.g08.bks.cpg/sg15_134_cif.got.tgz:267070.got - 2010.06.03 18:47:42.
