data_PCOD9300550
_publ_section_title
;
Structure prediction by ZEFSAII (Michael W. Deem and Ramdas Pophale) SiO2 
 PCOD9300550
Probable space group: C 2/C
;
_chemical_formula_sum "Si O2"
_cell_formula_units_Z 48
_cell_length_a 25.443711
_cell_length_b 14.751646
_cell_length_c 19.907146
_cell_angle_alpha 90.000000
_cell_angle_beta 157.642887
_cell_angle_gamma 90.000000
_cell_volume 2842.140804
_symmetry_space_group_name_H-M "C 2/C"
_symmetry_group_IT_number 15
_symmetry_cell_setting 'monoclinic'
loop_
_space_group_symop_operation_xyz
x,y,z
-x,y,1/2-z
-x,-y,-z
x,-y,1/2+z
1/2+x,1/2+y,z
1/2-x,1/2+y,1/2-z
1/2-x,1/2-y,-z
1/2+x,1/2-y,1/2+z
loop_
_atom_site_type_symbol
_atom_site_label
_atom_site_fract_x
_atom_site_fract_y
_atom_site_fract_z
Si Si1 0.628669 0.516931 0.604295
Si Si2 0.853938 0.776333 0.346713
Si Si3 0.907237 0.409506 0.952641
Si Si4 0.541129 0.254229 0.435582
Si Si5 0.593778 0.427874 0.419922
Si Si6 0.083108 0.431860 0.697480
O O1 0.500000 0.500000 0.500000
O O2 0.660436 0.623399 0.641411
O O3 0.759331 0.458881 0.785087
O O4 0.592705 0.484247 0.487354
O O5 0.906211 0.698854 0.459994
O O6 0.949739 0.779844 0.393133
O O7 0.701542 0.744819 0.145175
O O8 0.933152 0.416014 0.902483
O O9 0.015567 0.468628 0.123429
O O10 0.531050 0.329854 0.366397
O O11 0.497529 0.152116 0.364680
O O12 0.500000 0.466218 0.250000
O O13 0.756353 0.424213 0.593837
#
# Coordination Sequence:
#
# PCOD9300550 Si02
#       6
#     8   8   8   8   8   8
#     4  11  19  33  55  82 107 137 185 236 268 315
#     4  11  19  31  55  85 108 135 180 237 279 309
#     4   9  17  30  52  79 105 135 177 233 274 310
#     4  11  18  33  53  81 109 140 179 224 275 325
#     4  11  23  36  51  79 116 149 180 218 278 341
#     4   9  18  32  50  75 108 144 178 218 271 330
#
# _framework density 16.888677999999999
#
# number of rings (size 3 to 8) (size 9 to 14) (size 15 to 20)
#    0.000    1.667    8.333    0.000    2.333    0.667 
#    0.000    0.000    0.000    1.000    0.000    0.000 
#    0.000    0.000    0.000    0.000    0.000    0.000 
#
# Total GULP energy -133683.998061 kJ/mol
# GULP energy per Si atom -5570.166586 kJ/mol
# Density = 1.685024 g / cm^3
# Si number density = 16.888678 Si / 1000 Ang^3
#
#
#
# Elastic Constant Matrix: (Units=GPa)
#
#
# Indices 1 2 3 4 5 6 
#
# 1 35.2688 8.7939 29.4773 0.0001 13.8243 0.0000
# 2 8.7939 88.4164 10.6778 0.0001 3.6913 0.0000
# 3 29.4773 10.6778 69.4790 0.0002 6.8969 0.0001
# 4 0.0001 0.0001 0.0002 19.9941 0.0002 8.5782
# 5 13.8243 3.6913 6.8969 0.0002 21.7452 0.0001
# 6 0.0000 0.0000 0.0001 8.5782 0.0001 17.1784
#
#
#
# Elastic Compliance Matrix: (Units=1/GPa)
#
#
# Indices 1 2 3 4 5 6 
#
# 1 0.058734 -0.001972 -0.021623 0.000000 -0.030147 0.000000
# 2 -0.001972 0.011634 -0.000908 0.000000 -0.000433 0.000000
# 3 -0.021623 -0.000908 0.023052 0.000000 0.006589 0.000000
# 4 0.000000 0.000000 0.000000 0.063652 0.000000 -0.031785
# 5 -0.030147 -0.000433 0.006589 0.000000 0.063136 0.000000
# 6 0.000000 0.000000 0.000000 -0.031785 0.000000 0.074085
#
#
# Mechanical properties :
#
#
# Convention : Reuss Voigt Hill
#
# Bulk Modulus (GPa) = 22.51542 32.34025 27.42784
# Shear Modulus (GPa) = 13.96239 21.39788 17.68013
#
# Velocity S-wave (km/s) = 2.87841 3.56335 3.23904
# Velocity P-wave (km/s) = 4.94041 6.01004 5.50128
#
# Compressibility (1/GPa) = 0.04441400
#
# Stress axis : x y z
#
# Youngs Moduli (GPa) = 17.02580 85.95478 43.37982
#
# Poissons Ratio (x) = 0.16948 0.93801
# Poissons Ratio (y) = 0.03357 0.03941
# Poissons Ratio (z) = 0.36815 0.07808
#
# Static dielectric constant tensor:
#      x y z
#    x 1.559450 0.000000 0.034650 
#    y 0.000000 1.658160 0.000000 
#    z 0.034650 0.000000 1.573350 
# 
# From -- ./inp_files/69834.got.cif
#   From: 2010.05.17/outbox.cif.g08.bks.cpg/sg15_35_cif.got.tgz:69834.got - 2010.06.03 18:47:42.
