data_PCOD9300745
_publ_section_title
;
Structure prediction by ZEFSAII (Michael W. Deem and Ramdas Pophale) SiO2 
 PCOD9300745
Probable space group: C 2/C
;
_chemical_formula_sum "Si O2"
_cell_formula_units_Z 60
_cell_length_a 7.754393
_cell_length_b 17.293465
_cell_length_c 20.472523
_cell_angle_alpha 90.000000
_cell_angle_beta 60.358431
_cell_angle_gamma 90.000000
_cell_volume 2386.102537
_symmetry_space_group_name_H-M "C 2/C"
_symmetry_group_IT_number 15
_symmetry_cell_setting 'monoclinic'
loop_
_space_group_symop_operation_xyz
x,y,z
-x,y,1/2-z
-x,-y,-z
x,-y,1/2+z
1/2+x,1/2+y,z
1/2-x,1/2+y,1/2-z
1/2-x,1/2-y,-z
1/2+x,1/2-y,1/2+z
loop_
_atom_site_type_symbol
_atom_site_label
_atom_site_fract_x
_atom_site_fract_y
_atom_site_fract_z
Si Si1 0.328367 0.335034 0.847635
Si Si2 0.473109 0.384932 0.947296
Si Si3 0.211029 0.869133 0.110246
Si Si4 0.214555 0.523029 0.029669
Si Si5 0.703871 0.006398 0.319671
Si Si6 0.000000 0.411808 0.750000
Si Si7 0.066114 0.740081 0.307889
Si Si8 0.037918 0.734310 0.004685
O O1 0.489878 0.341700 0.874579
O O2 0.328571 0.422220 0.822747
O O3 0.286369 0.280646 0.792029
O O4 0.120152 0.313304 0.923644
O O5 0.648100 0.441269 0.938644
O O6 0.447874 0.315569 0.002196
O O7 0.286428 0.441257 0.987953
O O8 0.022279 0.812575 0.135952
O O9 0.398004 0.810890 0.073104
O O10 0.206445 0.925480 0.173244
O O11 0.254242 0.920157 0.037520
O O12 0.001684 0.511638 0.101221
O O13 0.657829 0.029368 0.253152
O O14 0.971238 0.347675 0.814714
O O15 0.000000 0.770577 0.250000
O O16 0.250000 0.750000 0.000000
#
# Coordination Sequence:
#
# PCOD9300745 Si02
#       8
#     8   8   8   8   8   4   8   8
#     4  11  19  37  61  91 124 162 205 255 315 376
#     4  11  23  34  55  99 133 157 201 258 322 375
#     4  12  21  37  66  95 120 163 217 256 316 388
#     4  11  22  38  61  96 131 164 202 266 323 386
#     4  11  21  41  68  88 123 172 217 255 318 388
#     4   8  22  42  66  86 114 172 216 256 308 378
#     4   9  21  38  64  89 118 168 213 260 314 378
#     4  12  21  35  60  91 127 167 201 250 319 386
#
# _framework density 25.145607999999999
#
# number of rings (size 3 to 8) (size 9 to 14) (size 15 to 20)
#    0.400    0.800    5.333    1.600    1.867    0.000 
#    0.000    5.333    0.000    5.600    0.000    0.000 
#    0.000    0.000    0.000    0.000    0.000    0.000 
#
# Total GULP energy -167112.644538 kJ/mol
# GULP energy per Si atom -5570.421485 kJ/mol
# Density = 2.508838 g / cm^3
# Si number density = 25.145608 Si / 1000 Ang^3
#
#
#
# Elastic Constant Matrix: (Units=GPa)
#
#
# Indices 1 2 3 4 5 6 
#
# 1 89.4415 36.7836 42.6176 0.0000 19.5668 0.0000
# 2 36.7836 161.7443 35.2862 0.0000 4.4325 0.0000
# 3 42.6176 35.2862 83.8633 0.0000 23.3335 0.0000
# 4 0.0000 0.0000 0.0000 4.5500 0.0000 12.4915
# 5 19.5668 4.4325 23.3335 0.0000 48.6869 0.0000
# 6 0.0000 0.0000 0.0000 12.4915 0.0000 36.5307
#
#
#
# Elastic Compliance Matrix: (Units=1/GPa)
#
#
# Indices 1 2 3 4 5 6 
#
# 1 0.015702 -0.002130 -0.006209 0.000000 -0.003141 0.000000
# 2 -0.002130 0.007128 -0.002278 0.000000 0.001299 0.000000
# 3 -0.006209 -0.002278 0.017638 0.000000 -0.005750 0.000000
# 4 0.000000 0.000000 0.000000 3.589299 0.000000 -1.227347
# 5 -0.003141 0.001299 -0.005750 0.000000 0.024439 0.000000
# 6 0.000000 0.000000 0.000000 -1.227347 0.000000 0.447061
#
#
# Mechanical properties :
#
#
# Convention : Reuss Voigt Hill
#
# Bulk Modulus (GPa) = 51.99350 62.71375 57.35363
# Shear Modulus (GPa) = 1.21097 32.64432 16.92765
#
# Velocity S-wave (km/s) = 0.69472 3.60698 2.59740
# Velocity P-wave (km/s) = 4.62227 6.50703 5.64388
#
# Compressibility (1/GPa) = 0.01923317
#
# Stress axis : x y z
#
# Youngs Moduli (GPa) = 63.68461 140.28228 56.69529
#
# Poissons Ratio (x) = 0.29884 0.35204
# Poissons Ratio (y) = 0.13567 0.12916
# Poissons Ratio (z) = 0.39544 0.31959
#
# Static dielectric constant tensor:
#      x y z
#    x 2.016380 0.000000 0.011440 
#    y 0.000000 1.958000 0.000000 
#    z 0.011440 0.000000 2.410410 
# 
# From -- ./inp_files/232670.got.cif
#   From: 2010.05.17/outbox.cif.g08.bks.cpg/sg15_117_cif.got.tgz:232670.got - 2010.06.03 18:47:42.
