data_PCOD9300902
_publ_section_title
;
Structure prediction by ZEFSAII (Michael W. Deem and Ramdas Pophale) SiO2 
 PCOD9300902
Probable space group: C 2/C
;
_chemical_formula_sum "Si O2"
_cell_formula_units_Z 64
_cell_length_a 24.651439
_cell_length_b 19.920069
_cell_length_c 14.941387
_cell_angle_alpha 90.000000
_cell_angle_beta 30.434165
_cell_angle_gamma 90.000000
_cell_volume 3716.589709
_symmetry_space_group_name_H-M "C 2/C"
_symmetry_group_IT_number 15
_symmetry_cell_setting 'monoclinic'
loop_
_space_group_symop_operation_xyz
x,y,z
-x,y,1/2-z
-x,-y,-z
x,-y,1/2+z
1/2+x,1/2+y,z
1/2-x,1/2+y,1/2-z
1/2-x,1/2-y,-z
1/2+x,1/2-y,1/2+z
loop_
_atom_site_type_symbol
_atom_site_label
_atom_site_fract_x
_atom_site_fract_y
_atom_site_fract_z
Si Si1 0.065812 0.753351 0.067901
Si Si2 0.972921 0.599476 0.393118
Si Si3 0.151319 0.970002 0.192135
Si Si4 0.964401 0.836493 0.070781
Si Si5 0.476616 0.579932 0.384586
Si Si6 0.816176 0.427327 0.804444
Si Si7 0.718061 0.768502 0.647012
Si Si8 0.247017 0.522948 0.764458
O O1 0.022034 0.680235 0.102575
O O2 0.000000 0.775316 0.250000
O O3 0.055166 0.809889 0.008070
O O4 0.186225 0.744071 0.926968
O O5 0.853952 0.572816 0.581679
O O6 0.000000 0.586503 0.250000
O O7 0.063422 0.566717 0.327436
O O8 0.099023 0.898806 0.294554
O O9 0.212805 0.996819 0.193055
O O10 0.234638 0.957620 0.993945
O O11 0.055272 0.018692 0.299429
O O12 0.884856 0.773730 0.179687
O O13 0.998419 0.862020 0.925631
O O14 0.500000 0.599473 0.250000
O O15 0.352977 0.557154 0.571262
O O16 0.793963 0.348043 0.828585
O O17 0.792774 0.464056 0.744290
O O18 0.750000 0.750000 0.500000
#
# Coordination Sequence:
#
# PCOD9300902 Si02
#       8
#     8   8   8   8   8   8   8   8
#     4  11  20  32  58  87 121 151 187 244 306 364
#     4  11  21  39  60  87 122 161 198 246 309 367
#     4  11  22  39  60  89 124 155 201 249 308 357
#     4  11  22  37  58  89 121 157 193 246 303 362
#     4  11  24  41  62  86 121 165 209 248 296 359
#     4  12  22  37  62  89 125 155 199 251 303 362
#     4  12  21  36  56  91 123 153 190 244 310 361
#     4  11  23  38  61  86 119 162 196 251 303 361
#
# _framework density 17.220086999999999
#
# number of rings (size 3 to 8) (size 9 to 14) (size 15 to 20)
#    0.000    0.750    6.250    4.125    3.500    0.500 
#    0.000    0.000    0.000    5.250    0.000    0.000 
#    0.000    0.000    0.000    0.000    0.000    0.000 
#
# Total GULP energy -178702.113713 kJ/mol
# GULP energy per Si atom -5584.441054 kJ/mol
# Density = 1.718089 g / cm^3
# Si number density = 17.220087 Si / 1000 Ang^3
#
#
#
# Elastic Constant Matrix: (Units=GPa)
#
#
# Indices 1 2 3 4 5 6 
#
# 1 106.9120 58.5751 37.1996 0.0000 8.6142 0.0000
# 2 58.5751 86.4666 37.3037 0.0000 15.4144 0.0000
# 3 37.1996 37.3037 87.7617 0.0000 0.8020 0.0000
# 4 0.0000 0.0000 0.0000 18.3344 0.0000 -0.2502
# 5 8.6142 15.4144 0.8020 0.0000 23.2062 0.0000
# 6 0.0000 0.0000 0.0000 -0.2502 0.0000 40.3722
#
#
#
# Elastic Compliance Matrix: (Units=1/GPa)
#
#
# Indices 1 2 3 4 5 6 
#
# 1 0.015335 -0.009427 -0.002499 0.000000 0.000656 0.000000
# 2 -0.009427 0.022238 -0.005355 0.000000 -0.011087 0.000000
# 3 -0.002499 -0.005355 0.014694 0.000000 0.003977 0.000000
# 4 0.000000 0.000000 0.000000 0.054547 0.000000 0.000338
# 5 0.000656 -0.011087 0.003977 0.000000 0.050076 0.000000
# 6 0.000000 0.000000 0.000000 0.000338 0.000000 0.024772
#
#
# Mechanical properties :
#
#
# Convention : Reuss Voigt Hill
#
# Bulk Modulus (GPa) = 56.48417 60.81082 58.64749
# Shear Modulus (GPa) = 22.50976 26.25335 24.38156
#
# Velocity S-wave (km/s) = 3.61942 3.90882 3.76690
# Velocity P-wave (km/s) = 7.09503 7.46742 7.28361
#
# Compressibility (1/GPa) = 0.01770407
#
# Stress axis : x y z
#
# Youngs Moduli (GPa) = 65.20937 44.96726 68.05641
#
# Poissons Ratio (x) = 0.42392 0.17007
# Poissons Ratio (y) = 0.61475 0.36446
# Poissons Ratio (z) = 0.16296 0.24081
#
# Static dielectric constant tensor:
#      x y z
#    x 1.628820 0.000000 -0.038380 
#    y 0.000000 1.564470 0.000000 
#    z -0.038380 0.000000 1.594780 
# 
# From -- ./inp_files/174215.got.cif
#   From: 2010.05.17/outbox.cif.g08.bks.cpg/sg15_88_cif.got.tgz:174215.got - 2010.06.03 18:47:42.
