data_PCOD9300243
_publ_section_title
;
Structure prediction by ZEFSAII (Michael W. Deem and Ramdas Pophale) SiO2 
 PCOD9300243
Probable space group: C 2/C
;
_chemical_formula_sum "Si O2"
_cell_formula_units_Z 28
_cell_length_a 29.213628
_cell_length_b 6.685079
_cell_length_c 8.691215
_cell_angle_alpha 90.000000
_cell_angle_beta 40.593857
_cell_angle_gamma 90.000000
_cell_volume 1104.456304
_symmetry_space_group_name_H-M "C 2/C"
_symmetry_group_IT_number 15
_symmetry_cell_setting 'monoclinic'
loop_
_space_group_symop_operation_xyz
x,y,z
-x,y,1/2-z
-x,-y,-z
x,-y,1/2+z
1/2+x,1/2+y,z
1/2-x,1/2+y,1/2-z
1/2-x,1/2-y,-z
1/2+x,1/2-y,1/2+z
loop_
_atom_site_type_symbol
_atom_site_label
_atom_site_fract_x
_atom_site_fract_y
_atom_site_fract_z
Si Si1 0.410171 0.171002 0.202080
Si Si2 0.500000 0.113472 0.250000
Si Si3 0.790876 0.604586 0.723919
Si Si4 0.694245 0.451156 0.206691
O O1 0.352471 0.048732 0.449819
O O2 0.370173 0.349161 0.215933
O O3 0.463433 0.234160 0.203646
O O4 0.447601 0.031922 0.980390
O O5 0.719675 0.631932 0.805825
O O6 0.815753 0.812287 0.735142
O O7 0.763826 0.453454 0.921004
#
# Coordination Sequence:
#
# PCOD9300243 Si02
#       4
#     8   4   8   8
#     4  11  23  49  68 105 139 188 237 284 337 436
#     4  10  26  46  78  92 144 198 232 280 344 390
#     4  11  23  43  72 108 138 182 217 310 352 413
#     4  11  24  42  72 107 144 172 230 289 369 401
#
# _framework density 25.351841
#
# number of rings (size 3 to 8) (size 9 to 14) (size 15 to 20)
#    0.000    1.143    2.857    2.571    4.000    0.000 
#    5.143    4.286    0.000    0.000    0.000    0.000 
#    0.000    0.000    0.000    0.000    0.000    0.000 
#
# Total GULP energy -78240.905412 kJ/mol
# GULP energy per Si atom -5588.636101 kJ/mol
# Density = 2.529414 g / cm^3
# Si number density = 25.351841 Si / 1000 Ang^3
#
#
#
# Elastic Constant Matrix: (Units=GPa)
#
#
# Indices 1 2 3 4 5 6 
#
# 1 276.6517 71.0689 16.2868 0.0000 6.1451 0.0000
# 2 71.0689 85.3593 26.4674 0.0000 -3.3311 0.0000
# 3 16.2868 26.4674 143.7141 0.0000 15.8840 0.0000
# 4 0.0000 0.0000 0.0000 31.0081 0.0000 9.2336
# 5 6.1451 -3.3311 15.8840 0.0000 34.5502 0.0000
# 6 0.0000 0.0000 0.0000 9.2336 0.0000 59.2707
#
#
#
# Elastic Compliance Matrix: (Units=1/GPa)
#
#
# Indices 1 2 3 4 5 6 
#
# 1 0.004665 -0.004054 0.000372 0.000000 -0.001391 0.000000
# 2 -0.004054 0.016134 -0.002912 0.000000 0.003615 0.000000
# 3 0.000372 -0.002912 0.007892 0.000000 -0.003975 0.000000
# 4 0.000000 0.000000 0.000000 0.033818 0.000000 -0.005268
# 5 -0.001391 0.003615 -0.003975 0.000000 0.031367 0.000000
# 6 0.000000 0.000000 0.000000 -0.005268 0.000000 0.017693
#
#
# Mechanical properties :
#
#
# Convention : Reuss Voigt Hill
#
# Bulk Modulus (GPa) = 64.50037 81.48571 72.99304
# Shear Modulus (GPa) = 38.48431 51.09262 44.78847
#
# Velocity S-wave (km/s) = 3.90039 4.49413 4.20774
# Velocity P-wave (km/s) = 6.76619 7.69034 7.24302
#
# Compressibility (1/GPa) = 0.01550379
#
# Stress axis : x y z
#
# Youngs Moduli (GPa) = 214.36282 61.98116 126.71587
#
# Poissons Ratio (x) = 0.25124 -0.04709
# Poissons Ratio (y) = 0.86893 0.36893
# Poissons Ratio (z) = -0.07967 0.18046
#
# Static dielectric constant tensor:
#      x y z
#    x 2.228880 0.000000 0.020830 
#    y 0.000000 2.103070 0.000000 
#    z 0.020830 0.000000 2.056140 
# 
# From -- ./inp_files/45471.got.cif
#   From: 2010.05.17/outbox.cif.g08.bks.cpg/sg15_23_cif.got.tgz:45471.got - 2010.06.03 18:47:42.
