data_PCOD9300349
_publ_section_title
;
Structure prediction by ZEFSAII (Michael W. Deem and Ramdas Pophale) SiO2 
 PCOD9300349
Probable space group: C 2/C
;
_chemical_formula_sum "Si O2"
_cell_formula_units_Z 44
_cell_length_a 25.189610
_cell_length_b 6.920707
_cell_length_c 12.055944
_cell_angle_alpha 90.000000
_cell_angle_beta 46.887201
_cell_angle_gamma 90.000000
_cell_volume 1534.269724
_symmetry_space_group_name_H-M "C 2/C"
_symmetry_group_IT_number 15
_symmetry_cell_setting 'monoclinic'
loop_
_space_group_symop_operation_xyz
x,y,z
-x,y,1/2-z
-x,-y,-z
x,-y,1/2+z
1/2+x,1/2+y,z
1/2-x,1/2+y,1/2-z
1/2-x,1/2-y,-z
1/2+x,1/2-y,1/2+z
loop_
_atom_site_type_symbol
_atom_site_label
_atom_site_fract_x
_atom_site_fract_y
_atom_site_fract_z
Si Si1 0.075472 0.190701 0.432148
Si Si2 0.903995 0.202160 0.330471
Si Si3 0.118803 0.247377 0.895345
Si Si4 0.693145 0.011892 0.619109
Si Si5 0.283741 0.250784 0.625656
Si Si6 0.500000 0.347752 0.250000
O O1 0.050259 0.252384 0.345881
O O2 0.154610 0.245081 0.370154
O O3 0.021383 0.254713 0.606716
O O4 0.082489 0.955853 0.413530
O O5 0.908955 0.304708 0.442460
O O6 0.828324 0.271253 0.383341
O O7 0.930940 0.987425 0.322184
O O8 0.128746 0.407145 0.784898
O O9 0.205164 0.200270 0.787493
O O10 0.696814 0.901077 0.497105
O O11 0.764592 0.944595 0.583434
#
# Coordination Sequence:
#
# PCOD9300349 Si02
#       6
#     8   8   8   8   8   4
#     4  11  24  42  72  94 134 185 221 277 343 397
#     4  11  24  43  73  94 137 182 230 276 339 386
#     4   9  23  39  63 103 141 160 227 267 336 424
#     4   9  22  41  64 101 144 167 217 282 339 407
#     4   9  22  39  67 100 142 169 213 274 351 412
#     4  10  26  50  62 100 132 182 252 270 308 412
#
# _framework density 28.678139000000002
#
# number of rings (size 3 to 8) (size 9 to 14) (size 15 to 20)
#    1.091    1.091    0.000    0.545   12.727    0.727 
#    0.000    4.545    0.000    0.000    0.000    0.000 
#    0.000    0.000    0.000    0.000    0.000    0.000 
#
# Total GULP energy -122810.388594 kJ/mol
# GULP energy per Si atom -5582.290391 kJ/mol
# Density = 2.861287 g / cm^3
# Si number density = 28.678139 Si / 1000 Ang^3
#
#
#
# Elastic Constant Matrix: (Units=GPa)
#
#
# Indices 1 2 3 4 5 6 
#
# 1 178.9461 34.6086 75.7220 0.0000 12.4119 0.0001
# 2 34.6086 75.6215 37.4484 0.0000 10.1572 0.0001
# 3 75.7220 37.4484 196.7319 0.0000 45.5208 0.0000
# 4 0.0000 0.0000 0.0000 24.7883 0.0000 4.1606
# 5 12.4119 10.1572 45.5208 0.0000 58.1526 0.0000
# 6 0.0001 0.0001 0.0000 4.1606 0.0000 56.8618
#
#
#
# Elastic Compliance Matrix: (Units=1/GPa)
#
#
# Indices 1 2 3 4 5 6 
#
# 1 0.006983 -0.002077 -0.002481 0.000000 0.000814 0.000000
# 2 -0.002077 0.015228 -0.001937 0.000000 -0.000700 0.000000
# 3 -0.002481 -0.001937 0.007579 0.000000 -0.005064 0.000000
# 4 0.000000 0.000000 0.000000 0.040843 0.000000 -0.002989
# 5 0.000814 -0.000700 -0.005064 0.000000 0.021109 0.000000
# 6 0.000000 0.000000 0.000000 -0.002989 0.000000 0.017805
#
#
# Mechanical properties :
#
#
# Convention : Reuss Voigt Hill
#
# Bulk Modulus (GPa) = 59.52577 82.98416 71.25496
# Shear Modulus (GPa) = 39.02088 48.19525 43.60806
#
# Velocity S-wave (km/s) = 3.69270 4.10391 3.90372
# Velocity P-wave (km/s) = 6.24363 7.17323 6.72451
#
# Compressibility (1/GPa) = 0.01679945
#
# Stress axis : x y z
#
# Youngs Moduli (GPa) = 143.19943 65.67041 131.95056
#
# Poissons Ratio (x) = 0.13638 0.32736
# Poissons Ratio (y) = 0.29738 0.25563
# Poissons Ratio (z) = 0.35527 0.12722
#
# Static dielectric constant tensor:
#      x y z
#    x 2.192670 0.000000 -0.120040 
#    y 0.000000 2.369380 0.000000 
#    z -0.120040 0.000000 2.396590 
# 
# From -- ./inp_files/125473.got.cif
#   From: 2010.05.17/outbox.cif.g08.bks.cpg/sg15_63_cif.got.tgz:125473.got - 2010.06.03 18:47:42.
