data_PCOD9300757
_publ_section_title
;
Structure prediction by ZEFSAII (Michael W. Deem and Ramdas Pophale) SiO2 
 PCOD9300757
Probable space group: C 2/C
;
_chemical_formula_sum "Si O2"
_cell_formula_units_Z 52
_cell_length_a 5.955944
_cell_length_b 24.647337
_cell_length_c 19.593514
_cell_angle_alpha 90.000000
_cell_angle_beta 119.728455
_cell_angle_gamma 90.000000
_cell_volume 2497.729634
_symmetry_space_group_name_H-M "C 2/C"
_symmetry_group_IT_number 15
_symmetry_cell_setting 'monoclinic'
loop_
_space_group_symop_operation_xyz
x,y,z
-x,y,1/2-z
-x,-y,-z
x,-y,1/2+z
1/2+x,1/2+y,z
1/2-x,1/2+y,1/2-z
1/2-x,1/2-y,-z
1/2+x,1/2-y,1/2+z
loop_
_atom_site_type_symbol
_atom_site_label
_atom_site_fract_x
_atom_site_fract_y
_atom_site_fract_z
Si Si1 0.409314 0.855171 0.446589
Si Si2 0.220076 0.439097 0.170919
Si Si3 0.468670 0.283980 0.353727
Si Si4 0.098665 0.803869 0.998880
Si Si5 0.320345 0.056263 0.291995
Si Si6 0.500000 0.137781 0.750000
Si Si7 0.558327 0.834216 0.885775
O O1 0.277003 0.910726 0.402701
O O2 0.703847 0.853088 0.467923
O O3 0.436165 0.842654 0.531105
O O4 0.250323 0.809090 0.379830
O O5 0.500000 0.437489 0.250000
O O6 0.131600 0.501236 0.157940
O O7 0.040084 0.401752 0.191747
O O8 0.482486 0.290250 0.437193
O O9 0.423466 0.220346 0.336950
O O10 0.247688 0.322950 0.292841
O O11 0.250000 0.750000 0.000000
O O12 0.859378 0.820961 0.916366
O O13 0.500000 0.047506 0.250000
O O14 0.436319 0.112049 0.337578
O O15 0.000000 0.061648 0.250000
#
# Coordination Sequence:
#
# PCOD9300757 Si02
#       7
#     8   8   8   8   8   4   8
#     4  11  21  39  67  98 129 175 222 288 338 407
#     4  11  23  44  69  91 131 178 235 281 339 400
#     4  11  22  36  61 100 133 171 219 278 345 411
#     4  11  19  37  64  88 135 179 209 273 347 409
#     4  11  28  51  73  95 140 191 228 289 348 410
#     4  12  22  36  66  98 126 174 234 280 334 414
#     4  11  25  41  64 102 138 175 230 274 355 420
#
# _framework density 20.818908
#
# number of rings (size 3 to 8) (size 9 to 14) (size 15 to 20)
#    0.000    0.923    6.923    0.923    3.231    0.615 
#    2.769    0.769    0.000    0.000    0.000    0.000 
#    0.000    0.000    0.000    0.000    0.000    0.000 
#
# Total GULP energy -144760.012735 kJ/mol
# GULP energy per Si atom -5567.692797 kJ/mol
# Density = 2.077152 g / cm^3
# Si number density = 20.818908 Si / 1000 Ang^3
#
#
#
# Elastic Constant Matrix: (Units=GPa)
#
#
# Indices 1 2 3 4 5 6 
#
# 1 63.3907 20.0839 11.7757 0.0000 15.9559 0.0000
# 2 20.0839 177.2760 35.2230 0.0000 17.6128 0.0000
# 3 11.7757 35.2230 21.5512 0.0000 11.0907 0.0000
# 4 0.0000 0.0000 0.0000 35.2235 0.0000 2.9111
# 5 15.9559 17.6128 11.0907 0.0000 30.4629 0.0000
# 6 0.0000 0.0000 0.0000 2.9111 0.0000 27.4924
#
#
#
# Elastic Compliance Matrix: (Units=1/GPa)
#
#
# Indices 1 2 3 4 5 6 
#
# 1 0.018871 -0.000164 -0.006159 0.000000 -0.007547 0.000000
# 2 -0.000164 0.008356 -0.013690 0.000000 0.000239 0.000000
# 3 -0.006159 -0.013690 0.081718 0.000000 -0.018610 0.000000
# 4 0.000000 0.000000 0.000000 0.028641 0.000000 -0.003033
# 5 -0.007547 0.000239 -0.018610 0.000000 0.043417 0.000000
# 6 0.000000 0.000000 0.000000 -0.003033 0.000000 0.036695
#
#
# Mechanical properties :
#
#
# Convention : Reuss Voigt Hill
#
# Bulk Modulus (GPa) = 14.50983 44.04259 29.27621
# Shear Modulus (GPa) = 17.81287 31.64477 24.72882
#
# Velocity S-wave (km/s) = 2.92826 3.90295 3.45020
# Velocity P-wave (km/s) = 4.29157 6.44296 5.47400
#
# Compressibility (1/GPa) = 0.06891881
#
# Stress axis : x y z
#
# Youngs Moduli (GPa) = 52.99150 119.67692 12.23725
#
# Poissons Ratio (x) = 0.01968 0.07536
# Poissons Ratio (y) = 0.00872 0.16753
# Poissons Ratio (z) = 0.32635 1.63836
#
# Static dielectric constant tensor:
#      x y z
#    x 1.926120 0.000000 -0.017390 
#    y 0.000000 1.799770 0.000000 
#    z -0.017390 0.000000 1.762230 
# 
# From -- ./inp_files/227817.got.cif
#   From: 2010.05.17/outbox.cif.g08.bks.cpg/sg15_114_cif.got.tgz:227817.got - 2010.06.03 18:47:42.
