data_PCOD9300234
_publ_section_title
;
Structure prediction by ZEFSAII (Michael W. Deem and Ramdas Pophale) SiO2 
 PCOD9300234
Probable space group: C 2/C
;
_chemical_formula_sum "Si O2"
_cell_formula_units_Z 40
_cell_length_a 7.740423
_cell_length_b 17.669735
_cell_length_c 19.683199
_cell_angle_alpha 90.000000
_cell_angle_beta 142.772842
_cell_angle_gamma 90.000000
_cell_volume 1628.654601
_symmetry_space_group_name_H-M "C 2/C"
_symmetry_group_IT_number 15
_symmetry_cell_setting 'monoclinic'
loop_
_space_group_symop_operation_xyz
x,y,z
-x,y,1/2-z
-x,-y,-z
x,-y,1/2+z
1/2+x,1/2+y,z
1/2-x,1/2+y,1/2-z
1/2-x,1/2-y,-z
1/2+x,1/2-y,1/2+z
loop_
_atom_site_type_symbol
_atom_site_label
_atom_site_fract_x
_atom_site_fract_y
_atom_site_fract_z
Si Si1 0.592381 0.331620 0.448547
Si Si2 0.678298 0.975323 0.925153
Si Si3 0.235022 0.768263 0.269980
Si Si4 0.143055 0.891942 0.726425
Si Si5 0.771585 0.364060 0.029990
O O1 0.750000 0.250000 0.500000
O O2 0.781147 0.408203 0.506850
O O3 0.384129 0.330813 0.318776
O O4 0.419510 0.342197 0.464440
O O5 0.432902 0.937542 0.802199
O O6 0.562272 0.056898 0.909236
O O7 0.000000 0.000000 0.000000
O O8 0.286421 0.696057 0.239120
O O9 0.495716 0.798050 0.396648
O O10 0.000000 0.743833 0.250000
O O11 0.000000 0.923534 0.750000
O O12 0.929666 0.882530 0.596579
#
# Coordination Sequence:
#
# PCOD9300234 Si02
#       5
#     8   8   8   8   8
#     4  11  22  46  76 106 149 202 263 318 387 469
#     4  10  26  46  76 110 154 204 262 322 401 472
#     4  12  27  45  77 110 156 204 265 328 395 472
#     4  12  27  48  78 111 156 205 268 330 394 476
#     4  11  27  48  74 111 157 200 264 329 404 470
#
# _framework density 24.560148999999999
#
# number of rings (size 3 to 8) (size 9 to 14) (size 15 to 20)
#    0.000    0.800    2.000    3.600    8.400    1.600 
#    3.600    0.000    0.000    0.000    0.000    0.000 
#    0.000    0.000    0.000    0.000    0.000    0.000 
#
# Total GULP energy -111700.398198 kJ/mol
# GULP energy per Si atom -5585.019910 kJ/mol
# Density = 2.450425 g / cm^3
# Si number density = 24.560149 Si / 1000 Ang^3
#
#
#
# Elastic Constant Matrix: (Units=GPa)
#
#
# Indices 1 2 3 4 5 6 
#
# 1 100.1009 14.8301 32.0704 0.0020 -5.2272 0.0014
# 2 14.8301 142.3775 46.0630 -0.0031 14.5372 -0.0014
# 3 32.0704 46.0630 171.0579 -0.0115 -6.6434 -0.0034
# 4 0.0020 -0.0031 -0.0115 43.3684 -0.0026 7.4404
# 5 -5.2272 14.5372 -6.6434 -0.0026 35.6944 -0.0005
# 6 0.0014 -0.0014 -0.0034 7.4404 -0.0005 17.4786
#
#
#
# Elastic Compliance Matrix: (Units=1/GPa)
#
#
# Indices 1 2 3 4 5 6 
#
# 1 0.010739 -0.000704 -0.001764 -0.000001 0.001531 -0.000001
# 2 -0.000704 0.008213 -0.002230 0.000000 -0.003863 0.000000
# 3 -0.001764 -0.002230 0.006852 0.000002 0.001925 0.000001
# 4 -0.000001 0.000000 0.000002 0.024875 0.000002 -0.010589
# 5 0.001531 -0.003863 0.001925 0.000002 0.030171 0.000000
# 6 -0.000001 0.000000 0.000001 -0.010589 0.000000 0.061720
#
#
# Mechanical properties :
#
#
# Convention : Reuss Voigt Hill
#
# Bulk Modulus (GPa) = 60.94625 66.60705 63.77665
# Shear Modulus (GPa) = 31.75891 40.67978 36.21934
#
# Velocity S-wave (km/s) = 3.59988 4.07422 3.84437
# Velocity P-wave (km/s) = 6.49214 7.02219 6.76236
#
# Compressibility (1/GPa) = 0.01640790
#
# Stress axis : x y z
#
# Youngs Moduli (GPa) = 93.11446 121.76339 145.94487
#
# Poissons Ratio (x) = 0.08574 0.25750
# Poissons Ratio (y) = 0.06557 0.32539
# Poissons Ratio (z) = 0.16429 0.27148
#
# Static dielectric constant tensor:
#      x y z
#    x 1.971640 0.000000 0.054280 
#    y 0.000000 2.032590 0.000000 
#    z 0.054280 0.000000 2.039120 
# 
# From -- ./inp_files/265681.got.cif
#   From: 2010.05.17/outbox.cif.g08.bks.cpg/sg15_133_cif.got.tgz:265681.got - 2010.06.03 18:47:42.
