data_PCOD9300746
_publ_section_title
;
Structure prediction by ZEFSAII (Michael W. Deem and Ramdas Pophale) SiO2 
 PCOD9300746
Probable space group: C 2/C
;
_chemical_formula_sum "Si O2"
_cell_formula_units_Z 32
_cell_length_a 7.419745
_cell_length_b 11.998640
_cell_length_c 16.824188
_cell_angle_alpha 90.000000
_cell_angle_beta 69.351123
_cell_angle_gamma 90.000000
_cell_volume 1401.584069
_symmetry_space_group_name_H-M "C 2/C"
_symmetry_group_IT_number 15
_symmetry_cell_setting 'monoclinic'
loop_
_space_group_symop_operation_xyz
x,y,z
-x,y,1/2-z
-x,-y,-z
x,-y,1/2+z
1/2+x,1/2+y,z
1/2-x,1/2+y,1/2-z
1/2-x,1/2-y,-z
1/2+x,1/2-y,1/2+z
loop_
_atom_site_type_symbol
_atom_site_label
_atom_site_fract_x
_atom_site_fract_y
_atom_site_fract_z
Si Si1 0.306842 0.126889 0.670325
Si Si2 0.007590 0.691180 0.498455
Si Si3 0.834900 0.498052 0.933488
Si Si4 0.910328 0.880403 0.139528
O O1 0.413604 0.219255 0.598645
O O2 0.461541 0.026388 0.641921
O O3 0.245809 0.152891 0.769051
O O4 0.109231 0.101177 0.654452
O O5 0.163792 0.596356 0.499700
O O6 0.076499 0.784742 0.428843
O O7 0.850477 0.619162 0.473765
O O8 0.666362 0.513912 0.897349
#
# Coordination Sequence:
#
# PCOD9300746 Si02
#       4
#     8   8   8   8
#     4   9  21  36  55  89 112 143 203 233 281 362
#     4   9  20  39  58  86 115 154 197 231 298 356
#     4   9  20  39  58  80 123 150 190 247 290 342
#     4  11  19  37  62  80 119 155 186 248 292 335
#
# _framework density 22.831309999999998
#
# number of rings (size 3 to 8) (size 9 to 14) (size 15 to 20)
#    1.500    1.000    0.000    2.250    0.000    1.000 
#    9.000    0.000   11.000    0.000    0.000    0.000 
#    0.000    0.000    0.000    0.000    0.000    0.000 
#
# Total GULP energy -89160.603974 kJ/mol
# GULP energy per Si atom -5572.537748 kJ/mol
# Density = 2.277935 g / cm^3
# Si number density = 22.831310 Si / 1000 Ang^3
#
#
#
# Elastic Constant Matrix: (Units=GPa)
#
#
# Indices 1 2 3 4 5 6 
#
# 1 47.4808 17.6546 16.9193 0.0000 12.4794 0.0000
# 2 17.6546 43.9868 38.2946 0.0000 0.0433 0.0000
# 3 16.9193 38.2946 178.2072 0.0000 -14.5875 0.0000
# 4 0.0000 0.0000 0.0000 20.5713 0.0000 -0.0299
# 5 12.4794 0.0433 -14.5875 0.0000 35.5415 0.0000
# 6 0.0000 0.0000 0.0000 -0.0299 0.0000 12.2067
#
#
#
# Elastic Compliance Matrix: (Units=1/GPa)
#
#
# Indices 1 2 3 4 5 6 
#
# 1 0.028008 -0.010058 -0.001347 0.000000 -0.010375 0.000000
# 2 -0.010058 0.031810 -0.005789 0.000000 0.001117 0.000000
# 3 -0.001347 -0.005789 0.007267 0.000000 0.003463 0.000000
# 4 0.000000 0.000000 0.000000 0.048612 0.000000 0.000119
# 5 -0.010375 0.001117 0.003463 0.000000 0.033199 0.000000
# 6 0.000000 0.000000 0.000000 0.000119 0.000000 0.081922
#
#
# Mechanical properties :
#
#
# Convention : Reuss Voigt Hill
#
# Bulk Modulus (GPa) = 30.58516 46.15687 38.37102
# Shear Modulus (GPa) = 18.10904 26.78433 22.44668
#
# Velocity S-wave (km/s) = 2.81938 3.42883 3.13893
# Velocity P-wave (km/s) = 4.90140 5.99468 5.47540
#
# Compressibility (1/GPa) = 0.03269559
#
# Stress axis : x y z
#
# Youngs Moduli (GPa) = 35.70420 31.43648 137.61225
#
# Poissons Ratio (x) = 0.31620 0.18535
# Poissons Ratio (y) = 0.35913 0.79667
# Poissons Ratio (z) = 0.04809 0.18199
#
# Static dielectric constant tensor:
#      x y z
#    x 1.947870 0.000000 -0.049820 
#    y 0.000000 1.839870 0.000000 
#    z -0.049820 0.000000 1.883070 
# 
# From -- ./inp_files/132293.got.cif
#   From: 2010.05.17/outbox.cif.g08.bks.cpg/sg15_67_cif.got.tgz:132293.got - 2010.06.03 18:47:42.
