data_PCOD9300680
_publ_section_title
;
Structure prediction by ZEFSAII (Michael W. Deem and Ramdas Pophale) SiO2 
 PCOD9300680
Probable space group: C 2/C
;
_chemical_formula_sum "Si O2"
_cell_formula_units_Z 40
_cell_length_a 23.154239
_cell_length_b 20.005642
_cell_length_c 14.655112
_cell_angle_alpha 90.000000
_cell_angle_beta 163.057846
_cell_angle_gamma 90.000000
_cell_volume 1978.202456
_symmetry_space_group_name_H-M "C 2/C"
_symmetry_group_IT_number 15
_symmetry_cell_setting 'monoclinic'
loop_
_space_group_symop_operation_xyz
x,y,z
-x,y,1/2-z
-x,-y,-z
x,-y,1/2+z
1/2+x,1/2+y,z
1/2-x,1/2+y,1/2-z
1/2-x,1/2-y,-z
1/2+x,1/2-y,1/2+z
loop_
_atom_site_type_symbol
_atom_site_label
_atom_site_fract_x
_atom_site_fract_y
_atom_site_fract_z
Si Si1 0.328152 0.528049 0.173777
Si Si2 0.328903 0.830888 0.053311
Si Si3 0.500000 0.404771 0.750000
Si Si4 0.026051 0.272843 0.507635
Si Si5 0.811778 0.322903 0.342891
Si Si6 0.500000 0.933615 0.750000
O O1 0.500000 0.500000 0.500000
O O2 0.406763 0.549553 0.191208
O O3 0.243663 0.597211 0.086836
O O4 0.143196 0.477434 0.901665
O O5 0.500000 0.800392 0.250000
O O6 0.444028 0.833990 0.322983
O O7 0.139833 0.783771 0.763130
O O8 0.346002 0.354732 0.466836
O O9 0.001145 0.295518 0.573418
O O10 0.222111 0.238491 0.765666
O O11 0.864775 0.384513 0.486688
#
# Coordination Sequence:
#
# PCOD9300680 Si02
#       6
#     8   8   4   8   8   4
#     4  12  24  44  67  98 141 179 225 282 334 412
#     4  11  19  34  66  97 122 166 224 281 324 390
#     4  12  22  42  71 101 134 178 228 280 340 394
#     4  11  21  38  66  97 131 162 227 283 335 395
#     4  12  24  43  67 100 134 177 225 288 342 400
#     4  12  28  46  65  95 144 188 226 274 346 412
#
# _framework density 20.220376999999999
#
# number of rings (size 3 to 8) (size 9 to 14) (size 15 to 20)
#    0.000    0.400    9.000    1.200    0.000    1.600 
#    3.600    0.000    0.000    0.000    0.000    0.000 
#    0.000    0.000    0.000    0.000    0.000    0.000 
#
# Total GULP energy -111521.167125 kJ/mol
# GULP energy per Si atom -5576.058356 kJ/mol
# Density = 2.017435 g / cm^3
# Si number density = 20.220377 Si / 1000 Ang^3
#
#
#
# Elastic Constant Matrix: (Units=GPa)
#
#
# Indices 1 2 3 4 5 6 
#
# 1 119.1873 15.6813 7.3634 0.0000 19.2156 0.0000
# 2 15.6813 87.6495 18.1796 0.0000 -7.5792 0.0000
# 3 7.3634 18.1796 42.4787 0.0000 -2.6823 0.0000
# 4 0.0000 0.0000 0.0000 18.1704 0.0000 9.8221
# 5 19.2156 -7.5792 -2.6823 0.0000 21.8129 0.0000
# 6 0.0000 0.0000 0.0000 9.8221 0.0000 40.1056
#
#
#
# Elastic Compliance Matrix: (Units=1/GPa)
#
#
# Indices 1 2 3 4 5 6 
#
# 1 0.010451 -0.002464 -0.001404 0.000000 -0.010235 0.000000
# 2 -0.002464 0.013408 -0.004918 0.000000 0.006225 0.000000
# 3 -0.001404 -0.004918 0.026062 0.000000 0.002732 0.000000
# 4 0.000000 0.000000 0.000000 0.063432 0.000000 -0.015535
# 5 -0.010235 0.006225 0.002732 0.000000 0.057360 0.000000
# 6 0.000000 0.000000 0.000000 -0.015535 0.000000 0.028739
#
#
# Mechanical properties :
#
#
# Convention : Reuss Voigt Hill
#
# Bulk Modulus (GPa) = 30.91165 36.86267 33.88716
# Shear Modulus (GPa) = 21.94848 29.89052 25.91950
#
# Velocity S-wave (km/s) = 3.29821 3.84896 3.58418
# Velocity P-wave (km/s) = 5.46121 6.16625 5.82441
#
# Compressibility (1/GPa) = 0.03235026
#
# Stress axis : x y z
#
# Youngs Moduli (GPa) = 95.68280 74.58113 38.37028
#
# Poissons Ratio (x) = 0.18375 0.05385
# Poissons Ratio (y) = 0.23574 0.18871
# Poissons Ratio (z) = 0.13429 0.36680
#
# Static dielectric constant tensor:
#      x y z
#    x 1.833750 0.000000 -0.003010 
#    y 0.000000 1.700230 0.000000 
#    z -0.003010 0.000000 1.739870 
# 
# From -- ./inp_files/174150.got.cif
#   From: 2010.05.17/outbox.cif.g08.bks.cpg/sg15_88_cif.got.tgz:174150.got - 2010.06.03 18:47:42.
