data_PCOD9300409
_publ_section_title
;
Structure prediction by ZEFSAII (Michael W. Deem and Ramdas Pophale) SiO2 
 PCOD9300409
Probable space group: C 2/C
;
_chemical_formula_sum "Si O2"
_cell_formula_units_Z 36
_cell_length_a 21.538548
_cell_length_b 4.921563
_cell_length_c 12.403309
_cell_angle_alpha 90.000000
_cell_angle_beta 83.971051
_cell_angle_gamma 90.000000
_cell_volume 1307.519771
_symmetry_space_group_name_H-M "C 2/C"
_symmetry_group_IT_number 15
_symmetry_cell_setting 'monoclinic'
loop_
_space_group_symop_operation_xyz
x,y,z
-x,y,1/2-z
-x,-y,-z
x,-y,1/2+z
1/2+x,1/2+y,z
1/2-x,1/2+y,1/2-z
1/2-x,1/2-y,-z
1/2+x,1/2-y,1/2+z
loop_
_atom_site_type_symbol
_atom_site_label
_atom_site_fract_x
_atom_site_fract_y
_atom_site_fract_z
Si Si1 0.616115 0.330339 0.119714
Si Si2 0.046253 0.289413 0.431138
Si Si3 0.838760 0.242104 0.204168
Si Si4 0.500000 0.608297 0.750000
Si Si5 0.762087 0.539011 0.899859
O O1 0.635274 0.568885 0.198442
O O2 0.557036 0.208287 0.197250
O O3 0.677521 0.150653 0.086601
O O4 0.580330 0.394792 0.015760
O O5 0.107194 0.418725 0.361316
O O6 0.018621 0.091489 0.345043
O O7 0.000000 0.500000 0.500000
O O8 0.782491 0.385125 0.274701
O O9 0.805132 0.081368 0.115042
O O10 0.750000 0.750000 0.000000
#
# Coordination Sequence:
#
# PCOD9300409 Si02
#       5
#     8   8   8   4   8
#     4  11  26  48  80 111 161 204 260 327 387 476
#     4  11  27  47  80 115 157 207 263 328 394 466
#     4  11  26  50  78 116 156 204 263 323 394 473
#     4  10  26  52  78 118 158 212 270 324 396 474
#     4  12  27  48  83 116 155 208 261 326 403 469
#
# _framework density 27.533048000000001
#
# number of rings (size 3 to 8) (size 9 to 14) (size 15 to 20)
#    0.000    0.889    2.222    2.000   12.444    1.778 
#    4.000    0.000    0.000    0.000    0.000    0.000 
#    0.000    0.000    0.000    0.000    0.000    0.000 
#
# Total GULP energy -100412.661465 kJ/mol
# GULP energy per Si atom -5578.481193 kJ/mol
# Density = 2.747038 g / cm^3
# Si number density = 27.533048 Si / 1000 Ang^3
#
#
#
# Elastic Constant Matrix: (Units=GPa)
#
#
# Indices 1 2 3 4 5 6 
#
# 1 157.6766 39.0558 112.1225 0.0000 -4.3417 0.0000
# 2 39.0558 46.3153 71.3057 0.0000 11.8262 0.0000
# 3 112.1225 71.3057 206.4417 0.0000 7.9661 0.0000
# 4 0.0000 0.0000 0.0000 64.9646 0.0000 6.3531
# 5 -4.3417 11.8262 7.9661 0.0000 102.4736 0.0000
# 6 0.0000 0.0000 0.0000 6.3531 0.0000 26.4050
#
#
#
# Elastic Compliance Matrix: (Units=1/GPa)
#
#
# Indices 1 2 3 4 5 6 
#
# 1 0.010418 -0.000548 -0.005505 0.000000 0.000933 0.000000
# 2 -0.000548 0.047921 -0.016089 0.000000 -0.004303 0.000000
# 3 -0.005505 -0.016089 0.013368 0.000000 0.000584 0.000000
# 4 0.000000 0.000000 0.000000 0.015764 0.000000 -0.003793
# 5 0.000933 -0.004303 0.000584 0.000000 0.010249 0.000000
# 6 0.000000 0.000000 0.000000 -0.003793 0.000000 0.038784
#
#
# Mechanical properties :
#
#
# Convention : Reuss Voigt Hill
#
# Bulk Modulus (GPa) = 36.46333 95.04460 65.75396
# Shear Modulus (GPa) = 26.32552 51.29862 38.81207
#
# Velocity S-wave (km/s) = 3.09551 4.32112 3.75861
# Velocity P-wave (km/s) = 5.10377 7.71306 6.53987
#
# Compressibility (1/GPa) = 0.02742481
#
# Stress axis : x y z
#
# Youngs Moduli (GPa) = 95.98749 20.86749 74.80361
#
# Poissons Ratio (x) = 0.01143 0.41179
# Poissons Ratio (y) = 0.05260 1.20348
# Poissons Ratio (z) = 0.52841 0.33573
#
# Static dielectric constant tensor:
#      x y z
#    x 2.276120 0.000000 -0.047630 
#    y 0.000000 2.532760 0.000000 
#    z -0.047630 0.000000 2.135410 
# 
# From -- ./inp_files/115602.got.cif
#   From: 2010.05.17/outbox.cif.g08.bks.cpg/sg15_58_cif.got.tgz:115602.got - 2010.06.03 18:47:42.
