data_PCOD9300582
_publ_section_title
;
Structure prediction by ZEFSAII (Michael W. Deem and Ramdas Pophale) SiO2 
 PCOD9300582
Probable space group: C 2/C
;
_chemical_formula_sum "Si O2"
_cell_formula_units_Z 60
_cell_length_a 30.620581
_cell_length_b 20.180196
_cell_length_c 15.066866
_cell_angle_alpha 90.000000
_cell_angle_beta 19.060039
_cell_angle_gamma 90.000000
_cell_volume 3040.346460
_symmetry_space_group_name_H-M "C 2/C"
_symmetry_group_IT_number 15
_symmetry_cell_setting 'monoclinic'
loop_
_space_group_symop_operation_xyz
x,y,z
-x,y,1/2-z
-x,-y,-z
x,-y,1/2+z
1/2+x,1/2+y,z
1/2-x,1/2+y,1/2-z
1/2-x,1/2-y,-z
1/2+x,1/2-y,1/2+z
loop_
_atom_site_type_symbol
_atom_site_label
_atom_site_fract_x
_atom_site_fract_y
_atom_site_fract_z
Si Si1 0.352487 0.908465 0.571153
Si Si2 0.532851 0.703458 0.316256
Si Si3 0.500000 0.726511 0.750000
Si Si4 0.038089 0.050073 0.274002
Si Si5 0.998304 0.145972 0.569215
Si Si6 0.250752 0.952948 0.945512
Si Si7 0.294590 0.473817 0.806281
Si Si8 0.712055 0.241641 0.327910
O O1 0.276149 0.957748 0.650619
O O2 0.283070 0.836957 0.697120
O O3 0.351506 0.929722 0.675678
O O4 0.500000 0.900235 0.250000
O O5 0.557285 0.627932 0.239310
O O6 0.518248 0.697627 0.450127
O O7 0.396525 0.728659 0.531834
O O8 0.652231 0.744789 0.041043
O O9 0.497625 0.681870 0.665515
O O10 0.638428 0.767054 0.476335
O O11 0.000000 0.026413 0.250000
O O12 0.910958 0.028279 0.574615
O O13 0.163403 0.010521 0.067660
O O14 0.856677 0.106830 0.833158
O O15 0.120916 0.092497 0.329537
O O16 0.300022 0.990692 0.939326
#
# Coordination Sequence:
#
# PCOD9300582 Si02
#       8
#     8   8   4   8   8   8   8   8
#     4  12  24  42  61  88 135 176 211 250 325 398
#     4  11  22  40  69  93 125 167 219 268 314 372
#     4  12  24  42  60  90 130 176 218 258 320 374
#     4  11  18  35  68  96 119 154 207 269 329 367
#     4  11  20  38  69  97 120 158 214 277 319 372
#     4  11  21  37  67 101 122 153 210 279 325 373
#     4  11  21  37  67 101 122 153 210 279 325 373
#     4  11  24  41  63  90 128 179 215 261 312 384
#
# _framework density 19.734593
#
# number of rings (size 3 to 8) (size 9 to 14) (size 15 to 20)
#    0.000    0.800    9.333    0.800    1.867    1.600 
#    0.000    0.000    5.867    0.000    0.000    0.000 
#    0.000    0.000    0.000    0.000    0.000    0.000 
#
# Total GULP energy -167300.588049 kJ/mol
# GULP energy per Si atom -5576.686268 kJ/mol
# Density = 1.968968 g / cm^3
# Si number density = 19.734593 Si / 1000 Ang^3
#
#
#
# Elastic Constant Matrix: (Units=GPa)
#
#
# Indices 1 2 3 4 5 6 
#
# 1 96.6703 12.0723 25.4423 0.0000 41.0265 0.0000
# 2 12.0723 39.2359 2.0449 -0.0002 13.5878 0.0000
# 3 25.4423 2.0449 103.9316 -0.0002 15.4397 -0.0004
# 4 0.0000 -0.0002 -0.0002 13.8454 -0.0001 9.0505
# 5 41.0265 13.5878 15.4397 -0.0001 33.0310 -0.0001
# 6 0.0000 0.0000 -0.0004 9.0505 -0.0001 36.1160
#
#
#
# Elastic Compliance Matrix: (Units=1/GPa)
#
#
# Indices 1 2 3 4 5 6 
#
# 1 0.022374 0.003027 -0.001315 0.000000 -0.028420 0.000000
# 2 0.003027 0.030301 0.001153 0.000000 -0.016763 0.000000
# 3 -0.001315 0.001153 0.010476 0.000000 -0.003738 0.000000
# 4 0.000000 0.000000 0.000000 0.086376 0.000000 -0.021645
# 5 -0.028420 -0.016763 -0.003738 0.000000 0.074218 0.000000
# 6 0.000000 0.000000 0.000000 -0.021645 0.000000 0.033113
#
#
# Mechanical properties :
#
#
# Convention : Reuss Voigt Hill
#
# Bulk Modulus (GPa) = 14.51771 35.43966 24.97869
# Shear Modulus (GPa) = 18.24237 29.95036 24.09636
#
# Velocity S-wave (km/s) = 3.04367 3.89994 3.49810
# Velocity P-wave (km/s) = 4.44121 6.18680 5.38520
#
# Compressibility (1/GPa) = 0.06888138
#
# Stress axis : x y z
#
# Youngs Moduli (GPa) = 44.69472 33.00252 95.45438
#
# Poissons Ratio (x) = -0.09989 0.12549
# Poissons Ratio (y) = -0.13528 -0.11007
# Poissons Ratio (z) = 0.05876 -0.03806
#
# Static dielectric constant tensor:
#      x y z
#    x 1.755760 0.000000 0.037260 
#    y 0.000000 1.683230 0.000000 
#    z 0.037260 0.000000 1.740600 
# 
# From -- ./inp_files/183063.got.cif
#   From: 2010.05.17/outbox.cif.g08.bks.cpg/sg15_92_cif.got.tgz:183063.got - 2010.06.03 18:47:42.
