data_PCOD9300908
_publ_section_title
;
Structure prediction by ZEFSAII (Michael W. Deem and Ramdas Pophale) SiO2 
 PCOD9300908
Probable space group: C 2/C
;
_chemical_formula_sum "Si O2"
_cell_formula_units_Z 64
_cell_length_a 16.121763
_cell_length_b 31.349629
_cell_length_c 9.839756
_cell_angle_alpha 90.000000
_cell_angle_beta 52.137405
_cell_angle_gamma 90.000000
_cell_volume 3926.206349
_symmetry_space_group_name_H-M "C 2/C"
_symmetry_group_IT_number 15
_symmetry_cell_setting 'monoclinic'
loop_
_space_group_symop_operation_xyz
x,y,z
-x,y,1/2-z
-x,-y,-z
x,-y,1/2+z
1/2+x,1/2+y,z
1/2-x,1/2+y,1/2-z
1/2-x,1/2-y,-z
1/2+x,1/2-y,1/2+z
loop_
_atom_site_type_symbol
_atom_site_label
_atom_site_fract_x
_atom_site_fract_y
_atom_site_fract_z
Si Si1 0.900689 0.768182 0.946588
Si Si2 0.414058 0.137374 0.603683
Si Si3 0.634647 0.034074 0.258192
Si Si4 0.099062 0.222270 0.738373
Si Si5 0.119195 0.456064 0.461365
Si Si6 0.293350 0.179813 0.973638
Si Si7 0.660921 0.125504 0.330804
Si Si8 0.176548 0.314142 0.555850
O O1 0.855426 0.720422 0.972545
O O2 0.000000 0.772944 0.750000
O O3 0.927843 0.775520 0.075979
O O4 0.810022 0.800694 0.991222
O O5 0.365108 0.091929 0.607796
O O6 0.362164 0.156381 0.790278
O O7 0.538406 0.130830 0.496070
O O8 0.391351 0.169489 0.502614
O O9 0.507607 0.038890 0.397639
O O10 0.681108 0.075826 0.284132
O O11 0.659789 0.990765 0.312803
O O12 0.660938 0.035549 0.071698
O O13 0.130151 0.269782 0.657400
O O14 0.203915 0.194496 0.610597
O O15 0.000000 0.207402 0.750000
O O16 0.272517 0.147489 0.117799
O O17 0.673725 0.151119 0.177772
#
# Coordination Sequence:
#
# PCOD9300908 Si02
#       8
#     8   8   8   8   8   8   8   8
#     4  11  24  39  53  73 106 137 171 219 266 303
#     4  11  20  35  51  74 106 141 176 212 252 299
#     4   9  18  30  45  70 101 136 172 202 253 300
#     4  11  24  37  56  75 100 138 174 219 264 301
#     4   9  18  30  46  68 102 137 168 209 248 303
#     4  11  24  36  51  76 104 137 178 213 255 307
#     4  11  20  33  53  76 102 143 175 212 249 304
#     4  11  22  36  53  76 103 133 183 217 249 302
#
# _framework density 16.300723000000001
#
# number of rings (size 3 to 8) (size 9 to 14) (size 15 to 20)
#    0.000    1.500    3.750    2.250    5.250    0.000 
#    0.000    0.000    0.000    0.000    0.000    0.000 
#    0.000    6.000    0.000    0.000    0.000    0.000 
#
# Total GULP energy -178683.222940 kJ/mol
# GULP energy per Si atom -5583.850717 kJ/mol
# Density = 1.626362 g / cm^3
# Si number density = 16.300723 Si / 1000 Ang^3
#
#
#
# Elastic Constant Matrix: (Units=GPa)
#
#
# Indices 1 2 3 4 5 6 
#
# 1 58.0574 18.6942 25.4363 0.0000 18.4603 0.0000
# 2 18.6942 76.9725 13.7611 0.0000 9.7400 0.0000
# 3 25.4363 13.7611 59.2281 0.0000 17.7590 0.0000
# 4 0.0000 0.0000 0.0000 18.2402 0.0000 0.7838
# 5 18.4603 9.7400 17.7590 0.0000 31.0859 0.0000
# 6 0.0000 0.0000 0.0000 0.7838 0.0000 14.3897
#
#
#
# Elastic Compliance Matrix: (Units=1/GPa)
#
#
# Indices 1 2 3 4 5 6 
#
# 1 0.024343 -0.003497 -0.006801 0.000000 -0.009475 0.000000
# 2 -0.003497 0.014286 -0.001325 0.000000 -0.001642 0.000000
# 3 -0.006801 -0.001325 0.022658 0.000000 -0.008491 0.000000
# 4 0.000000 0.000000 0.000000 0.054953 0.000000 -0.002993
# 5 -0.009475 -0.001642 -0.008491 0.000000 0.043161 0.000000
# 6 0.000000 0.000000 0.000000 -0.002993 0.000000 0.069657
#
#
# Mechanical properties :
#
#
# Convention : Reuss Voigt Hill
#
# Bulk Modulus (GPa) = 26.28744 34.44902 30.36823
# Shear Modulus (GPa) = 18.86915 21.83426 20.35171
#
# Velocity S-wave (km/s) = 3.40599 3.66384 3.53727
# Velocity P-wave (km/s) = 5.62399 6.25121 5.94588
#
# Compressibility (1/GPa) = 0.03804098
#
# Stress axis : x y z
#
# Youngs Moduli (GPa) = 41.08011 70.00012 44.13418
#
# Poissons Ratio (x) = 0.24481 0.30015
# Poissons Ratio (y) = 0.14367 0.05847
# Poissons Ratio (z) = 0.27938 0.09273
#
# Static dielectric constant tensor:
#      x y z
#    x 1.540520 0.000000 0.009330 
#    y 0.000000 1.545030 0.000000 
#    z 0.009330 0.000000 1.540220 
# 
# From -- ./inp_files/44556.got.cif
#   From: 2010.05.17/outbox.cif.g08.bks.cpg/sg15_23_cif.got.tgz:44556.got - 2010.06.03 18:47:42.
