data_PCOD9300089
_publ_section_title
;
Structure prediction by ZEFSAII (Michael W. Deem and Ramdas Pophale) SiO2 
 PCOD9300089
Probable space group: C 2/C
;
_chemical_formula_sum "Si O2"
_cell_formula_units_Z 52
_cell_length_a 18.860477
_cell_length_b 5.601290
_cell_length_c 25.118205
_cell_angle_alpha 90.000000
_cell_angle_beta 127.309459
_cell_angle_gamma 90.000000
_cell_volume 2110.573148
_symmetry_space_group_name_H-M "C 2/C"
_symmetry_group_IT_number 15
_symmetry_cell_setting 'monoclinic'
loop_
_space_group_symop_operation_xyz
x,y,z
-x,y,1/2-z
-x,-y,-z
x,-y,1/2+z
1/2+x,1/2+y,z
1/2-x,1/2+y,1/2-z
1/2-x,1/2-y,-z
1/2+x,1/2-y,1/2+z
loop_
_atom_site_type_symbol
_atom_site_label
_atom_site_fract_x
_atom_site_fract_y
_atom_site_fract_z
Si Si1 0.270187 0.893763 0.291117
Si Si2 0.578159 0.563213 0.979225
Si Si3 0.160448 0.917201 0.835520
Si Si4 0.737907 0.916772 0.445181
Si Si5 0.564559 0.224890 0.369726
Si Si6 0.000000 0.568959 0.750000
Si Si7 0.542679 0.170478 0.564662
O O1 0.248960 0.141795 0.248645
O O2 0.203370 0.909750 0.311644
O O3 0.372746 0.896365 0.360605
O O4 0.530352 0.728536 0.913569
O O5 0.541983 0.301298 0.947141
O O6 0.682179 0.601067 0.015564
O O7 0.575467 0.614303 0.040541
O O8 0.239601 0.750294 0.893998
O O9 0.084511 0.740120 0.780201
O O10 0.110698 0.049434 0.861780
O O11 0.750000 0.750000 0.500000
O O12 0.643413 0.035865 0.405159
O O13 0.495934 0.108913 0.298237
O O14 0.500000 0.000000 0.500000
#
# Coordination Sequence:
#
# PCOD9300089 Si02
#       7
#     8   8   8   8   8   4   8
#     4  12  32  54  80 111 158 218 265 320 399 480
#     4  11  25  44  75 112 146 194 258 321 397 456
#     4  11  25  48  72 103 147 194 248 308 385 464
#     4  11  23  41  72 110 144 186 235 314 391 461
#     4  11  24  43  73 107 148 192 244 318 392 464
#     4  10  26  44  68 110 148 186 246 314 380 466
#     4  11  28  50  77 108 155 203 269 330 386 474
#
# _framework density 24.637858000000001
#
# number of rings (size 3 to 8) (size 9 to 14) (size 15 to 20)
#    0.000    0.923    1.538    2.769   15.077    3.692 
#    0.000    0.000    0.000    0.000    0.000    0.000 
#    0.000    0.000    0.000    0.000    0.000    0.000 
#
# Total GULP energy -145186.122162 kJ/mol
# GULP energy per Si atom -5584.081622 kJ/mol
# Density = 2.458178 g / cm^3
# Si number density = 24.637858 Si / 1000 Ang^3
#
#
#
# Elastic Constant Matrix: (Units=GPa)
#
#
# Indices 1 2 3 4 5 6 
#
# 1 49.7463 -2.2114 23.2990 0.0001 -4.3259 0.0002
# 2 -2.2114 91.4792 54.7254 0.0001 2.3272 0.0011
# 3 23.2990 54.7254 148.3215 0.0000 8.6481 0.0002
# 4 0.0001 0.0001 0.0000 60.2435 0.0001 -7.2281
# 5 -4.3259 2.3272 8.6481 0.0001 30.6472 0.0000
# 6 0.0002 0.0011 0.0002 -7.2281 0.0000 30.0698
#
#
#
# Elastic Compliance Matrix: (Units=1/GPa)
#
#
# Indices 1 2 3 4 5 6 
#
# 1 0.023081 0.003553 -0.005196 0.000000 0.004454 0.000000
# 2 0.003553 0.014580 -0.006001 0.000000 0.001088 -0.000001
# 3 -0.005196 -0.006001 0.009952 0.000000 -0.003086 0.000000
# 4 0.000000 0.000000 0.000000 0.017092 0.000000 0.004109
# 5 0.004454 0.001088 -0.003086 0.000000 0.034046 0.000000
# 6 0.000000 -0.000001 0.000000 0.004109 0.000000 0.034244
#
#
# Mechanical properties :
#
#
# Convention : Reuss Voigt Hill
#
# Bulk Modulus (GPa) = 30.93584 49.01923 39.97754
# Shear Modulus (GPa) = 31.43493 38.44102 34.93798
#
# Velocity S-wave (km/s) = 3.57582 3.95428 3.76980
# Velocity P-wave (km/s) = 5.44354 6.38651 5.93379
#
# Compressibility (1/GPa) = 0.03232497
#
# Stress axis : x y z
#
# Youngs Moduli (GPa) = 43.32548 68.58891 100.47737
#
# Poissons Ratio (x) = -0.24372 0.52213
# Poissons Ratio (y) = -0.15395 0.60296
# Poissons Ratio (z) = 0.22514 0.41160
#
# Static dielectric constant tensor:
#      x y z
#    x 2.124720 0.000000 -0.003340 
#    y 0.000000 2.162440 0.000000 
#    z -0.003340 0.000000 2.004340 
# 
# From -- ./inp_files/300165.got.cif
#   From: 2010.05.17/outbox.cif.g08.bks.cpg/sg15_151_cif.got.tgz:300165.got - 2010.06.03 18:47:42.
