data_PCOD9300326
_publ_section_title
;
Structure prediction by ZEFSAII (Michael W. Deem and Ramdas Pophale) SiO2 
 PCOD9300326
Probable space group: C 2/C
;
_chemical_formula_sum "Si O2"
_cell_formula_units_Z 56
_cell_length_a 19.023690
_cell_length_b 21.934430
_cell_length_c 5.298017
_cell_angle_alpha 90.000000
_cell_angle_beta 89.426185
_cell_angle_gamma 90.000000
_cell_volume 2210.612802
_symmetry_space_group_name_H-M "C 2/C"
_symmetry_group_IT_number 15
_symmetry_cell_setting 'monoclinic'
loop_
_space_group_symop_operation_xyz
x,y,z
-x,y,1/2-z
-x,-y,-z
x,-y,1/2+z
1/2+x,1/2+y,z
1/2-x,1/2+y,1/2-z
1/2-x,1/2-y,-z
1/2+x,1/2-y,1/2+z
loop_
_atom_site_type_symbol
_atom_site_label
_atom_site_fract_x
_atom_site_fract_y
_atom_site_fract_z
Si Si1 0.324772 0.252189 0.859309
Si Si2 0.075817 0.023629 0.870075
Si Si3 0.531387 0.069528 0.996826
Si Si4 0.259325 0.958195 0.613281
Si Si5 0.165128 0.615007 0.747083
Si Si6 0.575297 0.341045 0.328801
Si Si7 0.193275 0.863076 0.947286
O O1 0.354024 0.185409 0.797493
O O2 0.305689 0.292075 0.618096
O O3 0.250000 0.250000 0.000000
O O4 0.379998 0.292778 0.016202
O O5 0.063804 0.093010 0.957957
O O6 0.000000 0.003516 0.750000
O O7 0.114514 0.010121 0.599725
O O8 0.500000 0.100376 0.750000
O O9 0.613749 0.077318 0.934371
O O10 0.500000 0.097814 0.250000
O O11 0.500000 0.000000 0.000000
O O12 0.328242 0.919111 0.522580
O O13 0.206377 0.903296 0.695673
O O14 0.256172 0.999113 0.359397
O O15 0.242724 0.619953 0.869661
O O16 0.500000 0.316109 0.250000
O O17 0.619029 0.365058 0.087139
#
# Coordination Sequence:
#
# PCOD9300326 Si02
#       7
#     8   8   8   8   8   8   8
#     4  12  26  51  80 119 164 232 298 357 434 521
#     4   9  20  41  72 106 149 203 255 319 409 493
#     4  10  26  48  79 118 168 219 276 346 436 510
#     4  12  27  45  81 126 166 209 284 353 435 522
#     4  12  27  51  85 118 170 231 290 364 435 526
#     4  11  27  50  80 120 172 222 283 366 432 519
#     4  12  26  50  81 118 163 228 289 361 428 521
#
# _framework density 25.332341
#
# number of rings (size 3 to 8) (size 9 to 14) (size 15 to 20)
#    0.000    0.857    4.286    0.429    8.000    1.714 
#    2.571    0.000    0.000    0.000    0.000    0.000 
#    0.000    0.000    0.000    0.000    0.000    0.000 
#
# Total GULP energy -156294.756672 kJ/mol
# GULP energy per Si atom -5581.955595 kJ/mol
# Density = 2.527468 g / cm^3
# Si number density = 25.332341 Si / 1000 Ang^3
#
#
#
# Elastic Constant Matrix: (Units=GPa)
#
#
# Indices 1 2 3 4 5 6 
#
# 1 150.9072 41.6737 53.4018 0.0000 -10.4538 0.0000
# 2 41.6737 183.1069 47.0910 0.0000 0.5746 0.0000
# 3 53.4018 47.0910 158.0920 0.0000 -3.1160 0.0000
# 4 0.0000 0.0000 0.0000 38.0162 0.0000 -0.6892
# 5 -10.4538 0.5746 -3.1160 0.0000 47.2215 0.0000
# 6 0.0000 0.0000 0.0000 -0.6892 0.0000 37.1783
#
#
#
# Elastic Compliance Matrix: (Units=1/GPa)
#
#
# Indices 1 2 3 4 5 6 
#
# 1 0.007876 -0.001214 -0.002267 0.000000 0.001609 0.000000
# 2 -0.001214 0.006103 -0.001416 0.000000 -0.000437 0.000000
# 3 -0.002267 -0.001416 0.007513 0.000000 0.000011 0.000000
# 4 0.000000 0.000000 0.000000 0.026313 0.000000 0.000488
# 5 0.001609 -0.000437 0.000011 0.000000 0.021539 0.000000
# 6 0.000000 0.000000 0.000000 0.000488 0.000000 0.026906
#
#
# Mechanical properties :
#
#
# Convention : Reuss Voigt Hill
#
# Bulk Modulus (GPa) = 85.49344 86.27102 85.88223
# Shear Modulus (GPa) = 45.47719 47.81253 46.64486
#
# Velocity S-wave (km/s) = 4.24160 4.34915 4.29571
# Velocity P-wave (km/s) = 7.60331 7.70388 7.65376
#
# Compressibility (1/GPa) = 0.01169680
#
# Stress axis : x y z
#
# Youngs Moduli (GPa) = 126.97486 163.84509 133.09820
#
# Poissons Ratio (x) = 0.19899 0.30171
# Poissons Ratio (y) = 0.15421 0.18852
# Poissons Ratio (z) = 0.28783 0.23206
#
# Static dielectric constant tensor:
#      x y z
#    x 3.019620 0.000000 -0.587440 
#    y 0.000000 2.317280 0.000000 
#    z -0.587440 0.000000 2.568560 
# 
# From -- ./inp_files/13727.got.cif
#   From: 2010.05.17/outbox.cif.g08.bks.cpg/sg15_7_cif.got.tgz:13727.got - 2010.06.03 18:47:42.
