data_PCOD9300175
_publ_section_title
;
Structure prediction by ZEFSAII (Michael W. Deem and Ramdas Pophale) SiO2 
 PCOD9300175
Probable space group: C 2/C
;
_chemical_formula_sum "Si O2"
_cell_formula_units_Z 36
_cell_length_a 14.235197
_cell_length_b 19.399045
_cell_length_c 8.191454
_cell_angle_alpha 90.000000
_cell_angle_beta 136.981913
_cell_angle_gamma 90.000000
_cell_volume 1543.245898
_symmetry_space_group_name_H-M "C 2/C"
_symmetry_group_IT_number 15
_symmetry_cell_setting 'monoclinic'
loop_
_space_group_symop_operation_xyz
x,y,z
-x,y,1/2-z
-x,-y,-z
x,-y,1/2+z
1/2+x,1/2+y,z
1/2-x,1/2+y,1/2-z
1/2-x,1/2-y,-z
1/2+x,1/2-y,1/2+z
loop_
_atom_site_type_symbol
_atom_site_label
_atom_site_fract_x
_atom_site_fract_y
_atom_site_fract_z
Si Si1 0.500000 0.253151 0.250000
Si Si2 0.000000 0.483263 0.750000
Si Si3 0.255231 0.587036 0.069189
Si Si4 0.381603 0.868257 0.424121
Si Si5 0.791185 0.874743 0.963445
Si Si6 0.000000 0.001120 0.250000
O O1 0.533876 0.201814 0.442427
O O2 0.624508 0.305559 0.392420
O O3 0.862726 0.528667 0.577868
O O4 0.984054 0.433390 0.570733
O O5 0.216038 0.628358 0.855115
O O6 0.236689 0.631169 0.209544
O O7 0.408169 0.553168 0.244630
O O8 0.295830 0.879534 0.481921
O O9 0.880510 0.945268 0.057465
#
# Coordination Sequence:
#
# PCOD9300175 Si02
#       6
#     4   4   8   8   8   4
#     4  10  26  46  66  98 130 184 230 272 326 382
#     4  11  24  43  68 107 138 167 216 276 338 401
#     4  12  26  41  72 105 132 172 222 270 340 400
#     4  11  25  45  69  96 139 177 220 277 327 395
#     4  11  25  45  69  96 139 177 220 277 327 395
#     4  11  24  43  68 107 138 167 216 276 338 401
#
# _framework density 23.327453999999999
#
# number of rings (size 3 to 8) (size 9 to 14) (size 15 to 20)
#    0.000    0.889    2.222    3.333   12.444    0.889 
#    0.000    2.222    0.000    0.000    0.000    0.000 
#    0.000    0.000    0.000    0.000    0.000    0.000 
#
# Total GULP energy -100370.885776 kJ/mol
# GULP energy per Si atom -5576.160321 kJ/mol
# Density = 2.327436 g / cm^3
# Si number density = 23.327454 Si / 1000 Ang^3
#
#
#
# Elastic Constant Matrix: (Units=GPa)
#
#
# Indices 1 2 3 4 5 6 
#
# 1 148.6709 51.3260 69.9219 0.0000 -15.6934 0.0000
# 2 51.3260 108.2902 34.3392 0.0000 -5.4866 0.0000
# 3 69.9219 34.3392 111.4843 0.0000 -34.8583 0.0000
# 4 0.0000 0.0000 0.0000 15.9516 0.0000 7.6874
# 5 -15.6934 -5.4866 -34.8583 0.0000 37.8435 0.0000
# 6 0.0000 0.0000 0.0000 7.6874 0.0000 29.2695
#
#
#
# Elastic Compliance Matrix: (Units=1/GPa)
#
#
# Indices 1 2 3 4 5 6 
#
# 1 0.010532 -0.003114 -0.006211 0.000000 -0.001805 0.000000
# 2 -0.003114 0.011263 -0.001980 0.000000 -0.001482 0.000000
# 3 -0.006211 -0.001980 0.017668 0.000000 0.013412 0.000000
# 4 0.000000 0.000000 0.000000 0.071774 0.000000 -0.018851
# 5 -0.001805 -0.001482 0.013412 0.000000 0.037816 0.000000
# 6 0.000000 0.000000 0.000000 -0.018851 0.000000 0.039116
#
#
# Mechanical properties :
#
#
# Convention : Reuss Voigt Hill
#
# Bulk Modulus (GPa) = 59.32835 75.51328 67.42082
# Shear Modulus (GPa) = 23.10587 30.80346 26.95466
#
# Velocity S-wave (km/s) = 3.15064 3.63778 3.40294
# Velocity P-wave (km/s) = 6.22281 7.07714 6.66368
#
# Compressibility (1/GPa) = 0.01685535
#
# Stress axis : x y z
#
# Youngs Moduli (GPa) = 94.95220 88.78702 56.59792
#
# Poissons Ratio (x) = 0.27646 0.35150
# Poissons Ratio (y) = 0.29565 0.11204
# Poissons Ratio (z) = 0.58970 0.17576
#
# Static dielectric constant tensor:
#      x y z
#    x 1.895090 0.000000 0.033300 
#    y 0.000000 1.894150 0.000000 
#    z 0.033300 0.000000 1.930500 
# 
# From -- ./inp_files/48863.got.cif
#   From: 2010.05.17/outbox.cif.g08.bks.cpg/sg15_25_cif.got.tgz:48863.got - 2010.06.03 18:47:42.
