data_PCOD9300892
_publ_section_title
;
Structure prediction by ZEFSAII (Michael W. Deem and Ramdas Pophale) SiO2 
 PCOD9300892
Probable space group: C 2/C
;
_chemical_formula_sum "Si O2"
_cell_formula_units_Z 60
_cell_length_a 32.794911
_cell_length_b 11.317210
_cell_length_c 13.065120
_cell_angle_alpha 90.000000
_cell_angle_beta 140.069515
_cell_angle_gamma 90.000000
_cell_volume 3112.418616
_symmetry_space_group_name_H-M "C 2/C"
_symmetry_group_IT_number 15
_symmetry_cell_setting 'monoclinic'
loop_
_space_group_symop_operation_xyz
x,y,z
-x,y,1/2-z
-x,-y,-z
x,-y,1/2+z
1/2+x,1/2+y,z
1/2-x,1/2+y,1/2-z
1/2-x,1/2-y,-z
1/2+x,1/2-y,1/2+z
loop_
_atom_site_type_symbol
_atom_site_label
_atom_site_fract_x
_atom_site_fract_y
_atom_site_fract_z
Si Si1 0.891934 0.675470 0.673678
Si Si2 0.267954 0.975125 0.917893
Si Si3 0.916342 0.472457 0.423281
Si Si4 0.313814 0.397918 0.565246
Si Si5 0.000000 0.570502 0.750000
Si Si6 0.704061 0.851502 0.205800
Si Si7 0.670794 0.162265 0.308934
Si Si8 0.801638 0.158209 0.466212
O O1 0.825081 0.616233 0.510927
O O2 0.918156 0.607182 0.825079
O O3 0.872191 0.809074 0.663202
O O4 0.942905 0.650574 0.683523
O O5 0.206020 0.924007 0.855178
O O6 0.261170 0.059957 0.807584
O O7 0.297429 0.061159 0.060362
O O8 0.858951 0.417269 0.378420
O O9 0.894450 0.605822 0.352418
O O10 0.976275 0.487229 0.611653
O O11 0.250971 0.340100 0.392013
O O12 0.321126 0.523086 0.520424
O O13 0.684537 0.731648 0.109627
O O14 0.724880 0.175869 0.327610
O O15 0.668698 0.274201 0.378569
#
# Coordination Sequence:
#
# PCOD9300892 Si02
#       8
#     8   8   8   8   4   8   8   8
#     4  11  23  40  60  90 122 161 211 259 306 364
#     4   9  18  35  55  89 125 154 192 252 314 361
#     4  11  22  40  62  92 121 157 211 268 304 353
#     4  11  22  35  59  92 134 162 196 252 321 379
#     4  12  26  42  66  86 120 172 218 256 308 354
#     4  11  20  31  61  93 131 157 199 255 315 377
#     4   8  16  34  54  82 124 153 195 246 301 371
#     4   9  18  32  53  90 125 164 188 235 324 379
#
# _framework density 19.277612999999999
#
# number of rings (size 3 to 8) (size 9 to 14) (size 15 to 20)
#    0.000    1.867    5.333    1.600    3.733    0.000 
#    0.000    0.000    0.000    1.600    0.000    0.000 
#    0.000    0.000    0.000    0.000    0.000    0.000 
#
# Total GULP energy -167322.157208 kJ/mol
# GULP energy per Si atom -5577.405240 kJ/mol
# Density = 1.923374 g / cm^3
# Si number density = 19.277613 Si / 1000 Ang^3
#
#
#
# Elastic Constant Matrix: (Units=GPa)
#
#
# Indices 1 2 3 4 5 6 
#
# 1 88.4207 42.1695 3.5386 0.0000 -10.2453 0.0000
# 2 42.1695 121.7838 27.1691 0.0000 0.7367 0.0000
# 3 3.5386 27.1691 69.6120 0.0000 -9.9392 0.0000
# 4 0.0000 0.0000 0.0000 21.3972 0.0000 -4.8319
# 5 -10.2453 0.7367 -9.9392 0.0000 20.3495 0.0000
# 6 0.0000 0.0000 0.0000 -4.8319 0.0000 26.0470
#
#
#
# Elastic Compliance Matrix: (Units=1/GPa)
#
#
# Indices 1 2 3 4 5 6 
#
# 1 0.015083 -0.005915 0.002856 0.000000 0.009203 0.000000
# 2 -0.005915 0.011406 -0.004983 0.000000 -0.005825 0.000000
# 3 0.002856 -0.004983 0.017625 0.000000 0.010227 0.000000
# 4 0.000000 0.000000 0.000000 0.048778 0.000000 0.009049
# 5 0.009203 -0.005825 0.010227 0.000000 0.058980 0.000000
# 6 0.000000 0.000000 0.000000 0.009049 0.000000 0.040071
#
#
# Mechanical properties :
#
#
# Convention : Reuss Voigt Hill
#
# Bulk Modulus (GPa) = 35.67630 47.28564 41.48097
# Shear Modulus (GPa) = 23.00208 27.35473 25.17840
#
# Velocity S-wave (km/s) = 3.45802 3.77103 3.61792
# Velocity P-wave (km/s) = 5.87288 6.59871 6.24634
#
# Compressibility (1/GPa) = 0.02802981
#
# Stress axis : x y z
#
# Youngs Moduli (GPa) = 66.30078 87.66964 56.73723
#
# Poissons Ratio (x) = 0.51861 -0.16204
# Poissons Ratio (y) = 0.39220 0.28271
# Poissons Ratio (z) = -0.18936 0.43684
#
# Static dielectric constant tensor:
#      x y z
#    x 1.708500 0.000000 -0.045000 
#    y 0.000000 1.737260 0.000000 
#    z -0.045000 0.000000 1.714540 
# 
# From -- ./inp_files/126457.got.cif
#   From: 2010.05.17/outbox.cif.g08.bks.cpg/sg15_64_cif.got.tgz:126457.got - 2010.06.03 18:47:42.
