data_PCOD9300606
_publ_section_title
;
Structure prediction by ZEFSAII (Michael W. Deem and Ramdas Pophale) SiO2 
 PCOD9300606
Probable space group: C 2/C
;
_chemical_formula_sum "Si O2"
_cell_formula_units_Z 56
_cell_length_a 11.742794
_cell_length_b 16.856878
_cell_length_c 13.971282
_cell_angle_alpha 90.000000
_cell_angle_beta 116.351918
_cell_angle_gamma 90.000000
_cell_volume 2478.185705
_symmetry_space_group_name_H-M "C 2/C"
_symmetry_group_IT_number 15
_symmetry_cell_setting 'monoclinic'
loop_
_space_group_symop_operation_xyz
x,y,z
-x,y,1/2-z
-x,-y,-z
x,-y,1/2+z
1/2+x,1/2+y,z
1/2-x,1/2+y,1/2-z
1/2-x,1/2-y,-z
1/2+x,1/2-y,1/2+z
loop_
_atom_site_type_symbol
_atom_site_label
_atom_site_fract_x
_atom_site_fract_y
_atom_site_fract_z
Si Si1 0.289384 0.438146 0.426548
Si Si2 0.486330 0.911158 0.106939
Si Si3 0.624115 0.502597 0.337905
Si Si4 0.293151 0.215723 0.115729
Si Si5 0.489900 0.100009 0.382273
Si Si6 0.784481 0.095646 0.296442
Si Si7 0.761195 0.134428 0.728017
O O1 0.159750 0.398917 0.417290
O O2 0.366960 0.466731 0.550267
O O3 0.269209 0.518564 0.357412
O O4 0.334221 0.382325 0.355411
O O5 0.609156 0.865897 0.195300
O O6 0.499246 0.005624 0.133146
O O7 0.495561 0.893406 0.998087
O O8 0.500000 0.459429 0.250000
O O9 0.635592 0.574181 0.266354
O O10 0.731235 0.439423 0.345898
O O11 0.405106 0.154200 0.129176
O O12 0.177412 0.165911 0.119793
O O13 0.314847 0.288951 0.195063
O O14 0.250000 0.250000 0.000000
O O15 0.350455 0.122712 0.295609
#
# Coordination Sequence:
#
# PCOD9300606 Si02
#       7
#     8   8   8   8   8   8   8
#     4  11  21  40  71  99 129 170 241 299 323 408
#     4  11  18  38  70 106 128 170 232 294 333 406
#     4  11  24  44  65  90 131 185 235 281 337 428
#     4  12  24  40  60 100 143 174 207 291 360 412
#     4  11  20  36  68  99 135 172 226 285 346 407
#     4  11  23  40  66  96 126 177 234 280 346 407
#     4  11  24  39  65 107 140 173 226 288 361 402
#
# _framework density 22.597176999999999
#
# number of rings (size 3 to 8) (size 9 to 14) (size 15 to 20)
#    0.000    0.857    7.143    2.571    0.000    3.429 
#    0.000    5.000    0.000    0.000    0.000    0.000 
#    0.000    0.000    0.000    0.000    0.000    0.000 
#
# Total GULP energy -156100.624955 kJ/mol
# GULP energy per Si atom -5575.022320 kJ/mol
# Density = 2.254575 g / cm^3
# Si number density = 22.597177 Si / 1000 Ang^3
#
#
#
# Elastic Constant Matrix: (Units=GPa)
#
#
# Indices 1 2 3 4 5 6 
#
# 1 66.0276 36.1012 44.4196 0.0000 -14.9717 0.0000
# 2 36.1012 89.3891 31.3124 0.0000 -26.7111 0.0000
# 3 44.4196 31.3124 151.0202 0.0000 -34.0287 0.0000
# 4 0.0000 0.0000 0.0000 29.6174 0.0000 -17.3715
# 5 -14.9717 -26.7111 -34.0287 0.0000 41.0653 0.0000
# 6 0.0000 0.0000 0.0000 -17.3715 0.0000 38.5805
#
#
#
# Elastic Compliance Matrix: (Units=1/GPa)
#
#
# Indices 1 2 3 4 5 6 
#
# 1 0.022640 -0.007608 -0.005333 0.000000 -0.001114 0.000000
# 2 -0.007608 0.016576 0.000744 0.000000 0.008625 0.000000
# 3 -0.005333 0.000744 0.009476 0.000000 0.006392 0.000000
# 4 0.000000 0.000000 0.000000 0.045881 0.000000 0.020659
# 5 -0.001114 0.008625 0.006392 0.000000 0.034853 0.000000
# 6 0.000000 0.000000 0.000000 0.020659 0.000000 0.035222
#
#
# Mechanical properties :
#
#
# Convention : Reuss Voigt Hill
#
# Bulk Modulus (GPa) = 41.15291 58.90038 50.02664
# Shear Modulus (GPa) = 25.36257 34.82619 30.09438
#
# Velocity S-wave (km/s) = 3.35383 3.93004 3.65331
# Velocity P-wave (km/s) = 5.76616 6.83488 6.32314
#
# Compressibility (1/GPa) = 0.02429962
#
# Stress axis : x y z
#
# Youngs Moduli (GPa) = 44.16950 60.32667 105.52840
#
# Poissons Ratio (x) = 0.45899 0.56273
# Poissons Ratio (y) = 0.33606 -0.07855
# Poissons Ratio (z) = 0.23553 -0.04491
#
# Static dielectric constant tensor:
#      x y z
#    x 1.976640 0.000000 0.014020 
#    y 0.000000 1.909770 0.000000 
#    z 0.014020 0.000000 1.914840 
# 
# From -- ./inp_files/146152.got.cif
#   From: 2010.05.17/outbox.cif.g08.bks.cpg/sg15_74_cif.got.tgz:146152.got - 2010.06.03 18:47:42.
