data_PCOD9300890
_publ_section_title
;
Structure prediction by ZEFSAII (Michael W. Deem and Ramdas Pophale) SiO2 
 PCOD9300890
Probable space group: C 2/C
;
_chemical_formula_sum "Si O2"
_cell_formula_units_Z 56
_cell_length_a 18.252650
_cell_length_b 18.632771
_cell_length_c 11.801650
_cell_angle_alpha 90.000000
_cell_angle_beta 127.471094
_cell_angle_gamma 90.000000
_cell_volume 3185.523361
_symmetry_space_group_name_H-M "C 2/C"
_symmetry_group_IT_number 15
_symmetry_cell_setting 'monoclinic'
loop_
_space_group_symop_operation_xyz
x,y,z
-x,y,1/2-z
-x,-y,-z
x,-y,1/2+z
1/2+x,1/2+y,z
1/2-x,1/2+y,1/2-z
1/2-x,1/2-y,-z
1/2+x,1/2-y,1/2+z
loop_
_atom_site_type_symbol
_atom_site_label
_atom_site_fract_x
_atom_site_fract_y
_atom_site_fract_z
Si Si1 0.467573 0.295873 0.437609
Si Si2 0.272590 0.657142 0.108439
Si Si3 0.310426 0.655459 0.626887
Si Si4 0.597995 0.240796 0.900303
Si Si5 0.342505 0.512871 0.126609
Si Si6 0.528667 0.553046 0.430227
Si Si7 0.681083 0.271007 0.605886
O O1 0.405749 0.313588 0.270123
O O2 0.417750 0.244089 0.479889
O O3 0.472166 0.368325 0.517096
O O4 0.569880 0.268318 0.507636
O O5 0.358736 0.687019 0.114515
O O6 0.271548 0.571457 0.105142
O O7 0.285931 0.692106 0.245582
O O8 0.180144 0.684726 0.960803
O O9 0.318614 0.568949 0.633557
O O10 0.297275 0.681021 0.484944
O O11 0.231290 0.694776 0.627830
O O12 0.500000 0.226478 0.750000
O O13 0.438734 0.541020 0.268679
O O14 0.372086 0.526450 0.023770
O O15 0.500000 0.500000 0.500000
#
# Coordination Sequence:
#
# PCOD9300890 Si02
#       7
#     8   8   8   8   8   8   8
#     4  12  20  37  60  85 117 154 193 244 291 357
#     4  11  22  37  61  88 118 152 196 248 305 344
#     4  11  25  38  56  85 123 161 197 232 297 353
#     4  11  21  38  60  86 115 150 197 245 297 351
#     4  11  22  35  54  89 122 149 186 244 304 361
#     4  11  20  31  53  87 120 146 180 234 310 363
#     4  11  23  39  56  85 118 160 202 235 279 362
#
# _framework density 17.579529999999998
#
# number of rings (size 3 to 8) (size 9 to 14) (size 15 to 20)
#    0.000    0.857    7.143    1.286    2.000    0.000 
#    0.000    0.000    0.000    4.286    0.000    0.000 
#    0.000    0.000    0.000    0.000    0.000    0.000 
#
# Total GULP energy -155918.871168 kJ/mol
# GULP energy per Si atom -5568.531113 kJ/mol
# Density = 1.753952 g / cm^3
# Si number density = 17.579530 Si / 1000 Ang^3
#
#
#
# Elastic Constant Matrix: (Units=GPa)
#
#
# Indices 1 2 3 4 5 6 
#
# 1 93.8712 37.3438 22.8486 0.0000 7.5730 0.0000
# 2 37.3438 85.1102 22.0357 0.0000 18.0745 0.0000
# 3 22.8486 22.0357 63.0036 0.0000 16.4994 0.0000
# 4 0.0000 0.0000 0.0000 12.2186 0.0000 -8.6536
# 5 7.5730 18.0745 16.4994 0.0000 31.2505 0.0000
# 6 0.0000 0.0000 0.0000 -8.6536 0.0000 10.6071
#
#
#
# Elastic Compliance Matrix: (Units=1/GPa)
#
#
# Indices 1 2 3 4 5 6 
#
# 1 0.013500 -0.005384 -0.003448 0.000000 0.001663 0.000000
# 2 -0.005384 0.016078 -0.001830 0.000000 -0.007028 0.000000
# 3 -0.003448 -0.001830 0.020037 0.000000 -0.008685 0.000000
# 4 0.000000 0.000000 0.000000 0.193847 0.000000 0.158148
# 5 0.001663 -0.007028 -0.008685 0.000000 0.040247 0.000000
# 6 0.000000 0.000000 0.000000 0.158148 0.000000 0.223299
#
#
# Mechanical properties :
#
#
# Convention : Reuss Voigt Hill
#
# Bulk Modulus (GPa) = 35.34775 45.16013 40.25394
# Shear Modulus (GPa) = 9.29777 21.46569 15.38173
#
# Velocity S-wave (km/s) = 2.30227 3.49816 2.96121
# Velocity P-wave (km/s) = 5.21711 6.48544 5.88554
#
# Compressibility (1/GPa) = 0.02829034
#
# Stress axis : x y z
#
# Youngs Moduli (GPa) = 74.07515 62.19633 49.90710
#
# Poissons Ratio (x) = 0.33484 0.17209
# Poissons Ratio (y) = 0.39880 0.09135
# Poissons Ratio (z) = 0.25543 0.11385
#
# Static dielectric constant tensor:
#      x y z
#    x 2.485080 0.000000 -1.004160 
#    y 0.000000 1.424650 0.000000 
#    z -1.004160 0.000000 2.729980 
# 
# From -- ./inp_files/106330.got.cif
#   From: 2010.05.17/outbox.cif.g08.bks.cpg/sg15_54_cif.got.tgz:106330.got - 2010.06.03 18:47:42.
