data_PCOD9300462
_publ_section_title
;
Structure prediction by ZEFSAII (Michael W. Deem and Ramdas Pophale) SiO2 
 PCOD9300462
Probable space group: C 2/C
;
_chemical_formula_sum "Si O2"
_cell_formula_units_Z 36
_cell_length_a 19.965625
_cell_length_b 9.782003
_cell_length_c 16.113655
_cell_angle_alpha 90.000000
_cell_angle_beta 28.234310
_cell_angle_gamma 90.000000
_cell_volume 1488.805293
_symmetry_space_group_name_H-M "C 2/C"
_symmetry_group_IT_number 15
_symmetry_cell_setting 'monoclinic'
loop_
_space_group_symop_operation_xyz
x,y,z
-x,y,1/2-z
-x,-y,-z
x,-y,1/2+z
1/2+x,1/2+y,z
1/2-x,1/2+y,1/2-z
1/2-x,1/2-y,-z
1/2+x,1/2-y,1/2+z
loop_
_atom_site_type_symbol
_atom_site_label
_atom_site_fract_x
_atom_site_fract_y
_atom_site_fract_z
Si Si1 0.142586 0.809667 0.443808
Si Si2 0.250000 0.250000 0.000000
Si Si3 0.397291 0.399581 0.438925
Si Si4 0.936896 0.671752 0.535740
Si Si5 0.590045 0.980344 0.731283
O O1 0.185795 0.719258 0.476005
O O2 0.282608 0.856530 0.241547
O O3 0.041081 0.733627 0.490981
O O4 0.073526 0.946368 0.558787
O O5 0.146645 0.367101 0.153334
O O6 0.500000 0.378136 0.250000
O O7 0.418570 0.292605 0.488178
O O8 0.236079 0.396994 0.583060
O O9 0.002616 0.548936 0.410149
O O10 0.500000 0.937201 0.750000
#
# Coordination Sequence:
#
# PCOD9300462 Si02
#       5
#     8   4   8   8   8
#     4  11  28  47  79 114 162 210 268 332 392 475
#     4  10  28  48  72 116 154 204 262 324 396 462
#     4  11  27  49  75 116 163 208 264 330 400 472
#     4  12  26  51  79 117 159 210 273 326 397 468
#     4  11  27  49  83 112 159 212 257 331 395 482
#
# _framework density 24.180461999999999
#
# number of rings (size 3 to 8) (size 9 to 14) (size 15 to 20)
#    0.000    0.889    2.222    1.333   15.556    8.000 
#    0.000    0.000    0.000    0.000    0.000    0.000 
#    0.000    0.000    0.000    0.000    0.000    0.000 
#
# Total GULP energy -100444.838668 kJ/mol
# GULP energy per Si atom -5580.268815 kJ/mol
# Density = 2.412543 g / cm^3
# Si number density = 24.180462 Si / 1000 Ang^3
#
#
#
# Elastic Constant Matrix: (Units=GPa)
#
#
# Indices 1 2 3 4 5 6 
#
# 1 234.7596 55.6667 60.3260 0.0000 7.7040 0.0000
# 2 55.6667 80.3358 38.7150 0.0000 3.6029 0.0000
# 3 60.3260 38.7150 125.4966 0.0000 19.0357 0.0000
# 4 0.0000 0.0000 0.0000 51.5233 0.0000 21.7264
# 5 7.7040 3.6029 19.0357 0.0000 47.4257 0.0000
# 6 0.0000 0.0000 0.0000 21.7264 0.0000 21.3840
#
#
#
# Elastic Compliance Matrix: (Units=1/GPa)
#
#
# Indices 1 2 3 4 5 6 
#
# 1 0.005386 -0.002917 -0.001693 0.000000 0.000026 0.000000
# 2 -0.002917 0.016226 -0.003715 0.000000 0.000732 0.000000
# 3 -0.001693 -0.003715 0.010482 0.000000 -0.003650 0.000000
# 4 0.000000 0.000000 0.000000 0.033957 0.000000 -0.034501
# 5 0.000026 0.000732 -0.003650 0.000000 0.022491 0.000000
# 6 0.000000 0.000000 0.000000 -0.034501 0.000000 0.081817
#
#
# Mechanical properties :
#
#
# Convention : Reuss Voigt Hill
#
# Bulk Modulus (GPa) = 64.74811 83.33417 74.04114
# Shear Modulus (GPa) = 26.02055 43.12555 34.57305
#
# Velocity S-wave (km/s) = 3.28395 4.22772 3.78536
# Velocity P-wave (km/s) = 6.41984 7.64001 7.05634
#
# Compressibility (1/GPa) = 0.01544447
#
# Stress axis : x y z
#
# Youngs Moduli (GPa) = 185.68198 61.62809 95.40481
#
# Poissons Ratio (x) = 0.17978 0.16151
# Poissons Ratio (y) = 0.54166 0.35438
# Poissons Ratio (z) = 0.31434 0.22892
#
# Static dielectric constant tensor:
#      x y z
#    x 1.610000 0.000000 -0.036500 
#    y 0.000000 1.976670 0.000000 
#    z -0.036500 0.000000 1.880160 
# 
# From -- ./inp_files/167486.got.cif
#   From: 2010.05.17/outbox.cif.g08.bks.cpg/sg15_84_cif.got.tgz:167486.got - 2010.06.03 18:47:42.
