data_PCOD9300021
_publ_section_title
;
Structure prediction by ZEFSAII (Michael W. Deem and Ramdas Pophale) SiO2 
 PCOD9300021
Probable space group: C 2/C
;
_chemical_formula_sum "Si O2"
_cell_formula_units_Z 44
_cell_length_a 7.449045
_cell_length_b 22.427267
_cell_length_c 15.025572
_cell_angle_alpha 90.000000
_cell_angle_beta 65.570463
_cell_angle_gamma 90.000000
_cell_volume 2285.461348
_symmetry_space_group_name_H-M "C 2/C"
_symmetry_group_IT_number 15
_symmetry_cell_setting 'monoclinic'
loop_
_space_group_symop_operation_xyz
x,y,z
-x,y,1/2-z
-x,-y,-z
x,-y,1/2+z
1/2+x,1/2+y,z
1/2-x,1/2+y,1/2-z
1/2-x,1/2-y,-z
1/2+x,1/2-y,1/2+z
loop_
_atom_site_type_symbol
_atom_site_label
_atom_site_fract_x
_atom_site_fract_y
_atom_site_fract_z
Si Si1 0.333242 0.066149 0.707850
Si Si2 0.232136 0.679004 0.676205
Si Si3 0.618505 0.126183 0.514920
Si Si4 0.214853 0.064389 0.183417
Si Si5 0.940923 0.278254 0.915362
Si Si6 0.000000 0.360066 0.750000
O O1 0.500000 0.053853 0.750000
O O2 0.214962 0.121887 0.773500
O O3 0.441823 0.090719 0.598289
O O4 0.228363 0.005222 0.704568
O O5 0.231470 0.656107 0.574423
O O6 0.390917 0.731344 0.649872
O O7 0.000000 0.693956 0.750000
O O8 0.736150 0.080489 0.428361
O O9 0.539988 0.178120 0.467287
O O10 0.366441 0.098857 0.215571
O O11 0.000000 0.087599 0.250000
O O12 0.882121 0.317473 0.841768
O O13 0.750000 0.250000 0.000000
#
# Coordination Sequence:
#
# PCOD9300021 Si02
#       6
#     8   8   8   8   8   4
#     4   9  19  40  64  86 125 158 207 264 305 366
#     4   9  21  40  64  90 123 166 206 256 312 375
#     4   9  21  39  60  91 120 164 202 256 315 369
#     4  11  22  39  65  89 125 168 206 257 314 372
#     4  11  24  37  63  89 128 163 205 265 304 374
#     4  10  26  42  56  94 134 158 204 268 302 372
#
# _framework density 19.252130000000001
#
# number of rings (size 3 to 8) (size 9 to 14) (size 15 to 20)
#    0.000    2.545    0.909    1.091    7.636    4.364 
#    0.000    3.636    0.000    0.000    0.000    0.000 
#    0.000    0.000    0.000    0.000    0.000    0.000 
#
# Total GULP energy -122699.031031 kJ/mol
# GULP energy per Si atom -5577.228683 kJ/mol
# Density = 1.920831 g / cm^3
# Si number density = 19.252130 Si / 1000 Ang^3
#
#
#
# Elastic Constant Matrix: (Units=GPa)
#
#
# Indices 1 2 3 4 5 6 
#
# 1 33.3894 27.2626 21.4720 0.0000 -8.3815 0.0000
# 2 27.2626 94.8203 50.6182 0.0000 -10.6341 0.0000
# 3 21.4720 50.6182 129.4301 0.0000 6.7474 0.0000
# 4 0.0000 0.0000 0.0000 14.5905 0.0000 -0.3646
# 5 -8.3815 -10.6341 6.7474 0.0000 20.1469 0.0000
# 6 0.0000 0.0000 0.0000 -0.3646 0.0000 -27.2725
#
#
#
# Elastic Compliance Matrix: (Units=1/GPa)
#
#
# Indices 1 2 3 4 5 6 
#
# 1 0.043656 -0.008249 -0.004820 0.000000 0.015422 0.000000
# 2 -0.008249 0.016682 -0.005532 0.000000 0.007226 0.000000
# 3 -0.004820 -0.005532 0.011141 0.000000 -0.008656 0.000000
# 4 0.000000 0.000000 0.000000 0.068515 0.000000 -0.000916
# 5 0.015422 0.007226 -0.008656 0.000000 0.062765 0.000000
# 6 0.000000 0.000000 0.000000 -0.000916 0.000000 -0.036655
#
#
# Mechanical properties :
#
#
# Convention : Reuss Voigt Hill
#
# Bulk Modulus (GPa) = 29.17541 50.70503 39.94022
# Shear Modulus (GPa) = 23.28486 12.04544 17.66515
#
# Velocity S-wave (km/s) = 3.48152 2.50405 3.03243
# Velocity P-wave (km/s) = 5.59898 5.89533 5.74906
#
# Compressibility (1/GPa) = 0.03427544
#
# Stress axis : x y z
#
# Youngs Moduli (GPa) = 22.90620 59.94591 89.76121
#
# Poissons Ratio (x) = 0.49450 0.43268
# Poissons Ratio (y) = 0.18896 0.49657
# Poissons Ratio (z) = 0.11041 0.33163
#
# Static dielectric constant tensor:
#      x y z
#    x 1.676080 0.000000 -0.014010 
#    y 0.000000 1.681340 0.000000 
#    z -0.014010 0.000000 1.677750 
# 
# From -- ./inp_files/135815.got.cif
#   From: 2010.05.17/outbox.cif.g08.bks.cpg/sg15_68_cif.got.tgz:135815.got - 2010.06.03 18:47:42.
