data_PCOD9300683
_publ_section_title
;
Structure prediction by ZEFSAII (Michael W. Deem and Ramdas Pophale) SiO2 
 PCOD9300683
Probable space group: C 2/C
;
_chemical_formula_sum "Si O2"
_cell_formula_units_Z 64
_cell_length_a 18.490876
_cell_length_b 15.356566
_cell_length_c 26.053265
_cell_angle_alpha 90.000000
_cell_angle_beta 158.578055
_cell_angle_gamma 90.000000
_cell_volume 2701.992857
_symmetry_space_group_name_H-M "C 2/C"
_symmetry_group_IT_number 15
_symmetry_cell_setting 'monoclinic'
loop_
_space_group_symop_operation_xyz
x,y,z
-x,y,1/2-z
-x,-y,-z
x,-y,1/2+z
1/2+x,1/2+y,z
1/2-x,1/2+y,1/2-z
1/2-x,1/2-y,-z
1/2+x,1/2-y,1/2+z
loop_
_atom_site_type_symbol
_atom_site_label
_atom_site_fract_x
_atom_site_fract_y
_atom_site_fract_z
Si Si1 0.786354 0.582226 0.238221
Si Si2 0.366804 0.825695 0.547694
Si Si3 0.850853 0.750494 0.924166
Si Si4 0.115202 0.104902 0.629037
Si Si5 0.087514 0.228365 0.182304
Si Si6 0.033229 0.108644 0.693922
Si Si7 0.630505 0.000003 0.034610
Si Si8 0.194148 0.693026 0.073708
O O1 0.683782 0.490699 0.156069
O O2 0.672659 0.649423 0.202085
O O3 0.927028 0.639209 0.293118
O O4 0.979024 0.547956 0.397458
O O5 0.250000 0.750000 0.500000
O O6 0.400296 0.780967 0.514537
O O7 0.189572 0.895559 0.433720
O O8 0.645206 0.700602 0.777875
O O9 0.933888 0.850773 0.977758
O O10 0.004655 0.705533 0.986622
O O11 0.285320 0.180716 0.740641
O O12 0.048056 0.091695 0.643219
O O13 0.123503 0.207913 0.266442
O O14 0.867690 0.245939 0.014791
O O15 0.168856 0.043169 0.814320
O O16 0.684973 0.094419 0.050050
O O17 0.500000 0.000000 0.000000
#
# Coordination Sequence:
#
# PCOD9300683 Si02
#       8
#     8   8   8   8   8   8   8   8
#     4  12  21  35  58  86 121 165 211 257 314 382
#     4  12  23  36  54  88 132 162 191 256 343 386
#     4  11  20  35  51  83 117 164 196 245 319 379
#     4  11  20  35  58  80 118 162 211 259 302 381
#     4  11  19  35  55  86 120 157 204 267 321 362
#     4  12  20  33  56  84 122 153 205 262 318 385
#     4  12  16  32  55  84 110 154 215 267 303 362
#     4  11  20  33  59  83 120 157 208 268 315 363
#
# _framework density 23.686219999999999
#
# number of rings (size 3 to 8) (size 9 to 14) (size 15 to 20)
#    0.000    0.500   11.250    0.375    0.000    0.000 
#    0.000    2.500    0.000    0.000    0.000    7.875 
#    7.500    0.000    0.000    0.000    0.000    0.000 
#
# Total GULP energy -178447.048286 kJ/mol
# GULP energy per Si atom -5576.470259 kJ/mol
# Density = 2.363231 g / cm^3
# Si number density = 23.686220 Si / 1000 Ang^3
#
#
#
# Elastic Constant Matrix: (Units=GPa)
#
#
# Indices 1 2 3 4 5 6 
#
# 1 7.8294 -12.3255 -15.2479 -0.0067 1.6061 -0.0013
# 2 -12.3255 160.0990 32.3792 0.0064 14.9194 0.0055
# 3 -15.2479 32.3792 108.8737 0.0053 11.5031 0.0073
# 4 -0.0067 0.0064 0.0053 41.1839 0.0049 -4.4330
# 5 1.6061 14.9194 11.5031 0.0049 17.0438 0.0008
# 6 -0.0013 0.0055 0.0073 -4.4330 0.0008 13.4871
#
#
#
# Elastic Compliance Matrix: (Units=1/GPa)
#
#
# Indices 1 2 3 4 5 6 
#
# 1 0.231574 0.016503 0.033764 0.000039 -0.059056 0.000014
# 2 0.016503 0.008213 0.000854 0.000002 -0.009320 -0.000001
# 3 0.033764 0.000854 0.015156 0.000005 -0.014158 -0.000003
# 4 0.000039 0.000002 0.000005 0.025172 -0.000016 0.008274
# 5 -0.059056 -0.009320 -0.014158 -0.000016 0.081951 -0.000005
# 6 0.000014 -0.000001 -0.000003 0.008274 -0.000005 0.076864
#
#
# Mechanical properties :
#
#
# Convention : Reuss Voigt Hill
#
# Bulk Modulus (GPa) = 2.79969 31.82376 17.31172
# Shear Modulus (GPa) = 10.97095 32.47605 21.72350
#
# Velocity S-wave (km/s) = 2.15449 3.70685 3.03171
# Velocity P-wave (km/s) = 2.71545 5.63788 4.42489
#
# Compressibility (1/GPa) = 0.35718225
#
# Stress axis : x y z
#
# Youngs Moduli (GPa) = 4.31828 121.76512 65.98220
#
# Poissons Ratio (x) = -2.00947 -2.22781
# Poissons Ratio (y) = -0.07126 -0.05632
# Poissons Ratio (z) = -0.14580 -0.10393
#
# Static dielectric constant tensor:
#      x y z
#    x 1.961620 -0.000390 0.065790 
#    y -0.000390 1.018460 -0.000120 
#    z 0.065790 -0.000120 2.164960 
# 
# From -- ./inp_files/318031.got.cif
#   From: 2010.05.17/outbox.cif.g08.bks.cpg/sg15_160_cif.got.tgz:318031.got - 2010.06.03 18:47:42.
