data_PCOD9300009
_publ_section_title
;
Structure prediction by ZEFSAII (Michael W. Deem and Ramdas Pophale) SiO2 
 PCOD9300009
Probable space group: C 2/C
;
_chemical_formula_sum "Si O2"
_cell_formula_units_Z 52
_cell_length_a 19.053518
_cell_length_b 6.548215
_cell_length_c 17.371295
_cell_angle_alpha 90.000000
_cell_angle_beta 114.094014
_cell_angle_gamma 90.000000
_cell_volume 1978.529300
_symmetry_space_group_name_H-M "C 2/C"
_symmetry_group_IT_number 15
_symmetry_cell_setting 'monoclinic'
loop_
_space_group_symop_operation_xyz
x,y,z
-x,y,1/2-z
-x,-y,-z
x,-y,1/2+z
1/2+x,1/2+y,z
1/2-x,1/2+y,1/2-z
1/2-x,1/2-y,-z
1/2+x,1/2-y,1/2+z
loop_
_atom_site_type_symbol
_atom_site_label
_atom_site_fract_x
_atom_site_fract_y
_atom_site_fract_z
Si Si1 0.268081 0.938788 0.065012
Si Si2 0.770487 0.689450 0.308133
Si Si3 0.516801 0.670428 0.068404
Si Si4 0.685929 0.237775 0.615359
Si Si5 0.000000 0.097546 0.250000
Si Si6 0.936975 0.463442 0.121563
Si Si7 0.066400 0.811487 0.195491
O O1 0.268587 0.842740 0.150538
O O2 0.350470 0.036172 0.084168
O O3 0.207570 0.120457 0.053199
O O4 0.250000 0.750000 0.000000
O O5 0.779264 0.485277 0.362048
O O6 0.855095 0.754505 0.312663
O O7 0.783835 0.167067 0.290060
O O8 0.595099 0.776601 0.081710
O O9 0.451167 0.833356 0.050160
O O10 0.531175 0.536300 0.152544
O O11 0.500000 0.500000 0.000000
O O12 0.069293 0.905166 0.281705
O O13 0.055456 0.284251 0.311389
O O14 0.006956 0.625399 0.157754
#
# Coordination Sequence:
#
# PCOD9300009 Si02
#       7
#     8   8   8   8   4   8   8
#     4  12  29  48  70 108 154 187 236 304 372 428
#     4  12  26  45  78 106 144 192 247 298 367 433
#     4  11  24  45  70  99 138 186 240 291 354 435
#     4  12  25  45  75 107 140 188 247 297 358 437
#     4  10  26  40  70 104 142 172 244 298 358 410
#     4  11  26  42  70 103 141 182 235 293 359 424
#     4  11  24  44  72 103 139 185 239 299 357 431
#
# _framework density 26.282146999999998
#
# number of rings (size 3 to 8) (size 9 to 14) (size 15 to 20)
#    0.000    0.615    4.615    1.385   10.769    3.692 
#    0.000    0.000    0.000    0.000    0.000    0.000 
#    0.000    0.000    0.000    0.000    0.000    0.000 
#
# Total GULP energy -145045.780284 kJ/mol
# GULP energy per Si atom -5578.683857 kJ/mol
# Density = 2.622233 g / cm^3
# Si number density = 26.282147 Si / 1000 Ang^3
#
#
#
# Elastic Constant Matrix: (Units=GPa)
#
#
# Indices 1 2 3 4 5 6 
#
# 1 145.5282 33.2532 15.6035 0.0000 -12.3074 0.0000
# 2 33.2532 106.9682 15.0289 0.0000 -10.2992 0.0000
# 3 15.6035 15.0289 50.9623 0.0000 -2.9989 0.0000
# 4 0.0000 0.0000 0.0000 58.3714 0.0000 -9.1279
# 5 -12.3074 -10.2992 -2.9989 0.0000 19.8546 0.0000
# 6 0.0000 0.0000 0.0000 -9.1279 0.0000 56.1759
#
#
#
# Elastic Compliance Matrix: (Units=1/GPa)
#
#
# Indices 1 2 3 4 5 6 
#
# 1 0.007772 -0.001840 -0.001624 0.000000 0.003618 0.000000
# 2 -0.001840 0.010636 -0.002337 0.000000 0.004024 0.000000
# 3 -0.001624 -0.002337 0.020864 0.000000 0.000932 0.000000
# 4 0.000000 0.000000 0.000000 0.017578 0.000000 0.002856
# 5 0.003618 0.004024 0.000932 0.000000 0.054837 0.000000
# 6 0.000000 0.000000 0.000000 0.002856 0.000000 0.018265
#
#
# Mechanical properties :
#
#
# Convention : Reuss Voigt Hill
#
# Bulk Modulus (GPa) = 36.13879 47.91441 42.02660
# Shear Modulus (GPa) = 33.16152 42.85191 38.00672
#
# Velocity S-wave (km/s) = 3.55597 4.04227 3.80689
# Velocity P-wave (km/s) = 5.53534 6.32906 5.94546
#
# Compressibility (1/GPa) = 0.02767110
#
# Stress axis : x y z
#
# Youngs Moduli (GPa) = 128.66725 94.01881 47.93037
#
# Poissons Ratio (x) = 0.17295 0.07785
# Poissons Ratio (y) = 0.23669 0.11199
# Poissons Ratio (z) = 0.20898 0.21968
#
# Static dielectric constant tensor:
#      x y z
#    x 1.889220 0.000000 0.271770 
#    y 0.000000 2.104600 0.000000 
#    z 0.271770 0.000000 1.588910 
# 
# From -- ./inp_files/278714.got.cif
#   From: 2010.05.17/outbox.cif.g08.bks.cpg/sg15_140_cif.got.tgz:278714.got - 2010.06.03 18:47:42.
