data_PCOD9300370
_publ_section_title
;
Structure prediction by ZEFSAII (Michael W. Deem and Ramdas Pophale) SiO2 
 PCOD9300370
Probable space group: C 2/C
;
_chemical_formula_sum "Si O2"
_cell_formula_units_Z 36
_cell_length_a 14.112778
_cell_length_b 5.167631
_cell_length_c 20.729120
_cell_angle_alpha 90.000000
_cell_angle_beta 59.626753
_cell_angle_gamma 90.000000
_cell_volume 1304.276791
_symmetry_space_group_name_H-M "C 2/C"
_symmetry_group_IT_number 15
_symmetry_cell_setting 'monoclinic'
loop_
_space_group_symop_operation_xyz
x,y,z
-x,y,1/2-z
-x,-y,-z
x,-y,1/2+z
1/2+x,1/2+y,z
1/2-x,1/2+y,1/2-z
1/2-x,1/2-y,-z
1/2+x,1/2-y,1/2+z
loop_
_atom_site_type_symbol
_atom_site_label
_atom_site_fract_x
_atom_site_fract_y
_atom_site_fract_z
Si Si1 0.660301 0.158511 0.082224
Si Si2 0.500000 0.769829 0.250000
Si Si3 0.429470 0.290753 0.199733
Si Si4 0.460992 0.788147 0.461625
Si Si5 0.330207 0.505034 0.618208
O O1 0.551381 0.333395 0.123773
O O2 0.717336 0.110897 0.131346
O O3 0.615571 0.892012 0.068466
O O4 0.750000 0.250000 0.000000
O O5 0.416761 0.534182 0.252981
O O6 0.451317 0.002811 0.219704
O O7 0.337212 0.301735 0.175856
O O8 0.385888 0.611741 0.533208
O O9 0.577630 0.700176 0.394418
O O10 0.500000 0.000000 0.500000
#
# Coordination Sequence:
#
# PCOD9300370 Si02
#       5
#     8   4   8   8   8
#     4  12  23  40  72 111 144 178 223 285 363 430
#     4  10  26  50  74  94 136 192 250 302 342 398
#     4  11  24  48  73 101 138 189 242 298 350 413
#     4  11  20  39  60 101 155 185 213 267 348 442
#     4  11  23  39  67 100 143 190 227 280 352 424
#
# _framework density 27.601503000000001
#
# number of rings (size 3 to 8) (size 9 to 14) (size 15 to 20)
#    0.000    0.889    4.444    3.333    0.000    1.778 
#    0.000    4.444    0.000    0.000    0.000    0.000 
#    0.000    0.000    0.000    0.000    0.000    0.000 
#
# Total GULP energy -100224.002162 kJ/mol
# GULP energy per Si atom -5568.000120 kJ/mol
# Density = 2.753868 g / cm^3
# Si number density = 27.601503 Si / 1000 Ang^3
#
#
#
# Elastic Constant Matrix: (Units=GPa)
#
#
# Indices 1 2 3 4 5 6 
#
# 1 215.2003 51.2563 34.4438 0.0048 37.2504 0.0071
# 2 51.2563 155.3492 28.4261 0.0179 20.4122 0.0172
# 3 34.4438 28.4261 71.7303 0.0013 6.5605 0.0030
# 4 0.0048 0.0179 0.0013 44.4517 0.0029 15.9782
# 5 37.2504 20.4122 6.5605 0.0029 59.0092 0.0031
# 6 0.0071 0.0172 0.0030 15.9782 0.0031 56.7462
#
#
#
# Elastic Compliance Matrix: (Units=1/GPa)
#
#
# Indices 1 2 3 4 5 6 
#
# 1 0.005767 -0.001132 -0.002044 0.000000 -0.003022 0.000000
# 2 -0.001132 0.007434 -0.002256 -0.000002 -0.001607 -0.000001
# 3 -0.002044 -0.002256 0.015788 0.000001 0.000316 0.000000
# 4 0.000000 -0.000002 0.000001 0.025030 0.000000 -0.007048
# 5 -0.003022 -0.001607 0.000316 0.000000 0.019375 0.000000
# 6 0.000000 -0.000001 0.000000 -0.007048 0.000000 0.019607
#
#
# Mechanical properties :
#
#
# Convention : Reuss Voigt Hill
#
# Bulk Modulus (GPa) = 55.17115 74.50356 64.83736
# Shear Modulus (GPa) = 45.49395 53.91833 49.70614
#
# Velocity S-wave (km/s) = 4.06426 4.42459 4.24824
# Velocity P-wave (km/s) = 6.48507 7.29067 6.89963
#
# Compressibility (1/GPa) = 0.01812542
#
# Stress axis : x y z
#
# Youngs Moduli (GPa) = 173.41389 134.51100 63.33990
#
# Poissons Ratio (x) = 0.15221 0.12948
# Poissons Ratio (y) = 0.19623 0.14289
# Poissons Ratio (z) = 0.35450 0.30344
#
# Static dielectric constant tensor:
#      x y z
#    x 2.111620 0.000000 0.038940 
#    y 0.000000 2.243970 0.000000 
#    z 0.038940 0.000000 2.289590 
# 
# From -- ./inp_files/271591.got.cif
#   From: 2010.05.17/outbox.cif.g08.bks.cpg/sg15_136_cif.got.tgz:271591.got - 2010.06.03 18:47:42.
