data_PCOD9300147
_publ_section_title
;
Structure prediction by ZEFSAII (Michael W. Deem and Ramdas Pophale) SiO2 
 PCOD9300147
Probable space group: C 2/C
;
_chemical_formula_sum "Si O2"
_cell_formula_units_Z 64
_cell_length_a 26.327556
_cell_length_b 14.840923
_cell_length_c 12.819800
_cell_angle_alpha 90.000000
_cell_angle_beta 39.062299
_cell_angle_gamma 90.000000
_cell_volume 3156.508797
_symmetry_space_group_name_H-M "C 2/C"
_symmetry_group_IT_number 15
_symmetry_cell_setting 'monoclinic'
loop_
_space_group_symop_operation_xyz
x,y,z
-x,y,1/2-z
-x,-y,-z
x,-y,1/2+z
1/2+x,1/2+y,z
1/2-x,1/2+y,1/2-z
1/2-x,1/2-y,-z
1/2+x,1/2-y,1/2+z
loop_
_atom_site_type_symbol
_atom_site_label
_atom_site_fract_x
_atom_site_fract_y
_atom_site_fract_z
Si Si1 0.375661 0.955636 0.224806
Si Si2 0.999539 0.810461 0.126748
Si Si3 0.799381 0.026608 0.011799
Si Si4 0.903908 0.861455 0.918751
Si Si5 0.337624 0.619174 0.160879
Si Si6 0.486183 0.893675 0.648999
Si Si7 0.121707 0.927801 0.310736
Si Si8 0.190070 0.694855 0.520982
O O1 0.288470 0.987714 0.325317
O O2 0.359333 0.877657 0.334626
O O3 0.419515 0.039152 0.210442
O O4 0.432503 0.918950 0.042797
O O5 0.951538 0.886972 0.140229
O O6 0.000000 0.830646 0.250000
O O7 0.963902 0.711073 0.166794
O O8 0.092466 0.807153 0.941607
O O9 0.824564 0.095159 0.061267
O O10 0.861193 0.942224 0.922165
O O11 0.805359 0.072575 0.889001
O O12 0.869189 0.766492 0.936703
O O13 0.000000 0.867437 0.750000
O O14 0.878566 0.874629 0.080001
O O15 0.375754 0.531062 0.154982
O O16 0.252102 0.645251 0.344773
O O17 0.500000 0.905829 0.750000
O O18 0.250000 0.750000 0.500000
#
# Coordination Sequence:
#
# PCOD9300147 Si02
#       8
#     8   8   8   8   8   8   8   8
#     4  11  24  46  74  94 142 179 229 286 343 410
#     4  11  23  43  68 100 139 181 229 281 344 408
#     4  11  24  44  68 104 134 181 226 282 355 407
#     4  11  28  42  69 106 138 175 230 288 342 413
#     4  11  24  40  71  97 135 184 227 282 348 413
#     4  10  26  45  70 101 132 187 231 281 339 421
#     4  11  24  42  67 102 137 173 229 289 341 405
#     4  12  24  46  70 101 134 182 230 284 347 408
#
# _framework density 20.275566000000001
#
# number of rings (size 3 to 8) (size 9 to 14) (size 15 to 20)
#    0.000    1.000    3.750    1.125   10.500    1.500 
#    2.250    1.250    0.000    0.000    0.000    0.000 
#    0.000    0.000    0.000    0.000    0.000    0.000 
#
# Total GULP energy -178794.591782 kJ/mol
# GULP energy per Si atom -5587.330993 kJ/mol
# Density = 2.022942 g / cm^3
# Si number density = 20.275566 Si / 1000 Ang^3
#
#
#
# Elastic Constant Matrix: (Units=GPa)
#
#
# Indices 1 2 3 4 5 6 
#
# 1 66.1946 36.8800 35.6125 0.0000 -5.8131 0.0000
# 2 36.8800 83.0666 37.5488 0.0000 -4.7947 0.0000
# 3 35.6125 37.5488 112.6077 0.0000 -4.6815 0.0000
# 4 0.0000 0.0000 0.0000 19.4339 0.0000 -4.9224
# 5 -5.8131 -4.7947 -4.6815 0.0000 44.6717 0.0000
# 6 0.0000 0.0000 0.0000 -4.9224 0.0000 30.3879
#
#
#
# Elastic Compliance Matrix: (Units=1/GPa)
#
#
# Indices 1 2 3 4 5 6 
#
# 1 0.021815 -0.007660 -0.004280 0.000000 0.001568 0.000000
# 2 -0.007660 0.016913 -0.003197 0.000000 0.000483 0.000000
# 3 -0.004280 -0.003197 0.011312 0.000000 0.000285 0.000000
# 4 0.000000 0.000000 0.000000 0.053658 0.000000 0.008692
# 5 0.001568 0.000483 0.000285 0.000000 0.022671 0.000000
# 6 0.000000 0.000000 0.000000 0.008692 0.000000 0.034316
#
#
# Mechanical properties :
#
#
# Convention : Reuss Voigt Hill
#
# Bulk Modulus (GPa) = 50.59242 53.55015 52.07128
# Shear Modulus (GPa) = 25.31053 29.02055 27.16554
#
# Velocity S-wave (km/s) = 3.53700 3.78737 3.66432
# Velocity P-wave (km/s) = 6.45655 6.75233 6.60610
#
# Compressibility (1/GPa) = 0.01976581
#
# Stress axis : x y z
#
# Youngs Moduli (GPa) = 45.83993 59.12765 88.40482
#
# Poissons Ratio (x) = 0.45295 0.37833
# Poissons Ratio (y) = 0.35116 0.28261
# Poissons Ratio (z) = 0.19617 0.18901
#
# Static dielectric constant tensor:
#      x y z
#    x 1.694140 0.000000 0.011830 
#    y 0.000000 1.710640 0.000000 
#    z 0.011830 0.000000 1.736580 
# 
# From -- ./inp_files/123490.got.cif
#   From: 2010.05.17/outbox.cif.g08.bks.cpg/sg15_62_cif.got.tgz:123490.got - 2010.06.03 18:47:42.
