data_PCOD9300052
_publ_section_title
;
Structure prediction by ZEFSAII (Michael W. Deem and Ramdas Pophale) SiO2 
 PCOD9300052
Probable space group: C 2/C
;
_chemical_formula_sum "Si O2"
_cell_formula_units_Z 48
_cell_length_a 25.121787
_cell_length_b 14.059614
_cell_length_c 10.967562
_cell_angle_alpha 90.000000
_cell_angle_beta 33.336880
_cell_angle_gamma 90.000000
_cell_volume 2128.872679
_symmetry_space_group_name_H-M "C 2/C"
_symmetry_group_IT_number 15
_symmetry_cell_setting 'monoclinic'
loop_
_space_group_symop_operation_xyz
x,y,z
-x,y,1/2-z
-x,-y,-z
x,-y,1/2+z
1/2+x,1/2+y,z
1/2-x,1/2+y,1/2-z
1/2-x,1/2-y,-z
1/2+x,1/2-y,1/2+z
loop_
_atom_site_type_symbol
_atom_site_label
_atom_site_fract_x
_atom_site_fract_y
_atom_site_fract_z
Si Si1 0.407251 0.554577 0.634395
Si Si2 0.281636 0.944667 0.537839
Si Si3 0.500000 0.684084 0.250000
Si Si4 0.163330 0.443383 0.328375
Si Si5 0.677584 0.290902 0.035479
Si Si6 0.500000 0.822775 0.750000
Si Si7 0.795854 0.756592 0.076254
O O1 0.500000 0.500000 0.500000
O O2 0.327051 0.482126 0.742396
O O3 0.443462 0.624005 0.459632
O O4 0.361751 0.612027 0.833642
O O5 0.327858 0.986457 0.324174
O O6 0.276725 0.831268 0.521894
O O7 0.330793 0.985145 0.567135
O O8 0.411926 0.739031 0.356427
O O9 0.063827 0.385988 0.536371
O O10 0.249193 0.362595 0.172325
O O11 0.581076 0.234911 0.173239
O O12 0.750000 0.250000 0.000000
O O13 0.747653 0.292722 0.786497
#
# Coordination Sequence:
#
# PCOD9300052 Si02
#       7
#     8   8   4   8   8   4   8
#     4  12  27  41  73 106 149 191 257 317 382 451
#     4  12  26  46  73 105 153 198 243 324 387 444
#     4  12  24  46  68 112 138 194 260 307 377 464
#     4  11  25  49  70 109 151 196 255 314 376 465
#     4  11  23  48  70 103 153 200 243 314 386 447
#     4  10  26  42  78 104 144 208 264 293 381 476
#     4  11  25  44  75 102 152 195 252 310 384 453
#
# _framework density 22.547145
#
# number of rings (size 3 to 8) (size 9 to 14) (size 15 to 20)
#    0.000    0.667    3.333    3.500    9.333    1.333 
#    0.000    0.000    0.000    0.000    0.000    0.000 
#    0.000    0.000    0.000    0.000    0.000    0.000 
#
# Total GULP energy -133928.734735 kJ/mol
# GULP energy per Si atom -5580.363947 kJ/mol
# Density = 2.249583 g / cm^3
# Si number density = 22.547145 Si / 1000 Ang^3
#
#
#
# Elastic Constant Matrix: (Units=GPa)
#
#
# Indices 1 2 3 4 5 6 
#
# 1 72.2995 23.8781 23.1757 0.0000 1.8693 0.0000
# 2 23.8781 89.1045 17.2463 0.0000 -8.7383 0.0000
# 3 23.1757 17.2463 83.0641 0.0000 -25.8801 0.0000
# 4 0.0000 0.0000 0.0000 47.1615 0.0000 3.1823
# 5 1.8693 -8.7383 -25.8801 0.0000 51.7666 0.0000
# 6 0.0000 0.0000 0.0000 3.1823 0.0000 44.7072
#
#
#
# Elastic Compliance Matrix: (Units=1/GPa)
#
#
# Indices 1 2 3 4 5 6 
#
# 1 0.016846 -0.003905 -0.005075 0.000000 -0.003805 0.000000
# 2 -0.003905 0.012634 -0.000977 0.000000 0.001785 0.000000
# 3 -0.005075 -0.000977 0.016184 0.000000 0.008109 0.000000
# 4 0.000000 0.000000 0.000000 0.021306 0.000000 -0.001517
# 5 -0.003805 0.001785 0.008109 0.000000 0.023810 0.000000
# 6 0.000000 0.000000 0.000000 -0.001517 0.000000 0.022476
#
#
# Mechanical properties :
#
#
# Convention : Reuss Voigt Hill
#
# Bulk Modulus (GPa) = 38.83597 41.45202 40.14399
# Shear Modulus (GPa) = 35.27228 40.73825 38.00527
#
# Velocity S-wave (km/s) = 3.95951 4.25526 4.11005
# Velocity P-wave (km/s) = 6.17782 6.52438 6.35346
#
# Compressibility (1/GPa) = 0.02574932
#
# Stress axis : x y z
#
# Youngs Moduli (GPa) = 59.36029 79.15449 61.78794
#
# Poissons Ratio (x) = 0.30912 0.31356
# Poissons Ratio (y) = 0.23182 0.06038
# Poissons Ratio (z) = 0.30124 0.07736
#
# Static dielectric constant tensor:
#      x y z
#    x 1.941460 0.000000 0.022640 
#    y 0.000000 1.874340 0.000000 
#    z 0.022640 0.000000 1.703980 
# 
# From -- ./inp_files/123469.got.cif
#   From: 2010.05.17/outbox.cif.g08.bks.cpg/sg15_62_cif.got.tgz:123469.got - 2010.06.03 18:47:42.
