data_PCOD9300965
_publ_section_title
;
Structure prediction by ZEFSAII (Michael W. Deem and Ramdas Pophale) SiO2 
 PCOD9300965
Probable space group: C 2/C
;
_chemical_formula_sum "Si O2"
_cell_formula_units_Z 52
_cell_length_a 19.628994
_cell_length_b 7.132214
_cell_length_c 14.344901
_cell_angle_alpha 90.000000
_cell_angle_beta 72.486542
_cell_angle_gamma 90.000000
_cell_volume 1915.169814
_symmetry_space_group_name_H-M "C 2/C"
_symmetry_group_IT_number 15
_symmetry_cell_setting 'monoclinic'
loop_
_space_group_symop_operation_xyz
x,y,z
-x,y,1/2-z
-x,-y,-z
x,-y,1/2+z
1/2+x,1/2+y,z
1/2-x,1/2+y,1/2-z
1/2-x,1/2-y,-z
1/2+x,1/2-y,1/2+z
loop_
_atom_site_type_symbol
_atom_site_label
_atom_site_fract_x
_atom_site_fract_y
_atom_site_fract_z
Si Si1 0.434118 0.274683 0.652383
Si Si2 0.056171 0.228678 0.850936
Si Si3 0.709998 0.682915 0.207473
Si Si4 0.401042 0.274805 0.453582
Si Si5 0.310817 0.247967 0.328853
Si Si6 0.588605 0.271136 0.549806
Si Si7 0.250000 0.250000 0.000000
O O1 0.439089 0.501831 0.654899
O O2 0.367868 0.228296 0.745142
O O3 0.409769 0.221455 0.557496
O O4 0.516015 0.215211 0.633518
O O5 0.117570 0.297961 0.758181
O O6 0.973821 0.281752 0.870600
O O7 0.072754 0.282446 0.950047
O O8 0.701431 0.472868 0.170834
O O9 0.746444 0.668225 0.294164
O O10 0.760231 0.779342 0.110503
O O11 0.330456 0.209476 0.428203
O O12 0.403267 0.501979 0.449890
O O13 0.665479 0.202279 0.547574
#
# Coordination Sequence:
#
# PCOD9300965 Si02
#       7
#     8   8   8   8   8   8   4
#     4   8  18  33  50  83 110 141 178 245 279 332
#     4   8  15  29  52  82 112 135 177 243 279 328
#     4  11  24  35  57  80 119 147 194 232 287 333
#     4   9  16  30  55  83 111 139 181 236 294 320
#     4  11  20  35  53  88 112 154 183 231 278 347
#     4   9  16  31  53  80 113 137 189 230 288 325
#     4  12  20  34  54  84 110 158 178 238 282 342
#
# _framework density 27.151638999999999
#
# number of rings (size 3 to 8) (size 9 to 14) (size 15 to 20)
#    0.000    2.462    3.077    2.308    0.000    1.231 
#    0.000    0.000    0.000    0.923    8.000    0.000 
#    0.000    0.000    0.000    0.000    0.000    0.000 
#
# Total GULP energy -145039.960430 kJ/mol
# GULP energy per Si atom -5578.460017 kJ/mol
# Density = 2.708984 g / cm^3
# Si number density = 27.151639 Si / 1000 Ang^3
#
#
#
# Elastic Constant Matrix: (Units=GPa)
#
#
# Indices 1 2 3 4 5 6 
#
# 1 228.2999 1.8522 78.2216 0.0000 1.4726 0.0000
# 2 1.8522 117.9358 -4.4879 0.0000 13.7299 0.0000
# 3 78.2216 -4.4879 111.9268 0.0000 -8.2835 0.0000
# 4 0.0000 0.0000 0.0000 10.3805 0.0000 1.5551
# 5 1.4726 13.7299 -8.2835 0.0000 33.9034 0.0000
# 6 0.0000 0.0000 0.0000 1.5551 0.0000 6.7438
#
#
#
# Elastic Compliance Matrix: (Units=1/GPa)
#
#
# Indices 1 2 3 4 5 6 
#
# 1 0.005814 -0.000107 -0.004158 0.000000 -0.001225 0.000000
# 2 -0.000107 0.008902 0.000168 0.000000 -0.003559 0.000000
# 3 -0.004158 0.000168 0.012074 0.000000 0.003062 0.000000
# 4 0.000000 0.000000 0.000000 0.099781 0.000000 -0.023009
# 5 -0.001225 -0.003559 0.003062 0.000000 0.031738 0.000000
# 6 0.000000 0.000000 0.000000 -0.023009 0.000000 0.153591
#
#
# Mechanical properties :
#
#
# Convention : Reuss Voigt Hill
#
# Bulk Modulus (GPa) = 53.77584 67.70380 60.73982
# Shear Modulus (GPa) = 15.32376 35.71065 25.51720
#
# Velocity S-wave (km/s) = 2.37824 3.63054 3.06895
# Velocity P-wave (km/s) = 5.23356 6.52411 5.91414
#
# Compressibility (1/GPa) = 0.01859571
#
# Stress axis : x y z
#
# Youngs Moduli (GPa) = 172.01165 112.33912 82.82563
#
# Poissons Ratio (x) = 0.01201 0.34438
# Poissons Ratio (y) = 0.01839 -0.01393
# Poissons Ratio (z) = 0.71520 -0.01890
#
# Static dielectric constant tensor:
#      x y z
#    x 2.047100 0.000000 0.015570 
#    y 0.000000 2.220160 0.000000 
#    z 0.015570 0.000000 2.094480 
# 
# From -- ./inp_files/160366.got.cif
#   From: 2010.05.17/outbox.cif.g08.bks.cpg/sg15_81_cif.got.tgz:160366.got - 2010.06.03 18:47:42.
