data_PCOD9300223
_publ_section_title
;
Structure prediction by ZEFSAII (Michael W. Deem and Ramdas Pophale) SiO2 
 PCOD9300223
Probable space group: C 2/C
;
_chemical_formula_sum "Si O2"
_cell_formula_units_Z 28
_cell_length_a 12.554841
_cell_length_b 16.229391
_cell_length_c 6.813794
_cell_angle_alpha 90.000000
_cell_angle_beta 52.361681
_cell_angle_gamma 90.000000
_cell_volume 1099.417347
_symmetry_space_group_name_H-M "C 2/C"
_symmetry_group_IT_number 15
_symmetry_cell_setting 'monoclinic'
loop_
_space_group_symop_operation_xyz
x,y,z
-x,y,1/2-z
-x,-y,-z
x,-y,1/2+z
1/2+x,1/2+y,z
1/2-x,1/2+y,1/2-z
1/2-x,1/2-y,-z
1/2+x,1/2-y,1/2+z
loop_
_atom_site_type_symbol
_atom_site_label
_atom_site_fract_x
_atom_site_fract_y
_atom_site_fract_z
Si Si1 0.214690 0.223307 0.265867
Si Si2 0.258701 0.592543 0.782802
Si Si3 0.646656 0.074777 0.507639
Si Si4 0.500000 0.367869 0.250000
O O1 0.230555 0.311205 0.352857
O O2 0.071927 0.187907 0.501026
O O3 0.250000 0.250000 0.000000
O O4 0.312890 0.144883 0.192571
O O5 0.261498 0.584080 0.544727
O O6 0.392545 0.577527 0.754654
O O7 0.151024 0.520987 0.948323
O O8 0.500000 0.096911 0.750000
#
# Coordination Sequence:
#
# PCOD9300223 Si02
#       4
#     8   8   8   4
#     4  10  26  46  74 111 150 203 242 316 382 436
#     4  11  26  44  74 112 147 200 248 315 383 433
#     4  11  25  47  77 108 151 199 256 311 376 456
#     4  12  26  46  74 108 158 190 262 302 382 462
#
# _framework density 25.468036000000001
#
# number of rings (size 3 to 8) (size 9 to 14) (size 15 to 20)
#    0.000    1.143    0.000    3.429   10.000    8.000 
#    0.000    0.000    0.000    0.000    0.000    0.000 
#    0.000    0.000    0.000    0.000    0.000    0.000 
#
# Total GULP energy -78093.119423 kJ/mol
# GULP energy per Si atom -5578.079959 kJ/mol
# Density = 2.541007 g / cm^3
# Si number density = 25.468036 Si / 1000 Ang^3
#
#
#
# Elastic Constant Matrix: (Units=GPa)
#
#
# Indices 1 2 3 4 5 6 
#
# 1 98.8639 8.9430 24.5843 0.0000 16.1162 0.0000
# 2 8.9430 210.4503 73.4187 0.0000 -17.1536 0.0000
# 3 24.5843 73.4187 170.9128 0.0000 -2.0109 0.0000
# 4 0.0000 0.0000 0.0000 40.6680 0.0000 6.8618
# 5 16.1162 -17.1536 -2.0109 0.0000 36.7193 0.0000
# 6 0.0000 0.0000 0.0000 6.8618 0.0000 32.2922
#
#
#
# Elastic Compliance Matrix: (Units=1/GPa)
#
#
# Indices 1 2 3 4 5 6 
#
# 1 0.011389 -0.000376 -0.001539 0.000000 -0.005258 0.000000
# 2 -0.000376 0.005837 -0.002421 0.000000 0.002759 0.000000
# 3 -0.001539 -0.002421 0.007111 0.000000 -0.000066 0.000000
# 4 0.000000 0.000000 0.000000 0.025504 0.000000 -0.005419
# 5 -0.005258 0.002759 -0.000066 0.000000 0.030827 0.000000
# 6 0.000000 0.000000 0.000000 -0.005419 0.000000 0.032119
#
#
# Mechanical properties :
#
#
# Convention : Reuss Voigt Hill
#
# Bulk Modulus (GPa) = 63.83002 77.12433 70.47717
# Shear Modulus (GPa) = 39.46967 46.82132 43.14550
#
# Velocity S-wave (km/s) = 3.94099 4.29235 4.12041
# Velocity P-wave (km/s) = 6.76947 7.41041 7.09718
#
# Compressibility (1/GPa) = 0.01566661
#
# Stress axis : x y z
#
# Youngs Moduli (GPa) = 87.80646 171.31600 140.61865
#
# Poissons Ratio (x) = 0.06438 0.21636
# Poissons Ratio (y) = 0.03300 0.34043
# Poissons Ratio (z) = 0.13510 0.41475
#
# Static dielectric constant tensor:
#      x y z
#    x 2.125700 0.000000 0.104980 
#    y 0.000000 2.094230 0.000000 
#    z 0.104980 0.000000 2.026930 
# 
# From -- ./inp_files/27524.got.cif
#   From: 2010.05.17/outbox.cif.g08.bks.cpg/sg15_14_cif.got.tgz:27524.got - 2010.06.03 18:47:42.
