data_PCOD9300285
_publ_section_title
;
Structure prediction by ZEFSAII (Michael W. Deem and Ramdas Pophale) SiO2 
 PCOD9300285
Probable space group: C 2/C
;
_chemical_formula_sum "Si O2"
_cell_formula_units_Z 52
_cell_length_a 28.891678
_cell_length_b 5.130487
_cell_length_c 16.224973
_cell_angle_alpha 90.000000
_cell_angle_beta 117.627517
_cell_angle_gamma 90.000000
_cell_volume 2130.785514
_symmetry_space_group_name_H-M "C 2/C"
_symmetry_group_IT_number 15
_symmetry_cell_setting 'monoclinic'
loop_
_space_group_symop_operation_xyz
x,y,z
-x,y,1/2-z
-x,-y,-z
x,-y,1/2+z
1/2+x,1/2+y,z
1/2-x,1/2+y,1/2-z
1/2-x,1/2-y,-z
1/2+x,1/2-y,1/2+z
loop_
_atom_site_type_symbol
_atom_site_label
_atom_site_fract_x
_atom_site_fract_y
_atom_site_fract_z
Si Si1 0.092483 0.509913 0.594611
Si Si2 0.552448 0.507777 0.150467
Si Si3 0.750207 0.000618 0.556920
Si Si4 0.860377 0.913084 0.641374
Si Si5 0.603129 0.086480 0.410269
Si Si6 0.714687 0.062277 0.698805
Si Si7 0.500000 0.739550 0.750000
O O1 0.071878 0.237231 0.613127
O O2 0.091259 0.520122 0.494595
O O3 0.153356 0.558820 0.675148
O O4 0.053917 0.736093 0.596148
O O5 0.594480 0.562905 0.255911
O O6 0.504020 0.428067 0.168731
O O7 0.750000 0.750000 0.500000
O O8 0.807570 0.985002 0.644169
O O9 0.710225 0.008384 0.597553
O O10 0.750000 0.250000 0.500000
O O11 0.860450 0.629924 0.601447
O O12 0.871398 0.128945 0.580291
O O13 0.551106 0.089936 0.309923
O O14 0.752023 0.830513 0.764351
#
# Coordination Sequence:
#
# PCOD9300285 Si02
#       7
#     8   8   8   8   8   8   4
#     4  12  24  43  65 101 131 173 211 276 328 378
#     4  11  25  43  70  92 131 164 219 266 333 398
#     4  12  24  39  64  95 131 174 225 266 309 382
#     4  11  22  43  64  94 130 180 212 266 323 382
#     4  11  25  43  70  94 135 165 221 271 330 391
#     4  12  25  41  64  95 137 177 220 263 317 387
#     4  10  26  48  70 100 122 176 216 274 336 406
#
# _framework density 24.404146999999998
#
# number of rings (size 3 to 8) (size 9 to 14) (size 15 to 20)
#    0.000    0.615    0.000    9.231    0.000    6.769 
#    0.000    0.000    0.000    0.000    0.000    0.000 
#    0.000    0.000    0.000    0.000    0.000    0.000 
#
# Total GULP energy -145545.572026 kJ/mol
# GULP energy per Si atom -5597.906616 kJ/mol
# Density = 2.434860 g / cm^3
# Si number density = 24.404147 Si / 1000 Ang^3
#
#
#
# Elastic Constant Matrix: (Units=GPa)
#
#
# Indices 1 2 3 4 5 6 
#
# 1 64.2936 25.9035 5.7514 0.0000 -0.9031 -0.0002
# 2 25.9035 130.9450 12.2985 0.0006 -14.5743 0.0002
# 3 5.7514 12.2985 70.3024 0.0000 -22.4283 0.0000
# 4 0.0000 0.0006 0.0000 30.9445 0.0000 -10.7519
# 5 -0.9031 -14.5743 -22.4283 0.0000 46.5633 0.0001
# 6 -0.0002 0.0002 0.0000 -10.7519 0.0001 33.2388
#
#
#
# Elastic Compliance Matrix: (Units=1/GPa)
#
#
# Indices 1 2 3 4 5 6 
#
# 1 0.017013 -0.003398 -0.001219 0.000000 -0.001321 0.000000
# 2 -0.003398 0.008621 -0.000461 0.000000 0.002410 0.000000
# 3 -0.001219 -0.000461 0.016957 0.000000 0.008000 0.000000
# 4 0.000000 0.000000 0.000000 0.036408 0.000000 0.011777
# 5 -0.001321 0.002410 0.008000 0.000000 0.026058 0.000000
# 6 0.000000 0.000000 0.000000 0.011777 0.000000 0.033895
#
#
# Mechanical properties :
#
#
# Convention : Reuss Voigt Hill
#
# Bulk Modulus (GPa) = 30.83125 39.27199 35.05162
# Shear Modulus (GPa) = 31.26584 36.92182 34.09383
#
# Velocity S-wave (km/s) = 3.58323 3.89386 3.74177
# Velocity P-wave (km/s) = 5.45714 6.02856 5.74995
#
# Compressibility (1/GPa) = 0.03243462
#
# Stress axis : x y z
#
# Youngs Moduli (GPa) = 58.77799 116.00170 58.97367
#
# Poissons Ratio (x) = 0.39418 0.07187
# Poissons Ratio (y) = 0.19973 0.02720
# Poissons Ratio (z) = 0.07163 0.05349
#
# Static dielectric constant tensor:
#      x y z
#    x 2.053370 0.000000 0.016200 
#    y 0.000000 1.934910 0.000000 
#    z 0.016200 0.000000 1.948510 
# 
# From -- ./inp_files/180156.got.cif
#   From: 2010.05.17/outbox.cif.g08.bks.cpg/sg15_91_cif.got.tgz:180156.got - 2010.06.03 18:47:42.
