data_PCOD9300960
_publ_section_title
;
Structure prediction by ZEFSAII (Michael W. Deem and Ramdas Pophale) SiO2 
 PCOD9300960
Probable space group: C 2/C
;
_chemical_formula_sum "Si O2"
_cell_formula_units_Z 56
_cell_length_a 19.216627
_cell_length_b 23.128360
_cell_length_c 8.656055
_cell_angle_alpha 90.000000
_cell_angle_beta 44.936818
_cell_angle_gamma 90.000000
_cell_volume 2717.362443
_symmetry_space_group_name_H-M "C 2/C"
_symmetry_group_IT_number 15
_symmetry_cell_setting 'monoclinic'
loop_
_space_group_symop_operation_xyz
x,y,z
-x,y,1/2-z
-x,-y,-z
x,-y,1/2+z
1/2+x,1/2+y,z
1/2-x,1/2+y,1/2-z
1/2-x,1/2-y,-z
1/2+x,1/2-y,1/2+z
loop_
_atom_site_type_symbol
_atom_site_label
_atom_site_fract_x
_atom_site_fract_y
_atom_site_fract_z
Si Si1 0.987400 0.166942 0.451833
Si Si2 0.380427 0.522823 0.936093
Si Si3 0.737333 0.774588 0.689705
Si Si4 0.683304 0.377710 0.757088
Si Si5 0.307888 0.839994 0.259262
Si Si6 0.317955 0.418938 0.222740
Si Si7 0.012997 0.296038 0.045023
O O1 0.072971 0.125680 0.369651
O O2 0.000000 0.174399 0.250000
O O3 0.885415 0.136939 0.646521
O O4 0.999254 0.230720 0.498832
O O5 0.500000 0.533228 0.750000
O O6 0.334386 0.541082 0.845037
O O7 0.316504 0.561428 0.156710
O O8 0.361734 0.456722 0.012988
O O9 0.750000 0.750000 0.500000
O O10 0.806458 0.826591 0.633882
O O11 0.757634 0.720873 0.778394
O O12 0.629672 0.804694 0.850185
O O13 0.755955 0.360293 0.501910
O O14 0.283763 0.890220 0.172852
O O15 0.424058 0.830997 0.106491
O O16 0.000000 0.299006 0.250000
#
# Coordination Sequence:
#
# PCOD9300960 Si02
#       7
#     8   8   8   8   8   8   8
#     4  11  20  34  64  90 133 172 218 267 334 412
#     4  12  26  41  65  99 139 178 228 285 351 411
#     4  12  25  41  64 100 137 178 231 281 340 405
#     4  12  23  39  62  92 133 179 224 271 344 408
#     4  12  23  42  68  92 135 182 223 278 343 409
#     4  12  24  42  63  98 136 179 224 283 343 414
#     4  11  22  41  66 100 133 180 227 274 337 417
#
# _framework density 20.608218999999998
#
# number of rings (size 3 to 8) (size 9 to 14) (size 15 to 20)
#    0.000    0.286    7.143    3.857    0.000    0.571 
#    0.000    0.000    0.000    0.857    0.000    0.000 
#    0.000    0.000    0.000    0.000    0.000    0.000 
#
# Total GULP energy -156209.880015 kJ/mol
# GULP energy per Si atom -5578.924286 kJ/mol
# Density = 2.056131 g / cm^3
# Si number density = 20.608219 Si / 1000 Ang^3
#
#
#
# Elastic Constant Matrix: (Units=GPa)
#
#
# Indices 1 2 3 4 5 6 
#
# 1 140.1192 43.7520 36.1949 0.0000 -8.7927 0.0000
# 2 43.7520 80.9508 25.8194 0.0000 4.2036 0.0000
# 3 36.1949 25.8194 49.6286 0.0000 -1.2155 0.0000
# 4 0.0000 0.0000 0.0000 51.6906 0.0000 23.8297
# 5 -8.7927 4.2036 -1.2155 0.0000 24.1398 0.0000
# 6 0.0000 0.0000 0.0000 23.8297 0.0000 55.9716
#
#
#
# Elastic Compliance Matrix: (Units=1/GPa)
#
#
# Indices 1 2 3 4 5 6 
#
# 1 0.009943 -0.003961 -0.005092 0.000000 0.004055 0.000000
# 2 -0.003961 0.016604 -0.005863 0.000000 -0.004629 0.000000
# 3 -0.005092 -0.005863 0.026926 0.000000 0.000522 0.000000
# 4 0.000000 0.000000 0.000000 0.024070 0.000000 -0.010248
# 5 0.004055 -0.004629 0.000522 0.000000 0.043735 0.000000
# 6 0.000000 0.000000 0.000000 -0.010248 0.000000 0.022229
#
#
# Mechanical properties :
#
#
# Convention : Reuss Voigt Hill
#
# Bulk Modulus (GPa) = 42.29693 53.58126 47.93909
# Shear Modulus (GPa) = 27.59071 37.35590 32.47330
#
# Velocity S-wave (km/s) = 3.66296 4.26216 3.97387
# Velocity P-wave (km/s) = 6.20150 7.09068 6.66094
#
# Compressibility (1/GPa) = 0.02364238
#
# Stress axis : x y z
#
# Youngs Moduli (GPa) = 100.57081 60.22545 37.13818
#
# Poissons Ratio (x) = 0.23853 0.18911
# Poissons Ratio (y) = 0.39832 0.21775
# Poissons Ratio (z) = 0.51210 0.35312
#
# Static dielectric constant tensor:
#      x y z
#    x 1.777600 0.000000 0.050520 
#    y 0.000000 1.750940 0.000000 
#    z 0.050520 0.000000 1.923110 
# 
# From -- ./inp_files/51465.got.cif
#   From: 2010.05.17/outbox.cif.g08.bks.cpg/sg15_26_cif.got.tgz:51465.got - 2010.06.03 18:47:42.
