data_PCOD9300558
_publ_section_title
;
Structure prediction by ZEFSAII (Michael W. Deem and Ramdas Pophale) SiO2 
 PCOD9300558
Probable space group: C 2/C
;
_chemical_formula_sum "Si O2"
_cell_formula_units_Z 56
_cell_length_a 14.200848
_cell_length_b 21.556436
_cell_length_c 13.873239
_cell_angle_alpha 90.000000
_cell_angle_beta 133.073166
_cell_angle_gamma 90.000000
_cell_volume 3102.263942
_symmetry_space_group_name_H-M "C 2/C"
_symmetry_group_IT_number 15
_symmetry_cell_setting 'monoclinic'
loop_
_space_group_symop_operation_xyz
x,y,z
-x,y,1/2-z
-x,-y,-z
x,-y,1/2+z
1/2+x,1/2+y,z
1/2-x,1/2+y,1/2-z
1/2-x,1/2-y,-z
1/2+x,1/2-y,1/2+z
loop_
_atom_site_type_symbol
_atom_site_label
_atom_site_fract_x
_atom_site_fract_y
_atom_site_fract_z
Si Si1 0.445617 0.866782 0.403127
Si Si2 0.113715 0.473437 0.451275
Si Si3 0.594698 0.760965 0.408742
Si Si4 0.243308 0.051956 0.258303
Si Si5 0.495407 0.891011 0.640695
Si Si6 0.245058 0.573443 0.855630
Si Si7 0.006533 0.872609 0.871366
O O1 0.495774 0.937278 0.419608
O O2 0.558775 0.821883 0.444525
O O3 0.430920 0.855434 0.506133
O O4 0.315005 0.870205 0.249703
O O5 0.224231 0.466493 0.608551
O O6 0.080849 0.543980 0.405796
O O7 0.147130 0.441375 0.374142
O O8 0.500000 0.768797 0.250000
O O9 0.750000 0.750000 0.500000
O O10 0.536073 0.699155 0.415610
O O11 0.362391 0.089859 0.295967
O O12 0.121351 0.096960 0.175551
O O13 0.229649 0.988233 0.189361
O O14 0.500000 0.862199 0.750000
O O15 0.374305 0.591288 0.000518
O O16 0.000000 0.876481 0.750000
#
# Coordination Sequence:
#
# PCOD9300558 Si02
#       7
#     8   8   8   8   8   8   8
#     4  11  21  34  60  87 114 151 195 242 296 343
#     4  11  18  34  56  85 119 145 189 247 289 346
#     4  11  24  40  59  89 121 158 200 245 300 353
#     4  11  21  35  56  85 117 157 188 235 303 353
#     4  11  20  35  59  87 115 147 193 249 290 347
#     4  12  20  36  59  83 122 152 193 238 298 355
#     4  11  24  38  55  83 122 157 190 240 296 360
#
# _framework density 18.051333
#
# number of rings (size 3 to 8) (size 9 to 14) (size 15 to 20)
#    0.000    0.857    5.714    4.286    6.000    0.000 
#    0.000    0.000    0.000    0.857    3.714    0.000 
#    0.000    0.000    0.000    0.000    0.000    0.000 
#
# Total GULP energy -156146.049896 kJ/mol
# GULP energy per Si atom -5576.644639 kJ/mol
# Density = 1.801025 g / cm^3
# Si number density = 18.051333 Si / 1000 Ang^3
#
#
#
# Elastic Constant Matrix: (Units=GPa)
#
#
# Indices 1 2 3 4 5 6 
#
# 1 76.7528 20.9060 44.7661 0.0000 -8.9235 0.0000
# 2 20.9060 51.8332 19.8497 0.0000 2.2720 0.0000
# 3 44.7661 19.8497 114.7867 0.0000 -5.3819 0.0000
# 4 0.0000 0.0000 0.0000 16.0417 0.0000 6.7287
# 5 -8.9235 2.2720 -5.3819 0.0000 39.8815 0.0000
# 6 0.0000 0.0000 0.0000 6.7287 0.0000 30.1667
#
#
#
# Elastic Compliance Matrix: (Units=1/GPa)
#
#
# Indices 1 2 3 4 5 6 
#
# 1 0.018446 -0.005256 -0.006116 0.000000 0.003601 0.000000
# 2 -0.005256 0.022269 -0.001928 0.000000 -0.002705 0.000000
# 3 -0.006116 -0.001928 0.011444 0.000000 0.000286 0.000000
# 4 0.000000 0.000000 0.000000 0.068771 0.000000 -0.015339
# 5 0.003601 -0.002705 0.000286 0.000000 0.026073 0.000000
# 6 0.000000 0.000000 0.000000 -0.015339 0.000000 0.036571
#
#
# Mechanical properties :
#
#
# Convention : Reuss Voigt Hill
#
# Bulk Modulus (GPa) = 39.12423 46.04627 42.58525
# Shear Modulus (GPa) = 22.86295 27.74139 25.30217
#
# Velocity S-wave (km/s) = 3.56273 3.92446 3.74796
# Velocity P-wave (km/s) = 6.21651 6.78963 6.50938
#
# Compressibility (1/GPa) = 0.02555961
#
# Stress axis : x y z
#
# Youngs Moduli (GPa) = 54.21116 44.90478 87.38254
#
# Poissons Ratio (x) = 0.23600 0.53446
# Poissons Ratio (y) = 0.28491 0.16849
# Poissons Ratio (z) = 0.33157 0.08658
#
# Static dielectric constant tensor:
#      x y z
#    x 1.625560 0.000000 -0.009460 
#    y 0.000000 1.638280 0.000000 
#    z -0.009460 0.000000 1.724160 
# 
# From -- ./inp_files/155123.got.cif
#   From: 2010.05.17/outbox.cif.g08.bks.cpg/sg15_78_cif.got.tgz:155123.got - 2010.06.03 18:47:42.
