data_PCOD9300667
_publ_section_title
;
Structure prediction by ZEFSAII (Michael W. Deem and Ramdas Pophale) SiO2 
 PCOD9300667
Probable space group: C 2/C
;
_chemical_formula_sum "Si O2"
_cell_formula_units_Z 56
_cell_length_a 24.457085
_cell_length_b 19.273665
_cell_length_c 12.237501
_cell_angle_alpha 90.000000
_cell_angle_beta 28.848305
_cell_angle_gamma 90.000000
_cell_volume 2783.249417
_symmetry_space_group_name_H-M "C 2/C"
_symmetry_group_IT_number 15
_symmetry_cell_setting 'monoclinic'
loop_
_space_group_symop_operation_xyz
x,y,z
-x,y,1/2-z
-x,-y,-z
x,-y,1/2+z
1/2+x,1/2+y,z
1/2-x,1/2+y,1/2-z
1/2-x,1/2-y,-z
1/2+x,1/2-y,1/2+z
loop_
_atom_site_type_symbol
_atom_site_label
_atom_site_fract_x
_atom_site_fract_y
_atom_site_fract_z
Si Si1 0.607306 0.347259 0.614008
Si Si2 0.676327 0.456051 0.662528
Si Si3 0.038268 0.920487 0.309264
Si Si4 0.628482 0.265760 0.160692
Si Si5 0.570202 0.772505 0.348585
Si Si6 0.621626 0.111625 0.585855
Si Si7 0.739171 0.261572 0.741435
O O1 0.500000 0.385760 0.750000
O O2 0.678869 0.399216 0.561564
O O3 0.556918 0.287029 0.780345
O O4 0.679624 0.305319 0.398569
O O5 0.637005 0.527132 0.674956
O O6 0.791721 0.448593 0.529557
O O7 0.572773 0.434873 0.923418
O O8 0.083050 0.843641 0.254137
O O9 0.000000 0.927275 0.250000
O O10 0.536661 0.220132 0.385060
O O11 0.750000 0.250000 0.000000
O O12 0.649066 0.258202 0.995635
O O13 0.594990 0.841890 0.239082
O O14 0.673833 0.746539 0.241627
O O15 0.500000 0.090639 0.750000
O O16 0.688865 0.166952 0.389411
#
# Coordination Sequence:
#
# PCOD9300667 Si02
#       7
#     8   8   8   8   8   8   8
#     4  11  19  34  58  91 124 157 207 265 313 367
#     4  11  22  41  65  93 128 166 218 261 311 389
#     4  11  24  42  66  92 127 172 208 266 326 374
#     4  12  23  37  59  92 129 166 210 265 322 381
#     4  11  19  35  55  89 128 165 207 265 323 370
#     4  11  20  36  61  92 126 170 214 260 319 383
#     4  11  20  34  59  86 129 169 206 265 318 377
#
# _framework density 20.120366000000001
#
# number of rings (size 3 to 8) (size 9 to 14) (size 15 to 20)
#    0.000    0.857    4.286    6.857    0.000    0.000 
#    0.000    0.000    0.000   10.286    0.000    0.000 
#    0.000    0.000    0.000    0.000    0.000    0.000 
#
# Total GULP energy -156439.547698 kJ/mol
# GULP energy per Si atom -5587.126703 kJ/mol
# Density = 2.007457 g / cm^3
# Si number density = 20.120366 Si / 1000 Ang^3
#
#
#
# Elastic Constant Matrix: (Units=GPa)
#
#
# Indices 1 2 3 4 5 6 
#
# 1 85.3324 24.5140 21.3469 0.0000 -26.5659 0.0000
# 2 24.5140 43.0995 16.1060 0.0000 -0.8230 0.0000
# 3 21.3469 16.1060 99.4217 0.0000 0.3364 0.0000
# 4 0.0000 0.0000 0.0000 19.4265 0.0000 -6.0362
# 5 -26.5659 -0.8230 0.3364 0.0000 49.8484 0.0000
# 6 0.0000 0.0000 0.0000 -6.0362 0.0000 17.1825
#
#
#
# Elastic Compliance Matrix: (Units=1/GPa)
#
#
# Indices 1 2 3 4 5 6 
#
# 1 0.017844 -0.009076 -0.002393 0.000000 0.009376 0.000000
# 2 -0.009076 0.029323 -0.002787 0.000000 -0.004334 0.000000
# 3 -0.002393 -0.002787 0.011028 0.000000 -0.001396 0.000000
# 4 0.000000 0.000000 0.000000 0.057783 0.000000 0.020299
# 5 0.009376 -0.004334 -0.001396 0.000000 0.024995 0.000000
# 6 0.000000 0.000000 0.000000 0.020299 0.000000 0.065330
#
#
# Mechanical properties :
#
#
# Convention : Reuss Voigt Hill
#
# Bulk Modulus (GPa) = 33.68840 39.08749 36.38794
# Shear Modulus (GPa) = 20.43247 28.35060 24.39153
#
# Velocity S-wave (km/s) = 3.19017 3.75780 3.48556
# Velocity P-wave (km/s) = 5.50902 6.18847 5.85860
#
# Compressibility (1/GPa) = 0.02968381
#
# Stress axis : x y z
#
# Youngs Moduli (GPa) = 56.04247 34.10295 90.67763
#
# Poissons Ratio (x) = 0.30951 0.21696
# Poissons Ratio (y) = 0.50864 0.25271
# Poissons Ratio (z) = 0.13409 0.09504
#
# Static dielectric constant tensor:
#      x y z
#    x 1.772420 0.000000 -0.013290 
#    y 0.000000 1.696950 0.000000 
#    z -0.013290 0.000000 1.748120 
# 
# From -- ./inp_files/119817.got.cif
#   From: 2010.05.17/outbox.cif.g08.bks.cpg/sg15_60_cif.got.tgz:119817.got - 2010.06.03 18:47:42.
