data_PCOD9300836
_publ_section_title
;
Structure prediction by ZEFSAII (Michael W. Deem and Ramdas Pophale) SiO2 
 PCOD9300836
Probable space group: C 2/C
;
_chemical_formula_sum "Si O2"
_cell_formula_units_Z 44
_cell_length_a 10.224609
_cell_length_b 10.866772
_cell_length_c 19.902476
_cell_angle_alpha 90.000000
_cell_angle_beta 59.803415
_cell_angle_gamma 90.000000
_cell_volume 1911.266681
_symmetry_space_group_name_H-M "C 2/C"
_symmetry_group_IT_number 15
_symmetry_cell_setting 'monoclinic'
loop_
_space_group_symop_operation_xyz
x,y,z
-x,y,1/2-z
-x,-y,-z
x,-y,1/2+z
1/2+x,1/2+y,z
1/2-x,1/2+y,1/2-z
1/2-x,1/2-y,-z
1/2+x,1/2-y,1/2+z
loop_
_atom_site_type_symbol
_atom_site_label
_atom_site_fract_x
_atom_site_fract_y
_atom_site_fract_z
Si Si1 0.387407 0.345278 0.014546
Si Si2 0.775338 0.055353 0.951808
Si Si3 0.000000 0.891790 0.750000
Si Si4 0.061854 0.684704 0.625148
Si Si5 0.053978 0.726113 0.090887
Si Si6 0.326446 0.973927 0.661293
O O1 0.381504 0.459850 0.964740
O O2 0.410374 0.230768 0.957972
O O3 0.231356 0.360915 0.096560
O O4 0.507888 0.310337 0.039354
O O5 0.856146 0.169580 0.891847
O O6 0.682837 0.984786 0.917707
O O7 0.663666 0.119912 0.034016
O O8 0.970551 0.800295 0.819579
O O9 0.848801 0.968015 0.772998
O O10 0.929875 0.584304 0.662154
O O11 0.911076 0.654134 0.156877
#
# Coordination Sequence:
#
# PCOD9300836 Si02
#       6
#     8   8   4   8   8   8
#     4  11  19  40  70  95 127 164 210 267 318 377
#     4  11  22  37  66 103 127 162 204 266 327 373
#     4  12  26  44  62  90 124 182 216 254 328 378
#     4  11  23  40  69  95 120 169 217 261 323 376
#     4  11  22  37  66 103 129 158 211 261 321 382
#     4  12  23  44  64  87 135 169 209 267 312 386
#
# _framework density 23.021383
#
# number of rings (size 3 to 8) (size 9 to 14) (size 15 to 20)
#    0.000    0.727    7.273    2.182    0.000    1.455 
#    0.000    1.818    0.000    0.000    0.000    0.000 
#    0.000    0.000    0.000    0.000    0.000    0.000 
#
# Total GULP energy -122715.438470 kJ/mol
# GULP energy per Si atom -5577.974476 kJ/mol
# Density = 2.296899 g / cm^3
# Si number density = 23.021383 Si / 1000 Ang^3
#
#
#
# Elastic Constant Matrix: (Units=GPa)
#
#
# Indices 1 2 3 4 5 6 
#
# 1 51.4636 32.3911 15.2139 0.0000 -22.6923 0.0000
# 2 32.3911 83.1619 14.2951 0.0000 -18.7484 0.0000
# 3 15.2139 14.2951 60.3447 0.0000 -25.3349 0.0000
# 4 0.0000 0.0000 0.0000 20.5097 0.0000 -17.8218
# 5 -22.6923 -18.7484 -25.3349 0.0000 35.6188 0.0000
# 6 0.0000 0.0000 0.0000 -17.8218 0.0000 42.8460
#
#
#
# Elastic Compliance Matrix: (Units=1/GPa)
#
#
# Indices 1 2 3 4 5 6 
#
# 1 0.031981 -0.008933 0.000903 0.000000 0.016314 0.000000
# 2 -0.008933 0.016143 -0.000562 0.000000 0.002406 0.000000
# 3 0.000903 -0.000562 0.023659 0.000000 0.017108 0.000000
# 4 0.000000 0.000000 0.000000 0.076355 0.000000 0.031760
# 5 0.016314 0.002406 0.017108 0.000000 0.051904 0.000000
# 6 0.000000 0.000000 0.000000 0.031760 0.000000 0.036550
#
#
# Mechanical properties :
#
#
# Convention : Reuss Voigt Hill
#
# Bulk Modulus (GPa) = 18.31553 35.41893 26.86723
# Shear Modulus (GPa) = 18.38397 28.66625 23.52511
#
# Velocity S-wave (km/s) = 2.82895 3.53257 3.20016
# Velocity P-wave (km/s) = 4.31784 5.66192 5.03493
#
# Compressibility (1/GPa) = 0.05459847
#
# Stress axis : x y z
#
# Youngs Moduli (GPa) = 31.26895 61.94508 42.26647
#
# Poissons Ratio (x) = 0.55339 -0.03815
# Poissons Ratio (y) = 0.27934 0.02374
# Poissons Ratio (z) = -0.02823 0.03479
#
# Static dielectric constant tensor:
#      x y z
#    x 2.023640 0.000000 -0.071040 
#    y 0.000000 1.923990 0.000000 
#    z -0.071040 0.000000 1.875610 
# 
# From -- ./inp_files/268359.got.cif
#   From: 2010.05.17/outbox.cif.g08.bks.cpg/sg15_135_cif.got.tgz:268359.got - 2010.06.03 18:47:42.
