data_PCOD9300242
_publ_section_title
;
Structure prediction by ZEFSAII (Michael W. Deem and Ramdas Pophale) SiO2 
 PCOD9300242
Probable space group: C 2/C
;
_chemical_formula_sum "Si O2"
_cell_formula_units_Z 48
_cell_length_a 18.966746
_cell_length_b 4.940630
_cell_length_c 23.125461
_cell_angle_alpha 90.000000
_cell_angle_beta 126.967507
_cell_angle_gamma 90.000000
_cell_volume 1731.408958
_symmetry_space_group_name_H-M "C 2/C"
_symmetry_group_IT_number 15
_symmetry_cell_setting 'monoclinic'
loop_
_space_group_symop_operation_xyz
x,y,z
-x,y,1/2-z
-x,-y,-z
x,-y,1/2+z
1/2+x,1/2+y,z
1/2-x,1/2+y,1/2-z
1/2-x,1/2-y,-z
1/2+x,1/2-y,1/2+z
loop_
_atom_site_type_symbol
_atom_site_label
_atom_site_fract_x
_atom_site_fract_y
_atom_site_fract_z
Si Si1 0.868637 0.030641 0.398946
Si Si2 0.919369 0.039590 0.627027
Si Si3 0.783973 0.773334 0.625044
Si Si4 0.872635 0.601775 0.003093
Si Si5 0.500000 0.000000 0.000000
Si Si6 0.000000 0.572461 0.250000
Si Si7 0.395112 0.676575 0.285986
O O1 0.775631 0.979464 0.385956
O O2 0.924598 0.755892 0.431240
O O3 0.912367 0.263009 0.461904
O O4 0.854837 0.167628 0.330171
O O5 0.868182 0.773595 0.623863
O O6 0.869055 0.180227 0.550238
O O7 0.925587 0.236463 0.685070
O O8 0.021962 0.019404 0.664060
O O9 0.716422 0.957255 0.555523
O O10 0.816810 0.889130 0.702549
O O11 0.957569 0.409974 0.046254
O O12 0.052783 0.406241 0.226324
#
# Coordination Sequence:
#
# PCOD9300242 Si02
#       7
#     8   8   8   8   4   4   8
#     4  10  27  46  80 108 165 201 273 343 418 505
#     4  12  26  51  78 110 166 215 284 341 429 526
#     4  12  26  48  73 126 152 209 277 356 418 494
#     4  10  26  46  78 111 163 212 274 343 427 499
#     4   8  22  50  64 116 140 222 252 320 420 498
#     4  12  24  48  80 106 156 226 282 330 414 530
#     4  12  27  49  78 115 158 225 272 345 433 509
#
# _framework density 27.723085000000001
#
# number of rings (size 3 to 8) (size 9 to 14) (size 15 to 20)
#    1.000    0.000    3.333    1.500    7.000    4.667 
#    0.000    0.000    0.000    0.000    0.000    0.000 
#    0.000    0.000    0.000    0.000    0.000    0.000 
#
# Total GULP energy -133866.658688 kJ/mol
# GULP energy per Si atom -5577.777445 kJ/mol
# Density = 2.765999 g / cm^3
# Si number density = 27.723085 Si / 1000 Ang^3
#
#
#
# Elastic Constant Matrix: (Units=GPa)
#
#
# Indices 1 2 3 4 5 6 
#
# 1 137.3912 34.8169 35.0185 -0.0003 -0.5056 0.0009
# 2 34.8169 108.1863 40.5838 -0.0025 -0.9861 0.0041
# 3 35.0185 40.5838 127.9461 -0.0004 -9.4376 -0.0005
# 4 -0.0003 -0.0025 -0.0004 31.1778 0.0000 -1.0544
# 5 -0.5056 -0.9861 -9.4376 0.0000 50.4023 -0.0002
# 6 0.0009 0.0041 -0.0005 -1.0544 -0.0002 46.0198
#
#
#
# Elastic Compliance Matrix: (Units=1/GPa)
#
#
# Indices 1 2 3 4 5 6 
#
# 1 0.008206 -0.002036 -0.001620 0.000000 -0.000261 0.000000
# 2 -0.002036 0.011006 -0.002960 0.000001 -0.000359 -0.000001
# 3 -0.001620 -0.002960 0.009321 0.000000 0.001671 0.000000
# 4 0.000000 0.000001 0.000000 0.032099 0.000000 0.000735
# 5 -0.000261 -0.000359 0.001671 0.000000 0.020144 0.000000
# 6 0.000000 -0.000001 0.000000 0.000735 0.000000 0.021747
#
#
# Mechanical properties :
#
#
# Convention : Reuss Voigt Hill
#
# Bulk Modulus (GPa) = 65.35069 66.04021 65.69545
# Shear Modulus (GPa) = 41.37218 43.06030 42.21624
#
# Velocity S-wave (km/s) = 3.86727 3.94538 3.90652
# Velocity P-wave (km/s) = 6.60037 6.68040 6.64051
#
# Compressibility (1/GPa) = 0.01530206
#
# Stress axis : x y z
#
# Youngs Moduli (GPa) = 121.85894 90.86216 107.28127
#
# Poissons Ratio (x) = 0.18498 0.17374
# Poissons Ratio (y) = 0.24808 0.31758
# Poissons Ratio (z) = 0.19735 0.26898
#
# Static dielectric constant tensor:
#      x y z
#    x 2.191080 0.000000 -0.039630 
#    y 0.000000 2.225890 0.000000 
#    z -0.039630 0.000000 2.215530 
# 
# From -- ./inp_files/279064.got.cif
#   From: 2010.05.17/outbox.cif.g08.bks.cpg/sg15_140_cif.got.tgz:279064.got - 2010.06.03 18:47:42.
