data_PCOD9300566
_publ_section_title
;
Structure prediction by ZEFSAII (Michael W. Deem and Ramdas Pophale) SiO2 
 PCOD9300566
Probable space group: C 2/C
;
_chemical_formula_sum "Si O2"
_cell_formula_units_Z 32
_cell_length_a 18.698019
_cell_length_b 7.010963
_cell_length_c 13.799560
_cell_angle_alpha 90.000000
_cell_angle_beta 47.875583
_cell_angle_gamma 90.000000
_cell_volume 1341.717158
_symmetry_space_group_name_H-M "C 2/C"
_symmetry_group_IT_number 15
_symmetry_cell_setting 'monoclinic'
loop_
_space_group_symop_operation_xyz
x,y,z
-x,y,1/2-z
-x,-y,-z
x,-y,1/2+z
1/2+x,1/2+y,z
1/2-x,1/2+y,1/2-z
1/2-x,1/2-y,-z
1/2+x,1/2-y,1/2+z
loop_
_atom_site_type_symbol
_atom_site_label
_atom_site_fract_x
_atom_site_fract_y
_atom_site_fract_z
Si Si1 0.154630 0.642426 0.049445
Si Si2 0.269819 0.813614 0.649486
Si Si3 0.873067 0.515233 0.227060
Si Si4 0.577162 0.664752 0.425049
O O1 0.096623 0.607658 0.200848
O O2 0.250000 0.750000 0.000000
O O3 0.186755 0.439548 0.974967
O O4 0.106665 0.758613 0.004684
O O5 0.225890 0.608301 0.663047
O O6 0.171991 0.907248 0.781507
O O7 0.344449 0.834722 0.670428
O O8 0.944878 0.356159 0.118024
O O9 0.500000 0.500000 0.500000
#
# Coordination Sequence:
#
# PCOD9300566 Si02
#       4
#     8   8   8   8
#     4  11  18  34  63  97 121 169 224 268 313 411
#     4   9  18  32  59  92 130 155 216 265 322 377
#     4   9  17  33  59  97 123 169 216 264 319 399
#     4   9  20  35  58  93 138 170 203 273 338 375
#
# _framework density 23.850035999999999
#
# number of rings (size 3 to 8) (size 9 to 14) (size 15 to 20)
#    1.500    1.000    2.500    0.750    0.000    0.000 
#    0.000    1.250    0.000   16.500    6.500    7.000 
#    0.000    0.000    0.000    0.000    0.000    0.000 
#
# Total GULP energy -89272.954222 kJ/mol
# GULP energy per Si atom -5579.559639 kJ/mol
# Density = 2.379575 g / cm^3
# Si number density = 23.850036 Si / 1000 Ang^3
#
#
#
# Elastic Constant Matrix: (Units=GPa)
#
#
# Indices 1 2 3 4 5 6 
#
# 1 87.6241 31.3720 55.4314 -0.0019 21.7212 0.0031
# 2 31.3720 78.9477 10.1526 -0.0044 5.8444 0.0089
# 3 55.4314 10.1526 88.9735 -0.0014 28.2343 0.0035
# 4 -0.0019 -0.0044 -0.0014 23.8567 0.0000 -9.7793
# 5 21.7212 5.8444 28.2343 0.0000 46.4030 -0.0007
# 6 0.0031 0.0089 0.0035 -9.7793 -0.0007 45.1387
#
#
#
# Elastic Compliance Matrix: (Units=1/GPa)
#
#
# Indices 1 2 3 4 5 6 
#
# 1 0.022353 -0.007131 -0.012489 0.000000 -0.001967 0.000001
# 2 -0.007131 0.015161 0.002800 0.000001 -0.000275 -0.000002
# 3 -0.012489 0.002800 0.021015 0.000000 -0.007293 -0.000001
# 4 0.000000 0.000001 0.000000 0.046002 0.000000 0.009966
# 5 -0.001967 -0.000275 -0.007293 0.000000 0.026943 0.000001
# 6 0.000001 -0.000002 -0.000001 0.009966 0.000001 0.024313
#
#
# Mechanical properties :
#
#
# Convention : Reuss Voigt Hill
#
# Bulk Modulus (GPa) = 40.17742 49.93969 45.05855
# Shear Modulus (GPa) = 25.28790 33.65233 29.47012
#
# Velocity S-wave (km/s) = 3.25974 3.76040 3.51898
# Velocity P-wave (km/s) = 5.57228 6.31179 5.95353
#
# Compressibility (1/GPa) = 0.02488960
#
# Stress axis : x y z
#
# Youngs Moduli (GPa) = 44.73601 65.96038 47.58569
#
# Poissons Ratio (x) = 0.47037 0.59428
# Poissons Ratio (y) = 0.31902 -0.13325
# Poissons Ratio (z) = 0.55869 -0.18470
#
# Static dielectric constant tensor:
#      x y z
#    x 1.928770 0.000000 -0.062270 
#    y 0.000000 1.909340 0.000000 
#    z -0.062270 0.000000 1.920250 
# 
# From -- ./inp_files/102359.got.cif
#   From: 2010.05.17/outbox.cif.g08.bks.cpg/sg15_52_cif.got.tgz:102359.got - 2010.06.03 18:47:42.
