data_PCOD9300903
_publ_section_title
;
Structure prediction by ZEFSAII (Michael W. Deem and Ramdas Pophale) SiO2 
 PCOD9300903
Probable space group: C 2/C
;
_chemical_formula_sum "Si O2"
_cell_formula_units_Z 64
_cell_length_a 14.910102
_cell_length_b 12.809270
_cell_length_c 20.196406
_cell_angle_alpha 90.000000
_cell_angle_beta 56.372138
_cell_angle_gamma 90.000000
_cell_volume 3211.756679
_symmetry_space_group_name_H-M "C 2/C"
_symmetry_group_IT_number 15
_symmetry_cell_setting 'monoclinic'
loop_
_space_group_symop_operation_xyz
x,y,z
-x,y,1/2-z
-x,-y,-z
x,-y,1/2+z
1/2+x,1/2+y,z
1/2-x,1/2+y,1/2-z
1/2-x,1/2-y,-z
1/2+x,1/2-y,1/2+z
loop_
_atom_site_type_symbol
_atom_site_label
_atom_site_fract_x
_atom_site_fract_y
_atom_site_fract_z
Si Si1 0.194858 0.618614 0.327155
Si Si2 0.570556 0.415939 0.009175
Si Si3 0.621306 0.769175 0.638903
Si Si4 0.245521 0.852787 0.289844
Si Si5 0.041892 0.320083 0.539490
Si Si6 0.017753 0.087317 0.817754
Si Si7 0.779607 0.442183 0.834099
Si Si8 0.204272 0.395274 0.372290
O O1 0.232713 0.737328 0.323712
O O2 0.232534 0.595199 0.236728
O O3 0.233664 0.518320 0.353974
O O4 0.065444 0.625902 0.389208
O O5 0.683558 0.413710 0.924244
O O6 0.500000 0.500000 0.000000
O O7 0.521018 0.299465 0.025184
O O8 0.564680 0.446248 0.089940
O O9 0.633768 0.804855 0.558050
O O10 0.509079 0.709180 0.680551
O O11 0.623354 0.873480 0.679456
O O12 0.704989 0.683029 0.633881
O O13 0.133977 0.905276 0.305942
O O14 0.315272 0.854322 0.194345
O O15 0.289304 0.934112 0.325255
O O16 0.097389 0.383004 0.458470
O O17 0.000000 0.042220 0.750000
#
# Coordination Sequence:
#
# PCOD9300903 Si02
#       8
#     8   8   8   8   8   8   8   8
#     4  11  21  37  56  80 121 154 194 239 294 360
#     4  11  20  34  57  86 122 152 193 245 300 353
#     4  11  21  34  59  89 116 146 194 252 292 337
#     4  11  20  38  55  86 118 157 195 241 300 355
#     4  11  22  36  56  87 118 152 198 248 300 344
#     4  11  20  32  59  85 121 143 193 249 296 336
#     4  11  22  34  57  89 115 154 198 247 289 351
#     4  11  22  33  55  86 119 147 193 249 293 348
#
# _framework density 19.92679
#
# number of rings (size 3 to 8) (size 9 to 14) (size 15 to 20)
#    0.000    1.000    7.500    0.750    1.750    0.000 
#    0.000    0.000    0.000    0.750    9.750    3.500 
#    0.000    0.000    0.000    0.000    0.000    0.000 
#
# Total GULP energy -178140.754980 kJ/mol
# GULP energy per Si atom -5566.898593 kJ/mol
# Density = 1.988144 g / cm^3
# Si number density = 19.926790 Si / 1000 Ang^3
#
#
#
# Elastic Constant Matrix: (Units=GPa)
#
#
# Indices 1 2 3 4 5 6 
#
# 1 45.7253 38.9004 22.0142 0.0000 0.4101 0.0000
# 2 38.9004 146.6959 33.0299 0.0000 9.4661 0.0000
# 3 22.0142 33.0299 143.7106 0.0000 -0.5585 0.0000
# 4 0.0000 0.0000 0.0000 28.5401 0.0000 2.7538
# 5 0.4101 9.4661 -0.5585 0.0000 24.7343 0.0000
# 6 0.0000 0.0000 0.0000 2.7538 0.0000 33.6313
#
#
#
# Elastic Compliance Matrix: (Units=1/GPa)
#
#
# Indices 1 2 3 4 5 6 
#
# 1 0.029429 -0.007314 -0.002818 0.000000 0.002248 0.000000
# 2 -0.007314 0.009204 -0.001008 0.000000 -0.003424 0.000000
# 3 -0.002818 -0.001008 0.007624 0.000000 0.000605 0.000000
# 4 0.000000 0.000000 0.000000 0.035317 0.000000 -0.002892
# 5 0.002248 -0.003424 0.000605 0.000000 0.041717 0.000000
# 6 0.000000 0.000000 0.000000 -0.002892 0.000000 0.029971
#
#
# Mechanical properties :
#
#
# Convention : Reuss Voigt Hill
#
# Bulk Modulus (GPa) = 41.70882 58.22455 49.96668
# Shear Modulus (GPa) = 27.24252 33.52697 30.38474
#
# Velocity S-wave (km/s) = 3.70148 4.10629 3.90913
# Velocity P-wave (km/s) = 6.26454 7.19478 6.74571
#
# Compressibility (1/GPa) = 0.02397574
#
# Stress axis : x y z
#
# Youngs Moduli (GPa) = 33.98003 108.64321 131.16060
#
# Poissons Ratio (x) = 0.79466 0.36964
# Poissons Ratio (y) = 0.24854 0.13226
# Poissons Ratio (z) = 0.09576 0.10955
#
# Static dielectric constant tensor:
#      x y z
#    x 1.733650 0.000000 -0.024070 
#    y 0.000000 1.722840 0.000000 
#    z -0.024070 0.000000 1.873510 
# 
# From -- ./inp_files/248373.got.cif
#   From: 2010.05.17/outbox.cif.g08.bks.cpg/sg15_125_cif.got.tgz:248373.got - 2010.06.03 18:47:42.
