data_PCOD9300930
_publ_section_title
;
Structure prediction by ZEFSAII (Michael W. Deem and Ramdas Pophale) SiO2 
 PCOD9300930
Probable space group: C 2/C
;
_chemical_formula_sum "Si O2"
_cell_formula_units_Z 64
_cell_length_a 21.118854
_cell_length_b 6.143886
_cell_length_c 18.948159
_cell_angle_alpha 90.000000
_cell_angle_beta 82.926438
_cell_angle_gamma 90.000000
_cell_volume 2439.845915
_symmetry_space_group_name_H-M "C 2/C"
_symmetry_group_IT_number 15
_symmetry_cell_setting 'monoclinic'
loop_
_space_group_symop_operation_xyz
x,y,z
-x,y,1/2-z
-x,-y,-z
x,-y,1/2+z
1/2+x,1/2+y,z
1/2-x,1/2+y,1/2-z
1/2-x,1/2-y,-z
1/2+x,1/2-y,1/2+z
loop_
_atom_site_type_symbol
_atom_site_label
_atom_site_fract_x
_atom_site_fract_y
_atom_site_fract_z
Si Si1 0.790112 0.149985 0.906869
Si Si2 0.336133 0.911985 0.588564
Si Si3 0.119525 0.198768 0.137048
Si Si4 0.891998 0.434144 0.955603
Si Si5 0.486092 0.084948 0.166825
Si Si6 0.981898 0.077846 0.169812
Si Si7 0.667372 0.155492 0.765882
Si Si8 0.714888 0.522965 0.838573
O O1 0.726761 0.022612 0.937495
O O2 0.844103 0.232899 0.952690
O O3 0.762160 0.350860 0.868053
O O4 0.829856 0.986239 0.852938
O O5 0.337768 0.982267 0.670840
O O6 0.396418 0.000437 0.536869
O O7 0.319097 0.661288 0.596740
O O8 0.142257 0.349390 0.070712
O O9 0.052671 0.094360 0.125947
O O10 0.120501 0.352214 0.205914
O O11 0.953386 0.413126 0.896434
O O12 0.500000 0.095059 0.250000
O O13 0.456153 0.330766 0.156407
O O14 0.459353 0.832502 0.160519
O O15 0.000000 0.069931 0.250000
O O16 0.661944 0.387936 0.804203
O O17 0.738389 0.144494 0.722213
#
# Coordination Sequence:
#
# PCOD9300930 Si02
#       8
#     8   8   8   8   8   8   8   8
#     4  11  20  34  52  77 109 148 196 234 282 336
#     4  11  24  35  51  76 116 160 189 235 291 338
#     4  11  21  34  57  81 111 147 197 247 285 351
#     4  11  22  36  53  84 114 143 192 244 298 349
#     4   9  18  35  58  84 114 143 183 240 305 358
#     4   9  18  34  57  88 115 139 183 246 311 350
#     4  11  20  35  52  73 105 155 201 235 269 343
#     4  11  20  35  50  69 108 153 199 235 272 329
#
# _framework density 26.231166999999999
#
# number of rings (size 3 to 8) (size 9 to 14) (size 15 to 20)
#    0.000    1.500    5.000    1.125    0.000    4.000 
#    0.000    0.000    0.000    0.000    0.000   17.500 
#    0.000    0.000    0.000    0.000    0.000    0.000 
#
# Total GULP energy -178415.565821 kJ/mol
# GULP energy per Si atom -5575.486432 kJ/mol
# Density = 2.617146 g / cm^3
# Si number density = 26.231167 Si / 1000 Ang^3
#
#
#
# Elastic Constant Matrix: (Units=GPa)
#
#
# Indices 1 2 3 4 5 6 
#
# 1 59.4404 41.9219 17.0049 0.0000 -13.5968 0.0000
# 2 41.9219 175.9061 31.1120 0.0000 -0.2780 0.0000
# 3 17.0049 31.1120 102.6569 0.0000 -4.5502 0.0000
# 4 0.0000 0.0000 0.0000 22.7748 0.0000 -4.2966
# 5 -13.5968 -0.2780 -4.5502 0.0000 20.4397 0.0000
# 6 0.0000 0.0000 0.0000 -4.2966 0.0000 37.9972
#
#
#
# Elastic Compliance Matrix: (Units=1/GPa)
#
#
# Indices 1 2 3 4 5 6 
#
# 1 0.024976 -0.005623 -0.001717 0.000000 0.016156 0.000000
# 2 -0.005623 0.007275 -0.001449 0.000000 -0.003964 0.000000
# 3 -0.001717 -0.001449 0.010517 0.000000 0.001179 0.000000
# 4 0.000000 0.000000 0.000000 0.044865 0.000000 0.005073
# 5 0.016156 -0.003964 0.001179 0.000000 0.059880 0.000000
# 6 0.000000 0.000000 0.000000 0.005073 0.000000 0.026891
#
#
# Mechanical properties :
#
#
# Convention : Reuss Voigt Hill
#
# Bulk Modulus (GPa) = 39.69848 57.56457 48.63152
# Shear Modulus (GPa) = 24.95261 32.77332 28.86296
#
# Velocity S-wave (km/s) = 3.08759 3.53853 3.32072
# Velocity P-wave (km/s) = 5.27995 6.21994 5.76912
#
# Compressibility (1/GPa) = 0.02518988
#
# Stress axis : x y z
#
# Youngs Moduli (GPa) = 40.03812 137.45750 95.08380
#
# Poissons Ratio (x) = 0.77294 0.16326
# Poissons Ratio (y) = 0.22514 0.13778
# Poissons Ratio (z) = 0.06875 0.19918
#
# Static dielectric constant tensor:
#      x y z
#    x 2.162390 0.000000 -0.091920 
#    y 0.000000 2.121390 0.000000 
#    z -0.091920 0.000000 2.114300 
# 
# From -- ./inp_files/258439.got.cif
#   From: 2010.05.17/outbox.cif.g08.bks.cpg/sg15_130_cif.got.tgz:258439.got - 2010.06.03 18:47:42.
