data_PCOD9300901
_publ_section_title
;
Structure prediction by ZEFSAII (Michael W. Deem and Ramdas Pophale) SiO2 
 PCOD9300901
Probable space group: C 2/C
;
_chemical_formula_sum "Si O2"
_cell_formula_units_Z 48
_cell_length_a 29.919622
_cell_length_b 12.419690
_cell_length_c 8.039413
_cell_angle_alpha 90.000000
_cell_angle_beta 112.604534
_cell_angle_gamma 90.000000
_cell_volume 2757.893511
_symmetry_space_group_name_H-M "C 2/C"
_symmetry_group_IT_number 15
_symmetry_cell_setting 'monoclinic'
loop_
_space_group_symop_operation_xyz
x,y,z
-x,y,1/2-z
-x,-y,-z
x,-y,1/2+z
1/2+x,1/2+y,z
1/2-x,1/2+y,1/2-z
1/2-x,1/2-y,-z
1/2+x,1/2-y,1/2+z
loop_
_atom_site_type_symbol
_atom_site_label
_atom_site_fract_x
_atom_site_fract_y
_atom_site_fract_z
Si Si1 0.203312 0.149142 0.254878
Si Si2 0.320965 0.126518 0.906034
Si Si3 0.392437 0.070103 0.488695
Si Si4 0.309999 0.202276 0.269161
Si Si5 0.288046 0.579128 0.851149
Si Si6 0.537032 0.946857 0.679761
O O1 0.173419 0.256449 0.170087
O O2 0.257067 0.176804 0.264583
O O3 0.205848 0.122267 0.453334
O O4 0.189918 0.038288 0.144274
O O5 0.269503 0.077124 0.772957
O O6 0.316802 0.147580 0.098707
O O7 0.363251 0.042612 0.922691
O O8 0.350027 0.155590 0.452311
O O9 0.422320 0.110704 0.370781
O O10 0.432458 0.039649 0.681846
O O11 0.311168 0.331304 0.263080
O O12 0.500000 0.886498 0.750000
O O13 0.500000 0.000000 0.500000
#
# Coordination Sequence:
#
# PCOD9300901 Si02
#       6
#     8   8   8   8   8   8
#     4  11  22  34  48  68 107 142 185 217 248 287
#     4  11  21  32  50  75 101 143 180 214 251 295
#     4  11  20  32  56  78 108 134 178 204 256 328
#     4  11  21  32  50  75 101 143 180 214 251 296
#     4  11  22  34  48  68 107 142 185 217 248 286
#     4   9  20  36  52  76 106 134 158 216 274 322
#
# _framework density 17.404586999999999
#
# number of rings (size 3 to 8) (size 9 to 14) (size 15 to 20)
#    0.000    1.333    3.333    6.000    4.667    0.000 
#    0.000    0.000    0.000    0.000    0.000    0.000 
#    0.000   26.667    0.000    0.000    0.000    0.000 
#
# Total GULP energy -133789.652037 kJ/mol
# GULP energy per Si atom -5574.568835 kJ/mol
# Density = 1.736497 g / cm^3
# Si number density = 17.404587 Si / 1000 Ang^3
#
#
#
# Elastic Constant Matrix: (Units=GPa)
#
#
# Indices 1 2 3 4 5 6 
#
# 1 66.0044 21.5116 15.7776 0.0000 1.4123 0.0000
# 2 21.5116 100.8753 11.5658 0.0000 7.6472 0.0000
# 3 15.7776 11.5658 74.1563 0.0000 7.9470 0.0000
# 4 0.0000 0.0000 0.0000 20.7312 0.0000 -6.0186
# 5 1.4123 7.6472 7.9470 0.0000 30.8777 0.0000
# 6 0.0000 0.0000 0.0000 -6.0186 0.0000 4.6172
#
#
#
# Elastic Compliance Matrix: (Units=1/GPa)
#
#
# Indices 1 2 3 4 5 6 
#
# 1 0.016976 -0.003320 -0.003187 0.000000 0.000866 0.000000
# 2 -0.003320 0.010884 -0.000739 0.000000 -0.002354 0.000000
# 3 -0.003187 -0.000739 0.014647 0.000000 -0.003441 0.000000
# 4 0.000000 0.000000 0.000000 0.077604 0.000000 0.101159
# 5 0.000866 -0.002354 -0.003441 0.000000 0.033815 0.000000
# 6 0.000000 0.000000 0.000000 0.101159 0.000000 0.348446
#
#
# Mechanical properties :
#
#
# Convention : Reuss Voigt Hill
#
# Bulk Modulus (GPa) = 35.69483 37.63844 36.66663
# Shear Modulus (GPa) = 9.50204 24.05729 16.77966
#
# Velocity S-wave (km/s) = 2.33909 3.72188 3.10836
# Velocity P-wave (km/s) = 5.27717 6.33580 5.83056
#
# Compressibility (1/GPa) = 0.02801526
#
# Stress axis : x y z
#
# Youngs Moduli (GPa) = 58.90707 91.87429 68.27318
#
# Poissons Ratio (x) = 0.30506 0.21757
# Poissons Ratio (y) = 0.19559 0.05045
# Poissons Ratio (z) = 0.18772 0.06789
#
# Static dielectric constant tensor:
#      x y z
#    x 1.605190 0.000000 -0.049000 
#    y 0.000000 1.609730 0.000000 
#    z -0.049000 0.000000 1.672340 
# 
# From -- ./inp_files/64857.got.cif
#   From: 2010.05.17/outbox.cif.g08.bks.cpg/sg15_33_cif.got.tgz:64857.got - 2010.06.03 18:47:42.
