data_PCOD9300706
_publ_section_title
;
Structure prediction by ZEFSAII (Michael W. Deem and Ramdas Pophale) SiO2 
 PCOD9300706
Probable space group: C 2/C
;
_chemical_formula_sum "Si O2"
_cell_formula_units_Z 56
_cell_length_a 18.089467
_cell_length_b 16.587386
_cell_length_c 10.681260
_cell_angle_alpha 90.000000
_cell_angle_beta 61.054449
_cell_angle_gamma 90.000000
_cell_volume 2804.619720
_symmetry_space_group_name_H-M "C 2/C"
_symmetry_group_IT_number 15
_symmetry_cell_setting 'monoclinic'
loop_
_space_group_symop_operation_xyz
x,y,z
-x,y,1/2-z
-x,-y,-z
x,-y,1/2+z
1/2+x,1/2+y,z
1/2-x,1/2+y,1/2-z
1/2-x,1/2-y,-z
1/2+x,1/2-y,1/2+z
loop_
_atom_site_type_symbol
_atom_site_label
_atom_site_fract_x
_atom_site_fract_y
_atom_site_fract_z
Si Si1 0.618739 0.068521 0.341934
Si Si2 0.677581 0.609996 0.655495
Si Si3 0.029298 0.587187 0.854311
Si Si4 0.591116 0.229256 0.218805
Si Si5 0.335114 0.183291 0.606503
Si Si6 0.052565 0.031827 0.334977
Si Si7 0.803665 0.866344 0.660876
O O1 0.558716 0.058146 0.511410
O O2 0.585150 0.150967 0.307803
O O3 0.718310 0.087255 0.274400
O O4 0.590699 0.990521 0.284779
O O5 0.636238 0.693327 0.736464
O O6 0.767089 0.611498 0.652181
O O7 0.616616 0.538364 0.740599
O O8 0.687712 0.616376 0.496124
O O9 0.083133 0.650176 0.890570
O O10 0.000000 0.625759 0.750000
O O11 0.500000 0.257133 0.250000
O O12 0.642321 0.202162 0.055202
O O13 0.300486 0.269465 0.683387
O O14 0.113090 0.102425 0.336793
O O15 0.000000 0.051104 0.250000
O O16 0.000000 0.000000 0.500000
#
# Coordination Sequence:
#
# PCOD9300706 Si02
#       7
#     8   8   8   8   8   8   8
#     4  11  22  41  65  93 128 170 216 264 326 387
#     4  11  22  41  68 100 129 166 227 278 325 387
#     4  11  26  40  60  94 136 173 212 262 329 403
#     4  11  19  35  69  97 121 163 220 272 319 377
#     4  11  22  41  67  99 128 170 216 276 330 388
#     4  12  26  45  67  99 136 181 222 274 337 396
#     4  11  23  43  71  99 130 167 223 277 331 392
#
# _framework density 19.967055999999999
#
# number of rings (size 3 to 8) (size 9 to 14) (size 15 to 20)
#    0.000    0.857    5.714    2.571    4.000    1.714 
#    2.571    0.714    0.000    0.000    0.000    0.000 
#    0.000    0.000    0.000    0.000    0.000    0.000 
#
# Total GULP energy -156151.294914 kJ/mol
# GULP energy per Si atom -5576.831961 kJ/mol
# Density = 1.992161 g / cm^3
# Si number density = 19.967056 Si / 1000 Ang^3
#
#
#
# Elastic Constant Matrix: (Units=GPa)
#
#
# Indices 1 2 3 4 5 6 
#
# 1 132.3094 26.0694 42.9543 0.0000 -6.0378 0.0000
# 2 26.0694 69.0388 12.1344 0.0000 -1.5313 0.0000
# 3 42.9543 12.1344 51.0707 0.0000 -8.4492 0.0000
# 4 0.0000 0.0000 0.0000 24.6774 0.0000 -13.3068
# 5 -6.0378 -1.5313 -8.4492 0.0000 33.5253 0.0000
# 6 0.0000 0.0000 0.0000 -13.3068 0.0000 15.2814
#
#
#
# Elastic Compliance Matrix: (Units=1/GPa)
#
#
# Indices 1 2 3 4 5 6 
#
# 1 0.010828 -0.002594 -0.008544 0.000000 -0.000322 0.000000
# 2 -0.002594 0.015739 -0.001582 0.000000 -0.000147 0.000000
# 3 -0.008544 -0.001582 0.028046 0.000000 0.005457 0.000000
# 4 0.000000 0.000000 0.000000 0.076394 0.000000 0.066522
# 5 -0.000322 -0.000147 0.005457 0.000000 0.031139 0.000000
# 6 0.000000 0.000000 0.000000 0.066522 0.000000 0.123366
#
#
# Mechanical properties :
#
#
# Convention : Reuss Voigt Hill
#
# Bulk Modulus (GPa) = 34.27924 46.08169 40.18046
# Shear Modulus (GPa) = 15.59202 26.11419 20.85311
#
# Velocity S-wave (km/s) = 2.79747 3.62036 3.23519
# Velocity P-wave (km/s) = 5.25734 6.37221 5.84143
#
# Compressibility (1/GPa) = 0.02917218
#
# Stress axis : x y z
#
# Youngs Moduli (GPa) = 92.34932 63.53648 35.65585
#
# Poissons Ratio (x) = 0.16483 0.30466
# Poissons Ratio (y) = 0.23958 0.05641
# Poissons Ratio (z) = 0.78907 0.10051
#
# Static dielectric constant tensor:
#      x y z
#    x 1.724420 0.000000 -0.014580 
#    y 0.000000 1.707810 0.000000 
#    z -0.014580 0.000000 1.683950 
# 
# From -- ./inp_files/105647.got.cif
#   From: 2010.05.17/outbox.cif.g08.bks.cpg/sg15_53_cif.got.tgz:105647.got - 2010.06.03 18:47:42.
