data_PCOD9300396
_publ_section_title
;
Structure prediction by ZEFSAII (Michael W. Deem and Ramdas Pophale) SiO2 
 PCOD9300396
Probable space group: C 2/C
;
_chemical_formula_sum "Si O2"
_cell_formula_units_Z 52
_cell_length_a 30.865292
_cell_length_b 7.876452
_cell_length_c 20.741386
_cell_angle_alpha 90.000000
_cell_angle_beta 25.960323
_cell_angle_gamma 90.000000
_cell_volume 2207.311328
_symmetry_space_group_name_H-M "C 2/C"
_symmetry_group_IT_number 15
_symmetry_cell_setting 'monoclinic'
loop_
_space_group_symop_operation_xyz
x,y,z
-x,y,1/2-z
-x,-y,-z
x,-y,1/2+z
1/2+x,1/2+y,z
1/2-x,1/2+y,1/2-z
1/2-x,1/2-y,-z
1/2+x,1/2-y,1/2+z
loop_
_atom_site_type_symbol
_atom_site_label
_atom_site_fract_x
_atom_site_fract_y
_atom_site_fract_z
Si Si1 0.984410 0.740422 0.617440
Si Si2 0.384459 0.898443 0.454034
Si Si3 0.477886 0.371973 0.412032
Si Si4 0.500000 0.201223 0.250000
Si Si5 0.882803 0.682395 0.174890
Si Si6 0.221902 0.354377 0.157073
Si Si7 0.214451 0.642532 0.820034
O O1 0.870277 0.751335 0.748564
O O2 0.013750 0.659037 0.646989
O O3 0.040188 0.634375 0.486261
O O4 0.025736 0.930217 0.568218
O O5 0.408992 0.069500 0.382058
O O6 0.323057 0.745005 0.503619
O O7 0.319067 0.968087 0.601344
O O8 0.550805 0.287108 0.365192
O O9 0.372429 0.281174 0.558828
O O10 0.513414 0.321018 0.293366
O O11 0.819913 0.544153 0.299774
O O12 0.804998 0.795611 0.240973
O O13 0.231382 0.373776 0.221712
#
# Coordination Sequence:
#
# PCOD9300396 Si02
#       7
#     8   8   8   4   8   8   8
#     4  12  23  38  68 103 135 171 221 285 354 403
#     4  11  24  43  67  97 136 183 227 276 330 406
#     4  11  25  43  65  94 137 184 228 277 331 407
#     4  10  26  52  66  88 138 196 234 272 322 398
#     4  12  23  38  65 106 141 168 215 284 358 406
#     4  12  21  37  63 103 140 166 221 280 350 403
#     4  11  21  37  63  99 138 169 214 279 348 401
#
# _framework density 23.558070000000001
#
# number of rings (size 3 to 8) (size 9 to 14) (size 15 to 20)
#    0.000    0.615    4.615    4.615    2.154    0.615 
#    0.000   10.000    0.000    0.000    0.000    0.000 
#    0.000    0.000    0.000    0.000    0.000    0.000 
#
# Total GULP energy -145273.174911 kJ/mol
# GULP energy per Si atom -5587.429804 kJ/mol
# Density = 2.350445 g / cm^3
# Si number density = 23.558070 Si / 1000 Ang^3
#
#
#
# Elastic Constant Matrix: (Units=GPa)
#
#
# Indices 1 2 3 4 5 6 
#
# 1 92.7024 85.6665 -39.5451 0.0111 -130.2962 -0.0022
# 2 85.6665 -281.5936 415.2804 -0.0149 456.4585 0.0060
# 3 -39.5451 415.2804 -368.3078 0.0273 -501.5306 -0.0066
# 4 0.0111 -0.0149 0.0273 18.4504 0.0335 -1.5762
# 5 -130.2962 456.4585 -501.5306 0.0335 -517.1282 -0.0093
# 6 -0.0022 0.0060 -0.0066 -1.5762 -0.0093 50.2115
#
#
#
# Elastic Compliance Matrix: (Units=1/GPa)
#
#
# Indices 1 2 3 4 5 6 
#
# 1 0.016402 0.001312 -0.011754 -0.000007 0.008424 0.000000
# 2 0.001312 0.008804 0.001079 -0.000007 0.006394 0.000000
# 3 -0.011754 0.001079 0.017359 0.000006 -0.012922 -0.000001
# 4 -0.000007 -0.000007 0.000006 0.054345 -0.000006 0.001706
# 5 0.008424 0.006394 -0.012922 -0.000006 0.014119 0.000000
# 6 0.000000 0.000000 -0.000001 0.001706 0.000000 0.019969
#
#
# Mechanical properties :
#
#
# Convention : Reuss Voigt Hill
#
# Bulk Modulus (GPa) = 41.94730 40.62273 41.28501
# Shear Modulus (GPa) = 31.71135 -157.59998 -62.94432
#
# Velocity S-wave (km/s) = 3.67289 -8.18802 -5.17463
# Velocity P-wave (km/s) = 5.98594 8.49179 4.25906
#
# Compressibility (1/GPa) = 0.02383944
#
# Stress axis : x y z
#
# Youngs Moduli (GPa) = 60.96827 113.58165 57.60565
#
# Poissons Ratio (x) = -0.14897 0.67709
# Poissons Ratio (y) = -0.07996 -0.06217
# Poissons Ratio (z) = 0.71662 -0.12258
#
# Static dielectric constant tensor:
#      x y z
#    x 1.860470 0.000000 0.026030 
#    y 0.000000 1.930400 0.000000 
#    z 0.026030 0.000000 1.977610 
# 
# From -- ./inp_files/258821.got.cif
#   From: 2010.05.17/outbox.cif.g08.bks.cpg/sg15_130_cif.got.tgz:258821.got - 2010.06.03 18:47:42.
