data_PCOD9300119
_publ_section_title
;
Structure prediction by ZEFSAII (Michael W. Deem and Ramdas Pophale) SiO2 
 PCOD9300119
Probable space group: C 2/C
;
_chemical_formula_sum "Si O2"
_cell_formula_units_Z 36
_cell_length_a 18.724417
_cell_length_b 7.683505
_cell_length_c 21.645775
_cell_angle_alpha 90.000000
_cell_angle_beta 151.247039
_cell_angle_gamma 90.000000
_cell_volume 1498.016737
_symmetry_space_group_name_H-M "C 2/C"
_symmetry_group_IT_number 15
_symmetry_cell_setting 'monoclinic'
loop_
_space_group_symop_operation_xyz
x,y,z
-x,y,1/2-z
-x,-y,-z
x,-y,1/2+z
1/2+x,1/2+y,z
1/2-x,1/2+y,1/2-z
1/2-x,1/2-y,-z
1/2+x,1/2-y,1/2+z
loop_
_atom_site_type_symbol
_atom_site_label
_atom_site_fract_x
_atom_site_fract_y
_atom_site_fract_z
Si Si1 0.136610 0.798092 0.695242
Si Si2 0.081616 0.934789 0.429905
Si Si3 0.014215 0.308075 0.539658
Si Si4 0.000000 0.789610 0.250000
Si Si5 0.121153 0.549428 0.793845
O O1 0.311019 0.788018 0.817269
O O2 0.100334 0.634109 0.711694
O O3 0.052201 0.805421 0.566589
O O4 0.076107 0.966350 0.685340
O O5 0.105008 0.893655 0.375691
O O6 0.069948 0.763133 0.463803
O O7 0.211352 0.060379 0.553830
O O8 0.000000 0.500000 0.500000
O O9 0.088450 0.656562 0.272917
O O10 0.000000 0.626196 0.750000
#
# Coordination Sequence:
#
# PCOD9300119 Si02
#       5
#     8   8   8   4   8
#     4  12  26  47  74 106 146 191 241 306 358 432
#     4  12  26  48  73 107 147 188 248 294 369 427
#     4  12  28  45  76 106 147 190 244 301 367 432
#     4  10  26  44  74 100 148 190 236 300 356 430
#     4  10  26  46  70 104 146 188 247 290 360 431
#
# _framework density 24.031773000000001
#
# number of rings (size 3 to 8) (size 9 to 14) (size 15 to 20)
#    0.667    0.000    2.222    4.000   10.889    2.667 
#    0.000    0.000    0.000    0.000    0.000    0.000 
#    0.000    0.000    0.000    0.000    0.000    0.000 
#
# Total GULP energy -100600.585886 kJ/mol
# GULP energy per Si atom -5588.921438 kJ/mol
# Density = 2.397708 g / cm^3
# Si number density = 24.031773 Si / 1000 Ang^3
#
#
#
# Elastic Constant Matrix: (Units=GPa)
#
#
# Indices 1 2 3 4 5 6 
#
# 1 101.9515 29.7024 48.8171 0.0000 -16.1574 0.0000
# 2 29.7024 65.0865 16.3158 0.0000 -14.0091 0.0000
# 3 48.8171 16.3158 116.0498 0.0000 1.0697 0.0000
# 4 0.0000 0.0000 0.0000 32.2692 0.0000 -3.5542
# 5 -16.1574 -14.0091 1.0697 0.0000 53.7972 0.0000
# 6 0.0000 0.0000 0.0000 -3.5542 0.0000 39.8186
#
#
#
# Elastic Compliance Matrix: (Units=1/GPa)
#
#
# Indices 1 2 3 4 5 6 
#
# 1 0.014181 -0.004434 -0.005372 0.000000 0.003211 0.000000
# 2 -0.004434 0.018317 -0.000742 0.000000 0.003453 0.000000
# 3 -0.005372 -0.000742 0.011000 0.000000 -0.002025 0.000000
# 4 0.000000 0.000000 0.000000 0.031297 0.000000 0.002794
# 5 0.003211 0.003453 -0.002025 0.000000 0.020492 0.000000
# 6 0.000000 0.000000 0.000000 0.002794 0.000000 0.025363
#
#
# Mechanical properties :
#
#
# Convention : Reuss Voigt Hill
#
# Bulk Modulus (GPa) = 44.63742 52.52872 48.58307
# Shear Modulus (GPa) = 33.50915 37.72717 35.61816
#
# Velocity S-wave (km/s) = 3.73818 3.96648 3.85402
# Velocity P-wave (km/s) = 6.10300 6.54849 6.32967
#
# Compressibility (1/GPa) = 0.02240273
#
# Stress axis : x y z
#
# Youngs Moduli (GPa) = 70.51467 54.59480 90.91224
#
# Poissons Ratio (x) = 0.24207 0.48836
# Poissons Ratio (y) = 0.31266 0.06745
# Poissons Ratio (z) = 0.37879 0.04050
#
# Static dielectric constant tensor:
#      x y z
#    x 1.903050 0.000000 -0.017000 
#    y 0.000000 1.992080 0.000000 
#    z -0.017000 0.000000 1.938220 
# 
# From -- ./inp_files/247923.got.cif
#   From: 2010.05.17/outbox.cif.g08.bks.cpg/sg15_124_cif.got.tgz:247923.got - 2010.06.03 18:47:42.
