data_PCOD9300975
_publ_section_title
;
Structure prediction by ZEFSAII (Michael W. Deem and Ramdas Pophale) SiO2 
 PCOD9300975
Probable space group: C 2/C
;
_chemical_formula_sum "Si O2"
_cell_formula_units_Z 60
_cell_length_a 5.329399
_cell_length_b 23.204112
_cell_length_c 23.502183
_cell_angle_alpha 90.000000
_cell_angle_beta 78.927153
_cell_angle_gamma 90.000000
_cell_volume 2852.267633
_symmetry_space_group_name_H-M "C 2/C"
_symmetry_group_IT_number 15
_symmetry_cell_setting 'monoclinic'
loop_
_space_group_symop_operation_xyz
x,y,z
-x,y,1/2-z
-x,-y,-z
x,-y,1/2+z
1/2+x,1/2+y,z
1/2-x,1/2+y,1/2-z
1/2-x,1/2-y,-z
1/2+x,1/2-y,1/2+z
loop_
_atom_site_type_symbol
_atom_site_label
_atom_site_fract_x
_atom_site_fract_y
_atom_site_fract_z
Si Si1 0.812171 0.746210 0.148950
Si Si2 0.914837 0.863849 0.537550
Si Si3 0.000000 0.307317 0.250000
Si Si4 0.733368 0.404512 0.195353
Si Si5 0.122713 0.619359 0.392927
Si Si6 0.990122 0.259819 0.447957
Si Si7 0.865718 0.851716 0.416320
Si Si8 0.289635 0.965525 0.713593
O O1 0.720691 0.767225 0.214556
O O2 0.901276 0.680618 0.139559
O O3 0.577360 0.749622 0.114884
O O4 0.998523 0.794744 0.115157
O O5 0.654246 0.894303 0.568193
O O6 0.985515 0.875621 0.468910
O O7 0.152320 0.874368 0.569656
O O8 0.842455 0.795287 0.542054
O O9 0.914390 0.351176 0.204116
O O10 0.500000 0.399979 0.250000
O O11 0.647197 0.396027 0.134425
O O12 0.851005 0.467361 0.198316
O O13 0.195424 0.571497 0.343972
O O14 0.750000 0.250000 0.500000
O O15 0.095028 0.324171 0.446799
O O16 0.500000 0.944700 0.750000
O O17 0.000000 0.962687 0.750000
#
# Coordination Sequence:
#
# PCOD9300975 Si02
#       8
#     8   8   4   8   8   8   8   8
#     4  11  23  35  62  95 136 168 209 270 333 397
#     4  11  23  39  65  96 136 174 220 263 328 398
#     4  12  22  40  60  96 132 162 216 278 340 386
#     4  11  24  42  67  94 125 173 226 278 326 395
#     4  11  25  44  64  99 133 177 220 272 320 394
#     4  11  20  35  58  91 131 175 217 251 320 409
#     4  12  21  38  62  97 130 175 212 269 338 394
#     4  11  25  49  74  92 126 180 232 270 327 398
#
# _framework density 21.035896000000001
#
# number of rings (size 3 to 8) (size 9 to 14) (size 15 to 20)
#    0.000    0.800    6.000    2.800    0.933    0.000 
#    2.400    1.333    0.000    0.000    0.000    0.000 
#    0.000    0.000    0.000    0.000    0.000    0.000 
#
# Total GULP energy -167540.778413 kJ/mol
# GULP energy per Si atom -5584.692614 kJ/mol
# Density = 2.098802 g / cm^3
# Si number density = 21.035896 Si / 1000 Ang^3
#
#
#
# Elastic Constant Matrix: (Units=GPa)
#
#
# Indices 1 2 3 4 5 6 
#
# 1 76.3687 16.9480 43.2091 0.0000 0.9894 0.0000
# 2 16.9480 54.7429 52.7671 0.0000 4.9900 0.0000
# 3 43.2091 52.7671 134.8070 0.0000 3.3297 0.0000
# 4 0.0000 0.0000 0.0000 9.1372 0.0000 12.4779
# 5 0.9894 4.9900 3.3297 0.0000 35.1022 0.0000
# 6 0.0000 0.0000 0.0000 12.4779 0.0000 14.1352
#
#
#
# Elastic Compliance Matrix: (Units=1/GPa)
#
#
# Indices 1 2 3 4 5 6 
#
# 1 0.015995 -0.000020 -0.005120 0.000000 0.000038 0.000000
# 2 -0.000020 0.029673 -0.011531 0.000000 -0.003124 0.000000
# 3 -0.005120 -0.011531 0.013560 0.000000 0.000497 0.000000
# 4 0.000000 0.000000 0.000000 -0.532554 0.000000 0.470115
# 5 0.000038 -0.003124 0.000497 0.000000 0.028884 0.000000
# 6 0.000000 0.000000 0.000000 0.470115 0.000000 -0.344251
#
#
# Mechanical properties :
#
#
# Convention : Reuss Voigt Hill
#
# Bulk Modulus (GPa) = 38.63091 54.64077 46.63584
# Shear Modulus (GPa) = -6.69595 21.87454 7.58930
#
# Velocity S-wave (km/s) = -1.78606 3.22820 1.90148
# Velocity P-wave (km/s) = 3.76175 6.31873 5.19987
#
# Compressibility (1/GPa) = 0.02588600
#
# Stress axis : x y z
#
# Youngs Moduli (GPa) = 62.51881 33.70032 73.74413
#
# Poissons Ratio (x) = 0.00069 0.37756
# Poissons Ratio (y) = 0.00127 0.85036
# Poissons Ratio (z) = 0.32009 0.38861
#
# Static dielectric constant tensor:
#      x y z
#    x 1.893130 0.000000 -0.009640 
#    y 0.000000 1.733150 0.000000 
#    z -0.009640 0.000000 1.781140 
# 
# From -- ./inp_files/261658.got.cif
#   From: 2010.05.17/outbox.cif.g08.bks.cpg/sg15_131_cif.got.tgz:261658.got - 2010.06.03 18:47:42.
