data_PCOD9300851
_publ_section_title
;
Structure prediction by ZEFSAII (Michael W. Deem and Ramdas Pophale) SiO2 
 PCOD9300851
Probable space group: C 2/C
;
_chemical_formula_sum "Si O2"
_cell_formula_units_Z 64
_cell_length_a 19.147378
_cell_length_b 17.363304
_cell_length_c 21.791740
_cell_angle_alpha 90.000000
_cell_angle_beta 154.586735
_cell_angle_gamma 90.000000
_cell_volume 3109.115794
_symmetry_space_group_name_H-M "C 2/C"
_symmetry_group_IT_number 15
_symmetry_cell_setting 'monoclinic'
loop_
_space_group_symop_operation_xyz
x,y,z
-x,y,1/2-z
-x,-y,-z
x,-y,1/2+z
1/2+x,1/2+y,z
1/2-x,1/2+y,1/2-z
1/2-x,1/2-y,-z
1/2+x,1/2-y,1/2+z
loop_
_atom_site_type_symbol
_atom_site_label
_atom_site_fract_x
_atom_site_fract_y
_atom_site_fract_z
Si Si1 0.509068 0.468670 0.328721
Si Si2 0.246455 0.572880 0.186334
Si Si3 0.136191 0.284520 0.314238
Si Si4 0.963053 0.834814 0.390487
Si Si5 0.296227 0.290227 0.823020
Si Si6 0.817043 0.964115 0.347708
Si Si7 0.682259 0.953456 0.375239
Si Si8 0.952215 0.317499 0.042728
O O1 0.500000 0.452275 0.250000
O O2 0.388592 0.536828 0.256868
O O3 0.471771 0.393786 0.340814
O O4 0.688992 0.498905 0.484518
O O5 0.292974 0.646694 0.265923
O O6 0.222424 0.507921 0.218880
O O7 0.099612 0.600885 0.026892
O O8 0.000000 0.247842 0.250000
O O9 0.203081 0.361410 0.400211
O O10 0.282736 0.228218 0.415948
O O11 0.043855 0.314443 0.180199
O O12 0.873262 0.754882 0.304938
O O13 0.852354 0.877392 0.354257
O O14 0.138217 0.825735 0.561588
O O15 0.433968 0.228541 0.913827
O O16 0.725767 0.969667 0.339053
O O17 0.000000 0.000000 0.500000
O O18 0.500000 0.972121 0.250000
#
# Coordination Sequence:
#
# PCOD9300851 Si02
#       8
#     8   8   8   8   8   8   8   8
#     4  11  25  47  67  95 136 185 227 269 346 416
#     4  11  22  36  70  96 124 178 221 277 334 399
#     4  11  25  38  57  89 137 179 217 257 331 407
#     4  11  23  42  71  98 134 179 224 283 342 405
#     4  12  20  40  66 100 131 161 227 285 337 393
#     4  11  19  41  67  94 133 177 224 268 344 412
#     4  11  23  42  65  95 129 174 224 281 329 401
#     4  12  22  38  58  95 130 170 220 273 326 391
#
# _framework density 20.584630000000001
#
# number of rings (size 3 to 8) (size 9 to 14) (size 15 to 20)
#    0.000    0.750    6.250    2.625    3.500    0.500 
#    2.250    2.500    0.000    0.750    0.000    0.000 
#    0.000    0.000    0.000    0.000    0.000    0.000 
#
# Total GULP energy -178919.584998 kJ/mol
# GULP energy per Si atom -5591.237031 kJ/mol
# Density = 2.053778 g / cm^3
# Si number density = 20.584630 Si / 1000 Ang^3
#
#
#
# Elastic Constant Matrix: (Units=GPa)
#
#
# Indices 1 2 3 4 5 6 
#
# 1 111.2525 18.7544 48.6490 -0.0062 -6.7329 -0.0008
# 2 18.7544 67.4231 39.1067 -0.0094 -4.6428 -0.0024
# 3 48.6490 39.1067 81.4272 -0.0199 -13.2342 -0.0028
# 4 -0.0062 -0.0094 -0.0199 43.1303 -0.0056 -6.1828
# 5 -6.7329 -4.6428 -13.2342 -0.0056 36.0112 -0.0004
# 6 -0.0008 -0.0024 -0.0028 -6.1828 -0.0004 19.9790
#
#
#
# Elastic Compliance Matrix: (Units=1/GPa)
#
#
# Indices 1 2 3 4 5 6 
#
# 1 0.012240 0.001177 -0.007957 -0.000002 -0.000484 -0.000001
# 2 0.001177 0.020709 -0.010826 0.000000 -0.001089 0.000001
# 3 -0.007957 -0.010826 0.023148 0.000009 0.005623 0.000004
# 4 -0.000002 0.000000 0.000009 0.024262 0.000007 0.007508
# 5 -0.000484 -0.001089 0.005623 0.000007 0.029605 0.000003
# 6 -0.000001 0.000001 0.000004 0.007508 0.000003 0.052376
#
#
# Mechanical properties :
#
#
# Convention : Reuss Voigt Hill
#
# Bulk Modulus (GPa) = 47.87992 52.56923 50.22458
# Shear Modulus (GPa) = 24.44831 30.06361 27.25596
#
# Velocity S-wave (km/s) = 3.45004 3.82578 3.64276
# Velocity P-wave (km/s) = 6.25946 6.71632 6.49191
#
# Compressibility (1/GPa) = 0.02088558
#
# Stress axis : x y z
#
# Youngs Moduli (GPa) = 81.69723 48.28932 43.20010
#
# Poissons Ratio (x) = -0.05684 0.34374
# Poissons Ratio (y) = -0.09617 0.46768
# Poissons Ratio (z) = 0.65007 0.52277
#
# Static dielectric constant tensor:
#      x y z
#    x 1.737740 0.000000 -0.029820 
#    y 0.000000 1.769170 0.000000 
#    z -0.029820 0.000000 1.775890 
# 
# From -- ./inp_files/280511.got.cif
#   From: 2010.05.17/outbox.cif.g08.bks.cpg/sg15_141_cif.got.tgz:280511.got - 2010.06.03 18:47:42.
