data_PCOD9300206
_publ_section_title
;
Structure prediction by ZEFSAII (Michael W. Deem and Ramdas Pophale) SiO2 
 PCOD9300206
Probable space group: C 2/C
;
_chemical_formula_sum "Si O2"
_cell_formula_units_Z 24
_cell_length_a 17.229741
_cell_length_b 5.076110
_cell_length_c 10.679309
_cell_angle_alpha 90.000000
_cell_angle_beta 91.725779
_cell_angle_gamma 90.000000
_cell_volume 933.589354
_symmetry_space_group_name_H-M "C 2/C"
_symmetry_group_IT_number 15
_symmetry_cell_setting 'monoclinic'
loop_
_space_group_symop_operation_xyz
x,y,z
-x,y,1/2-z
-x,-y,-z
x,-y,1/2+z
1/2+x,1/2+y,z
1/2-x,1/2+y,1/2-z
1/2-x,1/2-y,-z
1/2+x,1/2-y,1/2+z
loop_
_atom_site_type_symbol
_atom_site_label
_atom_site_fract_x
_atom_site_fract_y
_atom_site_fract_z
Si Si1 0.510729 0.807929 0.116281
Si Si2 0.764778 0.561414 0.334984
Si Si3 0.129531 0.069423 0.515344
O O1 0.500000 0.938346 0.250000
O O2 0.588343 0.637838 0.104110
O O3 0.436426 0.618741 0.091771
O O4 0.500000 0.000000 0.000000
O O5 0.768792 0.317101 0.240782
O O6 0.842503 0.677173 0.403323
O O7 0.705503 0.484941 0.442959
#
# Coordination Sequence:
#
# PCOD9300206 Si02
#       3
#     8   8   8
#     4  11  26  46  77 110 158 205 265 317 391 466
#     4  11  26  45  79 111 157 197 263 323 398 462
#     4  10  26  46  71 112 151 209 254 324 390 470
#
# _framework density 25.707232999999999
#
# number of rings (size 3 to 8) (size 9 to 14) (size 15 to 20)
#    0.000    1.333    0.000    2.000   14.000    8.000 
#    0.000    0.000    0.000    0.000    0.000    0.000 
#    0.000    0.000    0.000    0.000    0.000    0.000 
#
# Total GULP energy -67221.553177 kJ/mol
# GULP energy per Si atom -5601.796098 kJ/mol
# Density = 2.564872 g / cm^3
# Si number density = 25.707233 Si / 1000 Ang^3
#
#
#
# Elastic Constant Matrix: (Units=GPa)
#
#
# Indices 1 2 3 4 5 6 
#
# 1 149.4525 71.9542 57.2383 0.0000 -5.5912 0.0000
# 2 71.9542 108.9916 50.7388 0.0000 -8.4355 0.0000
# 3 57.2383 50.7388 177.0820 0.0000 -16.9427 0.0000
# 4 0.0000 0.0000 0.0000 49.6065 0.0000 15.7894
# 5 -5.5912 -8.4355 -16.9427 0.0000 40.9889 0.0000
# 6 0.0000 0.0000 0.0000 15.7894 0.0000 37.3840
#
#
#
# Elastic Compliance Matrix: (Units=1/GPa)
#
#
# Indices 1 2 3 4 5 6 
#
# 1 0.010186 -0.006011 -0.001620 0.000000 -0.000517 0.000000
# 2 -0.006011 0.014171 -0.001996 0.000000 0.001271 0.000000
# 3 -0.001620 -0.001996 0.006957 0.000000 0.002244 0.000000
# 4 0.000000 0.000000 0.000000 0.023290 0.000000 -0.009837
# 5 -0.000517 0.001271 0.002244 0.000000 0.025516 0.000000
# 6 0.000000 0.000000 0.000000 -0.009837 0.000000 0.030904
#
#
# Mechanical properties :
#
#
# Convention : Reuss Voigt Hill
#
# Bulk Modulus (GPa) = 82.90780 88.37653 85.64217
# Shear Modulus (GPa) = 37.23141 42.63552 39.93347
#
# Velocity S-wave (km/s) = 3.80976 4.07689 3.94559
# Velocity P-wave (km/s) = 7.18841 7.52423 7.35824
#
# Compressibility (1/GPa) = 0.01206159
#
# Stress axis : x y z
#
# Youngs Moduli (GPa) = 98.17566 70.56883 143.73616
#
# Poissons Ratio (x) = 0.42415 0.23280
# Poissons Ratio (y) = 0.59009 0.28687
# Poissons Ratio (z) = 0.15901 0.14084
#
# Static dielectric constant tensor:
#      x y z
#    x 2.093910 0.000000 0.018200 
#    y 0.000000 2.060120 0.000000 
#    z 0.018200 0.000000 1.998900 
# 
# From -- ./inp_files/101936.got.cif
#   From: 2010.05.17/outbox.cif.g08.bks.cpg/sg15_51_cif.got.tgz:101936.got - 2010.06.03 18:47:42.
