data_PCOD9300640
_publ_section_title
;
Structure prediction by ZEFSAII (Michael W. Deem and Ramdas Pophale) SiO2 
 PCOD9300640
Probable space group: C 2/C
;
_chemical_formula_sum "Si O2"
_cell_formula_units_Z 48
_cell_length_a 19.740154
_cell_length_b 7.425137
_cell_length_c 22.139619
_cell_angle_alpha 90.000000
_cell_angle_beta 132.199020
_cell_angle_gamma 90.000000
_cell_volume 2404.006038
_symmetry_space_group_name_H-M "C 2/C"
_symmetry_group_IT_number 15
_symmetry_cell_setting 'monoclinic'
loop_
_space_group_symop_operation_xyz
x,y,z
-x,y,1/2-z
-x,-y,-z
x,-y,1/2+z
1/2+x,1/2+y,z
1/2-x,1/2+y,1/2-z
1/2-x,1/2-y,-z
1/2+x,1/2-y,1/2+z
loop_
_atom_site_type_symbol
_atom_site_label
_atom_site_fract_x
_atom_site_fract_y
_atom_site_fract_z
Si Si1 0.353834 0.075561 0.788058
Si Si2 0.745268 0.413440 0.823076
Si Si3 0.198163 0.903317 0.932483
Si Si4 0.897909 0.795892 0.259309
Si Si5 0.896060 0.755708 0.113741
Si Si6 0.957715 0.628483 0.659133
O O1 0.329624 0.013589 0.841392
O O2 0.349018 0.887597 0.749353
O O3 0.456837 0.143263 0.835351
O O4 0.280450 0.216761 0.717710
O O5 0.746635 0.417437 0.896348
O O6 0.657954 0.533744 0.752769
O O7 0.097986 0.810742 0.864371
O O8 0.177682 0.096388 0.951529
O O9 0.250000 0.750000 0.000000
O O10 0.897336 0.792193 0.186461
O O11 0.000762 0.798163 0.345594
O O12 0.892127 0.540070 0.101779
O O13 0.000000 0.578641 0.750000
#
# Coordination Sequence:
#
# PCOD9300640 Si02
#       6
#     8   8   8   8   8   8
#     4  11  19  31  54  89 111 138 185 252 292 321
#     4  11  20  32  54  83 118 141 183 239 291 335
#     4  11  24  38  56  83 119 158 189 228 291 363
#     4   9  16  29  51  83 105 134 175 235 285 320
#     4   9  17  32  56  80 107 138 186 235 279 323
#     4  11  19  35  60  85 111 147 200 247 283 331
#
# _framework density 19.966673
#
# number of rings (size 3 to 8) (size 9 to 14) (size 15 to 20)
#    0.000    1.667    6.667    1.000    2.333    0.667 
#    0.000    0.833    0.000    4.000    0.000    0.000 
#    0.000    0.000    0.000    0.000    0.000    0.000 
#
# Total GULP energy -133722.713995 kJ/mol
# GULP energy per Si atom -5571.779750 kJ/mol
# Density = 1.992123 g / cm^3
# Si number density = 19.966673 Si / 1000 Ang^3
#
#
#
# Elastic Constant Matrix: (Units=GPa)
#
#
# Indices 1 2 3 4 5 6 
#
# 1 131.0951 25.0200 9.7065 0.0000 -9.4799 0.0000
# 2 25.0200 102.1282 5.1828 0.0000 1.9211 -0.0001
# 3 9.7065 5.1828 10.1628 0.0000 2.6163 0.0000
# 4 0.0000 0.0000 0.0000 16.0224 0.0000 8.6459
# 5 -9.4799 1.9211 2.6163 0.0000 13.4161 0.0000
# 6 0.0000 -0.0001 0.0000 8.6459 0.0000 38.0927
#
#
#
# Elastic Compliance Matrix: (Units=1/GPa)
#
#
# Indices 1 2 3 4 5 6 
#
# 1 0.009408 -0.001951 -0.010291 0.000000 0.008934 0.000000
# 2 -0.001951 0.010459 -0.002875 0.000000 -0.002315 0.000000
# 3 -0.010291 -0.002875 0.117351 0.000000 -0.029745 0.000000
# 4 0.000000 0.000000 0.000000 0.071124 0.000000 -0.016143
# 5 0.008934 -0.002315 -0.029745 0.000000 0.086982 0.000000
# 6 0.000000 0.000000 0.000000 -0.016143 0.000000 0.029916
#
#
# Mechanical properties :
#
#
# Convention : Reuss Voigt Hill
#
# Bulk Modulus (GPa) = 9.34708 35.91162 22.62935
# Shear Modulus (GPa) = 12.78332 27.07135 19.92733
#
# Velocity S-wave (km/s) = 2.53303 3.68615 3.16259
# Velocity P-wave (km/s) = 3.63957 6.01180 4.96932
#
# Compressibility (1/GPa) = 0.10698531
#
# Stress axis : x y z
#
# Youngs Moduli (GPa) = 106.28814 95.61194 8.52145
#
# Poissons Ratio (x) = 0.18651 0.08770
# Poissons Ratio (y) = 0.20734 0.02450
# Poissons Ratio (z) = 1.09383 0.27484
#
# Static dielectric constant tensor:
#      x y z
#    x 1.750380 0.000000 0.033760 
#    y 0.000000 1.761680 0.000000 
#    z 0.033760 0.000000 1.729990 
# 
# From -- ./inp_files/246843.got.cif
#   From: 2010.05.17/outbox.cif.g08.bks.cpg/sg15_124_cif.got.tgz:246843.got - 2010.06.03 18:47:42.
