data_PCOD9300330
_publ_section_title
;
Structure prediction by ZEFSAII (Michael W. Deem and Ramdas Pophale) SiO2 
 PCOD9300330
Probable space group: C 2/C
;
_chemical_formula_sum "Si O2"
_cell_formula_units_Z 40
_cell_length_a 11.289910
_cell_length_b 28.514500
_cell_length_c 10.982030
_cell_angle_alpha 90.000000
_cell_angle_beta 150.770846
_cell_angle_gamma 90.000000
_cell_volume 1726.350368
_symmetry_space_group_name_H-M "C 2/C"
_symmetry_group_IT_number 15
_symmetry_cell_setting 'monoclinic'
loop_
_space_group_symop_operation_xyz
x,y,z
-x,y,1/2-z
-x,-y,-z
x,-y,1/2+z
1/2+x,1/2+y,z
1/2-x,1/2+y,1/2-z
1/2-x,1/2-y,-z
1/2+x,1/2-y,1/2+z
loop_
_atom_site_type_symbol
_atom_site_label
_atom_site_fract_x
_atom_site_fract_y
_atom_site_fract_z
Si Si1 0.009032 0.773619 0.528365
Si Si2 0.636369 0.451064 0.115234
Si Si3 0.299625 0.370104 0.713265
Si Si4 0.000000 0.195067 0.750000
Si Si5 0.128537 0.614191 0.486244
Si Si6 0.500000 0.082812 0.750000
O O1 0.043373 0.824196 0.621052
O O2 0.059193 0.777423 0.427204
O O3 0.730627 0.756250 0.285552
O O4 0.720495 0.427555 0.316869
O O5 0.868815 0.448836 0.234080
O O6 0.500000 0.500000 0.000000
O O7 0.446809 0.414658 0.890154
O O8 0.065126 0.367198 0.590007
O O9 0.196525 0.383207 0.489247
O O10 0.785244 0.159196 0.590631
O O11 0.000000 0.596348 0.250000
#
# Coordination Sequence:
#
# PCOD9300330 Si02
#       6
#     8   8   8   4   8   4
#     4  12  26  42  72 110 152 204 258 317 388 460
#     4  11  25  50  74 109 144 191 252 306 377 462
#     4  11  24  48  69 102 151 191 250 311 372 454
#     4  12  22  42  66 111 156 195 240 316 384 466
#     4  11  21  41  72 104 149 199 233 308 388 444
#     4  10  26  48  80  99 144 201 242 310 384 442
#
# _framework density 23.170266999999999
#
# number of rings (size 3 to 8) (size 9 to 14) (size 15 to 20)
#    0.000    0.800    4.000    2.400    2.800    3.200 
#   18.000    1.000    0.000    0.000    0.000    0.000 
#    0.000    0.000    0.000    0.000    0.000    0.000 
#
# Total GULP energy -112006.653606 kJ/mol
# GULP energy per Si atom -5600.332680 kJ/mol
# Density = 2.311753 g / cm^3
# Si number density = 23.170267 Si / 1000 Ang^3
#
#
#
# Elastic Constant Matrix: (Units=GPa)
#
#
# Indices 1 2 3 4 5 6 
#
# 1 42.9739 -3.0789 10.0419 0.0000 -0.4385 0.0000
# 2 -3.0789 130.9904 77.1956 0.0000 -13.2940 0.0000
# 3 10.0419 77.1956 178.0238 0.0000 -28.6344 0.0000
# 4 0.0000 0.0000 0.0000 180.1386 0.0000 -34.0840
# 5 -0.4385 -13.2940 -28.6344 0.0000 46.5429 0.0000
# 6 0.0000 0.0000 0.0000 -34.0840 0.0000 32.8298
#
#
#
# Elastic Compliance Matrix: (Units=1/GPa)
#
#
# Indices 1 2 3 4 5 6 
#
# 1 0.023917 0.001817 -0.002239 0.000000 -0.000633 0.000000
# 2 0.001817 0.010395 -0.004583 0.000000 0.000166 0.000000
# 3 -0.002239 -0.004583 0.008342 0.000000 0.003802 0.000000
# 4 0.000000 0.000000 0.000000 0.006908 0.000000 0.007172
# 5 -0.000633 0.000166 0.003802 0.000000 0.023866 0.000000
# 6 0.000000 0.000000 0.000000 0.007172 0.000000 0.037906
#
#
# Mechanical properties :
#
#
# Convention : Reuss Voigt Hill
#
# Bulk Modulus (GPa) = 30.63295 57.81171 44.22233
# Shear Modulus (GPa) = 37.81400 69.75757 53.78578
#
# Velocity S-wave (km/s) = 4.04419 5.49289 4.82324
# Velocity P-wave (km/s) = 5.92088 8.07676 7.08135
#
# Compressibility (1/GPa) = 0.03264459
#
# Stress axis : x y z
#
# Youngs Moduli (GPa) = 41.81148 96.20283 119.86849
#
# Poissons Ratio (x) = -0.17484 0.26838
# Poissons Ratio (y) = -0.07599 0.54937
# Poissons Ratio (z) = 0.09362 0.44091
#
# Static dielectric constant tensor:
#      x y z
#    x 1.918570 0.000000 0.021750 
#    y 0.000000 1.813800 0.000000 
#    z 0.021750 0.000000 1.880780 
# 
# From -- ./inp_files/92260.got.cif
#   From: 2010.05.17/outbox.cif.g08.bks.cpg/sg15_47_cif.got.tgz:92260.got - 2010.06.03 18:47:42.
