data_PCOD9300618
_publ_section_title
;
Structure prediction by ZEFSAII (Michael W. Deem and Ramdas Pophale) SiO2 
 PCOD9300618
Probable space group: C 2/C
;
_chemical_formula_sum "Si O2"
_cell_formula_units_Z 36
_cell_length_a 7.408561
_cell_length_b 20.665917
_cell_length_c 16.669396
_cell_angle_alpha 90.000000
_cell_angle_beta 137.149321
_cell_angle_gamma 90.000000
_cell_volume 1735.700611
_symmetry_space_group_name_H-M "C 2/C"
_symmetry_group_IT_number 15
_symmetry_cell_setting 'monoclinic'
loop_
_space_group_symop_operation_xyz
x,y,z
-x,y,1/2-z
-x,-y,-z
x,-y,1/2+z
1/2+x,1/2+y,z
1/2-x,1/2+y,1/2-z
1/2-x,1/2-y,-z
1/2+x,1/2-y,1/2+z
loop_
_atom_site_type_symbol
_atom_site_label
_atom_site_fract_x
_atom_site_fract_y
_atom_site_fract_z
Si Si1 0.486060 0.076838 0.499645
Si Si2 0.313344 0.706722 0.339739
Si Si3 0.619548 0.676358 0.966167
Si Si4 0.500000 0.367294 0.750000
Si Si5 0.283092 0.844447 0.296465
O O1 0.688204 0.121810 0.511315
O O2 0.202439 0.093479 0.370310
O O3 0.542432 0.098250 0.610202
O O4 0.500000 0.000000 0.500000
O O5 0.412306 0.668151 0.449064
O O6 0.349441 0.675698 0.265625
O O7 0.424960 0.779214 0.373068
O O8 0.000000 0.714111 0.250000
O O9 0.331520 0.668094 0.829798
O O10 0.750000 0.750000 0.000000
O O11 0.000000 0.851642 0.250000
#
# Coordination Sequence:
#
# PCOD9300618 Si02
#       5
#     8   8   8   4   8
#     4  11  24  40  63  98 137 175 218 274 336 408
#     4  11  20  40  66  97 128 164 222 277 334 384
#     4  11  18  40  70  95 128 180 224 272 337 400
#     4  12  26  40  68  98 128 170 224 282 330 400
#     4   9  19  36  65  93 130 173 215 270 335 397
#
# _framework density 20.740902999999999
#
# number of rings (size 3 to 8) (size 9 to 14) (size 15 to 20)
#    0.000    1.333    8.889    0.000    4.667    0.889 
#    0.000    1.111    4.889    0.000    0.000    0.000 
#    0.000    0.000    0.000    0.000    0.000    0.000 
#
# Total GULP energy -100286.032837 kJ/mol
# GULP energy per Si atom -5571.446269 kJ/mol
# Density = 2.069370 g / cm^3
# Si number density = 20.740903 Si / 1000 Ang^3
#
#
#
# Elastic Constant Matrix: (Units=GPa)
#
#
# Indices 1 2 3 4 5 6 
#
# 1 45.5122 23.6928 16.9102 0.0000 -6.9839 0.0000
# 2 23.6928 146.8819 50.5802 0.0000 6.5364 0.0000
# 3 16.9102 50.5802 165.9136 0.0001 -17.1063 0.0001
# 4 0.0000 0.0000 0.0001 10.7470 0.0000 -5.0271
# 5 -6.9839 6.5364 -17.1063 0.0000 35.0481 0.0000
# 6 0.0000 0.0000 0.0001 -5.0271 0.0000 -6.0674
#
#
#
# Elastic Compliance Matrix: (Units=1/GPa)
#
#
# Indices 1 2 3 4 5 6 
#
# 1 0.025190 -0.004034 -0.000782 0.000000 0.005390 0.000000
# 2 -0.004034 0.008501 -0.002555 0.000000 -0.003636 0.000000
# 3 -0.000782 -0.002555 0.007286 0.000000 0.003877 0.000000
# 4 0.000000 0.000000 0.000000 0.067059 0.000000 -0.055561
# 5 0.005390 -0.003636 0.003877 0.000000 0.032177 0.000000
# 6 0.000000 0.000000 0.000000 -0.055561 0.000000 -0.118780
#
#
# Mechanical properties :
#
#
# Convention : Reuss Voigt Hill
#
# Bulk Modulus (GPa) = 38.11852 60.07491 49.09672
# Shear Modulus (GPa) = 111.31272 25.75384 68.53328
#
# Velocity S-wave (km/s) = 7.33381 3.52759 5.75450
# Velocity P-wave (km/s) = 9.49375 6.75420 8.23864
#
# Compressibility (1/GPa) = 0.02623396
#
# Stress axis : x y z
#
# Youngs Moduli (GPa) = 39.69873 117.63835 137.25662
#
# Poissons Ratio (x) = 0.47454 0.10732
# Poissons Ratio (y) = 0.16014 0.35073
# Poissons Ratio (z) = 0.03104 0.30060
#
# Static dielectric constant tensor:
#      x y z
#    x 1.834110 0.000000 -0.027100 
#    y 0.000000 1.839630 0.000000 
#    z -0.027100 0.000000 1.812550 
# 
# From -- ./inp_files/76434.got.cif
#   From: 2010.05.17/outbox.cif.g08.bks.cpg/sg15_39_cif.got.tgz:76434.got - 2010.06.03 18:47:42.
