data_PCOD9300796
_publ_section_title
;
Structure prediction by ZEFSAII (Michael W. Deem and Ramdas Pophale) SiO2 
 PCOD9300796
Probable space group: C 2/C
;
_chemical_formula_sum "Si O2"
_cell_formula_units_Z 36
_cell_length_a 5.305022
_cell_length_b 21.549846
_cell_length_c 12.263718
_cell_angle_alpha 90.000000
_cell_angle_beta 87.873609
_cell_angle_gamma 90.000000
_cell_volume 1401.052346
_symmetry_space_group_name_H-M "C 2/C"
_symmetry_group_IT_number 15
_symmetry_cell_setting 'monoclinic'
loop_
_space_group_symop_operation_xyz
x,y,z
-x,y,1/2-z
-x,-y,-z
x,-y,1/2+z
1/2+x,1/2+y,z
1/2-x,1/2+y,1/2-z
1/2-x,1/2-y,-z
1/2+x,1/2-y,1/2+z
loop_
_atom_site_type_symbol
_atom_site_label
_atom_site_fract_x
_atom_site_fract_y
_atom_site_fract_z
Si Si1 0.451401 0.344415 0.020566
Si Si2 0.816387 0.075058 0.154622
Si Si3 0.000000 0.312464 0.750000
Si Si4 0.000000 0.477079 0.250000
Si Si5 0.395697 0.234261 0.870552
Si Si6 0.000000 0.106791 0.750000
O O1 0.162612 0.326405 0.056903
O O2 0.549160 0.353016 0.141001
O O3 0.520182 0.406263 0.953191
O O4 0.526888 0.284940 0.946207
O O5 0.699529 0.139879 0.196448
O O6 0.000000 0.054715 0.250000
O O7 0.588087 0.025660 0.152888
O O8 0.858207 0.271186 0.663306
O O9 0.753456 0.434258 0.249763
O O10 0.500000 0.219159 0.750000
#
# Coordination Sequence:
#
# PCOD9300796 Si02
#       6
#     8   8   4   4   8   4
#     4  11  25  46  75 106 158 193 254 302 384 449
#     4  11  22  48  74 107 139 202 254 315 371 448
#     4  11  19  38  76 104 148 192 255 303 372 444
#     4  11  28  52  79 104 155 190 272 311 386 428
#     4  11  23  45  70 116 149 203 243 305 372 469
#     4  12  29  52  71 118 149 204 247 328 364 448
#
# _framework density 25.694967999999999
#
# number of rings (size 3 to 8) (size 9 to 14) (size 15 to 20)
#    0.000    0.889    5.556    0.667    1.556    4.444 
#    4.000    0.000    0.000    0.000    0.000    0.000 
#    0.000    0.000    0.000    0.000    0.000    0.000 
#
# Total GULP energy -100396.707414 kJ/mol
# GULP energy per Si atom -5577.594856 kJ/mol
# Density = 2.563649 g / cm^3
# Si number density = 25.694968 Si / 1000 Ang^3
#
#
#
# Elastic Constant Matrix: (Units=GPa)
#
#
# Indices 1 2 3 4 5 6 
#
# 1 110.6307 49.8686 35.4276 0.0000 -11.9242 0.0000
# 2 49.8686 117.0218 46.3921 0.0000 -6.7625 0.0000
# 3 35.4276 46.3921 182.7494 0.0000 -17.9785 0.0000
# 4 0.0000 0.0000 0.0000 -15.9746 0.0000 14.8361
# 5 -11.9242 -6.7625 -17.9785 0.0000 42.1329 0.0000
# 6 0.0000 0.0000 0.0000 14.8361 0.0000 13.1899
#
#
#
# Elastic Compliance Matrix: (Units=1/GPa)
#
#
# Indices 1 2 3 4 5 6 
#
# 1 0.011566 -0.004447 -0.000899 0.000000 0.002176 0.000000
# 2 -0.004447 0.011222 -0.002018 0.000000 -0.000318 0.000000
# 3 -0.000899 -0.002018 0.006369 0.000000 0.002139 0.000000
# 4 0.000000 0.000000 0.000000 -0.030616 0.000000 0.034437
# 5 0.002176 -0.000318 0.002139 0.000000 0.025212 0.000000
# 6 0.000000 0.000000 0.000000 0.034437 0.000000 0.037080
#
#
# Mechanical properties :
#
#
# Convention : Reuss Voigt Hill
#
# Bulk Modulus (GPa) = 69.30443 74.86428 72.08436
# Shear Modulus (GPa) = 62.21201 26.45055 44.33128
#
# Velocity S-wave (km/s) = 4.92588 3.21192 4.15817
# Velocity P-wave (km/s) = 7.70603 6.55395 7.15322
#
# Compressibility (1/GPa) = 0.01442909
#
# Stress axis : x y z
#
# Youngs Moduli (GPa) = 86.46065 89.11104 157.00848
#
# Poissons Ratio (x) = 0.39624 0.14120
# Poissons Ratio (y) = 0.38445 0.31686
# Poissons Ratio (z) = 0.07776 0.17983
#
# Static dielectric constant tensor:
#      x y z
#    x 2.122790 0.000000 -0.009730 
#    y 0.000000 2.051630 0.000000 
#    z -0.009730 0.000000 2.079540 
# 
# From -- ./inp_files/72516.got.cif
#   From: 2010.05.17/outbox.cif.g08.bks.cpg/sg15_37_cif.got.tgz:72516.got - 2010.06.03 18:47:42.
