data_PCOD9300233
_publ_section_title
;
Structure prediction by ZEFSAII (Michael W. Deem and Ramdas Pophale) SiO2 
 PCOD9300233
Probable space group: C 2/C
;
_chemical_formula_sum "Si O2"
_cell_formula_units_Z 28
_cell_length_a 17.901301
_cell_length_b 7.309390
_cell_length_c 8.813701
_cell_angle_alpha 90.000000
_cell_angle_beta 118.137831
_cell_angle_gamma 90.000000
_cell_volume 1016.955286
_symmetry_space_group_name_H-M "C 2/C"
_symmetry_group_IT_number 15
_symmetry_cell_setting 'monoclinic'
loop_
_space_group_symop_operation_xyz
x,y,z
-x,y,1/2-z
-x,-y,-z
x,-y,1/2+z
1/2+x,1/2+y,z
1/2-x,1/2+y,1/2-z
1/2-x,1/2-y,-z
1/2+x,1/2-y,1/2+z
loop_
_atom_site_type_symbol
_atom_site_label
_atom_site_fract_x
_atom_site_fract_y
_atom_site_fract_z
Si Si1 0.367442 0.591679 0.130847
Si Si2 0.871811 0.324360 0.584633
Si Si3 0.225989 0.292506 0.720038
Si Si4 0.000000 0.380498 0.250000
O O1 0.399723 0.384616 0.146368
O O2 0.282989 0.605882 0.149832
O O3 0.435672 0.734287 0.262578
O O4 0.337904 0.665731 0.937672
O O5 0.829770 0.390226 0.703387
O O6 0.799354 0.298241 0.391913
O O7 0.940759 0.474613 0.604824
#
# Coordination Sequence:
#
# PCOD9300233 Si02
#       4
#     8   8   8   4
#     4  11  26  47  75 107 154 191 248 312 365 446
#     4  11  26  47  75 107 154 191 248 312 365 446
#     4  10  26  46  76 110 142 200 254 296 370 448
#     4  12  30  46  76 116 152 196 246 310 388 436
#
# _framework density 27.533166999999999
#
# number of rings (size 3 to 8) (size 9 to 14) (size 15 to 20)
#    0.000    1.143    0.000    2.571   24.000    4.571 
#    0.000    5.714    0.000    0.000    0.000    0.000 
#    0.000    0.000    0.000    0.000    0.000    0.000 
#
# Total GULP energy -78353.713183 kJ/mol
# GULP energy per Si atom -5596.693799 kJ/mol
# Density = 2.747050 g / cm^3
# Si number density = 27.533167 Si / 1000 Ang^3
#
#
#
# Elastic Constant Matrix: (Units=GPa)
#
#
# Indices 1 2 3 4 5 6 
#
# 1 99.8281 77.0955 31.1064 0.0000 10.1066 0.0000
# 2 77.0955 238.4324 27.9394 0.0000 18.3415 0.0000
# 3 31.1064 27.9394 116.9193 0.0000 -20.6909 0.0000
# 4 0.0000 0.0000 0.0000 50.6828 0.0000 12.7863
# 5 10.1066 18.3415 -20.6909 0.0000 36.9871 0.0000
# 6 0.0000 0.0000 0.0000 12.7863 0.0000 46.0882
#
#
#
# Elastic Compliance Matrix: (Units=1/GPa)
#
#
# Indices 1 2 3 4 5 6 
#
# 1 0.014659 -0.003997 -0.003666 0.000000 -0.004074 0.000000
# 2 -0.003997 0.005730 -0.000683 0.000000 -0.002132 0.000000
# 3 -0.003666 -0.000683 0.011020 0.000000 0.007505 0.000000
# 4 0.000000 0.000000 0.000000 0.021215 0.000000 -0.005886
# 5 -0.004074 -0.002132 0.007505 0.000000 0.033405 0.000000
# 6 0.000000 0.000000 0.000000 -0.005886 0.000000 0.023330
#
#
# Mechanical properties :
#
#
# Convention : Reuss Voigt Hill
#
# Bulk Modulus (GPa) = 67.94920 80.82914 74.38917
# Shear Modulus (GPa) = 38.18043 48.02086 43.10064
#
# Velocity S-wave (km/s) = 3.72789 4.18078 3.96082
# Velocity P-wave (km/s) = 6.57740 7.26127 6.92778
#
# Compressibility (1/GPa) = 0.01471688
#
# Stress axis : x y z
#
# Youngs Moduli (GPa) = 68.21925 174.50631 90.74730
#
# Poissons Ratio (x) = 0.69747 0.33266
# Poissons Ratio (y) = 0.27266 0.06201
# Poissons Ratio (z) = 0.25008 0.11924
#
# Static dielectric constant tensor:
#      x y z
#    x 2.155210 0.000000 0.003260 
#    y 0.000000 2.285190 0.000000 
#    z 0.003260 0.000000 2.104470 
# 
# From -- ./inp_files/53311.got.cif
#   From: 2010.05.17/outbox.cif.g08.bks.cpg/sg15_27_cif.got.tgz:53311.got - 2010.06.03 18:47:42.
