data_PCOD9300722
_publ_section_title
;
Structure prediction by ZEFSAII (Michael W. Deem and Ramdas Pophale) SiO2 
 PCOD9300722
Probable space group: C 2/C
;
_chemical_formula_sum "Si O2"
_cell_formula_units_Z 48
_cell_length_a 14.164196
_cell_length_b 28.631994
_cell_length_c 10.548146
_cell_angle_alpha 90.000000
_cell_angle_beta 29.806111
_cell_angle_gamma 90.000000
_cell_volume 2126.347100
_symmetry_space_group_name_H-M "C 2/C"
_symmetry_group_IT_number 15
_symmetry_cell_setting 'monoclinic'
loop_
_space_group_symop_operation_xyz
x,y,z
-x,y,1/2-z
-x,-y,-z
x,-y,1/2+z
1/2+x,1/2+y,z
1/2-x,1/2+y,1/2-z
1/2-x,1/2-y,-z
1/2+x,1/2-y,1/2+z
loop_
_atom_site_type_symbol
_atom_site_label
_atom_site_fract_x
_atom_site_fract_y
_atom_site_fract_z
Si Si1 0.270567 0.640078 0.502538
Si Si2 0.135831 0.840019 0.212840
Si Si3 0.613418 0.444199 0.249956
Si Si4 0.088137 0.305631 0.433711
Si Si5 0.208175 0.201902 0.249440
Si Si6 0.146518 0.954875 0.697241
O O1 0.500000 0.641844 0.250000
O O2 0.169692 0.652375 0.751629
O O3 0.213806 0.680146 0.469987
O O4 0.228968 0.589537 0.488358
O O5 0.206273 0.893403 0.138197
O O6 0.982421 0.826605 0.499145
O O7 0.000000 0.832728 0.250000
O O8 0.316664 0.809299 0.039362
O O9 0.500000 0.445073 0.250000
O O10 0.471121 0.444563 0.536802
O O11 0.729408 0.492864 0.119714
O O12 0.158349 0.256061 0.297188
O O13 0.862881 0.305907 0.679293
O O14 0.000000 0.958861 0.750000
#
# Coordination Sequence:
#
# PCOD9300722 Si02
#       6
#     8   8   8   8   8   8
#     4  11  19  36  62  91 123 156 202 254 313 381
#     4  11  23  41  62  88 122 166 217 252 305 372
#     4   9  17  32  56  89 117 157 202 253 308 370
#     4  12  24  40  61  89 125 162 205 258 319 366
#     4  12  23  41  60  92 125 163 206 260 313 376
#     4   9  16  29  57  91 117 151 206 253 306 371
#
# _framework density 22.573927000000001
#
# number of rings (size 3 to 8) (size 9 to 14) (size 15 to 20)
#    0.000    1.333    5.000    2.000    0.000    1.333 
#    0.000    0.000    0.000    1.000   17.333    0.000 
#    0.000    0.000    0.000    0.000    0.000    0.000 
#
# Total GULP energy -133855.771305 kJ/mol
# GULP energy per Si atom -5577.323804 kJ/mol
# Density = 2.252255 g / cm^3
# Si number density = 22.573927 Si / 1000 Ang^3
#
#
#
# Elastic Constant Matrix: (Units=GPa)
#
#
# Indices 1 2 3 4 5 6 
#
# 1 118.8197 22.1285 23.8181 0.0000 5.2706 0.0000
# 2 22.1285 156.3395 11.9312 0.0000 -2.5865 0.0000
# 3 23.8181 11.9312 70.9960 0.0000 -10.2917 0.0000
# 4 0.0000 0.0000 0.0000 -15.5563 0.0000 9.8541
# 5 5.2706 -2.5865 -10.2917 0.0000 42.1153 0.0000
# 6 0.0000 0.0000 0.0000 9.8541 0.0000 29.0574
#
#
#
# Elastic Compliance Matrix: (Units=1/GPa)
#
#
# Indices 1 2 3 4 5 6 
#
# 1 0.009365 -0.001111 -0.003250 0.000000 -0.002034 0.000000
# 2 -0.001111 0.006612 -0.000684 0.000000 0.000378 0.000000
# 3 -0.003250 -0.000684 0.015907 0.000000 0.004252 0.000000
# 4 0.000000 0.000000 0.000000 -0.052916 0.000000 0.017945
# 5 -0.002034 0.000378 0.004252 0.000000 0.025061 0.000000
# 6 0.000000 0.000000 0.000000 0.017945 0.000000 0.028329
#
#
# Mechanical properties :
#
#
# Convention : Reuss Voigt Hill
#
# Bulk Modulus (GPa) = 45.88354 51.32344 48.60349
# Shear Modulus (GPa) = 100.57827 30.34177 65.46002
#
# Velocity S-wave (km/s) = 6.68220 3.67018 5.39083
# Velocity P-wave (km/s) = 8.93900 6.38321 7.76695
#
# Compressibility (1/GPa) = 0.02179431
#
# Stress axis : x y z
#
# Youngs Moduli (GPa) = 106.78340 151.23943 62.86600
#
# Poissons Ratio (x) = 0.16805 0.20431
# Poissons Ratio (y) = 0.11865 0.04298
# Poissons Ratio (z) = 0.34704 0.10339
#
# Static dielectric constant tensor:
#      x y z
#    x 1.894130 0.000000 0.000460 
#    y 0.000000 1.880750 0.000000 
#    z 0.000460 0.000000 1.841300 
# 
# From -- ./inp_files/101219.got.cif
#   From: 2010.05.17/outbox.cif.g08.bks.cpg/sg15_51_cif.got.tgz:101219.got - 2010.06.03 18:47:42.
