data_PCOD9300567
_publ_section_title
;
Structure prediction by ZEFSAII (Michael W. Deem and Ramdas Pophale) SiO2 
 PCOD9300567
Probable space group: C 2/C
;
_chemical_formula_sum "Si O2"
_cell_formula_units_Z 44
_cell_length_a 10.900214
_cell_length_b 17.132972
_cell_length_c 12.001122
_cell_angle_alpha 90.000000
_cell_angle_beta 131.889379
_cell_angle_gamma 90.000000
_cell_volume 1668.462909
_symmetry_space_group_name_H-M "C 2/C"
_symmetry_group_IT_number 15
_symmetry_cell_setting 'monoclinic'
loop_
_space_group_symop_operation_xyz
x,y,z
-x,y,1/2-z
-x,-y,-z
x,-y,1/2+z
1/2+x,1/2+y,z
1/2-x,1/2+y,1/2-z
1/2-x,1/2-y,-z
1/2+x,1/2-y,1/2+z
loop_
_atom_site_type_symbol
_atom_site_label
_atom_site_fract_x
_atom_site_fract_y
_atom_site_fract_z
Si Si1 0.216948 0.115669 0.791844
Si Si2 0.665602 0.901014 0.904354
Si Si3 0.500000 0.671490 0.250000
Si Si4 0.356150 0.442513 0.799558
Si Si5 0.226591 0.299389 0.371186
Si Si6 0.590189 0.927341 0.447480
O O1 0.159913 0.177033 0.663563
O O2 0.408734 0.098187 0.874473
O O3 0.124147 0.033973 0.713957
O O4 0.234506 0.137844 0.932240
O O5 0.500000 0.863058 0.750000
O O6 0.788556 0.924479 0.879809
O O7 0.599310 0.982693 0.917571
O O8 0.485365 0.607389 0.141161
O O9 0.604544 0.735517 0.243808
O O10 0.214228 0.414996 0.626048
O O11 0.250000 0.250000 0.500000
O O12 0.153302 0.376670 0.382772
#
# Coordination Sequence:
#
# PCOD9300567 Si02
#       6
#     8   8   4   8   8   8
#     4  11  21  37  67 100 132 170 234 284 339 395
#     4  11  18  34  64 103 132 159 223 298 336 378
#     4  12  26  40  64  98 142 182 228 272 348 420
#     4  11  22  38  61 105 136 174 219 289 346 398
#     4  12  23  41  65  94 134 180 234 275 330 409
#     4  11  18  35  67 101 125 163 225 286 325 393
#
# _framework density 26.371578
#
# number of rings (size 3 to 8) (size 9 to 14) (size 15 to 20)
#    0.000    0.727    9.091    1.091    0.000    0.000 
#    0.000    9.091    0.000    0.000    2.364    0.000 
#    0.000    0.000    0.000    0.000    0.000    0.000 
#
# Total GULP energy -122705.339066 kJ/mol
# GULP energy per Si atom -5577.515412 kJ/mol
# Density = 2.631156 g / cm^3
# Si number density = 26.371578 Si / 1000 Ang^3
#
#
#
# Elastic Constant Matrix: (Units=GPa)
#
#
# Indices 1 2 3 4 5 6 
#
# 1 98.7268 8.3837 44.3766 0.0000 -30.3284 0.0000
# 2 8.3837 81.1630 17.4406 0.0000 -11.0123 0.0000
# 3 44.3766 17.4406 176.8659 0.0000 -45.1049 0.0000
# 4 0.0000 0.0000 0.0000 20.1439 0.0000 -19.0445
# 5 -30.3284 -11.0123 -45.1049 0.0000 58.2565 0.0000
# 6 0.0000 0.0000 0.0000 -19.0445 0.0000 38.5880
#
#
#
# Elastic Compliance Matrix: (Units=1/GPa)
#
#
# Indices 1 2 3 4 5 6 
#
# 1 0.012525 -0.000213 -0.001830 0.000000 0.005063 0.000000
# 2 -0.000213 0.012739 -0.000769 0.000000 0.001702 0.000000
# 3 -0.001830 -0.000769 0.007363 0.000000 0.004602 0.000000
# 4 0.000000 0.000000 0.000000 0.093068 0.000000 0.045932
# 5 0.005063 0.001702 0.004602 0.000000 0.023686 0.000000
# 6 0.000000 0.000000 0.000000 0.045932 0.000000 0.048584
#
#
# Mechanical properties :
#
#
# Convention : Reuss Voigt Hill
#
# Bulk Modulus (GPa) = 37.03429 55.23972 46.13700
# Shear Modulus (GPa) = 23.51932 42.50133 33.01033
#
# Velocity S-wave (km/s) = 2.98961 4.01887 3.54183
# Velocity P-wave (km/s) = 5.09812 6.52129 5.85312
#
# Compressibility (1/GPa) = 0.02700200
#
# Stress axis : x y z
#
# Youngs Moduli (GPa) = 79.83914 78.49909 135.81856
#
# Poissons Ratio (x) = 0.01676 0.24860
# Poissons Ratio (y) = 0.01705 0.10439
# Poissons Ratio (z) = 0.14614 0.06033
#
# Static dielectric constant tensor:
#      x y z
#    x 2.125740 0.000000 0.170300 
#    y 0.000000 2.868420 0.000000 
#    z 0.170300 0.000000 2.410700 
# 
# From -- ./inp_files/87702.got.cif
#   From: 2010.05.17/outbox.cif.g08.bks.cpg/sg15_44_cif.got.tgz:87702.got - 2010.06.03 18:47:42.
