data_PCOD9300663
_publ_section_title
;
Structure prediction by ZEFSAII (Michael W. Deem and Ramdas Pophale) SiO2 
 PCOD9300663
Probable space group: C 2/C
;
_chemical_formula_sum "Si O2"
_cell_formula_units_Z 52
_cell_length_a 28.725476
_cell_length_b 24.360959
_cell_length_c 9.010272
_cell_angle_alpha 90.000000
_cell_angle_beta 31.023432
_cell_angle_gamma 90.000000
_cell_volume 3249.632958
_symmetry_space_group_name_H-M "C 2/C"
_symmetry_group_IT_number 15
_symmetry_cell_setting 'monoclinic'
loop_
_space_group_symop_operation_xyz
x,y,z
-x,y,1/2-z
-x,-y,-z
x,-y,1/2+z
1/2+x,1/2+y,z
1/2-x,1/2+y,1/2-z
1/2-x,1/2-y,-z
1/2+x,1/2-y,1/2+z
loop_
_atom_site_type_symbol
_atom_site_label
_atom_site_fract_x
_atom_site_fract_y
_atom_site_fract_z
Si Si1 0.163137 0.386507 0.765786
Si Si2 0.790395 0.296926 0.283976
Si Si3 0.574669 0.000677 0.923023
Si Si4 0.000000 0.767718 0.750000
Si Si5 0.867387 0.618792 0.797359
Si Si6 0.200649 0.196669 0.713116
Si Si7 0.540395 0.186959 0.383227
O O1 0.137022 0.447667 0.783412
O O2 0.258630 0.359411 0.464129
O O3 0.095478 0.348537 0.854482
O O4 0.151645 0.379735 0.973842
O O5 0.750000 0.250000 0.500000
O O6 0.803593 0.347982 0.359585
O O7 0.724869 0.302999 0.321450
O O8 0.888208 0.289878 0.932753
O O9 0.631596 0.055659 0.751884
O O10 0.500000 0.005236 0.250000
O O11 0.500000 0.000000 0.000000
O O12 0.094361 0.798904 0.478881
O O13 0.993395 0.732172 0.615989
O O14 0.965746 0.647492 0.515840
O O15 0.250000 0.250000 0.500000
#
# Coordination Sequence:
#
# PCOD9300663 Si02
#       7
#     8   8   8   4   8   8   8
#     4  11  21  36  53  80 119 154 189 233 279 349
#     4  11  23  34  52  81 118 149 189 241 282 336
#     4  12  22  34  55  85 118 155 192 227 289 357
#     4  12  20  36  66  78 112 160 196 236 290 342
#     4  12  22  35  55  84 121 153 185 237 290 341
#     4  11  22  38  57  81 113 153 197 235 286 349
#     4  11  19  34  56  80 112 157 194 227 281 343
#
# _framework density 16.001805999999998
#
# number of rings (size 3 to 8) (size 9 to 14) (size 15 to 20)
#    0.000    0.615    7.692    3.231    2.154    0.000 
#    0.000    0.000    0.000    0.000    0.000    4.308 
#    0.000    0.000    0.000    0.000    0.000    0.000 
#
# Total GULP energy -144796.977748 kJ/mol
# GULP energy per Si atom -5569.114529 kJ/mol
# Density = 1.596539 g / cm^3
# Si number density = 16.001806 Si / 1000 Ang^3
#
#
#
# Elastic Constant Matrix: (Units=GPa)
#
#
# Indices 1 2 3 4 5 6 
#
# 1 100.1498 41.9376 40.0755 0.0000 17.8930 0.0000
# 2 41.9376 128.5167 69.9381 0.0000 -4.3177 0.0000
# 3 40.0755 69.9381 107.0566 0.0000 4.1945 0.0000
# 4 0.0000 0.0000 0.0000 34.1349 0.0000 -8.6043
# 5 17.8930 -4.3177 4.1945 0.0000 45.6237 0.0000
# 6 0.0000 0.0000 0.0000 -8.6043 0.0000 31.2963
#
#
#
# Elastic Compliance Matrix: (Units=1/GPa)
#
#
# Indices 1 2 3 4 5 6 
#
# 1 0.013299 -0.002976 -0.002829 0.000000 -0.005237 0.000000
# 2 -0.002976 0.012901 -0.007434 0.000000 0.003072 0.000000
# 3 -0.002829 -0.007434 0.015296 0.000000 -0.001000 0.000000
# 4 0.000000 0.000000 0.000000 0.031477 0.000000 0.008654
# 5 -0.005237 0.003072 -0.001000 0.000000 0.024355 0.000000
# 6 0.000000 0.000000 0.000000 0.008654 0.000000 0.034332
#
#
# Mechanical properties :
#
#
# Convention : Reuss Voigt Hill
#
# Bulk Modulus (GPa) = 66.59071 71.06950 68.83010
# Shear Modulus (GPa) = 30.64767 34.46243 32.55505
#
# Velocity S-wave (km/s) = 4.38112 4.64579 4.51539
# Velocity P-wave (km/s) = 8.20348 8.56082 8.38405
#
# Compressibility (1/GPa) = 0.01501711
#
# Stress axis : x y z
#
# Youngs Moduli (GPa) = 75.19342 77.51179 65.37780
#
# Poissons Ratio (x) = 0.23070 0.18494
# Poissons Ratio (y) = 0.22380 0.48604
# Poissons Ratio (z) = 0.21271 0.57625
#
# Static dielectric constant tensor:
#      x y z
#    x 1.525000 0.000000 0.010840 
#    y 0.000000 1.484170 0.000000 
#    z 0.010840 0.000000 1.547710 
# 
# From -- ./inp_files/42331.got.cif
#   From: 2010.05.17/outbox.cif.g08.bks.cpg/sg15_22_cif.got.tgz:42331.got - 2010.06.03 18:47:42.
