data_PCOD9300907
_publ_section_title
;
Structure prediction by ZEFSAII (Michael W. Deem and Ramdas Pophale) SiO2 
 PCOD9300907
Probable space group: C 2/C
;
_chemical_formula_sum "Si O2"
_cell_formula_units_Z 64
_cell_length_a 18.056800
_cell_length_b 30.388125
_cell_length_c 9.588395
_cell_angle_alpha 90.000000
_cell_angle_beta 41.918896
_cell_angle_gamma 90.000000
_cell_volume 3514.938847
_symmetry_space_group_name_H-M "C 2/C"
_symmetry_group_IT_number 15
_symmetry_cell_setting 'monoclinic'
loop_
_space_group_symop_operation_xyz
x,y,z
-x,y,1/2-z
-x,-y,-z
x,-y,1/2+z
1/2+x,1/2+y,z
1/2-x,1/2+y,1/2-z
1/2-x,1/2-y,-z
1/2+x,1/2-y,1/2+z
loop_
_atom_site_type_symbol
_atom_site_label
_atom_site_fract_x
_atom_site_fract_y
_atom_site_fract_z
Si Si1 0.638899 0.135937 0.778735
Si Si2 0.790649 0.688014 0.060722
Si Si3 0.694210 0.189802 0.959549
Si Si4 0.068343 0.765530 0.778620
Si Si5 0.419605 0.725031 0.750655
Si Si6 0.365807 0.041954 0.268100
Si Si7 0.622249 0.861655 0.811939
Si Si8 0.364332 0.957779 0.091800
O O1 0.686099 0.144279 0.560314
O O2 0.682970 0.175203 0.816261
O O3 0.671559 0.088788 0.793977
O O4 0.505697 0.139014 0.963577
O O5 0.669908 0.706874 0.198980
O O6 0.812953 0.674579 0.188059
O O7 0.877326 0.723708 0.877103
O O8 0.820962 0.195561 0.828262
O O9 0.634227 0.235077 0.085361
O O10 0.633322 0.152719 0.136030
O O11 0.000000 0.788842 0.750000
O O12 0.987305 0.756598 0.022448
O O13 0.500000 0.702031 0.750000
O O14 0.334835 0.088444 0.241298
O O15 0.329391 0.039224 0.479838
O O16 0.329121 0.000038 0.230426
O O17 0.500750 0.042376 0.088050
#
# Coordination Sequence:
#
# PCOD9300907 Si02
#       8
#     8   8   8   8   8   8   8   8
#     4  11  20  33  51  76 107 142 174 211 252 305
#     4  11  23  34  53  76 102 140 182 216 255 308
#     4  11  21  34  53  76 100 136 178 213 257 309
#     4  11  22  39  52  72 105 140 177 221 265 301
#     4  11  22  35  54  74 101 136 173 221 264 302
#     4   9  18  31  48  72 105 141 168 202 251 310
#     4  11  20  33  51  76 109 138 174 214 249 304
#     4   9  18  31  48  72 105 140 171 200 251 310
#
# _framework density 18.207999000000001
#
# number of rings (size 3 to 8) (size 9 to 14) (size 15 to 20)
#    0.000    1.500    1.250    6.000    1.750    4.000 
#    0.000    0.000    0.000    0.000    0.000    0.000 
#    0.000   20.000    0.000    0.000    0.000    0.000 
#
# Total GULP energy -178750.664847 kJ/mol
# GULP energy per Si atom -5585.958276 kJ/mol
# Density = 1.816656 g / cm^3
# Si number density = 18.207999 Si / 1000 Ang^3
#
#
#
# Elastic Constant Matrix: (Units=GPa)
#
#
# Indices 1 2 3 4 5 6 
#
# 1 87.4248 16.8256 15.1084 0.0000 -1.4944 0.0000
# 2 16.8256 66.2912 2.4279 0.0000 -6.9287 0.0000
# 3 15.1084 2.4279 40.7713 0.0000 1.2584 0.0000
# 4 0.0000 0.0000 0.0000 15.0488 0.0000 10.2735
# 5 -1.4944 -6.9287 1.2584 0.0000 20.9204 0.0000
# 6 0.0000 0.0000 0.0000 10.2735 0.0000 21.8124
#
#
#
# Elastic Compliance Matrix: (Units=1/GPa)
#
#
# Indices 1 2 3 4 5 6 
#
# 1 0.012822 -0.003069 -0.004574 0.000000 0.000175 0.000000
# 2 -0.003069 0.016409 -0.000001 0.000000 0.005215 0.000000
# 3 -0.004574 -0.000001 0.026281 0.000000 -0.001908 0.000000
# 4 0.000000 0.000000 0.000000 0.097942 0.000000 -0.046130
# 5 0.000175 0.005215 -0.001908 0.000000 0.049655 0.000000
# 6 0.000000 0.000000 0.000000 -0.046130 0.000000 0.067572
#
#
# Mechanical properties :
#
#
# Convention : Reuss Voigt Hill
#
# Bulk Modulus (GPa) = 24.86033 29.24568 27.05301
# Shear Modulus (GPa) = 16.70129 22.23136 19.46633
#
# Velocity S-wave (km/s) = 3.03190 3.49802 3.27327
# Velocity P-wave (km/s) = 5.09310 5.69313 5.40146
#
# Compressibility (1/GPa) = 0.04022472
#
# Stress axis : x y z
#
# Youngs Moduli (GPa) = 77.98809 60.94225 38.05023
#
# Poissons Ratio (x) = 0.18701 0.17405
# Poissons Ratio (y) = 0.23932 0.00004
# Poissons Ratio (z) = 0.35673 0.00006
#
# Static dielectric constant tensor:
#      x y z
#    x 1.642030 0.000000 -0.002230 
#    y 0.000000 1.632890 0.000000 
#    z -0.002230 0.000000 1.620550 
# 
# From -- ./inp_files/52818.got.cif
#   From: 2010.05.17/outbox.cif.g08.bks.cpg/sg15_27_cif.got.tgz:52818.got - 2010.06.03 18:47:42.
