data_PCOD9300869
_publ_section_title
;
Structure prediction by ZEFSAII (Michael W. Deem and Ramdas Pophale) SiO2 
 PCOD9300869
Probable space group: C 2/C
;
_chemical_formula_sum "Si O2"
_cell_formula_units_Z 56
_cell_length_a 9.494634
_cell_length_b 17.500696
_cell_length_c 18.052188
_cell_angle_alpha 90.000000
_cell_angle_beta 52.584698
_cell_angle_gamma 90.000000
_cell_volume 2382.439724
_symmetry_space_group_name_H-M "C 2/C"
_symmetry_group_IT_number 15
_symmetry_cell_setting 'monoclinic'
loop_
_space_group_symop_operation_xyz
x,y,z
-x,y,1/2-z
-x,-y,-z
x,-y,1/2+z
1/2+x,1/2+y,z
1/2-x,1/2+y,1/2-z
1/2-x,1/2-y,-z
1/2+x,1/2-y,1/2+z
loop_
_atom_site_type_symbol
_atom_site_label
_atom_site_fract_x
_atom_site_fract_y
_atom_site_fract_z
Si Si1 0.145341 0.566695 0.074430
Si Si2 0.999634 0.681095 0.998322
Si Si3 0.743615 0.003956 0.310733
Si Si4 0.205218 0.076294 0.047213
Si Si5 0.700812 0.327469 0.199365
Si Si6 0.291558 0.263235 0.799134
Si Si7 0.171043 0.887661 0.835993
O O1 0.102659 0.631473 0.027522
O O2 0.211190 0.602356 0.129609
O O3 0.961744 0.520544 0.139811
O O4 0.281380 0.503147 0.000623
O O5 0.884776 0.625300 0.982152
O O6 0.847449 0.728095 0.089727
O O7 0.155951 0.715487 0.898419
O O8 0.794851 0.056269 0.364848
O O9 0.837996 0.032077 0.206331
O O10 0.783843 0.917706 0.319768
O O11 0.035082 0.125685 0.080119
O O12 0.500000 0.302272 0.250000
O O13 0.753325 0.313859 0.267256
O O14 0.500000 0.269585 0.750000
O O15 0.255381 0.328818 0.748597
#
# Coordination Sequence:
#
# PCOD9300869 Si02
#       7
#     8   8   8   8   8   8   8
#     4  11  22  37  71 106 139 176 233 285 344 409
#     4  11  23  47  72  96 140 189 227 286 353 419
#     4  11  21  41  69  98 138 181 224 290 347 404
#     4  11  19  42  70 101 139 179 230 277 357 413
#     4  12  28  47  71 101 139 185 242 289 350 412
#     4  12  27  49  71 101 139 193 230 283 355 427
#     4  12  23  39  69 108 141 177 233 284 338 423
#
# _framework density 23.505315
#
# number of rings (size 3 to 8) (size 9 to 14) (size 15 to 20)
#    0.000    0.571    7.143    3.000    2.000    2.286 
#    0.000    0.000    0.000    0.000    0.000    0.000 
#    0.000    0.000    0.000    0.000    0.000    0.000 
#
# Total GULP energy -156649.287787 kJ/mol
# GULP energy per Si atom -5594.617421 kJ/mol
# Density = 2.345182 g / cm^3
# Si number density = 23.505315 Si / 1000 Ang^3
#
#
#
# Elastic Constant Matrix: (Units=GPa)
#
#
# Indices 1 2 3 4 5 6 
#
# 1 120.9272 20.0827 36.3901 0.0001 -11.5859 0.0000
# 2 20.0827 24.7691 23.1759 0.0000 -8.1248 0.0000
# 3 36.3901 23.1759 95.1325 0.0001 -21.5912 0.0000
# 4 0.0001 0.0000 0.0001 28.4913 -0.0001 11.9692
# 5 -11.5859 -8.1248 -21.5912 -0.0001 28.9283 0.0000
# 6 0.0000 0.0000 0.0000 11.9692 0.0000 10.6928
#
#
#
# Elastic Compliance Matrix: (Units=1/GPa)
#
#
# Indices 1 2 3 4 5 6 
#
# 1 0.009969 -0.005743 -0.002256 0.000000 0.000695 0.000000
# 2 -0.005743 0.056553 -0.010230 0.000000 0.005948 0.000000
# 3 -0.002256 -0.010230 0.015663 0.000000 0.007913 0.000000
# 4 0.000000 0.000000 0.000000 0.066254 0.000000 -0.074163
# 5 0.000695 0.005948 0.007913 0.000000 0.042424 0.000000
# 6 0.000000 0.000000 0.000000 -0.074163 0.000000 0.176536
#
#
# Mechanical properties :
#
#
# Convention : Reuss Voigt Hill
#
# Bulk Modulus (GPa) = 21.87001 44.45848 33.16424
# Shear Modulus (GPa) = 11.93030 24.36781 18.14906
#
# Velocity S-wave (km/s) = 2.25535 3.22327 2.78173
# Velocity P-wave (km/s) = 4.01330 5.72782 4.94543
#
# Compressibility (1/GPa) = 0.04572471
#
# Stress axis : x y z
#
# Youngs Moduli (GPa) = 100.31233 17.68249 63.84453
#
# Poissons Ratio (x) = 0.10156 0.14405
# Poissons Ratio (y) = 0.57614 0.65316
# Poissons Ratio (z) = 0.22633 0.18090
#
# Static dielectric constant tensor:
#      x y z
#    x 1.846060 0.000000 -0.055120 
#    y 0.000000 1.926770 0.000000 
#    z -0.055120 0.000000 1.940760 
# 
# From -- ./inp_files/192028.got.cif
#   From: 2010.05.17/outbox.cif.g08.bks.cpg/sg15_97_cif.got.tgz:192028.got - 2010.06.03 18:47:42.
