data_PCOD9300782
_publ_section_title
;
Structure prediction by ZEFSAII (Michael W. Deem and Ramdas Pophale) SiO2 
 PCOD9300782
Probable space group: C 2/C
;
_chemical_formula_sum "Si O2"
_cell_formula_units_Z 44
_cell_length_a 16.969771
_cell_length_b 17.437064
_cell_length_c 10.546936
_cell_angle_alpha 90.000000
_cell_angle_beta 139.205196
_cell_angle_gamma 90.000000
_cell_volume 2039.026390
_symmetry_space_group_name_H-M "C 2/C"
_symmetry_group_IT_number 15
_symmetry_cell_setting 'monoclinic'
loop_
_space_group_symop_operation_xyz
x,y,z
-x,y,1/2-z
-x,-y,-z
x,-y,1/2+z
1/2+x,1/2+y,z
1/2-x,1/2+y,1/2-z
1/2-x,1/2-y,-z
1/2+x,1/2-y,1/2+z
loop_
_atom_site_type_symbol
_atom_site_label
_atom_site_fract_x
_atom_site_fract_y
_atom_site_fract_z
Si Si1 0.285432 0.610477 0.239115
Si Si2 0.625782 0.964703 0.098013
Si Si3 0.500000 0.866615 0.750000
Si Si4 0.883433 0.348785 0.191579
Si Si5 0.497486 0.314983 0.894253
Si Si6 0.167218 0.271823 0.780663
O O1 0.226662 0.528505 0.196864
O O2 0.426361 0.621258 0.387136
O O3 0.243173 0.665654 0.298648
O O4 0.223153 0.646784 0.038503
O O5 0.654366 0.902679 0.239759
O O6 0.598663 0.921494 0.933667
O O7 0.500000 0.000000 0.000000
O O8 0.552245 0.813892 0.702838
O O9 0.923321 0.265856 0.291579
O O10 0.000000 0.376633 0.250000
O O11 0.500000 0.339910 0.750000
O O12 0.617559 0.290399 0.118542
O O13 0.250000 0.250000 0.000000
#
# Coordination Sequence:
#
# PCOD9300782 Si02
#       6
#     8   8   4   8   8   8
#     4  12  24  39  66 102 134 180 224 285 348 398
#     4  12  21  36  62  99 136 171 224 279 341 405
#     4  12  22  40  62 100 140 166 224 290 340 406
#     4  11  19  38  66  97 134 172 228 283 335 406
#     4  11  23  44  68 100 137 178 234 281 343 416
#     4  12  25  40  67 103 137 178 219 285 354 407
#
# _framework density 21.578925999999999
#
# number of rings (size 3 to 8) (size 9 to 14) (size 15 to 20)
#    0.000    0.364    9.091    2.727    0.000    0.000 
#    0.000    0.000    0.000    4.364    0.000    0.000 
#    0.000    0.000    0.000    0.000    0.000    0.000 
#
# Total GULP energy -122934.995868 kJ/mol
# GULP energy per Si atom -5587.954358 kJ/mol
# Density = 2.152981 g / cm^3
# Si number density = 21.578926 Si / 1000 Ang^3
#
#
#
# Elastic Constant Matrix: (Units=GPa)
#
#
# Indices 1 2 3 4 5 6 
#
# 1 111.6759 46.3685 19.7011 0.0000 -10.0161 0.0000
# 2 46.3685 58.2981 30.3635 0.0000 -1.6241 0.0000
# 3 19.7011 30.3635 83.9871 0.0000 -24.9242 0.0000
# 4 0.0000 0.0000 0.0000 38.1509 0.0000 -18.5459
# 5 -10.0161 -1.6241 -24.9242 0.0000 37.1082 0.0000
# 6 0.0000 0.0000 0.0000 -18.5459 0.0000 52.8744
#
#
#
# Elastic Compliance Matrix: (Units=1/GPa)
#
#
# Indices 1 2 3 4 5 6 
#
# 1 0.014126 -0.012510 0.002720 0.000000 0.005092 0.000000
# 2 -0.012510 0.033065 -0.011980 0.000000 -0.009976 0.000000
# 3 0.002720 -0.011980 0.019561 0.000000 0.013348 0.000000
# 4 0.000000 0.000000 0.000000 0.031600 0.000000 0.011084
# 5 0.005092 -0.009976 0.013348 0.000000 0.036852 0.000000
# 6 0.000000 0.000000 0.000000 0.011084 0.000000 0.022800
#
#
# Mechanical properties :
#
#
# Convention : Reuss Voigt Hill
#
# Bulk Modulus (GPa) = 43.08042 49.64747 46.36394
# Shear Modulus (GPa) = 23.89158 36.12858 30.01008
#
# Velocity S-wave (km/s) = 3.33103 4.09620 3.73327
# Velocity P-wave (km/s) = 5.89930 6.74012 6.33368
#
# Compressibility (1/GPa) = 0.02321240
#
# Stress axis : x y z
#
# Youngs Moduli (GPa) = 70.79378 30.24363 51.12304
#
# Poissons Ratio (x) = 0.37835 -0.13908
# Poissons Ratio (y) = 0.88563 0.61244
# Poissons Ratio (z) = -0.19259 0.36231
#
# Static dielectric constant tensor:
#      x y z
#    x 1.886030 0.000000 0.010700 
#    y 0.000000 1.795190 0.000000 
#    z 0.010700 0.000000 1.862180 
# 
# From -- ./inp_files/106785.got.cif
#   From: 2010.05.17/outbox.cif.g08.bks.cpg/sg15_54_cif.got.tgz:106785.got - 2010.06.03 18:47:42.
