data_PCOD9300786
_publ_section_title
;
Structure prediction by ZEFSAII (Michael W. Deem and Ramdas Pophale) SiO2 
 PCOD9300786
Probable space group: C 2/C
;
_chemical_formula_sum "Si O2"
_cell_formula_units_Z 40
_cell_length_a 22.257242
_cell_length_b 14.621961
_cell_length_c 10.107564
_cell_angle_alpha 90.000000
_cell_angle_beta 36.864789
_cell_angle_gamma 90.000000
_cell_volume 1973.436171
_symmetry_space_group_name_H-M "C 2/C"
_symmetry_group_IT_number 15
_symmetry_cell_setting 'monoclinic'
loop_
_space_group_symop_operation_xyz
x,y,z
-x,y,1/2-z
-x,-y,-z
x,-y,1/2+z
1/2+x,1/2+y,z
1/2-x,1/2+y,1/2-z
1/2-x,1/2-y,-z
1/2+x,1/2-y,1/2+z
loop_
_atom_site_type_symbol
_atom_site_label
_atom_site_fract_x
_atom_site_fract_y
_atom_site_fract_z
Si Si1 0.710922 0.037862 0.390276
Si Si2 0.902927 0.560327 0.636887
Si Si3 0.439651 0.453508 0.488850
Si Si4 0.106329 0.715886 0.525431
Si Si5 0.954825 0.767074 0.600985
O O1 0.673790 0.042873 0.606791
O O2 0.826365 0.012574 0.178817
O O3 0.690522 0.140442 0.368165
O O4 0.644724 0.971421 0.416707
O O5 0.931278 0.667115 0.586444
O O6 0.000000 0.500000 0.500000
O O7 0.436238 0.346322 0.531577
O O8 0.431639 0.732833 0.538176
O O9 0.500000 0.470162 0.250000
O O10 0.113592 0.777778 0.644286
O O11 0.000000 0.663174 0.750000
O O12 0.000000 0.000000 0.500000
#
# Coordination Sequence:
#
# PCOD9300786 Si02
#       5
#     8   8   8   8   8
#     4  11  21  39  63  94 127 167 206 251 320 379
#     4  11  19  38  68 102 128 150 199 271 325 374
#     4  12  28  46  58  85 129 176 220 254 296 374
#     4   7  15  36  65  93 114 149 196 258 316 372
#     4   8  19  39  63  88 125 158 198 258 314 366
#
# _framework density 20.269213000000001
#
# number of rings (size 3 to 8) (size 9 to 14) (size 15 to 20)
#    1.200    0.800    2.000    1.800    2.800    4.800 
#    3.600    1.000    0.000    0.000    0.000    0.000 
#    0.000    0.000    0.000    0.000    0.000    0.000 
#
# Total GULP energy -111492.266559 kJ/mol
# GULP energy per Si atom -5574.613328 kJ/mol
# Density = 2.022308 g / cm^3
# Si number density = 20.269213 Si / 1000 Ang^3
#
#
#
# Elastic Constant Matrix: (Units=GPa)
#
#
# Indices 1 2 3 4 5 6 
#
# 1 76.4619 17.7947 23.3326 0.0000 -6.6532 0.0000
# 2 17.7947 54.5326 19.1586 0.0000 2.4789 0.0000
# 3 23.3326 19.1586 75.3871 0.0000 -9.7419 0.0000
# 4 0.0000 0.0000 0.0000 14.4602 0.0000 2.8808
# 5 -6.6532 2.4789 -9.7419 0.0000 34.5382 0.0000
# 6 0.0000 0.0000 0.0000 2.8808 0.0000 32.1630
#
#
#
# Elastic Compliance Matrix: (Units=1/GPa)
#
#
# Indices 1 2 3 4 5 6 
#
# 1 0.015221 -0.003860 -0.003441 0.000000 0.002239 0.000000
# 2 -0.003860 0.021418 -0.004715 0.000000 -0.003611 0.000000
# 3 -0.003441 -0.004715 0.016072 0.000000 0.004209 0.000000
# 4 0.000000 0.000000 0.000000 0.070412 0.000000 -0.006307
# 5 0.002239 -0.003611 0.004209 0.000000 0.030831 0.000000
# 6 0.000000 0.000000 0.000000 -0.006307 0.000000 0.031657
#
#
# Mechanical properties :
#
#
# Convention : Reuss Voigt Hill
#
# Bulk Modulus (GPa) = 34.86774 36.32813 35.59794
# Shear Modulus (GPa) = 22.81001 25.97200 24.39101
#
# Velocity S-wave (km/s) = 3.35827 3.58348 3.47270
# Velocity P-wave (km/s) = 5.68128 5.92313 5.80347
#
# Compressibility (1/GPa) = 0.02867981
#
# Stress axis : x y z
#
# Youngs Moduli (GPa) = 65.69658 46.69009 62.22013
#
# Poissons Ratio (x) = 0.18022 0.21409
# Poissons Ratio (y) = 0.25358 0.29337
# Poissons Ratio (z) = 0.22605 0.22014
#
# Static dielectric constant tensor:
#      x y z
#    x 1.785900 0.000000 0.006780 
#    y 0.000000 1.738330 0.000000 
#    z 0.006780 0.000000 1.731590 
# 
# From -- ./inp_files/122793.got.cif
#   From: 2010.05.17/outbox.cif.g08.bks.cpg/sg15_62_cif.got.tgz:122793.got - 2010.06.03 18:47:42.
