data_PCOD9300643
_publ_section_title
;
Structure prediction by ZEFSAII (Michael W. Deem and Ramdas Pophale) SiO2 
 PCOD9300643
Probable space group: C 2/C
;
_chemical_formula_sum "Si O2"
_cell_formula_units_Z 56
_cell_length_a 16.261465
_cell_length_b 21.131808
_cell_length_c 21.129279
_cell_angle_alpha 90.000000
_cell_angle_beta 155.255296
_cell_angle_gamma 90.000000
_cell_volume 3039.170829
_symmetry_space_group_name_H-M "C 2/C"
_symmetry_group_IT_number 15
_symmetry_cell_setting 'monoclinic'
loop_
_space_group_symop_operation_xyz
x,y,z
-x,y,1/2-z
-x,-y,-z
x,-y,1/2+z
1/2+x,1/2+y,z
1/2-x,1/2+y,1/2-z
1/2-x,1/2-y,-z
1/2+x,1/2-y,1/2+z
loop_
_atom_site_type_symbol
_atom_site_label
_atom_site_fract_x
_atom_site_fract_y
_atom_site_fract_z
Si Si1 0.742636 0.438440 0.784949
Si Si2 0.614880 0.797062 0.630881
Si Si3 0.204049 0.326800 0.199140
Si Si4 0.395477 0.530836 0.114109
Si Si5 0.596967 0.805795 0.884822
Si Si6 0.452288 0.616691 0.646610
Si Si7 0.494959 0.956378 0.089287
O O1 0.779797 0.364323 0.802703
O O2 0.508507 0.443378 0.631829
O O3 0.847425 0.485999 0.807908
O O4 0.856422 0.458159 0.929500
O O5 0.735929 0.731489 0.713572
O O6 0.440969 0.800029 0.457208
O O7 0.538614 0.800753 0.649434
O O8 0.397814 0.353411 0.298561
O O9 0.102568 0.388047 0.160906
O O10 0.500000 0.559959 0.250000
O O11 0.465961 0.458210 0.159824
O O12 0.162817 0.536641 0.963945
O O13 0.500000 0.799056 0.750000
O O14 0.750000 0.750000 0.000000
O O15 0.727101 0.868489 0.975635
O O16 0.500000 0.642435 0.750000
#
# Coordination Sequence:
#
# PCOD9300643 Si02
#       7
#     8   8   8   8   8   8   8
#     4   9  17  31  52  80 105 138 181 230 270 313
#     4  11  22  34  51  77 113 144 179 224 265 326
#     4  11  21  34  53  79 113 143 180 220 273 323
#     4   9  17  30  55  81 106 134 181 234 272 306
#     4  12  22  32  48  72 106 142 176 212 264 326
#     4  11  19  32  53  81 107 139 172 220 279 329
#     4   9  17  31  52  80 108 137 181 230 271 311
#
# _framework density 18.426079000000001
#
# number of rings (size 3 to 8) (size 9 to 14) (size 15 to 20)
#    0.000    1.714    4.286    2.143    4.000    0.000 
#    0.000    0.714    0.000    5.143    0.000    0.000 
#    0.000    0.000    0.000    0.000    0.000    0.000 
#
# Total GULP energy -155902.656555 kJ/mol
# GULP energy per Si atom -5567.952020 kJ/mol
# Density = 1.838414 g / cm^3
# Si number density = 18.426079 Si / 1000 Ang^3
#
#
#
# Elastic Constant Matrix: (Units=GPa)
#
#
# Indices 1 2 3 4 5 6 
#
# 1 46.7958 19.2688 23.1598 0.0182 30.7194 -0.0004
# 2 19.2688 87.4263 27.3318 0.0302 19.0502 0.0255
# 3 23.1598 27.3318 50.2782 0.0195 13.1511 0.0170
# 4 0.0182 0.0302 0.0195 30.3751 0.0024 5.3689
# 5 30.7194 19.0502 13.1511 0.0024 37.6058 0.0011
# 6 -0.0004 0.0255 0.0170 5.3689 0.0011 13.3969
#
#
#
# Elastic Compliance Matrix: (Units=1/GPa)
#
#
# Indices 1 2 3 4 5 6 
#
# 1 0.054725 0.001529 -0.015568 -0.000027 -0.040034 0.000032
# 2 0.001529 0.014658 -0.007048 -0.000008 -0.006209 -0.000015
# 3 -0.015568 -0.007048 0.029313 0.000001 0.006037 -0.000025
# 4 -0.000027 -0.000008 0.000001 0.035432 0.000023 -0.014200
# 5 -0.040034 -0.006209 0.006037 0.000023 0.060329 -0.000011
# 6 0.000032 -0.000015 -0.000025 -0.014200 -0.000011 0.080335
#
#
# Mechanical properties :
#
#
# Convention : Reuss Voigt Hill
#
# Bulk Modulus (GPa) = 17.69234 36.00235 26.84734
# Shear Modulus (GPa) = 14.88954 23.92488 19.40721
#
# Velocity S-wave (km/s) = 2.84574 3.60728 3.24890
# Velocity P-wave (km/s) = 4.51888 6.07710 5.35497
#
# Compressibility (1/GPa) = 0.05652164
#
# Stress axis : x y z
#
# Youngs Moduli (GPa) = 18.27309 68.22339 34.11455
#
# Poissons Ratio (x) = -0.10431 0.53109
# Poissons Ratio (y) = -0.02794 0.24045
# Poissons Ratio (z) = 0.28447 0.48085
#
# Static dielectric constant tensor:
#      x y z
#    x 1.618090 -0.000060 -0.061700 
#    y -0.000060 1.764000 -0.000290 
#    z -0.061700 -0.000290 1.339580 
# 
# From -- ./inp_files/278047.got.cif
#   From: 2010.05.17/outbox.cif.g08.bks.cpg/sg15_140_cif.got.tgz:278047.got - 2010.06.03 18:47:42.
