data_PCOD9300510
_publ_section_title
;
Structure prediction by ZEFSAII (Michael W. Deem and Ramdas Pophale) SiO2 
 PCOD9300510
Probable space group: C 2/C
;
_chemical_formula_sum "Si O2"
_cell_formula_units_Z 32
_cell_length_a 14.895412
_cell_length_b 19.990001
_cell_length_c 7.727449
_cell_angle_alpha 90.000000
_cell_angle_beta 145.664621
_cell_angle_gamma 90.000000
_cell_volume 1297.801700
_symmetry_space_group_name_H-M "C 2/C"
_symmetry_group_IT_number 15
_symmetry_cell_setting 'monoclinic'
loop_
_space_group_symop_operation_xyz
x,y,z
-x,y,1/2-z
-x,-y,-z
x,-y,1/2+z
1/2+x,1/2+y,z
1/2-x,1/2+y,1/2-z
1/2-x,1/2-y,-z
1/2+x,1/2-y,1/2+z
loop_
_atom_site_type_symbol
_atom_site_label
_atom_site_fract_x
_atom_site_fract_y
_atom_site_fract_z
Si Si1 0.323705 0.469373 0.228576
Si Si2 0.669412 0.093006 0.141726
Si Si3 0.374440 0.127648 0.889305
Si Si4 0.679766 0.729226 0.076751
O O1 0.500000 0.500000 0.500000
O O2 0.207562 0.531455 0.078640
O O3 0.274366 0.430188 0.977305
O O4 0.277886 0.417988 0.310110
O O5 0.489264 0.104818 0.918141
O O6 0.733773 0.166490 0.200498
O O7 0.500000 0.121862 0.250000
O O8 0.323663 0.204738 0.810984
O O9 0.500000 0.708801 0.750000
O O10 0.750000 0.750000 0.000000
#
# Coordination Sequence:
#
# PCOD9300510 Si02
#       4
#     8   8   8   8
#     4  11  21  34  53  81 114 145 185 224 276 328
#     4  11  22  36  56  84 114 147 179 229 279 329
#     4   9  19  34  52  80 110 143 180 230 270 318
#     4  11  17  32  55  81 109 135 191 234 270 309
#
# _framework density 24.657079
#
# number of rings (size 3 to 8) (size 9 to 14) (size 15 to 20)
#    0.000    1.500    7.500    3.000    0.000    0.000 
#    0.000    0.000    0.000    1.500    0.000    7.000 
#    0.000    0.000    0.000    0.000    0.000    0.000 
#
# Total GULP energy -89554.858388 kJ/mol
# GULP energy per Si atom -5597.178649 kJ/mol
# Density = 2.460096 g / cm^3
# Si number density = 24.657079 Si / 1000 Ang^3
#
#
#
# Elastic Constant Matrix: (Units=GPa)
#
#
# Indices 1 2 3 4 5 6 
#
# 1 81.9008 37.2416 15.8128 0.0000 20.6939 0.0000
# 2 37.2416 206.4722 67.0024 0.0000 28.9470 0.0000
# 3 15.8128 67.0024 82.0609 0.0000 33.4339 0.0000
# 4 0.0000 0.0000 0.0000 48.0994 0.0000 14.6944
# 5 20.6939 28.9470 33.4339 0.0000 37.0439 0.0000
# 6 0.0000 0.0000 0.0000 14.6944 0.0000 49.0241
#
#
#
# Elastic Compliance Matrix: (Units=1/GPa)
#
#
# Indices 1 2 3 4 5 6 
#
# 1 0.015016 -0.002310 0.002649 0.000000 -0.008974 0.000000
# 2 -0.002310 0.006950 -0.005603 0.000000 0.000916 0.000000
# 3 0.002649 -0.005603 0.023833 0.000000 -0.018613 0.000000
# 4 0.000000 0.000000 0.000000 0.022886 0.000000 -0.006860
# 5 -0.008974 0.000916 -0.018613 0.000000 0.048091 0.000000
# 6 0.000000 0.000000 0.000000 -0.006860 0.000000 0.022454
#
#
# Mechanical properties :
#
#
# Convention : Reuss Voigt Hill
#
# Bulk Modulus (GPa) = 28.35106 67.83860 48.09483
# Shear Modulus (GPa) = 30.95689 43.52529 37.24109
#
# Velocity S-wave (km/s) = 3.54714 4.20602 3.89055
# Velocity P-wave (km/s) = 5.31972 7.15262 6.30315
#
# Compressibility (1/GPa) = 0.03527205
#
# Stress axis : x y z
#
# Youngs Moduli (GPa) = 66.59396 143.89521 41.95803
#
# Poissons Ratio (x) = 0.33238 -0.11114
# Poissons Ratio (y) = 0.15383 0.23507
# Poissons Ratio (z) = -0.17640 0.80617
#
# Static dielectric constant tensor:
#      x y z
#    x 2.131470 0.000000 -0.098840 
#    y 0.000000 1.932300 0.000000 
#    z -0.098840 0.000000 2.015960 
# 
# From -- ./inp_files/28893.got.cif
#   From: 2010.05.17/outbox.cif.g08.bks.cpg/sg15_15_cif.got.tgz:28893.got - 2010.06.03 18:47:42.
