data_PCOD9300511
_publ_section_title
;
Structure prediction by ZEFSAII (Michael W. Deem and Ramdas Pophale) SiO2 
 PCOD9300511
Probable space group: C 2/C
;
_chemical_formula_sum "Si O2"
_cell_formula_units_Z 32
_cell_length_a 7.506376
_cell_length_b 11.583979
_cell_length_c 17.546084
_cell_angle_alpha 90.000000
_cell_angle_beta 130.389125
_cell_angle_gamma 90.000000
_cell_volume 1162.064344
_symmetry_space_group_name_H-M "C 2/C"
_symmetry_group_IT_number 15
_symmetry_cell_setting 'monoclinic'
loop_
_space_group_symop_operation_xyz
x,y,z
-x,y,1/2-z
-x,-y,-z
x,-y,1/2+z
1/2+x,1/2+y,z
1/2-x,1/2+y,1/2-z
1/2-x,1/2-y,-z
1/2+x,1/2-y,1/2+z
loop_
_atom_site_type_symbol
_atom_site_label
_atom_site_fract_x
_atom_site_fract_y
_atom_site_fract_z
Si Si1 0.856081 0.075986 0.106064
Si Si2 0.205209 0.591602 0.903339
Si Si3 0.675998 0.397057 0.235128
Si Si4 0.116071 0.631194 0.461768
O O1 0.900111 0.034424 0.291177
O O2 0.659024 0.143727 0.097355
O O3 0.854006 0.123728 0.019281
O O4 0.726231 0.950598 0.058643
O O5 0.316880 0.622112 0.854022
O O6 0.165138 0.452499 0.903207
O O7 0.939093 0.635368 0.832031
O O8 0.500000 0.345696 0.250000
O O9 0.250000 0.750000 0.500000
#
# Coordination Sequence:
#
# PCOD9300511 Si02
#       4
#     8   8   8   8
#     4   9  18  35  56  83 112 156 198 239 310 365
#     4   9  20  32  56  87 108 153 204 245 299 368
#     4  11  17  32  60  79 115 153 199 248 299 368
#     4   9  17  34  57  82 113 150 200 248 300 365
#
# _framework density 27.537202000000001
#
# number of rings (size 3 to 8) (size 9 to 14) (size 15 to 20)
#    1.500    1.000    2.500    0.750    0.000    0.000 
#    0.000    1.250   16.500    3.000    0.000    0.000 
#    0.000    0.000    0.000    0.000    0.000    0.000 
#
# Total GULP energy -89172.259012 kJ/mol
# GULP energy per Si atom -5573.266188 kJ/mol
# Density = 2.747453 g / cm^3
# Si number density = 27.537202 Si / 1000 Ang^3
#
#
#
# Elastic Constant Matrix: (Units=GPa)
#
#
# Indices 1 2 3 4 5 6 
#
# 1 228.7766 19.1765 38.1009 0.0000 -15.5266 0.0000
# 2 19.1765 91.8953 -5.4652 0.0000 -17.9926 0.0000
# 3 38.1009 -5.4652 83.6918 0.0000 -12.8536 0.0000
# 4 0.0000 0.0000 0.0000 9.2202 0.0000 15.2353
# 5 -15.5266 -17.9926 -12.8536 0.0000 56.8214 0.0000
# 6 0.0000 0.0000 0.0000 15.2353 0.0000 22.6369
#
#
#
# Elastic Compliance Matrix: (Units=1/GPa)
#
#
# Indices 1 2 3 4 5 6 
#
# 1 0.004860 -0.001048 -0.002204 0.000000 0.000497 0.000000
# 2 -0.001048 0.011981 0.001863 0.000000 0.003929 0.000000
# 3 -0.002204 0.001863 0.013542 0.000000 0.003051 0.000000
# 4 0.000000 0.000000 0.000000 -0.967492 0.000000 0.651150
# 5 0.000497 0.003929 0.003051 0.000000 0.019669 0.000000
# 6 0.000000 0.000000 0.000000 0.651150 0.000000 -0.394068
#
#
# Mechanical properties :
#
#
# Convention : Reuss Voigt Hill
#
# Bulk Modulus (GPa) = 36.22691 56.44310 46.33500
# Shear Modulus (GPa) = -3.84755 41.23914 18.69579
#
# Velocity S-wave (km/s) = -1.18332 3.87406 2.60845
# Velocity P-wave (km/s) = 3.36410 6.36809 5.09263
#
# Compressibility (1/GPa) = 0.02760379
#
# Stress axis : x y z
#
# Youngs Moduli (GPa) = 205.76955 83.46813 73.84217
#
# Poissons Ratio (x) = 0.08746 0.16278
# Poissons Ratio (y) = 0.21561 -0.13755
# Poissons Ratio (z) = 0.45361 -0.15548
#
# Static dielectric constant tensor:
#      x y z
#    x 2.216420 0.000000 0.037880 
#    y 0.000000 2.202830 0.000000 
#    z 0.037880 0.000000 2.291490 
# 
# From -- ./inp_files/187706.got.cif
#   From: 2010.05.17/outbox.cif.g08.bks.cpg/sg15_94_cif.got.tgz:187706.got - 2010.06.03 18:47:42.
