data_PCOD9300161
_publ_section_title
;
Structure prediction by ZEFSAII (Michael W. Deem and Ramdas Pophale) SiO2 
 PCOD9300161
Probable space group: C 2/C
;
_chemical_formula_sum "Si O2"
_cell_formula_units_Z 32
_cell_length_a 13.304634
_cell_length_b 13.081877
_cell_length_c 9.792147
_cell_angle_alpha 90.000000
_cell_angle_beta 135.766456
_cell_angle_gamma 90.000000
_cell_volume 1188.906948
_symmetry_space_group_name_H-M "C 2/C"
_symmetry_group_IT_number 15
_symmetry_cell_setting 'monoclinic'
loop_
_space_group_symop_operation_xyz
x,y,z
-x,y,1/2-z
-x,-y,-z
x,-y,1/2+z
1/2+x,1/2+y,z
1/2-x,1/2+y,1/2-z
1/2-x,1/2-y,-z
1/2+x,1/2-y,1/2+z
loop_
_atom_site_type_symbol
_atom_site_label
_atom_site_fract_x
_atom_site_fract_y
_atom_site_fract_z
Si Si1 0.557217 0.593440 0.462470
Si Si2 0.160024 0.618944 0.428916
Si Si3 0.306701 0.765134 0.788317
Si Si4 0.833247 0.613267 0.569896
O O1 0.500000 0.583574 0.250000
O O2 0.500000 0.500000 0.500000
O O3 0.543723 0.703620 0.526147
O O4 0.730606 0.601161 0.600863
O O5 0.239603 0.685694 0.616559
O O6 0.212038 0.633329 0.324732
O O7 0.157247 0.502852 0.474355
O O8 0.000000 0.659755 0.250000
O O9 0.261838 0.811837 0.890352
O O10 0.000000 0.644284 0.750000
#
# Coordination Sequence:
#
# PCOD9300161 Si02
#       4
#     8   8   8   8
#     4  12  29  51  82 123 173 221 280 353 431 505
#     4  10  26  45  79 114 163 222 281 351 415 500
#     4  11  26  48  78 120 171 220 285 348 425 502
#     4  11  27  51  83 119 162 224 283 346 422 511
#
# _framework density 26.915476999999999
#
# number of rings (size 3 to 8) (size 9 to 14) (size 15 to 20)
#    0.000    1.000    0.000    3.000   14.000    5.000 
#    0.000    0.000    0.000    0.000    0.000    0.000 
#    0.000    0.000    0.000    0.000    0.000    0.000 
#
# Total GULP energy -89228.011429 kJ/mol
# GULP energy per Si atom -5576.750714 kJ/mol
# Density = 2.685422 g / cm^3
# Si number density = 26.915477 Si / 1000 Ang^3
#
#
#
# Elastic Constant Matrix: (Units=GPa)
#
#
# Indices 1 2 3 4 5 6 
#
# 1 138.2740 31.6085 75.5405 0.0000 -24.9392 0.0000
# 2 31.6085 147.1749 72.4195 0.0000 -33.3030 0.0000
# 3 75.5405 72.4195 170.8753 0.0000 -45.1233 0.0000
# 4 0.0000 0.0000 0.0000 -3.7503 0.0000 -34.7436
# 5 -24.9392 -33.3030 -45.1233 0.0000 55.0095 0.0000
# 6 0.0000 0.0000 0.0000 -34.7436 0.0000 42.4069
#
#
#
# Elastic Compliance Matrix: (Units=1/GPa)
#
#
# Indices 1 2 3 4 5 6 
#
# 1 0.009591 0.000176 -0.004006 0.000000 0.001169 0.000000
# 2 0.000176 0.008946 -0.003087 0.000000 0.002964 0.000000
# 3 -0.004006 -0.003087 0.010159 0.000000 0.004648 0.000000
# 4 0.000000 0.000000 0.000000 -0.031041 0.000000 -0.025432
# 5 0.001169 0.002964 0.004648 0.000000 0.024316 0.000000
# 6 0.000000 0.000000 0.000000 -0.025432 0.000000 0.002745
#
#
# Mechanical properties :
#
#
# Convention : Reuss Voigt Hill
#
# Bulk Modulus (GPa) = 67.28235 90.60680 78.94458
# Shear Modulus (GPa) = 114.93184 37.18360 76.05772
#
# Velocity S-wave (km/s) = 6.54169 3.72088 5.32159
# Velocity P-wave (km/s) = 9.06147 7.22471 8.19471
#
# Compressibility (1/GPa) = 0.01486274
#
# Stress axis : x y z
#
# Youngs Moduli (GPa) = 104.26347 111.77687 98.43710
#
# Poissons Ratio (x) = -0.01964 0.39433
# Poissons Ratio (y) = -0.01832 0.30384
# Poissons Ratio (z) = 0.41767 0.34501
#
# Static dielectric constant tensor:
#      x y z
#    x 1.732390 0.000000 0.295780 
#    y 0.000000 2.285230 0.000000 
#    z 0.295780 0.000000 2.043340 
# 
# From -- ./inp_files/104023.got.cif
#   From: 2010.05.17/outbox.cif.g08.bks.cpg/sg15_53_cif.got.tgz:104023.got - 2010.06.03 18:47:42.
