data_PCOD9300715
_publ_section_title
;
Structure prediction by ZEFSAII (Michael W. Deem and Ramdas Pophale) SiO2 
 PCOD9300715
Probable space group: C 2/C
;
_chemical_formula_sum "Si O2"
_cell_formula_units_Z 48
_cell_length_a 31.511913
_cell_length_b 11.963151
_cell_length_c 20.922468
_cell_angle_alpha 90.000000
_cell_angle_beta 18.303638
_cell_angle_gamma 90.000000
_cell_volume 2477.056150
_symmetry_space_group_name_H-M "C 2/C"
_symmetry_group_IT_number 15
_symmetry_cell_setting 'monoclinic'
loop_
_space_group_symop_operation_xyz
x,y,z
-x,y,1/2-z
-x,-y,-z
x,-y,1/2+z
1/2+x,1/2+y,z
1/2-x,1/2+y,1/2-z
1/2-x,1/2-y,-z
1/2+x,1/2-y,1/2+z
loop_
_atom_site_type_symbol
_atom_site_label
_atom_site_fract_x
_atom_site_fract_y
_atom_site_fract_z
Si Si1 0.072426 0.473242 0.712455
Si Si2 0.393681 0.295453 0.347367
Si Si3 0.618501 0.947123 0.403647
Si Si4 0.627036 0.524837 0.732571
Si Si5 0.374679 0.156412 0.190385
Si Si6 0.125766 0.879039 0.378573
O O1 0.083050 0.336724 0.697185
O O2 0.224604 0.516753 0.499360
O O3 0.000000 0.504750 0.750000
O O4 0.980407 0.505782 0.903511
O O5 0.500000 0.329583 0.250000
O O6 0.410089 0.373106 0.261875
O O7 0.244389 0.312765 0.590225
O O8 0.522525 0.852071 0.510749
O O9 0.747376 0.905579 0.258084
O O10 0.655688 0.035327 0.295980
O O11 0.642557 0.567304 0.783539
O O12 0.509846 0.432943 0.899266
O O13 0.378264 0.248132 0.129962
#
# Coordination Sequence:
#
# PCOD9300715 Si02
#       6
#     8   8   8   8   8   8
#     4  11  19  36  60  88 117 156 199 250 295 348
#     4  11  20  35  61  89 118 155 200 248 300 348
#     4  11  23  39  62  88 126 156 199 242 305 356
#     4  11  21  35  59  89 120 151 203 249 294 348
#     4  11  23  40  61  89 121 162 195 246 300 359
#     4  11  23  39  59  93 121 157 198 251 300 352
#
# _framework density 19.377839999999999
#
# number of rings (size 3 to 8) (size 9 to 14) (size 15 to 20)
#    0.000    1.000    5.000    3.500    0.000    2.667 
#    0.000    0.833    0.000    1.000    0.000    0.000 
#    0.000    0.000    0.000    0.000    0.000    0.000 
#
# Total GULP energy -134109.335593 kJ/mol
# GULP energy per Si atom -5587.888983 kJ/mol
# Density = 1.933373 g / cm^3
# Si number density = 19.377840 Si / 1000 Ang^3
#
#
#
# Elastic Constant Matrix: (Units=GPa)
#
#
# Indices 1 2 3 4 5 6 
#
# 1 98.3421 12.1945 28.8238 0.0001 -33.3863 0.0000
# 2 12.1945 42.4086 20.6613 0.0002 -7.8355 -0.0001
# 3 28.8238 20.6613 76.1158 0.0002 -26.4058 0.0000
# 4 0.0001 0.0002 0.0002 25.2503 -0.0001 9.1308
# 5 -33.3863 -7.8355 -26.4058 -0.0001 46.9933 0.0000
# 6 0.0000 -0.0001 0.0000 9.1308 0.0000 22.1495
#
#
#
# Elastic Compliance Matrix: (Units=1/GPa)
#
#
# Indices 1 2 3 4 5 6 
#
# 1 0.013785 -0.001483 -0.001870 0.000000 0.008495 0.000000
# 2 -0.001483 0.027342 -0.007011 0.000000 -0.000434 0.000000
# 3 -0.001870 -0.007011 0.018486 0.000000 0.007890 0.000000
# 4 0.000000 0.000000 0.000000 0.046541 0.000000 -0.019186
# 5 0.008495 -0.000434 0.007890 0.000000 0.031676 0.000000
# 6 0.000000 0.000000 0.000000 -0.019186 0.000000 0.053057
#
#
# Mechanical properties :
#
#
# Convention : Reuss Voigt Hill
#
# Bulk Modulus (GPa) = 25.71722 37.80287 31.76004
# Shear Modulus (GPa) = 22.26408 29.22441 25.74425
#
# Velocity S-wave (km/s) = 3.39329 3.88769 3.64887
# Velocity P-wave (km/s) = 5.35283 6.30101 5.84618
#
# Compressibility (1/GPa) = 0.03888446
#
# Stress axis : x y z
#
# Youngs Moduli (GPa) = 72.54430 36.57378 54.09401
#
# Poissons Ratio (x) = 0.05424 0.10118
# Poissons Ratio (y) = 0.10758 0.37925
# Poissons Ratio (z) = 0.13569 0.25642
#
# Static dielectric constant tensor:
#      x y z
#    x 1.706940 0.000000 -0.007450 
#    y 0.000000 1.656650 0.000000 
#    z -0.007450 0.000000 1.679910 
# 
# From -- ./inp_files/182047.got.cif
#   From: 2010.05.17/outbox.cif.g08.bks.cpg/sg15_92_cif.got.tgz:182047.got - 2010.06.03 18:47:42.
