data_PCOD9300323
_publ_section_title
;
Structure prediction by ZEFSAII (Michael W. Deem and Ramdas Pophale) SiO2 
 PCOD9300323
Probable space group: C 2/C
;
_chemical_formula_sum "Si O2"
_cell_formula_units_Z 52
_cell_length_a 5.173364
_cell_length_b 14.543728
_cell_length_c 28.449912
_cell_angle_alpha 90.000000
_cell_angle_beta 72.899028
_cell_angle_gamma 90.000000
_cell_volume 2045.932463
_symmetry_space_group_name_H-M "C 2/C"
_symmetry_group_IT_number 15
_symmetry_cell_setting 'monoclinic'
loop_
_space_group_symop_operation_xyz
x,y,z
-x,y,1/2-z
-x,-y,-z
x,-y,1/2+z
1/2+x,1/2+y,z
1/2-x,1/2+y,1/2-z
1/2-x,1/2-y,-z
1/2+x,1/2-y,1/2+z
loop_
_atom_site_type_symbol
_atom_site_label
_atom_site_fract_x
_atom_site_fract_y
_atom_site_fract_z
Si Si1 0.866081 0.423194 0.569750
Si Si2 0.747628 0.306374 0.325539
Si Si3 0.500000 0.927883 0.250000
Si Si4 0.500000 0.462559 0.750000
Si Si5 0.647361 0.113883 0.537594
Si Si6 0.479495 0.632749 0.164950
Si Si7 0.500000 0.790247 0.750000
Si Si8 0.402403 0.280918 0.425953
O O1 0.033878 0.518242 0.566315
O O2 0.589551 0.424225 0.615526
O O3 0.037723 0.329526 0.573599
O O4 0.786276 0.412931 0.519576
O O5 0.675089 0.272162 0.276442
O O6 0.479152 0.317958 0.369629
O O7 0.967502 0.382425 0.302836
O O8 0.907710 0.233879 0.348660
O O9 0.218860 0.978673 0.263812
O O10 0.360059 0.404163 0.797963
O O11 0.897892 0.161534 0.550477
O O12 0.403303 0.188304 0.548273
O O13 0.188984 0.650782 0.204528
#
# Coordination Sequence:
#
# PCOD9300323 Si02
#       8
#     8   8   4   4   8   8   4   8
#     4  10  26  48  78 107 150 195 245 310 374 432
#     4  11  25  43  70  99 138 195 236 297 360 432
#     4  12  26  40  65  99 142 178 232 294 352 424
#     4  12  26  42  65 103 142 180 232 298 354 434
#     4  11  26  52  74 114 147 192 251 310 365 447
#     4  11  24  46  67 103 136 195 237 292 363 437
#     4  12  20  46  74  94 146 182 256 280 370 442
#     4  11  27  46  78 109 150 190 248 303 376 435
#
# _framework density 25.416283
#
# number of rings (size 3 to 8) (size 9 to 14) (size 15 to 20)
#    0.000    0.923    3.077    1.846    8.615    3.692 
#    5.538    0.000    0.000    0.000    0.000    0.000 
#    0.000    0.000    0.000    0.000    0.000    0.000 
#
# Total GULP energy -145178.304664 kJ/mol
# GULP energy per Si atom -5583.780949 kJ/mol
# Density = 2.535843 g / cm^3
# Si number density = 25.416283 Si / 1000 Ang^3
#
#
#
# Elastic Constant Matrix: (Units=GPa)
#
#
# Indices 1 2 3 4 5 6 
#
# 1 77.3513 -4.2448 20.5669 0.0000 0.0867 0.0000
# 2 -4.2448 76.5460 -6.9396 0.0000 7.1082 0.0000
# 3 20.5669 -6.9396 137.1585 0.0000 -23.5816 0.0000
# 4 0.0000 0.0000 0.0000 15.3904 0.0000 0.4057
# 5 0.0867 7.1082 -23.5816 0.0000 28.8646 0.0000
# 6 0.0000 0.0000 0.0000 0.4057 0.0000 25.6620
#
#
#
# Elastic Compliance Matrix: (Units=1/GPa)
#
#
# Indices 1 2 3 4 5 6 
#
# 1 0.013602 0.000740 -0.002374 0.000000 -0.002163 0.000000
# 2 0.000740 0.013412 -0.000001 0.000000 -0.003306 0.000000
# 3 -0.002374 -0.000001 0.008898 0.000000 0.007277 0.000000
# 4 0.000000 0.000000 0.000000 0.065003 0.000000 -0.001028
# 5 -0.002163 -0.003306 0.007277 0.000000 0.041410 0.000000
# 6 0.000000 0.000000 0.000000 -0.001028 0.000000 0.038984
#
#
# Mechanical properties :
#
#
# Convention : Reuss Voigt Hill
#
# Bulk Modulus (GPa) = 30.63497 34.42454 32.52976
# Shear Modulus (GPa) = 25.58075 32.76161 29.17118
#
# Velocity S-wave (km/s) = 3.17593 3.59416 3.39150
# Velocity P-wave (km/s) = 5.05254 5.54957 5.30688
#
# Compressibility (1/GPa) = 0.03264243
#
# Stress axis : x y z
#
# Youngs Moduli (GPa) = 73.51705 74.56022 112.38665
#
# Poissons Ratio (x) = -0.05517 0.26681
# Poissons Ratio (y) = -0.05439 0.00008
# Poissons Ratio (z) = 0.17453 0.00005
#
# Static dielectric constant tensor:
#      x y z
#    x 2.043340 0.000000 -0.041740 
#    y 0.000000 2.251410 0.000000 
#    z -0.041740 0.000000 2.011050 
# 
# From -- ./inp_files/305370.got.cif
#   From: 2010.05.17/outbox.cif.g08.bks.cpg/sg15_153_cif.got.tgz:305370.got - 2010.06.03 18:47:42.
