data_PCOD9300283
_publ_section_title
;
Structure prediction by ZEFSAII (Michael W. Deem and Ramdas Pophale) SiO2 
 PCOD9300283
Probable space group: C 2/C
;
_chemical_formula_sum "Si O2"
_cell_formula_units_Z 48
_cell_length_a 13.401251
_cell_length_b 25.652081
_cell_length_c 10.684401
_cell_angle_alpha 90.000000
_cell_angle_beta 34.397465
_cell_angle_gamma 90.000000
_cell_volume 2074.976312
_symmetry_space_group_name_H-M "C 2/C"
_symmetry_group_IT_number 15
_symmetry_cell_setting 'monoclinic'
loop_
_space_group_symop_operation_xyz
x,y,z
-x,y,1/2-z
-x,-y,-z
x,-y,1/2+z
1/2+x,1/2+y,z
1/2-x,1/2+y,1/2-z
1/2-x,1/2-y,-z
1/2+x,1/2-y,1/2+z
loop_
_atom_site_type_symbol
_atom_site_label
_atom_site_fract_x
_atom_site_fract_y
_atom_site_fract_z
Si Si1 0.972751 0.362258 0.561070
Si Si2 0.864936 0.256565 0.789554
Si Si3 0.000000 0.912899 0.250000
Si Si4 0.157219 0.533379 0.185717
Si Si5 0.669054 0.567295 0.000460
Si Si6 0.627560 0.649945 0.836737
Si Si7 0.500000 0.877471 0.250000
O O1 0.875872 0.315097 0.729604
O O2 0.895498 0.419510 0.667602
O O3 0.991776 0.349746 0.393364
O O4 0.170869 0.362679 0.410042
O O5 0.889030 0.211800 0.660694
O O6 0.134094 0.250695 0.557217
O O7 0.823547 0.946135 0.434534
O O8 0.000619 0.876023 0.129791
O O9 0.233207 0.480645 0.171405
O O10 0.000000 0.523242 0.250000
O O11 0.606544 0.616921 0.984282
O O12 0.823189 0.588469 0.929225
O O13 0.500000 0.548509 0.250000
#
# Coordination Sequence:
#
# PCOD9300283 Si02
#       7
#     8   8   4   8   8   8   4
#     4  11  25  46  69 104 146 193 241 290 365 432
#     4  12  23  41  71 104 140 177 234 308 357 413
#     4  12  24  40  68 108 142 180 236 294 370 412
#     4  12  24  43  73 104 143 188 239 300 360 420
#     4  11  26  47  68 102 146 192 245 290 355 433
#     4  11  25  44  69 104 142 189 237 296 363 427
#     4  10  26  48  68  96 152 194 236 292 348 436
#
# _framework density 23.132795000000002
#
# number of rings (size 3 to 8) (size 9 to 14) (size 15 to 20)
#    0.000    0.667    5.833    1.500    2.333    4.667 
#    1.500    1.667    0.000    0.000    0.000    0.000 
#    0.000    0.000    0.000    0.000    0.000    0.000 
#
# Total GULP energy -133828.547995 kJ/mol
# GULP energy per Si atom -5576.189500 kJ/mol
# Density = 2.308014 g / cm^3
# Si number density = 23.132795 Si / 1000 Ang^3
#
#
#
# Elastic Constant Matrix: (Units=GPa)
#
#
# Indices 1 2 3 4 5 6 
#
# 1 103.3949 49.4105 22.7819 0.0000 -0.4693 0.0000
# 2 49.4105 136.8967 46.6562 0.0000 12.5686 0.0000
# 3 22.7819 46.6562 82.6731 0.0000 2.6393 0.0000
# 4 0.0000 0.0000 0.0000 54.3998 0.0000 -3.2600
# 5 -0.4693 12.5686 2.6393 0.0000 22.9714 0.0000
# 6 0.0000 0.0000 0.0000 -3.2600 0.0000 31.7353
#
#
#
# Elastic Compliance Matrix: (Units=1/GPa)
#
#
# Indices 1 2 3 4 5 6 
#
# 1 0.011912 -0.004205 -0.000995 0.000000 0.002658 0.000000
# 2 -0.004205 0.010989 -0.004866 0.000000 -0.005540 0.000000
# 3 -0.000995 -0.004866 0.015087 0.000000 0.000909 0.000000
# 4 0.000000 0.000000 0.000000 0.018496 0.000000 0.001900
# 5 0.002658 -0.005540 0.000909 0.000000 0.046513 0.000000
# 6 0.000000 0.000000 0.000000 0.001900 0.000000 0.031706
#
#
# Mechanical properties :
#
#
# Convention : Reuss Voigt Hill
#
# Bulk Modulus (GPa) = 55.99814 62.29575 59.14694
# Shear Modulus (GPa) = 31.09690 35.42904 33.26297
#
# Velocity S-wave (km/s) = 3.67042 3.91775 3.79610
# Velocity P-wave (km/s) = 6.49788 6.88862 6.69610
#
# Compressibility (1/GPa) = 0.01785774
#
# Stress axis : x y z
#
# Youngs Moduli (GPa) = 83.94795 90.99640 66.28125
#
# Poissons Ratio (x) = 0.38260 0.06592
# Poissons Ratio (y) = 0.35296 0.32255
# Poissons Ratio (z) = 0.08350 0.44282
#
# Static dielectric constant tensor:
#      x y z
#    x 2.591110 0.000000 -1.065870 
#    y 0.000000 1.840320 0.000000 
#    z -1.065870 0.000000 3.327850 
# 
# From -- ./inp_files/101275.got.cif
#   From: 2010.05.17/outbox.cif.g08.bks.cpg/sg15_51_cif.got.tgz:101275.got - 2010.06.03 18:47:42.
