data_PCOD9300979
_publ_section_title
;
Structure prediction by ZEFSAII (Michael W. Deem and Ramdas Pophale) SiO2 
 PCOD9300979
Probable space group: C 2/C
;
_chemical_formula_sum "Si O2"
_cell_formula_units_Z 56
_cell_length_a 24.244681
_cell_length_b 12.476462
_cell_length_c 10.193567
_cell_angle_alpha 90.000000
_cell_angle_beta 106.661227
_cell_angle_gamma 90.000000
_cell_volume 2953.977621
_symmetry_space_group_name_H-M "C 2/C"
_symmetry_group_IT_number 15
_symmetry_cell_setting 'monoclinic'
loop_
_space_group_symop_operation_xyz
x,y,z
-x,y,1/2-z
-x,-y,-z
x,-y,1/2+z
1/2+x,1/2+y,z
1/2-x,1/2+y,1/2-z
1/2-x,1/2-y,-z
1/2+x,1/2-y,1/2+z
loop_
_atom_site_type_symbol
_atom_site_label
_atom_site_fract_x
_atom_site_fract_y
_atom_site_fract_z
Si Si1 0.729737 0.792635 0.124595
Si Si2 0.933751 0.205962 0.736705
Si Si3 0.662664 0.760608 0.637218
Si Si4 0.231210 0.518740 0.184390
Si Si5 0.537485 0.530963 0.153664
Si Si6 0.628335 0.646062 0.061659
Si Si7 0.305864 0.556209 0.984085
O O1 0.790428 0.797688 0.238641
O O2 0.684736 0.707497 0.149107
O O3 0.702720 0.909688 0.110767
O O4 0.750000 0.750000 0.000000
O O5 0.898445 0.261467 0.830427
O O6 0.898516 0.212698 0.577073
O O7 0.000000 0.236837 0.750000
O O8 0.935258 0.080993 0.780211
O O9 0.688767 0.879889 0.645518
O O10 0.669443 0.676747 0.521177
O O11 0.255821 0.485274 0.345731
O O12 0.281892 0.541692 0.113876
O O13 0.500000 0.569612 0.250000
O O14 0.582707 0.619757 0.141429
O O15 0.500000 0.500000 0.000000
O O16 0.645244 0.530287 0.014296
#
# Coordination Sequence:
#
# PCOD9300979 Si02
#       7
#     8   8   8   8   8   8   8
#     4  11  20  35  60  88 114 160 190 236 298 354
#     4  11  22  36  59  88 112 161 200 238 293 352
#     4  11  21  36  56  86 123 150 193 250 292 346
#     4  11  22  38  55  86 125 151 199 229 294 358
#     4  11  22  38  56  89 123 155 196 243 297 346
#     4  12  20  36  62  86 123 153 200 236 295 364
#     4  11  22  34  57  88 121 154 187 240 298 352
#
# _framework density 18.95749
#
# number of rings (size 3 to 8) (size 9 to 14) (size 15 to 20)
#    0.000    0.857    8.571    1.286    0.000    0.000 
#    0.000    0.000    0.000    1.714    0.000    0.000 
#    0.000    0.000    0.000    0.000    0.000    0.000 
#
# Total GULP energy -156095.804439 kJ/mol
# GULP energy per Si atom -5574.850159 kJ/mol
# Density = 1.891434 g / cm^3
# Si number density = 18.957490 Si / 1000 Ang^3
#
#
#
# Elastic Constant Matrix: (Units=GPa)
#
#
# Indices 1 2 3 4 5 6 
#
# 1 96.9472 25.8758 16.6686 0.0000 -26.2049 0.0000
# 2 25.8758 106.0282 -1.0811 0.0000 -15.1781 0.0000
# 3 16.6686 -1.0811 54.1542 0.0000 -12.6939 0.0000
# 4 0.0000 0.0000 0.0000 16.5424 0.0000 -0.1300
# 5 -26.2049 -15.1781 -12.6939 0.0000 33.8051 0.0000
# 6 0.0000 0.0000 0.0000 -0.1300 0.0000 20.9986
#
#
#
# Elastic Compliance Matrix: (Units=1/GPa)
#
#
# Indices 1 2 3 4 5 6 
#
# 1 0.013627 -0.002086 -0.002171 0.000000 0.008811 0.000000
# 2 -0.002086 0.010494 0.001729 0.000000 0.003744 0.000000
# 3 -0.002171 0.001729 0.020786 0.000000 0.006899 0.000000
# 4 0.000000 0.000000 0.000000 0.060454 0.000000 0.000374
# 5 0.008811 0.003744 0.006899 0.000000 0.040683 0.000000
# 6 0.000000 0.000000 0.000000 0.000374 0.000000 0.047625
#
#
# Mechanical properties :
#
#
# Convention : Reuss Voigt Hill
#
# Bulk Modulus (GPa) = 25.09340 37.78402 31.43871
# Shear Modulus (GPa) = 23.58418 28.64697 26.11558
#
# Velocity S-wave (km/s) = 3.53094 3.89153 3.71561
# Velocity P-wave (km/s) = 5.46707 6.33768 5.91840
#
# Compressibility (1/GPa) = 0.03985111
#
# Stress axis : x y z
#
# Youngs Moduli (GPa) = 73.38579 95.29092 48.11038
#
# Poissons Ratio (x) = 0.19881 0.10442
# Poissons Ratio (y) = 0.15311 -0.08319
# Poissons Ratio (z) = 0.15929 -0.16478
#
# Static dielectric constant tensor:
#      x y z
#    x 1.708400 0.000000 0.007800 
#    y 0.000000 1.743370 0.000000 
#    z 0.007800 0.000000 1.761200 
# 
# From -- ./inp_files/117215.got.cif
#   From: 2010.05.17/outbox.cif.g08.bks.cpg/sg15_59_cif.got.tgz:117215.got - 2010.06.03 18:47:42.
