data_PCOD9300515
_publ_section_title
;
Structure prediction by ZEFSAII (Michael W. Deem and Ramdas Pophale) SiO2 
 PCOD9300515
Probable space group: C 2/C
;
_chemical_formula_sum "Si O2"
_cell_formula_units_Z 40
_cell_length_a 23.775632
_cell_length_b 12.159331
_cell_length_c 11.466969
_cell_angle_alpha 90.000000
_cell_angle_beta 139.305148
_cell_angle_gamma 90.000000
_cell_volume 2161.514515
_symmetry_space_group_name_H-M "C 2/C"
_symmetry_group_IT_number 15
_symmetry_cell_setting 'monoclinic'
loop_
_space_group_symop_operation_xyz
x,y,z
-x,y,1/2-z
-x,-y,-z
x,-y,1/2+z
1/2+x,1/2+y,z
1/2-x,1/2+y,1/2-z
1/2-x,1/2-y,-z
1/2+x,1/2-y,1/2+z
loop_
_atom_site_type_symbol
_atom_site_label
_atom_site_fract_x
_atom_site_fract_y
_atom_site_fract_z
Si Si1 0.518702 0.846724 0.621304
Si Si2 0.202740 0.669546 0.514587
Si Si3 0.720615 0.081234 0.018429
Si Si4 0.164278 0.273547 0.212100
Si Si5 0.063585 0.584940 0.944191
O O1 0.437036 0.767858 0.476802
O O2 0.563542 0.855392 0.566117
O O3 0.476406 0.964607 0.589373
O O4 0.598796 0.823860 0.831161
O O5 0.250000 0.750000 0.500000
O O6 0.235992 0.548147 0.531746
O O7 0.213430 0.695344 0.669061
O O8 0.798536 0.161172 0.175861
O O9 0.678982 0.132528 0.834802
O O10 0.653646 0.082592 0.020759
O O11 0.000000 0.638511 0.750000
#
# Coordination Sequence:
#
# PCOD9300515 Si02
#       5
#     8   8   8   8   8
#     4  11  20  35  62  93 119 161 210 255 304 360
#     4  12  25  39  62  91 123 165 210 258 307 372
#     4  11  23  39  61  96 126 162 203 255 317 369
#     4  11  23  38  61  91 131 158 199 263 315 366
#     4  11  17  33  61  89 121 155 206 262 297 350
#
# _framework density 18.505542999999999
#
# number of rings (size 3 to 8) (size 9 to 14) (size 15 to 20)
#    0.000    0.800    6.000    3.000    2.800    0.000 
#    0.000    1.000    0.000    0.000    0.000    0.000 
#    0.000    0.000    0.000    0.000    0.000    0.000 
#
# Total GULP energy -111583.812506 kJ/mol
# GULP energy per Si atom -5579.190625 kJ/mol
# Density = 1.846342 g / cm^3
# Si number density = 18.505543 Si / 1000 Ang^3
#
#
#
# Elastic Constant Matrix: (Units=GPa)
#
#
# Indices 1 2 3 4 5 6 
#
# 1 124.6343 44.1612 21.8996 0.0000 -26.3922 0.0000
# 2 44.1612 109.5047 39.1884 0.0000 1.6476 0.0000
# 3 21.8996 39.1884 89.5299 0.0000 -14.5717 0.0000
# 4 0.0000 0.0000 0.0000 20.2243 0.0000 2.4348
# 5 -26.3922 1.6476 -14.5717 0.0000 33.9922 0.0000
# 6 0.0000 0.0000 0.0000 2.4348 0.0000 27.3951
#
#
#
# Elastic Compliance Matrix: (Units=1/GPa)
#
#
# Indices 1 2 3 4 5 6 
#
# 1 0.011799 -0.005274 0.001027 0.000000 0.009857 0.000000
# 2 -0.005274 0.013430 -0.005763 0.000000 -0.007216 0.000000
# 3 0.001027 -0.005763 0.014637 0.000000 0.007351 0.000000
# 4 0.000000 0.000000 0.000000 0.049980 0.000000 -0.004442
# 5 0.009857 -0.007216 0.007351 0.000000 0.040573 0.000000
# 6 0.000000 0.000000 0.000000 -0.004442 0.000000 0.036898
#
#
# Mechanical properties :
#
#
# Convention : Reuss Voigt Hill
#
# Bulk Modulus (GPa) = 50.38880 59.35192 54.87036
# Shear Modulus (GPa) = 25.77951 30.88363 28.33157
#
# Velocity S-wave (km/s) = 3.73643 4.08963 3.91702
# Velocity P-wave (km/s) = 6.77516 7.37850 7.08325
#
# Compressibility (1/GPa) = 0.01984568
#
# Stress axis : x y z
#
# Youngs Moduli (GPa) = 84.75256 74.46084 68.31885
#
# Poissons Ratio (x) = 0.39271 -0.07014
# Poissons Ratio (y) = 0.44699 0.39371
# Poissons Ratio (z) = -0.08701 0.42911
#
# Static dielectric constant tensor:
#      x y z
#    x 1.674320 0.000000 -0.027070 
#    y 0.000000 1.644620 0.000000 
#    z -0.027070 0.000000 1.680900 
# 
# From -- ./inp_files/94494.got.cif
#   From: 2010.05.17/outbox.cif.g08.bks.cpg/sg15_48_cif.got.tgz:94494.got - 2010.06.03 18:47:42.
