data_PCOD9300780
_publ_section_title
;
Structure prediction by ZEFSAII (Michael W. Deem and Ramdas Pophale) SiO2 
 PCOD9300780
Probable space group: C 2/C
;
_chemical_formula_sum "Si O2"
_cell_formula_units_Z 48
_cell_length_a 18.551159
_cell_length_b 12.682326
_cell_length_c 16.792405
_cell_angle_alpha 90.000000
_cell_angle_beta 29.717665
_cell_angle_gamma 90.000000
_cell_volume 1958.506225
_symmetry_space_group_name_H-M "C 2/C"
_symmetry_group_IT_number 15
_symmetry_cell_setting 'monoclinic'
loop_
_space_group_symop_operation_xyz
x,y,z
-x,y,1/2-z
-x,-y,-z
x,-y,1/2+z
1/2+x,1/2+y,z
1/2-x,1/2+y,1/2-z
1/2-x,1/2-y,-z
1/2+x,1/2-y,1/2+z
loop_
_atom_site_type_symbol
_atom_site_label
_atom_site_fract_x
_atom_site_fract_y
_atom_site_fract_z
Si Si1 0.972457 0.468567 0.893745
Si Si2 0.671331 0.825874 0.011297
Si Si3 0.437995 0.350167 0.129998
Si Si4 0.821992 0.252111 0.016448
Si Si5 0.293897 0.966137 0.225866
Si Si6 0.094440 0.759439 0.826233
O O1 0.141649 0.470379 0.760032
O O2 0.895196 0.556724 0.911465
O O3 0.930075 0.352431 0.909812
O O4 0.891036 0.490307 0.055650
O O5 0.786222 0.832670 0.828577
O O6 0.750000 0.750000 0.000000
O O7 0.530161 0.763200 0.117860
O O8 0.303579 0.286138 0.299522
O O9 0.365053 0.454401 0.161183
O O10 0.573175 0.346620 0.062102
O O11 0.513353 0.293461 0.983339
O O12 0.750000 0.250000 0.000000
O O13 0.326135 0.849142 0.228352
#
# Coordination Sequence:
#
# PCOD9300780 Si02
#       6
#     8   8   8   8   8   8
#     4   9  20  40  66  92 135 172 224 277 333 409
#     4  11  23  39  63  92 131 180 216 277 350 403
#     4  11  19  39  67  96 127 172 229 273 337 402
#     4  11  23  41  67  98 135 184 222 281 347 401
#     4   9  18  35  66  95 118 168 222 270 328 389
#     4  11  19  38  66  89 123 172 222 274 332 402
#
# _framework density 24.508474
#
# number of rings (size 3 to 8) (size 9 to 14) (size 15 to 20)
#    0.000    1.667    5.000    1.000    0.000    0.000 
#    0.000   16.667    0.000    0.000    0.000    0.000 
#    0.000    0.000    0.000    0.000    0.000    0.000 
#
# Total GULP energy -133817.068741 kJ/mol
# GULP energy per Si atom -5575.711198 kJ/mol
# Density = 2.445269 g / cm^3
# Si number density = 24.508474 Si / 1000 Ang^3
#
#
#
# Elastic Constant Matrix: (Units=GPa)
#
#
# Indices 1 2 3 4 5 6 
#
# 1 167.1364 46.8187 37.3690 0.0000 -41.6339 0.0000
# 2 46.8187 74.2023 31.1077 0.0000 -17.4323 0.0000
# 3 37.3690 31.1077 146.2442 0.0000 -16.7869 0.0000
# 4 0.0000 0.0000 0.0000 23.1435 0.0000 -5.2467
# 5 -41.6339 -17.4323 -16.7869 0.0000 49.1777 0.0000
# 6 0.0000 0.0000 0.0000 -5.2467 0.0000 27.6516
#
#
#
# Elastic Compliance Matrix: (Units=1/GPa)
#
#
# Indices 1 2 3 4 5 6 
#
# 1 0.008635 -0.003795 -0.000744 0.000000 0.005712 0.000000
# 2 -0.003795 0.017411 -0.002492 0.000000 0.002108 0.000000
# 3 -0.000744 -0.002492 0.007685 0.000000 0.001111 0.000000
# 4 0.000000 0.000000 0.000000 0.045151 0.000000 0.008567
# 5 0.005712 0.002108 0.001111 0.000000 0.026296 0.000000
# 6 0.000000 0.000000 0.000000 0.008567 0.000000 0.037790
#
#
# Mechanical properties :
#
#
# Convention : Reuss Voigt Hill
#
# Bulk Modulus (GPa) = 50.83648 68.68597 59.76122
# Shear Modulus (GPa) = 30.56490 38.14707 34.35598
#
# Velocity S-wave (km/s) = 3.53528 3.94951 3.74812
# Velocity P-wave (km/s) = 6.11978 6.99174 6.57024
#
# Compressibility (1/GPa) = 0.01967091
#
# Stress axis : x y z
#
# Youngs Moduli (GPa) = 115.80527 57.43470 130.11646
#
# Poissons Ratio (x) = 0.21796 0.09677
# Poissons Ratio (y) = 0.43947 0.32423
# Poissons Ratio (z) = 0.08612 0.14312
#
# Static dielectric constant tensor:
#      x y z
#    x 2.239740 0.000000 -0.068060 
#    y 0.000000 2.001890 0.000000 
#    z -0.068060 0.000000 2.019750 
# 
# From -- ./inp_files/211320.got.cif
#   From: 2010.05.17/outbox.cif.g08.bks.cpg/sg15_106_cif.got.tgz:211320.got - 2010.06.03 18:47:42.
