data_PCOD9300347
_publ_section_title
;
Structure prediction by ZEFSAII (Michael W. Deem and Ramdas Pophale) SiO2 
 PCOD9300347
Probable space group: C 2/C
;
_chemical_formula_sum "Si O2"
_cell_formula_units_Z 32
_cell_length_a 29.845339
_cell_length_b 5.126197
_cell_length_c 8.888312
_cell_angle_alpha 90.000000
_cell_angle_beta 68.454809
_cell_angle_gamma 90.000000
_cell_volume 1264.835116
_symmetry_space_group_name_H-M "C 2/C"
_symmetry_group_IT_number 15
_symmetry_cell_setting 'monoclinic'
loop_
_space_group_symop_operation_xyz
x,y,z
-x,y,1/2-z
-x,-y,-z
x,-y,1/2+z
1/2+x,1/2+y,z
1/2-x,1/2+y,1/2-z
1/2-x,1/2-y,-z
1/2+x,1/2-y,1/2+z
loop_
_atom_site_type_symbol
_atom_site_label
_atom_site_fract_x
_atom_site_fract_y
_atom_site_fract_z
Si Si1 0.366031 0.167313 0.179149
Si Si2 0.954215 0.318009 0.064144
Si Si3 0.733562 0.136050 0.681847
Si Si4 0.410448 0.516356 0.386320
O O1 0.386036 0.312546 0.301723
O O2 0.407983 0.980612 0.071290
O O3 0.319084 0.996154 0.264497
O O4 0.366776 0.374057 0.042182
O O5 0.938544 0.217794 0.245792
O O6 0.952025 0.085196 0.947788
O O7 0.000000 0.500000 0.000000
O O8 0.736485 0.387491 0.789174
O O9 0.750000 0.250000 0.500000
#
# Coordination Sequence:
#
# PCOD9300347 Si02
#       4
#     8   8   8   8
#     4  11  27  48  81 116 162 217 277 350 422 507
#     4  11  26  47  79 116 159 216 275 339 425 510
#     4  12  32  56  89 125 170 224 292 360 439 511
#     4  10  26  49  79 113 169 212 279 344 426 500
#
# _framework density 25.299737
#
# number of rings (size 3 to 8) (size 9 to 14) (size 15 to 20)
#    0.000    1.000    0.000    2.250   14.000   10.000 
#    0.000    3.750    0.000    0.000    0.000    0.000 
#    0.000    0.000    0.000    0.000    0.000    0.000 
#
# Total GULP energy -89646.275876 kJ/mol
# GULP energy per Si atom -5602.892242 kJ/mol
# Density = 2.524215 g / cm^3
# Si number density = 25.299737 Si / 1000 Ang^3
#
#
#
# Elastic Constant Matrix: (Units=GPa)
#
#
# Indices 1 2 3 4 5 6 
#
# 1 137.2092 60.6502 93.0514 0.0000 -33.2778 0.0000
# 2 60.6502 140.3719 94.4302 0.0000 -0.8479 0.0000
# 3 93.0514 94.4302 193.2105 0.0000 12.7324 0.0000
# 4 0.0000 0.0000 0.0000 66.9106 0.0000 -1.9755
# 5 -33.2778 -0.8479 12.7324 0.0000 40.2768 0.0000
# 6 0.0000 0.0000 0.0000 -1.9755 0.0000 67.7284
#
#
#
# Elastic Compliance Matrix: (Units=1/GPa)
#
#
# Indices 1 2 3 4 5 6 
#
# 1 0.019118 -0.001667 -0.009632 0.000000 0.018806 0.000000
# 2 -0.001667 0.010904 -0.004545 0.000000 0.000289 0.000000
# 3 -0.009632 -0.004545 0.012834 0.000000 -0.012111 0.000000
# 4 0.000000 0.000000 0.000000 0.014958 0.000000 0.000436
# 5 0.018806 0.000289 -0.012111 0.000000 0.044201 0.000000
# 6 0.000000 0.000000 0.000000 0.000436 0.000000 0.014778
#
#
# Mechanical properties :
#
#
# Convention : Reuss Voigt Hill
#
# Bulk Modulus (GPa) = 89.54745 107.45059 98.49902
# Shear Modulus (GPa) = 32.85085 49.82714 41.33899
#
# Velocity S-wave (km/s) = 3.60733 4.44269 4.04662
# Velocity P-wave (km/s) = 7.26787 8.29939 7.80070
#
# Compressibility (1/GPa) = 0.01116726
#
# Stress axis : x y z
#
# Youngs Moduli (GPa) = 52.30622 91.71261 77.91827
#
# Poissons Ratio (x) = 0.15291 0.75050
# Poissons Ratio (y) = 0.08721 0.35415
# Poissons Ratio (z) = 0.50381 0.41685
#
# Static dielectric constant tensor:
#      x y z
#    x 2.009610 0.000000 0.000690 
#    y 0.000000 1.559650 0.000000 
#    z 0.000690 0.000000 1.940910 
# 
# From -- ./inp_files/67989.got.cif
#   From: 2010.05.17/outbox.cif.g08.bks.cpg/sg15_34_cif.got.tgz:67989.got - 2010.06.03 18:47:42.
