data_PCOD9300777
_publ_section_title
;
Structure prediction by ZEFSAII (Michael W. Deem and Ramdas Pophale) SiO2 
 PCOD9300777
Probable space group: C 2/C
;
_chemical_formula_sum "Si O2"
_cell_formula_units_Z 48
_cell_length_a 31.999025
_cell_length_b 8.867652
_cell_length_c 8.499218
_cell_angle_alpha 90.000000
_cell_angle_beta 80.905760
_cell_angle_gamma 90.000000
_cell_volume 2381.390092
_symmetry_space_group_name_H-M "C 2/C"
_symmetry_group_IT_number 15
_symmetry_cell_setting 'monoclinic'
loop_
_space_group_symop_operation_xyz
x,y,z
-x,y,1/2-z
-x,-y,-z
x,-y,1/2+z
1/2+x,1/2+y,z
1/2-x,1/2+y,1/2-z
1/2-x,1/2-y,-z
1/2+x,1/2-y,1/2+z
loop_
_atom_site_type_symbol
_atom_site_label
_atom_site_fract_x
_atom_site_fract_y
_atom_site_fract_z
Si Si1 0.409911 0.637725 0.416547
Si Si2 0.532587 0.537500 0.844989
Si Si3 0.154744 0.663746 0.413503
Si Si4 0.219810 0.162546 0.336414
Si Si5 0.201260 0.458704 0.177096
Si Si6 0.667645 0.434742 0.162053
O O1 0.429578 0.609579 0.577876
O O2 0.446890 0.601026 0.267092
O O3 0.386107 0.797056 0.454446
O O4 0.374106 0.517558 0.381998
O O5 0.500000 0.627052 0.750000
O O6 0.500000 0.500000 0.000000
O O7 0.159265 0.528602 0.284602
O O8 0.190617 0.618749 0.518037
O O9 0.161314 0.815604 0.307313
O O10 0.221680 0.331442 0.274436
O O11 0.189096 0.147823 0.503106
O O12 0.264625 0.091335 0.353546
O O13 0.198122 0.064155 0.211525
#
# Coordination Sequence:
#
# PCOD9300777 Si02
#       6
#     8   8   8   8   8   8
#     4  11  19  38  64  99 135 164 205 264 328 393
#     4   9  19  35  64 106 139 156 194 256 333 399
#     4  12  25  43  62  92 130 176 224 274 334 389
#     4  12  24  41  62  87 129 176 234 295 324 385
#     4  12  27  44  61  91 129 181 241 281 336 379
#     4  12  22  39  66  91 128 174 221 280 345 372
#
# _framework density 20.156296000000001
#
# number of rings (size 3 to 8) (size 9 to 14) (size 15 to 20)
#    0.000    0.667    5.000    3.000    0.000    4.000 
#    0.000    1.667    0.000    0.000    0.000   15.167 
#    0.000    0.000    0.000    0.000    0.000    0.000 
#
# Total GULP energy -133779.626506 kJ/mol
# GULP energy per Si atom -5574.151104 kJ/mol
# Density = 2.011042 g / cm^3
# Si number density = 20.156296 Si / 1000 Ang^3
#
#
#
# Elastic Constant Matrix: (Units=GPa)
#
#
# Indices 1 2 3 4 5 6 
#
# 1 106.9999 28.2917 34.4863 0.0000 15.5500 0.0000
# 2 28.2917 69.5382 18.7152 0.0000 12.1572 0.0000
# 3 34.4863 18.7152 93.3862 0.0000 9.8231 0.0000
# 4 0.0000 0.0000 0.0000 33.1051 0.0000 -8.0764
# 5 15.5500 12.1572 9.8231 0.0000 47.4484 0.0000
# 6 0.0000 0.0000 0.0000 -8.0764 0.0000 16.4380
#
#
#
# Elastic Compliance Matrix: (Units=1/GPa)
#
#
# Indices 1 2 3 4 5 6 
#
# 1 0.011674 -0.003447 -0.003384 0.000000 -0.002242 0.000000
# 2 -0.003447 0.016753 -0.001791 0.000000 -0.002792 0.000000
# 3 -0.003384 -0.001791 0.012423 0.000000 -0.001004 0.000000
# 4 0.000000 0.000000 0.000000 0.034321 0.000000 0.016863
# 5 -0.002242 -0.002792 -0.001004 0.000000 0.022733 0.000000
# 6 0.000000 0.000000 0.000000 0.016863 0.000000 0.069120
#
#
# Mechanical properties :
#
#
# Convention : Reuss Voigt Hill
#
# Bulk Modulus (GPa) = 42.36325 48.10118 45.23222
# Shear Modulus (GPa) = 26.02330 31.96038 28.99184
#
# Velocity S-wave (km/s) = 3.59705 3.98631 3.79668
# Velocity P-wave (km/s) = 6.18989 6.71591 6.45826
#
# Compressibility (1/GPa) = 0.02360536
#
# Stress axis : x y z
#
# Youngs Moduli (GPa) = 85.66227 59.69082 80.49890
#
# Poissons Ratio (x) = 0.20573 0.27244
# Poissons Ratio (y) = 0.29525 0.14417
# Poissons Ratio (z) = 0.28992 0.10690
#
# Static dielectric constant tensor:
#      x y z
#    x 1.760170 0.000000 -0.067900 
#    y 0.000000 1.692070 0.000000 
#    z -0.067900 0.000000 1.651480 
# 
# From -- ./inp_files/68565.got.cif
#   From: 2010.05.17/outbox.cif.g08.bks.cpg/sg15_35_cif.got.tgz:68565.got - 2010.06.03 18:47:42.
