data_PCOD9300403
_publ_section_title
;
Structure prediction by ZEFSAII (Michael W. Deem and Ramdas Pophale) SiO2 
 PCOD9300403
Probable space group: C 2/C
;
_chemical_formula_sum "Si O2"
_cell_formula_units_Z 60
_cell_length_a 5.043425
_cell_length_b 16.182213
_cell_length_c 31.321453
_cell_angle_alpha 90.000000
_cell_angle_beta 73.148060
_cell_angle_gamma 90.000000
_cell_volume 2446.488766
_symmetry_space_group_name_H-M "C 2/C"
_symmetry_group_IT_number 15
_symmetry_cell_setting 'monoclinic'
loop_
_space_group_symop_operation_xyz
x,y,z
-x,y,1/2-z
-x,-y,-z
x,-y,1/2+z
1/2+x,1/2+y,z
1/2-x,1/2+y,1/2-z
1/2-x,1/2-y,-z
1/2+x,1/2-y,1/2+z
loop_
_atom_site_type_symbol
_atom_site_label
_atom_site_fract_x
_atom_site_fract_y
_atom_site_fract_z
Si Si1 0.790016 0.991464 0.919445
Si Si2 0.500000 0.222742 0.750000
Si Si3 0.108452 0.642289 0.835135
Si Si4 0.360295 0.351071 0.976567
Si Si5 0.239191 0.253018 0.900780
Si Si6 0.589584 0.964950 0.638948
Si Si7 0.541903 0.206951 0.320913
Si Si8 0.260388 0.164905 0.537115
O O1 0.802315 0.943850 0.963688
O O2 0.549945 0.951883 0.901294
O O3 0.736801 0.085974 0.932837
O O4 0.089587 0.987159 0.882999
O O5 0.527357 0.167401 0.790770
O O6 0.763585 0.279981 0.728773
O O7 0.357102 0.708706 0.832470
O O8 0.889568 0.667631 0.882112
O O9 0.098572 0.542666 0.836165
O O10 0.395127 0.306297 0.928960
O O11 0.600718 0.351382 0.000093
O O12 0.077720 0.317345 0.011158
O O13 0.230857 0.293704 0.854792
O O14 0.932082 0.233101 0.931392
O O15 0.591390 0.883256 0.668487
#
# Coordination Sequence:
#
# PCOD9300403 Si02
#       8
#     8   4   8   8   8   8   8   8
#     4  12  24  47  67 106 146 194 260 316 369 439
#     4  10  26  52  72 122 142 180 242 296 382 458
#     4  11  25  49  80 108 151 195 239 313 376 461
#     4  12  25  41  65 100 145 198 255 313 372 427
#     4  11  24  43  68 100 146 192 256 303 372 443
#     4  12  26  47  81 110 146 198 258 298 379 463
#     4  11  25  49  80 108 151 195 239 313 376 461
#     4  12  25  41  65 100 145 198 255 313 372 427
#
# _framework density 24.524943
#
# number of rings (size 3 to 8) (size 9 to 14) (size 15 to 20)
#    0.000    0.533    2.667    5.200    7.467    0.000 
#    4.800    0.000    0.000    0.000    0.000    0.000 
#    0.000    0.000    0.000    0.000    0.000    0.000 
#
# Total GULP energy -167825.665807 kJ/mol
# GULP energy per Si atom -5594.188860 kJ/mol
# Density = 2.446912 g / cm^3
# Si number density = 24.524943 Si / 1000 Ang^3
#
#
#
# Elastic Constant Matrix: (Units=GPa)
#
#
# Indices 1 2 3 4 5 6 
#
# 1 125.2335 20.3230 43.1204 0.0000 0.5191 0.0000
# 2 20.3230 94.9937 24.9512 0.0000 -12.9244 0.0000
# 3 43.1204 24.9512 90.3218 0.0000 -11.3209 0.0000
# 4 0.0000 0.0000 0.0000 36.0192 0.0000 7.1564
# 5 0.5191 -12.9244 -11.3209 0.0000 43.0038 0.0000
# 6 0.0000 0.0000 0.0000 7.1564 0.0000 32.6734
#
#
#
# Elastic Compliance Matrix: (Units=1/GPa)
#
#
# Indices 1 2 3 4 5 6 
#
# 1 0.009739 -0.001113 -0.004549 0.000000 -0.001650 0.000000
# 2 -0.001113 0.011783 -0.002356 0.000000 0.002935 0.000000
# 3 -0.004549 -0.002356 0.014283 0.000000 0.003107 0.000000
# 4 0.000000 0.000000 0.000000 0.029026 0.000000 -0.006357
# 5 -0.001650 0.002935 0.003107 0.000000 0.024974 0.000000
# 6 0.000000 0.000000 0.000000 -0.006357 0.000000 0.031998
#
#
# Mechanical properties :
#
#
# Convention : Reuss Voigt Hill
#
# Bulk Modulus (GPa) = 50.58162 54.14868 52.36515
# Shear Modulus (GPa) = 34.61920 37.14958 35.88439
#
# Velocity S-wave (km/s) = 3.76119 3.89622 3.82930
# Velocity P-wave (km/s) = 6.28740 6.50905 6.39918
#
# Compressibility (1/GPa) = 0.01977003
#
# Stress axis : x y z
#
# Youngs Moduli (GPa) = 102.68264 84.86646 70.01193
#
# Poissons Ratio (x) = 0.09447 0.31846
# Poissons Ratio (y) = 0.11431 0.16494
# Poissons Ratio (z) = 0.46706 0.19993
#
# Static dielectric constant tensor:
#      x y z
#    x 1.999010 0.000000 0.009400 
#    y 0.000000 2.075050 0.000000 
#    z 0.009400 0.000000 1.910760 
# 
# From -- ./inp_files/305777.got.cif
#   From: 2010.05.17/outbox.cif.g08.bks.cpg/sg15_153_cif.got.tgz:305777.got - 2010.06.03 18:47:42.
