data_PCOD9300056
_publ_section_title
;
Structure prediction by ZEFSAII (Michael W. Deem and Ramdas Pophale) SiO2 
 PCOD9300056
Probable space group: C 2/C
;
_chemical_formula_sum "Si O2"
_cell_formula_units_Z 52
_cell_length_a 21.609208
_cell_length_b 11.312382
_cell_length_c 14.293622
_cell_angle_alpha 90.000000
_cell_angle_beta 40.615214
_cell_angle_gamma 90.000000
_cell_volume 2274.573910
_symmetry_space_group_name_H-M "C 2/C"
_symmetry_group_IT_number 15
_symmetry_cell_setting 'monoclinic'
loop_
_space_group_symop_operation_xyz
x,y,z
-x,y,1/2-z
-x,-y,-z
x,-y,1/2+z
1/2+x,1/2+y,z
1/2-x,1/2+y,1/2-z
1/2-x,1/2-y,-z
1/2+x,1/2-y,1/2+z
loop_
_atom_site_type_symbol
_atom_site_label
_atom_site_fract_x
_atom_site_fract_y
_atom_site_fract_z
Si Si1 0.240021 0.108230 0.517404
Si Si2 0.854630 0.897240 0.184784
Si Si3 0.996769 0.246579 0.108433
Si Si4 0.413383 0.974435 0.415187
Si Si5 0.135133 0.094568 0.465459
Si Si6 0.139773 0.343821 0.379250
Si Si7 0.500000 0.442594 0.750000
O O1 0.250000 0.250000 0.500000
O O2 0.155428 0.099333 0.691958
O O3 0.320013 0.023555 0.469562
O O4 0.228408 0.076064 0.421774
O O5 0.753991 0.852665 0.256299
O O6 0.863752 0.029360 0.134322
O O7 0.938991 0.818680 0.044535
O O8 0.066506 0.337661 0.083125
O O9 0.955727 0.148939 0.226187
O O10 0.910030 0.316999 0.161415
O O11 0.500000 0.012918 0.250000
O O12 0.406630 0.041537 0.521498
O O13 0.115894 0.231459 0.472818
O O14 0.062557 0.025754 0.613960
#
# Coordination Sequence:
#
# PCOD9300056 Si02
#       7
#     8   8   8   8   8   8   4
#     4  11  24  44  69 101 136 178 228 286 338 419
#     4  10  26  43  67 101 135 182 229 283 354 408
#     4  11  25  46  68  98 141 180 229 289 349 423
#     4  11  25  42  68 101 133 177 227 280 350 410
#     4  11  25  43  69  99 139 179 234 283 347 410
#     4  11  26  41  70 100 134 184 231 286 347 414
#     4  10  26  44  64 102 132 180 234 278 354 408
#
# _framework density 22.861424
#
# number of rings (size 3 to 8) (size 9 to 14) (size 15 to 20)
#    0.000    1.231    3.846    0.462   14.000    1.231 
#    0.000    3.077    0.000    0.000    0.000    0.000 
#    0.000    0.000    0.000    0.000    0.000    0.000 
#
# Total GULP energy -145109.723114 kJ/mol
# GULP energy per Si atom -5581.143197 kJ/mol
# Density = 2.280939 g / cm^3
# Si number density = 22.861424 Si / 1000 Ang^3
#
#
#
# Elastic Constant Matrix: (Units=GPa)
#
#
# Indices 1 2 3 4 5 6 
#
# 1 75.3471 7.1643 -0.4292 0.0000 -2.5631 0.0000
# 2 7.1643 91.0362 7.7020 0.0000 -2.2453 0.0000
# 3 -0.4292 7.7020 68.5181 0.0000 8.8691 0.0000
# 4 0.0000 0.0000 0.0000 25.2728 0.0000 2.9963
# 5 -2.5631 -2.2453 8.8691 0.0000 30.9093 0.0000
# 6 0.0000 0.0000 0.0000 2.9963 0.0000 25.9616
#
#
#
# Elastic Compliance Matrix: (Units=1/GPa)
#
#
# Indices 1 2 3 4 5 6 
#
# 1 0.013405 -0.001036 0.000069 0.000000 0.001017 0.000000
# 2 -0.001036 0.011214 -0.001414 0.000000 0.001134 0.000000
# 3 0.000069 -0.001414 0.015336 0.000000 -0.004498 0.000000
# 4 0.000000 0.000000 0.000000 0.040117 0.000000 -0.004630
# 5 0.001017 0.001134 -0.004498 0.000000 0.033810 0.000000
# 6 0.000000 0.000000 0.000000 -0.004630 0.000000 0.039053
#
#
# Mechanical properties :
#
#
# Convention : Reuss Voigt Hill
#
# Bulk Modulus (GPa) = 28.41407 29.30839 28.86123
# Shear Modulus (GPa) = 29.51106 31.12636 30.31871
#
# Velocity S-wave (km/s) = 3.59676 3.69389 3.64565
# Velocity P-wave (km/s) = 5.45021 5.57144 5.51115
#
# Compressibility (1/GPa) = 0.03519383
#
# Stress axis : x y z
#
# Youngs Moduli (GPa) = 74.59704 89.17629 65.20513
#
# Poissons Ratio (x) = 0.09236 -0.00449
# Poissons Ratio (y) = 0.07726 0.09219
# Poissons Ratio (z) = -0.00513 0.12608
#
# Static dielectric constant tensor:
#      x y z
#    x 2.008500 0.000000 -0.063100 
#    y 0.000000 1.832050 0.000000 
#    z -0.063100 0.000000 1.848840 
# 
# From -- ./inp_files/173117.got.cif
#   From: 2010.05.17/outbox.cif.g08.bks.cpg/sg15_87_cif.got.tgz:173117.got - 2010.06.03 18:47:42.
