data_PCOD9300941
_publ_section_title
;
Structure prediction by ZEFSAII (Michael W. Deem and Ramdas Pophale) SiO2 
 PCOD9300941
Probable space group: C 2/C
;
_chemical_formula_sum "Si O2"
_cell_formula_units_Z 48
_cell_length_a 11.394143
_cell_length_b 11.546712
_cell_length_c 27.097458
_cell_angle_alpha 90.000000
_cell_angle_beta 135.153440
_cell_angle_gamma 90.000000
_cell_volume 2514.127961
_symmetry_space_group_name_H-M "C 2/C"
_symmetry_group_IT_number 15
_symmetry_cell_setting 'monoclinic'
loop_
_space_group_symop_operation_xyz
x,y,z
-x,y,1/2-z
-x,-y,-z
x,-y,1/2+z
1/2+x,1/2+y,z
1/2-x,1/2+y,1/2-z
1/2-x,1/2-y,-z
1/2+x,1/2-y,1/2+z
loop_
_atom_site_type_symbol
_atom_site_label
_atom_site_fract_x
_atom_site_fract_y
_atom_site_fract_z
Si Si1 0.900497 0.298459 0.669193
Si Si2 0.173056 0.959251 0.332269
Si Si3 0.648688 0.177428 0.827340
Si Si4 0.291666 0.871800 0.798765
Si Si5 0.027331 0.134450 0.362475
Si Si6 0.102830 0.026993 0.079325
O O1 0.817089 0.172533 0.648510
O O2 0.757997 0.389281 0.616334
O O3 0.000000 0.318692 0.750000
O O4 0.041144 0.313701 0.669923
O O5 0.000000 0.968210 0.250000
O O6 0.308085 0.008239 0.333872
O O7 0.148328 0.042855 0.371418
O O8 0.500000 0.121423 0.750000
O O9 0.702028 0.286316 0.810066
O O10 0.584467 0.237936 0.859434
O O11 0.804362 0.091685 0.876921
O O12 0.159856 0.884344 0.715016
O O13 0.009211 0.094108 0.413372
O O14 0.000000 0.000000 0.000000
#
# Coordination Sequence:
#
# PCOD9300941 Si02
#       6
#     8   8   8   8   8   8
#     4  11  20  34  56  86 110 143 192 237 290 339
#     4   8  17  32  57  85 108 137 183 252 296 326
#     4   9  20  38  63  85 107 150 196 245 293 339
#     4   9  17  35  61  87 108 135 194 253 293 332
#     4   9  18  37  58  82 113 146 191 238 291 345
#     4  12  25  37  52  82 125 161 188 229 286 356
#
# _framework density 19.092106999999999
#
# number of rings (size 3 to 8) (size 9 to 14) (size 15 to 20)
#    0.000    2.333    1.667    3.500    0.000    2.000 
#    0.000    3.333    0.000    4.000    0.000    0.000 
#    0.000    0.000    0.000    0.000    0.000    0.000 
#
# Total GULP energy -133700.100783 kJ/mol
# GULP energy per Si atom -5570.837533 kJ/mol
# Density = 1.904865 g / cm^3
# Si number density = 19.092107 Si / 1000 Ang^3
#
#
#
# Elastic Constant Matrix: (Units=GPa)
#
#
# Indices 1 2 3 4 5 6 
#
# 1 54.4785 1.3229 10.7101 0.0000 -15.9445 0.0000
# 2 1.3229 66.5824 13.5549 0.0000 3.3307 0.0000
# 3 10.7101 13.5549 58.8026 0.0000 -5.6246 0.0000
# 4 0.0000 0.0000 0.0000 -67.3996 0.0000 -91.7266
# 5 -15.9445 3.3307 -5.6246 0.0000 16.9848 0.0000
# 6 0.0000 0.0000 0.0000 -91.7266 0.0000 -89.2488
#
#
#
# Elastic Compliance Matrix: (Units=1/GPa)
#
#
# Indices 1 2 3 4 5 6 
#
# 1 0.025745 -0.001264 -0.002130 0.000000 0.023710 0.000000
# 2 -0.001264 0.016151 -0.004037 0.000000 -0.005691 0.000000
# 3 -0.002130 -0.004037 0.018805 0.000000 0.005020 0.000000
# 4 0.000000 0.000000 0.000000 0.037211 0.000000 -0.038244
# 5 0.023710 -0.005691 0.005020 0.000000 0.083912 0.000000
# 6 0.000000 0.000000 0.000000 -0.038244 0.000000 0.028102
#
#
# Mechanical properties :
#
#
# Convention : Reuss Voigt Hill
#
# Bulk Modulus (GPa) = 21.81575 25.67103 23.74339
# Shear Modulus (GPa) = 20.82758 -17.64767 1.58996
#
# Velocity S-wave (km/s) = 3.30646 -3.04360 0.91356
# Velocity P-wave (km/s) = 5.10179 1.06007 3.68456
#
# Compressibility (1/GPa) = 0.04583844
#
# Stress axis : x y z
#
# Youngs Moduli (GPa) = 38.84296 61.91709 53.17817
#
# Poissons Ratio (x) = 0.07826 0.11325
# Poissons Ratio (y) = 0.04910 0.21468
# Poissons Ratio (z) = 0.08272 0.24996
#
# Static dielectric constant tensor:
#      x y z
#    x 1.694240 0.000000 -0.033590 
#    y 0.000000 1.714700 0.000000 
#    z -0.033590 0.000000 1.651330 
# 
# From -- ./inp_files/196009.got.cif
#   From: 2010.05.17/outbox.cif.g08.bks.cpg/sg15_99_cif.got.tgz:196009.got - 2010.06.03 18:47:42.
