data_PCOD9300271
_publ_section_title
;
Structure prediction by ZEFSAII (Michael W. Deem and Ramdas Pophale) SiO2 
 PCOD9300271
Probable space group: C 2/C
;
_chemical_formula_sum "Si O2"
_cell_formula_units_Z 52
_cell_length_a 13.392061
_cell_length_b 14.346485
_cell_length_c 14.067701
_cell_angle_alpha 90.000000
_cell_angle_beta 61.885624
_cell_angle_gamma 90.000000
_cell_volume 2383.904780
_symmetry_space_group_name_H-M "C 2/C"
_symmetry_group_IT_number 15
_symmetry_cell_setting 'monoclinic'
loop_
_space_group_symop_operation_xyz
x,y,z
-x,y,1/2-z
-x,-y,-z
x,-y,1/2+z
1/2+x,1/2+y,z
1/2-x,1/2+y,1/2-z
1/2-x,1/2-y,-z
1/2+x,1/2-y,1/2+z
loop_
_atom_site_type_symbol
_atom_site_label
_atom_site_fract_x
_atom_site_fract_y
_atom_site_fract_z
Si Si1 0.728455 0.852122 0.559296
Si Si2 0.000000 0.827714 0.250000
Si Si3 0.817726 0.285126 0.729861
Si Si4 0.185923 0.277651 0.126491
Si Si5 0.500000 0.923878 0.250000
Si Si6 0.058992 0.975065 0.071718
Si Si7 0.500000 0.628955 0.250000
Si Si8 0.513278 0.063385 0.401393
O O1 0.750000 0.750000 0.500000
O O2 0.757281 0.841081 0.659674
O O3 0.812638 0.936969 0.491596
O O4 0.603855 0.889060 0.582727
O O5 0.104402 0.762620 0.225446
O O6 0.005313 0.890132 0.154418
O O7 0.770022 0.209727 0.677702
O O8 0.893293 0.355873 0.634012
O O9 0.109286 0.194863 0.205374
O O10 0.096733 0.361545 0.156901
O O11 0.250000 0.250000 0.000000
O O12 0.554400 0.991697 0.302502
O O13 0.033692 0.063970 0.147774
O O14 0.000000 0.000000 0.000000
O O15 0.500000 0.000000 0.500000
#
# Coordination Sequence:
#
# PCOD9300271 Si02
#       8
#     8   4   8   8   4   8   4   8
#     4  12  24  45  73 105 140 189 240 291 368 434
#     4  11  23  45  67 106 138 190 229 295 357 431
#     4  12  23  47  71 101 145 181 240 292 353 443
#     4  11  27  46  73 100 143 191 235 293 372 423
#     4  11  25  49  65 108 140 178 243 295 353 439
#     4  11  25  43  71  99 143 183 240 300 355 418
#     4  10  26  48  62 106 140 180 252 286 356 440
#     4  12  26  44  72 104 142 182 240 299 359 428
#
# _framework density 21.812951999999999
#
# number of rings (size 3 to 8) (size 9 to 14) (size 15 to 20)
#    0.000    0.615    4.615    1.846    8.615    0.000 
#    2.769    0.000    0.000    0.000    0.000    0.000 
#    0.000    0.000    0.000    0.000    0.000    0.000 
#
# Total GULP energy -144936.195603 kJ/mol
# GULP energy per Si atom -5574.469062 kJ/mol
# Density = 2.176330 g / cm^3
# Si number density = 21.812952 Si / 1000 Ang^3
#
#
#
# Elastic Constant Matrix: (Units=GPa)
#
#
# Indices 1 2 3 4 5 6 
#
# 1 54.2548 10.6513 16.6198 0.0000 7.6268 0.0000
# 2 10.6513 69.9015 4.2893 0.0000 -0.4627 0.0000
# 3 16.6198 4.2893 88.1121 0.0000 7.7418 0.0000
# 4 0.0000 0.0000 0.0000 90.5465 0.0000 26.7862
# 5 7.6268 -0.4627 7.7418 0.0000 39.6447 0.0000
# 6 0.0000 0.0000 0.0000 26.7862 0.0000 31.0229
#
#
#
# Elastic Compliance Matrix: (Units=1/GPa)
#
#
# Indices 1 2 3 4 5 6 
#
# 1 0.020527 -0.002939 -0.003438 0.000000 -0.003312 0.000000
# 2 -0.002939 0.014773 -0.000234 0.000000 0.000783 0.000000
# 3 -0.003438 -0.000234 0.012160 0.000000 -0.001716 0.000000
# 4 0.000000 0.000000 0.000000 0.014833 0.000000 -0.012807
# 5 -0.003312 0.000783 -0.001716 0.000000 0.026205 0.000000
# 6 0.000000 0.000000 0.000000 -0.012807 0.000000 0.043292
#
#
# Mechanical properties :
#
#
# Convention : Reuss Voigt Hill
#
# Bulk Modulus (GPa) = 29.20600 30.59879 29.90240
# Shear Modulus (GPa) = 31.96437 44.29002 38.12720
#
# Velocity S-wave (km/s) = 3.83219 4.51094 4.18534
# Velocity P-wave (km/s) = 5.74450 6.41792 6.09052
#
# Compressibility (1/GPa) = 0.03423953
#
# Stress axis : x y z
#
# Youngs Moduli (GPa) = 48.71597 67.69026 82.23850
#
# Poissons Ratio (x) = 0.19893 0.28272
# Poissons Ratio (y) = 0.14317 0.01922
# Poissons Ratio (z) = 0.16748 0.01582
#
# Static dielectric constant tensor:
#      x y z
#    x 2.183090 0.000000 0.155250 
#    y 0.000000 1.859240 0.000000 
#    z 0.155250 0.000000 2.214210 
# 
# From -- ./inp_files/153891.got.cif
#   From: 2010.05.17/outbox.cif.g08.bks.cpg/sg15_77_cif.got.tgz:153891.got - 2010.06.03 18:47:42.
