data_PCOD9300128
_publ_section_title
;
Structure prediction by ZEFSAII (Michael W. Deem and Ramdas Pophale) SiO2 
 PCOD9300128
Probable space group: C 2/C
;
_chemical_formula_sum "Si O2"
_cell_formula_units_Z 28
_cell_length_a 7.256496
_cell_length_b 13.337792
_cell_length_c 11.563957
_cell_angle_alpha 90.000000
_cell_angle_beta 97.532218
_cell_angle_gamma 90.000000
_cell_volume 1109.567467
_symmetry_space_group_name_H-M "C 2/C"
_symmetry_group_IT_number 15
_symmetry_cell_setting 'monoclinic'
loop_
_space_group_symop_operation_xyz
x,y,z
-x,y,1/2-z
-x,-y,-z
x,-y,1/2+z
1/2+x,1/2+y,z
1/2-x,1/2+y,1/2-z
1/2-x,1/2-y,-z
1/2+x,1/2-y,1/2+z
loop_
_atom_site_type_symbol
_atom_site_label
_atom_site_fract_x
_atom_site_fract_y
_atom_site_fract_z
Si Si1 0.962311 0.882832 0.971543
Si Si2 0.412174 0.957356 0.616468
Si Si3 0.676000 0.642926 0.692325
Si Si4 0.000000 0.783989 0.750000
O O1 0.741072 0.877785 0.940012
O O2 0.053626 0.854062 0.859155
O O3 0.066360 0.814042 0.072900
O O4 0.000000 0.000000 0.000000
O O5 0.500000 0.920378 0.750000
O O6 0.500000 0.000000 0.500000
O O7 0.303377 0.053628 0.657639
O O8 0.500000 0.604997 0.750000
O O9 0.821310 0.716344 0.763968
#
# Coordination Sequence:
#
# PCOD9300128 Si02
#       4
#     8   8   8   4
#     4  10  26  44  76 103 151 190 256 311 378 452
#     4  11  24  45  80 112 153 206 264 316 386 465
#     4  11  25  48  75 108 156 196 254 317 387 456
#     4  12  26  48  76 108 150 202 252 316 398 454
#
# _framework density 25.235059
#
# number of rings (size 3 to 8) (size 9 to 14) (size 15 to 20)
#    0.000    1.143    1.429    2.571   16.000    2.286 
#    0.000    0.000    0.000    0.000    0.000    0.000 
#    0.000    0.000    0.000    0.000    0.000    0.000 
#
# Total GULP energy -77982.071140 kJ/mol
# GULP energy per Si atom -5570.147939 kJ/mol
# Density = 2.517762 g / cm^3
# Si number density = 25.235059 Si / 1000 Ang^3
#
#
#
# Elastic Constant Matrix: (Units=GPa)
#
#
# Indices 1 2 3 4 5 6 
#
# 1 125.5881 34.8791 37.2707 0.0000 -10.3417 0.0000
# 2 34.8791 58.7230 5.4871 0.0000 1.1588 0.0000
# 3 37.2707 5.4871 139.4667 0.0000 13.9377 0.0000
# 4 0.0000 0.0000 0.0000 22.3014 0.0000 -2.5351
# 5 -10.3417 1.1588 13.9377 0.0000 64.9478 0.0000
# 6 0.0000 0.0000 0.0000 -2.5351 0.0000 28.0441
#
#
#
# Elastic Compliance Matrix: (Units=1/GPa)
#
#
# Indices 1 2 3 4 5 6 
#
# 1 0.010721 -0.006148 -0.002866 0.000000 0.002432 0.000000
# 2 -0.006148 0.020619 0.000988 0.000000 -0.001559 0.000000
# 3 -0.002866 0.000988 0.008119 0.000000 -0.002216 0.000000
# 4 0.000000 0.000000 0.000000 0.045306 0.000000 0.004095
# 5 0.002432 -0.001559 -0.002216 0.000000 0.016288 0.000000
# 6 0.000000 0.000000 0.000000 0.004095 0.000000 0.036028
#
#
# Mechanical properties :
#
#
# Convention : Reuss Voigt Hill
#
# Bulk Modulus (GPa) = 42.72474 53.22795 47.97634
# Shear Modulus (GPa) = 31.06836 39.46807 35.26821
#
# Velocity S-wave (km/s) = 3.51259 3.95906 3.74249
# Velocity P-wave (km/s) = 5.78088 6.48363 6.14231
#
# Compressibility (1/GPa) = 0.02340564
#
# Stress axis : x y z
#
# Youngs Moduli (GPa) = 93.27641 48.49843 123.17169
#
# Poissons Ratio (x) = 0.29816 0.35303
# Poissons Ratio (y) = 0.57346 -0.12163
# Poissons Ratio (z) = 0.26734 -0.04789
#
# Static dielectric constant tensor:
#      x y z
#    x 1.926670 0.000000 0.111530 
#    y 0.000000 2.017080 0.000000 
#    z 0.111530 0.000000 2.180410 
# 
# From -- ./inp_files/75456.got.cif
#   From: 2010.05.17/outbox.cif.g08.bks.cpg/sg15_38_cif.got.tgz:75456.got - 2010.06.03 18:47:42.
