data_PCOD9300875
_publ_section_title
;
Structure prediction by ZEFSAII (Michael W. Deem and Ramdas Pophale) SiO2 
 PCOD9300875
Probable space group: C 2/C
;
_chemical_formula_sum "Si O2"
_cell_formula_units_Z 60
_cell_length_a 8.536823
_cell_length_b 16.340526
_cell_length_c 18.233708
_cell_angle_alpha 90.000000
_cell_angle_beta 91.227306
_cell_angle_gamma 90.000000
_cell_volume 2542.949066
_symmetry_space_group_name_H-M "C 2/C"
_symmetry_group_IT_number 15
_symmetry_cell_setting 'monoclinic'
loop_
_space_group_symop_operation_xyz
x,y,z
-x,y,1/2-z
-x,-y,-z
x,-y,1/2+z
1/2+x,1/2+y,z
1/2-x,1/2+y,1/2-z
1/2-x,1/2-y,-z
1/2+x,1/2-y,1/2+z
loop_
_atom_site_type_symbol
_atom_site_label
_atom_site_fract_x
_atom_site_fract_y
_atom_site_fract_z
Si Si1 0.000000 0.018310 0.750000
Si Si2 0.955580 0.215578 0.068047
Si Si3 0.833364 0.903823 0.841275
Si Si4 0.173592 0.602343 0.733895
Si Si5 0.986086 0.259167 0.910253
Si Si6 0.745852 0.779269 0.709107
Si Si7 0.794346 0.348990 0.420264
Si Si8 0.095845 0.436592 0.950559
O O1 0.982716 0.957008 0.818068
O O2 0.839346 0.066485 0.761058
O O3 0.827627 0.205292 0.130362
O O4 0.093176 0.157337 0.098810
O O5 0.038347 0.303954 0.074995
O O6 0.909750 0.212803 0.980974
O O7 0.767898 0.851490 0.769739
O O8 0.694549 0.956344 0.878113
O O9 0.177739 0.698474 0.754769
O O10 0.196023 0.592810 0.648019
O O11 0.000000 0.569903 0.750000
O O12 0.921753 0.253757 0.826777
O O13 0.157271 0.217189 0.912091
O O14 0.997041 0.356113 0.926498
O O15 0.776445 0.403000 0.491031
O O16 0.000000 0.500000 0.000000
#
# Coordination Sequence:
#
# PCOD9300875 Si02
#       8
#     4   8   8   8   8   8   8   8
#     4  12  30  44  70 116 160 190 260 320 396 454
#     4  11  19  43  70 104 137 190 246 304 371 452
#     4  12  23  47  72 104 151 204 247 320 379 458
#     4  12  25  47  75 106 150 198 246 319 388 453
#     4  11  23  40  72 113 141 184 259 319 365 456
#     4  12  23  42  78 110 144 191 260 309 379 457
#     4  11  21  44  71 100 136 192 250 306 374 449
#     4  11  25  43  70 101 151 201 249 306 393 463
#
# _framework density 23.594652
#
# number of rings (size 3 to 8) (size 9 to 14) (size 15 to 20)
#    0.000    0.533    6.667    2.000    1.867    2.667 
#    0.000    2.000    0.000    0.000    0.000    0.000 
#    0.000    0.000    0.000    0.000    0.000    0.000 
#
# Total GULP energy -167072.243889 kJ/mol
# GULP energy per Si atom -5569.074796 kJ/mol
# Density = 2.354095 g / cm^3
# Si number density = 23.594652 Si / 1000 Ang^3
#
#
#
# Elastic Constant Matrix: (Units=GPa)
#
#
# Indices 1 2 3 4 5 6 
#
# 1 103.0747 50.1056 44.4122 0.0000 -17.1429 0.0000
# 2 50.1056 47.9025 30.5638 0.0000 -14.8196 0.0000
# 3 44.4122 30.5638 144.0745 0.0000 -17.9615 0.0000
# 4 0.0000 0.0000 0.0000 18.1610 0.0000 -6.9315
# 5 -17.1429 -14.8196 -17.9615 0.0000 51.9480 0.0000
# 6 0.0000 0.0000 0.0000 -6.9315 0.0000 8.3959
#
#
#
# Elastic Compliance Matrix: (Units=1/GPa)
#
#
# Indices 1 2 3 4 5 6 
#
# 1 0.020239 -0.019789 -0.001998 0.000000 0.000343 0.000000
# 2 -0.019789 0.045003 -0.002780 0.000000 0.005347 0.000000
# 3 -0.001998 -0.002780 0.008324 0.000000 0.001426 0.000000
# 4 0.000000 0.000000 0.000000 0.080396 0.000000 0.066374
# 5 0.000343 0.005347 0.001426 0.000000 0.021381 0.000000
# 6 0.000000 0.000000 0.000000 0.066374 0.000000 0.173903
#
#
# Mechanical properties :
#
#
# Convention : Reuss Voigt Hill
#
# Bulk Modulus (GPa) = 40.93056 60.57941 50.75499
# Shear Modulus (GPa) = 12.29934 27.03232 19.66583
#
# Velocity S-wave (km/s) = 2.28562 3.38849 2.89015
# Velocity P-wave (km/s) = 4.93462 6.40624 5.71797
#
# Compressibility (1/GPa) = 0.02443162
#
# Stress axis : x y z
#
# Youngs Moduli (GPa) = 49.40840 22.22067 120.12995
#
# Poissons Ratio (x) = 0.43973 0.24004
# Poissons Ratio (y) = 0.97776 0.33397
# Poissons Ratio (z) = 0.09873 0.06178
#
# Static dielectric constant tensor:
#      x y z
#    x 2.124580 0.000000 0.029210 
#    y 0.000000 1.940740 0.000000 
#    z 0.029210 0.000000 1.961470 
# 
# From -- ./inp_files/191013.got.cif
#   From: 2010.05.17/outbox.cif.g08.bks.cpg/sg15_96_cif.got.tgz:191013.got - 2010.06.03 18:47:42.
