data_PCOD9300267
_publ_section_title
;
Structure prediction by ZEFSAII (Michael W. Deem and Ramdas Pophale) SiO2 
 PCOD9300267
Probable space group: C 2/C
;
_chemical_formula_sum "Si O2"
_cell_formula_units_Z 28
_cell_length_a 14.931581
_cell_length_b 17.380324
_cell_length_c 9.552678
_cell_angle_alpha 90.000000
_cell_angle_beta 27.491480
_cell_angle_gamma 90.000000
_cell_volume 1144.380163
_symmetry_space_group_name_H-M "C 2/C"
_symmetry_group_IT_number 15
_symmetry_cell_setting 'monoclinic'
loop_
_space_group_symop_operation_xyz
x,y,z
-x,y,1/2-z
-x,-y,-z
x,-y,1/2+z
1/2+x,1/2+y,z
1/2-x,1/2+y,1/2-z
1/2-x,1/2-y,-z
1/2+x,1/2-y,1/2+z
loop_
_atom_site_type_symbol
_atom_site_label
_atom_site_fract_x
_atom_site_fract_y
_atom_site_fract_z
Si Si1 0.543230 0.834459 0.536260
Si Si2 0.198105 0.299630 0.887618
Si Si3 0.000000 0.517942 0.250000
Si Si4 0.395590 0.438476 0.746229
O O1 0.718464 0.786220 0.230177
O O2 0.362862 0.826681 0.682753
O O3 0.580382 0.923240 0.520979
O O4 0.500000 0.799848 0.750000
O O5 0.364577 0.355730 0.716213
O O6 0.000000 0.303599 0.250000
O O7 0.825425 0.468498 0.433310
O O8 0.500000 0.435165 0.750000
O O9 0.500000 0.500000 0.500000
#
# Coordination Sequence:
#
# PCOD9300267 Si02
#       4
#     8   8   4   8
#     4  10  26  47  78 103 156 212 255 304 392 471
#     4  12  26  46  76 118 158 193 261 334 387 444
#     4  10  26  54  78 106 160 202 266 308 380 474
#     4  12  29  49  83 114 155 207 262 317 396 462
#
# _framework density 24.467393000000001
#
# number of rings (size 3 to 8) (size 9 to 14) (size 15 to 20)
#    0.857    0.000    1.429    3.429    8.000    4.571 
#    0.000    0.000    0.000    0.000    0.000    0.000 
#    0.000    0.000    0.000    0.000    0.000    0.000 
#
# Total GULP energy -78459.208515 kJ/mol
# GULP energy per Si atom -5604.229180 kJ/mol
# Density = 2.441170 g / cm^3
# Si number density = 24.467393 Si / 1000 Ang^3
#
#
#
# Elastic Constant Matrix: (Units=GPa)
#
#
# Indices 1 2 3 4 5 6 
#
# 1 264.4476 49.2625 48.1406 0.0132 -8.9573 -0.0267
# 2 49.2625 96.5817 40.9959 0.0094 -13.6509 -0.0223
# 3 48.1406 40.9959 91.1053 0.0107 -3.4658 -0.0286
# 4 0.0132 0.0094 0.0107 50.1546 -0.0135 -9.6278
# 5 -8.9573 -13.6509 -3.4658 -0.0135 41.2877 0.0300
# 6 -0.0267 -0.0223 -0.0286 -9.6278 0.0300 40.6061
#
#
#
# Elastic Compliance Matrix: (Units=1/GPa)
#
#
# Indices 1 2 3 4 5 6 
#
# 1 0.004366 -0.001493 -0.001623 0.000000 0.000317 0.000001
# 2 -0.001493 0.013919 -0.005329 0.000000 0.003831 0.000000
# 3 -0.001623 -0.005329 0.014197 -0.000001 -0.000922 0.000007
# 4 0.000000 0.000000 -0.000001 0.020889 0.000003 0.004953
# 5 0.000317 0.003831 -0.000922 0.000003 0.025478 -0.000016
# 6 0.000001 0.000000 0.000007 0.004953 -0.000016 0.025801
#
#
# Mechanical properties :
#
#
# Convention : Reuss Voigt Hill
#
# Bulk Modulus (GPa) = 64.13576 80.99252 72.56414
# Shear Modulus (GPa) = 39.45204 47.32539 43.38872
#
# Velocity S-wave (km/s) = 4.01987 4.40275 4.21566
# Velocity P-wave (km/s) = 6.91487 7.68243 7.30873
#
# Compressibility (1/GPa) = 0.01559193
#
# Stress axis : x y z
#
# Youngs Moduli (GPa) = 229.05294 71.84566 70.43954
#
# Poissons Ratio (x) = 0.10727 0.11432
# Poissons Ratio (y) = 0.34199 0.37534
# Poissons Ratio (z) = 0.37175 0.38283
#
# Static dielectric constant tensor:
#      x y z
#    x 1.924490 0.000000 0.045750 
#    y 0.000000 1.905600 0.000000 
#    z 0.045750 0.000000 1.957530 
# 
# From -- ./inp_files/40495.got.cif
#   From: 2010.05.17/outbox.cif.g08.bks.cpg/sg15_21_cif.got.tgz:40495.got - 2010.06.03 18:47:42.
