data_PCOD9300380
_publ_section_title
;
Structure prediction by ZEFSAII (Michael W. Deem and Ramdas Pophale) SiO2 
 PCOD9300380
Probable space group: C 2/C
;
_chemical_formula_sum "Si O2"
_cell_formula_units_Z 44
_cell_length_a 8.438617
_cell_length_b 30.720752
_cell_length_c 8.927024
_cell_angle_alpha 90.000000
_cell_angle_beta 120.563188
_cell_angle_gamma 90.000000
_cell_volume 1992.726639
_symmetry_space_group_name_H-M "C 2/C"
_symmetry_group_IT_number 15
_symmetry_cell_setting 'monoclinic'
loop_
_space_group_symop_operation_xyz
x,y,z
-x,y,1/2-z
-x,-y,-z
x,-y,1/2+z
1/2+x,1/2+y,z
1/2-x,1/2+y,1/2-z
1/2-x,1/2-y,-z
1/2+x,1/2-y,1/2+z
loop_
_atom_site_type_symbol
_atom_site_label
_atom_site_fract_x
_atom_site_fract_y
_atom_site_fract_z
Si Si1 0.469252 0.305770 0.438911
Si Si2 0.594199 0.134728 0.129863
Si Si3 0.583004 0.782714 0.121619
Si Si4 0.500000 0.008319 0.250000
Si Si5 0.000000 0.882048 0.250000
Si Si6 0.500000 0.650134 0.250000
Si Si7 0.148130 0.440136 0.089150
O O1 0.577090 0.261696 0.523879
O O2 0.292781 0.295496 0.253910
O O3 0.557561 0.348599 0.408396
O O4 0.413745 0.320971 0.577167
O O5 0.500000 0.132958 0.250000
O O6 0.815578 0.128795 0.230097
O O7 0.525273 0.179849 0.020978
O O8 0.513057 0.095579 0.991463
O O9 0.500000 0.776917 0.250000
O O10 0.632592 0.037372 0.418167
O O11 0.613853 0.977398 0.193763
O O12 0.831130 0.913004 0.207498
#
# Coordination Sequence:
#
# PCOD9300380 Si02
#       7
#     8   8   8   4   4   4   8
#     4  12  26  43  67 108 147 205 255 311 359 437
#     4  12  26  47  76 109 154 199 254 322 365 456
#     4  12  24  46  66 102 152 207 260 307 365 430
#     4  10  26  50  80 102 146 190 229 321 384 468
#     4  12  28  46  76 112 150 192 253 307 374 464
#     4  12  26  44  72 104 144 210 254 302 384 424
#     4  11  25  51  74 112 144 186 245 303 393 457
#
# _framework density 22.080299
#
# number of rings (size 3 to 8) (size 9 to 14) (size 15 to 20)
#    0.000    0.364    5.455    2.727    5.091    1.455 
#    0.000    3.636    0.000    0.000    0.000    0.000 
#    0.000    0.000    0.000    0.000    0.000    0.000 
#
# Total GULP energy -122920.360848 kJ/mol
# GULP energy per Si atom -5587.289129 kJ/mol
# Density = 2.203004 g / cm^3
# Si number density = 22.080299 Si / 1000 Ang^3
#
#
#
# Elastic Constant Matrix: (Units=GPa)
#
#
# Indices 1 2 3 4 5 6 
#
# 1 108.6802 30.7831 35.9372 0.0000 19.1633 0.0000
# 2 30.7831 114.7847 30.6196 0.0000 -5.3843 0.0000
# 3 35.9372 30.6196 78.1582 0.0000 -5.8086 0.0000
# 4 0.0000 0.0000 0.0000 144.5664 0.0000 -74.6167
# 5 19.1633 -5.3843 -5.8086 0.0000 44.6010 0.0000
# 6 0.0000 0.0000 0.0000 -74.6167 0.0000 27.5305
#
#
#
# Elastic Compliance Matrix: (Units=1/GPa)
#
#
# Indices 1 2 3 4 5 6 
#
# 1 0.012801 -0.002276 -0.005476 0.000000 -0.006488 0.000000
# 2 -0.002276 0.010154 -0.002795 0.000000 0.001840 0.000000
# 3 -0.005476 -0.002795 0.016719 0.000000 0.004193 0.000000
# 4 0.000000 0.000000 0.000000 -0.017340 0.000000 -0.046997
# 5 -0.006488 0.001840 0.004193 0.000000 0.025977 0.000000
# 6 0.000000 0.000000 0.000000 -0.046997 0.000000 -0.091055
#
#
# Mechanical properties :
#
#
# Convention : Reuss Voigt Hill
#
# Bulk Modulus (GPa) = 53.82260 55.14477 54.48368
# Shear Modulus (GPa) = -323.49271 56.95846 -133.26712
#
# Velocity S-wave (km/s) = -12.11716 5.08449 -7.77732
# Velocity P-wave (km/s) = 13.08963 7.71351 7.47798
#
# Compressibility (1/GPa) = 0.01857955
#
# Stress axis : x y z
#
# Youngs Moduli (GPa) = 78.11907 98.48082 59.81227
#
# Poissons Ratio (x) = 0.22419 0.32755
# Poissons Ratio (y) = 0.17784 0.16715
# Poissons Ratio (z) = 0.42780 0.27521
#
# Static dielectric constant tensor:
#      x y z
#    x 1.914500 0.000000 -0.066190 
#    y 0.000000 1.792450 0.000000 
#    z -0.066190 0.000000 1.836170 
# 
# From -- ./inp_files/26292.got.cif
#   From: 2010.05.17/outbox.cif.g08.bks.cpg/sg15_14_cif.got.tgz:26292.got - 2010.06.03 18:47:42.
