data_PCOD9300654
_publ_section_title
;
Structure prediction by ZEFSAII (Michael W. Deem and Ramdas Pophale) SiO2 
 PCOD9300654
Probable space group: C 2/C
;
_chemical_formula_sum "Si O2"
_cell_formula_units_Z 48
_cell_length_a 7.109631
_cell_length_b 19.864065
_cell_length_c 15.224989
_cell_angle_alpha 90.000000
_cell_angle_beta 106.042479
_cell_angle_gamma 90.000000
_cell_volume 2066.433130
_symmetry_space_group_name_H-M "C 2/C"
_symmetry_group_IT_number 15
_symmetry_cell_setting 'monoclinic'
loop_
_space_group_symop_operation_xyz
x,y,z
-x,y,1/2-z
-x,-y,-z
x,-y,1/2+z
1/2+x,1/2+y,z
1/2-x,1/2+y,1/2-z
1/2-x,1/2-y,-z
1/2+x,1/2-y,1/2+z
loop_
_atom_site_type_symbol
_atom_site_label
_atom_site_fract_x
_atom_site_fract_y
_atom_site_fract_z
Si Si1 0.693851 0.955794 0.939967
Si Si2 0.625648 0.858124 0.192912
Si Si3 0.422514 0.194204 0.007720
Si Si4 0.238422 0.486687 0.127571
Si Si5 0.176672 0.267050 0.703355
Si Si6 0.240234 0.591934 0.268187
O O1 0.805527 0.944461 0.864537
O O2 0.500162 0.002243 0.905286
O O3 0.631497 0.879535 0.960292
O O4 0.806085 0.985583 0.036819
O O5 0.500000 0.898197 0.250000
O O6 0.547380 0.821224 0.092913
O O7 0.773429 0.914091 0.174607
O O8 0.709924 0.801262 0.267831
O O9 0.250000 0.250000 0.000000
O O10 0.597942 0.218889 0.094790
O O11 0.300376 0.548673 0.193222
O O12 0.291079 0.331359 0.756244
O O13 0.000000 0.260143 0.750000
O O14 0.000000 0.591713 0.250000
#
# Coordination Sequence:
#
# PCOD9300654 Si02
#       6
#     8   8   8   8   8   8
#     4   9  15  26  47  75 102 126 175 221 256 307
#     4  11  23  34  52  83 114 140 174 228 280 317
#     4  11  19  33  57  83 106 143 185 224 268 319
#     4   9  17  28  46  76 103 132 171 220 267 310
#     4  11  19  35  56  80 106 142 186 224 262 326
#     4   9  14  28  49  72  97 130 176 221 252 298
#
# _framework density 23.228434
#
# number of rings (size 3 to 8) (size 9 to 14) (size 15 to 20)
#    0.000    2.000    6.667    1.500    0.000    0.667 
#    0.000    0.000    0.000    1.000    0.000    5.833 
#    0.000    0.000    0.000    0.000    0.000    0.000 
#
# Total GULP energy -133799.010957 kJ/mol
# GULP energy per Si atom -5574.958790 kJ/mol
# Density = 2.317556 g / cm^3
# Si number density = 23.228434 Si / 1000 Ang^3
#
#
#
# Elastic Constant Matrix: (Units=GPa)
#
#
# Indices 1 2 3 4 5 6 
#
# 1 52.1406 -1.6137 17.4016 0.0000 -4.2349 0.0000
# 2 -1.6137 85.4248 4.5002 0.0000 8.9544 0.0000
# 3 17.4016 4.5002 90.7598 0.0000 -22.2624 0.0000
# 4 0.0000 0.0000 0.0000 47.7748 0.0000 -0.7988
# 5 -4.2349 8.9544 -22.2624 0.0000 29.0618 0.0000
# 6 0.0000 0.0000 0.0000 -0.7988 0.0000 0.2104
#
#
#
# Elastic Compliance Matrix: (Units=1/GPa)
#
#
# Indices 1 2 3 4 5 6 
#
# 1 0.020522 0.000632 -0.004039 0.000000 -0.000298 0.000000
# 2 0.000632 0.012378 -0.002029 0.000000 -0.005276 0.000000
# 3 -0.004039 -0.002029 0.014656 0.000000 0.011264 0.000000
# 4 0.000000 0.000000 0.000000 0.022351 0.000000 0.084873
# 5 -0.000298 -0.005276 0.011264 0.000000 0.044620 0.000000
# 6 0.000000 0.000000 0.000000 0.084873 0.000000 5.075812
#
#
# Mechanical properties :
#
#
# Convention : Reuss Voigt Hill
#
# Bulk Modulus (GPa) = 27.26045 29.87791 28.56918
# Shear Modulus (GPa) = 0.95906 29.27853 15.11879
#
# Velocity S-wave (km/s) = 0.64326 3.55415 2.55399
# Velocity P-wave (km/s) = 3.50899 5.45282 4.58509
#
# Compressibility (1/GPa) = 0.03668318
#
# Stress axis : x y z
#
# Youngs Moduli (GPa) = 48.72739 80.78795 68.23143
#
# Poissons Ratio (x) = -0.05104 0.27561
# Poissons Ratio (y) = -0.03078 0.13845
# Poissons Ratio (z) = 0.19683 0.16392
#
# Static dielectric constant tensor:
#      x y z
#    x 1.980640 0.000000 0.063980 
#    y 0.000000 1.837520 0.000000 
#    z 0.063980 0.000000 1.916760 
# 
# From -- ./inp_files/136195.got.cif
#   From: 2010.05.17/outbox.cif.g08.bks.cpg/sg15_69_cif.got.tgz:136195.got - 2010.06.03 18:47:42.
