data_PCOD9300199
_publ_section_title
;
Structure prediction by ZEFSAII (Michael W. Deem and Ramdas Pophale) SiO2 
 PCOD9300199
Probable space group: C 2/C
;
_chemical_formula_sum "Si O2"
_cell_formula_units_Z 52
_cell_length_a 27.021215
_cell_length_b 9.447359
_cell_length_c 28.945354
_cell_angle_alpha 90.000000
_cell_angle_beta 20.647573
_cell_angle_gamma 90.000000
_cell_volume 2605.550827
_symmetry_space_group_name_H-M "C 2/C"
_symmetry_group_IT_number 15
_symmetry_cell_setting 'monoclinic'
loop_
_space_group_symop_operation_xyz
x,y,z
-x,y,1/2-z
-x,-y,-z
x,-y,1/2+z
1/2+x,1/2+y,z
1/2-x,1/2+y,1/2-z
1/2-x,1/2-y,-z
1/2+x,1/2-y,1/2+z
loop_
_atom_site_type_symbol
_atom_site_label
_atom_site_fract_x
_atom_site_fract_y
_atom_site_fract_z
Si Si1 0.000000 0.764549 0.750000
Si Si2 0.379555 0.737132 0.211421
Si Si3 0.410604 0.759652 0.727030
Si Si4 0.902864 0.653847 0.524963
Si Si5 0.966100 0.969439 0.861695
Si Si6 0.168216 0.450308 0.166646
Si Si7 0.577041 0.824075 0.961800
O O1 0.064981 0.871372 0.655425
O O2 0.104317 0.658668 0.685329
O O3 0.407499 0.609257 0.222080
O O4 0.360425 0.876359 0.259153
O O5 0.511821 0.745252 0.062597
O O6 0.234668 0.717521 0.311434
O O7 0.255078 0.709850 0.845955
O O8 0.504131 0.803783 0.600832
O O9 0.483501 0.628780 0.689583
O O10 0.398372 0.894892 0.771055
O O11 0.913238 0.486490 0.528593
O O12 0.976344 0.712183 0.507104
O O13 0.829993 0.969934 0.012757
#
# Coordination Sequence:
#
# PCOD9300199 Si02
#       7
#     4   8   8   8   8   8   8
#     4  10  26  46  70  98 116 164 210 266 324 398
#     4  11  21  39  66  92 128 178 216 259 317 367
#     4  12  23  43  65  96 132 176 205 265 323 376
#     4  11  24  39  61  96 138 170 222 260 311 367
#     4  11  23  43  68  95 130 161 214 263 323 390
#     4  11  23  43  68  95 130 161 214 263 323 390
#     4  11  22  39  61  96 133 176 222 266 298 371
#
# _framework density 19.957393
#
# number of rings (size 3 to 8) (size 9 to 14) (size 15 to 20)
#    0.000    0.923    6.154    1.385    0.000    0.615 
#    2.769    3.077    0.000    0.000    0.000    0.000 
#    0.000    0.000    0.000    0.000    0.000    0.000 
#
# Total GULP energy -145039.387395 kJ/mol
# GULP energy per Si atom -5578.437977 kJ/mol
# Density = 1.991197 g / cm^3
# Si number density = 19.957393 Si / 1000 Ang^3
#
#
#
# Elastic Constant Matrix: (Units=GPa)
#
#
# Indices 1 2 3 4 5 6 
#
# 1 51.3663 29.8244 5.1552 -0.0044 -0.1683 0.0006
# 2 29.8244 129.0646 22.4240 -0.0054 -0.5594 0.0024
# 3 5.1552 22.4240 84.7742 -0.0122 -7.2940 0.0025
# 4 -0.0044 -0.0054 -0.0122 28.7639 0.0000 0.2729
# 5 -0.1683 -0.5594 -7.2940 0.0000 19.2028 -0.0005
# 6 0.0006 0.0024 0.0025 0.2729 -0.0005 22.3510
#
#
#
# Elastic Compliance Matrix: (Units=1/GPa)
#
#
# Indices 1 2 3 4 5 6 
#
# 1 0.022485 -0.005198 0.000012 0.000002 0.000050 0.000000
# 2 -0.005198 0.009329 -0.002204 0.000000 -0.000611 -0.000001
# 3 0.000012 -0.002204 0.012791 0.000005 0.004794 -0.000001
# 4 0.000002 0.000000 0.000005 0.034770 0.000002 -0.000425
# 5 0.000050 -0.000611 0.004794 0.000002 0.053879 0.000001
# 6 0.000000 -0.000001 -0.000001 -0.000425 0.000001 0.044746
#
#
# Mechanical properties :
#
#
# Convention : Reuss Voigt Hill
#
# Bulk Modulus (GPa) = 33.52889 42.22359 37.87624
# Shear Modulus (GPa) = 24.66428 27.91698 26.29063
#
# Velocity S-wave (km/s) = 3.51928 3.74415 3.63345
# Velocity P-wave (km/s) = 5.77498 6.31620 6.05164
#
# Compressibility (1/GPa) = 0.02982502
#
# Stress axis : x y z
#
# Youngs Moduli (GPa) = 44.47437 107.18718 78.18059
#
# Poissons Ratio (x) = 0.55712 -0.00093
# Poissons Ratio (y) = 0.23116 0.17233
# Poissons Ratio (z) = -0.00053 0.23627
#
# Static dielectric constant tensor:
#      x y z
#    x 1.699690 0.000000 -0.008390 
#    y 0.000000 1.715250 0.000000 
#    z -0.008390 0.000000 1.667920 
# 
# From -- ./inp_files/320166.got.cif
#   From: 2010.05.17/outbox.cif.g08.bks.cpg/sg15_161_cif.got.tgz:320166.got - 2010.06.03 18:47:42.
