data_PCOD9300133
_publ_section_title
;
Structure prediction by ZEFSAII (Michael W. Deem and Ramdas Pophale) SiO2 
 PCOD9300133
Probable space group: C 2/C
;
_chemical_formula_sum "Si O2"
_cell_formula_units_Z 36
_cell_length_a 20.480733
_cell_length_b 9.960001
_cell_length_c 9.981324
_cell_angle_alpha 90.000000
_cell_angle_beta 44.978618
_cell_angle_gamma 90.000000
_cell_volume 1439.182601
_symmetry_space_group_name_H-M "C 2/C"
_symmetry_group_IT_number 15
_symmetry_cell_setting 'monoclinic'
loop_
_space_group_symop_operation_xyz
x,y,z
-x,y,1/2-z
-x,-y,-z
x,-y,1/2+z
1/2+x,1/2+y,z
1/2-x,1/2+y,1/2-z
1/2-x,1/2-y,-z
1/2+x,1/2-y,1/2+z
loop_
_atom_site_type_symbol
_atom_site_label
_atom_site_fract_x
_atom_site_fract_y
_atom_site_fract_z
Si Si1 0.529014 0.826956 0.467371
Si Si2 0.000000 0.507378 0.250000
Si Si3 0.218390 0.060793 0.822979
Si Si4 0.310049 0.809402 0.793738
Si Si5 0.826457 0.865865 0.850253
O O1 0.420341 0.795102 0.642780
O O2 0.589252 0.699909 0.349186
O O3 0.539431 0.914525 0.313337
O O4 0.558782 0.895814 0.565908
O O5 0.291840 0.965988 0.792182
O O6 0.228049 0.215708 0.769499
O O7 0.142976 0.070770 0.051327
O O8 0.294202 0.482818 0.797421
O O9 0.250000 0.750000 0.000000
O O10 0.750000 0.750000 0.000000
#
# Coordination Sequence:
#
# PCOD9300133 Si02
#       5
#     8   4   8   8   8
#     4  11  28  46  74 115 151 202 254 313 376 456
#     4  10  26  44  78 106 156 194 264 300 376 446
#     4  12  27  48  80 108 158 196 256 304 388 441
#     4  12  28  48  78 113 152 202 252 313 378 452
#     4  12  28  48  76 113 152 198 250 318 377 447
#
# _framework density 25.014199999999999
#
# number of rings (size 3 to 8) (size 9 to 14) (size 15 to 20)
#    0.000    0.444    4.444    1.333   12.444    0.889 
#    4.000    0.000    0.000    0.000    0.000    0.000 
#    0.000    0.000    0.000    0.000    0.000    0.000 
#
# Total GULP energy -100368.530947 kJ/mol
# GULP energy per Si atom -5576.029497 kJ/mol
# Density = 2.495727 g / cm^3
# Si number density = 25.014200 Si / 1000 Ang^3
#
#
#
# Elastic Constant Matrix: (Units=GPa)
#
#
# Indices 1 2 3 4 5 6 
#
# 1 69.6571 22.3754 70.6447 0.0000 15.2410 0.0000
# 2 22.3754 84.1687 39.8496 0.0000 -5.5395 0.0000
# 3 70.6447 39.8496 178.1653 0.0000 34.8618 0.0000
# 4 0.0000 0.0000 0.0000 72.2077 0.0000 8.5251
# 5 15.2410 -5.5395 34.8618 0.0000 74.4963 0.0000
# 6 0.0000 0.0000 0.0000 8.5251 0.0000 22.8872
#
#
#
# Elastic Compliance Matrix: (Units=1/GPa)
#
#
# Indices 1 2 3 4 5 6 
#
# 1 0.024409 -0.002303 -0.008974 0.000000 -0.000965 0.000000
# 2 -0.002303 0.013986 -0.002764 0.000000 0.002805 0.000000
# 3 -0.008974 -0.002764 0.010425 0.000000 -0.003248 0.000000
# 4 0.000000 0.000000 0.000000 0.014486 0.000000 -0.005396
# 5 -0.000965 0.002805 -0.003248 0.000000 0.015349 0.000000
# 6 0.000000 0.000000 0.000000 -0.005396 0.000000 0.045702
#
#
# Mechanical properties :
#
#
# Convention : Reuss Voigt Hill
#
# Bulk Modulus (GPa) = 48.22298 66.41449 57.31874
# Shear Modulus (GPa) = 31.37692 47.19298 39.28495
#
# Velocity S-wave (km/s) = 3.54554 4.34827 3.96726
# Velocity P-wave (km/s) = 6.00677 7.19849 6.62946
#
# Compressibility (1/GPa) = 0.02073700
#
# Stress axis : x y z
#
# Youngs Moduli (GPa) = 40.96914 71.49848 95.92475
#
# Poissons Ratio (x) = 0.16469 0.86085
# Poissons Ratio (y) = 0.09437 0.26511
# Poissons Ratio (z) = 0.36767 0.19760
#
# Static dielectric constant tensor:
#      x y z
#    x 2.085820 0.000000 0.021670 
#    y 0.000000 2.015350 0.000000 
#    z 0.021670 0.000000 1.986110 
# 
# From -- ./inp_files/121061.got.cif
#   From: 2010.05.17/outbox.cif.g08.bks.cpg/sg15_61_cif.got.tgz:121061.got - 2010.06.03 18:47:42.
