data_PCOD9300596
_publ_section_title
;
Structure prediction by ZEFSAII (Michael W. Deem and Ramdas Pophale) SiO2 
 PCOD9300596
Probable space group: C 2/C
;
_chemical_formula_sum "Si O2"
_cell_formula_units_Z 40
_cell_length_a 19.643047
_cell_length_b 11.059050
_cell_length_c 11.572621
_cell_angle_alpha 90.000000
_cell_angle_beta 47.809278
_cell_angle_gamma 90.000000
_cell_volume 1862.626740
_symmetry_space_group_name_H-M "C 2/C"
_symmetry_group_IT_number 15
_symmetry_cell_setting 'monoclinic'
loop_
_space_group_symop_operation_xyz
x,y,z
-x,y,1/2-z
-x,-y,-z
x,-y,1/2+z
1/2+x,1/2+y,z
1/2-x,1/2+y,1/2-z
1/2-x,1/2-y,-z
1/2+x,1/2-y,1/2+z
loop_
_atom_site_type_symbol
_atom_site_label
_atom_site_fract_x
_atom_site_fract_y
_atom_site_fract_z
Si Si1 0.353814 0.218207 0.745863
Si Si2 0.233467 0.951567 0.532991
Si Si3 0.068978 0.983778 0.074514
Si Si4 0.534600 0.298036 0.444670
Si Si5 0.764177 0.199569 0.854282
O O1 0.324495 0.341558 0.844968
O O2 0.463170 0.217770 0.598038
O O3 0.299275 0.223103 0.685582
O O4 0.317873 0.110009 0.868983
O O5 0.169834 0.016235 0.510077
O O6 0.246695 0.054377 0.613371
O O7 0.000000 0.030678 0.250000
O O8 0.064144 0.081901 0.980428
O O9 0.028277 0.855150 0.084386
O O10 0.633067 0.251765 0.292930
O O11 0.750000 0.250000 0.000000
#
# Coordination Sequence:
#
# PCOD9300596 Si02
#       5
#     8   8   8   8   8
#     4  11  25  40  68  96 135 168 209 276 335 386
#     4  11  23  43  65 102 129 167 215 276 331 384
#     4  11  18  36  69  95 122 156 223 288 316 358
#     4  11  22  38  64  99 124 164 220 275 320 379
#     4  12  26  40  69  95 132 170 224 273 320 387
#
# _framework density 21.475048999999999
#
# number of rings (size 3 to 8) (size 9 to 14) (size 15 to 20)
#    0.000    0.800    6.000    2.400    2.800    0.000 
#    0.000    1.000    4.400    0.000    0.000    0.000 
#    0.000    0.000    0.000    0.000    0.000    0.000 
#
# Total GULP energy -111554.825548 kJ/mol
# GULP energy per Si atom -5577.741277 kJ/mol
# Density = 2.142617 g / cm^3
# Si number density = 21.475049 Si / 1000 Ang^3
#
#
#
# Elastic Constant Matrix: (Units=GPa)
#
#
# Indices 1 2 3 4 5 6 
#
# 1 64.7999 12.5661 21.1516 0.0000 -9.5507 0.0000
# 2 12.5661 32.7255 11.2443 0.0000 -5.7986 0.0000
# 3 21.1516 11.2443 154.4153 0.0000 -24.6465 0.0000
# 4 0.0000 0.0000 0.0000 24.7507 0.0000 0.1770
# 5 -9.5507 -5.7986 -24.6465 0.0000 33.6060 0.0000
# 6 0.0000 0.0000 0.0000 0.1770 0.0000 21.0454
#
#
#
# Elastic Compliance Matrix: (Units=1/GPa)
#
#
# Indices 1 2 3 4 5 6 
#
# 1 0.017450 -0.005671 -0.001520 0.000000 0.002866 0.000000
# 2 -0.005671 0.033724 -0.001141 0.000000 0.003371 0.000000
# 3 -0.001520 -0.001141 0.007551 0.000000 0.004909 0.000000
# 4 0.000000 0.000000 0.000000 0.040405 0.000000 -0.000340
# 5 0.002866 0.003371 0.004909 0.000000 0.034753 0.000000
# 6 0.000000 0.000000 0.000000 -0.000340 0.000000 0.047519
#
#
# Mechanical properties :
#
#
# Convention : Reuss Voigt Hill
#
# Bulk Modulus (GPa) = 23.77439 37.98496 30.87968
# Shear Modulus (GPa) = 23.57533 29.67900 26.62717
#
# Velocity S-wave (km/s) = 3.31690 3.72159 3.52506
# Velocity P-wave (km/s) = 5.07581 6.01609 5.56584
#
# Compressibility (1/GPa) = 0.04206207
#
# Stress axis : x y z
#
# Youngs Moduli (GPa) = 57.30548 29.65262 132.43554
#
# Poissons Ratio (x) = 0.16815 0.20129
# Poissons Ratio (y) = 0.32495 0.15111
# Poissons Ratio (z) = 0.08710 0.03383
#
# Static dielectric constant tensor:
#      x y z
#    x 1.817960 0.000000 0.008960 
#    y 0.000000 1.809660 0.000000 
#    z 0.008960 0.000000 1.832760 
# 
# From -- ./inp_files/103939.got.cif
#   From: 2010.05.17/outbox.cif.g08.bks.cpg/sg15_52_cif.got.tgz:103939.got - 2010.06.03 18:47:42.
