data_PCOD9300154
_publ_section_title
;
Structure prediction by ZEFSAII (Michael W. Deem and Ramdas Pophale) SiO2 
 PCOD9300154
Probable space group: C 2/C
;
_chemical_formula_sum "Si O2"
_cell_formula_units_Z 48
_cell_length_a 4.674831
_cell_length_b 21.308777
_cell_length_c 21.427978
_cell_angle_alpha 90.000000
_cell_angle_beta 125.864163
_cell_angle_gamma 90.000000
_cell_volume 1729.854123
_symmetry_space_group_name_H-M "C 2/C"
_symmetry_group_IT_number 15
_symmetry_cell_setting 'monoclinic'
loop_
_space_group_symop_operation_xyz
x,y,z
-x,y,1/2-z
-x,-y,-z
x,-y,1/2+z
1/2+x,1/2+y,z
1/2-x,1/2+y,1/2-z
1/2-x,1/2-y,-z
1/2+x,1/2-y,1/2+z
loop_
_atom_site_type_symbol
_atom_site_label
_atom_site_fract_x
_atom_site_fract_y
_atom_site_fract_z
Si Si1 0.481896 0.563109 0.886169
Si Si2 0.500000 0.521189 0.750000
Si Si3 0.000000 0.244251 0.250000
Si Si4 0.119925 0.678438 0.889307
Si Si5 0.312998 0.937723 0.631579
Si Si6 0.750000 0.750000 0.500000
Si Si7 0.000000 0.653532 0.250000
Si Si8 0.130550 0.350534 0.980548
O O1 0.441897 0.559958 0.806541
O O2 0.171993 0.606166 0.876975
O O3 0.473065 0.492721 0.910616
O O4 0.816081 0.600918 0.954985
O O5 0.163418 0.477259 0.693537
O O6 0.056165 0.287708 0.316828
O O7 0.317742 0.197479 0.276583
O O8 0.908015 0.714460 0.915708
O O9 0.312668 0.804093 0.950849
O O10 0.237031 0.892671 0.679995
O O11 0.367648 0.895329 0.578663
O O12 0.504708 0.689882 0.522538
#
# Coordination Sequence:
#
# PCOD9300154 Si02
#       8
#     8   4   4   8   8   4   4   8
#     4  10  26  45  74 111 149 201 257 330 406 475
#     4  12  25  45  74 110 159 201 250 338 400 482
#     4  12  29  47  76 113 164 205 288 316 430 466
#     4  10  28  46  73 112 150 213 258 339 385 495
#     4  12  25  50  74 114 158 198 273 322 419 481
#     4  12  24  48  72 106 154 198 266 322 396 484
#     4  12  28  46  78 115 157 220 258 354 386 506
#     4  10  27  47  77 109 153 207 263 328 403 481
#
# _framework density 27.748004000000002
#
# number of rings (size 3 to 8) (size 9 to 14) (size 15 to 20)
#    1.000    0.000    1.667    2.500    9.333    2.667 
#    0.000    0.000    0.000    0.000    0.000    0.000 
#    0.000    0.000    0.000    0.000    0.000    0.000 
#
# Total GULP energy -134114.771507 kJ/mol
# GULP energy per Si atom -5588.115479 kJ/mol
# Density = 2.768485 g / cm^3
# Si number density = 27.748004 Si / 1000 Ang^3
#
#
#
# Elastic Constant Matrix: (Units=GPa)
#
#
# Indices 1 2 3 4 5 6 
#
# 1 73.7955 34.2049 14.2804 0.0000 -13.7722 0.0000
# 2 34.2049 212.9426 77.4630 0.0000 -16.7297 0.0000
# 3 14.2804 77.4630 143.2424 0.0000 -46.0850 0.0000
# 4 0.0000 0.0000 0.0000 67.4643 0.0000 -4.9716
# 5 -13.7722 -16.7297 -46.0850 0.0000 56.1797 0.0000
# 6 0.0000 0.0000 0.0000 -4.9716 0.0000 54.6079
#
#
#
# Elastic Compliance Matrix: (Units=1/GPa)
#
#
# Indices 1 2 3 4 5 6 
#
# 1 0.015242 -0.002546 0.001108 0.000000 0.003887 0.000000
# 2 -0.002546 0.006327 -0.003753 0.000000 -0.001819 0.000000
# 3 0.001108 -0.003753 0.011722 0.000000 0.008769 0.000000
# 4 0.000000 0.000000 0.000000 0.014923 0.000000 0.001359
# 5 0.003887 -0.001819 0.008769 0.000000 0.025405 0.000000
# 6 0.000000 0.000000 0.000000 0.001359 0.000000 0.018436
#
#
# Mechanical properties :
#
#
# Convention : Reuss Voigt Hill
#
# Bulk Modulus (GPa) = 43.65102 75.76411 59.70756
# Shear Modulus (GPa) = 45.42413 55.91919 50.67166
#
# Velocity S-wave (km/s) = 4.05040 4.49402 4.27797
# Velocity P-wave (km/s) = 6.13512 7.36831 6.77981
#
# Compressibility (1/GPa) = 0.02290897
#
# Stress axis : x y z
#
# Youngs Moduli (GPa) = 65.60777 158.04184 85.31214
#
# Poissons Ratio (x) = 0.40237 -0.09451
# Poissons Ratio (y) = 0.16703 0.32018
# Poissons Ratio (z) = -0.07268 0.59314
#
# Static dielectric constant tensor:
#      x y z
#    x 2.511080 0.000000 -0.105790 
#    y 0.000000 2.294860 0.000000 
#    z -0.105790 0.000000 2.265200 
# 
# From -- ./inp_files/261271.got.cif
#   From: 2010.05.17/outbox.cif.g08.bks.cpg/sg15_131_cif.got.tgz:261271.got - 2010.06.03 18:47:42.
