data_PCOD9300978
_publ_section_title
;
Structure prediction by ZEFSAII (Michael W. Deem and Ramdas Pophale) SiO2 
 PCOD9300978
Probable space group: C 2/C
;
_chemical_formula_sum "Si O2"
_cell_formula_units_Z 56
_cell_length_a 21.352741
_cell_length_b 14.023549
_cell_length_c 8.475844
_cell_angle_alpha 90.000000
_cell_angle_beta 118.783658
_cell_angle_gamma 90.000000
_cell_volume 2224.429884
_symmetry_space_group_name_H-M "C 2/C"
_symmetry_group_IT_number 15
_symmetry_cell_setting 'monoclinic'
loop_
_space_group_symop_operation_xyz
x,y,z
-x,y,1/2-z
-x,-y,-z
x,-y,1/2+z
1/2+x,1/2+y,z
1/2-x,1/2+y,1/2-z
1/2-x,1/2-y,-z
1/2+x,1/2-y,1/2+z
loop_
_atom_site_type_symbol
_atom_site_label
_atom_site_fract_x
_atom_site_fract_y
_atom_site_fract_z
Si Si1 0.226463 0.068000 0.097127
Si Si2 0.641864 0.957842 0.201021
Si Si3 0.919276 0.870943 0.221441
Si Si4 0.802414 0.190959 0.169118
Si Si5 0.429116 0.662503 0.083572
Si Si6 0.429034 0.112566 0.579082
Si Si7 0.160710 0.314457 0.976018
O O1 0.274246 0.974504 0.168076
O O2 0.228369 0.099755 0.281143
O O3 0.144685 0.069564 0.940020
O O4 0.273505 0.142647 0.046474
O O5 0.621185 0.899223 0.329843
O O6 0.624503 0.904289 0.016581
O O7 0.601570 0.057961 0.111537
O O8 0.916217 0.890184 0.403979
O O9 0.000000 0.880336 0.250000
O O10 0.891437 0.761109 0.168865
O O11 0.868698 0.162443 0.142355
O O12 0.816679 0.256142 0.340186
O O13 0.750000 0.250000 0.000000
O O14 0.500000 0.623692 0.250000
O O15 0.440530 0.775658 0.058822
O O16 0.500000 0.072317 0.750000
#
# Coordination Sequence:
#
# PCOD9300978 Si02
#       7
#     8   8   8   8   8   8   8
#     4  11  24  41  61  94 136 178 226 273 343 401
#     4  12  23  41  59  91 134 185 224 270 330 403
#     4  11  24  43  69  97 135 176 222 282 342 401
#     4  11  20  35  60  87 123 162 215 273 315 384
#     4  11  22  39  63  97 126 165 219 276 333 397
#     4  11  24  38  60  90 133 175 226 270 330 398
#     4  11  22  39  60  91 128 172 218 269 333 396
#
# _framework density 25.174990999999999
#
# number of rings (size 3 to 8) (size 9 to 14) (size 15 to 20)
#    0.000    0.857    2.857    7.286    2.000    0.571 
#    0.000    0.000    0.000    0.857    0.000    2.000 
#    0.000    0.000    0.000    0.000    0.000    0.000 
#
# Total GULP energy -156587.010119 kJ/mol
# GULP energy per Si atom -5592.393219 kJ/mol
# Density = 2.511769 g / cm^3
# Si number density = 25.174991 Si / 1000 Ang^3
#
#
#
# Elastic Constant Matrix: (Units=GPa)
#
#
# Indices 1 2 3 4 5 6 
#
# 1 148.8410 1.6430 62.9010 0.0000 6.9741 0.0000
# 2 1.6430 43.1004 12.7875 0.0000 9.0898 0.0000
# 3 62.9010 12.7875 181.4193 0.0000 -7.5604 0.0000
# 4 0.0000 0.0000 0.0000 26.9859 0.0000 -12.1081
# 5 6.9741 9.0898 -7.5604 0.0000 43.7908 0.0000
# 6 0.0000 0.0000 0.0000 -12.1081 0.0000 12.5319
#
#
#
# Elastic Compliance Matrix: (Units=1/GPa)
#
#
# Indices 1 2 3 4 5 6 
#
# 1 0.008044 0.000987 -0.002942 0.000000 -0.001994 0.000000
# 2 0.000987 0.025078 -0.002350 0.000000 -0.005768 0.000000
# 3 -0.002942 -0.002350 0.006786 0.000000 0.002128 0.000000
# 4 0.000000 0.000000 0.000000 0.065414 0.000000 0.063202
# 5 -0.001994 -0.005768 0.002128 0.000000 0.024718 0.000000
# 6 0.000000 0.000000 0.000000 0.063202 0.000000 0.140861
#
#
# Mechanical properties :
#
#
# Convention : Reuss Voigt Hill
#
# Bulk Modulus (GPa) = 31.95085 58.66931 45.31008
# Shear Modulus (GPa) = 17.24471 36.39701 26.82086
#
# Velocity S-wave (km/s) = 2.62008 3.80644 3.26755
# Velocity P-wave (km/s) = 4.67677 6.53252 5.68093
#
# Compressibility (1/GPa) = 0.03129807
#
# Stress axis : x y z
#
# Youngs Moduli (GPa) = 124.31171 39.87589 147.35432
#
# Poissons Ratio (x) = -0.03934 0.43347
# Poissons Ratio (y) = -0.12265 0.34630
# Poissons Ratio (z) = 0.36569 0.09371
#
# Static dielectric constant tensor:
#      x y z
#    x 1.991320 0.000000 0.030880 
#    y 0.000000 2.224100 0.000000 
#    z 0.030880 0.000000 1.961600 
# 
# From -- ./inp_files/56735.got.cif
#   From: 2010.05.17/outbox.cif.g08.bks.cpg/sg15_29_cif.got.tgz:56735.got - 2010.06.03 18:47:42.
