data_PCOD9300935
_publ_section_title
;
Structure prediction by ZEFSAII (Michael W. Deem and Ramdas Pophale) SiO2 
 PCOD9300935
Probable space group: C 2/C
;
_chemical_formula_sum "Si O2"
_cell_formula_units_Z 56
_cell_length_a 15.850464
_cell_length_b 20.434831
_cell_length_c 8.685407
_cell_angle_alpha 90.000000
_cell_angle_beta 79.347628
_cell_angle_gamma 90.000000
_cell_volume 2764.736075
_symmetry_space_group_name_H-M "C 2/C"
_symmetry_group_IT_number 15
_symmetry_cell_setting 'monoclinic'
loop_
_space_group_symop_operation_xyz
x,y,z
-x,y,1/2-z
-x,-y,-z
x,-y,1/2+z
1/2+x,1/2+y,z
1/2-x,1/2+y,1/2-z
1/2-x,1/2-y,-z
1/2+x,1/2-y,1/2+z
loop_
_atom_site_type_symbol
_atom_site_label
_atom_site_fract_x
_atom_site_fract_y
_atom_site_fract_z
Si Si1 0.064257 0.471187 0.351104
Si Si2 0.403389 0.476119 0.328565
Si Si3 0.914035 0.154617 0.673975
Si Si4 0.035648 0.795520 0.890819
Si Si5 0.155125 0.265820 0.601153
Si Si6 0.347477 0.419130 0.654987
Si Si7 0.654468 0.083555 0.110108
O O1 0.109815 0.529912 0.238226
O O2 0.129285 0.431195 0.439878
O O3 0.000000 0.436164 0.250000
O O4 0.000000 0.500000 0.500000
O O5 0.500000 0.493863 0.250000
O O6 0.373828 0.415120 0.230859
O O7 0.403525 0.454314 0.504071
O O8 0.345745 0.538000 0.308750
O O9 0.858550 0.214673 0.755234
O O10 0.000000 0.153270 0.750000
O O11 0.953668 0.168092 0.494952
O O12 0.107853 0.850129 0.831610
O O13 0.000000 0.762483 0.750000
O O14 0.082638 0.750239 0.998167
O O15 0.250000 0.250000 0.500000
O O16 0.136435 0.340428 0.654205
O O17 0.255565 0.418736 0.606664
#
# Coordination Sequence:
#
# PCOD9300935 Si02
#       7
#     8   8   8   8   8   8   8
#     4   9  21  41  64  94 123 152 211 265 312 375
#     4  11  20  34  54  87 125 172 205 240 296 362
#     4   9  19  38  58  85 123 162 214 241 300 380
#     4  11  23  39  59  91 127 162 210 259 296 375
#     4  11  21  42  67  85 123 171 212 253 317 380
#     4  12  22  35  58  91 129 163 205 252 305 365
#     4  11  22  40  67  93 122 161 201 259 325 361
#
# _framework density 20.255098
#
# number of rings (size 3 to 8) (size 9 to 14) (size 15 to 20)
#    0.000    1.429    5.714    1.714    2.000    5.714 
#    0.000    2.143    0.000    0.000    0.000    0.000 
#    0.000    0.000    0.000    0.000    0.000    0.000 
#
# Total GULP energy -156051.508935 kJ/mol
# GULP energy per Si atom -5573.268176 kJ/mol
# Density = 2.020900 g / cm^3
# Si number density = 20.255098 Si / 1000 Ang^3
#
#
#
# Elastic Constant Matrix: (Units=GPa)
#
#
# Indices 1 2 3 4 5 6 
#
# 1 80.4609 20.1116 24.1418 0.0000 9.4889 0.0000
# 2 20.1116 84.0101 -4.6482 0.0000 3.1200 0.0000
# 3 24.1418 -4.6482 58.1706 0.0000 12.8043 0.0000
# 4 0.0000 0.0000 0.0000 26.4082 0.0000 0.2334
# 5 9.4889 3.1200 12.8043 0.0000 29.1278 0.0000
# 6 0.0000 0.0000 0.0000 0.2334 0.0000 23.3429
#
#
#
# Elastic Compliance Matrix: (Units=1/GPa)
#
#
# Indices 1 2 3 4 5 6 
#
# 1 0.015560 -0.004009 -0.006373 0.000000 -0.001838 0.000000
# 2 -0.004009 0.013083 0.003023 0.000000 -0.001424 0.000000
# 3 -0.006373 0.003023 0.021801 0.000000 -0.007831 0.000000
# 4 0.000000 0.000000 0.000000 0.037870 0.000000 -0.000379
# 5 -0.001838 -0.001424 -0.007831 0.000000 0.038525 0.000000
# 6 0.000000 0.000000 0.000000 -0.000379 0.000000 0.042843
#
#
# Mechanical properties :
#
#
# Convention : Reuss Voigt Hill
#
# Bulk Modulus (GPa) = 27.99209 33.53913 30.76561
# Shear Modulus (GPa) = 25.46987 27.97822 26.72405
#
# Velocity S-wave (km/s) = 3.54991 3.72061 3.63626
# Velocity P-wave (km/s) = 5.53645 5.92043 5.73166
#
# Compressibility (1/GPa) = 0.03572438
#
# Stress axis : x y z
#
# Youngs Moduli (GPa) = 64.26923 76.43350 45.86915
#
# Poissons Ratio (x) = 0.30644 0.29234
# Poissons Ratio (y) = 0.25767 -0.13865
# Poissons Ratio (z) = 0.40961 -0.23104
#
# Static dielectric constant tensor:
#      x y z
#    x 1.760470 0.000000 -0.006830 
#    y 0.000000 1.760890 0.000000 
#    z -0.006830 0.000000 1.773340 
# 
# From -- ./inp_files/41248.got.cif
#   From: 2010.05.17/outbox.cif.g08.bks.cpg/sg15_21_cif.got.tgz:41248.got - 2010.06.03 18:47:42.
