data_PCOD9300054
_publ_section_title
;
Structure prediction by ZEFSAII (Michael W. Deem and Ramdas Pophale) SiO2 
 PCOD9300054
Probable space group: C 2/C
;
_chemical_formula_sum "Si O2"
_cell_formula_units_Z 64
_cell_length_a 10.827320
_cell_length_b 14.932749
_cell_length_c 17.275589
_cell_angle_alpha 90.000000
_cell_angle_beta 78.360990
_cell_angle_gamma 90.000000
_cell_volume 2735.713434
_symmetry_space_group_name_H-M "C 2/C"
_symmetry_group_IT_number 15
_symmetry_cell_setting 'monoclinic'
loop_
_space_group_symop_operation_xyz
x,y,z
-x,y,1/2-z
-x,-y,-z
x,-y,1/2+z
1/2+x,1/2+y,z
1/2-x,1/2+y,1/2-z
1/2-x,1/2-y,-z
1/2+x,1/2-y,1/2+z
loop_
_atom_site_type_symbol
_atom_site_label
_atom_site_fract_x
_atom_site_fract_y
_atom_site_fract_z
Si Si1 0.172909 0.583669 0.858387
Si Si2 0.556775 0.712443 0.092556
Si Si3 0.717804 0.205806 0.703254
Si Si4 0.789975 0.965101 0.956687
Si Si5 0.286580 0.470159 0.129918
Si Si6 0.517383 0.066260 0.164955
Si Si7 0.626967 0.629811 0.285309
Si Si8 0.030254 0.640744 0.488645
O O1 0.193767 0.651597 0.785622
O O2 0.289351 0.543300 0.892939
O O3 0.078756 0.621002 0.935792
O O4 0.101032 0.499042 0.831062
O O5 0.605807 0.779094 0.154319
O O6 0.634993 0.621034 0.081712
O O7 0.415713 0.683543 0.132118
O O8 0.577624 0.762605 0.009320
O O9 0.732429 0.309410 0.729120
O O10 0.804080 0.134672 0.646870
O O11 0.644813 0.929684 0.983146
O O12 0.833872 0.990549 0.037216
O O13 0.140255 0.502430 0.148428
O O14 0.343011 0.531397 0.190169
O O15 0.500000 0.111395 0.250000
O O16 0.520244 0.131550 0.091456
O O17 0.500000 0.629157 0.250000
#
# Coordination Sequence:
#
# PCOD9300054 Si02
#       8
#     8   8   8   8   8   8   8   8
#     4  11  20  37  65  99 127 167 215 279 329 387
#     4  11  23  41  64  96 134 177 228 270 317 406
#     4  11  23  39  68  96 129 171 223 271 333 386
#     4  11  23  38  67  98 129 174 227 272 327 393
#     4  12  23  42  68  96 131 174 227 275 334 394
#     4  11  21  34  62  98 134 162 211 280 345 383
#     4  10  26  43  66  96 132 175 228 269 321 410
#     4  11  20  38  62 100 131 163 218 280 326 386
#
# _framework density 23.394262999999999
#
# number of rings (size 3 to 8) (size 9 to 14) (size 15 to 20)
#    0.000    1.000    6.250    1.125    7.000    0.500 
#    0.000    2.500    2.750    0.000    0.000    0.000 
#    0.000    0.000    0.000    0.000    0.000    0.000 
#
# Total GULP energy -178654.248413 kJ/mol
# GULP energy per Si atom -5582.945263 kJ/mol
# Density = 2.334102 g / cm^3
# Si number density = 23.394263 Si / 1000 Ang^3
#
#
#
# Elastic Constant Matrix: (Units=GPa)
#
#
# Indices 1 2 3 4 5 6 
#
# 1 15.5085 21.4924 17.4757 0.0000 7.2783 0.0000
# 2 21.4924 103.5524 37.7933 0.0000 13.3431 0.0000
# 3 17.4757 37.7933 165.9750 0.0000 8.3726 0.0000
# 4 0.0000 0.0000 0.0000 50.5368 0.0000 3.4305
# 5 7.2783 13.3431 8.3726 0.0000 13.7571 0.0000
# 6 0.0000 0.0000 0.0000 3.4305 0.0000 21.9436
#
#
#
# Elastic Compliance Matrix: (Units=1/GPa)
#
#
# Indices 1 2 3 4 5 6 
#
# 1 0.112348 -0.015871 -0.006183 0.000000 -0.040282 0.000000
# 2 -0.015871 0.013988 -0.001293 0.000000 -0.004383 0.000000
# 3 -0.006183 -0.001293 0.006956 0.000000 0.000292 0.000000
# 4 0.000000 0.000000 0.000000 0.020000 0.000000 -0.003127
# 5 -0.040282 -0.004383 0.000292 0.000000 0.098075 0.000000
# 6 0.000000 0.000000 0.000000 -0.003127 0.000000 0.046060
#
#
# Mechanical properties :
#
#
# Convention : Reuss Voigt Hill
#
# Bulk Modulus (GPa) = 11.54772 48.72874 30.13823
# Shear Modulus (GPa) = 13.40534 31.13246 22.26890
#
# Velocity S-wave (km/s) = 2.39638 3.65193 3.08863
# Velocity P-wave (km/s) = 3.55017 6.21745 5.06263
#
# Compressibility (1/GPa) = 0.08659720
#
# Stress axis : x y z
#
# Youngs Moduli (GPa) = 8.90094 71.49201 143.76663
#
# Poissons Ratio (x) = 1.13462 0.88896
# Poissons Ratio (y) = 0.14126 0.18587
# Poissons Ratio (z) = 0.05504 0.09243
#
# Static dielectric constant tensor:
#      x y z
#    x 1.933360 0.000000 -0.019840 
#    y 0.000000 1.906100 0.000000 
#    z -0.019840 0.000000 1.948160 
# 
# From -- ./inp_files/198328.got.cif
#   From: 2010.05.17/outbox.cif.g08.bks.cpg/sg15_100_cif.got.tgz:198328.got - 2010.06.03 18:47:42.
