data_PCOD9300646
_publ_section_title
;
Structure prediction by ZEFSAII (Michael W. Deem and Ramdas Pophale) SiO2 
 PCOD9300646
Probable space group: C 2/C
;
_chemical_formula_sum "Si O2"
_cell_formula_units_Z 40
_cell_length_a 16.501657
_cell_length_b 7.017284
_cell_length_c 12.967270
_cell_angle_alpha 90.000000
_cell_angle_beta 78.058044
_cell_angle_gamma 90.000000
_cell_volume 1469.071189
_symmetry_space_group_name_H-M "C 2/C"
_symmetry_group_IT_number 15
_symmetry_cell_setting 'monoclinic'
loop_
_space_group_symop_operation_xyz
x,y,z
-x,y,1/2-z
-x,-y,-z
x,-y,1/2+z
1/2+x,1/2+y,z
1/2-x,1/2+y,1/2-z
1/2-x,1/2-y,-z
1/2+x,1/2-y,1/2+z
loop_
_atom_site_type_symbol
_atom_site_label
_atom_site_fract_x
_atom_site_fract_y
_atom_site_fract_z
Si Si1 0.143859 0.612730 0.618368
Si Si2 0.280108 0.467766 0.836853
Si Si3 0.613356 0.172713 0.291842
Si Si4 0.193637 0.124197 0.396046
Si Si5 0.559932 0.773098 0.579080
O O1 0.160934 0.834551 0.609490
O O2 0.232241 0.507024 0.579439
O O3 0.112073 0.544469 0.741211
O O4 0.082241 0.498506 0.561021
O O5 0.197591 0.340131 0.833510
O O6 0.239552 0.669705 0.875526
O O7 0.322618 0.461196 0.712442
O O8 0.610729 0.657803 0.481777
O O9 0.537284 0.237420 0.380836
O O10 0.598515 0.274519 0.183336
#
# Coordination Sequence:
#
# PCOD9300646 Si02
#       5
#     8   8   8   8   8
#     4   9  19  36  56  76 107 142 181 226 262 330
#     4  11  20  34  54  83 108 138 185 226 263 322
#     4   8  18  34  55  79 108 140 179 224 266 330
#     4  11  19  32  58  78 106 146 179 225 267 325
#     4   9  18  34  56  79 107 147 178 217 284 318
#
# _framework density 27.228086000000001
#
# number of rings (size 3 to 8) (size 9 to 14) (size 15 to 20)
#    1.200    1.200    4.000    0.600    0.000    1.600 
#    0.000    1.000    0.000   12.000    0.000    0.000 
#    0.000    0.000    0.000    0.000    0.000    0.000 
#
# Total GULP energy -111621.456050 kJ/mol
# GULP energy per Si atom -5581.072802 kJ/mol
# Density = 2.716611 g / cm^3
# Si number density = 27.228086 Si / 1000 Ang^3
#
#
#
# Elastic Constant Matrix: (Units=GPa)
#
#
# Indices 1 2 3 4 5 6 
#
# 1 71.5590 -15.4466 47.1443 0.0000 -35.9570 0.0000
# 2 -15.4466 154.9835 32.6030 0.0000 -2.2929 0.0000
# 3 47.1443 32.6030 126.0547 0.0000 -44.1105 0.0000
# 4 0.0000 0.0000 0.0000 37.6866 0.0000 8.0352
# 5 -35.9570 -2.2929 -44.1105 0.0000 62.2613 0.0000
# 6 0.0000 0.0000 0.0000 8.0352 0.0000 23.9689
#
#
#
# Elastic Compliance Matrix: (Units=1/GPa)
#
#
# Indices 1 2 3 4 5 6 
#
# 1 0.023860 0.003931 -0.006738 0.000000 0.009151 0.000000
# 2 0.003931 0.007555 -0.003367 0.000000 0.000163 0.000000
# 3 -0.006738 -0.003367 0.013189 0.000000 0.005328 0.000000
# 4 0.000000 0.000000 0.000000 0.028577 0.000000 -0.009580
# 5 0.009151 0.000163 0.005328 0.000000 0.025127 0.000000
# 6 0.000000 0.000000 0.000000 -0.009580 0.000000 0.044932
#
#
# Mechanical properties :
#
#
# Convention : Reuss Voigt Hill
#
# Bulk Modulus (GPa) = 31.00333 53.46651 42.23492
# Shear Modulus (GPa) = 30.05879 44.00316 37.03097
#
# Velocity S-wave (km/s) = 3.32620 4.02443 3.69186
# Velocity P-wave (km/s) = 5.11495 6.42447 5.80674
#
# Compressibility (1/GPa) = 0.03225460
#
# Stress axis : x y z
#
# Youngs Moduli (GPa) = 41.91060 132.36579 75.82296
#
# Poissons Ratio (x) = -0.52032 0.51092
# Poissons Ratio (y) = -0.16475 0.25531
# Poissons Ratio (z) = 0.28241 0.44570
#
# Static dielectric constant tensor:
#      x y z
#    x 2.106610 0.000000 0.007470 
#    y 0.000000 2.236710 0.000000 
#    z 0.007470 0.000000 2.283080 
# 
# From -- ./inp_files/110290.got.cif
#   From: 2010.05.17/outbox.cif.g08.bks.cpg/sg15_56_cif.got.tgz:110290.got - 2010.06.03 18:47:42.
