data_PCOD9300778
_publ_section_title
;
Structure prediction by ZEFSAII (Michael W. Deem and Ramdas Pophale) SiO2 
 PCOD9300778
Probable space group: C 2/C
;
_chemical_formula_sum "Si O2"
_cell_formula_units_Z 56
_cell_length_a 6.680444
_cell_length_b 27.683578
_cell_length_c 18.057699
_cell_angle_alpha 90.000000
_cell_angle_beta 125.265581
_cell_angle_gamma 90.000000
_cell_volume 2726.703671
_symmetry_space_group_name_H-M "C 2/C"
_symmetry_group_IT_number 15
_symmetry_cell_setting 'monoclinic'
loop_
_space_group_symop_operation_xyz
x,y,z
-x,y,1/2-z
-x,-y,-z
x,-y,1/2+z
1/2+x,1/2+y,z
1/2-x,1/2+y,1/2-z
1/2-x,1/2-y,-z
1/2+x,1/2-y,1/2+z
loop_
_atom_site_type_symbol
_atom_site_label
_atom_site_fract_x
_atom_site_fract_y
_atom_site_fract_z
Si Si1 0.148243 0.063905 0.134761
Si Si2 0.824204 0.253624 0.646388
Si Si3 0.479034 0.335765 0.832446
Si Si4 0.468961 0.806267 0.531365
Si Si5 0.292849 0.400332 0.013990
Si Si6 0.214990 0.456371 0.340187
Si Si7 0.086796 0.452954 0.477500
O O1 0.155124 0.111870 0.186149
O O2 0.227629 0.010475 0.178347
O O3 0.860517 0.058806 0.058713
O O4 0.262538 0.075961 0.078310
O O5 0.683454 0.297483 0.657274
O O6 0.620571 0.219791 0.563027
O O7 0.975507 0.272126 0.606100
O O8 0.000000 0.233116 0.750000
O O9 0.500000 0.325753 0.750000
O O10 0.763250 0.330958 0.920093
O O11 0.248192 0.843656 0.503946
O O12 0.546509 0.423710 0.095739
O O13 0.099283 0.412804 0.036106
O O14 0.096168 0.464121 0.394206
O O15 0.000000 0.430962 0.250000
O O16 0.000000 0.500000 0.500000
#
# Coordination Sequence:
#
# PCOD9300778 Si02
#       7
#     8   8   8   8   8   8   8
#     4  11  22  37  63  94 123 169 219 264 318 379
#     4  11  24  46  69  97 131 167 218 272 333 405
#     4  12  24  40  68 104 133 164 215 277 330 395
#     4  11  24  43  73  94 128 178 214 273 338 386
#     4  11  21  42  65  89 123 172 221 262 316 393
#     4  11  25  39  57  94 136 168 215 277 312 375
#     4  11  19  38  65  82 118 174 215 251 319 378
#
# _framework density 20.537618999999999
#
# number of rings (size 3 to 8) (size 9 to 14) (size 15 to 20)
#    0.000    0.857    7.143    1.286    0.000    3.429 
#    2.571    0.000    0.000    0.000    0.000    0.000 
#    0.000    0.000    0.000    0.000    0.000    0.000 
#
# Total GULP energy -156044.352002 kJ/mol
# GULP energy per Si atom -5573.012571 kJ/mol
# Density = 2.049087 g / cm^3
# Si number density = 20.537619 Si / 1000 Ang^3
#
#
#
# Elastic Constant Matrix: (Units=GPa)
#
#
# Indices 1 2 3 4 5 6 
#
# 1 73.7547 -1.1638 23.1473 0.0000 -5.1272 0.0000
# 2 -1.1638 37.2034 20.5302 0.0000 -3.2181 0.0000
# 3 23.1473 20.5302 101.7935 0.0000 8.5609 0.0000
# 4 0.0000 0.0000 0.0000 8.5212 0.0000 -7.3761
# 5 -5.1272 -3.2181 8.5609 0.0000 16.2037 0.0000
# 6 0.0000 0.0000 0.0000 -7.3761 0.0000 10.4454
#
#
#
# Elastic Compliance Matrix: (Units=1/GPa)
#
#
# Indices 1 2 3 4 5 6 
#
# 1 0.015828 0.004068 -0.005137 0.000000 0.008530 0.000000
# 2 0.004068 0.032808 -0.008579 0.000000 0.012336 0.000000
# 3 -0.005137 -0.008579 0.013607 0.000000 -0.010518 0.000000
# 4 0.000000 0.000000 0.000000 0.301882 0.000000 0.213176
# 5 0.008530 0.012336 -0.010518 0.000000 0.072421 0.000000
# 6 0.000000 0.000000 0.000000 0.213176 0.000000 0.246272
#
#
# Mechanical properties :
#
#
# Convention : Reuss Voigt Hill
#
# Bulk Modulus (GPa) = 23.28529 33.08658 28.18593
# Shear Modulus (GPa) = 6.97906 18.38324 12.68115
#
# Velocity S-wave (km/s) = 1.84542 2.99507 2.48757
# Velocity P-wave (km/s) = 3.98789 5.30149 4.69090
#
# Compressibility (1/GPa) = 0.04294556
#
# Stress axis : x y z
#
# Youngs Moduli (GPa) = 63.17985 30.48049 73.49262
#
# Poissons Ratio (x) = -0.12399 0.37753
# Poissons Ratio (y) = -0.25700 0.63051
# Poissons Ratio (z) = 0.32455 0.26150
#
# Static dielectric constant tensor:
#      x y z
#    x 1.719680 0.000000 0.071260 
#    y 0.000000 1.920840 0.000000 
#    z 0.071260 0.000000 1.636360 
# 
# From -- ./inp_files/186809.got.cif
#   From: 2010.05.17/outbox.cif.g08.bks.cpg/sg15_94_cif.got.tgz:186809.got - 2010.06.03 18:47:42.
