data_PCOD9300672
_publ_section_title
;
Structure prediction by ZEFSAII (Michael W. Deem and Ramdas Pophale) SiO2 
 PCOD9300672
Probable space group: C 2/C
;
_chemical_formula_sum "Si O2"
_cell_formula_units_Z 40
_cell_length_a 9.685013
_cell_length_b 15.538117
_cell_length_c 14.547991
_cell_angle_alpha 90.000000
_cell_angle_beta 91.369162
_cell_angle_gamma 90.000000
_cell_volume 2188.656509
_symmetry_space_group_name_H-M "C 2/C"
_symmetry_group_IT_number 15
_symmetry_cell_setting 'monoclinic'
loop_
_space_group_symop_operation_xyz
x,y,z
-x,y,1/2-z
-x,-y,-z
x,-y,1/2+z
1/2+x,1/2+y,z
1/2-x,1/2+y,1/2-z
1/2-x,1/2-y,-z
1/2+x,1/2-y,1/2+z
loop_
_atom_site_type_symbol
_atom_site_label
_atom_site_fract_x
_atom_site_fract_y
_atom_site_fract_z
Si Si1 0.500000 0.276748 0.250000
Si Si2 0.800330 0.667956 0.752387
Si Si3 0.500000 0.014177 0.750000
Si Si4 0.942286 0.627991 0.396556
Si Si5 0.167502 0.202523 0.417515
Si Si6 0.605402 0.226434 0.546133
O O1 0.363854 0.333050 0.240749
O O2 0.480094 0.212372 0.335774
O O3 0.833497 0.736422 0.672347
O O4 0.859583 0.700206 0.849936
O O5 0.870036 0.576960 0.734767
O O6 0.511577 0.953656 0.661071
O O7 0.774864 0.625247 0.401284
O O8 0.025393 0.648951 0.491306
O O9 0.250000 0.250000 0.500000
O O10 0.009409 0.197022 0.448688
O O11 0.750000 0.250000 0.500000
#
# Coordination Sequence:
#
# PCOD9300672 Si02
#       6
#     4   8   4   8   8   8
#     4   9  18  36  58  79 110 152 192 241 276 338
#     4  11  20  36  59  85 117 154 198 238 293 350
#     4  11  22  38  58  87 120 160 186 241 302 356
#     4   9  20  36  58  83 117 151 190 237 297 341
#     4   9  19  37  58  85 111 153 195 241 279 345
#     4  11  19  34  61  92 111 148 204 248 279 342
#
# _framework density 18.276052
#
# number of rings (size 3 to 8) (size 9 to 14) (size 15 to 20)
#    0.000    2.000    4.000    0.000    0.000    0.800 
#    0.000    2.000    0.000    2.400    0.000    0.000 
#    0.000    0.000    0.000    0.000    0.000    0.000 
#
# Total GULP energy -111390.723340 kJ/mol
# GULP energy per Si atom -5569.536167 kJ/mol
# Density = 1.823445 g / cm^3
# Si number density = 18.276052 Si / 1000 Ang^3
#
#
#
# Elastic Constant Matrix: (Units=GPa)
#
#
# Indices 1 2 3 4 5 6 
#
# 1 187.9772 40.6556 25.0297 0.0000 -9.0421 0.0000
# 2 40.6556 52.3197 13.4434 0.0000 3.4146 0.0000
# 3 25.0297 13.4434 115.7637 0.0000 16.4215 0.0000
# 4 0.0000 0.0000 0.0000 6.8155 0.0000 -6.6604
# 5 -9.0421 3.4146 16.4215 0.0000 32.4284 0.0000
# 6 0.0000 0.0000 0.0000 -6.6604 0.0000 29.7688
#
#
#
# Elastic Compliance Matrix: (Units=1/GPa)
#
#
# Indices 1 2 3 4 5 6 
#
# 1 0.006746 -0.005108 -0.001302 0.000000 0.003078 0.000000
# 2 -0.005108 0.023599 -0.001165 0.000000 -0.003319 0.000000
# 3 -0.001302 -0.001165 0.009793 0.000000 -0.005199 0.000000
# 4 0.000000 0.000000 0.000000 0.187781 0.000000 0.042014
# 5 0.003078 -0.003319 -0.005199 0.000000 0.034678 0.000000
# 6 0.000000 0.000000 0.000000 0.042014 0.000000 0.042992
#
#
# Mechanical properties :
#
#
# Convention : Reuss Voigt Hill
#
# Bulk Modulus (GPa) = 40.02183 57.14645 48.58414
# Shear Modulus (GPa) = 15.19440 32.26468 23.72954
#
# Velocity S-wave (km/s) = 2.88650 4.20623 3.60723
# Velocity P-wave (km/s) = 5.74937 7.41122 6.63255
#
# Compressibility (1/GPa) = 0.02498636
#
# Stress axis : x y z
#
# Youngs Moduli (GPa) = 148.23401 42.37494 102.11751
#
# Poissons Ratio (x) = 0.21647 0.13296
# Poissons Ratio (y) = 0.75725 0.11898
# Poissons Ratio (z) = 0.19300 0.04937
#
# Static dielectric constant tensor:
#      x y z
#    x 1.701890 0.000000 -0.036660 
#    y 0.000000 1.607690 0.000000 
#    z -0.036660 0.000000 1.670290 
# 
# From -- ./inp_files/188472.got.cif
#   From: 2010.05.17/outbox.cif.g08.bks.cpg/sg15_95_cif.got.tgz:188472.got - 2010.06.03 18:47:42.
