data_PCOD9300487
_publ_section_title
;
Structure prediction by ZEFSAII (Michael W. Deem and Ramdas Pophale) SiO2 
 PCOD9300487
Probable space group: C 2/C
;
_chemical_formula_sum "Si O2"
_cell_formula_units_Z 56
_cell_length_a 19.449684
_cell_length_b 17.331456
_cell_length_c 14.001941
_cell_angle_alpha 90.000000
_cell_angle_beta 23.753043
_cell_angle_gamma 90.000000
_cell_volume 1901.166873
_symmetry_space_group_name_H-M "C 2/C"
_symmetry_group_IT_number 15
_symmetry_cell_setting 'monoclinic'
loop_
_space_group_symop_operation_xyz
x,y,z
-x,y,1/2-z
-x,-y,-z
x,-y,1/2+z
1/2+x,1/2+y,z
1/2-x,1/2+y,1/2-z
1/2-x,1/2-y,-z
1/2+x,1/2-y,1/2+z
loop_
_atom_site_type_symbol
_atom_site_label
_atom_site_fract_x
_atom_site_fract_y
_atom_site_fract_z
Si Si1 0.458566 0.121602 0.511150
Si Si2 0.001489 0.143932 0.622896
Si Si3 0.770605 0.941217 0.888382
Si Si4 0.500000 0.804649 0.250000
Si Si5 0.220628 0.241442 0.682935
Si Si6 0.981506 0.173752 0.425221
Si Si7 0.500000 0.938167 0.750000
Si Si8 0.775270 0.010534 0.166413
O O1 0.553900 0.203458 0.404300
O O2 0.618264 0.067784 0.344803
O O3 0.453070 0.109155 0.403481
O O4 0.300599 0.073684 0.761539
O O5 0.121913 0.203324 0.523332
O O6 0.042250 0.153823 0.457236
O O7 0.058077 0.058887 0.578755
O O8 0.812588 0.179549 0.858528
O O9 0.942354 0.905094 0.715135
O O10 0.796721 0.985913 0.754828
O O11 0.652888 0.863459 0.031532
O O12 0.652551 0.004156 0.090576
O O13 0.539529 0.745342 0.286340
O O14 0.212782 0.197474 0.796236
#
# Coordination Sequence:
#
# PCOD9300487 Si02
#       8
#     8   8   8   4   8   8   4   8
#     4   9  15  26  46  68  90 119 158 198 234 267
#     4   8  16  28  44  66  90 122 154 195 236 261
#     4   9  17  27  38  63  91 126 148 187 237 273
#     4  11  16  22  36  60  98 120 153 180 231 288
#     4   9  17  29  47  67  90 122 159 199 228 275
#     4   9  17  25  41  61  95 126 154 185 231 275
#     4   9  18  28  44  68  98 116 151 200 245 266
#     4   8  14  27  43  61  86 121 153 192 225 271
#
# _framework density 29.455594000000001
#
# number of rings (size 3 to 8) (size 9 to 14) (size 15 to 20)
#    0.857    2.286    0.000    3.000    0.000    1.143 
#    0.000    0.000    0.000    4.286    0.000    0.000 
#    0.000    0.000    0.000    0.000    0.000    0.000 
#
# Total GULP energy -156169.450923 kJ/mol
# GULP energy per Si atom -5577.480390 kJ/mol
# Density = 2.938855 g / cm^3
# Si number density = 29.455594 Si / 1000 Ang^3
#
#
#
# Elastic Constant Matrix: (Units=GPa)
#
#
# Indices 1 2 3 4 5 6 
#
# 1 109.4579 12.1260 27.8519 0.0001 11.2576 -0.0026
# 2 12.1260 194.8484 13.8942 0.0006 -7.4681 -0.0026
# 3 27.8519 13.8942 107.1601 0.0045 -3.1805 -0.0065
# 4 0.0001 0.0006 0.0045 36.6479 0.0002 -7.5895
# 5 11.2576 -7.4681 -3.1805 0.0002 46.1350 0.0048
# 6 -0.0026 -0.0026 -0.0065 -7.5895 0.0048 -3.5880
#
#
#
# Elastic Compliance Matrix: (Units=1/GPa)
#
#
# Indices 1 2 3 4 5 6 
#
# 1 0.010154 -0.000548 -0.002650 -0.000001 -0.002749 -0.000005
# 2 -0.000548 0.005239 -0.000509 0.000000 0.000947 -0.000001
# 3 -0.002650 -0.000509 0.010124 -0.000003 0.001262 -0.000008
# 4 -0.000001 0.000000 -0.000003 0.018975 0.000004 -0.040136
# 5 -0.002749 0.000947 0.001262 0.000004 0.022587 0.000021
# 6 -0.000005 -0.000001 -0.000008 -0.040136 0.000021 -0.193808
#
#
# Mechanical properties :
#
#
# Convention : Reuss Voigt Hill
#
# Bulk Modulus (GPa) = 55.23830 57.69005 56.46418
# Shear Modulus (GPa) = -44.13745 39.67860 -2.22942
#
# Velocity S-wave (km/s) = -3.87517 3.67422 -0.87093
# Velocity P-wave (km/s) = 1.10851 6.13415 4.26609
#
# Compressibility (1/GPa) = 0.01810338
#
# Stress axis : x y z
#
# Youngs Moduli (GPa) = 98.48738 190.88055 98.77643
#
# Poissons Ratio (x) = 0.10466 0.26171
# Poissons Ratio (y) = 0.05400 0.05024
# Poissons Ratio (z) = 0.26094 0.09709
#
# Static dielectric constant tensor:
#      x y z
#    x 2.371400 0.000000 -0.179690 
#    y 0.000000 2.356610 0.000000 
#    z -0.179690 0.000000 2.815970 
# 
# From -- ./inp_files/216410.got.cif
#   From: 2010.05.17/outbox.cif.g08.bks.cpg/sg15_109_cif.got.tgz:216410.got - 2010.06.03 18:47:42.
