data_PCOD9300426
_publ_section_title
;
Structure prediction by ZEFSAII (Michael W. Deem and Ramdas Pophale) SiO2 
 PCOD9300426
Probable space group: C 2/C
;
_chemical_formula_sum "Si O2"
_cell_formula_units_Z 60
_cell_length_a 8.619806
_cell_length_b 27.418796
_cell_length_c 12.484857
_cell_angle_alpha 90.000000
_cell_angle_beta 113.107956
_cell_angle_gamma 90.000000
_cell_volume 2713.983933
_symmetry_space_group_name_H-M "C 2/C"
_symmetry_group_IT_number 15
_symmetry_cell_setting 'monoclinic'
loop_
_space_group_symop_operation_xyz
x,y,z
-x,y,1/2-z
-x,-y,-z
x,-y,1/2+z
1/2+x,1/2+y,z
1/2-x,1/2+y,1/2-z
1/2-x,1/2-y,-z
1/2+x,1/2-y,1/2+z
loop_
_atom_site_type_symbol
_atom_site_label
_atom_site_fract_x
_atom_site_fract_y
_atom_site_fract_z
Si Si1 0.164524 0.006526 0.118766
Si Si2 0.421652 0.934000 0.112483
Si Si3 0.203862 0.120136 0.140201
Si Si4 0.797304 0.802022 0.694413
Si Si5 0.813031 0.199508 0.747838
Si Si6 0.202717 0.617201 0.567482
Si Si7 0.175231 0.154138 0.514167
Si Si8 0.000000 0.940705 0.250000
O O1 0.190374 0.062553 0.155560
O O2 0.328480 0.985499 0.102290
O O3 0.123051 0.973642 0.211206
O O4 0.000000 0.000000 0.000000
O O5 0.500000 0.921839 0.250000
O O6 0.567811 0.922921 0.067909
O O7 0.276491 0.896032 0.043283
O O8 0.263201 0.150050 0.258718
O O9 0.308538 0.128525 0.060371
O O10 0.017390 0.141098 0.064617
O O11 0.738020 0.754982 0.743470
O O12 0.752259 0.809766 0.557506
O O13 0.000000 0.799624 0.750000
O O14 0.697282 0.166087 0.638735
O O15 0.811982 0.175711 0.864538
O O16 0.000000 0.198598 0.750000
O O17 0.384996 0.592886 0.642804
#
# Coordination Sequence:
#
# PCOD9300426 Si02
#       8
#     8   8   8   8   8   8   8   4
#     4  12  24  42  72 100 141 187 231 284 357 427
#     4  12  24  41  70 108 141 177 234 293 348 408
#     4  11  24  48  68 101 141 187 237 285 355 432
#     4  10  27  45  68 102 141 188 236 289 363 429
#     4  12  23  42  72 101 138 185 236 295 364 422
#     4  12  23  42  71 105 139 178 236 299 343 422
#     4  11  22  46  71  99 141 180 237 295 348 427
#     4  12  22  42  72 102 134 186 234 286 354 426
#
# _framework density 22.107721999999999
#
# number of rings (size 3 to 8) (size 9 to 14) (size 15 to 20)
#    0.000    0.533    7.333    0.400    4.667    2.133 
#    0.000    2.000    0.000    0.000    0.000    0.000 
#    0.000    0.000    0.000    0.000    0.000    0.000 
#
# Total GULP energy -167837.750558 kJ/mol
# GULP energy per Si atom -5594.591685 kJ/mol
# Density = 2.205740 g / cm^3
# Si number density = 22.107722 Si / 1000 Ang^3
#
#
#
# Elastic Constant Matrix: (Units=GPa)
#
#
# Indices 1 2 3 4 5 6 
#
# 1 89.4243 31.0154 27.0603 0.0000 -22.4064 0.0000
# 2 31.0154 140.7877 10.5641 0.0000 -25.1014 0.0000
# 3 27.0603 10.5641 59.0942 0.0000 -29.8583 0.0000
# 4 0.0000 0.0000 0.0000 12.4859 0.0000 1.1453
# 5 -22.4064 -25.1014 -29.8583 0.0000 27.3182 0.0000
# 6 0.0000 0.0000 0.0000 1.1453 0.0000 23.0183
#
#
#
# Elastic Compliance Matrix: (Units=1/GPa)
#
#
# Indices 1 2 3 4 5 6 
#
# 1 0.014402 -0.001625 -0.002435 0.000000 0.007658 0.000000
# 2 -0.001625 0.009532 0.006236 0.000000 0.014242 0.000000
# 3 -0.002435 0.006236 0.042006 0.000000 0.049645 0.000000
# 4 0.000000 0.000000 0.000000 0.080457 0.000000 -0.004003
# 5 0.007658 0.014242 0.049645 0.000000 0.110234 0.000000
# 6 0.000000 0.000000 0.000000 -0.004003 0.000000 0.043643
#
#
# Mechanical properties :
#
#
# Convention : Reuss Voigt Hill
#
# Bulk Modulus (GPa) = 14.22632 47.39844 30.81238
# Shear Modulus (GPa) = 15.65669 27.27556 21.46613
#
# Velocity S-wave (km/s) = 2.66409 3.51630 3.11943
# Velocity P-wave (km/s) = 3.98900 6.16215 5.19058
#
# Compressibility (1/GPa) = 0.07029223
#
# Stress axis : x y z
#
# Youngs Moduli (GPa) = 69.43566 104.90917 23.80605
#
# Poissons Ratio (x) = 0.17044 0.05797
# Poissons Ratio (y) = 0.11280 -0.14845
# Poissons Ratio (z) = 0.16908 -0.65418
#
# Static dielectric constant tensor:
#      x y z
#    x 1.821970 0.000000 -0.015500 
#    y 0.000000 1.811050 0.000000 
#    z -0.015500 0.000000 1.816760 
# 
# From -- ./inp_files/82658.got.cif
#   From: 2010.05.17/outbox.cif.g08.bks.cpg/sg15_42_cif.got.tgz:82658.got - 2010.06.03 18:47:42.
