data_PCOD9300076
_publ_section_title
;
Structure prediction by ZEFSAII (Michael W. Deem and Ramdas Pophale) SiO2 
 PCOD9300076
Probable space group: C 2/C
;
_chemical_formula_sum "Si O2"
_cell_formula_units_Z 44
_cell_length_a 12.555494
_cell_length_b 23.942569
_cell_length_c 8.354959
_cell_angle_alpha 90.000000
_cell_angle_beta 120.087692
_cell_angle_gamma 90.000000
_cell_volume 2173.176837
_symmetry_space_group_name_H-M "C 2/C"
_symmetry_group_IT_number 15
_symmetry_cell_setting 'monoclinic'
loop_
_space_group_symop_operation_xyz
x,y,z
-x,y,1/2-z
-x,-y,-z
x,-y,1/2+z
1/2+x,1/2+y,z
1/2-x,1/2+y,1/2-z
1/2-x,1/2-y,-z
1/2+x,1/2-y,1/2+z
loop_
_atom_site_type_symbol
_atom_site_label
_atom_site_fract_x
_atom_site_fract_y
_atom_site_fract_z
Si Si1 0.825929 0.864674 0.310026
Si Si2 0.500000 0.145018 0.250000
Si Si3 0.239273 0.910530 0.580377
Si Si4 0.083769 0.703563 0.650654
Si Si5 0.899670 0.025128 0.041159
Si Si6 0.068907 0.169105 0.132854
O O1 0.709014 0.829812 0.276558
O O2 0.835615 0.921093 0.420120
O O3 0.955546 0.834570 0.425500
O O4 0.808159 0.879909 0.113438
O O5 0.617560 0.105410 0.302180
O O6 0.527727 0.180280 0.437069
O O7 0.166020 0.879820 0.668921
O O8 0.199960 0.974941 0.520231
O O9 0.120523 0.768539 0.659484
O O10 0.000000 0.698691 0.750000
O O11 0.000000 0.040785 0.250000
O O12 0.000000 0.000000 0.000000
O O13 0.000000 0.164059 0.250000
#
# Coordination Sequence:
#
# PCOD9300076 Si02
#       6
#     8   4   8   8   8   8
#     4  11  24  42  66  99 129 176 217 272 337 378
#     4  10  26  44  68  92 136 192 206 274 338 386
#     4  11  24  44  64 100 135 167 230 264 329 409
#     4  10  26  44  64  99 137 176 226 267 325 412
#     4  12  22  40  68  96 127 164 216 279 323 378
#     4  11  24  38  69  99 130 173 218 281 328 380
#
# _framework density 20.246856999999999
#
# number of rings (size 3 to 8) (size 9 to 14) (size 15 to 20)
#    0.000    1.091    3.636    1.091    7.636    2.909 
#    1.636    1.818    0.000    0.000    0.000    0.000 
#    0.000    0.000    0.000    0.000    0.000    0.000 
#
# Total GULP energy -122641.943904 kJ/mol
# GULP energy per Si atom -5574.633814 kJ/mol
# Density = 2.020077 g / cm^3
# Si number density = 20.246857 Si / 1000 Ang^3
#
#
#
# Elastic Constant Matrix: (Units=GPa)
#
#
# Indices 1 2 3 4 5 6 
#
# 1 96.7199 52.0899 40.2262 0.0000 7.7816 0.0000
# 2 52.0899 141.1706 26.3432 0.0000 15.8002 0.0000
# 3 40.2262 26.3432 67.6464 0.0000 13.4240 0.0000
# 4 0.0000 0.0000 0.0000 34.9997 0.0000 7.3565
# 5 7.7816 15.8002 13.4240 0.0000 27.7091 0.0000
# 6 0.0000 0.0000 0.0000 7.3565 0.0000 31.1976
#
#
#
# Elastic Compliance Matrix: (Units=1/GPa)
#
#
# Indices 1 2 3 4 5 6 
#
# 1 0.016063 -0.004638 -0.008160 0.000000 0.002087 0.000000
# 2 -0.004638 0.009247 -0.000061 0.000000 -0.003941 0.000000
# 3 -0.008160 -0.000061 0.021239 0.000000 -0.007963 0.000000
# 4 0.000000 0.000000 0.000000 0.030062 0.000000 -0.007089
# 5 0.002087 -0.003941 -0.007963 0.000000 0.041608 0.000000
# 6 0.000000 0.000000 0.000000 -0.007089 0.000000 0.033725
#
#
# Mechanical properties :
#
#
# Convention : Reuss Voigt Hill
#
# Bulk Modulus (GPa) = 48.00411 60.31727 54.16069
# Shear Modulus (GPa) = 27.08476 31.23979 29.16227
#
# Velocity S-wave (km/s) = 3.66146 3.93230 3.79929
# Velocity P-wave (km/s) = 6.45259 7.10443 6.78634
#
# Compressibility (1/GPa) = 0.02083155
#
# Stress axis : x y z
#
# Youngs Moduli (GPa) = 62.25610 108.13836 47.08309
#
# Poissons Ratio (x) = 0.50152 0.38419
# Poissons Ratio (y) = 0.28873 0.00288
# Poissons Ratio (z) = 0.50800 0.00662
#
# Static dielectric constant tensor:
#      x y z
#    x 1.729690 0.000000 -0.034150 
#    y 0.000000 1.766170 0.000000 
#    z -0.034150 0.000000 1.728360 
# 
# From -- ./inp_files/32717.got.cif
#   From: 2010.05.17/outbox.cif.g08.bks.cpg/sg15_17_cif.got.tgz:32717.got - 2010.06.03 18:47:42.
