data_PCOD9300488
_publ_section_title
;
Structure prediction by ZEFSAII (Michael W. Deem and Ramdas Pophale) SiO2 
 PCOD9300488
Probable space group: C 2/C
;
_chemical_formula_sum "Si O2"
_cell_formula_units_Z 64
_cell_length_a 29.584644
_cell_length_b 16.041690
_cell_length_c 8.074093
_cell_angle_alpha 90.000000
_cell_angle_beta 99.599553
_cell_angle_gamma 90.000000
_cell_volume 3778.208816
_symmetry_space_group_name_H-M "C 2/C"
_symmetry_group_IT_number 15
_symmetry_cell_setting 'monoclinic'
loop_
_space_group_symop_operation_xyz
x,y,z
-x,y,1/2-z
-x,-y,-z
x,-y,1/2+z
1/2+x,1/2+y,z
1/2-x,1/2+y,1/2-z
1/2-x,1/2-y,-z
1/2+x,1/2-y,1/2+z
loop_
_atom_site_type_symbol
_atom_site_label
_atom_site_fract_x
_atom_site_fract_y
_atom_site_fract_z
Si Si1 0.829162 0.816062 0.714380
Si Si2 0.697342 0.719134 0.771505
Si Si3 0.400810 0.574194 0.088948
Si Si4 0.672924 0.572720 0.952559
Si Si5 0.964733 0.961259 0.350055
Si Si6 0.723433 0.024227 0.425573
Si Si7 0.774762 0.633993 0.408499
Si Si8 0.696269 0.172702 0.600588
O O1 0.871153 0.847994 0.631374
O O2 0.778478 0.837820 0.611816
O O3 0.831742 0.720628 0.775964
O O4 0.830628 0.871421 0.884525
O O5 0.670592 0.633023 0.789494
O O6 0.695807 0.783533 0.617530
O O7 0.750651 0.692818 0.822299
O O8 0.687189 0.775781 0.925553
O O9 0.364715 0.498087 0.058376
O O10 0.438119 0.536603 0.240928
O O11 0.427297 0.587845 0.933255
O O12 0.723390 0.532252 0.985910
O O13 0.000000 0.086050 0.750000
O O14 0.000000 0.000000 0.500000
O O15 0.721472 0.072982 0.250355
O O16 0.693807 0.077972 0.538593
O O17 0.712471 0.926427 0.431894
#
# Coordination Sequence:
#
# PCOD9300488 Si02
#       8
#     8   8   8   8   8   8   8   8
#     4   9  15  23  37  57  71  91 133 167 184 208
#     4   7  12  22  34  48  70  98 125 159 190 213
#     4  11  16  26  44  58  70  98 126 162 184 211
#     4   9  15  23  37  57  71  91 133 167 184 209
#     4   9  20  32  40  54  76  94 118 148 194 247
#     4   9  15  23  36  51  73 100 130 162 191 216
#     4   9  15  23  36  51  73 100 130 162 191 217
#     4   7  12  22  34  48  70  98 125 159 190 212
#
# _framework density 16.939243000000001
#
# number of rings (size 3 to 8) (size 9 to 14) (size 15 to 20)
#    0.000    3.250    2.500    3.000    0.000    0.000 
#    0.000    0.000    2.750    2.250    0.000    0.000 
#    0.000    0.000    0.000    0.000    0.000   25.000 
#
# Total GULP energy -178235.200016 kJ/mol
# GULP energy per Si atom -5569.850001 kJ/mol
# Density = 1.690069 g / cm^3
# Si number density = 16.939243 Si / 1000 Ang^3
#
#
#
# Elastic Constant Matrix: (Units=GPa)
#
#
# Indices 1 2 3 4 5 6 
#
# 1 88.3675 34.6978 22.5733 0.0000 -27.6557 0.0000
# 2 34.6978 82.3181 21.8748 0.0000 -16.1630 0.0000
# 3 22.5733 21.8748 48.9867 0.0000 -16.2537 0.0000
# 4 0.0000 0.0000 0.0000 26.4282 0.0000 -10.1320
# 5 -27.6557 -16.1630 -16.2537 0.0000 31.9423 0.0000
# 6 0.0000 0.0000 0.0000 -10.1320 0.0000 16.8179
#
#
#
# Elastic Compliance Matrix: (Units=1/GPa)
#
#
# Indices 1 2 3 4 5 6 
#
# 1 0.017222 -0.004420 -0.002114 0.000000 0.011598 0.000000
# 2 -0.004420 0.015510 -0.004277 0.000000 0.001845 0.000000
# 3 -0.002114 -0.004277 0.026436 0.000000 0.009457 0.000000
# 4 0.000000 0.000000 0.000000 0.049203 0.000000 0.029642
# 5 0.011598 0.001845 0.009457 0.000000 0.047094 0.000000
# 6 0.000000 0.000000 0.000000 0.029642 0.000000 0.077319
#
#
# Mechanical properties :
#
#
# Convention : Reuss Voigt Hill
#
# Bulk Modulus (GPa) = 26.63428 41.99602 34.31515
# Shear Modulus (GPa) = 18.73222 24.40610 21.56916
#
# Velocity S-wave (km/s) = 3.32904 3.79991 3.57224
# Velocity P-wave (km/s) = 5.52578 6.64066 6.10871
#
# Compressibility (1/GPa) = 0.03754560
#
# Stress axis : x y z
#
# Youngs Moduli (GPa) = 58.06607 64.47505 37.82784
#
# Poissons Ratio (x) = 0.28499 0.07996
# Poissons Ratio (y) = 0.25666 0.16179
# Poissons Ratio (z) = 0.12274 0.27576
#
# Static dielectric constant tensor:
#      x y z
#    x 1.568470 0.000000 -0.063490 
#    y 0.000000 1.608670 0.000000 
#    z -0.063490 0.000000 1.706830 
# 
# From -- ./inp_files/70322.got.cif
#   From: 2010.05.17/outbox.cif.g08.bks.cpg/sg15_36_cif.got.tgz:70322.got - 2010.06.03 18:47:42.
