data_PCOD9300675
_publ_section_title
;
Structure prediction by ZEFSAII (Michael W. Deem and Ramdas Pophale) SiO2 
 PCOD9300675
Probable space group: C 2/C
;
_chemical_formula_sum "Si O2"
_cell_formula_units_Z 48
_cell_length_a 11.097548
_cell_length_b 16.800108
_cell_length_c 21.495369
_cell_angle_alpha 90.000000
_cell_angle_beta 147.609707
_cell_angle_gamma 90.000000
_cell_volume 2146.804398
_symmetry_space_group_name_H-M "C 2/C"
_symmetry_group_IT_number 15
_symmetry_cell_setting 'monoclinic'
loop_
_space_group_symop_operation_xyz
x,y,z
-x,y,1/2-z
-x,-y,-z
x,-y,1/2+z
1/2+x,1/2+y,z
1/2-x,1/2+y,1/2-z
1/2-x,1/2-y,-z
1/2+x,1/2-y,1/2+z
loop_
_atom_site_type_symbol
_atom_site_label
_atom_site_fract_x
_atom_site_fract_y
_atom_site_fract_z
Si Si1 0.620254 0.267146 0.528046
Si Si2 0.487455 0.127781 0.319241
Si Si3 0.693144 0.691402 0.285855
Si Si4 0.995958 0.454508 0.347782
Si Si5 0.140746 0.931083 0.094109
Si Si6 0.007401 0.293683 0.398813
O O1 0.867814 0.290097 0.610539
O O2 0.435417 0.204126 0.423239
O O3 0.502991 0.351883 0.466119
O O4 0.631808 0.244510 0.605452
O O5 0.500000 0.111414 0.250000
O O6 0.247910 0.138402 0.249124
O O7 0.571703 0.046016 0.388689
O O8 0.500000 0.665501 0.250000
O O9 0.609626 0.773038 0.217789
O O10 0.161874 0.417446 0.369111
O O11 0.752090 0.455876 0.208002
O O12 0.010926 0.389096 0.408221
O O13 0.000000 0.000000 0.000000
O O14 0.250000 0.250000 0.500000
#
# Coordination Sequence:
#
# PCOD9300675 Si02
#       6
#     8   8   8   8   8   8
#     4  12  23  42  66 100 135 178 224 291 346 405
#     4  12  24  42  70 102 135 172 234 291 343 403
#     4  12  25  44  68  97 135 184 229 278 348 427
#     4  11  22  37  60 106 133 170 227 286 337 415
#     4  11  19  34  63  94 134 164 222 291 341 382
#     4  12  23  37  69  99 135 178 230 279 347 412
#
# _framework density 22.358813999999999
#
# number of rings (size 3 to 8) (size 9 to 14) (size 15 to 20)
#    0.000    0.333   10.000    0.500    0.000    0.000 
#    0.000    0.833    3.667    0.000    0.000    0.000 
#    0.000    0.000    0.000    0.000    0.000    0.000 
#
# Total GULP energy -133748.162858 kJ/mol
# GULP energy per Si atom -5572.840119 kJ/mol
# Density = 2.230792 g / cm^3
# Si number density = 22.358814 Si / 1000 Ang^3
#
#
#
# Elastic Constant Matrix: (Units=GPa)
#
#
# Indices 1 2 3 4 5 6 
#
# 1 141.1680 34.6270 21.4079 0.0000 23.4471 0.0000
# 2 34.6270 88.3293 10.2833 0.0000 4.3306 0.0000
# 3 21.4079 10.2833 71.8220 -0.0005 -2.5439 -0.0001
# 4 0.0000 0.0000 -0.0005 36.1670 -0.0001 1.3477
# 5 23.4471 4.3306 -2.5439 -0.0001 27.6155 -0.0001
# 6 0.0000 0.0000 -0.0001 1.3477 -0.0001 29.1442
#
#
#
# Elastic Compliance Matrix: (Units=1/GPa)
#
#
# Indices 1 2 3 4 5 6 
#
# 1 0.009546 -0.003043 -0.002689 0.000000 -0.007876 0.000000
# 2 -0.003043 0.012590 -0.000877 0.000000 0.000529 0.000000
# 3 -0.002689 -0.000877 0.014985 0.000000 0.003801 0.000000
# 4 0.000000 0.000000 0.000000 0.027697 0.000000 -0.001281
# 5 -0.007876 0.000529 0.003801 0.000000 0.043166 0.000000
# 6 0.000000 0.000000 0.000000 -0.001281 0.000000 0.034371
#
#
# Mechanical properties :
#
#
# Convention : Reuss Voigt Hill
#
# Bulk Modulus (GPa) = 41.83390 48.21733 45.02562
# Shear Modulus (GPa) = 30.57342 34.25206 32.41274
#
# Velocity S-wave (km/s) = 3.70185 3.91823 3.81157
# Velocity P-wave (km/s) = 6.08461 6.48707 6.28906
#
# Compressibility (1/GPa) = 0.02390406
#
# Stress axis : x y z
#
# Youngs Moduli (GPa) = 104.75590 79.42552 66.73393
#
# Poissons Ratio (x) = 0.24170 0.17942
# Poissons Ratio (y) = 0.31878 0.05852
# Poissons Ratio (z) = 0.28165 0.06965
#
# Static dielectric constant tensor:
#      x y z
#    x 1.853180 0.000000 0.001970 
#    y 0.000000 1.883860 0.000000 
#    z 0.001970 0.000000 2.030590 
# 
# From -- ./inp_files/270664.got.cif
#   From: 2010.05.17/outbox.cif.g08.bks.cpg/sg15_136_cif.got.tgz:270664.got - 2010.06.03 18:47:42.
