data_PCOD9300568
_publ_section_title
;
Structure prediction by ZEFSAII (Michael W. Deem and Ramdas Pophale) SiO2 
 PCOD9300568
Probable space group: C 2/C
;
_chemical_formula_sum "Si O2"
_cell_formula_units_Z 52
_cell_length_a 10.627269
_cell_length_b 20.333958
_cell_length_c 13.612408
_cell_angle_alpha 90.000000
_cell_angle_beta 56.135087
_cell_angle_gamma 90.000000
_cell_volume 2442.539918
_symmetry_space_group_name_H-M "C 2/C"
_symmetry_group_IT_number 15
_symmetry_cell_setting 'monoclinic'
loop_
_space_group_symop_operation_xyz
x,y,z
-x,y,1/2-z
-x,-y,-z
x,-y,1/2+z
1/2+x,1/2+y,z
1/2-x,1/2+y,1/2-z
1/2-x,1/2-y,-z
1/2+x,1/2-y,1/2+z
loop_
_atom_site_type_symbol
_atom_site_label
_atom_site_fract_x
_atom_site_fract_y
_atom_site_fract_z
Si Si1 0.969673 0.421662 0.016599
Si Si2 0.544664 0.360240 0.882073
Si Si3 0.000000 0.241223 0.250000
Si Si4 0.811953 0.349883 0.445471
Si Si5 0.201431 0.547374 0.713042
Si Si6 0.015612 0.011193 0.633424
Si Si7 0.284607 0.923401 0.908288
O O1 0.854096 0.421553 0.160381
O O2 0.113195 0.377061 0.986355
O O3 0.902360 0.400444 0.940147
O O4 0.000000 0.500000 0.000000
O O5 0.594864 0.307706 0.778692
O O6 0.524311 0.434462 0.851067
O O7 0.671906 0.368888 0.911039
O O8 0.369271 0.340701 0.979344
O O9 0.102629 0.287302 0.136580
O O10 0.849869 0.408954 0.354492
O O11 0.383942 0.547326 0.631842
O O12 0.160034 0.471381 0.704760
O O13 0.000000 0.035191 0.750000
O O14 0.176155 0.028295 0.519293
#
# Coordination Sequence:
#
# PCOD9300568 Si02
#       7
#     8   8   4   8   8   8   8
#     4  12  23  36  61  96 132 164 201 265 327 384
#     4  11  23  42  61  91 121 167 223 259 308 382
#     4  12  26  42  66  88 128 178 220 270 304 388
#     4  12  23  41  63  89 126 168 218 258 318 383
#     4  11  20  36  60  91 128 160 203 256 325 382
#     4  11  18  34  64  94 126 155 199 266 327 371
#     4  11  22  38  64  97 128 162 202 272 330 376
#
# _framework density 21.289314999999998
#
# number of rings (size 3 to 8) (size 9 to 14) (size 15 to 20)
#    0.000    0.615    8.462    1.385    0.000    0.000 
#    0.000    0.769    0.000    1.846    0.000    0.000 
#    0.000    0.000    0.000    0.000    0.000    0.000 
#
# Total GULP energy -145070.364133 kJ/mol
# GULP energy per Si atom -5579.629390 kJ/mol
# Density = 2.124086 g / cm^3
# Si number density = 21.289315 Si / 1000 Ang^3
#
#
#
# Elastic Constant Matrix: (Units=GPa)
#
#
# Indices 1 2 3 4 5 6 
#
# 1 155.0003 49.2000 32.0159 0.0000 29.9532 0.0000
# 2 49.2000 90.4910 15.0648 0.0000 10.7374 0.0000
# 3 32.0159 15.0648 47.7220 0.0000 12.2796 0.0000
# 4 0.0000 0.0000 0.0000 32.1910 0.0000 7.5536
# 5 29.9532 10.7374 12.2796 0.0000 41.5344 0.0000
# 6 0.0000 0.0000 0.0000 7.5536 0.0000 19.9150
#
#
#
# Elastic Compliance Matrix: (Units=1/GPa)
#
#
# Indices 1 2 3 4 5 6 
#
# 1 0.009384 -0.003910 -0.003875 0.000000 -0.004611 0.000000
# 2 -0.003910 0.013462 -0.001577 0.000000 -0.000194 0.000000
# 3 -0.003875 -0.001577 0.025141 0.000000 -0.004231 0.000000
# 4 0.000000 0.000000 0.000000 0.034099 0.000000 -0.012934
# 5 -0.004611 -0.000194 -0.004231 0.000000 0.028703 0.000000
# 6 0.000000 0.000000 0.000000 -0.012934 0.000000 0.055119
#
#
# Mechanical properties :
#
#
# Convention : Reuss Voigt Hill
#
# Bulk Modulus (GPa) = 34.17151 53.97498 44.07324
# Shear Modulus (GPa) = 25.72204 31.85692 28.78948
#
# Velocity S-wave (km/s) = 3.47971 3.87250 3.68135
# Velocity P-wave (km/s) = 5.67718 6.73819 6.23031
#
# Compressibility (1/GPa) = 0.02926415
#
# Stress axis : x y z
#
# Youngs Moduli (GPa) = 106.56273 74.28214 39.77628
#
# Poissons Ratio (x) = 0.29044 0.15413
# Poissons Ratio (y) = 0.41665 0.06271
# Poissons Ratio (z) = 0.41292 0.11711
#
# Static dielectric constant tensor:
#      x y z
#    x 1.858440 0.000000 -0.011910 
#    y 0.000000 1.752840 0.000000 
#    z -0.011910 0.000000 1.859880 
# 
# From -- ./inp_files/146640.got.cif
#   From: 2010.05.17/outbox.cif.g08.bks.cpg/sg15_74_cif.got.tgz:146640.got - 2010.06.03 18:47:42.
