data_PCOD9300314
_publ_section_title
;
Structure prediction by ZEFSAII (Michael W. Deem and Ramdas Pophale) SiO2 
 PCOD9300314
Probable space group: C 2/C
;
_chemical_formula_sum "Si O2"
_cell_formula_units_Z 36
_cell_length_a 11.648479
_cell_length_b 9.037043
_cell_length_c 21.248913
_cell_angle_alpha 90.000000
_cell_angle_beta 142.635043
_cell_angle_gamma 90.000000
_cell_volume 1357.507264
_symmetry_space_group_name_H-M "C 2/C"
_symmetry_group_IT_number 15
_symmetry_cell_setting 'monoclinic'
loop_
_space_group_symop_operation_xyz
x,y,z
-x,y,1/2-z
-x,-y,-z
x,-y,1/2+z
1/2+x,1/2+y,z
1/2-x,1/2+y,1/2-z
1/2-x,1/2-y,-z
1/2+x,1/2-y,1/2+z
loop_
_atom_site_type_symbol
_atom_site_label
_atom_site_fract_x
_atom_site_fract_y
_atom_site_fract_z
Si Si1 0.822428 0.413132 0.797542
Si Si2 0.107029 0.648490 0.979422
Si Si3 0.592587 0.556815 0.873950
Si Si4 0.000000 0.678088 0.250000
Si Si5 0.990292 0.846968 0.036046
O O1 0.608596 0.472420 0.713578
O O2 0.863524 0.403394 0.739680
O O3 0.967906 0.540171 0.882230
O O4 0.869733 0.256345 0.854963
O O5 0.250000 0.750000 0.000000
O O6 0.250585 0.551876 0.083317
O O7 0.984828 0.739277 0.974866
O O8 0.600853 0.707268 0.840046
O O9 0.648209 0.596868 0.969559
O O10 0.000000 0.000000 0.000000
#
# Coordination Sequence:
#
# PCOD9300314 Si02
#       5
#     8   8   8   4   8
#     4  11  28  48  78 108 154 199 249 317 376 449
#     4  12  27  47  77 111 150 201 252 307 382 453
#     4  11  26  49  76 111 156 195 250 316 374 453
#     4  10  26  48  76 108 150 194 258 298 390 434
#     4  11  25  47  76 108 151 196 257 307 379 447
#
# _framework density 26.519196000000001
#
# number of rings (size 3 to 8) (size 9 to 14) (size 15 to 20)
#    0.000    0.889    2.222    2.000    9.333    7.111 
#    0.000    0.000    0.000    0.000    0.000    0.000 
#    0.000    0.000    0.000    0.000    0.000    0.000 
#
# Total GULP energy -100447.190615 kJ/mol
# GULP energy per Si atom -5580.399479 kJ/mol
# Density = 2.645884 g / cm^3
# Si number density = 26.519196 Si / 1000 Ang^3
#
#
#
# Elastic Constant Matrix: (Units=GPa)
#
#
# Indices 1 2 3 4 5 6 
#
# 1 157.7311 72.8414 82.5336 0.0000 4.6054 0.0000
# 2 72.8414 156.8132 73.7464 0.0000 6.8146 0.0000
# 3 82.5336 73.7464 123.1325 0.0000 -19.1018 0.0000
# 4 0.0000 0.0000 0.0000 59.9667 0.0000 -15.6946
# 5 4.6054 6.8146 -19.1018 0.0000 67.3504 0.0000
# 6 0.0000 0.0000 0.0000 -15.6946 0.0000 55.6953
#
#
#
# Elastic Compliance Matrix: (Units=1/GPa)
#
#
# Indices 1 2 3 4 5 6 
#
# 1 0.010579 -0.001819 -0.006365 0.000000 -0.002345 0.000000
# 2 -0.001819 0.009618 -0.004888 0.000000 -0.002235 0.000000
# 3 -0.006365 -0.004888 0.016171 0.000000 0.005516 0.000000
# 4 0.000000 0.000000 0.000000 0.018004 0.000000 0.005073
# 5 -0.002345 -0.002235 0.005516 0.000000 0.016799 0.000000
# 6 0.000000 0.000000 0.000000 0.005073 0.000000 0.019384
#
#
# Mechanical properties :
#
#
# Convention : Reuss Voigt Hill
#
# Bulk Modulus (GPa) = 97.81063 99.54662 98.67862
# Shear Modulus (GPa) = 41.62971 50.50617 46.06794
#
# Velocity S-wave (km/s) = 3.96636 4.36881 4.17244
# Velocity P-wave (km/s) = 7.61177 7.94152 7.77839
#
# Compressibility (1/GPa) = 0.01022384
#
# Stress axis : x y z
#
# Youngs Moduli (GPa) = 94.52724 103.97612 61.83832
#
# Poissons Ratio (x) = 0.18909 0.39363
# Poissons Ratio (y) = 0.17191 0.30226
# Poissons Ratio (z) = 0.60171 0.50823
#
# Static dielectric constant tensor:
#      x y z
#    x 2.027170 0.000000 0.125630 
#    y 0.000000 2.125240 0.000000 
#    z 0.125630 0.000000 3.520890 
# 
# From -- ./inp_files/235546.got.cif
#   From: 2010.05.17/outbox.cif.g08.bks.cpg/sg15_118_cif.got.tgz:235546.got - 2010.06.03 18:47:42.
