data_PCOD9300609
_publ_section_title
;
Structure prediction by ZEFSAII (Michael W. Deem and Ramdas Pophale) SiO2 
 PCOD9300609
Probable space group: C 2/C
;
_chemical_formula_sum "Si O2"
_cell_formula_units_Z 52
_cell_length_a 18.624741
_cell_length_b 8.752953
_cell_length_c 25.692692
_cell_angle_alpha 90.000000
_cell_angle_beta 32.234508
_cell_angle_gamma 90.000000
_cell_volume 2234.065580
_symmetry_space_group_name_H-M "C 2/C"
_symmetry_group_IT_number 15
_symmetry_cell_setting 'monoclinic'
loop_
_space_group_symop_operation_xyz
x,y,z
-x,y,1/2-z
-x,-y,-z
x,-y,1/2+z
1/2+x,1/2+y,z
1/2-x,1/2+y,1/2-z
1/2-x,1/2-y,-z
1/2+x,1/2-y,1/2+z
loop_
_atom_site_type_symbol
_atom_site_label
_atom_site_fract_x
_atom_site_fract_y
_atom_site_fract_z
Si Si1 0.652046 0.538677 0.060191
Si Si2 0.456917 0.019978 0.888030
Si Si3 0.500000 0.312750 0.750000
Si Si4 0.850978 0.925847 0.550831
Si Si5 0.463601 0.145709 0.057653
Si Si6 0.704031 0.820817 0.198632
Si Si7 0.607588 0.760644 0.646623
O O1 0.552005 0.609861 0.164325
O O2 0.650311 0.359796 0.077287
O O3 0.806671 0.590103 0.977439
O O4 0.616237 0.531909 0.020558
O O5 0.580833 0.136830 0.812079
O O6 0.480777 0.906674 0.920932
O O7 0.461177 0.910754 0.835210
O O8 0.370834 0.219939 0.809318
O O9 0.963183 0.805768 0.500450
O O10 0.731797 0.816958 0.603812
O O11 0.208417 0.970857 0.366958
O O12 0.305025 0.186625 0.153560
O O13 0.500000 0.000000 0.000000
O O14 0.500000 0.682408 0.750000
#
# Coordination Sequence:
#
# PCOD9300609 Si02
#       7
#     8   8   4   8   8   8   8
#     4  11  22  39  76 101 138 176 233 298 345 416
#     4  11  23  45  67 102 136 179 238 284 354 419
#     4  12  26  44  66 110 138 184 242 290 358 412
#     4  11  23  45  72 102 134 182 236 286 357 415
#     4  12  27  46  71  99 142 191 239 285 351 425
#     4  12  28  44  69 101 144 184 229 298 354 419
#     4  11  18  38  76 103 131 181 225 295 340 420
#
# _framework density 23.275952
#
# number of rings (size 3 to 8) (size 9 to 14) (size 15 to 20)
#    0.000    0.615    5.385    4.154    0.000    6.154 
#    0.000    0.000    0.000    0.000    0.000    0.000 
#    0.000    0.000    0.000    0.000    0.000    0.000 
#
# Total GULP energy -145230.819811 kJ/mol
# GULP energy per Si atom -5585.800762 kJ/mol
# Density = 2.322297 g / cm^3
# Si number density = 23.275952 Si / 1000 Ang^3
#
#
#
# Elastic Constant Matrix: (Units=GPa)
#
#
# Indices 1 2 3 4 5 6 
#
# 1 53.5639 13.5988 25.0619 0.0001 -24.5411 -0.0001
# 2 13.5988 75.6541 55.9796 0.0001 -15.0926 -0.0004
# 3 25.0619 55.9796 132.3787 0.0000 -6.9933 0.0000
# 4 0.0001 0.0001 0.0000 50.6400 0.0000 -2.2901
# 5 -24.5411 -15.0926 -6.9933 0.0000 34.4866 0.0000
# 6 -0.0001 -0.0004 0.0000 -2.2901 0.0000 33.8282
#
#
#
# Elastic Compliance Matrix: (Units=1/GPa)
#
#
# Indices 1 2 3 4 5 6 
#
# 1 0.030826 0.003400 -0.006102 0.000000 0.022187 0.000000
# 2 0.003400 0.021355 -0.009151 0.000000 0.009910 0.000000
# 3 -0.006102 -0.009151 0.012269 0.000000 -0.005859 0.000000
# 4 0.000000 0.000000 0.000000 0.019808 0.000000 0.001341
# 5 0.022187 0.009910 -0.005859 0.000000 0.047934 0.000000
# 6 0.000000 0.000000 0.000000 0.001341 0.000000 0.029652
#
#
# Mechanical properties :
#
#
# Convention : Reuss Voigt Hill
#
# Bulk Modulus (GPa) = 24.54226 50.09747 37.31987
# Shear Modulus (GPa) = 25.10912 34.92138 30.01525
#
# Velocity S-wave (km/s) = 3.28801 3.87760 3.59491
# Velocity P-wave (km/s) = 4.99816 6.45118 5.77058
#
# Compressibility (1/GPa) = 0.04074604
#
# Stress axis : x y z
#
# Youngs Moduli (GPa) = 32.43970 46.82816 81.50412
#
# Poissons Ratio (x) = -0.15922 0.49732
# Poissons Ratio (y) = -0.11030 0.74581
# Poissons Ratio (z) = 0.19794 0.42850
#
# Static dielectric constant tensor:
#      x y z
#    x 1.932730 0.000000 -0.016360 
#    y 0.000000 1.963180 0.000000 
#    z -0.016360 0.000000 1.934060 
# 
# From -- ./inp_files/298868.got.cif
#   From: 2010.05.17/outbox.cif.g08.bks.cpg/sg15_150_cif.got.tgz:298868.got - 2010.06.03 18:47:42.
