data_PCOD9300481
_publ_section_title
;
Structure prediction by ZEFSAII (Michael W. Deem and Ramdas Pophale) SiO2 
 PCOD9300481
Probable space group: C 2/C
;
_chemical_formula_sum "Si O2"
_cell_formula_units_Z 52
_cell_length_a 15.399569
_cell_length_b 5.623872
_cell_length_c 24.086719
_cell_angle_alpha 90.000000
_cell_angle_beta 77.143315
_cell_angle_gamma 90.000000
_cell_volume 2033.737685
_symmetry_space_group_name_H-M "C 2/C"
_symmetry_group_IT_number 15
_symmetry_cell_setting 'monoclinic'
loop_
_space_group_symop_operation_xyz
x,y,z
-x,y,1/2-z
-x,-y,-z
x,-y,1/2+z
1/2+x,1/2+y,z
1/2-x,1/2+y,1/2-z
1/2-x,1/2-y,-z
1/2+x,1/2-y,1/2+z
loop_
_atom_site_type_symbol
_atom_site_label
_atom_site_fract_x
_atom_site_fract_y
_atom_site_fract_z
Si Si1 0.104119 0.395729 0.077279
Si Si2 0.767538 0.538800 0.662167
Si Si3 0.946649 0.702773 0.140019
Si Si4 0.803161 0.582516 0.534890
Si Si5 0.183270 0.547390 0.682791
Si Si6 0.454966 0.589700 0.062108
Si Si7 0.500000 0.143166 0.250000
O O1 0.169889 0.434834 0.118379
O O2 0.033043 0.612265 0.093877
O O3 0.036254 0.176951 0.089198
O O4 0.155081 0.384885 0.011559
O O5 0.872777 0.501892 0.657769
O O6 0.749353 0.522847 0.598014
O O7 0.733267 0.796475 0.686284
O O8 0.723998 0.300892 0.694432
O O9 0.975281 0.783130 0.197296
O O10 0.903178 0.898612 0.106491
O O11 0.750000 0.750000 0.500000
O O12 0.887787 0.714437 0.549382
O O13 0.084703 0.514064 0.721326
O O14 0.500000 0.500000 0.000000
#
# Coordination Sequence:
#
# PCOD9300481 Si02
#       7
#     8   8   8   8   8   8   4
#     4  11  24  43  67 107 157 203 256 306 382 475
#     4  12  26  48  75 114 154 201 252 324 385 463
#     4  11  25  49  75 105 153 199 265 320 392 470
#     4  12  24  43  69 114 162 208 255 313 391 471
#     4  11  28  49  77 109 150 197 265 322 391 460
#     4  12  24  42  74 109 156 212 253 319 387 482
#     4  10  28  56  78 110 140 208 256 342 392 474
#
# _framework density 25.568684000000001
#
# number of rings (size 3 to 8) (size 9 to 14) (size 15 to 20)
#    0.000    0.615    4.615    2.308    6.462    2.462 
#    2.769    0.000    0.000    0.000    0.000    0.000 
#    0.000    0.000    0.000    0.000    0.000    0.000 
#
# Total GULP energy -145469.039669 kJ/mol
# GULP energy per Si atom -5594.963064 kJ/mol
# Density = 2.551049 g / cm^3
# Si number density = 25.568684 Si / 1000 Ang^3
#
#
#
# Elastic Constant Matrix: (Units=GPa)
#
#
# Indices 1 2 3 4 5 6 
#
# 1 91.2356 41.9873 30.1203 0.0002 4.1955 0.0001
# 2 41.9873 118.3663 36.7391 0.0003 -11.0433 0.0002
# 3 30.1203 36.7391 150.4907 0.0001 19.5957 0.0000
# 4 0.0002 0.0003 0.0001 -0.8201 0.0001 -10.7908
# 5 4.1955 -11.0433 19.5957 0.0001 51.5400 0.0001
# 6 0.0001 0.0002 0.0000 -10.7908 0.0001 37.1252
#
#
#
# Elastic Compliance Matrix: (Units=1/GPa)
#
#
# Indices 1 2 3 4 5 6 
#
# 1 0.013579 -0.004521 -0.001414 0.000000 -0.001536 0.000000
# 2 -0.004521 0.011095 -0.002274 0.000001 0.003610 0.000000
# 3 -0.001414 -0.002274 0.007924 0.000000 -0.003385 0.000000
# 4 0.000000 0.000001 0.000000 -0.252745 0.000001 -0.073463
# 5 -0.001536 0.003610 -0.003385 0.000001 0.021588 0.000000
# 6 0.000000 0.000000 0.000000 -0.073463 0.000000 0.005583
#
#
# Mechanical properties :
#
#
# Convention : Reuss Voigt Hill
#
# Bulk Modulus (GPa) = 61.80634 64.19844 63.00239
# Shear Modulus (GPa) = -29.21134 34.31876 2.55371
#
# Velocity S-wave (km/s) = -3.38370 3.66760 1.00047
# Velocity P-wave (km/s) = 2.99319 6.56489 5.10182
#
# Compressibility (1/GPa) = 0.01617957
#
# Stress axis : x y z
#
# Youngs Moduli (GPa) = 73.64435 90.13403 126.20354
#
# Poissons Ratio (x) = 0.40751 0.17844
# Poissons Ratio (y) = 0.33296 0.28694
# Poissons Ratio (z) = 0.10413 0.20493
#
# Static dielectric constant tensor:
#      x y z
#    x 1.970990 0.000000 -0.016540 
#    y 0.000000 2.038050 0.000000 
#    z -0.016540 0.000000 2.022170 
# 
# From -- ./inp_files/297443.got.cif
#   From: 2010.05.17/outbox.cif.g08.bks.cpg/sg15_149_cif.got.tgz:297443.got - 2010.06.03 18:47:42.
