data_PCOD9300113
_publ_section_title
;
Structure prediction by ZEFSAII (Michael W. Deem and Ramdas Pophale) SiO2 
 PCOD9300113
Probable space group: C 2/C
;
_chemical_formula_sum "Si O2"
_cell_formula_units_Z 44
_cell_length_a 28.440106
_cell_length_b 4.978368
_cell_length_c 15.595398
_cell_angle_alpha 90.000000
_cell_angle_beta 116.244637
_cell_angle_gamma 90.000000
_cell_volume 1980.457554
_symmetry_space_group_name_H-M "C 2/C"
_symmetry_group_IT_number 15
_symmetry_cell_setting 'monoclinic'
loop_
_space_group_symop_operation_xyz
x,y,z
-x,y,1/2-z
-x,-y,-z
x,-y,1/2+z
1/2+x,1/2+y,z
1/2-x,1/2+y,1/2-z
1/2-x,1/2-y,-z
1/2+x,1/2-y,1/2+z
loop_
_atom_site_type_symbol
_atom_site_label
_atom_site_fract_x
_atom_site_fract_y
_atom_site_fract_z
Si Si1 0.979048 0.745355 0.928548
Si Si2 0.740087 0.931673 0.782386
Si Si3 0.000000 0.080546 0.250000
Si Si4 0.612479 0.676823 0.831375
Si Si5 0.871523 0.682279 0.765439
Si Si6 0.783951 0.997437 0.993717
O O1 0.994418 0.769824 0.838710
O O2 0.916774 0.687595 0.872508
O O3 0.000000 0.500000 0.000000
O O4 0.000000 0.000000 0.000000
O O5 0.760455 0.111348 0.720147
O O6 0.683233 0.059028 0.750545
O O7 0.779155 0.015563 0.888595
O O8 0.947139 0.904920 0.197320
O O9 0.629044 0.489608 0.764734
O O10 0.656435 0.575504 0.933419
O O11 0.614359 0.987440 0.804356
O O12 0.750000 0.750000 0.000000
O O13 0.750000 0.250000 0.000000
#
# Coordination Sequence:
#
# PCOD9300113 Si02
#       6
#     8   8   4   8   8   8
#     4  11  25  45  71 101 142 185 237 297 355 428
#     4  12  25  40  63 100 137 177 231 291 358 423
#     4  10  26  44  72 108 138 188 248 284 364 430
#     4  11  22  42  70  98 136 184 232 293 341 431
#     4  11  23  43  67  95 140 185 220 290 368 406
#     4  12  22  42  67  94 129 181 233 274 344 425
#
# _framework density 22.217085999999998
#
# number of rings (size 3 to 8) (size 9 to 14) (size 15 to 20)
#    0.000    0.727    3.636    4.364    0.000    9.455 
#    0.000    0.000    0.000    0.000    0.000    0.000 
#    0.000    0.000    0.000    0.000    0.000    0.000 
#
# Total GULP energy -122654.707749 kJ/mol
# GULP energy per Si atom -5575.213989 kJ/mol
# Density = 2.216652 g / cm^3
# Si number density = 22.217086 Si / 1000 Ang^3
#
#
#
# Elastic Constant Matrix: (Units=GPa)
#
#
# Indices 1 2 3 4 5 6 
#
# 1 105.4685 5.9408 28.3626 0.0000 37.2538 0.0000
# 2 5.9408 123.8348 25.0116 0.0001 1.5095 0.0001
# 3 28.3626 25.0116 161.4394 0.0000 35.7958 0.0000
# 4 0.0000 0.0001 0.0000 34.7491 0.0000 1.6703
# 5 37.2538 1.5095 35.7958 0.0000 49.3774 0.0000
# 6 0.0000 0.0001 0.0000 1.6703 0.0000 16.2372
#
#
#
# Elastic Compliance Matrix: (Units=1/GPa)
#
#
# Indices 1 2 3 4 5 6 
#
# 1 0.012958 -0.000494 -0.000042 0.000000 -0.009730 0.000000
# 2 -0.000494 0.008382 -0.001475 0.000000 0.001186 0.000000
# 3 -0.000042 -0.001475 0.007641 0.000000 -0.005463 0.000000
# 4 0.000000 0.000000 0.000000 0.028921 0.000000 -0.002975
# 5 -0.009730 0.001186 -0.005463 0.000000 0.031517 0.000000
# 6 0.000000 0.000000 0.000000 -0.002975 0.000000 0.061893
#
#
# Mechanical properties :
#
#
# Convention : Reuss Voigt Hill
#
# Bulk Modulus (GPa) = 40.06671 56.59697 48.33184
# Shear Modulus (GPa) = 30.55201 42.16791 36.35996
#
# Velocity S-wave (km/s) = 3.71234 4.36132 4.04985
# Velocity P-wave (km/s) = 6.03727 7.13382 6.60833
#
# Compressibility (1/GPa) = 0.02495838
#
# Stress axis : x y z
#
# Youngs Moduli (GPa) = 77.17390 119.29756 130.86606
#
# Poissons Ratio (x) = 0.05899 0.00555
# Poissons Ratio (y) = 0.03816 0.19300
# Poissons Ratio (z) = 0.00327 0.17593
#
# Static dielectric constant tensor:
#      x y z
#    x 1.794880 0.000000 -0.118650 
#    y 0.000000 1.898560 0.000000 
#    z -0.118650 0.000000 1.855670 
# 
# From -- ./inp_files/175656.got.cif
#   From: 2010.05.17/outbox.cif.g08.bks.cpg/sg15_88_cif.got.tgz:175656.got - 2010.06.03 18:47:42.
