data_PCOD9300332
_publ_section_title
;
Structure prediction by ZEFSAII (Michael W. Deem and Ramdas Pophale) SiO2 
 PCOD9300332
Probable space group: C 2/C
;
_chemical_formula_sum "Si O2"
_cell_formula_units_Z 36
_cell_length_a 10.102831
_cell_length_b 14.559638
_cell_length_c 17.468405
_cell_angle_alpha 90.000000
_cell_angle_beta 32.959768
_cell_angle_gamma 90.000000
_cell_volume 1397.930995
_symmetry_space_group_name_H-M "C 2/C"
_symmetry_group_IT_number 15
_symmetry_cell_setting 'monoclinic'
loop_
_space_group_symop_operation_xyz
x,y,z
-x,y,1/2-z
-x,-y,-z
x,-y,1/2+z
1/2+x,1/2+y,z
1/2-x,1/2+y,1/2-z
1/2-x,1/2-y,-z
1/2+x,1/2-y,1/2+z
loop_
_atom_site_type_symbol
_atom_site_label
_atom_site_fract_x
_atom_site_fract_y
_atom_site_fract_z
Si Si1 0.567737 0.394831 0.967957
Si Si2 0.620316 0.332106 0.769771
Si Si3 0.156820 0.638134 0.784504
Si Si4 0.000000 0.097993 0.750000
Si Si5 0.092152 0.438677 0.566583
O O1 0.099001 0.366967 0.876959
O O2 0.803873 0.390613 0.907459
O O3 0.500000 0.500000 0.000000
O O4 0.347756 0.353381 0.122395
O O5 0.500000 0.365243 0.750000
O O6 0.512645 0.229741 0.836667
O O7 0.581181 0.371549 0.873372
O O8 0.316483 0.652029 0.783803
O O9 0.028119 0.538538 0.855170
O O10 0.181430 0.047694 0.601850
#
# Coordination Sequence:
#
# PCOD9300332 Si02
#       5
#     8   8   8   4   8
#     4  11  26  51  81 115 162 217 263 328 427 469
#     4  12  30  48  81 126 162 210 274 336 406 483
#     4  11  27  48  84 118 164 212 269 338 402 485
#     4  10  26  48  84 118 158 214 274 328 416 464
#     4  11  26  53  83 115 168 210 271 332 408 492
#
# _framework density 25.752344000000001
#
# number of rings (size 3 to 8) (size 9 to 14) (size 15 to 20)
#    0.000    0.889    2.222    1.333   10.889    4.444 
#    0.000    0.000    0.000    0.000    0.000    0.000 
#    0.000    0.000    0.000    0.000    0.000    0.000 
#
# Total GULP energy -100514.579357 kJ/mol
# GULP energy per Si atom -5584.143298 kJ/mol
# Density = 2.569373 g / cm^3
# Si number density = 25.752344 Si / 1000 Ang^3
#
#
#
# Elastic Constant Matrix: (Units=GPa)
#
#
# Indices 1 2 3 4 5 6 
#
# 1 242.1206 27.7986 80.1798 -0.0001 5.9230 -0.0007
# 2 27.7986 84.5256 27.4229 -0.0004 -0.3324 -0.0007
# 3 80.1798 27.4229 141.5565 -0.0110 15.7419 -0.0020
# 4 -0.0001 -0.0004 -0.0110 -0.2037 0.0010 0.1610
# 5 5.9230 -0.3324 15.7419 0.0010 49.5804 0.0005
# 6 -0.0007 -0.0007 -0.0020 0.1610 0.0005 22.0263
#
#
#
# Elastic Compliance Matrix: (Units=1/GPa)
#
#
# Indices 1 2 3 4 5 6 
#
# 1 0.005137 -0.000784 -0.002787 0.000149 0.000266 -0.000001
# 2 -0.000784 0.012782 -0.002127 0.000096 0.000855 -0.000001
# 3 -0.002787 -0.002127 0.009350 -0.000509 -0.002650 0.000004
# 4 0.000149 0.000096 -0.000509 -4.881662 0.000247 0.035680
# 5 0.000266 0.000855 -0.002650 0.000247 0.020985 -0.000003
# 6 -0.000001 -0.000001 0.000004 0.035680 -0.000003 0.045139
#
#
# Mechanical properties :
#
#
# Convention : Reuss Voigt Hill
#
# Bulk Modulus (GPa) = 63.00501 82.11170 72.55836
# Shear Modulus (GPa) = -1.04787 36.46737 17.70975
#
# Velocity S-wave (km/s) = -0.63858 3.76717 2.62524
# Velocity P-wave (km/s) = 4.89644 7.13277 6.11766
#
# Compressibility (1/GPa) = 0.01587175
#
# Stress axis : x y z
#
# Youngs Moduli (GPa) = 194.67843 78.23466 106.95485
#
# Poissons Ratio (x) = 0.06134 0.29810
# Poissons Ratio (y) = 0.15264 0.22751
# Poissons Ratio (z) = 0.54260 0.16642
#
# Static dielectric constant tensor:
#      x y z
#    x 2.858470 0.000020 0.453580 
#    y 0.000020 1.942910 0.000010 
#    z 0.453580 0.000010 2.332380 
# 
# From -- ./inp_files/264899.got.cif
#   From: 2010.05.17/outbox.cif.g08.bks.cpg/sg15_133_cif.got.tgz:264899.got - 2010.06.03 18:47:42.
