data_PCOD9300844
_publ_section_title
;
Structure prediction by ZEFSAII (Michael W. Deem and Ramdas Pophale) SiO2 
 PCOD9300844
Probable space group: C 2/C
;
_chemical_formula_sum "Si O2"
_cell_formula_units_Z 64
_cell_length_a 27.859561
_cell_length_b 15.490631
_cell_length_c 10.812359
_cell_angle_alpha 90.000000
_cell_angle_beta 136.963161
_cell_angle_gamma 90.000000
_cell_volume 3184.537847
_symmetry_space_group_name_H-M "C 2/C"
_symmetry_group_IT_number 15
_symmetry_cell_setting 'monoclinic'
loop_
_space_group_symop_operation_xyz
x,y,z
-x,y,1/2-z
-x,-y,-z
x,-y,1/2+z
1/2+x,1/2+y,z
1/2-x,1/2+y,1/2-z
1/2-x,1/2-y,-z
1/2+x,1/2-y,1/2+z
loop_
_atom_site_type_symbol
_atom_site_label
_atom_site_fract_x
_atom_site_fract_y
_atom_site_fract_z
Si Si1 0.938495 0.005770 0.050216
Si Si2 0.515610 0.313789 0.926593
Si Si3 0.313635 0.390399 0.454418
Si Si4 0.371637 0.764265 0.215068
Si Si5 0.341231 0.361807 0.863566
Si Si6 0.215951 0.568919 0.998863
Si Si7 0.354028 0.297743 0.154011
Si Si8 0.278020 0.876671 0.457430
O O1 0.977235 0.081748 0.047424
O O2 0.000000 0.967785 0.250000
O O3 0.878207 0.054116 0.019907
O O4 0.895083 0.930353 0.903319
O O5 0.500000 0.300753 0.750000
O O6 0.453944 0.259018 0.874451
O O7 0.588302 0.289134 0.129902
O O8 0.342603 0.297815 0.552008
O O9 0.273341 0.428502 0.496485
O O10 0.255722 0.378689 0.241037
O O11 0.339139 0.725051 0.279403
O O12 0.343920 0.860203 0.139268
O O13 0.263311 0.402871 0.707065
O O14 0.370606 0.343755 0.055083
O O15 0.190964 0.471107 0.960712
O O16 0.288665 0.353101 0.082314
O O17 0.330419 0.201688 0.074834
#
# Coordination Sequence:
#
# PCOD9300844 Si02
#       8
#     8   8   8   8   8   8   8   8
#     4  11  21  36  60  94 126 159 199 248 314 385
#     4  11  22  43  59  88 125 166 207 252 313 376
#     4  11  19  41  59  88 129 155 206 257 308 379
#     4  11  23  39  63  83 130 170 202 253 311 386
#     4  11  23  38  59  95 125 165 199 254 318 372
#     4  11  23  40  61  92 119 170 214 250 314 375
#     4  11  23  39  63  94 126 160 209 268 318 370
#     4  11  22  39  63  92 124 161 212 272 309 358
#
# _framework density 20.097107999999999
#
# number of rings (size 3 to 8) (size 9 to 14) (size 15 to 20)
#    0.000    1.000    5.000    3.750    1.750    2.500 
#    0.000    0.625    0.000    0.000    0.000    0.000 
#    0.000    0.000    0.000    0.000    0.000    0.000 
#
# Total GULP energy -178580.418384 kJ/mol
# GULP energy per Si atom -5580.638074 kJ/mol
# Density = 2.005137 g / cm^3
# Si number density = 20.097108 Si / 1000 Ang^3
#
#
#
# Elastic Constant Matrix: (Units=GPa)
#
#
# Indices 1 2 3 4 5 6 
#
# 1 46.0165 23.7166 6.9929 0.0000 -0.2193 0.0000
# 2 23.7166 124.0780 43.6266 0.0000 6.5124 0.0000
# 3 6.9929 43.6266 90.0304 0.0000 -5.9423 0.0000
# 4 0.0000 0.0000 0.0000 30.9661 0.0000 8.4222
# 5 -0.2193 6.5124 -5.9423 0.0000 29.5770 0.0000
# 6 0.0000 0.0000 0.0000 8.4222 0.0000 13.4714
#
#
#
# Elastic Compliance Matrix: (Units=1/GPa)
#
#
# Indices 1 2 3 4 5 6 
#
# 1 0.024174 -0.004899 0.000587 0.000000 0.001376 0.000000
# 2 -0.004899 0.011001 -0.005181 0.000000 -0.003500 0.000000
# 3 0.000587 -0.005181 0.013832 0.000000 0.003924 0.000000
# 4 0.000000 0.000000 0.000000 0.038910 0.000000 -0.024326
# 5 0.001376 -0.003500 0.003924 0.000000 0.035379 0.000000
# 6 0.000000 0.000000 0.000000 -0.024326 0.000000 0.089440
#
#
# Mechanical properties :
#
#
# Convention : Reuss Voigt Hill
#
# Bulk Modulus (GPa) = 33.31147 45.42189 39.36668
# Shear Modulus (GPa) = 20.68434 27.18883 23.93658
#
# Velocity S-wave (km/s) = 3.21163 3.68213 3.45490
# Velocity P-wave (km/s) = 5.51035 6.38183 5.96203
#
# Compressibility (1/GPa) = 0.03001969
#
# Stress axis : x y z
#
# Youngs Moduli (GPa) = 41.36719 90.89704 72.29831
#
# Poissons Ratio (x) = 0.44534 -0.04246
# Poissons Ratio (y) = 0.20267 0.37461
# Poissons Ratio (z) = -0.02429 0.47098
#
# Static dielectric constant tensor:
#      x y z
#    x 1.794860 0.000000 -0.022570 
#    y 0.000000 1.710010 0.000000 
#    z -0.022570 0.000000 1.726490 
# 
# From -- ./inp_files/126902.got.cif
#   From: 2010.05.17/outbox.cif.g08.bks.cpg/sg15_64_cif.got.tgz:126902.got - 2010.06.03 18:47:42.
