data_PCOD9300381
_publ_section_title
;
Structure prediction by ZEFSAII (Michael W. Deem and Ramdas Pophale) SiO2 
 PCOD9300381
Probable space group: C 2/C
;
_chemical_formula_sum "Si O2"
_cell_formula_units_Z 36
_cell_length_a 13.584747
_cell_length_b 19.409711
_cell_length_c 7.952959
_cell_angle_alpha 90.000000
_cell_angle_beta 137.095596
_cell_angle_gamma 90.000000
_cell_volume 1427.592812
_symmetry_space_group_name_H-M "C 2/C"
_symmetry_group_IT_number 15
_symmetry_cell_setting 'monoclinic'
loop_
_space_group_symop_operation_xyz
x,y,z
-x,y,1/2-z
-x,-y,-z
x,-y,1/2+z
1/2+x,1/2+y,z
1/2-x,1/2+y,1/2-z
1/2-x,1/2-y,-z
1/2+x,1/2-y,1/2+z
loop_
_atom_site_type_symbol
_atom_site_label
_atom_site_fract_x
_atom_site_fract_y
_atom_site_fract_z
Si Si1 0.835207 0.567105 0.987752
Si Si2 0.500000 0.273421 0.750000
Si Si3 0.920426 0.848569 0.305593
Si Si4 0.357157 0.860998 0.160084
Si Si5 0.388402 0.441707 0.765132
O O1 0.739421 0.627866 0.952706
O O2 0.840148 0.594783 0.805286
O O3 0.735855 0.499120 0.873834
O O4 0.000000 0.558769 0.250000
O O5 0.425062 0.311909 0.495276
O O6 0.605470 0.219196 0.785947
O O7 0.000000 0.811887 0.250000
O O8 0.009312 0.920198 0.452811
O O9 0.500000 0.890508 0.250000
O O10 0.209403 0.873340 0.877713
O O11 0.500000 0.449725 0.750000
#
# Coordination Sequence:
#
# PCOD9300381 Si02
#       5
#     8   4   8   8   8
#     4  12  28  48  76 122 161 203 266 329 403 479
#     4  10  26  58  80 110 166 212 274 316 402 464
#     4  12  27  49  85 115 154 214 272 327 388 480
#     4  10  26  50  80 109 156 220 254 323 402 471
#     4  12  25  50  78 116 161 208 260 330 410 468
#
# _framework density 25.217275999999998
#
# number of rings (size 3 to 8) (size 9 to 14) (size 15 to 20)
#    0.667    0.000    3.333    2.000    6.222    6.222 
#    2.000    3.333    0.000    0.000    0.000    0.000 
#    0.000    0.000    0.000    0.000    0.000    0.000 
#
# Total GULP energy -100474.178371 kJ/mol
# GULP energy per Si atom -5581.898798 kJ/mol
# Density = 2.515988 g / cm^3
# Si number density = 25.217276 Si / 1000 Ang^3
#
#
#
# Elastic Constant Matrix: (Units=GPa)
#
#
# Indices 1 2 3 4 5 6 
#
# 1 149.4282 49.4931 31.7358 0.0000 8.0806 0.0000
# 2 49.4931 122.3203 50.0280 0.0000 11.8143 0.0000
# 3 31.7358 50.0280 146.8927 0.0000 37.8961 0.0000
# 4 0.0000 0.0000 0.0000 35.6375 0.0000 0.7519
# 5 8.0806 11.8143 37.8961 0.0000 57.9098 0.0000
# 6 0.0000 0.0000 0.0000 0.7519 0.0000 61.0919
#
#
#
# Elastic Compliance Matrix: (Units=1/GPa)
#
#
# Indices 1 2 3 4 5 6 
#
# 1 0.007791 -0.002863 -0.000696 0.000000 -0.000048 0.000000
# 2 -0.002863 0.010553 -0.003036 0.000000 0.000233 0.000000
# 3 -0.000696 -0.003036 0.009393 0.000000 -0.005430 0.000000
# 4 0.000000 0.000000 0.000000 0.028068 0.000000 -0.000345
# 5 -0.000048 0.000233 -0.005430 0.000000 0.020781 0.000000
# 6 0.000000 0.000000 0.000000 -0.000345 0.000000 0.016373
#
#
# Mechanical properties :
#
#
# Convention : Reuss Voigt Hill
#
# Bulk Modulus (GPa) = 68.74087 75.68391 72.21239
# Shear Modulus (GPa) = 45.04668 50.08680 47.56674
#
# Velocity S-wave (km/s) = 4.23110 4.46153 4.34784
# Velocity P-wave (km/s) = 7.15459 7.52450 7.34188
#
# Compressibility (1/GPa) = 0.01454739
#
# Stress axis : x y z
#
# Youngs Moduli (GPa) = 128.35575 94.76203 106.46490
#
# Poissons Ratio (x) = 0.27132 0.07408
# Poissons Ratio (y) = 0.36750 0.32318
# Poissons Ratio (z) = 0.08931 0.28766
#
# Static dielectric constant tensor:
#      x y z
#    x 2.058460 0.000000 0.062340 
#    y 0.000000 2.113390 0.000000 
#    z 0.062340 0.000000 2.082910 
# 
# From -- ./inp_files/41314.got.cif
#   From: 2010.05.17/outbox.cif.g08.bks.cpg/sg15_21_cif.got.tgz:41314.got - 2010.06.03 18:47:42.
