data_PCOD9300064
_publ_section_title
;
Structure prediction by ZEFSAII (Michael W. Deem and Ramdas Pophale) SiO2 
 PCOD9300064
Probable space group: C 2/C
;
_chemical_formula_sum "Si O2"
_cell_formula_units_Z 64
_cell_length_a 8.235203
_cell_length_b 16.777732
_cell_length_c 29.218911
_cell_angle_alpha 90.000000
_cell_angle_beta 140.084846
_cell_angle_gamma 90.000000
_cell_volume 2590.427775
_symmetry_space_group_name_H-M "C 2/C"
_symmetry_group_IT_number 15
_symmetry_cell_setting 'monoclinic'
loop_
_space_group_symop_operation_xyz
x,y,z
-x,y,1/2-z
-x,-y,-z
x,-y,1/2+z
1/2+x,1/2+y,z
1/2-x,1/2+y,1/2-z
1/2-x,1/2-y,-z
1/2+x,1/2-y,1/2+z
loop_
_atom_site_type_symbol
_atom_site_label
_atom_site_fract_x
_atom_site_fract_y
_atom_site_fract_z
Si Si1 0.146182 0.141561 0.331873
Si Si2 0.763027 0.162713 0.981196
Si Si3 0.662081 0.438339 0.239215
Si Si4 0.184245 0.694094 0.415075
Si Si5 0.428091 0.076654 0.184138
Si Si6 0.916276 0.874673 0.095600
Si Si7 0.358601 0.463196 0.577481
Si Si8 0.073471 0.682351 0.845000
O O1 0.445590 0.161319 0.391534
O O2 0.133773 0.074989 0.369241
O O3 0.042079 0.223896 0.330284
O O4 0.000000 0.130026 0.250000
O O5 0.572512 0.158812 0.898073
O O6 0.750000 0.250000 0.000000
O O7 0.737067 0.099895 0.015976
O O8 0.041304 0.156447 0.017721
O O9 0.500000 0.438324 0.250000
O O10 0.488445 0.421213 0.157812
O O11 0.854627 0.513879 0.283350
O O12 0.843772 0.362930 0.273372
O O13 0.105105 0.659211 0.349168
O O14 0.210886 0.789073 0.424524
O O15 0.500000 0.099150 0.250000
O O16 0.156028 0.034374 0.126244
O O17 0.170055 0.849372 0.123389
O O18 0.757633 0.948754 0.041251
#
# Coordination Sequence:
#
# PCOD9300064 Si02
#       8
#     8   8   8   8   8   8   8   8
#     4  11  23  41  73 110 143 187 245 302 377 436
#     4  11  25  49  74 103 144 201 258 296 352 446
#     4  12  26  41  71 111 147 180 241 313 370 444
#     4  10  26  43  70 103 138 192 243 292 364 434
#     4  11  21  42  69  97 142 184 232 287 371 433
#     4  11  24  45  70 106 147 183 242 303 379 428
#     4  11  23  43  73 102 144 194 231 299 366 435
#     4  11  23  48  74  98 149 195 243 302 364 438
#
# _framework density 24.706344000000001
#
# number of rings (size 3 to 8) (size 9 to 14) (size 15 to 20)
#    0.000    1.000    3.750    2.625    3.500    3.000 
#    0.000    0.625    0.000    0.000    0.000    0.000 
#    0.000    0.000    0.000    0.000    0.000    0.000 
#
# Total GULP energy -178821.801005 kJ/mol
# GULP energy per Si atom -5588.181281 kJ/mol
# Density = 2.465011 g / cm^3
# Si number density = 24.706344 Si / 1000 Ang^3
#
#
#
# Elastic Constant Matrix: (Units=GPa)
#
#
# Indices 1 2 3 4 5 6 
#
# 1 97.4133 32.1310 11.0256 0.0000 -0.1026 0.0000
# 2 32.1310 146.6853 18.0868 0.0000 -9.8283 0.0000
# 3 11.0256 18.0868 49.0913 0.0000 -13.9124 -0.0001
# 4 0.0000 0.0000 0.0000 5.5557 -0.0001 23.2896
# 5 -0.1026 -9.8283 -13.9124 -0.0001 36.6979 0.0000
# 6 0.0000 0.0000 -0.0001 23.2896 0.0000 16.5050
#
#
#
# Elastic Compliance Matrix: (Units=1/GPa)
#
#
# Indices 1 2 3 4 5 6 
#
# 1 0.011258 -0.002303 -0.002068 0.000000 -0.001369 0.000000
# 2 -0.002303 0.007647 -0.001929 0.000000 0.001310 0.000000
# 3 -0.002068 -0.001929 0.023973 0.000000 0.008566 0.000000
# 4 0.000000 0.000000 0.000000 -0.036620 0.000000 0.051673
# 5 -0.001369 0.001310 0.008566 0.000000 0.030844 0.000000
# 6 0.000000 0.000000 0.000000 0.051673 0.000000 -0.012327
#
#
# Mechanical properties :
#
#
# Convention : Reuss Voigt Hill
#
# Bulk Modulus (GPa) = 33.02678 46.18630 39.60654
# Shear Modulus (GPa) = 105.33491 27.21480 66.27486
#
# Velocity S-wave (km/s) = 6.53661 3.32253 5.18491
# Velocity P-wave (km/s) = 8.38847 5.78391 7.20487
#
# Compressibility (1/GPa) = 0.03027846
#
# Stress axis : x y z
#
# Youngs Moduli (GPa) = 88.82807 130.76393 41.71365
#
# Poissons Ratio (x) = 0.30111 0.08627
# Poissons Ratio (y) = 0.20454 0.08047
# Poissons Ratio (z) = 0.18370 0.25225
#
# Static dielectric constant tensor:
#      x y z
#    x 1.135620 0.000000 -0.708370 
#    y 0.000000 1.973230 0.000000 
#    z -0.708370 0.000000 1.448340 
# 
# From -- ./inp_files/308799.got.cif
#   From: 2010.05.17/outbox.cif.g08.bks.cpg/sg15_155_cif.got.tgz:308799.got - 2010.06.03 18:47:42.
