data_PCOD9300822
_publ_section_title
;
Structure prediction by ZEFSAII (Michael W. Deem and Ramdas Pophale) SiO2 
 PCOD9300822
Probable space group: C 2/C
;
_chemical_formula_sum "Si O2"
_cell_formula_units_Z 44
_cell_length_a 5.976961
_cell_length_b 16.809926
_cell_length_c 19.564772
_cell_angle_alpha 90.000000
_cell_angle_beta 65.332141
_cell_angle_gamma 90.000000
_cell_volume 1786.330558
_symmetry_space_group_name_H-M "C 2/C"
_symmetry_group_IT_number 15
_symmetry_cell_setting 'monoclinic'
loop_
_space_group_symop_operation_xyz
x,y,z
-x,y,1/2-z
-x,-y,-z
x,-y,1/2+z
1/2+x,1/2+y,z
1/2-x,1/2+y,1/2-z
1/2-x,1/2-y,-z
1/2+x,1/2-y,1/2+z
loop_
_atom_site_type_symbol
_atom_site_label
_atom_site_fract_x
_atom_site_fract_y
_atom_site_fract_z
Si Si1 0.500000 0.642312 0.750000
Si Si2 0.287244 0.408676 0.047146
Si Si3 0.232651 0.006291 0.813796
Si Si4 0.253145 0.833448 0.958998
Si Si5 0.540298 0.239047 0.863156
Si Si6 0.794631 0.113827 0.384629
O O1 0.635494 0.586320 0.788432
O O2 0.283130 0.697316 0.806187
O O3 0.220892 0.473134 0.112297
O O4 0.131201 0.329390 0.083926
O O5 0.575501 0.391455 0.022977
O O6 0.264096 0.416917 0.968778
O O7 0.500000 0.982431 0.750000
O O8 0.006941 0.945552 0.831838
O O9 0.114431 0.805931 0.908770
O O10 0.504213 0.875344 0.907849
O O11 0.250000 0.750000 0.000000
O O12 0.372503 0.298985 0.842365
#
# Coordination Sequence:
#
# PCOD9300822 Si02
#       6
#     4   8   8   8   8   8
#     4  12  28  46  68  98 148 196 242 284 380 438
#     4  11  22  44  74 104 140 189 240 299 361 432
#     4  12  28  48  68 102 153 193 238 299 369 444
#     4  11  19  39  73 105 138 170 242 297 355 421
#     4  11  23  43  72 104 133 189 239 299 353 435
#     4  11  25  44  75 107 141 182 243 307 362 423
#
# _framework density 24.631499000000002
#
# number of rings (size 3 to 8) (size 9 to 14) (size 15 to 20)
#    0.000    0.727    5.455    2.727    1.273    3.636 
#    0.000    0.000    0.000    0.000    0.000    0.000 
#    0.000    0.000    0.000    0.000    0.000    0.000 
#
# Total GULP energy -122727.143723 kJ/mol
# GULP energy per Si atom -5578.506533 kJ/mol
# Density = 2.457544 g / cm^3
# Si number density = 24.631499 Si / 1000 Ang^3
#
#
#
# Elastic Constant Matrix: (Units=GPa)
#
#
# Indices 1 2 3 4 5 6 
#
# 1 70.0621 20.8488 45.5356 0.0000 -55.0763 0.0000
# 2 20.8488 95.9630 56.8105 0.0000 -34.1238 0.0000
# 3 45.5356 56.8105 134.4619 0.0000 -57.2905 0.0000
# 4 0.0000 0.0000 0.0000 39.8126 0.0000 -14.8119
# 5 -55.0763 -34.1238 -57.2905 0.0000 64.9145 0.0000
# 6 0.0000 0.0000 0.0000 -14.8119 0.0000 44.6688
#
#
#
# Elastic Compliance Matrix: (Units=1/GPa)
#
#
# Indices 1 2 3 4 5 6 
#
# 1 0.044464 0.004557 0.000178 0.000000 0.040278 0.000000
# 2 0.004557 0.014849 -0.004558 0.000000 0.007650 0.000000
# 3 0.000178 -0.004558 0.013376 0.000000 0.009560 0.000000
# 4 0.000000 0.000000 0.000000 0.028652 0.000000 0.009501
# 5 0.040278 0.007650 0.009560 0.000000 0.062037 0.000000
# 6 0.000000 0.000000 0.000000 0.009501 0.000000 0.025537
#
#
# Mechanical properties :
#
#
# Convention : Reuss Voigt Hill
#
# Bulk Modulus (GPa) = 13.69050 60.76410 37.22730
# Shear Modulus (GPa) = 23.48433 41.69867 32.59150
#
# Velocity S-wave (km/s) = 3.09111 4.11895 3.64148
# Velocity P-wave (km/s) = 4.27904 6.88068 5.72948
#
# Compressibility (1/GPa) = 0.07304334
#
# Stress axis : x y z
#
# Youngs Moduli (GPa) = 22.49017 67.34493 74.76312
#
# Poissons Ratio (x) = -0.30688 -0.01333
# Poissons Ratio (y) = -0.10248 0.34074
# Poissons Ratio (z) = -0.00401 0.30693
#
# Static dielectric constant tensor:
#      x y z
#    x 2.455130 0.000000 0.006790 
#    y 0.000000 3.571020 0.000000 
#    z 0.006790 0.000000 1.873470 
# 
# From -- ./inp_files/260836.got.cif
#   From: 2010.05.17/outbox.cif.g08.bks.cpg/sg15_131_cif.got.tgz:260836.got - 2010.06.03 18:47:42.
