data_PCOD9300302
_publ_section_title
;
Structure prediction by ZEFSAII (Michael W. Deem and Ramdas Pophale) SiO2 
 PCOD9300302
Probable space group: C 2/C
;
_chemical_formula_sum "Si O2"
_cell_formula_units_Z 52
_cell_length_a 28.802232
_cell_length_b 5.384394
_cell_length_c 17.080161
_cell_angle_alpha 90.000000
_cell_angle_beta 122.699466
_cell_angle_gamma 90.000000
_cell_volume 2229.036702
_symmetry_space_group_name_H-M "C 2/C"
_symmetry_group_IT_number 15
_symmetry_cell_setting 'monoclinic'
loop_
_space_group_symop_operation_xyz
x,y,z
-x,y,1/2-z
-x,-y,-z
x,-y,1/2+z
1/2+x,1/2+y,z
1/2-x,1/2+y,1/2-z
1/2-x,1/2-y,-z
1/2+x,1/2-y,1/2+z
loop_
_atom_site_type_symbol
_atom_site_label
_atom_site_fract_x
_atom_site_fract_y
_atom_site_fract_z
Si Si1 0.285788 0.405699 0.848939
Si Si2 0.385037 0.753586 0.151598
Si Si3 0.036945 0.419273 0.957762
Si Si4 0.201050 0.748725 0.813096
Si Si5 0.500000 0.974633 0.750000
Si Si6 0.895273 0.931058 0.502505
Si Si7 0.285952 0.052405 0.984048
O O1 0.223851 0.472608 0.819014
O O2 0.286750 0.370520 0.758327
O O3 0.304389 0.179874 0.919983
O O4 0.334142 0.600486 0.911923
O O5 0.359950 0.696806 0.213316
O O6 0.445100 0.865179 0.212106
O O7 0.387193 0.535829 0.089279
O O8 0.339264 0.947082 0.076541
O O9 0.008596 0.358857 0.845997
O O10 0.072574 0.670933 0.976900
O O11 0.072804 0.167883 0.004575
O O12 0.000000 0.500000 0.000000
O O13 0.241858 0.849399 0.916451
O O14 0.250000 0.250000 0.000000
#
# Coordination Sequence:
#
# PCOD9300302 Si02
#       7
#     8   8   8   8   4   8   8
#     4  12  24  42  67 107 145 186 243 307 378 456
#     4  11  24  48  74 107 145 198 251 314 376 454
#     4  11  26  51  76 109 149 200 251 316 378 443
#     4  12  25  42  68 106 144 191 246 304 382 450
#     4  10  26  48  74 110 144 194 262 306 372 454
#     4  11  25  47  77 106 148 193 248 311 377 454
#     4  12  23  43  71 101 148 193 243 307 385 454
#
# _framework density 23.328462999999999
#
# number of rings (size 3 to 8) (size 9 to 14) (size 15 to 20)
#    0.000    0.615    4.615    3.692    2.154    2.462 
#    5.538    0.000    0.000    0.000    0.000    0.000 
#    0.000    0.000    0.000    0.000    0.000    0.000 
#
# Total GULP energy -145116.353824 kJ/mol
# GULP energy per Si atom -5581.398224 kJ/mol
# Density = 2.327537 g / cm^3
# Si number density = 23.328463 Si / 1000 Ang^3
#
#
#
# Elastic Constant Matrix: (Units=GPa)
#
#
# Indices 1 2 3 4 5 6 
#
# 1 167.1936 35.0888 34.6629 0.0000 -13.0148 0.0000
# 2 35.0888 82.0199 4.5954 -0.0001 -2.6406 -0.0002
# 3 34.6629 4.5954 87.7509 0.0000 -8.9233 0.0000
# 4 0.0000 -0.0001 0.0000 22.0029 0.0000 -7.8978
# 5 -13.0148 -2.6406 -8.9233 0.0000 49.2313 0.0000
# 6 0.0000 -0.0002 0.0000 -7.8978 0.0000 44.6225
#
#
#
# Elastic Compliance Matrix: (Units=1/GPa)
#
#
# Indices 1 2 3 4 5 6 
#
# 1 0.007224 -0.002905 -0.002570 0.000000 0.001288 0.000000
# 2 -0.002905 0.013411 0.000449 0.000000 0.000033 0.000000
# 3 -0.002570 0.000449 0.012552 0.000000 0.001620 0.000000
# 4 0.000000 0.000000 0.000000 0.048532 0.000000 0.008590
# 5 0.001288 0.000033 0.001620 0.000000 0.020948 0.000000
# 6 0.000000 0.000000 0.000000 0.008590 0.000000 0.023930
#
#
# Mechanical properties :
#
#
# Convention : Reuss Voigt Hill
#
# Bulk Modulus (GPa) = 43.22747 53.96208 48.59477
# Shear Modulus (GPa) = 34.63500 40.67916 37.65708
#
# Velocity S-wave (km/s) = 3.85732 4.18036 4.02208
# Velocity P-wave (km/s) = 6.19747 6.81779 6.51502
#
# Compressibility (1/GPa) = 0.02313344
#
# Stress axis : x y z
#
# Youngs Moduli (GPa) = 138.42887 74.56648 79.66552
#
# Poissons Ratio (x) = 0.21661 0.20478
# Poissons Ratio (y) = 0.40213 -0.03573
# Poissons Ratio (z) = 0.35583 -0.03344
#
# Static dielectric constant tensor:
#      x y z
#    x 1.963710 0.000000 -0.054230 
#    y 0.000000 2.005900 0.000000 
#    z -0.054230 0.000000 1.930640 
# 
# From -- ./inp_files/221348.got.cif
#   From: 2010.05.17/outbox.cif.g08.bks.cpg/sg15_111_cif.got.tgz:221348.got - 2010.06.03 18:47:42.
