data_PCOD9300401
_publ_section_title
;
Structure prediction by ZEFSAII (Michael W. Deem and Ramdas Pophale) SiO2 
 PCOD9300401
Probable space group: C 2/C
;
_chemical_formula_sum "Si O2"
_cell_formula_units_Z 52
_cell_length_a 23.598894
_cell_length_b 11.685643
_cell_length_c 8.914215
_cell_angle_alpha 90.000000
_cell_angle_beta 112.264840
_cell_angle_gamma 90.000000
_cell_volume 2274.975698
_symmetry_space_group_name_H-M "C 2/C"
_symmetry_group_IT_number 15
_symmetry_cell_setting 'monoclinic'
loop_
_space_group_symop_operation_xyz
x,y,z
-x,y,1/2-z
-x,-y,-z
x,-y,1/2+z
1/2+x,1/2+y,z
1/2-x,1/2+y,1/2-z
1/2-x,1/2-y,-z
1/2+x,1/2-y,1/2+z
loop_
_atom_site_type_symbol
_atom_site_label
_atom_site_fract_x
_atom_site_fract_y
_atom_site_fract_z
Si Si1 0.262797 0.117445 0.040324
Si Si2 0.402959 0.678789 0.922832
Si Si3 0.187952 0.023854 0.243028
Si Si4 0.417615 0.887526 0.363380
Si Si5 0.822434 0.252993 0.099560
Si Si6 0.407349 0.123827 0.207660
Si Si7 0.500000 0.283723 0.750000
O O1 0.216827 0.075515 0.122676
O O2 0.334028 0.108796 0.145124
O O3 0.250000 0.250000 0.000000
O O4 0.243524 0.040152 0.881148
O O5 0.364454 0.569277 0.835697
O O6 0.424066 0.757615 0.806140
O O7 0.357020 0.758850 0.975711
O O8 0.456922 0.648531 0.092302
O O9 0.163205 0.129336 0.315010
O O10 0.349463 0.848940 0.237329
O O11 0.422803 0.877758 0.547102
O O12 0.459831 0.798278 0.316428
O O13 0.433188 0.014398 0.321768
O O14 0.750000 0.250000 0.000000
#
# Coordination Sequence:
#
# PCOD9300401 Si02
#       7
#     8   8   8   8   8   8   4
#     4  12  24  41  68 109 153 185 230 294 371 462
#     4  11  25  45  68 101 138 195 239 300 360 432
#     4  12  24  42  69 101 149 189 231 290 364 438
#     4  11  25  43  72 103 141 192 242 314 362 437
#     4  11  23  42  66  99 143 186 232 288 366 432
#     4  12  24  42  71 109 145 184 249 296 382 437
#     4  10  26  52  70 100 146 190 264 306 368 430
#
# _framework density 22.857386000000002
#
# number of rings (size 3 to 8) (size 9 to 14) (size 15 to 20)
#    0.000    0.615    3.077    5.538    2.154    3.077 
#    0.000    3.077    0.000    0.000    0.000    0.000 
#    0.000    0.000    0.000    0.000    0.000    0.000 
#
# Total GULP energy -145670.556619 kJ/mol
# GULP energy per Si atom -5602.713716 kJ/mol
# Density = 2.280536 g / cm^3
# Si number density = 22.857386 Si / 1000 Ang^3
#
#
#
# Elastic Constant Matrix: (Units=GPa)
#
#
# Indices 1 2 3 4 5 6 
#
# 1 55.8684 -4.4998 33.5820 0.0000 1.0644 0.0000
# 2 -4.4998 102.5930 52.4708 0.0000 -12.4714 0.0000
# 3 33.5820 52.4708 149.3916 0.0000 -16.2165 0.0000
# 4 0.0000 0.0000 0.0000 45.5217 0.0000 -1.8896
# 5 1.0644 -12.4714 -16.2165 0.0000 47.6891 0.0000
# 6 0.0000 0.0000 0.0000 -1.8896 0.0000 22.2194
#
#
#
# Elastic Compliance Matrix: (Units=1/GPa)
#
#
# Indices 1 2 3 4 5 6 
#
# 1 0.022267 0.004177 -0.006653 0.000000 -0.001667 0.000000
# 2 0.004177 0.012808 -0.005279 0.000000 0.001461 0.000000
# 3 -0.006653 -0.005279 0.010290 0.000000 0.002267 0.000000
# 4 0.000000 0.000000 0.000000 0.022045 0.000000 0.001875
# 5 -0.001667 0.001461 0.002267 0.000000 0.022159 0.000000
# 6 0.000000 0.000000 0.000000 0.001875 0.000000 0.045165
#
#
# Mechanical properties :
#
#
# Convention : Reuss Voigt Hill
#
# Bulk Modulus (GPa) = 33.49701 52.32879 42.91290
# Shear Modulus (GPa) = 31.21180 38.17272 34.69226
#
# Velocity S-wave (km/s) = 3.69928 4.09104 3.90008
# Velocity P-wave (km/s) = 5.73871 6.72747 6.25267
#
# Compressibility (1/GPa) = 0.02985341
#
# Stress axis : x y z
#
# Youngs Moduli (GPa) = 44.91023 78.07681 97.18563
#
# Poissons Ratio (x) = -0.32611 0.64661
# Poissons Ratio (y) = -0.18758 0.51303
# Poissons Ratio (z) = 0.29880 0.41215
#
# Static dielectric constant tensor:
#      x y z
#    x 1.929630 0.000000 0.004940 
#    y 0.000000 1.805170 0.000000 
#    z 0.004940 0.000000 1.899070 
# 
# From -- ./inp_files/65212.got.cif
#   From: 2010.05.17/outbox.cif.g08.bks.cpg/sg15_33_cif.got.tgz:65212.got - 2010.06.03 18:47:42.
