data_PCOD9300668
_publ_section_title
;
Structure prediction by ZEFSAII (Michael W. Deem and Ramdas Pophale) SiO2 
 PCOD9300668
Probable space group: C 2/C
;
_chemical_formula_sum "Si O2"
_cell_formula_units_Z 56
_cell_length_a 8.355813
_cell_length_b 27.216776
_cell_length_c 12.292781
_cell_angle_alpha 90.000000
_cell_angle_beta 124.659929
_cell_angle_gamma 90.000000
_cell_volume 2299.501020
_symmetry_space_group_name_H-M "C 2/C"
_symmetry_group_IT_number 15
_symmetry_cell_setting 'monoclinic'
loop_
_space_group_symop_operation_xyz
x,y,z
-x,y,1/2-z
-x,-y,-z
x,-y,1/2+z
1/2+x,1/2+y,z
1/2-x,1/2+y,1/2-z
1/2-x,1/2-y,-z
1/2+x,1/2-y,1/2+z
loop_
_atom_site_type_symbol
_atom_site_label
_atom_site_fract_x
_atom_site_fract_y
_atom_site_fract_z
Si Si1 0.342009 0.943558 0.608786
Si Si2 0.074028 0.452078 0.400022
Si Si3 0.229839 0.683598 0.801225
Si Si4 0.637290 0.133244 0.545761
Si Si5 0.194605 0.702962 0.165485
Si Si6 0.486136 0.659947 0.094753
Si Si7 0.986561 0.949582 0.863438
O O1 0.500000 0.919835 0.750000
O O2 0.252504 0.901570 0.498064
O O3 0.177050 0.968252 0.619260
O O4 0.456470 0.988918 0.596478
O O5 0.302140 0.448342 0.505529
O O6 0.000000 0.441269 0.250000
O O7 0.986148 0.409969 0.442292
O O8 0.239839 0.661918 0.683608
O O9 0.315167 0.738553 0.843595
O O10 0.000000 0.683915 0.750000
O O11 0.365918 0.654467 0.937831
O O12 0.500465 0.171983 0.429374
O O13 0.332147 0.684821 0.118303
O O14 0.318588 0.692183 0.322752
O O15 0.563675 0.607837 0.167198
O O16 0.000000 0.973804 0.750000
#
# Coordination Sequence:
#
# PCOD9300668 Si02
#       7
#     8   8   8   8   8   8   8
#     4  11  26  43  68 100 139 186 232 283 350 420
#     4  11  23  44  68 102 139 179 232 286 340 409
#     4  12  21  34  60 100 134 170 229 287 339 397
#     4  12  23  42  66  99 140 183 223 285 352 404
#     4  11  20  34  62  95 129 173 229 277 331 400
#     4  11  19  34  58  95 125 166 221 284 325 393
#     4  12  22  43  71  98 129 177 233 285 341 415
#
# _framework density 24.353110000000001
#
# number of rings (size 3 to 8) (size 9 to 14) (size 15 to 20)
#    0.000    0.571    5.714    5.143    0.000    1.143 
#    0.000    4.286    0.000    9.429    0.000    0.000 
#    0.000    0.000    0.000    0.000    0.000    0.000 
#
# Total GULP energy -156446.813914 kJ/mol
# GULP energy per Si atom -5587.386211 kJ/mol
# Density = 2.429768 g / cm^3
# Si number density = 24.353110 Si / 1000 Ang^3
#
#
#
# Elastic Constant Matrix: (Units=GPa)
#
#
# Indices 1 2 3 4 5 6 
#
# 1 56.8862 1.1411 42.6011 0.0000 -13.4928 0.0000
# 2 1.1411 114.3761 9.2826 0.0000 -20.1228 0.0000
# 3 42.6011 9.2826 137.5004 0.0000 5.8564 0.0000
# 4 0.0000 0.0000 0.0000 38.8910 0.0000 -6.6387
# 5 -13.4928 -20.1228 5.8564 0.0000 24.6066 0.0000
# 6 0.0000 0.0000 0.0000 -6.6387 0.0000 17.3836
#
#
#
# Elastic Compliance Matrix: (Units=1/GPa)
#
#
# Indices 1 2 3 4 5 6 
#
# 1 0.031398 0.004762 -0.011061 0.000000 0.023744 0.000000
# 2 0.004762 0.011089 -0.002749 0.000000 0.012333 0.000000
# 3 -0.011061 -0.002749 0.011354 0.000000 -0.011016 0.000000
# 4 0.000000 0.000000 0.000000 0.027506 0.000000 0.010504
# 5 0.023744 0.012333 -0.011016 0.000000 0.066367 0.000000
# 6 0.000000 0.000000 0.000000 0.010504 0.000000 0.061537
#
#
# Mechanical properties :
#
#
# Convention : Reuss Voigt Hill
#
# Bulk Modulus (GPa) = 27.97600 46.09025 37.03313
# Shear Modulus (GPa) = 20.89754 33.22543 27.06149
#
# Velocity S-wave (km/s) = 2.93252 3.69768 3.33710
# Velocity P-wave (km/s) = 4.79362 6.09896 5.48526
#
# Compressibility (1/GPa) = 0.03574492
#
# Stress axis : x y z
#
# Youngs Moduli (GPa) = 31.84883 90.18290 88.07190
#
# Poissons Ratio (x) = -0.42943 0.97414
# Poissons Ratio (y) = -0.15166 0.24213
# Poissons Ratio (z) = 0.35227 0.24793
#
# Static dielectric constant tensor:
#      x y z
#    x 1.989270 0.000000 -0.102290 
#    y 0.000000 1.965460 0.000000 
#    z -0.102290 0.000000 1.964250 
# 
# From -- ./inp_files/82669.got.cif
#   From: 2010.05.17/outbox.cif.g08.bks.cpg/sg15_42_cif.got.tgz:82669.got - 2010.06.03 18:47:42.
