data_PCOD9300597
_publ_section_title
;
Structure prediction by ZEFSAII (Michael W. Deem and Ramdas Pophale) SiO2 
 PCOD9300597
Probable space group: C 2/C
;
_chemical_formula_sum "Si O2"
_cell_formula_units_Z 48
_cell_length_a 11.497403
_cell_length_b 15.551521
_cell_length_c 21.478281
_cell_angle_alpha 90.000000
_cell_angle_beta 37.523871
_cell_angle_gamma 90.000000
_cell_volume 2339.133323
_symmetry_space_group_name_H-M "C 2/C"
_symmetry_group_IT_number 15
_symmetry_cell_setting 'monoclinic'
loop_
_space_group_symop_operation_xyz
x,y,z
-x,y,1/2-z
-x,-y,-z
x,-y,1/2+z
1/2+x,1/2+y,z
1/2-x,1/2+y,1/2-z
1/2-x,1/2-y,-z
1/2+x,1/2-y,1/2+z
loop_
_atom_site_type_symbol
_atom_site_label
_atom_site_fract_x
_atom_site_fract_y
_atom_site_fract_z
Si Si1 0.455154 0.207826 0.909731
Si Si2 0.073614 0.098043 0.648952
Si Si3 0.684484 0.729115 0.804918
Si Si4 0.370528 0.744750 0.038056
Si Si5 0.463467 0.117290 0.336490
Si Si6 0.097639 0.512233 0.526818
O O1 0.587677 0.223296 0.793217
O O2 0.579314 0.249815 0.911764
O O3 0.431865 0.108434 0.937453
O O4 0.250000 0.250000 0.000000
O O5 0.236413 0.173107 0.580134
O O6 0.000000 0.083590 0.750000
O O7 0.898834 0.138596 0.685213
O O8 0.181241 0.015324 0.576595
O O9 0.604026 0.804090 0.793805
O O10 0.569000 0.747208 0.916879
O O11 0.246667 0.661294 0.073464
O O12 0.500000 0.087134 0.250000
O O13 0.480280 0.048709 0.384696
O O14 0.000000 0.500000 0.500000
#
# Coordination Sequence:
#
# PCOD9300597 Si02
#       6
#     8   8   8   8   8   8
#     4  12  27  46  60  93 146 180 222 281 354 420
#     4  11  18  36  70 104 125 166 226 290 325 398
#     4  11  19  40  70  95 131 181 227 276 346 409
#     4  11  19  40  70  98 130 175 228 280 346 417
#     4  11  20  39  75 102 129 176 239 286 330 412
#     4  12  23  44  67 105 137 168 228 293 340 408
#
# _framework density 20.520420000000001
#
# number of rings (size 3 to 8) (size 9 to 14) (size 15 to 20)
#    0.000    0.667    8.333    2.000    0.000    0.667 
#   12.000    0.833    0.000    0.000    0.000    0.000 
#    0.000    0.000    0.000    0.000    0.000    0.000 
#
# Total GULP energy -134015.625358 kJ/mol
# GULP energy per Si atom -5583.984390 kJ/mol
# Density = 2.047371 g / cm^3
# Si number density = 20.520420 Si / 1000 Ang^3
#
#
#
# Elastic Constant Matrix: (Units=GPa)
#
#
# Indices 1 2 3 4 5 6 
#
# 1 44.1593 44.9710 25.0519 -0.0003 4.7090 0.0002
# 2 44.9710 86.4646 55.7100 0.0009 -5.2486 -0.0002
# 3 25.0519 55.7100 188.2221 0.0016 -2.8180 -0.0004
# 4 -0.0003 0.0009 0.0016 14.0473 -0.0002 9.6472
# 5 4.7090 -5.2486 -2.8180 -0.0002 42.8248 0.0000
# 6 0.0002 -0.0002 -0.0004 9.6472 0.0000 10.9839
#
#
#
# Elastic Compliance Matrix: (Units=1/GPa)
#
#
# Indices 1 2 3 4 5 6 
#
# 1 0.051649 -0.028291 0.001364 0.000010 -0.009057 -0.000010
# 2 -0.028291 0.029881 -0.004982 -0.000007 0.006445 0.000007
# 3 0.001364 -0.004982 0.006601 -0.000001 -0.000326 0.000001
# 4 0.000010 -0.000007 -0.000001 0.179400 -0.000001 -0.157568
# 5 -0.009057 0.006445 -0.000326 -0.000001 0.025115 0.000002
# 6 -0.000010 0.000007 0.000001 -0.157568 0.000002 0.229435
#
#
# Mechanical properties :
#
#
# Convention : Reuss Voigt Hill
#
# Bulk Modulus (GPa) = 41.13287 63.36798 52.25042
# Shear Modulus (GPa) = 8.41742 26.44540 17.43141
#
# Velocity S-wave (km/s) = 2.02753 3.59379 2.91772
# Velocity P-wave (km/s) = 5.05663 6.94031 6.07196
#
# Compressibility (1/GPa) = 0.02431146
#
# Stress axis : x y z
#
# Youngs Moduli (GPa) = 19.36153 33.46563 151.48927
#
# Poissons Ratio (x) = 0.94679 -0.20660
# Poissons Ratio (y) = 0.54777 0.75476
# Poissons Ratio (z) = -0.02640 0.16674
#
# Static dielectric constant tensor:
#      x y z
#    x 1.736480 0.000000 0.004210 
#    y 0.000000 1.728190 0.000000 
#    z 0.004210 0.000000 1.757590 
# 
# From -- ./inp_files/238935.got.cif
#   From: 2010.05.17/outbox.cif.g08.bks.cpg/sg15_120_cif.got.tgz:238935.got - 2010.06.03 18:47:42.
