data_PCOD9300140
_publ_section_title
;
Structure prediction by ZEFSAII (Michael W. Deem and Ramdas Pophale) SiO2 
 PCOD9300140
Probable space group: C 2/C
;
_chemical_formula_sum "Si O2"
_cell_formula_units_Z 64
_cell_length_a 14.021717
_cell_length_b 12.321043
_cell_length_c 26.823898
_cell_angle_alpha 90.000000
_cell_angle_beta 137.942811
_cell_angle_gamma 90.000000
_cell_volume 3104.290859
_symmetry_space_group_name_H-M "C 2/C"
_symmetry_group_IT_number 15
_symmetry_cell_setting 'monoclinic'
loop_
_space_group_symop_operation_xyz
x,y,z
-x,y,1/2-z
-x,-y,-z
x,-y,1/2+z
1/2+x,1/2+y,z
1/2-x,1/2+y,1/2-z
1/2-x,1/2-y,-z
1/2+x,1/2-y,1/2+z
loop_
_atom_site_type_symbol
_atom_site_label
_atom_site_fract_x
_atom_site_fract_y
_atom_site_fract_z
Si Si1 0.177025 0.948558 0.398022
Si Si2 0.925828 0.481062 0.055344
Si Si3 0.574919 0.214370 0.122462
Si Si4 0.018095 0.871180 0.010160
Si Si5 0.854412 0.683385 0.900665
Si Si6 0.417549 0.323347 0.269730
Si Si7 0.809128 0.691137 0.572406
Si Si8 0.153959 0.853123 0.828970
O O1 0.260288 0.841394 0.413213
O O2 0.009409 0.925482 0.327588
O O3 0.259654 0.995783 0.477228
O O4 0.219219 0.033624 0.371567
O O5 0.915435 0.405701 0.099971
O O6 0.999639 0.597607 0.086531
O O7 0.012732 0.400698 0.051719
O O8 0.571918 0.243162 0.179522
O O9 0.737050 0.201786 0.166387
O O10 0.508986 0.308664 0.060548
O O11 0.916527 0.803253 0.933085
O O12 0.176052 0.851617 0.051479
O O13 0.000000 0.000000 0.000000
O O14 0.745784 0.666434 0.812190
O O15 0.500000 0.294173 0.250000
O O16 0.750000 0.750000 0.500000
O O17 0.872794 0.782330 0.632302
O O18 0.000000 0.877201 0.750000
#
# Coordination Sequence:
#
# PCOD9300140 Si02
#       8
#     8   8   8   8   8   8   8   8
#     4  11  21  40  71  98 132 171 237 286 328 410
#     4  12  22  40  74  99 129 183 233 278 339 408
#     4  11  25  45  70  98 137 183 233 278 349 419
#     4  11  25  43  67 102 136 181 228 281 345 411
#     4  11  21  43  68  99 137 175 229 289 337 407
#     4  10  26  45  65 103 139 180 230 288 350 404
#     4  11  23  39  60 100 136 171 226 280 335 397
#     4  11  23  40  65 101 139 176 224 282 342 412
#
# _framework density 20.616624999999999
#
# number of rings (size 3 to 8) (size 9 to 14) (size 15 to 20)
#    0.000    1.000    5.000    2.250    3.500    2.500 
#    2.250    0.625    0.000    0.000    0.000    0.000 
#    0.000    0.000    0.000    0.000    0.000    0.000 
#
# Total GULP energy -178292.893409 kJ/mol
# GULP energy per Si atom -5571.652919 kJ/mol
# Density = 2.056970 g / cm^3
# Si number density = 20.616625 Si / 1000 Ang^3
#
#
#
# Elastic Constant Matrix: (Units=GPa)
#
#
# Indices 1 2 3 4 5 6 
#
# 1 48.6018 23.1053 24.7024 0.0000 -10.9942 0.0000
# 2 23.1053 132.0818 34.1132 0.0000 -2.7918 0.0000
# 3 24.7024 34.1132 77.3421 0.0000 5.6615 0.0000
# 4 0.0000 0.0000 0.0000 26.2659 0.0000 1.4295
# 5 -10.9942 -2.7918 5.6615 0.0000 29.8981 0.0000
# 6 0.0000 0.0000 0.0000 1.4295 0.0000 32.3354
#
#
#
# Elastic Compliance Matrix: (Units=1/GPa)
#
#
# Indices 1 2 3 4 5 6 
#
# 1 0.029149 -0.002489 -0.009106 0.000000 0.012211 0.000000
# 2 -0.002489 0.008827 -0.003135 0.000000 0.000503 0.000000
# 3 -0.009106 -0.003135 0.017733 0.000000 -0.006999 0.000000
# 4 0.000000 0.000000 0.000000 0.038164 0.000000 -0.001687
# 5 0.012211 0.000503 -0.006999 0.000000 0.039309 0.000000
# 6 0.000000 0.000000 0.000000 -0.001687 0.000000 0.031000
#
#
# Mechanical properties :
#
#
# Convention : Reuss Voigt Hill
#
# Bulk Modulus (GPa) = 38.09707 46.87418 42.48562
# Shear Modulus (GPa) = 24.70450 29.44021 27.07235
#
# Velocity S-wave (km/s) = 3.46537 3.78297 3.62765
# Velocity P-wave (km/s) = 5.87628 6.47044 6.18050
#
# Compressibility (1/GPa) = 0.02624874
#
# Stress axis : x y z
#
# Youngs Moduli (GPa) = 34.30646 113.29121 56.39210
#
# Poissons Ratio (x) = 0.28200 0.51350
# Poissons Ratio (y) = 0.08539 0.17679
# Poissons Ratio (z) = 0.31239 0.35517
#
# Static dielectric constant tensor:
#      x y z
#    x 1.745980 0.000000 -0.008830 
#    y 0.000000 1.774820 0.000000 
#    z -0.008830 0.000000 1.779370 
# 
# From -- ./inp_files/296169.got.cif
#   From: 2010.05.17/outbox.cif.g08.bks.cpg/sg15_149_cif.got.tgz:296169.got - 2010.06.03 18:47:42.
