data_PCOD9300373
_publ_section_title
;
Structure prediction by ZEFSAII (Michael W. Deem and Ramdas Pophale) SiO2 
 PCOD9300373
Probable space group: C 2/C
;
_chemical_formula_sum "Si O2"
_cell_formula_units_Z 56
_cell_length_a 24.120281
_cell_length_b 11.976460
_cell_length_c 8.797608
_cell_angle_alpha 90.000000
_cell_angle_beta 83.213214
_cell_angle_gamma 90.000000
_cell_volume 2523.605894
_symmetry_space_group_name_H-M "C 2/C"
_symmetry_group_IT_number 15
_symmetry_cell_setting 'monoclinic'
loop_
_space_group_symop_operation_xyz
x,y,z
-x,y,1/2-z
-x,-y,-z
x,-y,1/2+z
1/2+x,1/2+y,z
1/2-x,1/2+y,1/2-z
1/2-x,1/2-y,-z
1/2+x,1/2-y,1/2+z
loop_
_atom_site_type_symbol
_atom_site_label
_atom_site_fract_x
_atom_site_fract_y
_atom_site_fract_z
Si Si1 0.000000 0.242519 0.250000
Si Si2 0.000000 0.279019 0.750000
Si Si3 0.168281 0.959292 0.010437
Si Si4 0.543249 0.599189 0.494479
Si Si5 0.109856 0.356448 0.130821
Si Si6 0.208816 0.246017 0.659010
Si Si7 0.697186 0.334553 0.685908
Si Si8 0.113878 0.593015 0.283321
O O1 0.039495 0.163069 0.336646
O O2 0.045046 0.317484 0.147146
O O3 0.947516 0.355459 0.722536
O O4 0.023585 0.194597 0.616122
O O5 0.101712 0.955699 0.017881
O O6 0.188225 0.907056 0.843868
O O7 0.193550 0.077961 0.049057
O O8 0.182374 0.875227 0.144985
O O9 0.500000 0.500000 0.500000
O O10 0.114694 0.464363 0.235903
O O11 0.149465 0.257768 0.177816
O O12 0.127569 0.390349 0.955686
O O13 0.250000 0.250000 0.500000
O O14 0.245214 0.270706 0.796649
O O15 0.159357 0.336748 0.672301
#
# Coordination Sequence:
#
# PCOD9300373 Si02
#       8
#     4   4   8   8   8   8   8   8
#     4  12  24  48  70 112 154 199 257 318 380 460
#     4  12  26  46  72 110 150 201 261 316 384 466
#     4  11  25  46  76 105 152 191 250 313 383 454
#     4  12  25  41  73 108 155 199 247 314 388 461
#     4  12  29  47  77 111 153 203 262 320 386 465
#     4  10  26  50  76 107 147 200 251 313 386 452
#     4  11  27  47  76 108 146 195 254 313 383 458
#     4  12  29  48  77 109 153 202 261 317 391 456
#
# _framework density 22.190470999999999
#
# number of rings (size 3 to 8) (size 9 to 14) (size 15 to 20)
#    0.000    0.571    4.286    1.714   12.000    2.857 
#    0.000    0.000    0.000    0.000    0.000    0.000 
#    0.000    0.000    0.000    0.000    0.000    0.000 
#
# Total GULP energy -156593.769743 kJ/mol
# GULP energy per Si atom -5592.634634 kJ/mol
# Density = 2.213996 g / cm^3
# Si number density = 22.190471 Si / 1000 Ang^3
#
#
#
# Elastic Constant Matrix: (Units=GPa)
#
#
# Indices 1 2 3 4 5 6 
#
# 1 114.8692 19.5417 20.7258 0.0000 16.9346 0.0000
# 2 19.5417 112.6019 40.0881 0.0000 22.9962 0.0000
# 3 20.7258 40.0881 89.1784 0.0000 16.2432 0.0000
# 4 0.0000 0.0000 0.0000 39.3086 0.0000 12.6678
# 5 16.9346 22.9962 16.2432 0.0000 27.9100 0.0000
# 6 0.0000 0.0000 0.0000 12.6678 0.0000 39.9436
#
#
#
# Elastic Compliance Matrix: (Units=1/GPa)
#
#
# Indices 1 2 3 4 5 6 
#
# 1 0.009702 -0.000223 -0.001248 0.000000 -0.004977 0.000000
# 2 -0.000223 0.011810 -0.003926 0.000000 -0.007311 0.000000
# 3 -0.001248 -0.003926 0.014028 0.000000 -0.004172 0.000000
# 4 0.000000 0.000000 0.000000 0.028336 0.000000 -0.008986
# 5 -0.004977 -0.007311 -0.004172 0.000000 0.047301 0.000000
# 6 0.000000 0.000000 0.000000 -0.008986 0.000000 0.027885
#
#
# Mechanical properties :
#
#
# Convention : Reuss Voigt Hill
#
# Bulk Modulus (GPa) = 40.40842 53.04008 46.72425
# Shear Modulus (GPa) = 31.62440 37.18536 34.40488
#
# Velocity S-wave (km/s) = 3.77919 4.09802 3.94183
# Velocity P-wave (km/s) = 6.10675 6.80777 6.46677
#
# Compressibility (1/GPa) = 0.02474732
#
# Stress axis : x y z
#
# Youngs Moduli (GPa) = 103.06707 84.67263 71.28509
#
# Poissons Ratio (x) = 0.01889 0.08897
# Poissons Ratio (y) = 0.02299 0.27983
# Poissons Ratio (z) = 0.12864 0.33238
#
# Static dielectric constant tensor:
#      x y z
#    x 1.792570 0.000000 -0.013880 
#    y 0.000000 1.832420 0.000000 
#    z -0.013880 0.000000 1.865970 
# 
# From -- ./inp_files/65468.got.cif
#   From: 2010.05.17/outbox.cif.g08.bks.cpg/sg15_33_cif.got.tgz:65468.got - 2010.06.03 18:47:42.
