data_PCOD9300704
_publ_section_title
;
Structure prediction by ZEFSAII (Michael W. Deem and Ramdas Pophale) SiO2 
 PCOD9300704
Probable space group: C 2/C
;
_chemical_formula_sum "Si O2"
_cell_formula_units_Z 56
_cell_length_a 8.105814
_cell_length_b 24.550046
_cell_length_c 15.865808
_cell_angle_alpha 90.000000
_cell_angle_beta 127.737077
_cell_angle_gamma 90.000000
_cell_volume 2496.853018
_symmetry_space_group_name_H-M "C 2/C"
_symmetry_group_IT_number 15
_symmetry_cell_setting 'monoclinic'
loop_
_space_group_symop_operation_xyz
x,y,z
-x,y,1/2-z
-x,-y,-z
x,-y,1/2+z
1/2+x,1/2+y,z
1/2-x,1/2+y,1/2-z
1/2-x,1/2-y,-z
1/2+x,1/2-y,1/2+z
loop_
_atom_site_type_symbol
_atom_site_label
_atom_site_fract_x
_atom_site_fract_y
_atom_site_fract_z
Si Si1 0.134157 0.806745 0.984175
Si Si2 0.692523 0.276419 0.742826
Si Si3 0.080579 0.045592 0.644769
Si Si4 0.000000 0.498018 0.750000
Si Si5 0.356666 0.864951 0.910872
Si Si6 0.607519 0.041152 0.462945
Si Si7 0.000000 0.950308 0.750000
Si Si8 0.243160 0.341641 0.296155
O O1 0.278328 0.847607 0.977438
O O2 0.907192 0.804158 0.870363
O O3 0.250000 0.750000 0.000000
O O4 0.137662 0.823159 0.081409
O O5 0.500000 0.274163 0.750000
O O6 0.852395 0.315263 0.842838
O O7 0.748686 0.213811 0.743022
O O8 0.137396 0.105037 0.700631
O O9 0.857595 0.040404 0.530520
O O10 0.298223 0.034793 0.666445
O O11 0.065374 0.993086 0.699651
O O12 0.000347 0.465024 0.837703
O O13 0.567183 0.897892 0.982631
O O14 0.185166 0.909605 0.830365
O O15 0.500000 0.000000 0.500000
O O16 0.000000 0.350703 0.250000
#
# Coordination Sequence:
#
# PCOD9300704 Si02
#       8
#     8   8   8   4   8   8   4   8
#     4  11  19  35  68 103 129 175 237 294 348 420
#     4   9  18  36  61  95 126 171 229 283 341 406
#     4  12  26  44  68 104 143 182 235 292 363 431
#     4  12  26  46  69  97 144 182 234 302 342 432
#     4  11  21  40  69  96 133 182 237 288 337 426
#     4  12  27  45  69 101 142 193 240 287 362 437
#     4  12  22  46  69  99 144 190 236 284 360 428
#     4  11  22  38  62 102 136 169 224 293 356 408
#
# _framework density 22.428232000000001
#
# number of rings (size 3 to 8) (size 9 to 14) (size 15 to 20)
#    0.000    0.857   10.000    0.429    2.000    3.429 
#    0.000    0.714    0.000    0.857    0.000    0.000 
#    0.000    0.000    0.000    0.000    0.000    0.000 
#
# Total GULP energy -155988.006786 kJ/mol
# GULP energy per Si atom -5571.000242 kJ/mol
# Density = 2.237718 g / cm^3
# Si number density = 22.428232 Si / 1000 Ang^3
#
#
#
# Elastic Constant Matrix: (Units=GPa)
#
#
# Indices 1 2 3 4 5 6 
#
# 1 45.2153 21.9437 27.2346 0.0000 17.3895 0.0000
# 2 21.9437 109.6086 2.0814 0.0000 8.1539 0.0000
# 3 27.2346 2.0814 70.0475 0.0000 7.8531 0.0000
# 4 0.0000 0.0000 0.0000 33.8196 0.0000 -5.5628
# 5 17.3895 8.1539 7.8531 0.0000 31.3293 0.0000
# 6 0.0000 0.0000 0.0000 -5.5628 0.0000 66.2886
#
#
#
# Elastic Compliance Matrix: (Units=1/GPa)
#
#
# Indices 1 2 3 4 5 6 
#
# 1 0.039907 -0.006462 -0.013406 0.000000 -0.017109 0.000000
# 2 -0.006462 0.010350 0.002166 0.000000 0.000350 0.000000
# 3 -0.013406 0.002166 0.019192 0.000000 0.002067 0.000000
# 4 0.000000 0.000000 0.000000 0.029983 0.000000 0.002516
# 5 -0.017109 0.000350 0.002067 0.000000 0.040806 0.000000
# 6 0.000000 0.000000 0.000000 0.002516 0.000000 0.015297
#
#
# Mechanical properties :
#
#
# Convention : Reuss Voigt Hill
#
# Bulk Modulus (GPa) = 29.37324 36.37676 32.87500
# Shear Modulus (GPa) = 24.71726 37.86159 31.28943
#
# Velocity S-wave (km/s) = 3.32333 4.11313 3.73914
# Velocity P-wave (km/s) = 5.27741 6.22989 5.77332
#
# Compressibility (1/GPa) = 0.03404459
#
# Stress axis : x y z
#
# Youngs Moduli (GPa) = 25.05807 96.61913 52.10436
#
# Poissons Ratio (x) = 0.62437 0.69851
# Poissons Ratio (y) = 0.16193 -0.11284
# Poissons Ratio (z) = 0.33593 -0.20925
#
# Static dielectric constant tensor:
#      x y z
#    x 2.510650 0.000000 0.090240 
#    y 0.000000 2.003520 0.000000 
#    z 0.090240 0.000000 1.884930 
# 
# From -- ./inp_files/193348.got.cif
#   From: 2010.05.17/outbox.cif.g08.bks.cpg/sg15_97_cif.got.tgz:193348.got - 2010.06.03 18:47:42.
