data_PCOD9300895
_publ_section_title
;
Structure prediction by ZEFSAII (Michael W. Deem and Ramdas Pophale) SiO2 
 PCOD9300895
Probable space group: C 2/C
;
_chemical_formula_sum "Si O2"
_cell_formula_units_Z 56
_cell_length_a 21.037518
_cell_length_b 11.282576
_cell_length_c 23.480524
_cell_angle_alpha 90.000000
_cell_angle_beta 152.037594
_cell_angle_gamma 90.000000
_cell_volume 2613.265241
_symmetry_space_group_name_H-M "C 2/C"
_symmetry_group_IT_number 15
_symmetry_cell_setting 'monoclinic'
loop_
_space_group_symop_operation_xyz
x,y,z
-x,y,1/2-z
-x,-y,-z
x,-y,1/2+z
1/2+x,1/2+y,z
1/2-x,1/2+y,1/2-z
1/2-x,1/2-y,-z
1/2+x,1/2-y,1/2+z
loop_
_atom_site_type_symbol
_atom_site_label
_atom_site_fract_x
_atom_site_fract_y
_atom_site_fract_z
Si Si1 0.783734 0.437429 0.194878
Si Si2 0.095808 0.989056 0.704382
Si Si3 0.255234 0.628035 0.079592
Si Si4 0.117924 0.429596 0.628163
Si Si5 0.156276 0.607079 0.878017
Si Si6 0.035641 0.161667 0.560062
Si Si7 0.979680 0.753378 0.900132
O O1 0.874019 0.529609 0.300289
O O2 0.777434 0.456194 0.123408
O O3 0.634435 0.424707 0.102386
O O4 0.862475 0.316997 0.274753
O O5 0.151726 0.966403 0.812989
O O6 0.240070 0.969827 0.786495
O O7 0.002920 0.874052 0.620706
O O8 0.026417 0.098749 0.614853
O O9 0.328857 0.751754 0.122395
O O10 0.209261 0.578448 0.982361
O O11 0.118601 0.675408 0.005608
O O12 0.102879 0.289795 0.620389
O O13 0.000000 0.500000 0.500000
O O14 0.000000 0.577043 0.750000
O O15 0.934507 0.204984 0.428292
#
# Coordination Sequence:
#
# PCOD9300895 Si02
#       7
#     8   8   8   8   8   8   8
#     4  11  20  33  53  80 118 138 186 233 275 340
#     4  11  22  35  53  83 117 151 183 233 278 346
#     4  11  20  33  55  79 116 149 182 234 289 331
#     4  11  20  34  56  77 113 149 182 228 276 337
#     4  11  20  32  53  81 108 146 187 235 285 330
#     4  11  22  35  54  83 115 153 184 223 288 341
#     4  12  17  36  51  82 117 143 180 227 288 333
#
# _framework density 21.429130000000001
#
# number of rings (size 3 to 8) (size 9 to 14) (size 15 to 20)
#    0.000    0.857    8.571    0.429    0.000    0.000 
#    0.000    0.000    0.000    0.857    0.000    5.000 
#    0.000    0.000    0.000    0.000    0.000    0.000 
#
# Total GULP energy -155905.970214 kJ/mol
# GULP energy per Si atom -5568.070365 kJ/mol
# Density = 2.138036 g / cm^3
# Si number density = 21.429130 Si / 1000 Ang^3
#
#
#
# Elastic Constant Matrix: (Units=GPa)
#
#
# Indices 1 2 3 4 5 6 
#
# 1 63.8600 20.2568 46.3743 0.0003 -32.2290 0.0001
# 2 20.2568 46.8638 17.3358 0.0011 -18.6298 0.0003
# 3 46.3743 17.3358 127.0742 0.0009 -43.0228 0.0003
# 4 0.0003 0.0011 0.0009 29.7020 0.0003 -9.6114
# 5 -32.2290 -18.6298 -43.0228 0.0003 60.2584 0.0001
# 6 0.0001 0.0003 0.0003 -9.6114 0.0001 20.2504
#
#
#
# Elastic Compliance Matrix: (Units=1/GPa)
#
#
# Indices 1 2 3 4 5 6 
#
# 1 0.025748 -0.005859 -0.005998 0.000000 0.007678 0.000000
# 2 -0.005859 0.025762 0.000342 -0.000001 0.005075 -0.000001
# 3 -0.005998 0.000342 0.011818 0.000000 0.005336 0.000000
# 4 0.000000 -0.000001 0.000000 0.039777 -0.000001 0.018879
# 5 0.007678 0.005075 0.005336 -0.000001 0.026080 -0.000001
# 6 0.000000 -0.000001 0.000000 0.018879 -0.000001 0.058343
#
#
# Mechanical properties :
#
#
# Convention : Reuss Voigt Hill
#
# Bulk Modulus (GPa) = 24.81473 45.08130 34.94801
# Shear Modulus (GPa) = 22.32245 32.29756 27.31000
#
# Velocity S-wave (km/s) = 3.23102 3.88645 3.57379
# Velocity P-wave (km/s) = 5.05216 6.42047 5.77697
#
# Compressibility (1/GPa) = 0.04029864
#
# Stress axis : x y z
#
# Youngs Moduli (GPa) = 38.83805 38.81694 84.61652
#
# Poissons Ratio (x) = 0.22742 0.50751
# Poissons Ratio (y) = 0.22754 -0.02893
# Poissons Ratio (z) = 0.23294 -0.01327
#
# Static dielectric constant tensor:
#      x y z
#    x 1.879070 0.000000 -0.021010 
#    y 0.000000 1.837140 0.000000 
#    z -0.021010 0.000000 1.888610 
# 
# From -- ./inp_files/281902.got.cif
#   From: 2010.05.17/outbox.cif.g08.bks.cpg/sg15_141_cif.got.tgz:281902.got - 2010.06.03 18:47:42.
