data_PCOD9300470
_publ_section_title
;
Structure prediction by ZEFSAII (Michael W. Deem and Ramdas Pophale) SiO2 
 PCOD9300470
Probable space group: C 2/C
;
_chemical_formula_sum "Si O2"
_cell_formula_units_Z 52
_cell_length_a 11.038491
_cell_length_b 9.033807
_cell_length_c 24.069084
_cell_angle_alpha 90.000000
_cell_angle_beta 87.988982
_cell_angle_gamma 90.000000
_cell_volume 2398.681099
_symmetry_space_group_name_H-M "C 2/C"
_symmetry_group_IT_number 15
_symmetry_cell_setting 'monoclinic'
loop_
_space_group_symop_operation_xyz
x,y,z
-x,y,1/2-z
-x,-y,-z
x,-y,1/2+z
1/2+x,1/2+y,z
1/2-x,1/2+y,1/2-z
1/2-x,1/2-y,-z
1/2+x,1/2-y,1/2+z
loop_
_atom_site_type_symbol
_atom_site_label
_atom_site_fract_x
_atom_site_fract_y
_atom_site_fract_z
Si Si1 0.033289 0.858814 0.931461
Si Si2 0.615480 0.123305 0.837020
Si Si3 0.008927 0.334484 0.627559
Si Si4 0.784841 0.395096 0.964543
Si Si5 0.500000 0.318684 0.750000
Si Si6 0.106011 0.965565 0.155782
Si Si7 0.625386 0.818017 0.981178
O O1 0.076719 0.733125 0.887452
O O2 0.152778 0.950544 0.946403
O O3 0.934816 0.960858 0.902105
O O4 0.976772 0.772941 0.984209
O O5 0.594573 0.216066 0.781472
O O6 0.527627 0.981224 0.839168
O O7 0.752546 0.070816 0.843524
O O8 0.131218 0.359709 0.589595
O O9 0.904390 0.311723 0.583055
O O10 0.031399 0.187168 0.662046
O O11 0.859202 0.512165 0.999677
O O12 0.750000 0.250000 0.000000
O O13 0.432647 0.420872 0.795875
O O14 0.750000 0.750000 0.000000
#
# Coordination Sequence:
#
# PCOD9300470 Si02
#       7
#     8   8   8   8   4   8   8
#     4  11  23  43  66  99 143 184 228 272 327 397
#     4  11  24  48  71  98 132 175 223 286 349 404
#     4  12  24  40  68 102 135 185 227 269 333 404
#     4  12  23  39  64  95 147 190 227 270 319 388
#     4  10  28  50  72 100 128 164 222 296 356 418
#     4  11  26  46  73 101 131 172 228 283 349 407
#     4  12  25  38  62 100 145 189 229 265 323 398
#
# _framework density 21.67858
#
# number of rings (size 3 to 8) (size 9 to 14) (size 15 to 20)
#    0.000    0.615    4.615    3.231    2.154    4.308 
#    0.000    0.000    0.000    0.000    0.000    0.000 
#    0.000    0.000    0.000    0.000    0.000    0.000 
#
# Total GULP energy -145597.417218 kJ/mol
# GULP energy per Si atom -5599.900662 kJ/mol
# Density = 2.162924 g / cm^3
# Si number density = 21.678580 Si / 1000 Ang^3
#
#
#
# Elastic Constant Matrix: (Units=GPa)
#
#
# Indices 1 2 3 4 5 6 
#
# 1 132.8491 52.0440 22.3659 0.0000 18.8831 0.0000
# 2 52.0440 137.3035 41.0825 0.0000 4.8927 0.0000
# 3 22.3659 41.0825 66.3625 0.0000 11.3855 0.0000
# 4 0.0000 0.0000 0.0000 43.5137 0.0000 10.0526
# 5 18.8831 4.8927 11.3855 0.0000 16.3816 0.0000
# 6 0.0000 0.0000 0.0000 10.0526 0.0000 38.4445
#
#
#
# Elastic Compliance Matrix: (Units=1/GPa)
#
#
# Indices 1 2 3 4 5 6 
#
# 1 0.010531 -0.003818 0.000797 0.000000 -0.011552 0.000000
# 2 -0.003818 0.010349 -0.006068 0.000000 0.005528 0.000000
# 3 0.000797 -0.006068 0.020895 0.000000 -0.013628 0.000000
# 4 0.000000 0.000000 0.000000 0.024459 0.000000 -0.006396
# 5 -0.011552 0.005528 -0.013628 0.000000 0.082181 0.000000
# 6 0.000000 0.000000 0.000000 -0.006396 0.000000 0.027684
#
#
# Mechanical properties :
#
#
# Convention : Reuss Voigt Hill
#
# Bulk Modulus (GPa) = 42.38173 63.05555 52.71864
# Shear Modulus (GPa) = 24.73475 34.40282 29.56879
#
# Velocity S-wave (km/s) = 3.38150 3.98798 3.69719
# Velocity P-wave (km/s) = 5.90242 7.09612 6.52662
#
# Compressibility (1/GPa) = 0.02359508
#
# Stress axis : x y z
#
# Youngs Moduli (GPa) = 94.95623 96.62586 47.85817
#
# Poissons Ratio (x) = 0.36896 -0.03812
# Poissons Ratio (y) = 0.36259 0.29042
# Poissons Ratio (z) = -0.07564 0.58636
#
# Static dielectric constant tensor:
#      x y z
#    x 1.802980 0.000000 0.020200 
#    y 0.000000 1.830050 0.000000 
#    z 0.020200 0.000000 1.767030 
# 
# From -- ./inp_files/291191.got.cif
#   From: 2010.05.17/outbox.cif.g08.bks.cpg/sg15_146_cif.got.tgz:291191.got - 2010.06.03 18:47:42.
