data_PCOD9300043
_publ_section_title
;
Structure prediction by ZEFSAII (Michael W. Deem and Ramdas Pophale) SiO2 
 PCOD9300043
Probable space group: C 2/C
;
_chemical_formula_sum "Si O2"
_cell_formula_units_Z 44
_cell_length_a 13.673522
_cell_length_b 9.875885
_cell_length_c 16.855145
_cell_angle_alpha 90.000000
_cell_angle_beta 123.284648
_cell_angle_gamma 90.000000
_cell_volume 1902.705260
_symmetry_space_group_name_H-M "C 2/C"
_symmetry_group_IT_number 15
_symmetry_cell_setting 'monoclinic'
loop_
_space_group_symop_operation_xyz
x,y,z
-x,y,1/2-z
-x,-y,-z
x,-y,1/2+z
1/2+x,1/2+y,z
1/2-x,1/2+y,1/2-z
1/2-x,1/2-y,-z
1/2+x,1/2-y,1/2+z
loop_
_atom_site_type_symbol
_atom_site_label
_atom_site_fract_x
_atom_site_fract_y
_atom_site_fract_z
Si Si1 0.861901 0.880240 0.838492
Si Si2 0.851788 0.445241 0.321539
Si Si3 0.071547 0.206044 0.360604
Si Si4 0.324065 0.097922 0.470091
Si Si5 0.500000 0.080589 0.250000
Si Si6 0.265959 0.869778 0.567182
O O1 0.839539 0.717847 0.813731
O O2 0.766914 0.981806 0.760180
O O3 0.843102 0.890751 0.923774
O O4 0.987758 0.911443 0.857106
O O5 0.870462 0.508650 0.417617
O O6 0.950295 0.497973 0.303791
O O7 0.202698 0.171211 0.391844
O O8 0.089585 0.297116 0.448227
O O9 0.000000 0.251085 0.250000
O O10 0.287521 0.002814 0.526311
O O11 0.615735 0.158150 0.330015
O O12 0.250000 0.750000 0.500000
#
# Coordination Sequence:
#
# PCOD9300043 Si02
#       6
#     8   8   8   8   4   8
#     4  11  25  43  72 100 143 179 231 293 347 413
#     4  11  24  45  68 106 135 188 233 283 349 417
#     4  11  25  45  71 102 138 187 227 293 345 419
#     4  11  25  44  73 101 136 184 240 278 353 422
#     4  10  26  42  72  98 142 186 226 286 344 414
#     4  11  24  45  65 106 136 177 232 285 348 414
#
# _framework density 23.124970000000001
#
# number of rings (size 3 to 8) (size 9 to 14) (size 15 to 20)
#    0.000    1.091    3.636    1.091   10.182    2.182 
#    8.182    0.000    0.000    0.000    0.000    0.000 
#    0.000    0.000    0.000    0.000    0.000    0.000 
#
# Total GULP energy -122831.063696 kJ/mol
# GULP energy per Si atom -5583.230168 kJ/mol
# Density = 2.307234 g / cm^3
# Si number density = 23.124970 Si / 1000 Ang^3
#
#
#
# Elastic Constant Matrix: (Units=GPa)
#
#
# Indices 1 2 3 4 5 6 
#
# 1 112.8962 1.4784 34.0858 0.0000 -18.5599 0.0000
# 2 1.4784 45.4024 18.6171 0.0000 9.5383 0.0000
# 3 34.0858 18.6171 119.1779 0.0000 8.3661 0.0000
# 4 0.0000 0.0000 0.0000 34.3858 0.0000 -8.3734
# 5 -18.5599 9.5383 8.3661 0.0000 53.6924 0.0000
# 6 0.0000 0.0000 0.0000 -8.3734 0.0000 36.9529
#
#
#
# Elastic Compliance Matrix: (Units=1/GPa)
#
#
# Indices 1 2 3 4 5 6 
#
# 1 0.010541 0.000153 -0.003329 0.000000 0.004135 0.000000
# 2 0.000153 0.024263 -0.003574 0.000000 -0.003700 0.000000
# 3 -0.003329 -0.003574 0.010047 0.000000 -0.002081 0.000000
# 4 0.000000 0.000000 0.000000 0.030780 0.000000 0.006975
# 5 0.004135 -0.003700 -0.002081 0.000000 0.021036 0.000000
# 6 0.000000 0.000000 0.000000 0.006975 0.000000 0.028642
#
#
# Mechanical properties :
#
#
# Convention : Reuss Voigt Hill
#
# Bulk Modulus (GPa) = 31.89680 42.87100 37.38390
# Shear Modulus (GPa) = 33.49872 39.89256 36.69564
#
# Velocity S-wave (km/s) = 3.81017 4.15792 3.98784
# Velocity P-wave (km/s) = 5.76018 6.45214 6.11596
#
# Compressibility (1/GPa) = 0.03135111
#
# Stress axis : x y z
#
# Youngs Moduli (GPa) = 94.87182 41.21447 99.52883
#
# Poissons Ratio (x) = -0.00631 0.33132
# Poissons Ratio (y) = -0.01452 0.35574
# Poissons Ratio (z) = 0.31581 0.14731
#
# Static dielectric constant tensor:
#      x y z
#    x 1.914340 0.000000 0.033960 
#    y 0.000000 3.129120 0.000000 
#    z 0.033960 0.000000 1.920080 
# 
# From -- ./inp_files/196651.got.cif
#   From: 2010.05.17/outbox.cif.g08.bks.cpg/sg15_99_cif.got.tgz:196651.got - 2010.06.03 18:47:42.
