data_PCOD9300190
_publ_section_title
;
Structure prediction by ZEFSAII (Michael W. Deem and Ramdas Pophale) SiO2 
 PCOD9300190
Probable space group: C 2/C
;
_chemical_formula_sum "Si O2"
_cell_formula_units_Z 44
_cell_length_a 24.373895
_cell_length_b 5.077455
_cell_length_c 22.033690
_cell_angle_alpha 90.000000
_cell_angle_beta 141.000939
_cell_angle_gamma 90.000000
_cell_volume 1716.015745
_symmetry_space_group_name_H-M "C 2/C"
_symmetry_group_IT_number 15
_symmetry_cell_setting 'monoclinic'
loop_
_space_group_symop_operation_xyz
x,y,z
-x,y,1/2-z
-x,-y,-z
x,-y,1/2+z
1/2+x,1/2+y,z
1/2-x,1/2+y,1/2-z
1/2-x,1/2-y,-z
1/2+x,1/2-y,1/2+z
loop_
_atom_site_type_symbol
_atom_site_label
_atom_site_fract_x
_atom_site_fract_y
_atom_site_fract_z
Si Si1 0.839680 0.172014 0.148144
Si Si2 0.288689 0.817074 0.308995
Si Si3 0.965884 0.334396 0.597259
Si Si4 0.500000 0.039244 0.750000
Si Si5 0.946321 0.832131 0.867534
Si Si6 0.269155 0.680899 0.431841
O O1 0.916082 0.274652 0.169850
O O2 0.885235 0.174619 0.254185
O O3 0.763493 0.389068 0.083094
O O4 0.797078 0.893080 0.096647
O O5 0.228649 0.624787 0.216374
O O6 0.385674 0.744026 0.371432
O O7 0.264644 0.734719 0.355761
O O8 0.869020 0.248140 0.529946
O O9 0.014399 0.362031 0.703585
O O10 0.977756 0.618327 0.576920
O O11 0.013238 0.119701 0.596942
#
# Coordination Sequence:
#
# PCOD9300190 Si02
#       6
#     8   8   8   4   8   8
#     4  11  23  42  69  93 133 170 223 270 321 394
#     4  12  22  39  69  99 130 177 213 266 330 394
#     4  11  26  42  66  97 136 168 222 274 323 389
#     4  10  26  46  68  96 128 186 218 268 344 384
#     4  11  22  42  66  95 134 178 211 263 329 397
#     4  12  24  42  66 103 130 167 222 277 319 387
#
# _framework density 25.640792000000001
#
# number of rings (size 3 to 8) (size 9 to 14) (size 15 to 20)
#    0.000    0.727    3.636    4.364    0.000    9.455 
#    0.000    0.000    0.000    0.000    0.000    0.000 
#    0.000    0.000    0.000    0.000    0.000    0.000 
#
# Total GULP energy -123460.044792 kJ/mol
# GULP energy per Si atom -5611.820218 kJ/mol
# Density = 2.558243 g / cm^3
# Si number density = 25.640792 Si / 1000 Ang^3
#
#
#
# Elastic Constant Matrix: (Units=GPa)
#
#
# Indices 1 2 3 4 5 6 
#
# 1 95.3660 1.1738 2.5529 0.0109 26.2470 0.0511
# 2 1.1738 98.6263 18.8937 0.0234 13.3460 0.0424
# 3 2.5529 18.8937 62.6857 -0.0042 22.4181 -0.0242
# 4 0.0109 0.0234 -0.0042 28.2879 -0.0027 27.0784
# 5 26.2470 13.3460 22.4181 -0.0027 40.8912 -0.0310
# 6 0.0511 0.0424 -0.0242 27.0784 -0.0310 106.9333
#
#
#
# Elastic Compliance Matrix: (Units=1/GPa)
#
#
# Indices 1 2 3 4 5 6 
#
# 1 0.013245 0.000676 0.002956 0.000003 -0.010343 -0.000010
# 2 0.000676 0.010950 -0.002357 -0.000006 -0.002716 -0.000005
# 3 0.002956 -0.002357 0.021079 0.000003 -0.012684 0.000000
# 4 0.000003 -0.000006 0.000003 0.046662 -0.000008 -0.011816
# 5 -0.010343 -0.002716 -0.012684 -0.000008 0.038934 0.000016
# 6 -0.000010 -0.000005 0.000000 -0.011816 0.000016 0.012344
#
#
# Mechanical properties :
#
#
# Convention : Reuss Voigt Hill
#
# Bulk Modulus (GPa) = 20.91031 33.54653 27.22842
# Shear Modulus (GPa) = 31.92738 50.82632 41.37685
#
# Velocity S-wave (km/s) = 3.53254 4.45707 4.02146
# Velocity P-wave (km/s) = 4.98109 6.29277 5.67495
#
# Compressibility (1/GPa) = 0.04782329
#
# Stress axis : x y z
#
# Youngs Moduli (GPa) = 75.50001 91.32259 47.44105
#
# Poissons Ratio (x) = -0.06171 -0.14022
# Poissons Ratio (y) = -0.05102 0.11181
# Poissons Ratio (z) = -0.22316 0.21523
#
# Static dielectric constant tensor:
#      x y z
#    x 1.962530 -0.000010 -0.038890 
#    y -0.000010 1.946360 0.000000 
#    z -0.038890 0.000000 2.051760 
# 
# From -- ./inp_files/281257.got.cif
#   From: 2010.05.17/outbox.cif.g08.bks.cpg/sg15_141_cif.got.tgz:281257.got - 2010.06.03 18:47:42.
