data_PCOD9300815
_publ_section_title
;
Structure prediction by ZEFSAII (Michael W. Deem and Ramdas Pophale) SiO2 
 PCOD9300815
Probable space group: C 2/C
;
_chemical_formula_sum "Si O2"
_cell_formula_units_Z 56
_cell_length_a 8.938406
_cell_length_b 11.564846
_cell_length_c 22.907599
_cell_angle_alpha 90.000000
_cell_angle_beta 66.386439
_cell_angle_gamma 90.000000
_cell_volume 2169.711536
_symmetry_space_group_name_H-M "C 2/C"
_symmetry_group_IT_number 15
_symmetry_cell_setting 'monoclinic'
loop_
_space_group_symop_operation_xyz
x,y,z
-x,y,1/2-z
-x,-y,-z
x,-y,1/2+z
1/2+x,1/2+y,z
1/2-x,1/2+y,1/2-z
1/2-x,1/2-y,-z
1/2+x,1/2-y,1/2+z
loop_
_atom_site_type_symbol
_atom_site_label
_atom_site_fract_x
_atom_site_fract_y
_atom_site_fract_z
Si Si1 0.290354 0.643784 0.127071
Si Si2 0.865195 0.263069 0.316046
Si Si3 0.658097 0.046261 0.379779
Si Si4 0.591648 0.761526 0.566629
Si Si5 0.311820 0.991146 0.260749
Si Si6 0.144947 0.076364 0.952794
Si Si7 0.527095 0.834353 0.077254
O O1 0.150163 0.729718 0.125064
O O2 0.283328 0.598828 0.194090
O O3 0.266242 0.522038 0.098983
O O4 0.454445 0.706995 0.078786
O O5 0.786465 0.152205 0.360446
O O6 0.768340 0.362573 0.293107
O O7 0.948129 0.331440 0.356525
O O8 0.000000 0.221575 0.250000
O O9 0.498407 0.116594 0.425441
O O10 0.690879 0.005930 0.307993
O O11 0.615287 0.924704 0.417774
O O12 0.750000 0.750000 0.500000
O O13 0.453823 0.669541 0.570370
O O14 0.500000 0.008368 0.250000
O O15 0.289492 0.130155 0.970262
O O16 0.000000 0.000000 0.000000
#
# Coordination Sequence:
#
# PCOD9300815 Si02
#       7
#     8   8   8   8   8   8   8
#     4  12  25  43  70 104 137 177 235 286 343 418
#     4  11  21  41  66  94 139 186 223 280 347 410
#     4  12  22  41  71  97 140 182 233 281 341 421
#     4  12  23  45  73  99 135 188 231 285 350 409
#     4  11  19  39  67  95 133 185 222 275 347 408
#     4  12  24  48  72  95 138 184 226 287 350 403
#     4  12  24  42  68 102 137 177 225 283 347 408
#
# _framework density 25.809884
#
# number of rings (size 3 to 8) (size 9 to 14) (size 15 to 20)
#    0.000    0.286   10.000    0.857    0.000    1.714 
#    0.000    3.571    0.000    0.000    0.000    0.000 
#    0.000    0.000    0.000    0.000    0.000    0.000 
#
# Total GULP energy -155920.574440 kJ/mol
# GULP energy per Si atom -5568.591944 kJ/mol
# Density = 2.575114 g / cm^3
# Si number density = 25.809884 Si / 1000 Ang^3
#
#
#
# Elastic Constant Matrix: (Units=GPa)
#
#
# Indices 1 2 3 4 5 6 
#
# 1 63.2851 65.3331 12.2658 0.0000 -13.2068 0.0000
# 2 65.3331 179.8837 29.3013 0.0000 -17.8529 0.0000
# 3 12.2658 29.3013 88.4850 0.0000 -16.9041 0.0000
# 4 0.0000 0.0000 0.0000 44.4546 0.0000 -10.3222
# 5 -13.2068 -17.8529 -16.9041 0.0000 41.0484 0.0000
# 6 0.0000 0.0000 0.0000 -10.3222 0.0000 53.5675
#
#
#
# Elastic Compliance Matrix: (Units=1/GPa)
#
#
# Indices 1 2 3 4 5 6 
#
# 1 0.026043 -0.009049 0.000255 0.000000 0.004549 0.000000
# 2 -0.009049 0.009161 -0.001709 0.000000 0.000369 0.000000
# 3 0.000255 -0.001709 0.012705 0.000000 0.004571 0.000000
# 4 0.000000 0.000000 0.000000 0.023548 0.000000 0.004538
# 5 0.004549 0.000369 0.004571 0.000000 0.027868 0.000000
# 6 0.000000 0.000000 0.000000 0.004538 0.000000 0.019542
#
#
# Mechanical properties :
#
#
# Convention : Reuss Voigt Hill
#
# Bulk Modulus (GPa) = 37.16873 60.60603 48.88738
# Shear Modulus (GPa) = 33.59320 42.79768 38.19544
#
# Velocity S-wave (km/s) = 3.61163 4.07651 3.85109
# Velocity P-wave (km/s) = 5.64128 6.75943 6.22551
#
# Compressibility (1/GPa) = 0.02690434
#
# Stress axis : x y z
#
# Youngs Moduli (GPa) = 38.39818 109.16306 78.70916
#
# Poissons Ratio (x) = 0.98780 -0.02010
# Poissons Ratio (y) = 0.34746 0.13448
# Poissons Ratio (z) = -0.00981 0.18652
#
# Static dielectric constant tensor:
#      x y z
#    x 2.133870 0.000000 0.020110 
#    y 0.000000 2.092910 0.000000 
#    z 0.020110 0.000000 2.170020 
# 
# From -- ./inp_files/307383.got.cif
#   From: 2010.05.17/outbox.cif.g08.bks.cpg/sg15_154_cif.got.tgz:307383.got - 2010.06.03 18:47:42.
