data_PCOD9300102
_publ_section_title
;
Structure prediction by ZEFSAII (Michael W. Deem and Ramdas Pophale) SiO2 
 PCOD9300102
Probable space group: C 2/C
;
_chemical_formula_sum "Si O2"
_cell_formula_units_Z 44
_cell_length_a 21.589453
_cell_length_b 10.307665
_cell_length_c 9.258870
_cell_angle_alpha 90.000000
_cell_angle_beta 62.815835
_cell_angle_gamma 90.000000
_cell_volume 1832.849079
_symmetry_space_group_name_H-M "C 2/C"
_symmetry_group_IT_number 15
_symmetry_cell_setting 'monoclinic'
loop_
_space_group_symop_operation_xyz
x,y,z
-x,y,1/2-z
-x,-y,-z
x,-y,1/2+z
1/2+x,1/2+y,z
1/2-x,1/2+y,1/2-z
1/2-x,1/2-y,-z
1/2+x,1/2-y,1/2+z
loop_
_atom_site_type_symbol
_atom_site_label
_atom_site_fract_x
_atom_site_fract_y
_atom_site_fract_z
Si Si1 0.452548 0.066104 0.674458
Si Si2 0.672566 0.205036 0.830550
Si Si3 0.093212 0.889815 0.397453
Si Si4 0.849997 0.662641 0.337584
Si Si5 0.766444 0.046545 0.214306
Si Si6 0.000000 0.974712 0.750000
O O1 0.500000 0.118285 0.750000
O O2 0.398389 0.171403 0.673812
O O3 0.500000 0.000000 0.500000
O O4 0.405026 0.952485 0.793552
O O5 0.718795 0.319779 0.713224
O O6 0.714839 0.071201 0.809699
O O7 0.652030 0.245008 0.014785
O O8 0.124699 0.751388 0.320931
O O9 0.044747 0.892895 0.588589
O O10 0.158090 0.982107 0.367200
O O11 0.049764 0.940742 0.304019
O O12 0.775015 0.602142 0.380092
#
# Coordination Sequence:
#
# PCOD9300102 Si02
#       6
#     8   8   8   8   8   4
#     4  11  24  47  73 108 146 194 244 302 367 455
#     4  11  24  46  76 109 146 198 246 307 381 443
#     4  11  24  48  74 106 153 194 254 313 370 459
#     4  11  24  45  77 103 148 198 249 301 387 440
#     4  11  24  44  73 112 143 195 250 310 371 444
#     4  10  26  44  70 112 146 202 248 306 384 440
#
# _framework density 24.006340000000002
#
# number of rings (size 3 to 8) (size 9 to 14) (size 15 to 20)
#    0.000    1.091    3.636    1.636    3.818    2.909 
#    6.545    4.545    0.000    0.000    0.000    0.000 
#    0.000    0.000    0.000    0.000    0.000    0.000 
#
# Total GULP energy -122987.071798 kJ/mol
# GULP energy per Si atom -5590.321445 kJ/mol
# Density = 2.395170 g / cm^3
# Si number density = 24.006340 Si / 1000 Ang^3
#
#
#
# Elastic Constant Matrix: (Units=GPa)
#
#
# Indices 1 2 3 4 5 6 
#
# 1 211.3107 60.4992 61.9035 0.0000 13.7959 0.0000
# 2 60.4992 96.4948 22.9760 0.0000 4.5060 0.0000
# 3 61.9035 22.9760 96.3079 0.0000 10.8684 0.0000
# 4 0.0000 0.0000 0.0000 20.3168 0.0000 -10.1459
# 5 13.7959 4.5060 10.8684 0.0000 17.8097 0.0000
# 6 0.0000 0.0000 0.0000 -10.1459 0.0000 30.0465
#
#
#
# Elastic Compliance Matrix: (Units=1/GPa)
#
#
# Indices 1 2 3 4 5 6 
#
# 1 0.006827 -0.003380 -0.003310 0.000000 -0.002414 0.000000
# 2 -0.003380 0.012687 -0.000846 0.000000 -0.000076 0.000000
# 3 -0.003310 -0.000846 0.013316 0.000000 -0.005348 0.000000
# 4 0.000000 0.000000 0.000000 0.059204 0.000000 0.019991
# 5 -0.002414 -0.000076 -0.005348 0.000000 0.061302 0.000000
# 6 0.000000 0.000000 0.000000 0.019991 0.000000 0.040032
#
#
# Mechanical properties :
#
#
# Convention : Reuss Voigt Hill
#
# Bulk Modulus (GPa) = 56.30609 77.20790 66.75699
# Shear Modulus (GPa) = 23.32545 30.88361 27.10453
#
# Velocity S-wave (km/s) = 3.12049 3.59064 3.36379
# Velocity P-wave (km/s) = 6.04060 7.03005 6.55402
#
# Compressibility (1/GPa) = 0.01776007
#
# Stress axis : x y z
#
# Youngs Moduli (GPa) = 146.47515 78.82008 75.09759
#
# Poissons Ratio (x) = 0.26638 0.24854
# Poissons Ratio (y) = 0.49503 0.06352
# Poissons Ratio (z) = 0.48477 0.06667
#
# Static dielectric constant tensor:
#      x y z
#    x 1.907230 0.000000 -0.019230 
#    y 0.000000 1.963580 0.000000 
#    z -0.019230 0.000000 1.908430 
# 
# From -- ./inp_files/54438.got.cif
#   From: 2010.05.17/outbox.cif.g08.bks.cpg/sg15_28_cif.got.tgz:54438.got - 2010.06.03 18:47:42.
