data_PCOD9300273
_publ_section_title
;
Structure prediction by ZEFSAII (Michael W. Deem and Ramdas Pophale) SiO2 
 PCOD9300273
Probable space group: C 2/C
;
_chemical_formula_sum "Si O2"
_cell_formula_units_Z 48
_cell_length_a 11.723399
_cell_length_b 17.214405
_cell_length_c 12.327457
_cell_angle_alpha 90.000000
_cell_angle_beta 49.584823
_cell_angle_gamma 90.000000
_cell_volume 1894.143511
_symmetry_space_group_name_H-M "C 2/C"
_symmetry_group_IT_number 15
_symmetry_cell_setting 'monoclinic'
loop_
_space_group_symop_operation_xyz
x,y,z
-x,y,1/2-z
-x,-y,-z
x,-y,1/2+z
1/2+x,1/2+y,z
1/2-x,1/2+y,1/2-z
1/2-x,1/2-y,-z
1/2+x,1/2-y,1/2+z
loop_
_atom_site_type_symbol
_atom_site_label
_atom_site_fract_x
_atom_site_fract_y
_atom_site_fract_z
Si Si1 0.348219 0.570632 0.674083
Si Si2 0.788069 0.427501 0.459437
Si Si3 0.102781 0.169523 0.575149
Si Si4 0.000000 0.047073 0.250000
Si Si5 0.000000 0.292171 0.250000
Si Si6 0.393622 0.196135 0.592992
Si Si7 0.917872 0.415379 0.914093
O O1 0.270679 0.534529 0.617279
O O2 0.494029 0.621935 0.562072
O O3 0.412508 0.508626 0.718956
O O4 0.229886 0.634439 0.789804
O O5 0.636662 0.407064 0.614628
O O6 0.874437 0.350539 0.374735
O O7 0.893779 0.492811 0.447854
O O8 0.148718 0.243082 0.474289
O O9 0.248170 0.117831 0.508643
O O10 0.000000 0.183316 0.750000
O O11 0.942187 0.258341 0.171801
O O12 0.497289 0.135919 0.459223
O O13 0.000000 0.403710 0.750000
#
# Coordination Sequence:
#
# PCOD9300273 Si02
#       7
#     8   8   8   4   4   8   8
#     4  11  22  41  66  97 134 167 214 272 323 384
#     4  11  23  41  66  98 133 167 215 267 330 387
#     4  12  23  44  71  98 128 173 221 273 320 379
#     4  12  20  40  63  97 134 168 204 266 330 388
#     4  10  26  48  63  91 138 180 210 268 326 388
#     4  11  24  43  68  92 134 175 219 268 318 384
#     4  12  24  39  70 106 128 166 216 274 329 382
#
# _framework density 25.341270000000002
#
# number of rings (size 3 to 8) (size 9 to 14) (size 15 to 20)
#    0.000    0.667    6.667    1.500    2.333    2.000 
#    0.000    4.167    0.000    0.000    0.000    0.000 
#    0.000    0.000    0.000    0.000    0.000    0.000 
#
# Total GULP energy -133951.704082 kJ/mol
# GULP energy per Si atom -5581.321003 kJ/mol
# Density = 2.528359 g / cm^3
# Si number density = 25.341270 Si / 1000 Ang^3
#
#
#
# Elastic Constant Matrix: (Units=GPa)
#
#
# Indices 1 2 3 4 5 6 
#
# 1 67.3145 5.8365 24.2888 0.0000 31.2283 0.0000
# 2 5.8365 46.8211 16.5541 0.0000 12.1018 0.0000
# 3 24.2888 16.5541 148.7269 0.0000 -14.5014 0.0000
# 4 0.0000 0.0000 0.0000 5.8752 0.0000 5.2458
# 5 31.2283 12.1018 -14.5014 0.0000 41.0399 0.0000
# 6 0.0000 0.0000 0.0000 5.2458 0.0000 23.0422
#
#
#
# Elastic Compliance Matrix: (Units=1/GPa)
#
#
# Indices 1 2 3 4 5 6 
#
# 1 0.030240 0.006386 -0.008365 0.000000 -0.027849 0.000000
# 2 0.006386 0.026205 -0.005372 0.000000 -0.014485 0.000000
# 3 -0.008365 -0.005372 0.009800 0.000000 0.011412 0.000000
# 4 0.000000 0.000000 0.000000 0.213629 0.000001 -0.048635
# 5 -0.027849 -0.014485 0.011412 0.000001 0.053861 0.000000
# 6 0.000000 0.000000 0.000000 -0.048635 0.000000 0.054471
#
#
# Mechanical properties :
#
#
# Convention : Reuss Voigt Hill
#
# Bulk Modulus (GPa) = 19.40102 39.58012 29.49057
# Shear Modulus (GPa) = 11.90225 28.40369 20.15297
#
# Velocity S-wave (km/s) = 2.16956 3.35154 2.82310
# Velocity P-wave (km/s) = 3.73477 5.53442 4.72114
#
# Compressibility (1/GPa) = 0.05154369
#
# Stress axis : x y z
#
# Youngs Moduli (GPa) = 33.06921 38.16067 102.03674
#
# Poissons Ratio (x) = -0.24369 0.85350
# Poissons Ratio (y) = -0.21118 0.54814
# Poissons Ratio (z) = 0.27661 0.20500
#
# Static dielectric constant tensor:
#      x y z
#    x 2.137130 0.000000 -0.059090 
#    y 0.000000 2.049150 0.000000 
#    z -0.059090 0.000000 2.299740 
# 
# From -- ./inp_files/89431.got.cif
#   From: 2010.05.17/outbox.cif.g08.bks.cpg/sg15_45_cif.got.tgz:89431.got - 2010.06.03 18:47:42.
