data_PCOD9300793
_publ_section_title
;
Structure prediction by ZEFSAII (Michael W. Deem and Ramdas Pophale) SiO2 
 PCOD9300793
Probable space group: C 2/C
;
_chemical_formula_sum "Si O2"
_cell_formula_units_Z 60
_cell_length_a 11.658098
_cell_length_b 20.805157
_cell_length_c 11.265403
_cell_angle_alpha 90.000000
_cell_angle_beta 95.347276
_cell_angle_gamma 90.000000
_cell_volume 2720.516219
_symmetry_space_group_name_H-M "C 2/C"
_symmetry_group_IT_number 15
_symmetry_cell_setting 'monoclinic'
loop_
_space_group_symop_operation_xyz
x,y,z
-x,y,1/2-z
-x,-y,-z
x,-y,1/2+z
1/2+x,1/2+y,z
1/2-x,1/2+y,1/2-z
1/2-x,1/2-y,-z
1/2+x,1/2-y,1/2+z
loop_
_atom_site_type_symbol
_atom_site_label
_atom_site_fract_x
_atom_site_fract_y
_atom_site_fract_z
Si Si1 0.505875 0.900190 0.474575
Si Si2 0.165784 0.006599 0.667305
Si Si3 0.687145 0.319956 0.896415
Si Si4 0.000000 0.092756 0.250000
Si Si5 0.882688 0.686075 0.681621
Si Si6 0.851894 0.848713 0.345315
Si Si7 0.191233 0.500452 0.570508
Si Si8 0.942972 0.711484 0.364566
O O1 0.578165 0.882733 0.364465
O O2 0.386142 0.935045 0.441355
O O3 0.491959 0.829456 0.529238
O O4 0.592229 0.945176 0.557481
O O5 0.115328 0.078844 0.678373
O O6 0.239837 0.995821 0.797543
O O7 0.234190 0.001974 0.546584
O O8 0.064339 0.953820 0.662750
O O9 0.596929 0.361715 0.815404
O O10 0.646454 0.246238 0.906651
O O11 0.811654 0.313171 0.851363
O O12 0.696408 0.351587 0.025133
O O13 0.762229 0.674018 0.738135
O O14 0.000000 0.710392 0.750000
O O15 0.940571 0.789531 0.362180
O O16 0.000000 0.689861 0.250000
#
# Coordination Sequence:
#
# PCOD9300793 Si02
#       8
#     8   8   8   4   8   8   8   8
#     4  11  22  40  68 108 136 188 222 301 357 427
#     4  12  26  49  67 100 141 196 233 296 342 426
#     4  11  22  45  66 101 130 190 236 285 349 434
#     4  12  28  42  74  94 142 188 242 290 346 426
#     4  11  19  38  71  99 135 177 238 287 345 419
#     4  11  22  43  69  95 137 184 240 281 353 424
#     4  11  27  43  71 103 150 180 241 284 362 425
#     4  11  23  39  70 102 135 173 229 298 359 409
#
# _framework density 22.054639999999999
#
# number of rings (size 3 to 8) (size 9 to 14) (size 15 to 20)
#    0.000    0.800    4.667    3.200    4.667    3.200 
#    0.000    0.000    0.000    4.000    0.000    0.000 
#    0.000    0.000    0.000    0.000    0.000    0.000 
#
# Total GULP energy -167184.107620 kJ/mol
# GULP energy per Si atom -5572.803587 kJ/mol
# Density = 2.200444 g / cm^3
# Si number density = 22.054640 Si / 1000 Ang^3
#
#
#
# Elastic Constant Matrix: (Units=GPa)
#
#
# Indices 1 2 3 4 5 6 
#
# 1 54.0731 32.8109 25.3006 0.0000 -5.7368 0.0000
# 2 32.8109 138.4714 13.5081 0.0000 8.7465 0.0000
# 3 25.3006 13.5081 70.8251 0.0000 -4.4151 0.0000
# 4 0.0000 0.0000 0.0000 32.2397 0.0000 12.4145
# 5 -5.7368 8.7465 -4.4151 0.0000 32.4771 0.0000
# 6 0.0000 0.0000 0.0000 12.4145 0.0000 56.5885
#
#
#
# Elastic Compliance Matrix: (Units=1/GPa)
#
#
# Indices 1 2 3 4 5 6 
#
# 1 0.026262 -0.005769 -0.007963 0.000000 0.005110 0.000000
# 2 -0.005769 0.008784 0.000176 0.000000 -0.003361 0.000000
# 3 -0.007963 0.000176 0.016983 0.000000 0.000855 0.000000
# 4 0.000000 0.000000 0.000000 0.033880 0.000000 -0.007433
# 5 0.005110 -0.003361 0.000855 0.000000 0.032715 0.000000
# 6 0.000000 0.000000 0.000000 -0.007433 0.000000 0.019302
#
#
# Mechanical properties :
#
#
# Convention : Reuss Voigt Hill
#
# Bulk Modulus (GPa) = 40.13131 45.17875 42.65503
# Shear Modulus (GPa) = 28.84468 37.04439 32.94454
#
# Velocity S-wave (km/s) = 3.62038 4.10282 3.86912
# Velocity P-wave (km/s) = 5.97595 6.55542 6.27238
#
# Compressibility (1/GPa) = 0.02491820
#
# Stress axis : x y z
#
# Youngs Moduli (GPa) = 38.07827 113.84689 58.88089
#
# Poissons Ratio (x) = 0.65675 0.46884
# Poissons Ratio (y) = 0.21966 -0.01036
# Poissons Ratio (z) = 0.30320 -0.02003
#
# Static dielectric constant tensor:
#      x y z
#    x 1.908500 0.000000 0.002780 
#    y 0.000000 1.851470 0.000000 
#    z 0.002780 0.000000 1.918810 
# 
# From -- ./inp_files/89616.got.cif
#   From: 2010.05.17/outbox.cif.g08.bks.cpg/sg15_45_cif.got.tgz:89616.got - 2010.06.03 18:47:42.
