data_PCOD9300590
_publ_section_title
;
Structure prediction by ZEFSAII (Michael W. Deem and Ramdas Pophale) SiO2 
 PCOD9300590
Probable space group: C 2/C
;
_chemical_formula_sum "Si O2"
_cell_formula_units_Z 48
_cell_length_a 9.741092
_cell_length_b 11.573339
_cell_length_c 20.039641
_cell_angle_alpha 90.000000
_cell_angle_beta 98.076520
_cell_angle_gamma 90.000000
_cell_volume 2236.799833
_symmetry_space_group_name_H-M "C 2/C"
_symmetry_group_IT_number 15
_symmetry_cell_setting 'monoclinic'
loop_
_space_group_symop_operation_xyz
x,y,z
-x,y,1/2-z
-x,-y,-z
x,-y,1/2+z
1/2+x,1/2+y,z
1/2-x,1/2+y,1/2-z
1/2-x,1/2-y,-z
1/2+x,1/2-y,1/2+z
loop_
_atom_site_type_symbol
_atom_site_label
_atom_site_fract_x
_atom_site_fract_y
_atom_site_fract_z
Si Si1 0.381424 0.753450 0.056703
Si Si2 0.777787 0.627985 0.132961
Si Si3 0.409162 0.616208 0.503537
Si Si4 0.492405 0.587300 0.179290
Si Si5 0.294350 0.389997 0.142174
Si Si6 0.496498 0.988737 0.082092
O O1 0.505773 0.726864 0.014283
O O2 0.409146 0.659241 0.116480
O O3 0.395776 0.879559 0.087218
O O4 0.250000 0.750000 0.000000
O O5 0.722037 0.618196 0.053215
O O6 0.649288 0.565866 0.163147
O O7 0.774757 0.757532 0.162627
O O8 0.932959 0.583304 0.129013
O O9 0.500000 0.500000 0.500000
O O10 0.366805 0.623166 0.575742
O O11 0.500000 0.653305 0.250000
O O12 0.399085 0.474377 0.187287
O O13 0.148235 0.451991 0.117913
O O14 0.500000 0.000000 0.000000
#
# Coordination Sequence:
#
# PCOD9300590 Si02
#       6
#     8   8   8   8   8   8
#     4  11  22  39  68 105 137 180 232 285 357 408
#     4  11  23  43  64  98 139 176 224 282 340 412
#     4  11  18  36  62  95 143 168 209 282 339 406
#     4  11  26  50  68  92 143 189 234 288 349 426
#     4  12  22  42  65  99 134 176 223 282 347 405
#     4  12  22  37  67 109 141 169 221 291 352 409
#
# _framework density 21.459228
#
# number of rings (size 3 to 8) (size 9 to 14) (size 15 to 20)
#    0.000    0.667    8.333    3.500    0.000    0.000 
#    3.000    0.833    0.000    0.000    0.000    0.000 
#    0.000    0.000    0.000    0.000    0.000    0.000 
#
# Total GULP energy -133755.699228 kJ/mol
# GULP energy per Si atom -5573.154135 kJ/mol
# Density = 2.141039 g / cm^3
# Si number density = 21.459228 Si / 1000 Ang^3
#
#
#
# Elastic Constant Matrix: (Units=GPa)
#
#
# Indices 1 2 3 4 5 6 
#
# 1 83.4483 42.8742 28.3932 0.0000 12.4519 0.0000
# 2 42.8742 90.6167 4.4309 0.0000 9.8880 0.0000
# 3 28.3932 4.4309 76.0205 0.0000 2.8176 0.0000
# 4 0.0000 0.0000 0.0000 12.6951 0.0000 5.7723
# 5 12.4519 9.8880 2.8176 0.0000 15.4916 0.0000
# 6 0.0000 0.0000 0.0000 5.7723 0.0000 41.4698
#
#
#
# Elastic Compliance Matrix: (Units=1/GPa)
#
#
# Indices 1 2 3 4 5 6 
#
# 1 0.019740 -0.007973 -0.006553 0.000000 -0.009586 0.000000
# 2 -0.007973 0.015095 0.002233 0.000000 -0.003632 0.000000
# 3 -0.006553 0.002233 0.015433 0.000000 0.001035 0.000000
# 4 0.000000 0.000000 0.000000 0.084093 0.000000 -0.011705
# 5 -0.009586 -0.003632 0.001035 0.000000 0.074386 0.000000
# 6 0.000000 0.000000 0.000000 -0.011705 0.000000 0.025743
#
#
# Mechanical properties :
#
#
# Convention : Reuss Voigt Hill
#
# Bulk Modulus (GPa) = 38.93817 44.60913 41.77365
# Shear Modulus (GPa) = 18.68201 25.55711 22.11956
#
# Velocity S-wave (km/s) = 2.95376 3.45477 3.21405
# Velocity P-wave (km/s) = 5.46054 6.06193 5.76908
#
# Compressibility (1/GPa) = 0.02568174
#
# Stress axis : x y z
#
# Youngs Moduli (GPa) = 50.65882 66.24651 64.79513
#
# Poissons Ratio (x) = 0.52820 0.42459
# Poissons Ratio (y) = 0.40392 -0.14467
# Poissons Ratio (z) = 0.33195 -0.14791
#
# Static dielectric constant tensor:
#      x y z
#    x 1.511940 0.000000 -0.106040 
#    y 0.000000 1.990870 0.000000 
#    z -0.106040 0.000000 1.864210 
# 
# From -- ./inp_files/263233.got.cif
#   From: 2010.05.17/outbox.cif.g08.bks.cpg/sg15_132_cif.got.tgz:263233.got - 2010.06.03 18:47:42.
