data_PCOD9300716
_publ_section_title
;
Structure prediction by ZEFSAII (Michael W. Deem and Ramdas Pophale) SiO2 
 PCOD9300716
Probable space group: C 2/C
;
_chemical_formula_sum "Si O2"
_cell_formula_units_Z 48
_cell_length_a 22.616323
_cell_length_b 5.515310
_cell_length_c 14.607191
_cell_angle_alpha 90.000000
_cell_angle_beta 105.369149
_cell_angle_gamma 90.000000
_cell_volume 1756.883608
_symmetry_space_group_name_H-M "C 2/C"
_symmetry_group_IT_number 15
_symmetry_cell_setting 'monoclinic'
loop_
_space_group_symop_operation_xyz
x,y,z
-x,y,1/2-z
-x,-y,-z
x,-y,1/2+z
1/2+x,1/2+y,z
1/2-x,1/2+y,1/2-z
1/2-x,1/2-y,-z
1/2+x,1/2-y,1/2+z
loop_
_atom_site_type_symbol
_atom_site_label
_atom_site_fract_x
_atom_site_fract_y
_atom_site_fract_z
Si Si1 0.999672 0.014977 0.855619
Si Si2 0.673876 0.975309 0.501000
Si Si3 0.560318 0.994399 0.592722
Si Si4 0.233156 0.969107 0.296093
Si Si5 0.358883 0.526417 0.534561
Si Si6 0.373723 0.646507 0.330385
O O1 0.964488 0.264133 0.857555
O O2 0.000000 0.947888 0.750000
O O3 0.068390 0.013479 0.918061
O O4 0.950724 0.822502 0.880329
O O5 0.727465 0.004246 0.596418
O O6 0.674369 0.719647 0.451005
O O7 0.609259 0.961288 0.527978
O O8 0.669196 0.221561 0.441608
O O9 0.622116 0.072303 0.687709
O O10 0.500000 0.000000 0.500000
O O11 0.248080 0.213737 0.242435
O O12 0.158589 0.995740 0.260308
O O13 0.352127 0.552494 0.420075
#
# Coordination Sequence:
#
# PCOD9300716 Si02
#       6
#     8   8   8   8   8   8
#     4  12  25  39  60  93 129 167 210 266 318 374
#     4  11  20  36  63  94 119 160 206 261 309 362
#     4  11  19  36  61  88 119 162 206 256 308 375
#     4  12  20  35  60 100 128 152 205 274 309 360
#     4  11  21  38  63  90 124 161 208 255 310 374
#     4  11  22  36  62  91 124 162 210 251 320 368
#
# _framework density 27.321103999999998
#
# number of rings (size 3 to 8) (size 9 to 14) (size 15 to 20)
#    0.000    0.667   10.000    1.500    0.000    0.667 
#    0.000    0.000    0.000    2.000    0.000    0.000 
#    0.000    0.000    0.000    0.000    0.000    0.000 
#
# Total GULP energy -133667.630214 kJ/mol
# GULP energy per Si atom -5569.484592 kJ/mol
# Density = 2.725892 g / cm^3
# Si number density = 27.321104 Si / 1000 Ang^3
#
#
#
# Elastic Constant Matrix: (Units=GPa)
#
#
# Indices 1 2 3 4 5 6 
#
# 1 134.9334 38.3566 38.3807 0.0000 30.9956 0.0000
# 2 38.3566 203.0387 51.7915 0.0000 19.7375 0.0000
# 3 38.3807 51.7915 125.5349 0.0000 38.5432 0.0000
# 4 0.0000 0.0000 0.0000 49.6663 0.0000 18.3502
# 5 30.9956 19.7375 38.5432 0.0000 48.0109 0.0000
# 6 0.0000 0.0000 0.0000 18.3502 0.0000 47.6063
#
#
#
# Elastic Compliance Matrix: (Units=1/GPa)
#
#
# Indices 1 2 3 4 5 6 
#
# 1 0.009035 -0.001021 -0.000901 0.000000 -0.004690 0.000000
# 2 -0.001021 0.005632 -0.001995 0.000000 -0.000055 0.000000
# 3 -0.000901 -0.001995 0.011458 0.000000 -0.007797 0.000000
# 4 0.000000 0.000000 0.000000 0.023478 0.000000 -0.009050
# 5 -0.004690 -0.000055 -0.007797 0.000000 0.030138 0.000000
# 6 0.000000 0.000000 0.000000 -0.009050 0.000000 0.024494
#
#
# Mechanical properties :
#
#
# Convention : Reuss Voigt Hill
#
# Bulk Modulus (GPa) = 54.66975 80.06273 67.36624
# Shear Modulus (GPa) = 42.31326 51.38859 46.85093
#
# Velocity S-wave (km/s) = 3.93967 4.34165 4.14554
# Velocity P-wave (km/s) = 6.38343 7.38250 6.90107
#
# Compressibility (1/GPa) = 0.01829165
#
# Stress axis : x y z
#
# Youngs Moduli (GPa) = 110.68183 177.55079 87.27352
#
# Poissons Ratio (x) = 0.18129 0.07865
# Poissons Ratio (y) = 0.11301 0.17408
# Poissons Ratio (z) = 0.09974 0.35414
#
# Static dielectric constant tensor:
#      x y z
#    x 2.554060 0.000000 0.155570 
#    y 0.000000 2.445480 0.000000 
#    z 0.155570 0.000000 2.237990 
# 
# From -- ./inp_files/221017.got.cif
#   From: 2010.05.17/outbox.cif.g08.bks.cpg/sg15_111_cif.got.tgz:221017.got - 2010.06.03 18:47:42.
