data_PCOD9300118
_publ_section_title
;
Structure prediction by ZEFSAII (Michael W. Deem and Ramdas Pophale) SiO2 
 PCOD9300118
Probable space group: C 2/C
;
_chemical_formula_sum "Si O2"
_cell_formula_units_Z 36
_cell_length_a 7.206955
_cell_length_b 22.109684
_cell_length_c 8.767245
_cell_angle_alpha 90.000000
_cell_angle_beta 81.051723
_cell_angle_gamma 90.000000
_cell_volume 1380.000773
_symmetry_space_group_name_H-M "C 2/C"
_symmetry_group_IT_number 15
_symmetry_cell_setting 'monoclinic'
loop_
_space_group_symop_operation_xyz
x,y,z
-x,y,1/2-z
-x,-y,-z
x,-y,1/2+z
1/2+x,1/2+y,z
1/2-x,1/2+y,1/2-z
1/2-x,1/2-y,-z
1/2+x,1/2-y,1/2+z
loop_
_atom_site_type_symbol
_atom_site_label
_atom_site_fract_x
_atom_site_fract_y
_atom_site_fract_z
Si Si1 0.500000 0.289939 0.750000
Si Si2 0.259844 0.373175 0.006401
Si Si3 0.222637 0.805001 0.194931
Si Si4 0.648010 0.422123 0.018557
Si Si5 0.817812 0.471494 0.692302
O O1 0.363642 0.329574 0.873053
O O2 0.639314 0.251425 0.841918
O O3 0.124564 0.418386 0.933740
O O4 0.199735 0.333508 0.156055
O O5 0.424050 0.415544 0.053324
O O6 0.225762 0.858001 0.069363
O O7 0.000000 0.789619 0.250000
O O8 0.714553 0.475928 0.117163
O O9 0.699884 0.438740 0.839217
O O10 0.000000 0.497573 0.750000
#
# Coordination Sequence:
#
# PCOD9300118 Si02
#       5
#     4   8   8   8   8
#     4  12  24  46  76  98 148 186 240 286 342 422
#     4  11  24  48  65 106 136 190 233 286 352 416
#     4  10  26  44  73 104 142 186 237 286 350 416
#     4  11  24  46  68 103 140 186 230 288 357 417
#     4  12  25  41  73 103 143 179 235 295 352 417
#
# _framework density 26.086943000000002
#
# number of rings (size 3 to 8) (size 9 to 14) (size 15 to 20)
#    0.000    0.889    2.222    3.333    4.667    8.000 
#    0.000    0.000    0.000    0.000    0.000    0.000 
#    0.000    0.000    0.000    0.000    0.000    0.000 
#
# Total GULP energy -101015.401849 kJ/mol
# GULP energy per Si atom -5611.966769 kJ/mol
# Density = 2.602757 g / cm^3
# Si number density = 26.086943 Si / 1000 Ang^3
#
#
#
# Elastic Constant Matrix: (Units=GPa)
#
#
# Indices 1 2 3 4 5 6 
#
# 1 86.9895 47.1423 15.9597 0.0000 11.4927 0.0000
# 2 47.1423 131.6425 47.0972 0.0000 18.9927 0.0000
# 3 15.9597 47.0972 103.6675 0.0000 7.9442 0.0000
# 4 0.0000 0.0000 0.0000 48.8962 0.0000 11.5970
# 5 11.4927 18.9927 7.9442 0.0000 40.9798 0.0000
# 6 0.0000 0.0000 0.0000 11.5970 0.0000 37.9065
#
#
#
# Elastic Compliance Matrix: (Units=1/GPa)
#
#
# Indices 1 2 3 4 5 6 
#
# 1 0.014384 -0.004958 0.000174 0.000000 -0.001770 0.000000
# 2 -0.004958 0.011289 -0.004132 0.000000 -0.003040 0.000000
# 3 0.000174 -0.004132 0.011525 0.000000 -0.000368 0.000000
# 4 0.000000 0.000000 0.000000 0.022052 0.000000 -0.006746
# 5 -0.001770 -0.003040 -0.000368 0.000000 0.026379 0.000000
# 6 0.000000 0.000000 0.000000 -0.006746 0.000000 0.028445
#
#
# Mechanical properties :
#
#
# Convention : Reuss Voigt Hill
#
# Bulk Modulus (GPa) = 51.63973 60.29975 55.96974
# Shear Modulus (GPa) = 36.13702 39.69652 37.91677
#
# Velocity S-wave (km/s) = 3.72594 3.90513 3.81659
# Velocity P-wave (km/s) = 6.19260 6.59534 6.39714
#
# Compressibility (1/GPa) = 0.01936494
#
# Stress axis : x y z
#
# Youngs Moduli (GPa) = 69.51929 88.58253 86.76746
#
# Poissons Ratio (x) = 0.43919 -0.01506
# Poissons Ratio (y) = 0.34467 0.35856
# Poissons Ratio (z) = -0.01207 0.36606
#
# Static dielectric constant tensor:
#      x y z
#    x 2.048800 0.000000 -0.033830 
#    y 0.000000 2.048200 0.000000 
#    z -0.033830 0.000000 2.127680 
# 
# From -- ./inp_files/22503.got.cif
#   From: 2010.05.17/outbox.cif.g08.bks.cpg/sg15_12_cif.got.tgz:22503.got - 2010.06.03 18:47:42.
