data_PCOD9300342
_publ_section_title
;
Structure prediction by ZEFSAII (Michael W. Deem and Ramdas Pophale) SiO2 
 PCOD9300342
Probable space group: C 2/C
;
_chemical_formula_sum "Si O2"
_cell_formula_units_Z 32
_cell_length_a 16.587869
_cell_length_b 10.258163
_cell_length_c 13.067021
_cell_angle_alpha 90.000000
_cell_angle_beta 145.609526
_cell_angle_gamma 90.000000
_cell_volume 1255.898069
_symmetry_space_group_name_H-M "C 2/C"
_symmetry_group_IT_number 15
_symmetry_cell_setting 'monoclinic'
loop_
_space_group_symop_operation_xyz
x,y,z
-x,y,1/2-z
-x,-y,-z
x,-y,1/2+z
1/2+x,1/2+y,z
1/2-x,1/2+y,1/2-z
1/2-x,1/2-y,-z
1/2+x,1/2-y,1/2+z
loop_
_atom_site_type_symbol
_atom_site_label
_atom_site_fract_x
_atom_site_fract_y
_atom_site_fract_z
Si Si1 0.535612 0.800126 0.536227
Si Si2 0.656538 0.020343 0.795978
Si Si3 0.249414 0.864187 0.915316
Si Si4 0.484417 0.448167 0.119076
O O1 0.405705 0.854941 0.330969
O O2 0.667650 0.820166 0.597629
O O3 0.519821 0.660321 0.572202
O O4 0.564799 0.901087 0.658004
O O5 0.822331 0.997244 0.939484
O O6 0.659644 0.032110 0.921907
O O7 0.097855 0.932930 0.738010
O O8 0.250000 0.750000 0.000000
O O9 0.500000 0.390371 0.250000
#
# Coordination Sequence:
#
# PCOD9300342 Si02
#       4
#     8   8   8   8
#     4  11  26  47  85 116 161 207 276 325 403 477
#     4  10  26  49  74 118 160 209 261 337 398 471
#     4  11  27  50  77 117 162 208 267 329 406 476
#     4  10  26  53  82 113 159 214 267 328 401 478
#
# _framework density 25.479773999999999
#
# number of rings (size 3 to 8) (size 9 to 14) (size 15 to 20)
#    0.000    1.500    0.000    0.750    7.000   17.000 
#    4.500    0.000    0.000    0.000    0.000    0.000 
#    0.000    0.000    0.000    0.000    0.000    0.000 
#
# Total GULP energy -89687.526907 kJ/mol
# GULP energy per Si atom -5605.470432 kJ/mol
# Density = 2.542178 g / cm^3
# Si number density = 25.479774 Si / 1000 Ang^3
#
#
#
# Elastic Constant Matrix: (Units=GPa)
#
#
# Indices 1 2 3 4 5 6 
#
# 1 122.6036 41.6410 16.0866 0.0000 -6.9626 0.0000
# 2 41.6410 122.5025 33.1670 0.0000 0.7785 0.0000
# 3 16.0866 33.1670 142.9465 0.0000 9.8205 0.0000
# 4 0.0000 0.0000 0.0000 25.5001 0.0000 -8.6946
# 5 -6.9626 0.7785 9.8205 0.0000 62.0013 0.0000
# 6 0.0000 0.0000 0.0000 -8.6946 0.0000 54.7967
#
#
#
# Elastic Compliance Matrix: (Units=1/GPa)
#
#
# Indices 1 2 3 4 5 6 
#
# 1 0.009316 -0.003061 -0.000417 0.000000 0.001151 0.000000
# 2 -0.003061 0.009719 -0.001899 0.000000 -0.000165 0.000000
# 3 -0.000417 -0.001899 0.007567 0.000000 -0.001222 0.000000
# 4 0.000000 0.000000 0.000000 0.041458 0.000000 0.006578
# 5 0.001151 -0.000165 -0.001222 0.000000 0.016453 0.000000
# 6 0.000000 0.000000 0.000000 0.006578 0.000000 0.019293
#
#
# Mechanical properties :
#
#
# Convention : Reuss Voigt Hill
#
# Bulk Modulus (GPa) = 63.10276 63.31577 63.20926
# Shear Modulus (GPa) = 41.72076 48.27015 44.99545
#
# Velocity S-wave (km/s) = 4.05088 4.35725 4.20685
# Velocity P-wave (km/s) = 6.83367 7.08643 6.96120
#
# Compressibility (1/GPa) = 0.01584717
#
# Stress axis : x y z
#
# Youngs Moduli (GPa) = 107.34078 102.89263 132.15001
#
# Poissons Ratio (x) = 0.31496 0.05513
# Poissons Ratio (y) = 0.32858 0.25098
# Poissons Ratio (z) = 0.04478 0.19541
#
# Static dielectric constant tensor:
#      x y z
#    x 1.988830 0.000000 -0.001570 
#    y 0.000000 2.085300 0.000000 
#    z -0.001570 0.000000 2.020500 
# 
# From -- ./inp_files/94805.got.cif
#   From: 2010.05.17/outbox.cif.g08.bks.cpg/sg15_48_cif.got.tgz:94805.got - 2010.06.03 18:47:42.
