data_PCOD9300186
_publ_section_title
;
Structure prediction by ZEFSAII (Michael W. Deem and Ramdas Pophale) SiO2 
 PCOD9300186
Probable space group: C 2/C
;
_chemical_formula_sum "Si O2"
_cell_formula_units_Z 60
_cell_length_a 24.938768
_cell_length_b 8.085042
_cell_length_c 12.715584
_cell_angle_alpha 90.000000
_cell_angle_beta 110.595419
_cell_angle_gamma 90.000000
_cell_volume 2399.993738
_symmetry_space_group_name_H-M "C 2/C"
_symmetry_group_IT_number 15
_symmetry_cell_setting 'monoclinic'
loop_
_space_group_symop_operation_xyz
x,y,z
-x,y,1/2-z
-x,-y,-z
x,-y,1/2+z
1/2+x,1/2+y,z
1/2-x,1/2+y,1/2-z
1/2-x,1/2-y,-z
1/2+x,1/2-y,1/2+z
loop_
_atom_site_type_symbol
_atom_site_label
_atom_site_fract_x
_atom_site_fract_y
_atom_site_fract_z
Si Si1 0.041554 0.150215 0.501896
Si Si2 0.000000 0.296646 0.250000
Si Si3 0.838679 0.238463 0.983820
Si Si4 0.058021 0.166765 0.748681
Si Si5 0.712120 0.252429 0.617489
Si Si6 0.895394 0.517694 0.160091
Si Si7 0.197368 0.450501 0.730529
Si Si8 0.178138 0.061488 0.898092
O O1 0.016591 0.226904 0.377575
O O2 0.107891 0.124904 0.516316
O O3 0.048326 0.232335 0.622963
O O4 0.000000 0.000000 0.500000
O O5 0.057404 0.396177 0.260799
O O6 0.806874 0.309536 0.861005
O O7 0.863675 0.408011 0.051351
O O8 0.808650 0.122585 0.049220
O O9 0.067787 0.318289 0.836012
O O10 0.116829 0.061111 0.796463
O O11 0.000000 0.079578 0.750000
O O12 0.739659 0.421046 0.679707
O O13 0.766009 0.134915 0.621282
O O14 0.675116 0.309785 0.493911
O O15 0.682728 0.133321 0.679977
O O16 0.847910 0.579515 0.208914
#
# Coordination Sequence:
#
# PCOD9300186 Si02
#       8
#     8   4   8   8   8   8   8   8
#     4  11  25  43  70 103 146 187 242 296 355 442
#     4  10  26  46  68 110 144 198 240 294 370 436
#     4  11  25  44  72 102 148 188 242 301 365 439
#     4  12  24  45  76 106 146 192 235 304 370 433
#     4  11  26  44  73 101 147 188 247 305 360 433
#     4  11  24  44  70 104 147 183 242 297 356 437
#     4  12  25  47  70 108 140 195 246 296 367 436
#     4  11  25  47  70 107 141 187 246 303 364 434
#
# _framework density 25.000067000000001
#
# number of rings (size 3 to 8) (size 9 to 14) (size 15 to 20)
#    0.000    0.800    3.333    2.400    8.400    4.267 
#    0.000    0.000    0.000    0.000    0.000    0.000 
#    0.000    0.000    0.000    0.000    0.000    0.000 
#
# Total GULP energy -167491.354668 kJ/mol
# GULP energy per Si atom -5583.045156 kJ/mol
# Density = 2.494317 g / cm^3
# Si number density = 25.000067 Si / 1000 Ang^3
#
#
#
# Elastic Constant Matrix: (Units=GPa)
#
#
# Indices 1 2 3 4 5 6 
#
# 1 66.7217 7.8320 34.6568 0.0000 8.5231 0.0000
# 2 7.8320 63.1573 34.5465 0.0000 -2.4731 0.0000
# 3 34.6568 34.5465 140.7880 0.0000 22.4327 0.0000
# 4 0.0000 0.0000 0.0000 35.5831 0.0000 -14.1520
# 5 8.5231 -2.4731 22.4327 0.0000 33.2541 0.0000
# 6 0.0000 0.0000 0.0000 -14.1520 0.0000 30.5479
#
#
#
# Elastic Compliance Matrix: (Units=1/GPa)
#
#
# Indices 1 2 3 4 5 6 
#
# 1 0.017275 -0.000044 -0.003961 0.000000 -0.001759 0.000000
# 2 -0.000044 0.019035 -0.005476 0.000000 0.005121 0.000000
# 3 -0.003961 -0.005476 0.010448 0.000000 -0.006440 0.000000
# 4 0.000000 0.000000 0.000000 0.034451 0.000000 0.015960
# 5 -0.001759 0.005121 -0.006440 0.000000 0.035247 0.000000
# 6 0.000000 0.000000 0.000000 0.015960 0.000000 0.040129
#
#
# Mechanical properties :
#
#
# Convention : Reuss Voigt Hill
#
# Bulk Modulus (GPa) = 35.97807 47.19306 41.58557
# Shear Modulus (GPa) = 27.05437 32.78579 29.92008
#
# Velocity S-wave (km/s) = 3.29321 3.62529 3.46323
# Velocity P-wave (km/s) = 5.37426 6.03671 5.71509
#
# Compressibility (1/GPa) = 0.02779471
#
# Stress axis : x y z
#
# Youngs Moduli (GPa) = 57.88673 52.53562 95.71411
#
# Poissons Ratio (x) = 0.00233 0.37916
# Poissons Ratio (y) = 0.00256 0.52411
# Poissons Ratio (z) = 0.22931 0.28767
#
# Static dielectric constant tensor:
#      x y z
#    x 1.965310 0.000000 -0.005500 
#    y 0.000000 2.015360 0.000000 
#    z -0.005500 0.000000 2.062960 
# 
# From -- ./inp_files/125938.got.cif
#   From: 2010.05.17/outbox.cif.g08.bks.cpg/sg15_63_cif.got.tgz:125938.got - 2010.06.03 18:47:42.
