data_PCOD9300397
_publ_section_title
;
Structure prediction by ZEFSAII (Michael W. Deem and Ramdas Pophale) SiO2 
 PCOD9300397
Probable space group: C 2/C
;
_chemical_formula_sum "Si O2"
_cell_formula_units_Z 52
_cell_length_a 20.885952
_cell_length_b 18.672302
_cell_length_c 8.910227
_cell_angle_alpha 90.000000
_cell_angle_beta 46.071155
_cell_angle_gamma 90.000000
_cell_volume 2502.621609
_symmetry_space_group_name_H-M "C 2/C"
_symmetry_group_IT_number 15
_symmetry_cell_setting 'monoclinic'
loop_
_space_group_symop_operation_xyz
x,y,z
-x,y,1/2-z
-x,-y,-z
x,-y,1/2+z
1/2+x,1/2+y,z
1/2-x,1/2+y,1/2-z
1/2-x,1/2-y,-z
1/2+x,1/2-y,1/2+z
loop_
_atom_site_type_symbol
_atom_site_label
_atom_site_fract_x
_atom_site_fract_y
_atom_site_fract_z
Si Si1 0.701711 0.101062 0.893378
Si Si2 0.369903 0.832557 0.261923
Si Si3 0.927942 0.343267 0.653298
Si Si4 0.000000 0.032625 0.750000
Si Si5 0.095591 0.540711 0.554013
Si Si6 0.098594 0.083623 0.885743
Si Si7 0.902443 0.765250 0.955258
O O1 0.705692 0.145473 0.732630
O O2 0.796389 0.088934 0.815383
O O3 0.628789 0.143120 0.108022
O O4 0.664402 0.022250 0.923377
O O5 0.380227 0.899497 0.360810
O O6 0.351298 0.761735 0.390882
O O7 0.466189 0.826977 0.019565
O O8 0.917338 0.416279 0.577483
O O9 0.878414 0.281463 0.638978
O O10 0.047766 0.076415 0.808173
O O11 0.068065 0.981571 0.544789
O O12 0.000000 0.507991 0.750000
O O13 0.083595 0.154909 0.009601
O O14 0.000000 0.736701 0.750000
#
# Coordination Sequence:
#
# PCOD9300397 Si02
#       7
#     8   8   8   4   8   8   8
#     4  12  22  31  59  99 128 161 205 260 307 355
#     4   9  19  35  59  92 131 173 201 233 300 392
#     4   9  19  35  57  89 134 163 203 237 292 394
#     4  10  26  52  66  94 108 156 226 278 324 376
#     4   9  18  33  54  84 133 179 198 231 298 373
#     4  11  25  45  71  87 118 155 215 281 322 369
#     4   9  19  43  64  82 123 175 202 248 315 373
#
# _framework density 20.778210000000001
#
# number of rings (size 3 to 8) (size 9 to 14) (size 15 to 20)
#    0.000    2.154    0.769    4.154    4.308    3.692 
#    5.538    0.000    0.000    0.000    0.000    0.000 
#    0.000    0.000    0.000    0.000    0.000    0.000 
#
# Total GULP energy -144875.988677 kJ/mol
# GULP energy per Si atom -5572.153411 kJ/mol
# Density = 2.073092 g / cm^3
# Si number density = 20.778210 Si / 1000 Ang^3
#
#
#
# Elastic Constant Matrix: (Units=GPa)
#
#
# Indices 1 2 3 4 5 6 
#
# 1 131.3037 47.9586 46.7306 0.0000 15.7635 0.0000
# 2 47.9586 93.0835 38.3232 0.0000 5.8570 0.0000
# 3 46.7306 38.3232 59.9458 0.0000 16.4097 0.0000
# 4 0.0000 0.0000 0.0000 28.0693 0.0000 17.3819
# 5 15.7635 5.8570 16.4097 0.0000 22.5977 0.0000
# 6 0.0000 0.0000 0.0000 17.3819 0.0000 10.2012
#
#
#
# Elastic Compliance Matrix: (Units=1/GPa)
#
#
# Indices 1 2 3 4 5 6 
#
# 1 0.011221 -0.003137 -0.006018 0.000000 -0.002644 0.000000
# 2 -0.003137 0.015715 -0.008842 0.000000 0.004537 0.000000
# 3 -0.006018 -0.008842 0.031514 0.000000 -0.016395 0.000000
# 4 0.000000 0.000000 0.000000 -0.646094 0.000000 1.100883
# 5 -0.002644 0.004537 -0.016395 0.000000 0.056826 0.000000
# 6 0.000000 0.000000 0.000000 1.100883 0.000000 -1.777773
#
#
# Mechanical properties :
#
#
# Convention : Reuss Voigt Hill
#
# Bulk Modulus (GPa) = 44.53505 61.15090 52.84297
# Shear Modulus (GPa) = -2.20740 22.26169 10.02715
#
# Velocity S-wave (km/s) = -1.03183 3.27677 2.19915
# Velocity P-wave (km/s) = 4.47890 6.61895 5.65115
#
# Compressibility (1/GPa) = 0.02245423
#
# Stress axis : x y z
#
# Youngs Moduli (GPa) = 89.11842 63.63543 31.73227
#
# Poissons Ratio (x) = 0.19965 0.19096
# Poissons Ratio (y) = 0.27960 0.28059
# Poissons Ratio (z) = 0.53629 0.56269
#
# Static dielectric constant tensor:
#      x y z
#    x 1.786250 0.000000 0.010750 
#    y 0.000000 1.745740 0.000000 
#    z 0.010750 0.000000 1.771920 
# 
# From -- ./inp_files/56946.got.cif
#   From: 2010.05.17/outbox.cif.g08.bks.cpg/sg15_29_cif.got.tgz:56946.got - 2010.06.03 18:47:42.
