data_PCOD9300469
_publ_section_title
;
Structure prediction by ZEFSAII (Michael W. Deem and Ramdas Pophale) SiO2 
 PCOD9300469
Probable space group: C 2/C
;
_chemical_formula_sum "Si O2"
_cell_formula_units_Z 52
_cell_length_a 9.017591
_cell_length_b 11.053308
_cell_length_c 28.222633
_cell_angle_alpha 90.000000
_cell_angle_beta 121.680601
_cell_angle_gamma 90.000000
_cell_volume 2393.890418
_symmetry_space_group_name_H-M "C 2/C"
_symmetry_group_IT_number 15
_symmetry_cell_setting 'monoclinic'
loop_
_space_group_symop_operation_xyz
x,y,z
-x,y,1/2-z
-x,-y,-z
x,-y,1/2+z
1/2+x,1/2+y,z
1/2-x,1/2+y,1/2-z
1/2-x,1/2-y,-z
1/2+x,1/2-y,1/2+z
loop_
_atom_site_type_symbol
_atom_site_label
_atom_site_fract_x
_atom_site_fract_y
_atom_site_fract_z
Si Si1 0.639994 0.854456 0.662823
Si Si2 0.538850 0.132614 0.655777
Si Si3 0.900799 0.874037 0.980694
Si Si4 0.720112 0.779065 0.568205
Si Si5 0.000000 0.246530 0.250000
Si Si6 0.796353 0.467689 0.464793
Si Si7 0.795507 0.230488 0.627877
O O1 0.666045 0.820129 0.612030
O O2 0.497392 0.764719 0.661451
O O3 0.827320 0.834784 0.718010
O O4 0.572909 0.990955 0.656168
O O5 0.370521 0.178581 0.597924
O O6 0.507213 0.171421 0.704370
O O7 0.703995 0.204237 0.662084
O O8 0.761800 0.890839 0.999700
O O9 0.048113 0.774189 0.015386
O O10 0.801147 0.838858 0.916394
O O11 0.000000 0.000000 0.000000
O O12 0.788659 0.898921 0.553262
O O13 0.741338 0.388107 0.410454
O O14 0.000000 0.500000 0.500000
#
# Coordination Sequence:
#
# PCOD9300469 Si02
#       7
#     8   8   8   8   4   8   8
#     4  11  24  48  72  98 133 173 223 287 346 404
#     4  11  26  46  72 101 130 174 228 282 348 408
#     4  12  25  38  62 100 145 187 226 270 320 393
#     4  11  23  43  66  99 142 186 229 270 326 402
#     4  10  28  50  72 100 128 164 222 294 356 414
#     4  12  23  39  64  96 144 190 227 268 319 390
#     4  12  24  40  68 102 134 183 227 268 331 399
#
# _framework density 21.721964
#
# number of rings (size 3 to 8) (size 9 to 14) (size 15 to 20)
#    0.000    0.615    4.615    3.231    2.154    4.308 
#    0.000    0.000    0.000    0.000    0.000    0.000 
#    0.000    0.000    0.000    0.000    0.000    0.000 
#
# Total GULP energy -145599.757540 kJ/mol
# GULP energy per Si atom -5599.990675 kJ/mol
# Density = 2.167252 g / cm^3
# Si number density = 21.721964 Si / 1000 Ang^3
#
#
#
# Elastic Constant Matrix: (Units=GPa)
#
#
# Indices 1 2 3 4 5 6 
#
# 1 131.8091 50.6038 35.8264 0.0000 13.1697 0.0000
# 2 50.6038 129.0714 18.7124 0.0000 17.4710 0.0000
# 3 35.8264 18.7124 61.4452 0.0000 20.8966 0.0000
# 4 0.0000 0.0000 0.0000 13.0792 0.0000 1.8651
# 5 13.1697 17.4710 20.8966 0.0000 49.0694 0.0000
# 6 0.0000 0.0000 0.0000 1.8651 0.0000 37.0618
#
#
#
# Elastic Compliance Matrix: (Units=1/GPa)
#
#
# Indices 1 2 3 4 5 6 
#
# 1 0.010206 -0.003342 -0.005152 0.000000 0.000645 0.000000
# 2 -0.003342 0.009397 -0.000094 0.000000 -0.002409 0.000000
# 3 -0.005152 -0.000094 0.022014 0.000000 -0.007958 0.000000
# 4 0.000000 0.000000 0.000000 0.077010 0.000000 -0.003876
# 5 0.000645 -0.002409 -0.007958 0.000000 0.024453 0.000000
# 6 0.000000 0.000000 0.000000 -0.003876 0.000000 0.027177
#
#
# Mechanical properties :
#
#
# Convention : Reuss Voigt Hill
#
# Bulk Modulus (GPa) = 40.91483 59.17900 50.04692
# Shear Modulus (GPa) = 25.56502 34.32097 29.94300
#
# Velocity S-wave (km/s) = 3.43435 3.97925 3.71680
# Velocity P-wave (km/s) = 5.88243 6.95813 6.44277
#
# Compressibility (1/GPa) = 0.02444101
#
# Stress axis : x y z
#
# Youngs Moduli (GPa) = 97.98587 106.41159 45.42577
#
# Poissons Ratio (x) = 0.35558 0.23404
# Poissons Ratio (y) = 0.32742 0.00428
# Poissons Ratio (z) = 0.50484 0.01004
#
# Static dielectric constant tensor:
#      x y z
#    x 1.834920 0.000000 -0.009710 
#    y 0.000000 1.804940 0.000000 
#    z -0.009710 0.000000 1.771810 
# 
# From -- ./inp_files/287644.got.cif
#   From: 2010.05.17/outbox.cif.g08.bks.cpg/sg15_144_cif.got.tgz:287644.got - 2010.06.03 18:47:42.
