data_PCOD9300098
_publ_section_title
;
Structure prediction by ZEFSAII (Michael W. Deem and Ramdas Pophale) SiO2 
 PCOD9300098
Probable space group: C 2/C
;
_chemical_formula_sum "Si O2"
_cell_formula_units_Z 36
_cell_length_a 16.093238
_cell_length_b 10.258872
_cell_length_c 19.388443
_cell_angle_alpha 90.000000
_cell_angle_beta 151.003364
_cell_angle_gamma 90.000000
_cell_volume 1551.712306
_symmetry_space_group_name_H-M "C 2/C"
_symmetry_group_IT_number 15
_symmetry_cell_setting 'monoclinic'
loop_
_space_group_symop_operation_xyz
x,y,z
-x,y,1/2-z
-x,-y,-z
x,-y,1/2+z
1/2+x,1/2+y,z
1/2-x,1/2+y,1/2-z
1/2-x,1/2-y,-z
1/2+x,1/2-y,1/2+z
loop_
_atom_site_type_symbol
_atom_site_label
_atom_site_fract_x
_atom_site_fract_y
_atom_site_fract_z
Si Si1 0.500000 0.788699 0.750000
Si Si2 0.403982 0.497361 0.358440
Si Si3 0.868116 0.663989 0.535468
Si Si4 0.804210 0.070549 0.521644
Si Si5 0.754813 0.251678 0.200949
O O1 0.334070 0.882877 0.636184
O O2 0.414937 0.690584 0.632699
O O3 0.500000 0.500000 0.500000
O O4 0.547404 0.514727 0.404447
O O5 0.319164 0.356062 0.299166
O O6 0.277743 0.616354 0.257345
O O7 0.750000 0.750000 0.500000
O O8 0.799750 0.515803 0.498002
O O9 0.848661 0.714350 0.442985
O O10 0.067026 0.685580 0.696630
#
# Coordination Sequence:
#
# PCOD9300098 Si02
#       5
#     4   8   8   8   8
#     4  10  26  44  70 106 138 188 232 308 354 436
#     4  12  27  47  70 110 149 192 237 304 369 442
#     4  12  25  46  78 107 135 192 254 304 350 436
#     4  11  25  45  74 101 145 185 247 291 369 428
#     4  12  27  47  77 107 151 192 245 304 373 438
#
# _framework density 23.200177
#
# number of rings (size 3 to 8) (size 9 to 14) (size 15 to 20)
#    0.000    0.444    4.444    2.000    9.333    2.667 
#    0.000    0.000    0.000    0.000    0.000    0.000 
#    0.000    0.000    0.000    0.000    0.000    0.000 
#
# Total GULP energy -100518.556337 kJ/mol
# GULP energy per Si atom -5584.364241 kJ/mol
# Density = 2.314737 g / cm^3
# Si number density = 23.200177 Si / 1000 Ang^3
#
#
#
# Elastic Constant Matrix: (Units=GPa)
#
#
# Indices 1 2 3 4 5 6 
#
# 1 38.2678 13.7665 -7.6733 -0.0001 1.7576 0.0000
# 2 13.7665 136.1998 25.9584 -0.0024 -8.1740 -0.0008
# 3 -7.6733 25.9584 92.2162 -0.0027 -0.2784 -0.0010
# 4 -0.0001 -0.0024 -0.0027 42.5993 -0.0003 2.9194
# 5 1.7576 -8.1740 -0.2784 -0.0003 18.4365 -0.0001
# 6 0.0000 -0.0008 -0.0010 2.9194 -0.0001 38.6107
#
#
#
# Elastic Compliance Matrix: (Units=1/GPa)
#
#
# Indices 1 2 3 4 5 6 
#
# 1 0.028374 -0.003778 0.003411 0.000000 -0.004328 0.000000
# 2 -0.003778 0.008481 -0.002690 0.000000 0.004080 0.000000
# 3 0.003411 -0.002690 0.011881 0.000001 -0.001338 0.000000
# 4 0.000000 0.000000 0.000001 0.023597 0.000001 -0.001784
# 5 -0.004328 0.004080 -0.001338 0.000001 0.056442 0.000000
# 6 0.000000 0.000000 0.000000 -0.001784 0.000000 0.026034
#
#
# Mechanical properties :
#
#
# Convention : Reuss Voigt Hill
#
# Bulk Modulus (GPa) = 23.46098 36.75409 30.10753
# Shear Modulus (GPa) = 28.55041 35.57144 32.06093
#
# Velocity S-wave (km/s) = 3.51181 3.91991 3.72146
# Velocity P-wave (km/s) = 5.15540 6.03027 5.60991
#
# Compressibility (1/GPa) = 0.04262397
#
# Stress axis : x y z
#
# Youngs Moduli (GPa) = 35.24413 117.90440 84.16809
#
# Poissons Ratio (x) = 0.44542 -0.28713
# Poissons Ratio (y) = 0.13315 0.22637
# Poissons Ratio (z) = -0.12023 0.31711
#
# Static dielectric constant tensor:
#      x y z
#    x 1.970620 -0.000020 -0.069160 
#    y -0.000020 1.925480 0.000010 
#    z -0.069160 0.000010 1.960650 
# 
# From -- ./inp_files/247737.got.cif
#   From: 2010.05.17/outbox.cif.g08.bks.cpg/sg15_124_cif.got.tgz:247737.got - 2010.06.03 18:47:42.
