data_PCOD9300888
_publ_section_title
;
Structure prediction by ZEFSAII (Michael W. Deem and Ramdas Pophale) SiO2 
 PCOD9300888
Probable space group: C 2/C
;
_chemical_formula_sum "Si O2"
_cell_formula_units_Z 64
_cell_length_a 11.740985
_cell_length_b 23.228621
_cell_length_c 22.100071
_cell_angle_alpha 90.000000
_cell_angle_beta 144.112285
_cell_angle_gamma 90.000000
_cell_volume 3533.185594
_symmetry_space_group_name_H-M "C 2/C"
_symmetry_group_IT_number 15
_symmetry_cell_setting 'monoclinic'
loop_
_space_group_symop_operation_xyz
x,y,z
-x,y,1/2-z
-x,-y,-z
x,-y,1/2+z
1/2+x,1/2+y,z
1/2-x,1/2+y,1/2-z
1/2-x,1/2-y,-z
1/2+x,1/2-y,1/2+z
loop_
_atom_site_type_symbol
_atom_site_label
_atom_site_fract_x
_atom_site_fract_y
_atom_site_fract_z
Si Si1 0.399712 0.868014 0.889643
Si Si2 0.603617 0.413196 0.228458
Si Si3 0.610926 0.729761 0.241541
Si Si4 0.291179 0.634468 0.065698
Si Si5 0.912710 0.682685 0.871586
Si Si6 0.174314 0.162503 0.966092
Si Si7 0.192812 0.258135 0.874445
Si Si8 0.081959 0.047467 0.216159
O O1 0.304976 0.805217 0.839587
O O2 0.349087 0.880720 0.937697
O O3 0.276202 0.914205 0.798209
O O4 0.621253 0.865113 0.966869
O O5 0.500000 0.406911 0.250000
O O6 0.799252 0.377178 0.320976
O O7 0.486387 0.383613 0.122954
O O8 0.621661 0.480792 0.223339
O O9 0.500000 0.757446 0.250000
O O10 0.457862 0.680042 0.155712
O O11 0.652577 0.776627 0.210374
O O12 0.413943 0.577412 0.103316
O O13 0.139563 0.668513 0.959573
O O14 0.847475 0.720616 0.901876
O O15 0.131619 0.216216 0.902990
O O16 0.208025 0.187559 0.048396
O O17 0.000000 0.270421 0.750000
O O18 0.000000 0.053704 0.250000
#
# Coordination Sequence:
#
# PCOD9300888 Si02
#       8
#     8   8   8   8   8   8   8   8
#     4   9  16  32  50  71  99 142 170 207 263 315
#     4  11  20  33  48  79 109 137 173 224 262 306
#     4   9  20  32  50  74 104 130 172 212 257 314
#     4   9  17  32  48  73  98 137 168 212 262 310
#     4  12  19  31  51  75 108 137 166 213 265 312
#     4  11  20  31  52  74 109 145 168 206 259 313
#     4  11  21  33  47  76 112 141 171 204 253 317
#     4   8  18  32  49  70 106 135 179 219 258 308
#
# _framework density 18.113966000000001
#
# number of rings (size 3 to 8) (size 9 to 14) (size 15 to 20)
#    0.000    2.000    3.750    2.625    1.750    1.000 
#    0.000    3.750    0.000    0.000    0.000   19.250 
#    0.000    0.000    0.000    0.000    0.000    0.000 
#
# Total GULP energy -178204.559625 kJ/mol
# GULP energy per Si atom -5568.892488 kJ/mol
# Density = 1.807274 g / cm^3
# Si number density = 18.113966 Si / 1000 Ang^3
#
#
#
# Elastic Constant Matrix: (Units=GPa)
#
#
# Indices 1 2 3 4 5 6 
#
# 1 22.8624 17.1531 7.4419 0.0003 2.5684 0.0004
# 2 17.1531 72.1357 24.8179 0.0000 -8.3776 0.0000
# 3 7.4419 24.8179 85.9350 0.0004 4.7653 0.0010
# 4 0.0003 0.0000 0.0004 0.5073 0.0001 -1.7083
# 5 2.5684 -8.3776 4.7653 0.0001 23.3286 0.0006
# 6 0.0004 0.0000 0.0010 -1.7083 0.0006 9.7198
#
#
#
# Elastic Compliance Matrix: (Units=1/GPa)
#
#
# Indices 1 2 3 4 5 6 
#
# 1 0.056012 -0.014652 0.000015 -0.000076 -0.011431 -0.000015
# 2 -0.014652 0.020268 -0.005136 0.000026 0.009941 0.000005
# 3 0.000015 -0.005136 0.013372 -0.000032 -0.004578 -0.000007
# 4 -0.000076 0.000026 -0.000032 4.829550 -0.000012 0.848839
# 5 -0.011431 0.009941 -0.004578 -0.000012 0.048629 -0.000004
# 6 -0.000015 0.000005 -0.000007 0.848839 -0.000004 0.252074
#
#
# Mechanical properties :
#
#
# Convention : Reuss Voigt Hill
#
# Bulk Modulus (GPa) = 19.95722 31.08433 25.52077
# Shear Modulus (GPa) = 0.94766 15.47916 8.21341
#
# Velocity S-wave (km/s) = 0.72409 2.92643 2.13170
# Velocity P-wave (km/s) = 3.42645 5.34942 4.49204
#
# Compressibility (1/GPa) = 0.05010718
#
# Stress axis : x y z
#
# Youngs Moduli (GPa) = 17.85322 49.33826 74.78042
#
# Poissons Ratio (x) = 0.72289 -0.00110
# Poissons Ratio (y) = 0.26158 0.38406
# Poissons Ratio (z) = -0.00026 0.25339
#
# Static dielectric constant tensor:
#      x y z
#    x 1.620550 0.000000 -0.005500 
#    y 0.000000 1.618720 0.000000 
#    z -0.005500 0.000000 1.698860 
# 
# From -- ./inp_files/240713.got.cif
#   From: 2010.05.17/outbox.cif.g08.bks.cpg/sg15_121_cif.got.tgz:240713.got - 2010.06.03 18:47:42.
