data_PCOD9300756
_publ_section_title
;
Structure prediction by ZEFSAII (Michael W. Deem and Ramdas Pophale) SiO2 
 PCOD9300756
Probable space group: C 2/C
;
_chemical_formula_sum "Si O2"
_cell_formula_units_Z 40
_cell_length_a 18.558494
_cell_length_b 11.675400
_cell_length_c 15.532400
_cell_angle_alpha 90.000000
_cell_angle_beta 152.491129
_cell_angle_gamma 90.000000
_cell_volume 1554.489560
_symmetry_space_group_name_H-M "C 2/C"
_symmetry_group_IT_number 15
_symmetry_cell_setting 'monoclinic'
loop_
_space_group_symop_operation_xyz
x,y,z
-x,y,1/2-z
-x,-y,-z
x,-y,1/2+z
1/2+x,1/2+y,z
1/2-x,1/2+y,1/2-z
1/2-x,1/2-y,-z
1/2+x,1/2-y,1/2+z
loop_
_atom_site_type_symbol
_atom_site_label
_atom_site_fract_x
_atom_site_fract_y
_atom_site_fract_z
Si Si1 0.166804 0.409522 0.015822
Si Si2 0.287330 0.848477 0.971741
Si Si3 0.857288 0.687862 0.248874
Si Si4 0.827622 0.988346 0.359227
Si Si5 0.983797 0.223785 0.063341
O O1 0.212239 0.517776 0.004918
O O2 0.274316 0.297713 0.119267
O O3 0.207984 0.455404 0.156655
O O4 0.987937 0.371189 0.829344
O O5 0.152624 0.828263 0.757487
O O6 0.250000 0.750000 0.000000
O O7 0.449529 0.822748 0.095600
O O8 0.732176 0.595557 0.150217
O O9 0.949055 0.733175 0.431099
O O10 0.857011 0.875930 0.448264
O O11 0.000000 0.000000 0.500000
#
# Coordination Sequence:
#
# PCOD9300756 Si02
#       5
#     8   8   8   8   8
#     4  11  23  38  64 103 142 174 231 285 360 420
#     4  12  26  43  63  94 138 190 236 273 324 415
#     4  11  22  38  68 106 140 174 220 302 372 405
#     4  11  19  37  64 101 143 171 213 293 365 418
#     4  11  22  40  64  99 136 174 228 279 348 408
#
# _framework density 25.731919999999999
#
# number of rings (size 3 to 8) (size 9 to 14) (size 15 to 20)
#    0.000    0.800    4.000    6.000    2.800    0.000 
#    0.000    0.000    0.000    1.200    0.000    0.000 
#    0.000    0.000    0.000    0.000    0.000    0.000 
#
# Total GULP energy -112068.882179 kJ/mol
# GULP energy per Si atom -5603.444109 kJ/mol
# Density = 2.567335 g / cm^3
# Si number density = 25.731920 Si / 1000 Ang^3
#
#
#
# Elastic Constant Matrix: (Units=GPa)
#
#
# Indices 1 2 3 4 5 6 
#
# 1 101.9996 67.3588 45.5094 0.0000 9.8592 0.0000
# 2 67.3588 219.6913 71.3650 0.0000 14.1334 0.0000
# 3 45.5094 71.3650 97.2634 0.0000 28.0300 0.0000
# 4 0.0000 0.0000 0.0000 56.4049 0.0000 3.3573
# 5 9.8592 14.1334 28.0300 0.0000 32.8854 0.0000
# 6 0.0000 0.0000 0.0000 3.3573 0.0000 53.2716
#
#
#
# Elastic Compliance Matrix: (Units=1/GPa)
#
#
# Indices 1 2 3 4 5 6 
#
# 1 0.013577 -0.002715 -0.004671 0.000000 0.001078 0.000000
# 2 -0.002715 0.006579 -0.003946 0.000000 0.001350 0.000000
# 3 -0.004671 -0.003946 0.019182 0.000000 -0.013253 0.000000
# 4 0.000000 0.000000 0.000000 0.017796 0.000000 -0.001122
# 5 0.001078 0.001350 -0.013253 0.000000 0.040802 0.000000
# 6 0.000000 0.000000 0.000000 -0.001122 0.000000 0.018842
#
#
# Mechanical properties :
#
#
# Convention : Reuss Voigt Hill
#
# Bulk Modulus (GPa) = 59.97544 87.49120 73.73332
# Shear Modulus (GPa) = 34.48272 44.16043 39.32158
#
# Velocity S-wave (km/s) = 3.66468 4.14717 3.91336
# Velocity P-wave (km/s) = 6.42377 7.55029 7.00970
#
# Compressibility (1/GPa) = 0.01667349
#
# Stress axis : x y z
#
# Youngs Moduli (GPa) = 73.65578 151.99396 52.13222
#
# Poissons Ratio (x) = 0.41260 0.24353
# Poissons Ratio (y) = 0.19994 0.20572
# Poissons Ratio (z) = 0.34408 0.59980
#
# Static dielectric constant tensor:
#      x y z
#    x 2.004580 0.000000 -0.042350 
#    y 0.000000 2.096850 0.000000 
#    z -0.042350 0.000000 2.031010 
# 
# From -- ./inp_files/46102.got.cif
#   From: 2010.05.17/outbox.cif.g08.bks.cpg/sg15_24_cif.got.tgz:46102.got - 2010.06.03 18:47:42.
