data_PCOD9300031
_publ_section_title
;
Structure prediction by ZEFSAII (Michael W. Deem and Ramdas Pophale) SiO2 
 PCOD9300031
Probable space group: C 2/C
;
_chemical_formula_sum "Si O2"
_cell_formula_units_Z 28
_cell_length_a 4.879719
_cell_length_b 30.126119
_cell_length_c 8.644496
_cell_angle_alpha 90.000000
_cell_angle_beta 82.563189
_cell_angle_gamma 90.000000
_cell_volume 1260.111668
_symmetry_space_group_name_H-M "C 2/C"
_symmetry_group_IT_number 15
_symmetry_cell_setting 'monoclinic'
loop_
_space_group_symop_operation_xyz
x,y,z
-x,y,1/2-z
-x,-y,-z
x,-y,1/2+z
1/2+x,1/2+y,z
1/2-x,1/2+y,1/2-z
1/2-x,1/2-y,-z
1/2+x,1/2-y,1/2+z
loop_
_atom_site_type_symbol
_atom_site_label
_atom_site_fract_x
_atom_site_fract_y
_atom_site_fract_z
Si Si1 0.319625 0.115984 0.921740
Si Si2 0.277922 0.285730 0.132989
Si Si3 0.500000 0.998152 0.250000
Si Si4 0.732168 0.439047 0.999019
O O1 0.500000 0.115628 0.750000
O O2 0.188843 0.164841 0.940406
O O3 0.548432 0.101484 0.029414
O O4 0.930104 0.080659 0.551753
O O5 0.500000 0.276317 0.250000
O O6 0.000000 0.286432 0.250000
O O7 0.250000 0.250000 0.000000
O O8 0.274521 0.029225 0.350155
O O9 0.346493 0.968436 0.133441
#
# Coordination Sequence:
#
# PCOD9300031 Si02
#       4
#     8   8   4   8
#     4  11  23  43  69  95 130 180 220 270 337 418
#     4  11  24  45  73 103 137 180 227 280 348 414
#     4  10  26  42  66  94 132 176 222 288 326 392
#     4  11  24  43  65  92 134 171 229 271 342 386
#
# _framework density 22.220251000000001
#
# number of rings (size 3 to 8) (size 9 to 14) (size 15 to 20)
#    0.000    1.143    1.429    5.143    0.000    8.000 
#    7.714    0.000    0.000    0.000    0.000    0.000 
#    0.000    0.000    0.000    0.000    0.000    0.000 
#
# Total GULP energy -78304.578849 kJ/mol
# GULP energy per Si atom -5593.184203 kJ/mol
# Density = 2.216968 g / cm^3
# Si number density = 22.220251 Si / 1000 Ang^3
#
#
#
# Elastic Constant Matrix: (Units=GPa)
#
#
# Indices 1 2 3 4 5 6 
#
# 1 163.0484 41.6721 31.9819 0.0000 -5.8319 0.0000
# 2 41.6721 146.7335 65.1186 0.0000 -7.6162 0.0000
# 3 31.9819 65.1186 76.8400 0.0000 -3.2126 0.0000
# 4 0.0000 0.0000 0.0000 34.1927 0.0000 -10.6830
# 5 -5.8319 -7.6162 -3.2126 0.0000 31.1261 0.0000
# 6 0.0000 0.0000 0.0000 -10.6830 0.0000 33.0795
#
#
#
# Elastic Compliance Matrix: (Units=1/GPa)
#
#
# Indices 1 2 3 4 5 6 
#
# 1 0.006804 -0.001039 -0.001917 0.000000 0.000823 0.000000
# 2 -0.001039 0.011175 -0.008970 0.000000 0.001614 0.000000
# 3 -0.001917 -0.008970 0.021400 0.000000 -0.000345 0.000000
# 4 0.000000 0.000000 0.000000 0.032528 0.000000 0.010505
# 5 0.000823 0.001614 -0.000345 0.000000 0.032641 0.000000
# 6 0.000000 0.000000 0.000000 0.010505 0.000000 0.033623
#
#
# Mechanical properties :
#
#
# Convention : Reuss Voigt Hill
#
# Bulk Modulus (GPa) = 64.40911 73.79637 69.10274
# Shear Modulus (GPa) = 29.90464 36.20294 33.05379
#
# Velocity S-wave (km/s) = 3.67253 4.04081 3.86106
# Velocity P-wave (km/s) = 6.85806 7.41986 7.14448
#
# Compressibility (1/GPa) = 0.01552575
#
# Stress axis : x y z
#
# Youngs Moduli (GPa) = 146.96929 89.48723 46.72999
#
# Poissons Ratio (x) = 0.09296 0.08959
# Poissons Ratio (y) = 0.15267 0.41918
# Poissons Ratio (z) = 0.28177 0.80273
#
# Static dielectric constant tensor:
#      x y z
#    x 1.799480 0.000000 -0.001130 
#    y 0.000000 1.920460 0.000000 
#    z -0.001130 0.000000 1.824190 
# 
# From -- ./inp_files/19658.got.cif
#   From: 2010.05.17/outbox.cif.g08.bks.cpg/sg15_10_cif.got.tgz:19658.got - 2010.06.03 18:47:42.
