data_PCOD9300840
_publ_section_title
;
Structure prediction by ZEFSAII (Michael W. Deem and Ramdas Pophale) SiO2 
 PCOD9300840
Probable space group: C 2/C
;
_chemical_formula_sum "Si O2"
_cell_formula_units_Z 56
_cell_length_a 19.846050
_cell_length_b 10.875965
_cell_length_c 11.135831
_cell_angle_alpha 90.000000
_cell_angle_beta 115.538469
_cell_angle_gamma 90.000000
_cell_volume 2168.770319
_symmetry_space_group_name_H-M "C 2/C"
_symmetry_group_IT_number 15
_symmetry_cell_setting 'monoclinic'
loop_
_space_group_symop_operation_xyz
x,y,z
-x,y,1/2-z
-x,-y,-z
x,-y,1/2+z
1/2+x,1/2+y,z
1/2-x,1/2+y,1/2-z
1/2-x,1/2-y,-z
1/2+x,1/2-y,1/2+z
loop_
_atom_site_type_symbol
_atom_site_label
_atom_site_fract_x
_atom_site_fract_y
_atom_site_fract_z
Si Si1 0.123061 0.324753 0.383025
Si Si2 0.500000 0.966522 0.750000
Si Si3 0.401811 0.757348 0.773828
Si Si4 0.789477 0.494592 0.906348
Si Si5 0.253894 0.601325 0.374530
Si Si6 0.972064 0.148595 0.055245
Si Si7 0.000000 0.066420 0.750000
Si Si8 0.373518 0.215134 0.878775
O O1 0.065567 0.439325 0.335239
O O2 0.180267 0.361673 0.530276
O O3 0.074892 0.205773 0.371598
O O4 0.157624 0.308159 0.279338
O O5 0.459430 0.873608 0.811953
O O6 0.321054 0.814706 0.691314
O O7 0.430192 0.659449 0.697480
O O8 0.415433 0.677701 0.903382
O O9 0.748014 0.483373 0.747235
O O10 0.858870 0.587093 0.934757
O O11 0.747863 0.540202 0.995051
O O12 0.323836 0.687436 0.409037
O O13 0.044116 0.231349 0.077880
O O14 0.994972 0.016769 0.126318
#
# Coordination Sequence:
#
# PCOD9300840 Si02
#       8
#     8   4   8   8   8   8   4   8
#     4  12  22  43  79 110 143 189 244 324 376 437
#     4  11  19  40  72 110 139 175 248 314 376 423
#     4  11  25  43  72 104 145 199 252 308 369 456
#     4  12  25  51  76 112 151 194 253 318 381 446
#     4  12  28  49  76 115 151 200 251 310 391 447
#     4  12  24  47  72 107 150 196 256 309 377 450
#     4  11  25  46  62 100 151 201 254 294 374 441
#     4  12  26  46  73 109 155 194 249 315 380 453
#
# _framework density 25.821083000000002
#
# number of rings (size 3 to 8) (size 9 to 14) (size 15 to 20)
#    0.000    0.286    7.143    1.714    2.000    2.857 
#    2.571    0.000    0.000    0.000    0.000    0.000 
#    0.000    0.000    0.000    0.000    0.000    0.000 
#
# Total GULP energy -156694.190653 kJ/mol
# GULP energy per Si atom -5596.221095 kJ/mol
# Density = 2.576231 g / cm^3
# Si number density = 25.821083 Si / 1000 Ang^3
#
#
#
# Elastic Constant Matrix: (Units=GPa)
#
#
# Indices 1 2 3 4 5 6 
#
# 1 76.7968 13.7912 44.6101 0.0000 -21.3231 0.0000
# 2 13.7912 64.9118 28.9254 0.0000 -3.1660 0.0000
# 3 44.6101 28.9254 113.3090 0.0000 -28.6180 0.0000
# 4 0.0000 0.0000 0.0000 183.5278 0.0000 66.1317
# 5 -21.3231 -3.1660 -28.6180 0.0000 31.3053 0.0000
# 6 0.0000 0.0000 0.0000 66.1317 0.0000 68.8928
#
#
#
# Elastic Compliance Matrix: (Units=1/GPa)
#
#
# Indices 1 2 3 4 5 6 
#
# 1 0.018270 -0.001329 -0.004869 0.000000 0.007859 0.000000
# 2 -0.001329 0.017697 -0.004903 0.000000 -0.003598 0.000000
# 3 -0.004869 -0.004903 0.014343 0.000000 0.009299 0.000000
# 4 0.000000 0.000000 0.000000 0.008330 0.000000 -0.007996
# 5 0.007859 -0.003598 0.009299 0.000000 0.045434 0.000000
# 6 0.000000 0.000000 0.000000 -0.007996 0.000000 0.022191
#
#
# Mechanical properties :
#
#
# Convention : Reuss Voigt Hill
#
# Bulk Modulus (GPa) = 35.57640 47.74122 41.65881
# Shear Modulus (GPa) = 31.67826 67.92458 49.80142
#
# Velocity S-wave (km/s) = 3.50642 5.13449 4.39647
# Velocity P-wave (km/s) = 5.49557 7.32666 6.47616
#
# Compressibility (1/GPa) = 0.02810852
#
# Stress axis : x y z
#
# Youngs Moduli (GPa) = 54.73318 56.50572 69.72179
#
# Poissons Ratio (x) = 0.07508 0.33947
# Poissons Ratio (y) = 0.07273 0.34186
# Poissons Ratio (z) = 0.26649 0.27706
#
# Static dielectric constant tensor:
#      x y z
#    x 2.042590 0.000000 -0.029530 
#    y 0.000000 1.994450 0.000000 
#    z -0.029530 0.000000 2.107980 
# 
# From -- ./inp_files/111700.got.cif
#   From: 2010.05.17/outbox.cif.g08.bks.cpg/sg15_56_cif.got.tgz:111700.got - 2010.06.03 18:47:42.
