data_PCOD9300164
_publ_section_title
;
Structure prediction by ZEFSAII (Michael W. Deem and Ramdas Pophale) SiO2 
 PCOD9300164
Probable space group: C 2/C
;
_chemical_formula_sum "Si O2"
_cell_formula_units_Z 56
_cell_length_a 22.620516
_cell_length_b 15.730545
_cell_length_c 22.745617
_cell_angle_alpha 90.000000
_cell_angle_beta 159.603603
_cell_angle_gamma 90.000000
_cell_volume 2820.740369
_symmetry_space_group_name_H-M "C 2/C"
_symmetry_group_IT_number 15
_symmetry_cell_setting 'monoclinic'
loop_
_space_group_symop_operation_xyz
x,y,z
-x,y,1/2-z
-x,-y,-z
x,-y,1/2+z
1/2+x,1/2+y,z
1/2-x,1/2+y,1/2-z
1/2-x,1/2-y,-z
1/2+x,1/2-y,1/2+z
loop_
_atom_site_type_symbol
_atom_site_label
_atom_site_fract_x
_atom_site_fract_y
_atom_site_fract_z
Si Si1 0.855530 0.015586 0.998864
Si Si2 0.399189 0.351248 0.451480
Si Si3 0.292958 0.171101 0.298205
Si Si4 0.646509 0.148485 0.281910
Si Si5 0.500000 0.445876 0.250000
Si Si6 0.678279 0.428473 0.242404
Si Si7 0.749231 0.320301 0.414029
Si Si8 0.000000 0.500000 0.500000
O O1 0.826697 0.108424 0.944059
O O2 0.916115 0.004723 0.121981
O O3 0.013920 0.979419 0.108819
O O4 0.706524 0.947318 0.850046
O O5 0.343930 0.257781 0.378566
O O6 0.603220 0.352129 0.641497
O O7 0.331878 0.412101 0.336501
O O8 0.288269 0.172277 0.222664
O O9 0.431944 0.098744 0.438808
O O10 0.724398 0.219475 0.398247
O O11 0.446344 0.158965 0.100641
O O12 0.640369 0.382780 0.353283
O O13 0.681781 0.345054 0.285799
O O14 0.855918 0.475185 0.415681
#
# Coordination Sequence:
#
# PCOD9300164 Si02
#       8
#     8   8   8   8   4   8   8   4
#     4  11  24  41  64  87 127 171 219 264 320 370
#     4  12  23  40  63  95 134 172 206 258 326 393
#     4  12  23  38  61  98 137 164 206 260 328 404
#     4  12  22  39  63  93 132 171 209 265 324 399
#     4  10  26  46  62  90 124 176 230 278 306 374
#     4  11  20  37  59  91 128 169 203 259 323 389
#     4  11  23  38  61  89 130 172 215 262 325 376
#     4  12  22  34  60  94 130 168 204 254 320 394
#
# _framework density 19.852943
#
# number of rings (size 3 to 8) (size 9 to 14) (size 15 to 20)
#    0.000    0.571    5.714    4.714    0.000    2.857 
#    0.000    0.000    0.000    0.857    0.000    0.000 
#    0.000    0.000    0.000    0.000    0.000    0.000 
#
# Total GULP energy -155876.956543 kJ/mol
# GULP energy per Si atom -5567.034162 kJ/mol
# Density = 1.980776 g / cm^3
# Si number density = 19.852943 Si / 1000 Ang^3
#
#
#
# Elastic Constant Matrix: (Units=GPa)
#
#
# Indices 1 2 3 4 5 6 
#
# 1 72.4042 11.4224 18.3183 0.0111 -27.2399 -0.0174
# 2 11.4224 113.2432 31.6263 -0.0178 -6.4385 0.0288
# 3 18.3183 31.6263 82.5165 -0.0085 8.4431 0.0120
# 4 0.0111 -0.0178 -0.0085 -48.1219 -0.0123 41.8412
# 5 -27.2399 -6.4385 8.4431 -0.0123 41.4751 0.0189
# 6 -0.0174 0.0288 0.0120 41.8412 0.0189 -10.4189
#
#
#
# Elastic Compliance Matrix: (Units=1/GPa)
#
#
# Indices 1 2 3 4 5 6 
#
# 1 0.021097 0.000541 -0.006451 0.000004 0.015253 0.000002
# 2 0.000541 0.010134 -0.004291 -0.000008 0.002802 -0.000005
# 3 -0.006451 -0.004291 0.016031 -0.000001 -0.008167 0.000000
# 4 0.000004 -0.000008 -0.000001 0.008340 -0.000011 0.033491
# 5 0.015253 0.002802 -0.008167 -0.000011 0.036226 -0.000007
# 6 0.000002 -0.000005 0.000000 0.033491 -0.000007 0.038519
#
#
# Mechanical properties :
#
#
# Convention : Reuss Voigt Hill
#
# Bulk Modulus (GPa) = 37.23122 43.43308 40.33215
# Shear Modulus (GPa) = 31.30837 10.37334 20.84086
#
# Velocity S-wave (km/s) = 3.97547 2.28833 3.24352
# Velocity P-wave (km/s) = 6.31401 5.37650 5.86402
#
# Compressibility (1/GPa) = 0.02685918
#
# Stress axis : x y z
#
# Youngs Moduli (GPa) = 47.40059 98.68179 62.37866
#
# Poissons Ratio (x) = -0.05339 0.40243
# Poissons Ratio (y) = -0.02565 0.26765
# Poissons Ratio (z) = 0.30580 0.42342
#
# Static dielectric constant tensor:
#      x y z
#    x 1.708140 0.000000 -0.044750 
#    y 0.000000 1.754580 -0.000010 
#    z -0.044750 -0.000010 1.802480 
# 
# From -- ./inp_files/282134.got.cif
#   From: 2010.05.17/outbox.cif.g08.bks.cpg/sg15_142_cif.got.tgz:282134.got - 2010.06.03 18:47:42.
