data_PCOD9300048
_publ_section_title
;
Structure prediction by ZEFSAII (Michael W. Deem and Ramdas Pophale) SiO2 
 PCOD9300048
Probable space group: C 2/C
;
_chemical_formula_sum "Si O2"
_cell_formula_units_Z 56
_cell_length_a 17.124638
_cell_length_b 14.965641
_cell_length_c 11.005556
_cell_angle_alpha 90.000000
_cell_angle_beta 116.977741
_cell_angle_gamma 90.000000
_cell_volume 2513.596256
_symmetry_space_group_name_H-M "C 2/C"
_symmetry_group_IT_number 15
_symmetry_cell_setting 'monoclinic'
loop_
_space_group_symop_operation_xyz
x,y,z
-x,y,1/2-z
-x,-y,-z
x,-y,1/2+z
1/2+x,1/2+y,z
1/2-x,1/2+y,1/2-z
1/2-x,1/2-y,-z
1/2+x,1/2-y,1/2+z
loop_
_atom_site_type_symbol
_atom_site_label
_atom_site_fract_x
_atom_site_fract_y
_atom_site_fract_z
Si Si1 0.307715 0.742833 0.417158
Si Si2 0.613326 0.269578 0.006802
Si Si3 0.819438 0.069824 0.246461
Si Si4 0.749574 0.103119 0.803548
Si Si5 0.002223 0.695426 0.391813
Si Si6 0.152590 0.574810 0.951389
Si Si7 0.000000 0.500000 0.000000
Si Si8 0.000000 0.879277 0.750000
O O1 0.250000 0.750000 0.500000
O O2 0.300001 0.655001 0.322817
O O3 0.284717 0.832684 0.325725
O O4 0.409798 0.749237 0.522998
O O5 0.698393 0.330663 0.070624
O O6 0.583048 0.249695 0.122914
O O7 0.629812 0.178914 0.947060
O O8 0.535597 0.319560 0.884733
O O9 0.912569 0.075009 0.242933
O O10 0.814079 0.976274 0.313209
O O11 0.739335 0.061881 0.094419
O O12 0.670724 0.057116 0.822214
O O13 0.000000 0.672216 0.250000
O O14 0.999170 0.607393 0.471075
O O15 0.077058 0.514237 0.951284
#
# Coordination Sequence:
#
# PCOD9300048 Si02
#       8
#     8   8   8   8   8   8   4   4
#     4  12  27  47  74 109 146 197 246 306 376 442
#     4  11  23  45  73 104 136 197 238 305 363 432
#     4  12  27  47  78 107 147 195 247 309 369 446
#     4  12  26  46  77 105 146 196 249 305 372 444
#     4  11  25  46  67 105 151 189 240 304 370 438
#     4  11  24  48  74 107 147 189 245 307 372 440
#     4  10  26  42  74 108 142 192 240 304 366 438
#     4  12  24  48  70 106 142 182 260 292 362 448
#
# _framework density 22.278836999999999
#
# number of rings (size 3 to 8) (size 9 to 14) (size 15 to 20)
#    0.000    0.571    4.286    3.000    6.000    1.714 
#    6.429    0.000    0.000    0.000    0.000    0.000 
#    0.000    0.000    0.000    0.000    0.000    0.000 
#
# Total GULP energy -156057.851566 kJ/mol
# GULP energy per Si atom -5573.494699 kJ/mol
# Density = 2.222813 g / cm^3
# Si number density = 22.278837 Si / 1000 Ang^3
#
#
#
# Elastic Constant Matrix: (Units=GPa)
#
#
# Indices 1 2 3 4 5 6 
#
# 1 164.3098 37.4485 13.4186 0.0000 -28.8128 0.0000
# 2 37.4485 85.6696 -1.6282 0.0000 -7.8536 0.0000
# 3 13.4186 -1.6282 39.5060 0.0000 -14.0462 0.0000
# 4 0.0000 0.0000 0.0000 3.8192 0.0000 -0.9223
# 5 -28.8128 -7.8536 -14.0462 0.0000 30.5474 0.0000
# 6 0.0000 0.0000 0.0000 -0.9223 0.0000 19.5794
#
#
#
# Elastic Compliance Matrix: (Units=1/GPa)
#
#
# Indices 1 2 3 4 5 6 
#
# 1 0.007923 -0.002876 -0.000497 0.000000 0.006505 0.000000
# 2 -0.002876 0.013119 0.002095 0.000000 0.001623 0.000000
# 3 -0.000497 0.002095 0.030594 0.000000 0.014138 0.000000
# 4 0.000000 0.000000 0.000000 0.264846 0.000000 0.012476
# 5 0.006505 0.001623 0.014138 0.000000 0.045790 0.000000
# 6 0.000000 0.000000 0.000000 0.012476 0.000000 0.051662
#
#
# Mechanical properties :
#
#
# Convention : Reuss Voigt Hill
#
# Bulk Modulus (GPa) = 20.37539 43.10705 31.74122
# Shear Modulus (GPa) = 11.55134 26.80563 19.17849
#
# Velocity S-wave (km/s) = 2.27951 3.47246 2.93719
# Velocity P-wave (km/s) = 4.01169 5.95552 5.07749
#
# Compressibility (1/GPa) = 0.04907882
#
# Stress axis : x y z
#
# Youngs Moduli (GPa) = 126.21607 76.22706 32.68581
#
# Poissons Ratio (x) = 0.21926 0.01624
# Poissons Ratio (y) = 0.36305 -0.06847
# Poissons Ratio (z) = 0.06270 -0.15967
#
# Static dielectric constant tensor:
#      x y z
#    x 1.862730 0.000000 0.077200 
#    y 0.000000 1.784310 0.000000 
#    z 0.077200 0.000000 1.972890 
# 
# From -- ./inp_files/105831.got.cif
#   From: 2010.05.17/outbox.cif.g08.bks.cpg/sg15_53_cif.got.tgz:105831.got - 2010.06.03 18:47:42.
