data_PCOD9300146
_publ_section_title
;
Structure prediction by ZEFSAII (Michael W. Deem and Ramdas Pophale) SiO2 
 PCOD9300146
Probable space group: C 2/C
;
_chemical_formula_sum "Si O2"
_cell_formula_units_Z 32
_cell_length_a 14.516050
_cell_length_b 9.988057
_cell_length_c 9.258801
_cell_angle_alpha 90.000000
_cell_angle_beta 79.728853
_cell_angle_gamma 90.000000
_cell_volume 1320.894895
_symmetry_space_group_name_H-M "C 2/C"
_symmetry_group_IT_number 15
_symmetry_cell_setting 'monoclinic'
loop_
_space_group_symop_operation_xyz
x,y,z
-x,y,1/2-z
-x,-y,-z
x,-y,1/2+z
1/2+x,1/2+y,z
1/2-x,1/2+y,1/2-z
1/2-x,1/2-y,-z
1/2+x,1/2-y,1/2+z
loop_
_atom_site_type_symbol
_atom_site_label
_atom_site_fract_x
_atom_site_fract_y
_atom_site_fract_z
Si Si1 0.302703 0.658154 0.812588
Si Si2 0.374695 0.883414 0.975688
Si Si3 0.603953 0.444507 0.505047
Si Si4 0.056868 0.340608 0.092846
O O1 0.341231 0.804496 0.843493
O O2 0.341111 0.601794 0.653056
O O3 0.192154 0.659122 0.872997
O O4 0.343151 0.559803 0.924407
O O5 0.370183 0.042624 0.959427
O O6 0.480581 0.842673 0.984848
O O7 0.500000 0.500000 0.500000
O O8 0.594950 0.308214 0.599150
O O9 0.000000 0.382567 0.250000
#
# Coordination Sequence:
#
# PCOD9300146 Si02
#       4
#     8   8   8   8
#     4  11  26  46  70  99 138 179 226 281 337 398
#     4  10  26  45  69  98 138 177 224 285 338 395
#     4  12  25  44  71  99 138 182 225 274 340 405
#     4  11  25  43  71  99 135 178 230 274 341 403
#
# _framework density 24.225999999999999
#
# number of rings (size 3 to 8) (size 9 to 14) (size 15 to 20)
#    0.000    1.000    2.500    2.250   10.500    3.000 
#    0.000    0.000    0.000    0.000    0.000    0.000 
#    0.000    0.000    0.000    0.000    0.000    0.000 
#
# Total GULP energy -89697.682710 kJ/mol
# GULP energy per Si atom -5606.105169 kJ/mol
# Density = 2.417086 g / cm^3
# Si number density = 24.226000 Si / 1000 Ang^3
#
#
#
# Elastic Constant Matrix: (Units=GPa)
#
#
# Indices 1 2 3 4 5 6 
#
# 1 78.1893 33.8979 10.3874 0.0000 -8.3468 0.0000
# 2 33.8979 130.8832 -15.6667 0.0000 -1.9597 0.0000
# 3 10.3874 -15.6667 87.8535 0.0000 -17.2994 0.0000
# 4 0.0000 0.0000 0.0000 40.1234 0.0000 -8.7283
# 5 -8.3468 -1.9597 -17.2994 0.0000 21.9006 0.0000
# 6 0.0000 0.0000 0.0000 -8.7283 0.0000 21.8741
#
#
#
# Elastic Compliance Matrix: (Units=1/GPa)
#
#
# Indices 1 2 3 4 5 6 
#
# 1 0.015227 -0.004089 -0.001728 0.000000 0.004073 0.000000
# 2 -0.004089 0.008990 0.002295 0.000000 0.001059 0.000000
# 3 -0.001728 0.002295 0.014100 0.000000 0.010685 0.000000
# 4 0.000000 0.000000 0.000000 0.027292 0.000000 0.010890
# 5 0.004073 0.001059 0.010685 0.000000 0.055748 0.000000
# 6 0.000000 0.000000 0.000000 0.010890 0.000000 0.050062
#
#
# Mechanical properties :
#
#
# Convention : Reuss Voigt Hill
#
# Bulk Modulus (GPa) = 31.97629 39.35147 35.66388
# Shear Modulus (GPa) = 26.47090 34.66677 30.56884
#
# Velocity S-wave (km/s) = 3.30913 3.78693 3.55606
# Velocity P-wave (km/s) = 5.27525 5.94977 5.62264
#
# Compressibility (1/GPa) = 0.03127317
#
# Stress axis : x y z
#
# Youngs Moduli (GPa) = 65.67425 111.23313 70.92143
#
# Poissons Ratio (x) = 0.45488 0.12253
# Poissons Ratio (y) = 0.26857 -0.16278
# Poissons Ratio (z) = 0.11346 -0.25530
#
# Static dielectric constant tensor:
#      x y z
#    x 1.944930 0.000000 0.012580 
#    y 0.000000 1.872760 0.000000 
#    z 0.012580 0.000000 1.890640 
# 
# From -- ./inp_files/36865.got.cif
#   From: 2010.05.17/outbox.cif.g08.bks.cpg/sg15_19_cif.got.tgz:36865.got - 2010.06.03 18:47:42.
