data_PCOD9300166
_publ_section_title
;
Structure prediction by ZEFSAII (Michael W. Deem and Ramdas Pophale) SiO2 
 PCOD9300166
Probable space group: C 2/C
;
_chemical_formula_sum "Si O2"
_cell_formula_units_Z 36
_cell_length_a 26.678635
_cell_length_b 9.174973
_cell_length_c 8.560336
_cell_angle_alpha 90.000000
_cell_angle_beta 138.087672
_cell_angle_gamma 90.000000
_cell_volume 1399.686974
_symmetry_space_group_name_H-M "C 2/C"
_symmetry_group_IT_number 15
_symmetry_cell_setting 'monoclinic'
loop_
_space_group_symop_operation_xyz
x,y,z
-x,y,1/2-z
-x,-y,-z
x,-y,1/2+z
1/2+x,1/2+y,z
1/2-x,1/2+y,1/2-z
1/2-x,1/2-y,-z
1/2+x,1/2-y,1/2+z
loop_
_atom_site_type_symbol
_atom_site_label
_atom_site_fract_x
_atom_site_fract_y
_atom_site_fract_z
Si Si1 0.369115 0.416678 0.745816
Si Si2 0.591459 0.849224 0.748045
Si Si3 0.785048 0.835261 0.856330
Si Si4 0.500000 0.377606 0.250000
Si Si5 0.106277 0.340546 0.426152
O O1 0.312993 0.347253 0.742644
O O2 0.324481 0.536344 0.546079
O O3 0.402393 0.296486 0.706959
O O4 0.440089 0.469340 0.012598
O O5 0.546286 0.731797 0.745588
O O6 0.574672 0.832217 0.527106
O O7 0.679064 0.810549 0.987220
O O8 0.579694 0.012601 0.779743
O O9 0.696597 0.845846 0.658749
#
# Coordination Sequence:
#
# PCOD9300166 Si02
#       5
#     8   8   8   4   8
#     4  11  24  41  67  94 135 170 209 266 314 389
#     4  11  24  40  65  92 131 170 213 266 315 385
#     4  11  22  42  66  99 128 165 215 269 328 374
#     4  10  26  46  62  96 130 176 220 250 320 384
#     4  12  23  41  67  98 127 168 214 271 327 372
#
# _framework density 25.720037000000001
#
# number of rings (size 3 to 8) (size 9 to 14) (size 15 to 20)
#    0.000    0.889    0.000    8.000    0.000    8.000 
#    0.000    0.000    0.000    0.000    0.000    0.000 
#    0.000    0.000    0.000    0.000    0.000    0.000 
#
# Total GULP energy -101083.056403 kJ/mol
# GULP energy per Si atom -5615.725356 kJ/mol
# Density = 2.566150 g / cm^3
# Si number density = 25.720037 Si / 1000 Ang^3
#
#
#
# Elastic Constant Matrix: (Units=GPa)
#
#
# Indices 1 2 3 4 5 6 
#
# 1 128.9988 12.9573 46.9484 0.0000 -36.6780 0.0000
# 2 12.9573 77.5311 34.4841 0.0000 -21.3594 0.0000
# 3 46.9484 34.4841 151.9669 0.0000 -6.8700 0.0000
# 4 0.0000 0.0000 0.0000 44.4193 0.0000 -2.5708
# 5 -36.6780 -21.3594 -6.8700 0.0000 65.2325 0.0000
# 6 0.0000 0.0000 0.0000 -2.5708 0.0000 29.3698
#
#
#
# Elastic Compliance Matrix: (Units=1/GPa)
#
#
# Indices 1 2 3 4 5 6 
#
# 1 0.010522 0.001361 -0.003288 0.000000 0.006016 0.000000
# 2 0.001361 0.015883 -0.003773 0.000000 0.005568 0.000000
# 3 -0.003288 -0.003773 0.008353 0.000000 -0.002204 0.000000
# 4 0.000000 0.000000 0.000000 0.022627 0.000000 0.001981
# 5 0.006016 0.005568 -0.002204 0.000000 0.020303 0.000000
# 6 0.000000 0.000000 0.000000 0.001981 0.000000 0.034222
#
#
# Mechanical properties :
#
#
# Convention : Reuss Voigt Hill
#
# Bulk Modulus (GPa) = 42.81064 60.80850 51.80957
# Shear Modulus (GPa) = 38.14024 45.41148 41.77586
#
# Velocity S-wave (km/s) = 3.85502 4.20647 4.03457
# Velocity P-wave (km/s) = 6.04118 6.87651 6.47233
#
# Compressibility (1/GPa) = 0.02335868
#
# Stress axis : x y z
#
# Youngs Moduli (GPa) = 95.03679 62.96148 119.72434
#
# Poissons Ratio (x) = -0.08569 0.39361
# Poissons Ratio (y) = -0.12935 0.45170
# Poissons Ratio (z) = 0.31244 0.23754
#
# Static dielectric constant tensor:
#      x y z
#    x 2.015120 0.000000 0.041170 
#    y 0.000000 1.955240 0.000000 
#    z 0.041170 0.000000 2.015630 
# 
# From -- ./inp_files/59776.got.cif
#   From: 2010.05.17/outbox.cif.g08.bks.cpg/sg15_30_cif.got.tgz:59776.got - 2010.06.03 18:47:42.
