data_PCOD9300999
_publ_section_title
;
Structure prediction by ZEFSAII (Michael W. Deem and Ramdas Pophale) SiO2 
 PCOD9300999
Probable space group: C 2/C
;
_chemical_formula_sum "Si O2"
_cell_formula_units_Z 64
_cell_length_a 19.488825
_cell_length_b 11.985126
_cell_length_c 31.672011
_cell_angle_alpha 90.000000
_cell_angle_beta 154.909597
_cell_angle_gamma 90.000000
_cell_volume 3137.029821
_symmetry_space_group_name_H-M "C 2/C"
_symmetry_group_IT_number 15
_symmetry_cell_setting 'monoclinic'
loop_
_space_group_symop_operation_xyz
x,y,z
-x,y,1/2-z
-x,-y,-z
x,-y,1/2+z
1/2+x,1/2+y,z
1/2-x,1/2+y,1/2-z
1/2-x,1/2-y,-z
1/2+x,1/2-y,1/2+z
loop_
_atom_site_type_symbol
_atom_site_label
_atom_site_fract_x
_atom_site_fract_y
_atom_site_fract_z
Si Si1 0.509866 0.609261 0.377860
Si Si2 0.389674 0.224707 0.439606
Si Si3 0.182535 0.967744 0.114440
Si Si4 0.313537 0.980981 0.095832
Si Si5 0.380272 0.269131 0.644207
Si Si6 0.847181 0.724701 0.854596
Si Si7 0.162494 0.463622 0.657135
Si Si8 0.915590 0.386710 0.798160
O O1 0.640185 0.537055 0.476484
O O2 0.594460 0.658913 0.383315
O O3 0.437065 0.706879 0.367370
O O4 0.352266 0.545558 0.273735
O O5 0.316288 0.334633 0.376478
O O6 0.292330 0.215333 0.429464
O O7 0.570696 0.253856 0.554777
O O8 0.371881 0.114049 0.402386
O O9 0.284609 0.994904 0.129353
O O10 0.267435 0.034262 0.199164
O O11 0.000000 0.000000 0.000000
O O12 0.398574 0.859481 0.140144
O O13 0.425579 0.075427 0.138199
O O14 0.500000 0.293771 0.750000
O O15 0.873885 0.593416 0.866259
O O16 0.660960 0.764449 0.750308
O O17 0.064270 0.411385 0.641381
#
# Coordination Sequence:
#
# PCOD9300999 Si02
#       8
#     8   8   8   8   8   8   8   8
#     4  11  22  40  62  96 128 166 218 275 321 387
#     4  11  22  40  65  95 124 173 220 267 327 388
#     4  11  20  41  69  95 124 164 215 277 326 374
#     4  11  22  38  65  97 121 159 217 279 324 369
#     4  11  20  35  64  92 127 158 214 278 328 372
#     4  11  23  43  62  94 131 174 214 263 333 397
#     4  11  25  40  64  92 136 175 213 261 330 405
#     4  11  24  39  66  96 128 165 215 272 328 382
#
# _framework density 20.401461999999999
#
# number of rings (size 3 to 8) (size 9 to 14) (size 15 to 20)
#    0.000    1.000    5.000    4.125    5.250    0.000 
#    0.000    0.625    5.500    0.000    0.000    0.000 
#    0.000    0.000    0.000    0.000    0.000    0.000 
#
# Total GULP energy -178747.211960 kJ/mol
# GULP energy per Si atom -5585.850374 kJ/mol
# Density = 2.035503 g / cm^3
# Si number density = 20.401462 Si / 1000 Ang^3
#
#
#
# Elastic Constant Matrix: (Units=GPa)
#
#
# Indices 1 2 3 4 5 6 
#
# 1 61.4703 18.2592 4.4817 0.0001 1.3308 -0.0001
# 2 18.2592 74.6420 16.9909 0.0004 1.8276 0.0000
# 3 4.4817 16.9909 55.2122 0.0033 -3.3239 -0.0001
# 4 0.0001 0.0004 0.0033 28.9980 -0.0001 -1.1489
# 5 1.3308 1.8276 -3.3239 -0.0001 29.2804 -0.0001
# 6 -0.0001 0.0000 -0.0001 -1.1489 -0.0001 20.4038
#
#
#
# Elastic Compliance Matrix: (Units=1/GPa)
#
#
# Indices 1 2 3 4 5 6 
#
# 1 0.017552 -0.004246 -0.000151 0.000000 -0.000550 0.000000
# 2 -0.004246 0.015492 -0.004500 0.000000 -0.001285 0.000000
# 3 -0.000151 -0.004500 0.019661 -0.000002 0.002520 0.000000
# 4 0.000000 0.000000 -0.000002 0.034562 0.000000 0.001946
# 5 -0.000550 -0.001285 0.002520 0.000000 0.034544 0.000000
# 6 0.000000 0.000000 0.000000 0.001946 0.000000 0.049120
#
#
# Mechanical properties :
#
#
# Convention : Reuss Voigt Hill
#
# Bulk Modulus (GPa) = 28.64483 30.08757 29.36620
# Shear Modulus (GPa) = 24.95488 25.84263 25.39875
#
# Velocity S-wave (km/s) = 3.50121 3.56294 3.53221
# Velocity P-wave (km/s) = 5.51504 5.63079 5.57322
#
# Compressibility (1/GPa) = 0.03491032
#
# Stress axis : x y z
#
# Youngs Moduli (GPa) = 56.97320 64.55054 50.86270
#
# Poissons Ratio (x) = 0.27407 0.00769
# Poissons Ratio (y) = 0.24189 0.22889
# Poissons Ratio (z) = 0.00862 0.29049
#
# Static dielectric constant tensor:
#      x y z
#    x 1.711960 0.000000 0.030030 
#    y 0.000000 1.744840 0.000000 
#    z 0.030030 0.000000 1.805960 
# 
# From -- ./inp_files/316212.got.cif
#   From: 2010.05.17/outbox.cif.g08.bks.cpg/sg15_159_cif.got.tgz:316212.got - 2010.06.03 18:47:42.
