data_PCOD9300968
_publ_section_title
;
Structure prediction by ZEFSAII (Michael W. Deem and Ramdas Pophale) SiO2 
 PCOD9300968
Probable space group: C 2/C
;
_chemical_formula_sum "Si O2"
_cell_formula_units_Z 64
_cell_length_a 17.298829
_cell_length_b 20.130330
_cell_length_c 9.135960
_cell_angle_alpha 90.000000
_cell_angle_beta 86.504818
_cell_angle_gamma 90.000000
_cell_volume 3175.508053
_symmetry_space_group_name_H-M "C 2/C"
_symmetry_group_IT_number 15
_symmetry_cell_setting 'monoclinic'
loop_
_space_group_symop_operation_xyz
x,y,z
-x,y,1/2-z
-x,-y,-z
x,-y,1/2+z
1/2+x,1/2+y,z
1/2-x,1/2+y,1/2-z
1/2-x,1/2-y,-z
1/2+x,1/2-y,1/2+z
loop_
_atom_site_type_symbol
_atom_site_label
_atom_site_fract_x
_atom_site_fract_y
_atom_site_fract_z
Si Si1 0.828730 0.039042 0.222137
Si Si2 0.929404 0.460976 0.932105
Si Si3 0.671270 0.960958 0.277863
Si Si4 0.125916 0.823855 0.693591
Si Si5 0.983552 0.823919 0.503041
Si Si6 0.983552 0.323919 0.003041
Si Si7 0.570595 0.460976 0.067896
Si Si8 0.625916 0.176145 0.693591
O O1 0.820812 0.112441 0.292029
O O2 0.857157 0.042691 0.052349
O O3 0.750000 1.000000 0.250000
O O4 0.898279 0.000965 0.297588
O O5 0.898279 0.500965 0.797589
O O6 0.857157 0.457309 0.052349
O O7 0.957620 0.385433 0.908093
O O8 0.000000 0.500000 0.000000
O O9 0.679188 0.887559 0.207970
O O10 0.071153 0.825113 0.845072
O O11 0.161127 0.750000 0.681851
O O12 0.069273 0.832850 0.561059
O O13 0.977024 0.750000 0.439594
O O14 0.957620 0.885433 0.408093
O O15 0.928847 0.325113 0.154928
O O16 0.069273 0.332850 0.061059
O O17 0.500000 0.500000 0.000000
#
# Coordination Sequence:
#
# PCOD9300968 Si02
#       8
#     8   8   8   8   8   8   8   8
#     4  11  22  35  53  81 113 140 171 219 271 315
#     4  11  20  35  57  80 105 139 181 219 261 312
#     4  11  22  35  53  81 113 140 171 219 271 315
#     4   8  14  28  51  76 100 134 181 219 250 303
#     4   8  14  27  51  79 100 128 180 229 252 290
#     4   8  14  27  51  79 100 128 180 229 252 290
#     4  11  20  35  57  80 105 139 181 219 261 312
#     4   8  14  28  51  76 100 134 181 219 250 303
#
# _framework density 20.154257000000001
#
# number of rings (size 3 to 8) (size 9 to 14) (size 15 to 20)
#    0.000    2.500    2.500    3.000    0.000    0.000 
#    0.000    1.250    0.000   15.000    0.000    0.000 
#    0.000    0.000    0.000    0.000    0.000    0.000 
#
# Total GULP energy -178557.323462 kJ/mol
# GULP energy per Si atom -5579.916358 kJ/mol
# Density = 2.010838 g / cm^3
# Si number density = 20.154257 Si / 1000 Ang^3
#
#
#
# Elastic Constant Matrix: (Units=GPa)
#
#
# Indices 1 2 3 4 5 6 
#
# 1 70.2561 40.5382 1.1252 0.0000 -0.0966 0.0000
# 2 40.5382 181.0976 14.7046 0.0000 6.9875 0.0000
# 3 1.1252 14.7046 45.9760 0.0000 -3.0045 0.0000
# 4 0.0000 0.0000 0.0000 17.6249 0.0000 7.7705
# 5 -0.0966 6.9875 -3.0045 0.0000 18.3306 0.0000
# 6 0.0000 0.0000 0.0000 7.7705 0.0000 37.0453
#
#
#
# Elastic Compliance Matrix: (Units=1/GPa)
#
#
# Indices 1 2 3 4 5 6 
#
# 1 0.016424 -0.003817 0.000930 0.000000 0.001694 0.000000
# 2 -0.003817 0.006671 -0.002231 0.000000 -0.002929 0.000000
# 3 0.000930 -0.002231 0.022741 0.000000 0.004583 0.000000
# 4 0.000000 0.000000 0.000000 0.062520 0.000000 -0.013114
# 5 0.001694 -0.002929 0.004583 0.000000 0.056430 0.000000
# 6 0.000000 0.000000 0.000000 -0.013114 0.000000 0.029745
#
#
# Mechanical properties :
#
#
# Convention : Reuss Voigt Hill
#
# Bulk Modulus (GPa) = 28.09220 45.56286 36.82753
# Shear Modulus (GPa) = 23.08046 30.66425 26.87236
#
# Velocity S-wave (km/s) = 3.38774 3.90484 3.65545
# Velocity P-wave (km/s) = 5.41029 6.55641 6.01073
#
# Compressibility (1/GPa) = 0.03559707
#
# Stress axis : x y z
#
# Youngs Moduli (GPa) = 60.88775 149.91268 43.97360
#
# Poissons Ratio (x) = 0.57225 -0.04088
# Poissons Ratio (y) = 0.23242 0.09812
# Poissons Ratio (z) = -0.05660 0.33452
#
# Static dielectric constant tensor:
#      x y z
#    x 1.694760 0.000000 -0.037100 
#    y 0.000000 1.747480 0.000000 
#    z -0.037100 0.000000 1.723210 
# 
# From -- ./inp_files/106445.got.cif
#   From: 2010.05.17/outbox.cif.g08.bks.cpg/sg15_54_cif.got.tgz:106445.got - 2010.06.03 18:47:42.
