data_PCOD9300527
_publ_section_title
;
Structure prediction by ZEFSAII (Michael W. Deem and Ramdas Pophale) SiO2 
 PCOD9300527
Probable space group: C 2/C
;
_chemical_formula_sum "Si O2"
_cell_formula_units_Z 40
_cell_length_a 16.635463
_cell_length_b 11.533480
_cell_length_c 7.668244
_cell_angle_alpha 90.000000
_cell_angle_beta 83.774834
_cell_angle_gamma 90.000000
_cell_volume 1462.590526
_symmetry_space_group_name_H-M "C 2/C"
_symmetry_group_IT_number 15
_symmetry_cell_setting 'monoclinic'
loop_
_space_group_symop_operation_xyz
x,y,z
-x,y,1/2-z
-x,-y,-z
x,-y,1/2+z
1/2+x,1/2+y,z
1/2-x,1/2+y,1/2-z
1/2-x,1/2-y,-z
1/2+x,1/2-y,1/2+z
loop_
_atom_site_type_symbol
_atom_site_label
_atom_site_fract_x
_atom_site_fract_y
_atom_site_fract_z
Si Si1 0.702666 0.639378 0.711215
Si Si2 0.940312 0.582784 0.904568
Si Si3 0.158244 0.628205 0.074077
Si Si4 0.109919 0.835145 0.557972
Si Si5 0.926531 0.154145 0.032058
O O1 0.783302 0.597334 0.599866
O O2 0.706793 0.780104 0.681330
O O3 0.627860 0.596676 0.606275
O O4 0.679777 0.617362 0.915354
O O5 0.893152 0.695519 0.980456
O O6 0.000000 0.637309 0.750000
O O7 0.879008 0.487527 0.842006
O O8 0.000000 0.500000 0.000000
O O9 0.479138 0.624736 0.486599
O O10 0.086031 0.712261 0.025875
O O11 0.111006 0.855767 0.765326
#
# Coordination Sequence:
#
# PCOD9300527 Si02
#       5
#     8   8   8   8   8
#     4   9  19  34  46  64 102 152 170 209 252 312
#     4  12  19  30  49  79 109 139 173 210 262 322
#     4   9  19  32  44  67 106 144 176 205 255 320
#     4  11  18  30  53  73 101 138 173 217 260 305
#     4   9  18  32  44  75  95 131 183 206 248 311
#
# _framework density 27.348735000000001
#
# number of rings (size 3 to 8) (size 9 to 14) (size 15 to 20)
#    1.200    0.800    4.000    1.800    0.000    0.800 
#    0.000    0.000    0.000    0.000    0.000    0.000 
#    0.000    1.600   30.000    5.800    4.000    0.000 
#
# Total GULP energy -111781.288634 kJ/mol
# GULP energy per Si atom -5589.064432 kJ/mol
# Density = 2.728649 g / cm^3
# Si number density = 27.348735 Si / 1000 Ang^3
#
#
#
# Elastic Constant Matrix: (Units=GPa)
#
#
# Indices 1 2 3 4 5 6 
#
# 1 42.4646 17.7801 -2.7709 0.0000 -5.3433 0.0000
# 2 17.7801 114.7214 17.7275 0.0000 5.4451 0.0000
# 3 -2.7709 17.7275 124.3664 0.0000 -31.3413 0.0000
# 4 0.0000 0.0000 0.0000 30.7788 0.0000 9.8207
# 5 -5.3433 5.4451 -31.3413 0.0000 45.4933 0.0000
# 6 0.0000 0.0000 0.0000 9.8207 0.0000 -30.9869
#
#
#
# Elastic Compliance Matrix: (Units=1/GPa)
#
#
# Indices 1 2 3 4 5 6 
#
# 1 0.026409 -0.004764 0.002654 0.000000 0.005500 0.000000
# 2 -0.004764 0.009985 -0.002386 0.000000 -0.003398 0.000000
# 3 0.002654 -0.002386 0.010395 0.000000 0.007759 0.000000
# 4 0.000000 0.000000 0.000000 0.029506 0.000000 0.009351
# 5 0.005500 -0.003398 0.007759 0.000000 0.028379 0.000000
# 6 0.000000 0.000000 0.000000 0.009351 0.000000 -0.029308
#
#
# Mechanical properties :
#
#
# Convention : Reuss Voigt Hill
#
# Bulk Modulus (GPa) = 26.45744 38.55841 32.50793
# Shear Modulus (GPa) = 51.56857 25.64476 38.60666
#
# Velocity S-wave (km/s) = 4.34705 3.06550 3.76126
# Velocity P-wave (km/s) = 5.90685 5.16325 5.54752
#
# Compressibility (1/GPa) = 0.03779655
#
# Stress axis : x y z
#
# Youngs Moduli (GPa) = 37.86590 100.14914 96.19801
#
# Poissons Ratio (x) = 0.47712 -0.25527
# Poissons Ratio (y) = 0.18040 0.22951
# Poissons Ratio (z) = -0.10048 0.23894
#
# Static dielectric constant tensor:
#      x y z
#    x 2.149100 0.000000 0.093320 
#    y 0.000000 2.240450 0.000000 
#    z 0.093320 0.000000 2.112400 
# 
# From -- ./inp_files/61017.got.cif
#   From: 2010.05.17/outbox.cif.g08.bks.cpg/sg15_31_cif.got.tgz:61017.got - 2010.06.03 18:47:42.
