data_PCOD9300106
_publ_section_title
;
Structure prediction by ZEFSAII (Michael W. Deem and Ramdas Pophale) SiO2 
 PCOD9300106
Probable space group: C 2/C
;
_chemical_formula_sum "Si O2"
_cell_formula_units_Z 52
_cell_length_a 14.599497
_cell_length_b 23.203875
_cell_length_c 12.478602
_cell_angle_alpha 90.000000
_cell_angle_beta 35.749704
_cell_angle_gamma 90.000000
_cell_volume 2469.788133
_symmetry_space_group_name_H-M "C 2/C"
_symmetry_group_IT_number 15
_symmetry_cell_setting 'monoclinic'
loop_
_space_group_symop_operation_xyz
x,y,z
-x,y,1/2-z
-x,-y,-z
x,-y,1/2+z
1/2+x,1/2+y,z
1/2-x,1/2+y,1/2-z
1/2-x,1/2-y,-z
1/2+x,1/2-y,1/2+z
loop_
_atom_site_type_symbol
_atom_site_label
_atom_site_fract_x
_atom_site_fract_y
_atom_site_fract_z
Si Si1 0.000000 0.163875 0.750000
Si Si2 0.460781 0.310723 0.051997
Si Si3 0.685795 0.961160 0.085717
Si Si4 0.173096 0.591339 0.043660
Si Si5 0.365923 0.631606 0.288780
Si Si6 0.665042 0.887964 0.308737
Si Si7 0.934111 0.700069 0.930445
O O1 0.996822 0.198301 0.864663
O O2 0.166498 0.128529 0.593964
O O3 0.287416 0.336300 0.208364
O O4 0.567201 0.359681 0.893748
O O5 0.465179 0.253464 0.977792
O O6 0.500000 0.951793 0.250000
O O7 0.727568 0.931137 0.158561
O O8 0.708792 0.029274 0.061380
O O9 0.779501 0.927522 0.903730
O O10 0.000000 0.612480 0.250000
O O11 0.147241 0.583023 0.940717
O O12 0.500000 0.638743 0.250000
O O13 0.245697 0.684042 0.415151
O O14 0.511038 0.856397 0.411418
O O15 0.000000 0.709013 0.750000
#
# Coordination Sequence:
#
# PCOD9300106 Si02
#       7
#     4   8   8   8   8   8   8
#     4  10  26  50  64  98 138 176 238 282 318 416
#     4  11  25  41  67  95 133 177 222 279 339 396
#     4  11  22  42  64  99 134 170 217 284 336 401
#     4  10  26  44  71  95 134 186 227 275 345 399
#     4  12  22  38  66 102 134 166 220 278 340 399
#     4  11  22  45  63  98 136 168 225 282 326 407
#     4  12  23  42  68  99 134 175 219 280 341 402
#
# _framework density 21.054438000000001
#
# number of rings (size 3 to 8) (size 9 to 14) (size 15 to 20)
#    0.000    0.923    4.615    1.385    3.231    5.538 
#    1.385    5.385    0.000    0.000    0.000    0.000 
#    0.000    0.000    0.000    0.000    0.000    0.000 
#
# Total GULP energy -145204.430340 kJ/mol
# GULP energy per Si atom -5584.785782 kJ/mol
# Density = 2.100652 g / cm^3
# Si number density = 21.054438 Si / 1000 Ang^3
#
#
#
# Elastic Constant Matrix: (Units=GPa)
#
#
# Indices 1 2 3 4 5 6 
#
# 1 103.9662 28.2909 34.0324 -0.0120 9.9269 0.0002
# 2 28.2909 44.3000 0.9187 -0.0058 -3.7451 0.0001
# 3 34.0324 0.9187 77.3046 -0.0129 -8.3440 0.0002
# 4 -0.0120 -0.0058 -0.0129 -333.3691 0.0043 26.4317
# 5 9.9269 -3.7451 -8.3440 0.0043 42.9536 0.0000
# 6 0.0002 0.0001 0.0002 26.4317 0.0000 8.6663
#
#
#
# Elastic Compliance Matrix: (Units=1/GPa)
#
#
# Indices 1 2 3 4 5 6 
#
# 1 0.015297 -0.010111 -0.007243 0.000000 -0.005824 0.000000
# 2 -0.010111 0.029424 0.004730 0.000000 0.005821 0.000000
# 3 -0.007243 0.004730 0.016642 0.000000 0.005319 0.000001
# 4 0.000000 0.000000 0.000000 -0.002416 0.000000 0.007367
# 5 -0.005824 0.005821 0.005319 0.000000 0.026168 -0.000001
# 6 0.000000 0.000000 0.000001 0.007367 -0.000001 0.092920
#
#
# Mechanical properties :
#
#
# Convention : Reuss Voigt Hill
#
# Bulk Modulus (GPa) = 27.68861 39.11721 33.40291
# Shear Modulus (GPa) = 23.22110 -45.52791 -11.15340
#
# Velocity S-wave (km/s) = 3.32461 -4.65520 -2.30411
# Velocity P-wave (km/s) = 5.28364 3.20547 2.97000
#
# Compressibility (1/GPa) = 0.03611593
#
# Stress axis : x y z
#
# Youngs Moduli (GPa) = 65.37341 33.98536 60.08810
#
# Poissons Ratio (x) = 0.34362 0.43520
# Poissons Ratio (y) = 0.66099 -0.28421
# Poissons Ratio (z) = 0.47348 -0.16075
#
# Static dielectric constant tensor:
#      x y z
#    x 1.753440 0.000000 -0.024390 
#    y 0.000000 1.743880 0.000000 
#    z -0.024390 0.000000 1.818640 
# 
# From -- ./inp_files/100941.got.cif
#   From: 2010.05.17/outbox.cif.g08.bks.cpg/sg15_51_cif.got.tgz:100941.got - 2010.06.03 18:47:42.
