data_PCOD9300266
_publ_section_title
;
Structure prediction by ZEFSAII (Michael W. Deem and Ramdas Pophale) SiO2 
 PCOD9300266
Probable space group: C 2/C
;
_chemical_formula_sum "Si O2"
_cell_formula_units_Z 56
_cell_length_a 25.105024
_cell_length_b 10.800667
_cell_length_c 24.598449
_cell_angle_alpha 90.000000
_cell_angle_beta 18.586030
_cell_angle_gamma 90.000000
_cell_volume 2125.883440
_symmetry_space_group_name_H-M "C 2/C"
_symmetry_group_IT_number 15
_symmetry_cell_setting 'monoclinic'
loop_
_space_group_symop_operation_xyz
x,y,z
-x,y,1/2-z
-x,-y,-z
x,-y,1/2+z
1/2+x,1/2+y,z
1/2-x,1/2+y,1/2-z
1/2-x,1/2-y,-z
1/2+x,1/2-y,1/2+z
loop_
_atom_site_type_symbol
_atom_site_label
_atom_site_fract_x
_atom_site_fract_y
_atom_site_fract_z
Si Si1 0.220046 0.941968 0.473268
Si Si2 0.635051 0.356506 0.318407
Si Si3 0.109720 0.791388 0.735780
Si Si4 0.074836 0.616925 0.303899
Si Si5 0.170229 0.564152 0.413867
Si Si6 0.058115 0.268176 0.413514
Si Si7 0.829098 0.624700 0.446627
O O1 0.352437 0.829480 0.336894
O O2 0.043493 0.877100 0.633005
O O3 0.280425 0.048792 0.371500
O O4 0.218204 0.010703 0.533223
O O5 0.624809 0.241511 0.286325
O O6 0.667822 0.481536 0.254448
O O7 0.479815 0.345833 0.509417
O O8 0.800903 0.347933 0.194554
O O9 0.283863 0.866910 0.574394
O O10 0.084579 0.755253 0.824071
O O11 0.997714 0.515300 0.418253
O O12 0.905028 0.643039 0.432703
O O13 0.120118 0.658916 0.415063
O O14 0.750000 0.750000 0.500000
O O15 0.000000 0.598845 0.250000
#
# Coordination Sequence:
#
# PCOD9300266 Si02
#       7
#     8   8   8   8   8   8   8
#     4  11  24  48  76 109 145 195 243 317 370 451
#     4  12  27  40  71 103 146 199 246 293 380 435
#     4  12  24  45  76 107 152 194 249 298 377 444
#     4  11  26  47  69 106 145 188 247 311 367 446
#     4  12  26  44  71  99 154 193 244 310 360 438
#     4  12  24  45  64 108 144 199 243 301 354 447
#     4  10  26  47  77 107 146 183 247 316 381 439
#
# _framework density 26.341992000000001
#
# number of rings (size 3 to 8) (size 9 to 14) (size 15 to 20)
#    0.000    0.571    5.714    0.429    8.000    0.571 
#    0.000   11.429    0.000    0.000    0.000    0.000 
#    0.000    0.000    0.000    0.000    0.000    0.000 
#
# Total GULP energy -156599.684171 kJ/mol
# GULP energy per Si atom -5592.845863 kJ/mol
# Density = 2.628204 g / cm^3
# Si number density = 26.341992 Si / 1000 Ang^3
#
#
#
# Elastic Constant Matrix: (Units=GPa)
#
#
# Indices 1 2 3 4 5 6 
#
# 1 145.7924 69.7216 26.5268 -0.0005 -31.0644 0.0001
# 2 69.7216 139.9174 14.9913 -0.0065 -18.1392 0.0017
# 3 26.5268 14.9913 67.2345 -0.0080 -12.3444 0.0007
# 4 -0.0005 -0.0065 -0.0080 56.0405 0.0016 -6.1165
# 5 -31.0644 -18.1392 -12.3444 0.0016 46.9290 0.0004
# 6 0.0001 0.0017 0.0007 -6.1165 0.0004 50.3067
#
#
#
# Elastic Compliance Matrix: (Units=1/GPa)
#
#
# Indices 1 2 3 4 5 6 
#
# 1 0.010298 -0.004298 -0.002268 -0.000001 0.004559 0.000000
# 2 -0.004298 0.009411 -0.000270 0.000001 0.000722 0.000000
# 3 -0.002268 -0.000270 0.016322 0.000002 0.002688 0.000000
# 4 -0.000001 0.000001 0.000002 0.018084 0.000000 0.002199
# 5 0.004559 0.000722 0.002688 0.000000 0.025313 0.000000
# 6 0.000000 0.000000 0.000000 0.002199 0.000000 0.020145
#
#
# Mechanical properties :
#
#
# Convention : Reuss Voigt Hill
#
# Bulk Modulus (GPa) = 44.72314 63.93599 54.32956
# Shear Modulus (GPa) = 41.42552 46.76889 44.09721
#
# Velocity S-wave (km/s) = 3.96991 4.21818 4.09593
# Velocity P-wave (km/s) = 6.16671 6.93169 6.56036
#
# Compressibility (1/GPa) = 0.02235979
#
# Stress axis : x y z
#
# Youngs Moduli (GPa) = 97.10223 106.25675 61.26781
#
# Poissons Ratio (x) = 0.45666 0.13894
# Poissons Ratio (y) = 0.41732 0.01656
# Poissons Ratio (z) = 0.22021 0.02872
#
# Static dielectric constant tensor:
#      x y z
#    x 2.150570 0.000000 0.062740 
#    y 0.000000 2.157980 0.000010 
#    z 0.062740 0.000010 2.160860 
# 
# From -- ./inp_files/303252.got.cif
#   From: 2010.05.17/outbox.cif.g08.bks.cpg/sg15_152_cif.got.tgz:303252.got - 2010.06.03 18:47:42.
