data_PCOD9300001
_publ_section_title
;
Structure prediction by ZEFSAII (Michael W. Deem and Ramdas Pophale) SiO2 
 PCOD9300001
Probable space group: C 2/C
;
_chemical_formula_sum "Si O2"
_cell_formula_units_Z 44
_cell_length_a 10.200373
_cell_length_b 28.968260
_cell_length_c 8.153703
_cell_angle_alpha 90.000000
_cell_angle_beta 119.806548
_cell_angle_gamma 90.000000
_cell_volume 2090.582345
_symmetry_space_group_name_H-M "C 2/C"
_symmetry_group_IT_number 15
_symmetry_cell_setting 'monoclinic'
loop_
_space_group_symop_operation_xyz
x,y,z
-x,y,1/2-z
-x,-y,-z
x,-y,1/2+z
1/2+x,1/2+y,z
1/2-x,1/2+y,1/2-z
1/2-x,1/2-y,-z
1/2+x,1/2-y,1/2+z
loop_
_atom_site_type_symbol
_atom_site_label
_atom_site_fract_x
_atom_site_fract_y
_atom_site_fract_z
Si Si1 0.295611 0.189481 0.896682
Si Si2 0.336887 0.025663 0.216447
Si Si3 0.500000 0.389229 0.750000
Si Si4 0.500000 0.853108 0.250000
Si Si5 0.127901 0.109281 0.975185
Si Si6 0.500000 0.745360 0.750000
Si Si7 0.297046 0.065269 0.534687
O O1 0.387565 0.175216 0.793531
O O2 0.250798 0.144820 0.976853
O O3 0.134388 0.213900 0.758861
O O4 0.407720 0.223035 0.065847
O O5 0.500000 0.038978 0.250000
O O6 0.339585 0.035042 0.408308
O O7 0.207141 0.059577 0.061032
O O8 0.315711 0.970522 0.191458
O O9 0.574102 0.369941 0.622622
O O10 0.373161 0.419857 0.587983
O O11 0.605734 0.888642 0.412903
O O12 0.000000 0.105692 0.750000
#
# Coordination Sequence:
#
# PCOD9300001 Si02
#       7
#     8   8   4   4   8   4   8
#     4  11  25  48  75 105 138 178 229 293 369 437
#     4  11  24  39  62  94 138 190 238 293 337 401
#     4  10  26  40  62 104 134 194 246 288 352 416
#     4  12  26  44  74 106 142 186 239 289 350 436
#     4  11  24  43  71  96 143 190 234 297 353 420
#     4  10  26  50  74 104 134 178 227 293 380 440
#     4  11  25  40  61 100 140 186 246 285 343 404
#
# _framework density 21.046768
#
# number of rings (size 3 to 8) (size 9 to 14) (size 15 to 20)
#    0.000    1.091    1.818    2.727   12.727    2.182 
#    0.000    3.636    0.000    0.000    0.000    0.000 
#    0.000    0.000    0.000    0.000    0.000    0.000 
#
# Total GULP energy -122651.337745 kJ/mol
# GULP energy per Si atom -5575.060807 kJ/mol
# Density = 2.099887 g / cm^3
# Si number density = 21.046768 Si / 1000 Ang^3
#
#
#
# Elastic Constant Matrix: (Units=GPa)
#
#
# Indices 1 2 3 4 5 6 
#
# 1 143.3608 35.6879 41.1408 0.0000 -2.5901 0.0000
# 2 35.6879 60.6574 28.0388 0.0000 8.6200 0.0000
# 3 41.1408 28.0388 84.8103 0.0000 11.7864 0.0000
# 4 0.0000 0.0000 0.0000 36.5391 0.0000 -1.6228
# 5 -2.5901 8.6200 11.7864 0.0000 45.2050 0.0000
# 6 0.0000 0.0000 0.0000 -1.6228 0.0000 29.6036
#
#
#
# Elastic Compliance Matrix: (Units=1/GPa)
#
#
# Indices 1 2 3 4 5 6 
#
# 1 0.008974 -0.004055 -0.003312 0.000000 0.002151 0.000000
# 2 -0.004055 0.021488 -0.004706 0.000000 -0.003103 0.000000
# 3 -0.003312 -0.004706 0.015413 0.000000 -0.003311 0.000000
# 4 0.000000 0.000000 0.000000 0.027435 0.000000 0.001504
# 5 0.002151 -0.003103 -0.003311 0.000000 0.023700 0.000000
# 6 0.000000 0.000000 0.000000 0.001504 0.000000 0.033862
#
#
# Mechanical properties :
#
#
# Convention : Reuss Voigt Hill
#
# Bulk Modulus (GPa) = 46.01758 55.39594 50.70676
# Shear Modulus (GPa) = 30.81476 34.53360 32.67418
#
# Velocity S-wave (km/s) = 3.83052 4.05508 3.94440
# Velocity P-wave (km/s) = 6.44017 6.94999 6.69993
#
# Compressibility (1/GPa) = 0.02173083
#
# Stress axis : x y z
#
# Youngs Moduli (GPa) = 111.43320 46.53788 64.87853
#
# Poissons Ratio (x) = 0.18870 0.21485
# Poissons Ratio (y) = 0.45183 0.30531
# Poissons Ratio (z) = 0.36902 0.21900
#
# Static dielectric constant tensor:
#      x y z
#    x 2.367620 0.000000 -0.351880 
#    y 0.000000 1.777330 0.000000 
#    z -0.351880 0.000000 2.003060 
# 
# From -- ./inp_files/26045.got.cif
#   From: 2010.05.17/outbox.cif.g08.bks.cpg/sg15_14_cif.got.tgz:26045.got - 2010.06.03 18:47:42.
