data_PCOD9300060
_publ_section_title
;
Structure prediction by ZEFSAII (Michael W. Deem and Ramdas Pophale) SiO2 
 PCOD9300060
Probable space group: C 2/C
;
_chemical_formula_sum "Si O2"
_cell_formula_units_Z 56
_cell_length_a 11.714832
_cell_length_b 21.883752
_cell_length_c 11.615683
_cell_angle_alpha 90.000000
_cell_angle_beta 108.066719
_cell_angle_gamma 90.000000
_cell_volume 2831.028763
_symmetry_space_group_name_H-M "C 2/C"
_symmetry_group_IT_number 15
_symmetry_cell_setting 'monoclinic'
loop_
_space_group_symop_operation_xyz
x,y,z
-x,y,1/2-z
-x,-y,-z
x,-y,1/2+z
1/2+x,1/2+y,z
1/2-x,1/2+y,1/2-z
1/2-x,1/2-y,-z
1/2+x,1/2-y,1/2+z
loop_
_atom_site_type_symbol
_atom_site_label
_atom_site_fract_x
_atom_site_fract_y
_atom_site_fract_z
Si Si1 0.193131 0.579313 0.721841
Si Si2 0.500000 0.017806 0.250000
Si Si3 0.572542 0.698271 0.443154
Si Si4 0.619165 0.495605 0.613763
Si Si5 0.500000 0.594291 0.250000
Si Si6 0.799365 0.291116 0.178463
Si Si7 0.189702 0.414798 0.948303
Si Si8 0.295891 0.711882 0.405961
O O1 0.099010 0.525845 0.722305
O O2 0.321708 0.555752 0.811443
O O3 0.156920 0.642566 0.769627
O O4 0.196278 0.591784 0.586994
O O5 0.437617 0.060890 0.136050
O O6 0.568984 0.638501 0.360626
O O7 0.676864 0.697913 0.569595
O O8 0.606478 0.755481 0.372466
O O9 0.439894 0.703139 0.454303
O O10 0.500000 0.500000 0.500000
O O11 0.589652 0.448673 0.707369
O O12 0.717112 0.466737 0.560334
O O13 0.773179 0.248380 0.280633
O O14 0.230446 0.353268 0.896052
O O15 0.250000 0.750000 0.500000
#
# Coordination Sequence:
#
# PCOD9300060 Si02
#       8
#     8   4   8   8   4   8   8   8
#     4  11  24  42  67  98 133 173 225 269 329 407
#     4  10  26  43  68  95 134 184 224 268 330 404
#     4  11  24  43  69  98 132 174 230 276 335 409
#     4  11  23  40  64  98 132 173 212 272 338 394
#     4  12  20  41  68  89 134 170 214 278 322 398
#     4  11  24  43  69 101 130 178 224 277 342 400
#     4  11  23  44  64  95 134 172 222 275 332 398
#     4  12  24  44  67  97 139 175 220 287 344 396
#
# _framework density 19.780795999999999
#
# number of rings (size 3 to 8) (size 9 to 14) (size 15 to 20)
#    0.000    0.857    4.286    2.143    2.000    2.857 
#    0.000    2.857    0.000    0.000    0.000    0.000 
#    0.000    0.000    0.000    0.000    0.000    0.000 
#
# Total GULP energy -156515.823175 kJ/mol
# GULP energy per Si atom -5589.850828 kJ/mol
# Density = 1.973577 g / cm^3
# Si number density = 19.780796 Si / 1000 Ang^3
#
#
#
# Elastic Constant Matrix: (Units=GPa)
#
#
# Indices 1 2 3 4 5 6 
#
# 1 87.5989 36.8922 38.6776 0.0000 1.4649 0.0000
# 2 36.8922 112.6219 25.5182 0.0000 3.2542 0.0000
# 3 38.6776 25.5182 72.8565 0.0000 10.5762 0.0000
# 4 0.0000 0.0000 0.0000 13.7669 0.0000 -4.9485
# 5 1.4649 3.2542 10.5762 0.0000 32.2099 0.0000
# 6 0.0000 0.0000 0.0000 -4.9485 0.0000 36.0770
#
#
#
# Elastic Compliance Matrix: (Units=1/GPa)
#
#
# Indices 1 2 3 4 5 6 
#
# 1 0.016320 -0.003665 -0.007693 0.000000 0.002154 0.000000
# 2 -0.003665 0.010468 -0.001671 0.000000 -0.000342 0.000000
# 3 -0.007693 -0.001671 0.019236 0.000000 -0.005798 0.000000
# 4 0.000000 0.000000 0.000000 0.076405 0.000000 0.010480
# 5 0.002154 -0.000342 -0.005798 0.000000 0.032887 0.000000
# 6 0.000000 0.000000 0.000000 0.010480 0.000000 0.029156
#
#
# Mechanical properties :
#
#
# Convention : Reuss Voigt Hill
#
# Bulk Modulus (GPa) = 50.08377 52.80591 51.44484
# Shear Modulus (GPa) = 23.02172 27.87671 25.44921
#
# Velocity S-wave (km/s) = 3.41521 3.75811 3.59076
# Velocity P-wave (km/s) = 6.39734 6.75164 6.57688
#
# Compressibility (1/GPa) = 0.01996655
#
# Stress axis : x y z
#
# Youngs Moduli (GPa) = 61.27535 95.52527 51.98473
#
# Poissons Ratio (x) = 0.35012 0.39990
# Poissons Ratio (y) = 0.22458 0.08688
# Poissons Ratio (z) = 0.47137 0.15964
#
# Static dielectric constant tensor:
#      x y z
#    x 1.676360 0.000000 0.016600 
#    y 0.000000 1.703810 0.000000 
#    z 0.016600 0.000000 1.694400 
# 
# From -- ./inp_files/89696.got.cif
#   From: 2010.05.17/outbox.cif.g08.bks.cpg/sg15_45_cif.got.tgz:89696.got - 2010.06.03 18:47:42.
