data_PCOD9300934
_publ_section_title
;
Structure prediction by ZEFSAII (Michael W. Deem and Ramdas Pophale) SiO2 
 PCOD9300934
Probable space group: C 2/C
;
_chemical_formula_sum "Si O2"
_cell_formula_units_Z 48
_cell_length_a 15.012841
_cell_length_b 16.291890
_cell_length_c 17.966121
_cell_angle_alpha 90.000000
_cell_angle_beta 149.965745
_cell_angle_gamma 90.000000
_cell_volume 2199.419609
_symmetry_space_group_name_H-M "C 2/C"
_symmetry_group_IT_number 15
_symmetry_cell_setting 'monoclinic'
loop_
_space_group_symop_operation_xyz
x,y,z
-x,y,1/2-z
-x,-y,-z
x,-y,1/2+z
1/2+x,1/2+y,z
1/2-x,1/2+y,1/2-z
1/2-x,1/2-y,-z
1/2+x,1/2-y,1/2+z
loop_
_atom_site_type_symbol
_atom_site_label
_atom_site_fract_x
_atom_site_fract_y
_atom_site_fract_z
Si Si1 0.927842 0.256577 0.770317
Si Si2 0.274425 0.543100 0.795460
Si Si3 0.817077 0.029781 0.160044
Si Si4 0.457813 0.157268 0.512719
Si Si5 0.026486 0.178720 0.994367
Si Si6 0.990798 0.416500 0.616155
O O1 0.943952 0.200703 0.854092
O O2 0.732988 0.297511 0.632316
O O3 0.051322 0.337457 0.865387
O O4 0.000000 0.210978 0.750000
O O5 0.319743 0.506348 0.746263
O O6 0.445806 0.589376 0.953387
O O7 0.164918 0.471612 0.759250
O O8 0.120862 0.613594 0.673382
O O9 0.728777 0.119868 0.097068
O O10 0.000000 0.027966 0.250000
O O11 0.675893 0.974809 0.013071
O O12 0.465624 0.254772 0.511749
O O13 0.477644 0.123208 0.442523
#
# Coordination Sequence:
#
# PCOD9300934 Si02
#       6
#     8   8   8   8   8   8
#     4  11  23  34  49  77 111 137 163 211 259 308
#     4   9  17  32  53  76  99 133 174 209 250 304
#     4   9  17  30  57  79  99 131 172 216 253 296
#     4   8  16  34  49  75 103 134 175 204 246 308
#     4  11  20  34  54  74 104 143 171 203 255 307
#     4   8  18  34  50  72 106 136 170 210 247 304
#
# _framework density 21.82394
#
# number of rings (size 3 to 8) (size 9 to 14) (size 15 to 20)
#    0.000    2.667    1.667    2.500    2.333    1.333 
#    0.000    0.000    0.000    5.000    0.000    0.000 
#    0.000    0.000    0.000    0.000    0.000    0.000 
#
# Total GULP energy -133875.418658 kJ/mol
# GULP energy per Si atom -5578.142444 kJ/mol
# Density = 2.177427 g / cm^3
# Si number density = 21.823940 Si / 1000 Ang^3
#
#
#
# Elastic Constant Matrix: (Units=GPa)
#
#
# Indices 1 2 3 4 5 6 
#
# 1 50.2701 9.2874 4.0060 -0.0007 23.3466 -0.0008
# 2 9.2874 76.0847 -2.2655 -0.0032 8.2385 -0.0026
# 3 4.0060 -2.2655 52.4005 -0.0055 18.2620 -0.0031
# 4 -0.0007 -0.0032 -0.0055 27.4209 -0.0014 2.3008
# 5 23.3466 8.2385 18.2620 -0.0014 26.5698 -0.0010
# 6 -0.0008 -0.0026 -0.0031 2.3008 -0.0010 10.5094
#
#
#
# Elastic Compliance Matrix: (Units=1/GPa)
#
#
# Indices 1 2 3 4 5 6 
#
# 1 0.038291 0.000185 0.011607 0.000001 -0.041681 0.000002
# 2 0.000185 0.013899 0.002821 0.000002 -0.006411 0.000003
# 3 0.011607 0.002821 0.029163 0.000004 -0.031118 0.000006
# 4 0.000001 0.000002 0.000004 0.037151 -0.000003 -0.008133
# 5 -0.041681 -0.006411 -0.031118 -0.000003 0.097637 -0.000004
# 6 0.000002 0.000003 0.000006 -0.008133 -0.000004 0.096933
#
#
# Mechanical properties :
#
#
# Convention : Reuss Voigt Hill
#
# Bulk Modulus (GPa) = 9.04338 22.31234 15.67786
# Shear Modulus (GPa) = 15.59049 24.08186 19.83617
#
# Velocity S-wave (km/s) = 2.67568 3.32544 3.01810
# Velocity P-wave (km/s) = 3.70114 4.99907 4.39825
#
# Compressibility (1/GPa) = 0.11057811
#
# Stress axis : x y z
#
# Youngs Moduli (GPa) = 26.11585 71.94827 34.28972
#
# Poissons Ratio (x) = -0.01329 -0.39799
# Poissons Ratio (y) = -0.00483 -0.09673
# Poissons Ratio (z) = -0.30312 -0.20297
#
# Static dielectric constant tensor:
#      x y z
#    x 1.766680 0.000000 -0.023790 
#    y 0.000000 1.839180 0.000000 
#    z -0.023790 0.000000 1.911900 
# 
# From -- ./inp_files/48075.got.cif
#   From: 2010.05.17/outbox.cif.g08.bks.cpg/sg15_25_cif.got.tgz:48075.got - 2010.06.03 18:47:42.
