data_PCOD9300002
_publ_section_title
;
Structure prediction by ZEFSAII (Michael W. Deem and Ramdas Pophale) SiO2 
 PCOD9300002
Probable space group: C 2/C
;
_chemical_formula_sum "Si O2"
_cell_formula_units_Z 60
_cell_length_a 25.221456
_cell_length_b 18.720610
_cell_length_c 11.402601
_cell_angle_alpha 90.000000
_cell_angle_beta 148.532038
_cell_angle_gamma 90.000000
_cell_volume 2810.493891
_symmetry_space_group_name_H-M "C 2/C"
_symmetry_group_IT_number 15
_symmetry_cell_setting 'monoclinic'
loop_
_space_group_symop_operation_xyz
x,y,z
-x,y,1/2-z
-x,-y,-z
x,-y,1/2+z
1/2+x,1/2+y,z
1/2-x,1/2+y,1/2-z
1/2-x,1/2-y,-z
1/2+x,1/2-y,1/2+z
loop_
_atom_site_type_symbol
_atom_site_label
_atom_site_fract_x
_atom_site_fract_y
_atom_site_fract_z
Si Si1 0.293158 0.807284 0.311437
Si Si2 0.595758 0.585083 0.089961
Si Si3 0.326383 0.815376 0.630581
Si Si4 0.275622 0.911868 0.755976
Si Si5 0.000000 0.026610 0.250000
Si Si6 0.045790 0.756931 0.541642
Si Si7 0.387604 0.204217 0.587390
Si Si8 0.294586 0.561596 0.966193
O O1 0.309317 0.843719 0.467239
O O2 0.393147 0.765921 0.458885
O O3 0.198862 0.752407 0.136926
O O4 0.268704 0.867322 0.170492
O O5 0.667388 0.603893 0.113726
O O6 0.541362 0.656929 0.032265
O O7 0.668031 0.555389 0.329429
O O8 0.520591 0.524941 0.899715
O O9 0.250000 0.750000 0.500000
O O10 0.300986 0.871222 0.683618
O O11 0.438783 0.782505 0.849668
O O12 0.265933 0.994586 0.701555
O O13 0.355905 0.877638 0.999596
O O14 0.898574 0.069670 0.086562
O O15 0.110275 0.729691 0.774754
O O16 0.500000 0.217516 0.750000
#
# Coordination Sequence:
#
# PCOD9300002 Si02
#       8
#     8   8   8   8   4   8   8   8
#     4  12  25  43  68 103 135 179 231 287 340 417
#     4  11  23  44  71 101 137 177 230 285 350 417
#     4  12  25  42  68 102 137 173 229 294 345 406
#     4  11  25  44  65  99 136 182 219 286 344 402
#     4  10  26  40  66 106 140 182 214 288 360 414
#     4  12  24  43  74 101 133 179 233 292 349 409
#     4  12  22  44  68 102 132 177 232 281 345 405
#     4  11  26  44  67  98 139 185 227 278 346 417
#
# _framework density 21.348561
#
# number of rings (size 3 to 8) (size 9 to 14) (size 15 to 20)
#    0.000    0.533    5.333    2.000   10.267    1.067 
#    0.000    2.000    0.000    0.000    0.000    0.000 
#    0.000    0.000    0.000    0.000    0.000    0.000 
#
# Total GULP energy -167678.846207 kJ/mol
# GULP energy per Si atom -5589.294874 kJ/mol
# Density = 2.129997 g / cm^3
# Si number density = 21.348561 Si / 1000 Ang^3
#
#
#
# Elastic Constant Matrix: (Units=GPa)
#
#
# Indices 1 2 3 4 5 6 
#
# 1 76.5384 0.4618 8.5683 0.0000 6.6373 0.0000
# 2 0.4618 64.0249 7.7862 0.0000 12.7479 0.0000
# 3 8.5683 7.7862 70.2098 0.0000 -5.4282 0.0000
# 4 0.0000 0.0000 0.0000 22.2165 0.0000 -3.2365
# 5 6.6373 12.7479 -5.4282 0.0000 45.8157 0.0000
# 6 0.0000 0.0000 0.0000 -3.2365 0.0000 24.3775
#
#
#
# Elastic Compliance Matrix: (Units=1/GPa)
#
#
# Indices 1 2 3 4 5 6 
#
# 1 0.013477 0.000600 -0.001892 0.000000 -0.002343 0.000000
# 2 0.000600 0.016908 -0.002340 0.000000 -0.005069 0.000000
# 3 -0.001892 -0.002340 0.014942 0.000000 0.002696 0.000000
# 4 0.000000 0.000000 0.000000 0.045899 0.000000 0.006094
# 5 -0.002343 -0.005069 0.002696 0.000000 0.023896 0.000000
# 6 0.000000 0.000000 0.000000 0.006094 0.000000 0.041830
#
#
# Mechanical properties :
#
#
# Convention : Reuss Voigt Hill
#
# Bulk Modulus (GPa) = 26.27356 27.15619 26.71487
# Shear Modulus (GPa) = 28.26364 31.41239 29.83802
#
# Velocity S-wave (km/s) = 3.64251 3.84005 3.74258
# Velocity P-wave (km/s) = 5.47943 5.69292 5.58719
#
# Compressibility (1/GPa) = 0.03806108
#
# Stress axis : x y z
#
# Youngs Moduli (GPa) = 74.20169 59.14212 66.92595
#
# Poissons Ratio (x) = -0.03546 0.12665
# Poissons Ratio (y) = -0.04448 0.15662
# Poissons Ratio (z) = 0.14042 0.13840
#
# Static dielectric constant tensor:
#      x y z
#    x 1.802760 0.000000 -0.038330 
#    y 0.000000 1.768720 0.000000 
#    z -0.038330 0.000000 1.777550 
# 
# From -- ./inp_files/124013.got.cif
#   From: 2010.05.17/outbox.cif.g08.bks.cpg/sg15_63_cif.got.tgz:124013.got - 2010.06.03 18:47:42.
