data_PCOD9300826
_publ_section_title
;
Structure prediction by ZEFSAII (Michael W. Deem and Ramdas Pophale) SiO2 
 PCOD9300826
Probable space group: C 2/C
;
_chemical_formula_sum "Si O2"
_cell_formula_units_Z 44
_cell_length_a 13.444839
_cell_length_b 13.818197
_cell_length_c 16.052693
_cell_angle_alpha 90.000000
_cell_angle_beta 51.747734
_cell_angle_gamma 90.000000
_cell_volume 2341.996845
_symmetry_space_group_name_H-M "C 2/C"
_symmetry_group_IT_number 15
_symmetry_cell_setting 'monoclinic'
loop_
_space_group_symop_operation_xyz
x,y,z
-x,y,1/2-z
-x,-y,-z
x,-y,1/2+z
1/2+x,1/2+y,z
1/2-x,1/2+y,1/2-z
1/2-x,1/2-y,-z
1/2+x,1/2-y,1/2+z
loop_
_atom_site_type_symbol
_atom_site_label
_atom_site_fract_x
_atom_site_fract_y
_atom_site_fract_z
Si Si1 0.394930 0.185100 0.741095
Si Si2 0.265278 0.361736 0.464184
Si Si3 0.000000 0.182993 0.750000
Si Si4 0.969384 0.612031 0.527143
Si Si5 0.652464 0.976640 0.677656
Si Si6 0.664170 0.189551 0.294219
O O1 0.500000 0.225504 0.750000
O O2 0.469572 0.144085 0.622162
O O3 0.288473 0.258017 0.764016
O O4 0.329916 0.090579 0.816900
O O5 0.250000 0.250000 0.500000
O O6 0.407708 0.376012 0.358557
O O7 0.170481 0.374022 0.436627
O O8 0.219061 0.431800 0.561949
O O9 0.090995 0.248755 0.760933
O O10 0.000000 0.500000 0.500000
O O11 0.066058 0.671546 0.419791
O O12 0.500000 0.962755 0.750000
O O13 0.695201 0.912750 0.734317
#
# Coordination Sequence:
#
# PCOD9300826 Si02
#       6
#     8   8   4   8   8   8
#     4  11  25  41  62  93 132 172 213 257 322 387
#     4  12  20  36  67  98 123 155 216 278 323 364
#     4  12  22  36  66 106 118 160 208 286 332 350
#     4  12  21  38  69  92 120 172 218 262 307 389
#     4  11  19  40  67  98 120 164 220 267 305 382
#     4  12  21  38  67  97 127 159 219 267 322 371
#
# _framework density 18.787386000000001
#
# number of rings (size 3 to 8) (size 9 to 14) (size 15 to 20)
#    0.000    0.364   10.000    1.091    0.000    0.727 
#    0.000    0.909   12.000    0.000    0.000    0.000 
#    0.000    0.000    0.000    0.000    0.000    0.000 
#
# Total GULP energy -122938.076295 kJ/mol
# GULP energy per Si atom -5588.094377 kJ/mol
# Density = 1.874463 g / cm^3
# Si number density = 18.787386 Si / 1000 Ang^3
#
#
#
# Elastic Constant Matrix: (Units=GPa)
#
#
# Indices 1 2 3 4 5 6 
#
# 1 126.3683 43.0242 10.6997 0.0000 2.9185 0.0000
# 2 43.0242 61.6842 1.6020 0.0000 -8.2478 0.0000
# 3 10.6997 1.6020 106.5851 0.0000 -5.1966 0.0000
# 4 0.0000 0.0000 0.0000 22.3254 0.0000 3.0511
# 5 2.9185 -8.2478 -5.1966 0.0000 32.1496 0.0000
# 6 0.0000 0.0000 0.0000 3.0511 0.0000 26.9824
#
#
#
# Elastic Compliance Matrix: (Units=1/GPa)
#
#
# Indices 1 2 3 4 5 6 
#
# 1 0.010776 -0.007914 -0.001118 0.000000 -0.003189 0.000000
# 2 -0.007914 0.022599 0.000779 0.000000 0.006642 0.000000
# 3 -0.001118 0.000779 0.009573 0.000000 0.001849 0.000000
# 4 0.000000 0.000000 0.000000 0.045495 0.000000 -0.005144
# 5 -0.003189 0.006642 0.001849 0.000000 0.033397 0.000000
# 6 0.000000 0.000000 0.000000 -0.005144 0.000000 0.037643
#
#
# Mechanical properties :
#
#
# Convention : Reuss Voigt Hill
#
# Bulk Modulus (GPa) = 37.81952 45.03216 41.42584
# Shear Modulus (GPa) = 27.05579 32.24557 29.65068
#
# Velocity S-wave (km/s) = 3.79899 4.14737 3.97700
# Velocity P-wave (km/s) = 6.27830 6.85242 6.57163
#
# Compressibility (1/GPa) = 0.02644138
#
# Stress axis : x y z
#
# Youngs Moduli (GPa) = 92.79858 44.24955 104.46191
#
# Poissons Ratio (x) = 0.35017 0.11682
# Poissons Ratio (y) = 0.73437 -0.08133
# Poissons Ratio (z) = 0.10378 -0.03445
#
# Static dielectric constant tensor:
#      x y z
#    x 1.640910 0.000000 0.012610 
#    y 0.000000 1.652760 0.000000 
#    z 0.012610 0.000000 1.677670 
# 
# From -- ./inp_files/86108.got.cif
#   From: 2010.05.17/outbox.cif.g08.bks.cpg/sg15_44_cif.got.tgz:86108.got - 2010.06.03 18:47:42.
