data_PCOD9300333
_publ_section_title
;
Structure prediction by ZEFSAII (Michael W. Deem and Ramdas Pophale) SiO2 
 PCOD9300333
Probable space group: C 2/C
;
_chemical_formula_sum "Si O2"
_cell_formula_units_Z 56
_cell_length_a 18.588123
_cell_length_b 5.256576
_cell_length_c 25.862541
_cell_angle_alpha 90.000000
_cell_angle_beta 74.030710
_cell_angle_gamma 90.000000
_cell_volume 2429.506107
_symmetry_space_group_name_H-M "C 2/C"
_symmetry_group_IT_number 15
_symmetry_cell_setting 'monoclinic'
loop_
_space_group_symop_operation_xyz
x,y,z
-x,y,1/2-z
-x,-y,-z
x,-y,1/2+z
1/2+x,1/2+y,z
1/2-x,1/2+y,1/2-z
1/2-x,1/2-y,-z
1/2+x,1/2-y,1/2+z
loop_
_atom_site_type_symbol
_atom_site_label
_atom_site_fract_x
_atom_site_fract_y
_atom_site_fract_z
Si Si1 0.794621 0.999292 0.134461
Si Si2 0.376332 0.968680 0.335984
Si Si3 0.000000 0.500000 0.000000
Si Si4 0.389744 0.996423 0.121813
Si Si5 0.076483 0.180623 0.071985
Si Si6 0.000376 0.180086 0.656822
Si Si7 0.209158 0.004002 0.487966
Si Si8 0.500000 0.338846 0.750000
O O1 0.844555 0.239022 0.141678
O O2 0.707427 0.003929 0.167378
O O3 0.833551 0.733633 0.139870
O O4 0.793622 0.010502 0.072569
O O5 0.380211 0.801118 0.388002
O O6 0.433064 0.832165 0.285417
O O7 0.416114 0.232462 0.343899
O O8 0.926793 0.501635 0.057055
O O9 0.051012 0.389825 0.036434
O O10 0.455695 0.069479 0.149158
O O11 0.127411 0.993702 0.028871
O O12 0.008290 0.010583 0.106928
O O13 0.969864 0.022843 0.710794
O O14 0.250000 0.750000 0.500000
O O15 0.250000 0.250000 0.500000
#
# Coordination Sequence:
#
# PCOD9300333 Si02
#       8
#     8   8   4   8   8   8   8   4
#     4  12  27  44  71 113 158 199 247 316 383 442
#     4  11  24  48  79 110 143 195 265 324 388 466
#     4  12  24  46  66 112 158 220 248 296 366 474
#     4  12  28  45  73 110 164 206 249 302 381 465
#     4  11  24  41  71 108 152 205 261 306 367 458
#     4  11  25  49  78 108 144 201 259 323 383 473
#     4  12  24  40  64 106 154 204 252 298 364 444
#     4  10  26  48  90 106 136 190 272 330 402 454
#
# _framework density 23.049951
#
# number of rings (size 3 to 8) (size 9 to 14) (size 15 to 20)
#    0.000    0.571    4.286    3.000    8.000    1.143 
#    0.000    0.000    6.286    0.000    0.000    0.000 
#    0.000    0.000    0.000    0.000    0.000    0.000 
#
# Total GULP energy -156302.812963 kJ/mol
# GULP energy per Si atom -5582.243320 kJ/mol
# Density = 2.299749 g / cm^3
# Si number density = 23.049951 Si / 1000 Ang^3
#
#
#
# Elastic Constant Matrix: (Units=GPa)
#
#
# Indices 1 2 3 4 5 6 
#
# 1 127.9027 45.8904 28.4721 -0.0006 -27.7570 -0.0008
# 2 45.8904 117.2247 21.2469 -0.0013 -9.7199 -0.0028
# 3 28.4721 21.2469 106.0647 -0.0022 -23.1050 -0.0003
# 4 -0.0006 -0.0013 -0.0022 21.7667 -0.0010 4.0865
# 5 -27.7570 -9.7199 -23.1050 -0.0010 24.1343 -0.0012
# 6 -0.0008 -0.0028 -0.0003 4.0865 -0.0012 43.3804
#
#
#
# Elastic Compliance Matrix: (Units=1/GPa)
#
#
# Indices 1 2 3 4 5 6 
#
# 1 0.011722 -0.003617 0.000249 0.000001 0.012264 0.000000
# 2 -0.003617 0.010076 -0.001352 0.000000 -0.001396 0.000001
# 3 0.000249 -0.001352 0.012099 0.000002 0.011326 0.000000
# 4 0.000001 0.000000 0.000002 0.046769 0.000004 -0.004406
# 5 0.012264 -0.001396 0.011326 0.000004 0.065820 0.000002
# 6 0.000000 0.000001 0.000000 -0.004406 0.000002 0.023467
#
#
# Mechanical properties :
#
#
# Convention : Reuss Voigt Hill
#
# Bulk Modulus (GPa) = 40.88560 60.26788 50.57674
# Shear Modulus (GPa) = 26.66036 34.89512 30.77774
#
# Velocity S-wave (km/s) = 3.40462 3.89510 3.65809
# Velocity P-wave (km/s) = 5.76469 6.81414 6.31126
#
# Compressibility (1/GPa) = 0.02445849
#
# Stress axis : x y z
#
# Youngs Moduli (GPa) = 85.30828 99.24680 82.65034
#
# Poissons Ratio (x) = 0.35900 -0.02061
# Poissons Ratio (y) = 0.30858 0.11170
# Poissons Ratio (z) = -0.02128 0.13413
#
# Static dielectric constant tensor:
#      x y z
#    x 1.906180 0.000000 -0.046290 
#    y 0.000000 1.899250 0.000000 
#    z -0.046290 0.000000 1.844480 
# 
# From -- ./inp_files/297748.got.cif
#   From: 2010.05.17/outbox.cif.g08.bks.cpg/sg15_149_cif.got.tgz:297748.got - 2010.06.03 18:47:42.
