data_PCOD9300813
_publ_section_title
;
Structure prediction by ZEFSAII (Michael W. Deem and Ramdas Pophale) SiO2 
 PCOD9300813
Probable space group: C 2/C
;
_chemical_formula_sum "Si O2"
_cell_formula_units_Z 60
_cell_length_a 23.016709
_cell_length_b 8.259090
_cell_length_c 15.910736
_cell_angle_alpha 90.000000
_cell_angle_beta 113.042185
_cell_angle_gamma 90.000000
_cell_volume 2783.273665
_symmetry_space_group_name_H-M "C 2/C"
_symmetry_group_IT_number 15
_symmetry_cell_setting 'monoclinic'
loop_
_space_group_symop_operation_xyz
x,y,z
-x,y,1/2-z
-x,-y,-z
x,-y,1/2+z
1/2+x,1/2+y,z
1/2-x,1/2+y,1/2-z
1/2-x,1/2-y,-z
1/2+x,1/2-y,1/2+z
loop_
_atom_site_type_symbol
_atom_site_label
_atom_site_fract_x
_atom_site_fract_y
_atom_site_fract_z
Si Si1 0.365560 0.224591 0.221285
Si Si2 0.666355 0.404212 0.793730
Si Si3 0.660037 0.680646 0.468973
Si Si4 0.183452 0.601937 0.135887
Si Si5 0.454418 0.555917 0.549503
Si Si6 0.250451 0.898448 0.565784
Si Si7 0.861656 0.761809 0.890535
Si Si8 0.500000 0.700681 0.750000
O O1 0.349889 0.411633 0.189563
O O2 0.348391 0.209318 0.309608
O O3 0.319080 0.104808 0.145569
O O4 0.437594 0.198548 0.237255
O O5 0.653951 0.291836 0.866785
O O6 0.740683 0.397049 0.813695
O O7 0.625923 0.347886 0.691177
O O8 0.666838 0.829555 0.535154
O O9 0.599381 0.577938 0.464462
O O10 0.721832 0.564181 0.514150
O O11 0.156422 0.423261 0.131891
O O12 0.500000 0.500000 0.500000
O O13 0.416337 0.709066 0.489318
O O14 0.485931 0.598726 0.656755
O O15 0.250000 0.750000 0.500000
O O16 0.200575 0.847877 0.608408
#
# Coordination Sequence:
#
# PCOD9300813 Si02
#       8
#     8   8   8   8   8   8   8   4
#     4  12  23  41  71  98 140 179 240 283 356 422
#     4  12  21  42  65 105 141 179 227 290 356 426
#     4  11  24  40  68 106 140 180 231 297 360 429
#     4  12  24  41  66 104 144 182 225 293 361 424
#     4  11  24  46  76  98 137 186 246 290 348 437
#     4  11  19  39  66  99 134 173 228 291 357 412
#     4  11  24  41  66 103 140 181 231 290 355 417
#     4  12  24  46  70 102 132 188 240 282 346 434
#
# _framework density 21.55735
#
# number of rings (size 3 to 8) (size 9 to 14) (size 15 to 20)
#    0.000    0.533    5.333    4.400    1.867    0.000 
#    2.400    2.667    0.000    0.800    0.000    0.000 
#    0.000    0.000    0.000    0.000    0.000    0.000 
#
# Total GULP energy -167860.527333 kJ/mol
# GULP energy per Si atom -5595.350911 kJ/mol
# Density = 2.150828 g / cm^3
# Si number density = 21.557350 Si / 1000 Ang^3
#
#
#
# Elastic Constant Matrix: (Units=GPa)
#
#
# Indices 1 2 3 4 5 6 
#
# 1 138.8285 -0.3632 36.5282 0.0000 -3.8273 0.0000
# 2 -0.3632 40.5599 14.0165 0.0000 1.5760 0.0000
# 3 36.5282 14.0165 131.2025 0.0000 -1.2379 0.0000
# 4 0.0000 0.0000 0.0000 27.4922 0.0000 1.1484
# 5 -3.8273 1.5760 -1.2379 0.0000 32.5042 0.0000
# 6 0.0000 0.0000 0.0000 1.1484 0.0000 23.6192
#
#
#
# Elastic Compliance Matrix: (Units=1/GPa)
#
#
# Indices 1 2 3 4 5 6 
#
# 1 0.007821 0.000819 -0.002258 0.000000 0.000795 0.000000
# 2 0.000819 0.025745 -0.002990 0.000000 -0.001266 0.000000
# 3 -0.002258 -0.002990 0.008572 0.000000 0.000206 0.000000
# 4 0.000000 0.000000 0.000000 0.036448 0.000000 -0.001772
# 5 0.000795 -0.001266 0.000206 0.000000 0.030928 0.000000
# 6 0.000000 0.000000 0.000000 -0.001772 0.000000 0.042425
#
#
# Mechanical properties :
#
#
# Convention : Reuss Voigt Hill
#
# Bulk Modulus (GPa) = 30.04765 45.66153 37.85459
# Shear Modulus (GPa) = 29.08850 34.08374 31.58612
#
# Velocity S-wave (km/s) = 3.67734 3.98058 3.83196
# Velocity P-wave (km/s) = 5.65678 6.50801 6.09727
#
# Compressibility (1/GPa) = 0.03328047
#
# Stress axis : x y z
#
# Youngs Moduli (GPa) = 127.85771 38.84281 116.66258
#
# Poissons Ratio (x) = -0.03182 0.26337
# Poissons Ratio (y) = -0.10475 0.34887
# Poissons Ratio (z) = 0.28864 0.11615
#
# Static dielectric constant tensor:
#      x y z
#    x 1.773850 0.000000 0.003290 
#    y 0.000000 1.583490 0.000000 
#    z 0.003290 0.000000 1.817880 
# 
# From -- ./inp_files/172437.got.cif
#   From: 2010.05.17/outbox.cif.g08.bks.cpg/sg15_87_cif.got.tgz:172437.got - 2010.06.03 18:47:42.
