data_PCOD9300180
_publ_section_title
;
Structure prediction by ZEFSAII (Michael W. Deem and Ramdas Pophale) SiO2 
 PCOD9300180
Probable space group: C 2/C
;
_chemical_formula_sum "Si O2"
_cell_formula_units_Z 60
_cell_length_a 12.162824
_cell_length_b 11.380083
_cell_length_c 20.228482
_cell_angle_alpha 90.000000
_cell_angle_beta 113.450859
_cell_angle_gamma 90.000000
_cell_volume 2568.636808
_symmetry_space_group_name_H-M "C 2/C"
_symmetry_group_IT_number 15
_symmetry_cell_setting 'monoclinic'
loop_
_space_group_symop_operation_xyz
x,y,z
-x,y,1/2-z
-x,-y,-z
x,-y,1/2+z
1/2+x,1/2+y,z
1/2-x,1/2+y,1/2-z
1/2-x,1/2-y,-z
1/2+x,1/2-y,1/2+z
loop_
_atom_site_type_symbol
_atom_site_label
_atom_site_fract_x
_atom_site_fract_y
_atom_site_fract_z
Si Si1 0.525769 0.696028 0.052462
Si Si2 0.000000 0.185221 0.250000
Si Si3 0.800490 0.735726 0.793857
Si Si4 0.871031 0.209106 0.565070
Si Si5 0.111064 0.428402 0.494659
Si Si6 0.411818 0.948475 0.637900
Si Si7 0.136407 0.048914 0.393413
Si Si8 0.677637 0.984160 0.738170
O O1 0.649206 0.727108 0.121419
O O2 0.454114 0.590627 0.069822
O O3 0.543727 0.688512 0.978194
O O4 0.440754 0.807151 0.042812
O O5 0.919854 0.264143 0.277813
O O6 0.919849 0.102936 0.185108
O O7 0.753272 0.601509 0.771928
O O8 0.729902 0.850412 0.749232
O O9 0.750000 0.250000 0.500000
O O10 0.911554 0.309287 0.625624
O O11 0.856843 0.090156 0.601367
O O12 0.154852 0.499631 0.441355
O O13 0.226700 0.408682 0.566931
O O14 0.000000 0.500000 0.500000
O O15 0.550930 0.984254 0.670045
O O16 0.352564 0.992910 0.690854
#
# Coordination Sequence:
#
# PCOD9300180 Si02
#       8
#     8   4   8   8   8   8   8   8
#     4  11  24  44  69 103 139 182 245 296 359 433
#     4  10  26  46  68 102 144 180 238 286 360 430
#     4  11  25  45  72 102 139 193 229 301 353 431
#     4  12  23  43  68 100 142 183 233 297 365 427
#     4  12  23  44  73 101 136 184 244 286 358 428
#     4  11  24  44  68 100 133 189 228 290 345 437
#     4  11  26  44  70 105 142 188 233 308 360 427
#     4  11  26  45  72 100 146 181 244 286 364 424
#
# _framework density 23.358695000000001
#
# number of rings (size 3 to 8) (size 9 to 14) (size 15 to 20)
#    0.000    0.800    4.000    2.400    3.733    5.333 
#    2.400    0.000    0.000    0.000    0.000    0.000 
#    0.000    0.000    0.000    0.000    0.000    0.000 
#
# Total GULP energy -167727.620718 kJ/mol
# GULP energy per Si atom -5590.920691 kJ/mol
# Density = 2.330553 g / cm^3
# Si number density = 23.358695 Si / 1000 Ang^3
#
#
#
# Elastic Constant Matrix: (Units=GPa)
#
#
# Indices 1 2 3 4 5 6 
#
# 1 61.9879 12.1224 24.0214 0.0000 -2.7329 0.0000
# 2 12.1224 162.7144 28.9052 0.0000 19.2071 0.0000
# 3 24.0214 28.9052 92.2551 0.0000 5.7268 0.0000
# 4 0.0000 0.0000 0.0000 34.5182 0.0000 9.2666
# 5 -2.7329 19.2071 5.7268 0.0000 40.6669 0.0000
# 6 0.0000 0.0000 0.0000 9.2666 0.0000 21.8536
#
#
#
# Elastic Compliance Matrix: (Units=1/GPa)
#
#
# Indices 1 2 3 4 5 6 
#
# 1 0.018179 -0.000799 -0.004623 0.000000 0.002250 0.000000
# 2 -0.000799 0.006878 -0.001757 0.000000 -0.003055 0.000000
# 3 -0.004623 -0.001757 0.012672 0.000000 -0.001265 0.000000
# 4 0.000000 0.000000 0.000000 0.032692 0.000000 -0.013862
# 5 0.002250 -0.003055 -0.001265 0.000000 0.026362 0.000000
# 6 0.000000 0.000000 0.000000 -0.013862 0.000000 0.051637
#
#
# Mechanical properties :
#
#
# Convention : Reuss Voigt Hill
#
# Bulk Modulus (GPa) = 42.78731 49.67283 46.23007
# Shear Modulus (GPa) = 29.31369 36.20164 32.75767
#
# Velocity S-wave (km/s) = 3.54635 3.94104 3.74889
# Velocity P-wave (km/s) = 5.92673 6.48232 6.21074
#
# Compressibility (1/GPa) = 0.02337141
#
# Stress axis : x y z
#
# Youngs Moduli (GPa) = 55.00853 145.39073 78.91176
#
# Poissons Ratio (x) = 0.11613 0.36480
# Poissons Ratio (y) = 0.04394 0.13868
# Poissons Ratio (z) = 0.25430 0.25551
#
# Static dielectric constant tensor:
#      x y z
#    x 1.974490 0.000000 -0.031100 
#    y 0.000000 1.912310 0.000000 
#    z -0.031100 0.000000 1.885720 
# 
# From -- ./inp_files/243767.got.cif
#   From: 2010.05.17/outbox.cif.g08.bks.cpg/sg15_122_cif.got.tgz:243767.got - 2010.06.03 18:47:42.
