data_PCOD9300039
_publ_section_title
;
Structure prediction by ZEFSAII (Michael W. Deem and Ramdas Pophale) SiO2 
 PCOD9300039
Probable space group: C 2/C
;
_chemical_formula_sum "Si O2"
_cell_formula_units_Z 60
_cell_length_a 21.328649
_cell_length_b 5.887540
_cell_length_c 26.230821
_cell_angle_alpha 90.000000
_cell_angle_beta 122.595359
_cell_angle_gamma 90.000000
_cell_volume 2775.089329
_symmetry_space_group_name_H-M "C 2/C"
_symmetry_group_IT_number 15
_symmetry_cell_setting 'monoclinic'
loop_
_space_group_symop_operation_xyz
x,y,z
-x,y,1/2-z
-x,-y,-z
x,-y,1/2+z
1/2+x,1/2+y,z
1/2-x,1/2+y,1/2-z
1/2-x,1/2-y,-z
1/2+x,1/2-y,1/2+z
loop_
_atom_site_type_symbol
_atom_site_label
_atom_site_fract_x
_atom_site_fract_y
_atom_site_fract_z
Si Si1 0.337139 0.457904 0.408993
Si Si2 0.500000 0.649259 0.250000
Si Si3 0.172306 0.198743 0.992115
Si Si4 0.732472 0.080297 0.268676
Si Si5 0.960031 0.161569 0.639621
Si Si6 0.420628 0.919592 0.988499
Si Si7 0.931563 0.540610 0.796969
Si Si8 0.467422 0.357533 0.904794
O O1 0.313692 0.522984 0.455687
O O2 0.277502 0.527132 0.340432
O O3 0.366319 0.198332 0.423677
O O4 0.411638 0.595474 0.426041
O O5 0.535012 0.498795 0.309718
O O6 0.562689 0.794321 0.248749
O O7 0.118136 0.139241 0.921790
O O8 0.250000 0.250000 0.000000
O O9 0.127029 0.402228 0.000366
O O10 0.743670 0.832581 0.243233
O O11 0.643900 0.100251 0.238613
O O12 0.991003 0.403580 0.669888
O O13 0.019053 0.082279 0.622237
O O14 0.453128 0.727631 0.040760
O O15 0.500000 0.000000 0.000000
O O16 0.933533 0.679025 0.850507
#
# Coordination Sequence:
#
# PCOD9300039 Si02
#       8
#     8   4   8   8   8   8   8   8
#     4  12  26  45  71 108 150 190 246 317 384 454
#     4  10  26  42  72 100 130 194 252 304 366 444
#     4  12  28  45  68 107 148 193 240 308 390 458
#     4  12  29  49  75 112 156 197 248 318 392 454
#     4  11  23  46  70  99 142 187 251 315 371 459
#     4  12  24  42  77 104 140 191 247 304 375 461
#     4  11  24  45  72 102 141 192 251 308 371 456
#     4  11  21  42  72 105 132 181 249 306 372 443
#
# _framework density 21.620926999999998
#
# number of rings (size 3 to 8) (size 9 to 14) (size 15 to 20)
#    0.000    0.533    5.333    2.400    5.600    3.733 
#    0.000    0.000    0.000    0.000    0.000    0.000 
#    0.000    0.000    0.000    0.000    0.000    0.000 
#
# Total GULP energy -167446.781114 kJ/mol
# GULP energy per Si atom -5581.559370 kJ/mol
# Density = 2.157172 g / cm^3
# Si number density = 21.620927 Si / 1000 Ang^3
#
#
#
# Elastic Constant Matrix: (Units=GPa)
#
#
# Indices 1 2 3 4 5 6 
#
# 1 104.6035 28.4777 56.0071 -0.0004 -10.8229 0.0005
# 2 28.4777 49.7057 17.3821 -0.0014 -11.9990 0.0031
# 3 56.0071 17.3821 112.8260 0.0001 7.6770 -0.0001
# 4 -0.0004 -0.0014 0.0001 26.4358 0.0001 13.0556
# 5 -10.8229 -11.9990 7.6770 0.0001 35.6125 -0.0003
# 6 0.0005 0.0031 -0.0001 13.0556 -0.0003 -9.0813
#
#
#
# Elastic Compliance Matrix: (Units=1/GPa)
#
#
# Indices 1 2 3 4 5 6 
#
# 1 0.015197 -0.005184 -0.007044 0.000000 0.004390 -0.000001
# 2 -0.005184 0.025535 -0.001866 -0.000002 0.007430 0.000006
# 3 -0.007044 -0.001866 0.013027 0.000000 -0.005578 -0.000001
# 4 0.000000 -0.000002 0.000000 0.022121 0.000000 0.031803
# 5 0.004390 0.007430 -0.005578 0.000000 0.033120 0.000001
# 6 -0.000001 0.000006 -0.000001 0.031803 0.000001 -0.064396
#
#
# Mechanical properties :
#
#
# Convention : Reuss Voigt Hill
#
# Bulk Modulus (GPa) = 39.10730 52.31877 45.71304
# Shear Modulus (GPa) = 61.48896 21.61128 41.55012
#
# Velocity S-wave (km/s) = 5.33866 3.16500 4.38854
# Velocity P-wave (km/s) = 7.49191 6.13246 6.84601
#
# Compressibility (1/GPa) = 0.02557067
#
# Stress axis : x y z
#
# Youngs Moduli (GPa) = 65.80325 39.16261 76.76438
#
# Poissons Ratio (x) = 0.20300 0.54072
# Poissons Ratio (y) = 0.34109 0.14327
# Poissons Ratio (z) = 0.46351 0.07309
#
# Static dielectric constant tensor:
#      x y z
#    x 1.800640 0.000000 -0.013950 
#    y 0.000000 1.941850 0.000000 
#    z -0.013950 0.000000 1.781560 
# 
# From -- ./inp_files/300132.got.cif
#   From: 2010.05.17/outbox.cif.g08.bks.cpg/sg15_151_cif.got.tgz:300132.got - 2010.06.03 18:47:42.
