data_PCOD9300601
_publ_section_title
;
Structure prediction by ZEFSAII (Michael W. Deem and Ramdas Pophale) SiO2 
 PCOD9300601
Probable space group: C 2/C
;
_chemical_formula_sum "Si O2"
_cell_formula_units_Z 48
_cell_length_a 9.039027
_cell_length_b 20.755903
_cell_length_c 15.816945
_cell_angle_alpha 90.000000
_cell_angle_beta 50.155441
_cell_angle_gamma 90.000000
_cell_volume 2278.378185
_symmetry_space_group_name_H-M "C 2/C"
_symmetry_group_IT_number 15
_symmetry_cell_setting 'monoclinic'
loop_
_space_group_symop_operation_xyz
x,y,z
-x,y,1/2-z
-x,-y,-z
x,-y,1/2+z
1/2+x,1/2+y,z
1/2-x,1/2+y,1/2-z
1/2-x,1/2-y,-z
1/2+x,1/2-y,1/2+z
loop_
_atom_site_type_symbol
_atom_site_label
_atom_site_fract_x
_atom_site_fract_y
_atom_site_fract_z
Si Si1 0.061214 0.994600 0.578449
Si Si2 0.847928 0.887275 0.244709
Si Si3 0.966652 0.542508 0.892935
Si Si4 0.500000 0.071264 0.250000
Si Si5 0.883351 0.861245 0.648246
Si Si6 0.500000 0.727468 0.250000
Si Si7 0.260278 0.664750 0.600987
O O1 0.289273 0.986599 0.510648
O O2 0.970091 0.929383 0.645768
O O3 0.000000 0.000000 0.500000
O O4 0.968748 0.054937 0.657718
O O5 0.656090 0.919690 0.354001
O O6 0.792474 0.841100 0.188989
O O7 0.000000 0.854227 0.250000
O O8 0.853446 0.599154 0.882603
O O9 0.027429 0.480319 0.815748
O O10 0.315011 0.117330 0.323145
O O11 0.871946 0.815981 0.734061
O O12 0.041907 0.834611 0.523785
O O13 0.371159 0.772509 0.358067
#
# Coordination Sequence:
#
# PCOD9300601 Si02
#       7
#     8   8   8   4   8   4   8
#     4  11  19  37  64  92 131 162 205 252 330 392
#     4  12  22  35  64  99 125 162 213 266 309 390
#     4  11  18  37  69  88 123 178 193 256 333 388
#     4  12  17  38  64  96 133 156 202 252 348 370
#     4  11  24  38  67  97 124 170 210 265 318 383
#     4  12  25  44  68  90 121 170 230 268 298 384
#     4  11  21  47  66  86 125 178 220 248 328 378
#
# _framework density 21.067619000000001
#
# number of rings (size 3 to 8) (size 9 to 14) (size 15 to 20)
#    0.000    0.667   10.000    0.500    1.167    0.667 
#    1.500    5.833    0.000    0.000    0.000    0.000 
#    0.000    0.000    0.000    0.000    0.000    0.000 
#
# Total GULP energy -133876.468132 kJ/mol
# GULP energy per Si atom -5578.186172 kJ/mol
# Density = 2.101967 g / cm^3
# Si number density = 21.067619 Si / 1000 Ang^3
#
#
#
# Elastic Constant Matrix: (Units=GPa)
#
#
# Indices 1 2 3 4 5 6 
#
# 1 87.3210 9.0558 20.3439 0.0000 -19.4168 0.0000
# 2 9.0558 74.4334 12.6433 0.0000 2.0470 0.0000
# 3 20.3439 12.6433 66.7706 0.0000 -30.4280 0.0000
# 4 0.0000 0.0000 0.0000 20.3017 0.0000 3.7702
# 5 -19.4168 2.0470 -30.4280 0.0000 37.1471 0.0000
# 6 0.0000 0.0000 0.0000 3.7702 0.0000 19.7545
#
#
#
# Elastic Compliance Matrix: (Units=1/GPa)
#
#
# Indices 1 2 3 4 5 6 
#
# 1 0.013222 -0.001639 -0.000842 0.000000 0.006312 0.000000
# 2 -0.001639 0.014608 -0.004825 0.000000 -0.005614 0.000000
# 3 -0.000842 -0.004825 0.025637 0.000000 0.020826 0.000000
# 4 0.000000 0.000000 0.000000 0.051067 0.000000 -0.009746
# 5 0.006312 -0.005614 0.020826 0.000000 0.047588 0.000000
# 6 0.000000 0.000000 0.000000 -0.009746 0.000000 0.052482
#
#
# Mechanical properties :
#
#
# Convention : Reuss Voigt Hill
#
# Bulk Modulus (GPa) = 25.73654 34.73454 30.23554
# Shear Modulus (GPa) = 21.53623 27.87281 24.70452
#
# Velocity S-wave (km/s) = 3.20072 3.64128 3.42808
# Velocity P-wave (km/s) = 5.08942 5.84820 5.48195
#
# Compressibility (1/GPa) = 0.03885527
#
# Stress axis : x y z
#
# Youngs Moduli (GPa) = 75.63393 68.45447 39.00560
#
# Poissons Ratio (x) = 0.11221 0.03283
# Poissons Ratio (y) = 0.12398 0.18821
# Poissons Ratio (z) = 0.06366 0.33030
#
# Static dielectric constant tensor:
#      x y z
#    x 1.889790 0.000000 0.013220 
#    y 0.000000 1.721360 0.000000 
#    z 0.013220 0.000000 1.825880 
# 
# From -- ./inp_files/191986.got.cif
#   From: 2010.05.17/outbox.cif.g08.bks.cpg/sg15_96_cif.got.tgz:191986.got - 2010.06.03 18:47:42.
