data_PCOD9300019
_publ_section_title
;
Structure prediction by ZEFSAII (Michael W. Deem and Ramdas Pophale) SiO2 
 PCOD9300019
Probable space group: C 2/C
;
_chemical_formula_sum "Si O2"
_cell_formula_units_Z 40
_cell_length_a 16.069211
_cell_length_b 23.116816
_cell_length_c 5.405771
_cell_angle_alpha 90.000000
_cell_angle_beta 52.838383
_cell_angle_gamma 90.000000
_cell_volume 1600.305828
_symmetry_space_group_name_H-M "C 2/C"
_symmetry_group_IT_number 15
_symmetry_cell_setting 'monoclinic'
loop_
_space_group_symop_operation_xyz
x,y,z
-x,y,1/2-z
-x,-y,-z
x,-y,1/2+z
1/2+x,1/2+y,z
1/2-x,1/2+y,1/2-z
1/2-x,1/2-y,-z
1/2+x,1/2-y,1/2+z
loop_
_atom_site_type_symbol
_atom_site_label
_atom_site_fract_x
_atom_site_fract_y
_atom_site_fract_z
Si Si1 0.353357 0.731576 0.673966
Si Si2 0.604513 0.148811 0.638686
Si Si3 0.286966 0.036920 0.573610
Si Si4 0.000000 0.606624 0.250000
Si Si5 0.679332 0.624655 0.090538
Si Si6 0.500000 0.348581 0.250000
O O1 0.397161 0.792228 0.502107
O O2 0.327332 0.691033 0.486666
O O3 0.429303 0.693375 0.706900
O O4 0.250000 0.750000 0.000000
O O5 0.500000 0.112739 0.750000
O O6 0.717092 0.120288 0.424405
O O7 0.575672 0.152989 0.975054
O O8 0.404345 0.063206 0.354990
O O9 0.273499 0.004389 0.338895
O O10 0.204358 0.087045 0.801305
O O11 0.575678 0.614464 0.434975
#
# Coordination Sequence:
#
# PCOD9300019 Si02
#       6
#     8   8   8   4   8   4
#     4  12  27  44  72 106 156 201 259 302 387 468
#     4  11  25  40  70 110 152 197 248 301 387 472
#     4  11  27  49  80 112 150 203 267 335 400 454
#     4  10  26  41  74 108 160 196 252 319 400 478
#     4  11  27  47  72 105 151 201 255 327 375 468
#     4  12  26  49  70 102 152 202 256 319 374 450
#
# _framework density 24.995224
#
# number of rings (size 3 to 8) (size 9 to 14) (size 15 to 20)
#    0.000    0.800    2.000    3.000   16.800    0.800 
#    0.000    1.000    0.000    0.000    0.000    0.000 
#    0.000    0.000    0.000    0.000    0.000    0.000 
#
# Total GULP energy -111690.959715 kJ/mol
# GULP energy per Si atom -5584.547986 kJ/mol
# Density = 2.493833 g / cm^3
# Si number density = 24.995224 Si / 1000 Ang^3
#
#
#
# Elastic Constant Matrix: (Units=GPa)
#
#
# Indices 1 2 3 4 5 6 
#
# 1 87.3768 26.8472 29.7345 0.0000 -18.6665 0.0000
# 2 26.8472 61.8759 61.4391 0.0000 9.6981 0.0000
# 3 29.7345 61.4391 207.7367 0.0000 -40.3671 0.0000
# 4 0.0000 0.0000 0.0000 67.4763 0.0000 -12.4666
# 5 -18.6665 9.6981 -40.3671 0.0000 44.3053 0.0000
# 6 0.0000 0.0000 0.0000 -12.4666 0.0000 44.1590
#
#
#
# Elastic Compliance Matrix: (Units=1/GPa)
#
#
# Indices 1 2 3 4 5 6 
#
# 1 0.017494 -0.014567 0.004686 0.000000 0.014828 0.000000
# 2 -0.014567 0.044529 -0.017220 0.000000 -0.031574 0.000000
# 3 0.004686 -0.017220 0.012579 0.000000 0.017204 0.000000
# 4 0.000000 0.000000 0.000000 0.015636 0.000000 0.004414
# 5 0.014828 -0.031574 0.017204 0.000000 0.051404 0.000000
# 6 0.000000 0.000000 0.000000 0.004414 0.000000 0.023892
#
#
# Mechanical properties :
#
#
# Convention : Reuss Voigt Hill
#
# Bulk Modulus (GPa) = 49.02146 65.89233 57.45689
# Shear Modulus (GPa) = 22.07164 47.11936 34.59550
#
# Velocity S-wave (km/s) = 2.97481 4.34652 3.72436
# Velocity P-wave (km/s) = 5.60841 7.18393 6.44450
#
# Compressibility (1/GPa) = 0.02039923
#
# Stress axis : x y z
#
# Youngs Moduli (GPa) = 57.16333 22.45741 79.49705
#
# Poissons Ratio (x) = 0.32714 -0.37250
# Poissons Ratio (y) = 0.83270 1.36893
# Poissons Ratio (z) = -0.26785 0.38671
#
# Static dielectric constant tensor:
#      x y z
#    x 0.482610 0.000000 -2.318200 
#    y 0.000000 1.995060 0.000000 
#    z -2.318200 0.000000 -1.316410 
# 
# From -- ./inp_files/11777.got.cif
#   From: 2010.05.17/outbox.cif.g08.bks.cpg/sg15_6_cif.got.tgz:11777.got - 2010.06.03 18:47:42.
