data_PCOD9300748
_publ_section_title
;
Structure prediction by ZEFSAII (Michael W. Deem and Ramdas Pophale) SiO2 
 PCOD9300748
Probable space group: C 2/C
;
_chemical_formula_sum "Si O2"
_cell_formula_units_Z 48
_cell_length_a 19.406703
_cell_length_b 8.913803
_cell_length_c 10.622779
_cell_angle_alpha 90.000000
_cell_angle_beta 94.106928
_cell_angle_gamma 90.000000
_cell_volume 1832.889535
_symmetry_space_group_name_H-M "C 2/C"
_symmetry_group_IT_number 15
_symmetry_cell_setting 'monoclinic'
loop_
_space_group_symop_operation_xyz
x,y,z
-x,y,1/2-z
-x,-y,-z
x,-y,1/2+z
1/2+x,1/2+y,z
1/2-x,1/2+y,1/2-z
1/2-x,1/2-y,-z
1/2+x,1/2-y,1/2+z
loop_
_atom_site_type_symbol
_atom_site_label
_atom_site_fract_x
_atom_site_fract_y
_atom_site_fract_z
Si Si1 0.298038 0.559768 0.285028
Si Si2 0.108608 0.208079 0.703914
Si Si3 0.286594 0.891522 0.935853
Si Si4 0.597335 0.785939 0.237665
Si Si5 0.147470 0.572651 0.370716
Si Si6 0.016710 0.827779 0.965559
O O1 0.364497 0.458162 0.319620
O O2 0.272468 0.515888 0.142161
O O3 0.326766 0.727295 0.287045
O O4 0.231791 0.544963 0.365301
O O5 0.174810 0.306336 0.673290
O O6 0.110124 0.267182 0.847590
O O7 0.046372 0.237649 0.600754
O O8 0.250000 0.750000 0.000000
O O9 0.349593 0.991471 0.994973
O O10 0.603539 0.956818 0.280537
O O11 0.545757 0.751588 0.117183
O O12 0.574760 0.692454 0.361765
O O13 0.000000 0.000000 0.000000
#
# Coordination Sequence:
#
# PCOD9300748 Si02
#       6
#     8   8   8   8   8   8
#     4  11  21  36  65  99 128 166 220 263 314 394
#     4  11  22  38  62  96 128 161 222 268 312 383
#     4  11  19  37  62  88 132 177 204 258 329 383
#     4  11  23  41  69  95 125 177 220 254 333 389
#     4  11  22  38  64  97 131 173 208 264 337 387
#     4  11  23  43  72  91 124 176 227 273 309 383
#
# _framework density 26.188155999999999
#
# number of rings (size 3 to 8) (size 9 to 14) (size 15 to 20)
#    0.000    1.000    6.667    1.000    0.000    1.333 
#    0.000    3.333    7.333    0.000    0.000    0.000 
#    0.000    0.000    0.000    0.000    0.000    0.000 
#
# Total GULP energy -133782.366805 kJ/mol
# GULP energy per Si atom -5574.265284 kJ/mol
# Density = 2.612855 g / cm^3
# Si number density = 26.188156 Si / 1000 Ang^3
#
#
#
# Elastic Constant Matrix: (Units=GPa)
#
#
# Indices 1 2 3 4 5 6 
#
# 1 88.0596 12.6656 17.3508 0.0000 19.0639 0.0000
# 2 12.6656 46.5368 -16.5175 0.0000 -1.9281 0.0000
# 3 17.3508 -16.5175 68.6654 0.0000 35.2439 0.0000
# 4 0.0000 0.0000 0.0000 42.8765 0.0000 14.5232
# 5 19.0639 -1.9281 35.2439 0.0000 50.9996 0.0000
# 6 0.0000 0.0000 0.0000 14.5232 0.0000 37.2225
#
#
#
# Elastic Compliance Matrix: (Units=1/GPa)
#
#
# Indices 1 2 3 4 5 6 
#
# 1 0.013295 -0.004774 -0.002889 0.000000 -0.003153 0.000000
# 2 -0.004774 0.025951 0.009344 0.000000 -0.003691 0.000000
# 3 -0.002889 0.009344 0.026043 0.000000 -0.016564 0.000000
# 4 0.000000 0.000000 0.000000 0.026874 0.000000 -0.010486
# 5 -0.003153 -0.003691 -0.016564 0.000000 0.032094 0.000000
# 6 0.000000 0.000000 0.000000 -0.010486 0.000000 0.030957
#
#
# Mechanical properties :
#
#
# Convention : Reuss Voigt Hill
#
# Bulk Modulus (GPa) = 14.56702 25.58441 20.07572
# Shear Modulus (GPa) = 28.61444 38.87059 33.74251
#
# Velocity S-wave (km/s) = 3.30911 3.85682 3.59341
# Velocity P-wave (km/s) = 4.49164 5.44280 4.98993
#
# Compressibility (1/GPa) = 0.06864820
#
# Stress axis : x y z
#
# Youngs Moduli (GPa) = 75.21840 38.53384 38.39826
#
# Poissons Ratio (x) = 0.18398 0.11095
# Poissons Ratio (y) = 0.35913 -0.35878
# Poissons Ratio (z) = 0.21733 -0.36004
#
# Static dielectric constant tensor:
#      x y z
#    x 3.362330 0.000000 -4.361740 
#    y 0.000000 -0.296780 0.000000 
#    z -4.361740 0.000000 16.276290 
# 
# From -- ./inp_files/116457.got.cif
#   From: 2010.05.17/outbox.cif.g08.bks.cpg/sg15_59_cif.got.tgz:116457.got - 2010.06.03 18:47:42.
