data_PCOD9300689
_publ_section_title
;
Structure prediction by ZEFSAII (Michael W. Deem and Ramdas Pophale) SiO2 
 PCOD9300689
Probable space group: C 2/C
;
_chemical_formula_sum "Si O2"
_cell_formula_units_Z 48
_cell_length_a 16.858850
_cell_length_b 9.918716
_cell_length_c 22.650505
_cell_angle_alpha 90.000000
_cell_angle_beta 36.372934
_cell_angle_gamma 90.000000
_cell_volume 2246.178418
_symmetry_space_group_name_H-M "C 2/C"
_symmetry_group_IT_number 15
_symmetry_cell_setting 'monoclinic'
loop_
_space_group_symop_operation_xyz
x,y,z
-x,y,1/2-z
-x,-y,-z
x,-y,1/2+z
1/2+x,1/2+y,z
1/2-x,1/2+y,1/2-z
1/2-x,1/2-y,-z
1/2+x,1/2-y,1/2+z
loop_
_atom_site_type_symbol
_atom_site_label
_atom_site_fract_x
_atom_site_fract_y
_atom_site_fract_z
Si Si1 0.371457 0.145525 0.939187
Si Si2 0.290457 0.755357 0.665296
Si Si3 0.251133 0.201442 0.321687
Si Si4 0.346319 0.016996 0.571280
Si Si5 0.812319 0.536220 0.855074
Si Si6 0.027913 0.860067 0.538092
O O1 0.397197 0.077361 0.861116
O O2 0.475185 0.244758 0.909753
O O3 0.250000 0.250000 0.000000
O O4 0.337532 0.033541 0.008928
O O5 0.305727 0.752319 0.725774
O O6 0.425717 0.711048 0.550480
O O7 0.345845 0.541612 0.526518
O O8 0.264059 0.907027 0.658904
O O9 0.204375 0.334095 0.384249
O O10 0.124867 0.102711 0.380106
O O11 0.340123 0.106441 0.309050
O O12 0.500000 0.000000 0.500000
O O13 0.810942 0.651880 0.805590
#
# Coordination Sequence:
#
# PCOD9300689 Si02
#       6
#     8   8   8   8   8   8
#     4   9  16  36  57  74 111 145 175 219 273 328
#     4   9  20  34  53  80 113 139 181 221 267 329
#     4  12  19  32  57  85 105 138 186 225 270 311
#     4  11  19  35  59  83 106 146 183 227 265 320
#     4   9  19  34  54  78 110 143 173 224 273 317
#     4   8  18  34  54  74 106 143 177 213 266 321
#
# _framework density 21.369630999999998
#
# number of rings (size 3 to 8) (size 9 to 14) (size 15 to 20)
#    1.000    1.333    5.000    1.500    0.000    0.667 
#    0.000    0.833    0.000    0.000    0.000    0.000 
#    0.000    0.000    0.000    0.000    0.000    0.000 
#
# Total GULP energy -133633.344014 kJ/mol
# GULP energy per Si atom -5568.056001 kJ/mol
# Density = 2.132099 g / cm^3
# Si number density = 21.369631 Si / 1000 Ang^3
#
#
#
# Elastic Constant Matrix: (Units=GPa)
#
#
# Indices 1 2 3 4 5 6 
#
# 1 163.6057 74.8226 37.1664 0.0000 40.3540 0.0000
# 2 74.8226 135.2192 14.1148 0.0000 15.1037 0.0000
# 3 37.1664 14.1148 41.0388 0.0000 8.2460 0.0000
# 4 0.0000 0.0000 0.0000 8.5296 0.0000 -1.2103
# 5 40.3540 15.1037 8.2460 0.0000 33.9198 0.0000
# 6 0.0000 0.0000 0.0000 -1.2103 0.0000 48.2442
#
#
#
# Elastic Compliance Matrix: (Units=1/GPa)
#
#
# Indices 1 2 3 4 5 6 
#
# 1 0.013003 -0.005124 -0.007742 0.000000 -0.011306 0.000000
# 2 -0.005124 0.009975 0.000923 0.000000 0.001430 0.000000
# 3 -0.007742 0.000923 0.030798 0.000000 0.001313 0.000000
# 4 0.000000 0.000000 0.000000 0.117657 0.000000 0.002952
# 5 -0.011306 0.001430 0.001313 0.000000 0.041976 0.000000
# 6 0.000000 0.000000 0.000000 0.002952 0.000000 0.020802
#
#
# Mechanical properties :
#
#
# Convention : Reuss Voigt Hill
#
# Bulk Modulus (GPa) = 33.45804 65.78569 49.62187
# Shear Modulus (GPa) = 18.65252 32.38939 25.52095
#
# Velocity S-wave (km/s) = 2.95761 3.89739 3.45956
# Velocity P-wave (km/s) = 5.23011 7.14873 6.26332
#
# Compressibility (1/GPa) = 0.02988818
#
# Stress axis : x y z
#
# Youngs Moduli (GPa) = 76.90455 100.25303 32.47002
#
# Poissons Ratio (x) = 0.51372 0.25138
# Poissons Ratio (y) = 0.39407 -0.02996
# Poissons Ratio (z) = 0.59540 -0.09249
#
# Static dielectric constant tensor:
#      x y z
#    x 1.771720 0.000000 -0.008530 
#    y 0.000000 1.791870 0.000000 
#    z -0.008530 0.000000 1.869480 
# 
# From -- ./inp_files/315857.got.cif
#   From: 2010.05.17/outbox.cif.g08.bks.cpg/sg15_158_cif.got.tgz:315857.got - 2010.06.03 18:47:42.
