data_PCOD9300474
_publ_section_title
;
Structure prediction by ZEFSAII (Michael W. Deem and Ramdas Pophale) SiO2 
 PCOD9300474
Probable space group: C 2/C
;
_chemical_formula_sum "Si O2"
_cell_formula_units_Z 60
_cell_length_a 10.380810
_cell_length_b 11.098882
_cell_length_c 20.946032
_cell_angle_alpha 90.000000
_cell_angle_beta 109.424375
_cell_angle_gamma 90.000000
_cell_volume 2275.942866
_symmetry_space_group_name_H-M "C 2/C"
_symmetry_group_IT_number 15
_symmetry_cell_setting 'monoclinic'
loop_
_space_group_symop_operation_xyz
x,y,z
-x,y,1/2-z
-x,-y,-z
x,-y,1/2+z
1/2+x,1/2+y,z
1/2-x,1/2+y,1/2-z
1/2-x,1/2-y,-z
1/2+x,1/2-y,1/2+z
loop_
_atom_site_type_symbol
_atom_site_label
_atom_site_fract_x
_atom_site_fract_y
_atom_site_fract_z
Si Si1 0.875368 0.958004 0.521602
Si Si2 0.280701 0.167575 0.067690
Si Si3 0.313195 0.147056 0.656037
Si Si4 0.404786 0.187529 0.338333
Si Si5 0.740548 0.394287 0.698903
Si Si6 0.000000 0.849159 0.750000
Si Si7 0.812985 0.499327 0.414060
Si Si8 0.442438 0.175286 0.540575
O O1 0.900102 0.814667 0.526140
O O2 0.758280 0.037093 0.466702
O O3 0.843707 0.004258 0.588686
O O4 0.000000 0.000000 0.500000
O O5 0.872134 0.397361 0.971199
O O6 0.206233 0.167445 0.124932
O O7 0.250000 0.250000 0.000000
O O8 0.159818 0.199129 0.634794
O O9 0.312087 0.020819 0.692576
O O10 0.396039 0.256184 0.700505
O O11 0.382760 0.141636 0.599201
O O12 0.562422 0.181103 0.384167
O O13 0.348322 0.188009 0.256472
O O14 0.338193 0.060354 0.350656
O O15 0.600100 0.413330 0.715576
O O16 0.904730 0.380982 0.435932
#
# Coordination Sequence:
#
# PCOD9300474 Si02
#       8
#     8   8   8   8   8   4   8   8
#     4  12  29  46  75 114 166 216 269 359 424 509
#     4  12  30  50  82 127 172 229 294 367 447 529
#     4  11  25  51  86 117 167 224 280 361 435 530
#     4  11  26  52  81 123 164 224 289 350 443 532
#     4  11  27  54  84 120 172 228 288 362 444 529
#     4  10  28  50  80 124 160 218 298 350 426 538
#     4  11  24  43  79 112 155 213 273 341 418 520
#     4  11  25  47  75 115 158 211 279 340 427 515
#
# _framework density 26.362698999999999
#
# number of rings (size 3 to 8) (size 9 to 14) (size 15 to 20)
#    0.000    0.800    1.333    4.000   11.200    0.000 
#    7.200    0.000    0.000    0.000    0.000    0.000 
#    0.000    0.000    0.000    0.000    0.000    0.000 
#
# Total GULP energy -167585.564721 kJ/mol
# GULP energy per Si atom -5586.185491 kJ/mol
# Density = 2.630270 g / cm^3
# Si number density = 26.362699 Si / 1000 Ang^3
#
#
#
# Elastic Constant Matrix: (Units=GPa)
#
#
# Indices 1 2 3 4 5 6 
#
# 1 137.7334 70.4845 44.9724 0.0000 -24.0969 0.0000
# 2 70.4845 129.3500 47.4569 0.0000 -16.9524 0.0000
# 3 44.9724 47.4569 138.9621 0.0000 -19.1797 0.0000
# 4 0.0000 0.0000 0.0000 42.5672 0.0000 -8.9856
# 5 -24.0969 -16.9524 -19.1797 0.0000 51.7945 0.0000
# 6 0.0000 0.0000 0.0000 -8.9856 0.0000 46.1988
#
#
#
# Elastic Compliance Matrix: (Units=1/GPa)
#
#
# Indices 1 2 3 4 5 6 
#
# 1 0.010763 -0.004981 -0.001387 0.000000 0.002864 0.000000
# 2 -0.004981 0.011319 -0.002173 0.000000 0.000583 0.000000
# 3 -0.001387 -0.002173 0.008642 0.000000 0.001843 0.000000
# 4 0.000000 0.000000 0.000000 0.024498 0.000000 0.004765
# 5 0.002864 0.000583 0.001843 0.000000 0.021513 0.000000
# 6 0.000000 0.000000 0.000000 0.004765 0.000000 0.022572
#
#
# Mechanical properties :
#
#
# Convention : Reuss Voigt Hill
#
# Bulk Modulus (GPa) = 73.30494 81.31925 77.31209
# Shear Modulus (GPa) = 41.34419 44.32086 42.83253
#
# Velocity S-wave (km/s) = 3.96445 4.10469 4.03518
# Velocity P-wave (km/s) = 6.98731 7.30602 7.14844
#
# Compressibility (1/GPa) = 0.01364165
#
# Stress axis : x y z
#
# Youngs Moduli (GPa) = 92.90895 88.34920 115.71835
#
# Poissons Ratio (x) = 0.44005 0.16051
# Poissons Ratio (y) = 0.46276 0.25147
# Poissons Ratio (z) = 0.12887 0.19199
#
# Static dielectric constant tensor:
#      x y z
#    x 2.353750 0.000000 -0.025490 
#    y 0.000000 2.067800 0.000000 
#    z -0.025490 0.000000 2.897040 
# 
# From -- ./inp_files/307159.got.cif
#   From: 2010.05.17/outbox.cif.g08.bks.cpg/sg15_154_cif.got.tgz:307159.got - 2010.06.03 18:47:42.
