data_PCOD9300738
_publ_section_title
;
Structure prediction by ZEFSAII (Michael W. Deem and Ramdas Pophale) SiO2 
 PCOD9300738
Probable space group: C 2/C
;
_chemical_formula_sum "Si O2"
_cell_formula_units_Z 36
_cell_length_a 7.066706
_cell_length_b 22.567372
_cell_length_c 13.869488
_cell_angle_alpha 90.000000
_cell_angle_beta 45.959759
_cell_angle_gamma 90.000000
_cell_volume 1590.002355
_symmetry_space_group_name_H-M "C 2/C"
_symmetry_group_IT_number 15
_symmetry_cell_setting 'monoclinic'
loop_
_space_group_symop_operation_xyz
x,y,z
-x,y,1/2-z
-x,-y,-z
x,-y,1/2+z
1/2+x,1/2+y,z
1/2-x,1/2+y,1/2-z
1/2-x,1/2-y,-z
1/2+x,1/2-y,1/2+z
loop_
_atom_site_type_symbol
_atom_site_label
_atom_site_fract_x
_atom_site_fract_y
_atom_site_fract_z
Si Si1 0.979632 0.224036 0.643086
Si Si2 0.503464 0.951955 0.583121
Si Si3 0.536761 0.393266 0.474089
Si Si4 0.730247 0.844632 0.751899
Si Si5 0.000000 0.528151 0.750000
O O1 0.250000 0.250000 0.500000
O O2 0.000000 0.210832 0.750000
O O3 0.920470 0.164005 0.608202
O O4 0.770886 0.277688 0.710838
O O5 0.354395 0.889234 0.633611
O O6 0.636408 0.014526 0.278310
O O7 0.797128 0.932411 0.513573
O O8 0.500000 0.000000 0.500000
O O9 0.467434 0.368738 0.604101
O O10 0.794628 0.432669 0.380019
O O11 0.500000 0.845062 0.750000
#
# Coordination Sequence:
#
# PCOD9300738 Si02
#       5
#     8   8   8   8   4
#     4  11  19  36  69  97 121 167 222 272 327 387
#     4  11  23  40  66  95 126 167 222 272 327 389
#     4  11  23  43  64  93 134 172 213 273 330 388
#     4   9  18  39  64  91 127 166 210 278 325 373
#     4  12  26  42  62  88 138 180 208 262 334 394
#
# _framework density 22.641475
#
# number of rings (size 3 to 8) (size 9 to 14) (size 15 to 20)
#    0.000    1.333   10.000    0.667    3.111    0.000 
#    0.000    1.111    0.000    0.000    0.000    0.000 
#    0.000    0.000    0.000    0.000    0.000    0.000 
#
# Total GULP energy -100506.703701 kJ/mol
# GULP energy per Si atom -5583.705761 kJ/mol
# Density = 2.258994 g / cm^3
# Si number density = 22.641475 Si / 1000 Ang^3
#
#
#
# Elastic Constant Matrix: (Units=GPa)
#
#
# Indices 1 2 3 4 5 6 
#
# 1 63.8267 30.5202 22.2117 0.0000 9.0409 0.0000
# 2 30.5202 157.6180 33.4658 0.0000 4.8283 0.0000
# 3 22.2117 33.4658 94.2543 0.0000 2.9916 0.0000
# 4 0.0000 0.0000 0.0000 57.0781 0.0000 7.4091
# 5 9.0409 4.8283 2.9916 0.0000 27.7323 0.0000
# 6 0.0000 0.0000 0.0000 7.4091 0.0000 16.4830
#
#
#
# Elastic Compliance Matrix: (Units=1/GPa)
#
#
# Indices 1 2 3 4 5 6 
#
# 1 0.018905 -0.002799 -0.003293 0.000000 -0.005321 0.000000
# 2 -0.002799 0.007300 -0.001928 0.000000 -0.000151 0.000000
# 3 -0.003293 -0.001928 0.012067 0.000000 0.000107 0.000000
# 4 0.000000 0.000000 0.000000 0.018605 0.000000 -0.008363
# 5 -0.005321 -0.000151 0.000107 0.000000 0.037808 0.000000
# 6 0.000000 0.000000 0.000000 -0.008363 0.000000 0.064428
#
#
# Mechanical properties :
#
#
# Convention : Reuss Voigt Hill
#
# Bulk Modulus (GPa) = 44.97588 54.23272 49.60430
# Shear Modulus (GPa) = 27.38781 35.55875 31.47328
#
# Velocity S-wave (km/s) = 3.48175 3.96727 3.73241
# Velocity P-wave (km/s) = 6.00591 6.70749 6.36637
#
# Compressibility (1/GPa) = 0.02223414
#
# Stress axis : x y z
#
# Youngs Moduli (GPa) = 52.89568 136.98116 82.87361
#
# Poissons Ratio (x) = 0.38336 0.27287
# Poissons Ratio (y) = 0.14803 0.15976
# Poissons Ratio (z) = 0.17416 0.26406
#
# Static dielectric constant tensor:
#      x y z
#    x 2.094270 0.000000 0.007400 
#    y 0.000000 1.827370 0.000000 
#    z 0.007400 0.000000 1.845730 
# 
# From -- ./inp_files/136392.got.cif
#   From: 2010.05.17/outbox.cif.g08.bks.cpg/sg15_69_cif.got.tgz:136392.got - 2010.06.03 18:47:42.
