data_PCOD9300726
_publ_section_title
;
Structure prediction by ZEFSAII (Michael W. Deem and Ramdas Pophale) SiO2 
 PCOD9300726
Probable space group: C 2/C
;
_chemical_formula_sum "Si O2"
_cell_formula_units_Z 48
_cell_length_a 9.296593
_cell_length_b 20.630101
_cell_length_c 16.980121
_cell_angle_alpha 90.000000
_cell_angle_beta 50.244349
_cell_angle_gamma 90.000000
_cell_volume 2503.613761
_symmetry_space_group_name_H-M "C 2/C"
_symmetry_group_IT_number 15
_symmetry_cell_setting 'monoclinic'
loop_
_space_group_symop_operation_xyz
x,y,z
-x,y,1/2-z
-x,-y,-z
x,-y,1/2+z
1/2+x,1/2+y,z
1/2-x,1/2+y,1/2-z
1/2-x,1/2-y,-z
1/2+x,1/2-y,1/2+z
loop_
_atom_site_type_symbol
_atom_site_label
_atom_site_fract_x
_atom_site_fract_y
_atom_site_fract_z
Si Si1 0.469767 0.144609 0.851580
Si Si2 0.728110 0.671572 0.175840
Si Si3 0.899975 0.806397 0.059316
Si Si4 0.293602 0.739181 0.161446
Si Si5 0.476419 0.076468 0.508142
Si Si6 0.901356 0.143396 0.859305
O O1 0.500000 0.127445 0.750000
O O2 0.248641 0.152845 0.937152
O O3 0.574012 0.212193 0.834126
O O4 0.533977 0.096934 0.896513
O O5 0.500000 0.663469 0.250000
O O6 0.802256 0.736453 0.105781
O O7 0.782102 0.688771 0.247744
O O8 0.852449 0.613653 0.095507
O O9 0.952162 0.838886 0.124036
O O10 0.084603 0.797957 0.944794
O O11 0.170733 0.788463 0.152551
O O12 0.277476 0.104143 0.546281
O O13 0.500000 0.000000 0.500000
O O14 0.000000 0.109339 0.750000
#
# Coordination Sequence:
#
# PCOD9300726 Si02
#       6
#     8   8   8   8   8   8
#     4  11  19  36  63  90 120 159 203 256 310 371
#     4  12  21  37  66  96 125 159 208 260 316 376
#     4  12  19  34  61 102 129 147 199 267 337 357
#     4  11  20  32  57  97 130 153 193 256 328 376
#     4  11  27  46  60  84 130 179 215 245 297 376
#     4  11  22  37  63  93 127 162 198 259 326 374
#
# _framework density 19.172287000000001
#
# number of rings (size 3 to 8) (size 9 to 14) (size 15 to 20)
#    0.000    0.667    8.333    3.000    0.000    0.667 
#    0.000    2.500    0.000    0.000    0.000    0.000 
#    0.000    0.000    0.000    0.000    0.000    0.000 
#
# Total GULP energy -133898.241790 kJ/mol
# GULP energy per Si atom -5579.093408 kJ/mol
# Density = 1.912865 g / cm^3
# Si number density = 19.172287 Si / 1000 Ang^3
#
#
#
# Elastic Constant Matrix: (Units=GPa)
#
#
# Indices 1 2 3 4 5 6 
#
# 1 72.5182 21.9527 -4.8246 0.0000 -5.5911 0.0000
# 2 21.9527 79.9884 15.7348 0.0000 -0.3298 0.0000
# 3 -4.8246 15.7348 66.2587 0.0000 4.0727 0.0000
# 4 0.0000 0.0000 0.0000 15.8100 0.0000 1.4225
# 5 -5.5911 -0.3298 4.0727 0.0000 38.6722 0.0000
# 6 0.0000 0.0000 0.0000 1.4225 0.0000 5.1618
#
#
#
# Elastic Compliance Matrix: (Units=1/GPa)
#
#
# Indices 1 2 3 4 5 6 
#
# 1 0.015493 -0.004660 0.002113 0.000000 0.001978 0.000000
# 2 -0.004660 0.014523 -0.003779 0.000000 -0.000152 0.000000
# 3 0.002113 -0.003779 0.016232 0.000000 -0.001436 0.000000
# 4 0.000000 0.000000 0.000000 0.064859 0.000000 -0.017874
# 5 0.001978 -0.000152 -0.001436 0.000000 0.026294 0.000000
# 6 0.000000 0.000000 0.000000 -0.017874 0.000000 0.198658
#
#
# Mechanical properties :
#
#
# Convention : Reuss Voigt Hill
#
# Bulk Modulus (GPa) = 29.76392 31.61012 30.68702
# Shear Modulus (GPa) = 13.89234 24.32227 19.10730
#
# Velocity S-wave (km/s) = 2.69477 3.56563 3.16034
# Velocity P-wave (km/s) = 5.02400 5.78574 5.41827
#
# Compressibility (1/GPa) = 0.03359772
#
# Stress axis : x y z
#
# Youngs Moduli (GPa) = 64.54415 68.85448 61.60712
#
# Poissons Ratio (x) = 0.32084 -0.13018
# Poissons Ratio (y) = 0.30075 0.23281
# Poissons Ratio (z) = -0.13639 0.26019
#
# Static dielectric constant tensor:
#      x y z
#    x 1.727600 0.000000 -0.040470 
#    y 0.000000 1.641060 0.000000 
#    z -0.040470 0.000000 1.743360 
# 
# From -- ./inp_files/191937.got.cif
#   From: 2010.05.17/outbox.cif.g08.bks.cpg/sg15_96_cif.got.tgz:191937.got - 2010.06.03 18:47:42.
