data_PCOD9300377
_publ_section_title
;
Structure prediction by ZEFSAII (Michael W. Deem and Ramdas Pophale) SiO2 
 PCOD9300377
Probable space group: C 2/C
;
_chemical_formula_sum "Si O2"
_cell_formula_units_Z 52
_cell_length_a 14.140725
_cell_length_b 5.246638
_cell_length_c 33.562359
_cell_angle_alpha 90.000000
_cell_angle_beta 63.238937
_cell_angle_gamma 90.000000
_cell_volume 2223.331374
_symmetry_space_group_name_H-M "C 2/C"
_symmetry_group_IT_number 15
_symmetry_cell_setting 'monoclinic'
loop_
_space_group_symop_operation_xyz
x,y,z
-x,y,1/2-z
-x,-y,-z
x,-y,1/2+z
1/2+x,1/2+y,z
1/2-x,1/2+y,1/2-z
1/2-x,1/2-y,-z
1/2+x,1/2-y,1/2+z
loop_
_atom_site_type_symbol
_atom_site_label
_atom_site_fract_x
_atom_site_fract_y
_atom_site_fract_z
Si Si1 0.392300 0.773808 0.928900
Si Si2 0.886619 0.598640 0.341900
Si Si3 0.567137 0.892576 0.950607
Si Si4 0.000000 0.368178 0.250000
Si Si5 0.272055 0.671504 0.271468
Si Si6 0.678951 0.548197 0.989496
Si Si7 0.255719 0.418273 0.859031
O O1 0.416143 0.769286 0.878024
O O2 0.484501 0.940268 0.930567
O O3 0.269934 0.856891 0.956833
O O4 0.397349 0.550556 0.960944
O O5 0.978122 0.536582 0.293282
O O6 0.827643 0.324455 0.359582
O O7 0.812634 0.816559 0.337431
O O8 0.613364 0.638899 0.963810
O O9 0.675512 0.985403 0.909671
O O10 0.500000 0.000000 0.000000
O O11 0.894556 0.207242 0.261700
O O12 0.256324 0.414874 0.249813
O O13 0.208621 0.672037 0.325524
O O14 0.750000 0.750000 0.000000
#
# Coordination Sequence:
#
# PCOD9300377 Si02
#       7
#     8   8   8   4   8   8   8
#     4  11  25  40  68 100 132 193 236 303 358 436
#     4  11  25  48  75 103 149 192 242 305 376 435
#     4  12  25  43  70 104 142 192 247 298 360 443
#     4  10  26  50  78 112 148 196 250 306 380 454
#     4  11  25  48  78 110 150 190 245 315 377 442
#     4  11  22  44  66  93 139 182 241 296 361 413
#     4  11  26  48  72 109 147 192 240 311 369 436
#
# _framework density 23.388328000000001
#
# number of rings (size 3 to 8) (size 9 to 14) (size 15 to 20)
#    0.000    0.923    3.077    3.231    4.308    6.769 
#    0.000    0.000    0.000    0.000    0.000    0.000 
#    0.000    0.000    0.000    0.000    0.000    0.000 
#
# Total GULP energy -144878.188661 kJ/mol
# GULP energy per Si atom -5572.238025 kJ/mol
# Density = 2.333510 g / cm^3
# Si number density = 23.388328 Si / 1000 Ang^3
#
#
#
# Elastic Constant Matrix: (Units=GPa)
#
#
# Indices 1 2 3 4 5 6 
#
# 1 79.1064 18.4280 37.5712 0.0002 10.3039 0.0001
# 2 18.4280 74.1749 17.6231 0.0049 -7.7599 0.0033
# 3 37.5712 17.6231 151.3607 -0.0009 0.0509 0.0009
# 4 0.0002 0.0049 -0.0009 36.1755 0.0003 8.1334
# 5 10.3039 -7.7599 0.0509 0.0003 49.4412 0.0002
# 6 0.0001 0.0033 0.0009 8.1334 0.0002 21.7678
#
#
#
# Elastic Compliance Matrix: (Units=1/GPa)
#
#
# Indices 1 2 3 4 5 6 
#
# 1 0.015582 -0.003444 -0.003466 0.000000 -0.003784 0.000001
# 2 -0.003444 0.014865 -0.000877 -0.000002 0.003052 -0.000002
# 3 -0.003466 -0.000877 0.007569 0.000000 0.000577 0.000000
# 4 0.000000 -0.000002 0.000000 0.030178 0.000000 -0.011276
# 5 -0.003784 0.003052 0.000577 0.000000 0.021493 -0.000001
# 6 0.000001 -0.000002 0.000000 -0.011276 -0.000001 0.050153
#
#
# Mechanical properties :
#
#
# Convention : Reuss Voigt Hill
#
# Bulk Modulus (GPa) = 44.55664 50.20961 47.38312
# Shear Modulus (GPa) = 30.69482 36.87821 33.78651
#
# Velocity S-wave (km/s) = 3.62664 3.97517 3.80490
# Velocity P-wave (km/s) = 6.05217 6.52562 6.29335
#
# Compressibility (1/GPa) = 0.02244334
#
# Stress axis : x y z
#
# Youngs Moduli (GPa) = 64.17502 67.27289 132.11960
#
# Poissons Ratio (x) = 0.23167 0.45788
# Poissons Ratio (y) = 0.22101 0.11586
# Poissons Ratio (z) = 0.22241 0.05899
#
# Static dielectric constant tensor:
#      x y z
#    x 2.452920 0.000020 0.125390 
#    y 0.000020 1.952410 0.000000 
#    z 0.125390 0.000000 1.993440 
# 
# From -- ./inp_files/312310.got.cif
#   From: 2010.05.17/outbox.cif.g08.bks.cpg/sg15_157_cif.got.tgz:312310.got - 2010.06.03 18:47:42.
