data_PCOD9300864
_publ_section_title
;
Structure prediction by ZEFSAII (Michael W. Deem and Ramdas Pophale) SiO2 
 PCOD9300864
Probable space group: C 2/C
;
_chemical_formula_sum "Si O2"
_cell_formula_units_Z 48
_cell_length_a 8.775096
_cell_length_b 29.265924
_cell_length_c 18.087434
_cell_angle_alpha 90.000000
_cell_angle_beta 149.770015
_cell_angle_gamma 90.000000
_cell_volume 2338.657150
_symmetry_space_group_name_H-M "C 2/C"
_symmetry_group_IT_number 15
_symmetry_cell_setting 'monoclinic'
loop_
_space_group_symop_operation_xyz
x,y,z
-x,y,1/2-z
-x,-y,-z
x,-y,1/2+z
1/2+x,1/2+y,z
1/2-x,1/2+y,1/2-z
1/2-x,1/2-y,-z
1/2+x,1/2-y,1/2+z
loop_
_atom_site_type_symbol
_atom_site_label
_atom_site_fract_x
_atom_site_fract_y
_atom_site_fract_z
Si Si1 0.768287 0.354206 0.815442
Si Si2 0.324464 0.481621 0.354810
Si Si3 0.325960 0.416778 0.850539
Si Si4 0.341245 0.219190 0.108990
Si Si5 0.624459 0.597747 0.884750
Si Si6 0.647925 0.353098 0.097596
O O1 0.500000 0.332364 0.750000
O O2 0.599493 0.388073 0.689540
O O3 0.933838 0.317659 0.833297
O O4 0.026998 0.385181 0.964093
O O5 0.500000 0.500000 0.500000
O O6 0.280521 0.531766 0.301240
O O7 0.521565 0.448510 0.385585
O O8 0.000000 0.464587 0.250000
O O9 0.000000 0.405066 0.750000
O O10 0.557054 0.397534 0.009614
O O11 0.500000 0.239291 0.250000
O O12 0.250000 0.250000 0.000000
O O13 0.047724 0.189947 0.011225
O O14 0.500000 0.594991 0.750000
O O15 0.456304 0.635999 0.862851
O O16 0.000000 0.344692 0.250000
#
# Coordination Sequence:
#
# PCOD9300864 Si02
#       6
#     8   8   8   8   8   8
#     4  11  24  44  68  93 130 186 219 264 340 408
#     4  11  22  37  63  90 124 179 230 273 326 389
#     4  11  19  42  68  85 124 180 230 260 323 401
#     4  11  24  47  73 102 137 171 220 278 338 415
#     4  11  24  39  59  98 138 165 225 292 328 372
#     4  11  22  41  71  95 125 178 218 263 334 409
#
# _framework density 20.524598000000001
#
# number of rings (size 3 to 8) (size 9 to 14) (size 15 to 20)
#    0.000    1.000    6.667    1.500    2.333    4.000 
#    0.000    4.167    0.000    0.000    0.000    0.000 
#    0.000    0.000    0.000    0.000    0.000    0.000 
#
# Total GULP energy -133625.895815 kJ/mol
# GULP energy per Si atom -5567.745659 kJ/mol
# Density = 2.047788 g / cm^3
# Si number density = 20.524598 Si / 1000 Ang^3
#
#
#
# Elastic Constant Matrix: (Units=GPa)
#
#
# Indices 1 2 3 4 5 6 
#
# 1 56.7240 8.1315 64.4522 0.0000 -2.3720 0.0000
# 2 8.1315 54.0336 25.7758 0.0000 -5.8362 0.0000
# 3 64.4522 25.7758 144.5196 -0.0003 -6.1447 0.0000
# 4 0.0000 0.0000 -0.0003 23.5979 -0.0001 -12.0807
# 5 -2.3720 -5.8362 -6.1447 -0.0001 53.1111 0.0000
# 6 0.0000 0.0000 0.0000 -12.0807 0.0000 20.1838
#
#
#
# Elastic Compliance Matrix: (Units=1/GPa)
#
#
# Indices 1 2 3 4 5 6 
#
# 1 0.036035 0.002449 -0.016509 0.000000 -0.000031 0.000000
# 2 0.002449 0.020570 -0.004683 0.000000 0.001828 0.000000
# 3 -0.016509 -0.004683 0.015138 0.000000 0.000500 0.000000
# 4 0.000000 0.000000 0.000000 0.061098 0.000000 0.036569
# 5 -0.000031 0.001828 0.000500 0.000000 0.019086 0.000000
# 6 0.000000 0.000000 0.000000 0.036569 0.000000 0.071433
#
#
# Mechanical properties :
#
#
# Convention : Reuss Voigt Hill
#
# Bulk Modulus (GPa) = 29.19096 50.22182 39.70639
# Shear Modulus (GPa) = 18.36451 29.83974 24.10213
#
# Velocity S-wave (km/s) = 2.99449 3.81708 3.43053
# Velocity P-wave (km/s) = 5.11950 6.62940 5.92276
#
# Compressibility (1/GPa) = 0.03425718
#
# Stress axis : x y z
#
# Youngs Moduli (GPa) = 27.75099 48.61465 66.05680
#
# Poissons Ratio (x) = -0.11906 1.09051
# Poissons Ratio (y) = -0.06796 0.30936
# Poissons Ratio (z) = 0.45813 0.22767
#
# Static dielectric constant tensor:
#      x y z
#    x 1.811360 0.000000 -0.078410 
#    y 0.000000 2.304420 0.000010 
#    z -0.078410 0.000010 2.231420 
# 
# From -- ./inp_files/194348.got.cif
#   From: 2010.05.17/outbox.cif.g08.bks.cpg/sg15_98_cif.got.tgz:194348.got - 2010.06.03 18:47:42.
