data_PCOD9300144
_publ_section_title
;
Structure prediction by ZEFSAII (Michael W. Deem and Ramdas Pophale) SiO2 
 PCOD9300144
Probable space group: C 2/C
;
_chemical_formula_sum "Si O2"
_cell_formula_units_Z 64
_cell_length_a 29.638190
_cell_length_b 22.631864
_cell_length_c 14.290675
_cell_angle_alpha 90.000000
_cell_angle_beta 18.536946
_cell_angle_gamma 90.000000
_cell_volume 3047.454735
_symmetry_space_group_name_H-M "C 2/C"
_symmetry_group_IT_number 15
_symmetry_cell_setting 'monoclinic'
loop_
_space_group_symop_operation_xyz
x,y,z
-x,y,1/2-z
-x,-y,-z
x,-y,1/2+z
1/2+x,1/2+y,z
1/2-x,1/2+y,1/2-z
1/2-x,1/2-y,-z
1/2+x,1/2-y,1/2+z
loop_
_atom_site_type_symbol
_atom_site_label
_atom_site_fract_x
_atom_site_fract_y
_atom_site_fract_z
Si Si1 0.415939 0.059852 0.649541
Si Si2 0.720312 0.546922 0.196639
Si Si3 0.056876 0.887629 0.292815
Si Si4 0.833057 0.175445 0.596958
Si Si5 0.169112 0.757842 0.060227
Si Si6 0.802903 0.002529 0.556526
Si Si7 0.056970 0.338549 0.534037
Si Si8 0.580152 0.430303 0.448938
O O1 0.488133 0.115139 0.457369
O O2 0.500000 0.000000 0.500000
O O3 0.305194 0.041111 0.788022
O O4 0.342443 0.074436 0.893082
O O5 0.592367 0.593455 0.460563
O O6 0.751258 0.515980 0.234553
O O7 0.662699 0.489298 0.253462
O O8 0.124660 0.825544 0.134116
O O9 0.032316 0.893577 0.452597
O O10 0.163684 0.939775 0.055737
O O11 0.831225 0.114450 0.660866
O O12 0.769393 0.228401 0.784428
O O13 0.726338 0.169058 0.718454
O O14 0.000000 0.184785 0.250000
O O15 0.022833 0.721122 0.338506
O O16 0.250000 0.750000 0.000000
O O17 0.947163 0.040789 0.264328
O O18 0.000000 0.355528 0.750000
#
# Coordination Sequence:
#
# PCOD9300144 Si02
#       8
#     8   8   8   8   8   8   8   8
#     4  12  26  39  64  97 142 179 224 281 353 414
#     4  11  23  39  65 103 133 174 218 281 354 410
#     4  11  21  41  71  97 130 174 228 281 341 413
#     4  11  23  42  75 102 132 175 239 293 342 414
#     4  11  25  45  72  94 134 189 236 285 344 406
#     4  11  23  40  67 102 134 171 219 284 353 418
#     4  10  26  45  68 100 136 187 240 283 345 426
#     4  11  18  38  71 100 129 165 223 285 338 411
#
# _framework density 21.001132999999999
#
# number of rings (size 3 to 8) (size 9 to 14) (size 15 to 20)
#    0.000    1.000    3.750    4.500    7.000    3.000 
#    0.000    3.750    0.000    0.000    0.000    0.000 
#    0.000    0.000    0.000    0.000    0.000    0.000 
#
# Total GULP energy -178653.929619 kJ/mol
# GULP energy per Si atom -5582.935301 kJ/mol
# Density = 2.095333 g / cm^3
# Si number density = 21.001133 Si / 1000 Ang^3
#
#
#
# Elastic Constant Matrix: (Units=GPa)
#
#
# Indices 1 2 3 4 5 6 
#
# 1 80.8084 17.6259 15.8875 -0.0017 10.4183 0.0006
# 2 17.6259 140.2083 35.8392 -0.0034 8.6468 0.0000
# 3 15.8875 35.8392 57.1407 -0.0060 -5.7464 0.0005
# 4 -0.0017 -0.0034 -0.0060 27.6363 0.0004 -0.6653
# 5 10.4183 8.6468 -5.7464 0.0004 30.5565 -0.0004
# 6 0.0006 0.0000 0.0005 -0.6653 -0.0004 35.1976
#
#
#
# Elastic Compliance Matrix: (Units=1/GPa)
#
#
# Indices 1 2 3 4 5 6 
#
# 1 0.013985 -0.000341 -0.004224 0.000000 -0.005466 0.000000
# 2 -0.000341 0.008880 -0.005826 0.000000 -0.003492 0.000000
# 3 -0.004224 -0.005826 0.023076 0.000004 0.007428 0.000000
# 4 0.000000 0.000000 0.000004 0.036201 0.000000 0.000684
# 5 -0.005466 -0.003492 0.007428 0.000000 0.036975 0.000000
# 6 0.000000 0.000000 0.000000 0.000684 0.000000 0.028424
#
#
# Mechanical properties :
#
#
# Convention : Reuss Voigt Hill
#
# Bulk Modulus (GPa) = 39.74800 46.31806 43.03303
# Shear Modulus (GPa) = 28.29531 32.59840 30.44686
#
# Velocity S-wave (km/s) = 3.67457 3.94410 3.81172
# Velocity P-wave (km/s) = 6.08038 6.54554 6.31724
#
# Compressibility (1/GPa) = 0.02515850
#
# Stress axis : x y z
#
# Youngs Moduli (GPa) = 71.50765 112.61743 43.33499
#
# Poissons Ratio (x) = 0.03843 0.18304
# Poissons Ratio (y) = 0.02440 0.25246
# Poissons Ratio (z) = 0.30204 0.65607
#
# Static dielectric constant tensor:
#      x y z
#    x 7.363900 -0.000010 -8.349430 
#    y -0.000010 1.723710 0.000020 
#    z -8.349430 0.000020 14.472440 
# 
# From -- ./inp_files/183124.got.cif
#   From: 2010.05.17/outbox.cif.g08.bks.cpg/sg15_92_cif.got.tgz:183124.got - 2010.06.03 18:47:42.
