data_PCOD9300450
_publ_section_title
;
Structure prediction by ZEFSAII (Michael W. Deem and Ramdas Pophale) SiO2 
 PCOD9300450
Probable space group: C 2/C
;
_chemical_formula_sum "Si O2"
_cell_formula_units_Z 44
_cell_length_a 8.039773
_cell_length_b 17.240837
_cell_length_c 14.440421
_cell_angle_alpha 90.000000
_cell_angle_beta 84.427029
_cell_angle_gamma 90.000000
_cell_volume 1992.160622
_symmetry_space_group_name_H-M "C 2/C"
_symmetry_group_IT_number 15
_symmetry_cell_setting 'monoclinic'
loop_
_space_group_symop_operation_xyz
x,y,z
-x,y,1/2-z
-x,-y,-z
x,-y,1/2+z
1/2+x,1/2+y,z
1/2-x,1/2+y,1/2-z
1/2-x,1/2-y,-z
1/2+x,1/2-y,1/2+z
loop_
_atom_site_type_symbol
_atom_site_label
_atom_site_fract_x
_atom_site_fract_y
_atom_site_fract_z
Si Si1 0.000000 0.972894 0.250000
Si Si2 0.500000 0.730516 0.250000
Si Si3 0.017039 0.101559 0.095821
Si Si4 0.740319 0.342432 0.283911
Si Si5 0.825386 0.662139 0.981926
Si Si6 0.681128 0.173776 0.059214
Si Si7 0.000000 0.720609 0.250000
O O1 0.839300 0.917009 0.256723
O O2 0.999728 0.026175 0.340230
O O3 0.549390 0.673636 0.164952
O O4 0.360315 0.788218 0.218054
O O5 0.844271 0.118413 0.051681
O O6 0.182986 0.103842 0.026323
O O7 0.835351 0.356705 0.373184
O O8 0.592853 0.280965 0.313277
O O9 0.994177 0.346896 0.980812
O O10 0.750000 0.750000 0.000000
O O11 0.622572 0.176926 0.172338
O O12 0.750000 0.250000 0.000000
#
# Coordination Sequence:
#
# PCOD9300450 Si02
#       7
#     4   4   8   8   8   8   4
#     4  10  28  46  64  95 143 190 220 274 368 418
#     4  11  18  37  71  95 126 170 240 285 318 407
#     4  11  23  44  68 101 134 178 230 291 343 410
#     4  11  22  42  65  98 138 183 225 281 347 419
#     4  12  22  40  70 107 137 171 237 299 340 402
#     4  12  22  38  67 108 137 171 230 298 343 394
#     4  11  20  35  67 100 129 180 226 281 338 403
#
# _framework density 22.086570999999999
#
# number of rings (size 3 to 8) (size 9 to 14) (size 15 to 20)
#    0.000    0.727    7.273    0.000    2.545    0.727 
#    3.273    0.909    0.000    0.000    0.000    0.000 
#    0.000    0.000    0.000    0.000    0.000    0.000 
#
# Total GULP energy -122680.186359 kJ/mol
# GULP energy per Si atom -5576.372107 kJ/mol
# Density = 2.203630 g / cm^3
# Si number density = 22.086571 Si / 1000 Ang^3
#
#
#
# Elastic Constant Matrix: (Units=GPa)
#
#
# Indices 1 2 3 4 5 6 
#
# 1 160.4149 30.8113 21.1330 0.0000 24.7742 0.0000
# 2 30.8113 74.0830 -2.7973 0.0000 10.3182 0.0000
# 3 21.1330 -2.7973 71.0205 0.0000 10.2901 0.0000
# 4 0.0000 0.0000 0.0000 14.4067 0.0000 13.4612
# 5 24.7742 10.3182 10.2901 0.0000 44.0438 0.0000
# 6 0.0000 0.0000 0.0000 13.4612 0.0000 26.1550
#
#
#
# Elastic Compliance Matrix: (Units=1/GPa)
#
#
# Indices 1 2 3 4 5 6 
#
# 1 0.007494 -0.002752 -0.001885 0.000000 -0.003130 0.000000
# 2 -0.002752 0.015042 0.001757 0.000000 -0.002386 0.000000
# 3 -0.001885 0.001757 0.015129 0.000000 -0.002886 0.000000
# 4 0.000000 0.000000 0.000000 0.133714 0.000000 -0.068819
# 5 -0.003130 -0.002386 -0.002886 0.000000 0.025699 0.000000
# 6 0.000000 0.000000 0.000000 -0.068819 0.000000 0.073652
#
#
# Mechanical properties :
#
#
# Convention : Reuss Voigt Hill
#
# Bulk Modulus (GPa) = 31.34306 44.86805 38.10555
# Shear Modulus (GPa) = 17.41406 34.01250 25.71328
#
# Velocity S-wave (km/s) = 2.81097 3.92849 3.41575
# Velocity P-wave (km/s) = 4.97566 6.39814 5.73120
#
# Compressibility (1/GPa) = 0.03190499
#
# Stress axis : x y z
#
# Youngs Moduli (GPa) = 133.43696 66.48197 66.09977
#
# Poissons Ratio (x) = 0.18296 0.12459
# Poissons Ratio (y) = 0.36722 -0.11614
# Poissons Ratio (z) = 0.25151 -0.11682
#
# Static dielectric constant tensor:
#      x y z
#    x 1.936460 0.000000 -0.029960 
#    y 0.000000 1.808500 0.000000 
#    z -0.029960 0.000000 1.876270 
# 
# From -- ./inp_files/87209.got.cif
#   From: 2010.05.17/outbox.cif.g08.bks.cpg/sg15_44_cif.got.tgz:87209.got - 2010.06.03 18:47:42.
