data_PCOD9300414
_publ_section_title
;
Structure prediction by ZEFSAII (Michael W. Deem and Ramdas Pophale) SiO2 
 PCOD9300414
Probable space group: C 2/C
;
_chemical_formula_sum "Si O2"
_cell_formula_units_Z 28
_cell_length_a 13.089007
_cell_length_b 4.579105
_cell_length_c 16.088621
_cell_angle_alpha 90.000000
_cell_angle_beta 88.105890
_cell_angle_gamma 90.000000
_cell_volume 963.759713
_symmetry_space_group_name_H-M "C 2/C"
_symmetry_group_IT_number 15
_symmetry_cell_setting 'monoclinic'
loop_
_space_group_symop_operation_xyz
x,y,z
-x,y,1/2-z
-x,-y,-z
x,-y,1/2+z
1/2+x,1/2+y,z
1/2-x,1/2+y,1/2-z
1/2-x,1/2-y,-z
1/2+x,1/2-y,1/2+z
loop_
_atom_site_type_symbol
_atom_site_label
_atom_site_fract_x
_atom_site_fract_y
_atom_site_fract_z
Si Si1 0.500000 0.743405 0.250000
Si Si2 0.980557 0.280050 0.425408
Si Si3 0.723187 0.598987 0.589235
Si Si4 0.341388 0.563391 0.654966
O O1 0.485811 0.929466 0.333633
O O2 0.598166 0.533786 0.263833
O O3 0.000000 0.500000 0.500000
O O4 0.074213 0.054828 0.413265
O O5 0.877283 0.091626 0.423319
O O6 0.693139 0.123194 0.375211
O O7 0.738396 0.869268 0.651580
O O8 0.250000 0.250000 0.500000
#
# Coordination Sequence:
#
# PCOD9300414 Si02
#       4
#     4   8   8   8
#     4   8  24  56  74 124 172 230 288 356 444 514
#     4  10  26  52  85 124 175 228 288 367 434 514
#     4  12  28  48  84 124 162 227 287 352 442 519
#     4  10  27  50  79 121 171 214 298 347 440 517
#
# _framework density 29.052882
#
# number of rings (size 3 to 8) (size 9 to 14) (size 15 to 20)
#    1.714    0.000    0.000    0.857    8.000    8.000 
#    0.000    0.000    0.000    1.714    0.000    0.000 
#    0.000    0.000    0.000    0.000    0.000    0.000 
#
# Total GULP energy -78335.573629 kJ/mol
# GULP energy per Si atom -5595.398116 kJ/mol
# Density = 2.898676 g / cm^3
# Si number density = 29.052882 Si / 1000 Ang^3
#
#
#
# Elastic Constant Matrix: (Units=GPa)
#
#
# Indices 1 2 3 4 5 6 
#
# 1 171.4239 56.6560 49.8915 0.0000 28.7211 0.0000
# 2 56.6560 170.8551 67.5334 0.0000 8.1671 0.0000
# 3 49.8915 67.5334 240.3778 0.0000 30.7692 0.0000
# 4 0.0000 0.0000 0.0000 72.2795 0.0000 18.5736
# 5 28.7211 8.1671 30.7692 0.0000 44.1738 0.0000
# 6 0.0000 0.0000 0.0000 18.5736 0.0000 66.8986
#
#
#
# Elastic Compliance Matrix: (Units=1/GPa)
#
#
# Indices 1 2 3 4 5 6 
#
# 1 0.007323 -0.002069 -0.000415 0.000000 -0.004090 0.000000
# 2 -0.002069 0.007169 -0.001743 0.000000 0.001233 0.000000
# 3 -0.000415 -0.001743 0.005116 0.000000 -0.002972 0.000000
# 4 0.000000 0.000000 0.000000 0.014898 0.000000 -0.004136
# 5 -0.004090 0.001233 -0.002972 0.000000 0.027139 0.000000
# 6 0.000000 0.000000 0.000000 -0.004136 0.000000 0.016096
#
#
# Mechanical properties :
#
#
# Convention : Reuss Voigt Hill
#
# Bulk Modulus (GPa) = 89.64508 103.42430 96.53469
# Shear Modulus (GPa) = 55.60928 63.90875 59.75902
#
# Velocity S-wave (km/s) = 4.37976 4.69523 4.54023
# Velocity P-wave (km/s) = 7.51659 8.06656 7.79643
#
# Compressibility (1/GPa) = 0.01115510
#
# Stress axis : x y z
#
# Youngs Moduli (GPa) = 136.55030 139.49454 195.45617
#
# Poissons Ratio (x) = 0.28859 0.08117
# Poissons Ratio (y) = 0.28249 0.34059
# Poissons Ratio (z) = 0.05670 0.24307
#
# Static dielectric constant tensor:
#      x y z
#    x 2.338350 0.000000 -0.088680 
#    y 0.000000 2.425800 0.000000 
#    z -0.088680 0.000000 2.440420 
# 
# From -- ./inp_files/201772.got.cif
#   From: 2010.05.17/outbox.cif.g08.bks.cpg/sg15_101_cif.got.tgz:201772.got - 2010.06.03 18:47:42.
