data_PCOD9300014
_publ_section_title
;
Structure prediction by ZEFSAII (Michael W. Deem and Ramdas Pophale) SiO2 
 PCOD9300014
Probable space group: C 2/C
;
_chemical_formula_sum "Si O2"
_cell_formula_units_Z 40
_cell_length_a 20.527033
_cell_length_b 5.163295
_cell_length_c 14.469054
_cell_angle_alpha 90.000000
_cell_angle_beta 86.124908
_cell_angle_gamma 90.000000
_cell_volume 1530.027425
_symmetry_space_group_name_H-M "C 2/C"
_symmetry_group_IT_number 15
_symmetry_cell_setting 'monoclinic'
loop_
_space_group_symop_operation_xyz
x,y,z
-x,y,1/2-z
-x,-y,-z
x,-y,1/2+z
1/2+x,1/2+y,z
1/2-x,1/2+y,1/2-z
1/2-x,1/2-y,-z
1/2+x,1/2-y,1/2+z
loop_
_atom_site_type_symbol
_atom_site_label
_atom_site_fract_x
_atom_site_fract_y
_atom_site_fract_z
Si Si1 0.500000 0.602155 0.750000
Si Si2 0.250000 0.750000 0.000000
Si Si3 0.855047 0.579700 0.558328
Si Si4 0.469431 0.750715 0.549924
Si Si5 0.739499 0.722810 0.855223
Si Si6 0.137320 0.903604 0.763534
O O1 0.483179 0.750840 0.657600
O O2 0.567708 0.451376 0.723924
O O3 0.259984 0.509062 0.074156
O O4 0.334517 0.757504 0.973234
O O5 0.893582 0.316887 0.541419
O O6 0.778953 0.495079 0.591170
O O7 0.880584 0.744777 0.641015
O O8 0.500000 0.500000 0.500000
O O9 0.500000 0.000000 0.500000
O O10 0.808299 0.749365 0.798663
O O11 0.680103 0.656363 0.790249
#
# Coordination Sequence:
#
# PCOD9300014 Si02
#       6
#     4   4   8   8   8   8
#     4  12  28  54  86 120 170 226 290 350 444 516
#     4  10  26  40  76 108 154 206 266 348 420 494
#     4  11  24  48  72 112 163 205 283 350 417 520
#     4  12  30  53  81 121 174 222 285 356 432 522
#     4  11  22  46  73 112 153 207 273 345 422 505
#     4  11  24  46  79 116 159 216 280 348 425 519
#
# _framework density 26.143322000000001
#
# number of rings (size 3 to 8) (size 9 to 14) (size 15 to 20)
#    0.000    0.800    4.000    1.800    5.600    4.800 
#    0.000    0.000    0.000    0.000    0.000    0.000 
#    0.000    0.000    0.000    0.000    0.000    0.000 
#
# Total GULP energy -111579.964200 kJ/mol
# GULP energy per Si atom -5578.998210 kJ/mol
# Density = 2.608382 g / cm^3
# Si number density = 26.143322 Si / 1000 Ang^3
#
#
#
# Elastic Constant Matrix: (Units=GPa)
#
#
# Indices 1 2 3 4 5 6 
#
# 1 197.4565 53.2646 36.1525 0.0000 14.2316 0.0000
# 2 53.2646 148.9393 26.9438 0.0000 -3.7235 0.0000
# 3 36.1525 26.9438 57.8006 0.0000 4.3929 0.0000
# 4 0.0000 0.0000 0.0000 45.1729 0.0000 -4.5652
# 5 14.2316 -3.7235 4.3929 0.0000 46.7112 0.0000
# 6 0.0000 0.0000 0.0000 -4.5652 0.0000 65.1777
#
#
#
# Elastic Compliance Matrix: (Units=1/GPa)
#
#
# Indices 1 2 3 4 5 6 
#
# 1 0.006194 -0.001728 -0.002936 0.000000 -0.001749 0.000000
# 2 -0.001728 0.007853 -0.002687 0.000000 0.001405 0.000000
# 3 -0.002936 -0.002687 0.020484 0.000000 -0.001246 0.000000
# 4 0.000000 0.000000 0.000000 0.022295 0.000000 0.001562
# 5 -0.001749 0.001405 -0.001246 0.000000 0.022170 0.000000
# 6 0.000000 0.000000 0.000000 0.001562 0.000000 0.015452
#
#
# Mechanical properties :
#
#
# Convention : Reuss Voigt Hill
#
# Bulk Modulus (GPa) = 50.42727 70.76868 60.59797
# Shear Modulus (GPa) = 43.19274 50.60139 46.89706
#
# Velocity S-wave (km/s) = 4.06908 4.40425 4.23998
# Velocity P-wave (km/s) = 6.43484 7.27952 6.87018
#
# Compressibility (1/GPa) = 0.01983054
#
# Stress axis : x y z
#
# Youngs Moduli (GPa) = 161.44520 127.33595 48.81770
#
# Poissons Ratio (x) = 0.22001 0.14332
# Poissons Ratio (y) = 0.27894 0.13117
# Poissons Ratio (z) = 0.47398 0.34214
#
# Static dielectric constant tensor:
#      x y z
#    x 2.756960 0.000000 0.125650 
#    y 0.000000 2.406450 0.000000 
#    z 0.125650 0.000000 2.418280 
# 
# From -- ./inp_files/208125.got.cif
#   From: 2010.05.17/outbox.cif.g08.bks.cpg/sg15_105_cif.got.tgz:208125.got - 2010.06.03 18:47:42.
