data_PCOD9300894
_publ_section_title
;
Structure prediction by ZEFSAII (Michael W. Deem and Ramdas Pophale) SiO2 
 PCOD9300894
Probable space group: C 2/C
;
_chemical_formula_sum "Si O2"
_cell_formula_units_Z 56
_cell_length_a 10.291681
_cell_length_b 28.781796
_cell_length_c 19.832058
_cell_angle_alpha 90.000000
_cell_angle_beta 30.682334
_cell_angle_gamma 90.000000
_cell_volume 2997.634266
_symmetry_space_group_name_H-M "C 2/C"
_symmetry_group_IT_number 15
_symmetry_cell_setting 'monoclinic'
loop_
_space_group_symop_operation_xyz
x,y,z
-x,y,1/2-z
-x,-y,-z
x,-y,1/2+z
1/2+x,1/2+y,z
1/2-x,1/2+y,1/2-z
1/2-x,1/2-y,-z
1/2+x,1/2-y,1/2+z
loop_
_atom_site_type_symbol
_atom_site_label
_atom_site_fract_x
_atom_site_fract_y
_atom_site_fract_z
Si Si1 0.722590 0.439463 0.894100
Si Si2 0.500000 0.241459 0.250000
Si Si3 0.063486 0.819558 0.328586
Si Si4 0.940009 0.001477 0.412051
Si Si5 0.940766 0.635914 0.855756
Si Si6 0.585103 0.955781 0.375287
Si Si7 0.405574 0.665789 0.052432
Si Si8 0.000000 0.898258 0.250000
O O1 0.527834 0.458369 0.924931
O O2 0.000000 0.458409 0.750000
O O3 0.635649 0.458936 0.005031
O O4 0.727821 0.384209 0.892280
O O5 0.476868 0.275294 0.324600
O O6 0.264490 0.207065 0.343688
O O7 0.367897 0.826520 0.197601
O O8 0.980069 0.865036 0.323695
O O9 0.970528 0.820497 0.446495
O O10 0.191510 0.987369 0.257853
O O11 0.679668 0.017792 0.491323
O O12 0.656252 0.655179 0.984231
O O13 0.000000 0.630164 0.750000
O O14 0.000530 0.586512 0.863475
O O15 0.746591 0.929481 0.360578
#
# Coordination Sequence:
#
# PCOD9300894 Si02
#       8
#     8   4   8   8   8   8   8   4
#     4  11  20  32  51  85 115 145 181 238 297 329
#     4  11  22  34  56  86 114 142 178 230 290 341
#     4   9  20  38  56  81 106 147 190 226 277 350
#     4  11  22  32  54  82 119 146 190 240 280 335
#     4   9  18  33  56  77 104 144 187 225 277 336
#     4  11  21  35  53  81 111 155 193 237 282 334
#     4  11  20  35  58  82 114 141 182 237 285 337
#     4   9  20  38  58  74 106 154 202 226 274 349
#
# _framework density 18.681398000000002
#
# number of rings (size 3 to 8) (size 9 to 14) (size 15 to 20)
#    0.000    1.714    3.571    3.000    2.000    1.143 
#    0.000    0.000    0.000    0.000    0.000    0.000 
#    0.000    0.000    0.000    0.000    0.000    0.000 
#
# Total GULP energy -156124.607408 kJ/mol
# GULP energy per Si atom -5575.878836 kJ/mol
# Density = 1.863888 g / cm^3
# Si number density = 18.681398 Si / 1000 Ang^3
#
#
#
# Elastic Constant Matrix: (Units=GPa)
#
#
# Indices 1 2 3 4 5 6 
#
# 1 73.8892 31.9951 22.2028 -0.0001 -29.8516 0.0003
# 2 31.9951 102.9979 28.5610 0.0003 -15.3040 -0.0003
# 3 22.2028 28.5610 74.9181 -0.0016 -32.3776 0.0019
# 4 -0.0001 0.0003 -0.0016 24.3597 0.0008 -9.0841
# 5 -29.8516 -15.3040 -32.3776 0.0008 32.6367 -0.0012
# 6 0.0003 -0.0003 0.0019 -9.0841 -0.0012 23.9128
#
#
#
# Elastic Compliance Matrix: (Units=1/GPa)
#
#
# Indices 1 2 3 4 5 6 
#
# 1 0.024511 -0.005433 0.005943 0.000000 0.025767 0.000000
# 2 -0.005433 0.012117 -0.004729 0.000000 -0.003979 0.000000
# 3 0.005943 -0.004729 0.025873 0.000001 0.028886 0.000000
# 4 0.000000 0.000000 0.000001 0.047827 0.000000 0.018169
# 5 0.025767 -0.003979 0.028886 0.000000 0.081000 0.000001
# 6 0.000000 0.000000 0.000000 0.018169 0.000001 0.048721
#
#
# Mechanical properties :
#
#
# Convention : Reuss Voigt Hill
#
# Bulk Modulus (GPa) = 18.49685 46.36919 32.43302
# Shear Modulus (GPa) = 18.76126 27.45160 23.10643
#
# Velocity S-wave (km/s) = 3.17247 3.83751 3.52073
# Velocity P-wave (km/s) = 4.83137 6.67160 5.82462
#
# Compressibility (1/GPa) = 0.05406325
#
# Stress axis : x y z
#
# Youngs Moduli (GPa) = 40.79843 82.53029 38.65000
#
# Poissons Ratio (x) = 0.44842 -0.22971
# Poissons Ratio (y) = 0.22167 0.18276
# Poissons Ratio (z) = -0.24248 0.39026
#
# Static dielectric constant tensor:
#      x y z
#    x 1.659410 0.000000 -0.020130 
#    y 0.000000 1.635680 0.000000 
#    z -0.020130 0.000000 1.660220 
# 
# From -- ./inp_files/271157.got.cif
#   From: 2010.05.17/outbox.cif.g08.bks.cpg/sg15_136_cif.got.tgz:271157.got - 2010.06.03 18:47:42.
