data_PCOD9300931
_publ_section_title
;
Structure prediction by ZEFSAII (Michael W. Deem and Ramdas Pophale) SiO2 
 PCOD9300931
Probable space group: C 2/C
;
_chemical_formula_sum "Si O2"
_cell_formula_units_Z 64
_cell_length_a 21.656947
_cell_length_b 23.823098
_cell_length_c 8.544870
_cell_angle_alpha 90.000000
_cell_angle_beta 113.238295
_cell_angle_gamma 90.000000
_cell_volume 4050.940553
_symmetry_space_group_name_H-M "C 2/C"
_symmetry_group_IT_number 15
_symmetry_cell_setting 'monoclinic'
loop_
_space_group_symop_operation_xyz
x,y,z
-x,y,1/2-z
-x,-y,-z
x,-y,1/2+z
1/2+x,1/2+y,z
1/2-x,1/2+y,1/2-z
1/2-x,1/2-y,-z
1/2+x,1/2-y,1/2+z
loop_
_atom_site_type_symbol
_atom_site_label
_atom_site_fract_x
_atom_site_fract_y
_atom_site_fract_z
Si Si1 0.146399 0.774090 0.586537
Si Si2 0.500000 0.249425 0.441093
Si Si3 0.225269 0.660286 0.664534
Si Si4 0.225269 0.339714 0.786004
Si Si5 0.363751 0.937575 0.299544
Si Si6 0.000000 0.381850 0.937855
Si Si7 0.863751 0.562425 0.427958
Si Si8 0.353601 0.274090 0.293740
O O1 0.069699 0.777120 0.564392
O O2 0.177420 0.713220 0.658648
O O3 0.199890 0.821165 0.689598
O O4 0.146008 0.775603 0.396008
O O5 0.500000 0.250749 0.250000
O O6 0.500000 0.183665 0.485555
O O7 0.430301 0.277120 0.424994
O O8 0.223937 0.655598 0.473937
O O9 0.195285 0.604328 0.706654
O O10 0.300110 0.678835 0.789818
O O11 0.195285 0.395672 0.683916
O O12 0.177420 0.286780 0.696192
O O13 0.433322 0.912283 0.435189
O O14 0.353840 1.000000 0.353840
O O15 0.367915 0.939282 0.117915
O O16 0.933322 0.412283 0.931456
O O17 0.000000 0.383384 0.750000
#
# Coordination Sequence:
#
# PCOD9300931 Si02
#       8
#     8   8   8   8   8   8   8   8
#     4   8  14  25  47  74  99 125 161 199 237 284
#     4   9  14  24  48  77  98 127 162 195 231 280
#     4   9  16  30  49  71  96 127 163 201 239 281
#     4   9  16  30  49  71  96 127 163 201 239 281
#     4  12  24  36  49  68  96 130 169 205 243 286
#     4  11  20  34  53  71  98 131 167 201 232 278
#     4  12  24  36  49  68  96 130 169 205 243 286
#     4   8  14  25  47  74  99 125 161 199 237 284
#
# _framework density 15.7988
#
# number of rings (size 3 to 8) (size 9 to 14) (size 15 to 20)
#    0.000    2.250    2.500    4.500    0.000    0.000 
#    0.000    2.500    0.000    0.000    0.000    0.875 
#    0.000    0.000    0.000    0.000    0.000    0.000 
#
# Total GULP energy -178458.608621 kJ/mol
# GULP energy per Si atom -5576.831519 kJ/mol
# Density = 1.576284 g / cm^3
# Si number density = 15.798800 Si / 1000 Ang^3
#
#
#
# Elastic Constant Matrix: (Units=GPa)
#
#
# Indices 1 2 3 4 5 6 
#
# 1 117.2872 66.0681 46.7059 0.0000 35.3877 0.0000
# 2 66.0681 97.5859 42.6967 0.0000 21.4736 0.0000
# 3 46.7059 42.6967 60.7034 0.0000 16.6016 0.0000
# 4 0.0000 0.0000 0.0000 20.4762 0.0000 -0.5236
# 5 35.3877 21.4736 16.6016 0.0000 33.2939 0.0000
# 6 0.0000 0.0000 0.0000 -0.5236 0.0000 19.9064
#
#
#
# Elastic Compliance Matrix: (Units=1/GPa)
#
#
# Indices 1 2 3 4 5 6 
#
# 1 0.018716 -0.007435 -0.005838 0.000000 -0.012187 0.000000
# 2 -0.007435 0.018526 -0.007183 0.000000 -0.000464 0.000000
# 3 -0.005838 -0.007183 0.026694 0.000000 -0.002473 0.000000
# 4 0.000000 0.000000 0.000000 0.048870 0.000000 0.001285
# 5 -0.012187 -0.000464 -0.002473 0.000000 0.044521 0.000000
# 6 0.000000 0.000000 0.000000 0.001285 0.000000 0.050269
#
#
# Mechanical properties :
#
#
# Convention : Reuss Voigt Hill
#
# Bulk Modulus (GPa) = 43.43297 65.16864 54.30080
# Shear Modulus (GPa) = 19.51736 22.74236 21.12986
#
# Velocity S-wave (km/s) = 3.51860 3.79819 3.66106
# Velocity P-wave (km/s) = 6.63765 7.78291 7.23298
#
# Compressibility (1/GPa) = 0.02302398
#
# Stress axis : x y z
#
# Youngs Moduli (GPa) = 53.43013 53.97755 37.46221
#
# Poissons Ratio (x) = 0.40135 0.21869
# Poissons Ratio (y) = 0.39728 0.26908
# Poissons Ratio (z) = 0.31191 0.38771
#
# Static dielectric constant tensor:
#      x y z
#    x 1.545110 0.000000 0.006960 
#    y 0.000000 1.499490 0.000000 
#    z 0.006960 0.000000 1.537540 
# 
# From -- ./inp_files/63435.got.cif
#   From: 2010.05.17/outbox.cif.g08.bks.cpg/sg15_32_cif.got.tgz:63435.got - 2010.06.03 18:47:42.
