data_PCOD9300625
_publ_section_title
;
Structure prediction by ZEFSAII (Michael W. Deem and Ramdas Pophale) SiO2 
 PCOD9300625
Probable space group: C 2/C
;
_chemical_formula_sum "Si O2"
_cell_formula_units_Z 48
_cell_length_a 21.425357
_cell_length_b 7.010450
_cell_length_c 18.515496
_cell_angle_alpha 90.000000
_cell_angle_beta 140.803968
_cell_angle_gamma 90.000000
_cell_volume 1757.557925
_symmetry_space_group_name_H-M "C 2/C"
_symmetry_group_IT_number 15
_symmetry_cell_setting 'monoclinic'
loop_
_space_group_symop_operation_xyz
x,y,z
-x,y,1/2-z
-x,-y,-z
x,-y,1/2+z
1/2+x,1/2+y,z
1/2-x,1/2+y,1/2-z
1/2-x,1/2-y,-z
1/2+x,1/2-y,1/2+z
loop_
_atom_site_type_symbol
_atom_site_label
_atom_site_fract_x
_atom_site_fract_y
_atom_site_fract_z
Si Si1 0.895058 0.754678 0.319070
Si Si2 0.625954 0.331305 0.514107
Si Si3 0.618261 0.292940 0.346349
Si Si4 0.236225 0.154326 0.411504
Si Si5 0.638310 0.707059 0.183368
Si Si6 0.089752 0.716721 0.010796
O O1 0.858181 0.682435 0.207735
O O2 0.873653 0.658199 0.376353
O O3 0.028404 0.708066 0.594871
O O4 0.014022 0.754730 0.419782
O O5 0.663018 0.277574 0.467086
O O6 0.675299 0.266432 0.634104
O O7 0.612172 0.562253 0.508100
O O8 0.500000 0.280817 0.250000
O O9 0.651581 0.502043 0.351331
O O10 0.250000 0.250000 0.500000
O O11 0.201301 0.268430 0.308959
O O12 0.346564 0.091885 0.486989
O O13 0.629841 0.476892 0.185661
#
# Coordination Sequence:
#
# PCOD9300625 Si02
#       6
#     8   8   8   8   8   8
#     4   7  13  23  40  55  75 109 129 159 198 236
#     4   8  12  24  40  55  76 105 132 162 196 237
#     4   9  15  25  41  64  86 101 127 165 204 244
#     4  11  19  22  36  61  88 107 125 161 212 241
#     4   8  16  26  37  54  81 110 131 158 196 241
#     4   9  15  26  37  55  85 107 132 156 201 248
#
# _framework density 27.310623
#
# number of rings (size 3 to 8) (size 9 to 14) (size 15 to 20)
#    0.000    3.333    1.667    3.000    0.000    0.000 
#    0.000    0.000    0.000    1.000    0.000   10.500 
#    0.000    0.000    0.000    0.000    0.000    0.000 
#
# Total GULP energy -134070.833289 kJ/mol
# GULP energy per Si atom -5586.284720 kJ/mol
# Density = 2.724846 g / cm^3
# Si number density = 27.310623 Si / 1000 Ang^3
#
#
#
# Elastic Constant Matrix: (Units=GPa)
#
#
# Indices 1 2 3 4 5 6 
#
# 1 220.5355 34.8835 78.5392 0.0000 -66.6301 0.0000
# 2 34.8835 84.6574 23.6198 0.0000 -15.2337 0.0000
# 3 78.5392 23.6198 172.0133 0.0000 -39.1008 0.0000
# 4 0.0000 0.0000 0.0000 18.5140 0.0000 -3.6320
# 5 -66.6301 -15.2337 -39.1008 0.0000 64.3527 0.0000
# 6 0.0000 0.0000 0.0000 -3.6320 0.0000 19.0023
#
#
#
# Elastic Compliance Matrix: (Units=1/GPa)
#
#
# Indices 1 2 3 4 5 6 
#
# 1 0.007205 -0.001395 -0.001714 0.000000 0.006088 0.000000
# 2 -0.001395 0.012824 -0.000884 0.000000 0.001054 0.000000
# 3 -0.001714 -0.000884 0.007271 0.000000 0.002434 0.000000
# 4 0.000000 0.000000 0.000000 0.056117 0.000000 0.010726
# 5 0.006088 0.001054 0.002434 0.000000 0.023571 0.000000
# 6 0.000000 0.000000 0.000000 0.010726 0.000000 0.054675
#
#
# Mechanical properties :
#
#
# Convention : Reuss Voigt Hill
#
# Bulk Modulus (GPa) = 51.78098 83.47680 67.62889
# Shear Modulus (GPa) = 28.39495 43.05137 35.72316
#
# Velocity S-wave (km/s) = 3.22794 3.97465 3.62060
# Velocity P-wave (km/s) = 5.73533 7.18998 6.50345
#
# Compressibility (1/GPa) = 0.01931211
#
# Stress axis : x y z
#
# Youngs Moduli (GPa) = 138.79305 77.98168 137.53646
#
# Poissons Ratio (x) = 0.10879 0.23577
# Poissons Ratio (y) = 0.19362 0.12163
# Poissons Ratio (z) = 0.23792 0.06896
#
# Static dielectric constant tensor:
#      x y z
#    x 2.083460 0.000000 -0.020950 
#    y 0.000000 2.248620 0.000000 
#    z -0.020950 0.000000 2.236200 
# 
# From -- ./inp_files/254716.got.cif
#   From: 2010.05.17/outbox.cif.g08.bks.cpg/sg15_128_cif.got.tgz:254716.got - 2010.06.03 18:47:42.
