data_PCOD9300552
_publ_section_title
;
Structure prediction by ZEFSAII (Michael W. Deem and Ramdas Pophale) SiO2 
 PCOD9300552
Probable space group: C 2/C
;
_chemical_formula_sum "Si O2"
_cell_formula_units_Z 56
_cell_length_a 14.835472
_cell_length_b 16.842723
_cell_length_c 15.336215
_cell_angle_alpha 90.000000
_cell_angle_beta 127.767706
_cell_angle_gamma 90.000000
_cell_volume 3029.241695
_symmetry_space_group_name_H-M "C 2/C"
_symmetry_group_IT_number 15
_symmetry_cell_setting 'monoclinic'
loop_
_space_group_symop_operation_xyz
x,y,z
-x,y,1/2-z
-x,-y,-z
x,-y,1/2+z
1/2+x,1/2+y,z
1/2-x,1/2+y,1/2-z
1/2-x,1/2-y,-z
1/2+x,1/2-y,1/2+z
loop_
_atom_site_type_symbol
_atom_site_label
_atom_site_fract_x
_atom_site_fract_y
_atom_site_fract_z
Si Si1 0.721198 0.718942 0.707701
Si Si2 0.022857 0.132739 0.489037
Si Si3 0.519586 0.214128 0.658563
Si Si4 0.126630 0.282867 0.834872
Si Si5 0.601035 0.538064 0.379542
Si Si6 0.838654 0.869401 0.027872
Si Si7 0.213408 0.674414 0.038820
O O1 0.631046 0.657643 0.612521
O O2 0.851014 0.687398 0.782701
O O3 0.680312 0.748622 0.777441
O O4 0.720492 0.793679 0.641185
O O5 0.998551 0.205381 0.407678
O O6 0.915495 0.122866 0.487544
O O7 0.050774 0.058654 0.444824
O O8 0.500000 0.228466 0.750000
O O9 0.417145 0.157617 0.565400
O O10 0.118144 0.207491 0.894162
O O11 0.000000 0.315215 0.750000
O O12 0.210913 0.347715 0.924810
O O13 0.500000 0.546953 0.250000
O O14 0.647915 0.448824 0.408342
O O15 0.700651 0.602271 0.423371
O O16 0.250000 0.750000 0.000000
#
# Coordination Sequence:
#
# PCOD9300552 Si02
#       7
#     8   8   8   8   8   8   8
#     4  11  20  35  65  91 121 161 211 252 309 366
#     4  11  20  36  60  95 123 155 211 252 307 374
#     4  11  18  33  59  94 122 158 198 251 307 366
#     4  11  23  43  66  87 122 169 220 259 305 365
#     4  12  24  40  62  93 136 161 201 263 319 372
#     4  11  25  40  63  93 123 166 217 260 305 371
#     4  11  21  34  59  92 122 160 204 247 309 379
#
# _framework density 18.486474000000001
#
# number of rings (size 3 to 8) (size 9 to 14) (size 15 to 20)
#    0.000    0.857    7.143    2.143    0.000    0.000 
#    0.000    2.143    0.000    1.714    0.000    0.000 
#    0.000    0.000    0.000    0.000    0.000    0.000 
#
# Total GULP energy -156420.991736 kJ/mol
# GULP energy per Si atom -5586.463991 kJ/mol
# Density = 1.844440 g / cm^3
# Si number density = 18.486474 Si / 1000 Ang^3
#
#
#
# Elastic Constant Matrix: (Units=GPa)
#
#
# Indices 1 2 3 4 5 6 
#
# 1 71.9891 19.9714 22.5927 0.0000 14.6545 0.0000
# 2 19.9714 74.1349 31.3630 0.0000 21.4198 0.0000
# 3 22.5927 31.3630 97.5264 0.0000 28.4929 0.0000
# 4 0.0000 0.0000 0.0000 12.7113 0.0000 -1.3097
# 5 14.6545 21.4198 28.4929 0.0000 47.7756 0.0000
# 6 0.0000 0.0000 0.0000 -1.3097 0.0000 10.9170
#
#
#
# Elastic Compliance Matrix: (Units=1/GPa)
#
#
# Indices 1 2 3 4 5 6 
#
# 1 0.015777 -0.002672 -0.002097 0.000000 -0.002391 0.000000
# 2 -0.002672 0.017053 -0.003476 0.000000 -0.004752 0.000000
# 3 -0.002097 -0.003476 0.013580 0.000000 -0.005897 0.000000
# 4 0.000000 0.000000 0.000000 0.079655 0.000000 0.009556
# 5 -0.002391 -0.004752 -0.005897 0.000000 0.027312 0.000000
# 6 0.000000 0.000000 0.000000 0.009556 0.000000 0.092747
#
#
# Mechanical properties :
#
#
# Convention : Reuss Voigt Hill
#
# Bulk Modulus (GPa) = 33.42406 43.50050 38.46228
# Shear Modulus (GPa) = 18.34266 25.59567 21.96916
#
# Velocity S-wave (km/s) = 3.15337 3.72501 3.45104
# Velocity P-wave (km/s) = 5.60159 6.48714 6.06056
#
# Compressibility (1/GPa) = 0.02991857
#
# Stress axis : x y z
#
# Youngs Moduli (GPa) = 63.38287 58.64195 73.63594
#
# Poissons Ratio (x) = 0.15671 0.15442
# Poissons Ratio (y) = 0.16938 0.25598
# Poissons Ratio (z) = 0.13292 0.20386
#
# Static dielectric constant tensor:
#      x y z
#    x 1.655580 0.000000 0.012530 
#    y 0.000000 1.613300 0.000000 
#    z 0.012530 0.000000 1.660840 
# 
# From -- ./inp_files/155250.got.cif
#   From: 2010.05.17/outbox.cif.g08.bks.cpg/sg15_78_cif.got.tgz:155250.got - 2010.06.03 18:47:42.
