data_PCOD9300024
_publ_section_title
;
Structure prediction by ZEFSAII (Michael W. Deem and Ramdas Pophale) SiO2 
 PCOD9300024
Probable space group: C 2/C
;
_chemical_formula_sum "Si O2"
_cell_formula_units_Z 36
_cell_length_a 18.003074
_cell_length_b 18.431942
_cell_length_c 10.626848
_cell_angle_alpha 90.000000
_cell_angle_beta 151.890618
_cell_angle_gamma 90.000000
_cell_volume 1661.449907
_symmetry_space_group_name_H-M "C 2/C"
_symmetry_group_IT_number 15
_symmetry_cell_setting 'monoclinic'
loop_
_space_group_symop_operation_xyz
x,y,z
-x,y,1/2-z
-x,-y,-z
x,-y,1/2+z
1/2+x,1/2+y,z
1/2-x,1/2+y,1/2-z
1/2-x,1/2-y,-z
1/2+x,1/2-y,1/2+z
loop_
_atom_site_type_symbol
_atom_site_label
_atom_site_fract_x
_atom_site_fract_y
_atom_site_fract_z
Si Si1 0.500000 0.488487 0.750000
Si Si2 0.273953 0.128135 0.341743
Si Si3 0.500000 0.245138 0.750000
Si Si4 0.500000 0.999142 0.750000
Si Si5 0.284777 0.907138 0.587197
Si Si6 0.562922 0.366730 0.047587
O O1 0.353463 0.536174 0.579761
O O2 0.561268 0.436196 0.952916
O O3 0.353496 0.190249 0.545131
O O4 0.356647 0.052147 0.499471
O O5 0.089857 0.125896 0.092341
O O6 0.310658 0.140515 0.249719
O O7 0.537750 0.297077 0.922819
O O8 0.439326 0.949843 0.773556
O O9 0.215938 0.865555 0.363646
#
# Coordination Sequence:
#
# PCOD9300024 Si02
#       6
#     4   8   4   4   8   8
#     4  11  20  37  68  93 124 159 204 246 318 379
#     4  11  22  42  64  92 128 165 206 259 307 369
#     4  10  26  42  62  88 124 170 216 254 306 360
#     4  11  24  39  62 101 134 153 200 258 322 371
#     4  12  22  40  66  97 125 162 205 259 316 369
#     4  11  22  41  66  91 125 169 209 253 303 379
#
# _framework density 21.667822000000001
#
# number of rings (size 3 to 8) (size 9 to 14) (size 15 to 20)
#    0.000    0.889    4.444    3.333    0.000    0.889 
#    8.000    0.000    0.000    0.000    0.000    0.000 
#    0.000    0.000    0.000    0.000    0.000    0.000 
#
# Total GULP energy -100702.980828 kJ/mol
# GULP energy per Si atom -5594.610046 kJ/mol
# Density = 2.161851 g / cm^3
# Si number density = 21.667822 Si / 1000 Ang^3
#
#
#
# Elastic Constant Matrix: (Units=GPa)
#
#
# Indices 1 2 3 4 5 6 
#
# 1 76.3128 26.6219 -11.4521 0.0000 -3.5166 0.0000
# 2 26.6219 79.8233 24.4199 0.0000 -4.1031 0.0000
# 3 -11.4521 24.4199 40.5122 0.0000 -17.6121 0.0000
# 4 0.0000 0.0000 0.0000 -3.5553 0.0000 -12.8312
# 5 -3.5166 -4.1031 -17.6121 0.0000 46.9657 0.0000
# 6 0.0000 0.0000 0.0000 -12.8312 0.0000 8.5709
#
#
#
# Elastic Compliance Matrix: (Units=1/GPa)
#
#
# Indices 1 2 3 4 5 6 
#
# 1 0.019164 -0.010456 0.014274 0.000000 0.005874 0.000000
# 2 -0.010456 0.021324 -0.018328 0.000000 -0.005793 0.000000
# 3 0.014274 -0.018328 0.047236 0.000000 0.017181 0.000000
# 4 0.000000 0.000000 0.000000 -0.043928 0.000000 -0.065763
# 5 0.005874 -0.005793 0.017181 0.000000 0.027669 0.000000
# 6 0.000000 0.000000 0.000000 -0.065763 0.000000 0.018222
#
#
# Mechanical properties :
#
#
# Convention : Reuss Voigt Hill
#
# Bulk Modulus (GPa) = 17.03463 30.64752 23.84108
# Shear Modulus (GPa) = 36.15969 20.86684 28.51327
#
# Velocity S-wave (km/s) = 4.08955 3.10664 3.63151
# Velocity P-wave (km/s) = 5.49345 5.20032 5.34889
#
# Compressibility (1/GPa) = 0.05870393
#
# Stress axis : x y z
#
# Youngs Moduli (GPa) = 52.17992 46.89512 21.17033
#
# Poissons Ratio (x) = 0.49035 -0.30219
# Poissons Ratio (y) = 0.54561 0.38801
# Poissons Ratio (z) = -0.74482 0.85949
#
# Static dielectric constant tensor:
#      x y z
#    x 1.771940 0.000000 -0.042010 
#    y 0.000000 1.772280 0.000000 
#    z -0.042010 0.000000 1.781050 
# 
# From -- ./inp_files/29459.got.cif
#   From: 2010.05.17/outbox.cif.g08.bks.cpg/sg15_15_cif.got.tgz:29459.got - 2010.06.03 18:47:42.
