data_PCOD9300711
_publ_section_title
;
Structure prediction by ZEFSAII (Michael W. Deem and Ramdas Pophale) SiO2 
 PCOD9300711
Probable space group: C 2/C
;
_chemical_formula_sum "Si O2"
_cell_formula_units_Z 56
_cell_length_a 13.914976
_cell_length_b 10.039430
_cell_length_c 23.700802
_cell_angle_alpha 90.000000
_cell_angle_beta 126.116643
_cell_angle_gamma 90.000000
_cell_volume 2674.659266
_symmetry_space_group_name_H-M "C 2/C"
_symmetry_group_IT_number 15
_symmetry_cell_setting 'monoclinic'
loop_
_space_group_symop_operation_xyz
x,y,z
-x,y,1/2-z
-x,-y,-z
x,-y,1/2+z
1/2+x,1/2+y,z
1/2-x,1/2+y,1/2-z
1/2-x,1/2-y,-z
1/2+x,1/2-y,1/2+z
loop_
_atom_site_type_symbol
_atom_site_label
_atom_site_fract_x
_atom_site_fract_y
_atom_site_fract_z
Si Si1 0.689509 0.960892 0.660541
Si Si2 0.582037 0.430523 0.125149
Si Si3 0.598148 0.741758 0.246115
Si Si4 0.660674 0.780401 0.555905
Si Si5 0.424366 0.680936 0.091208
Si Si6 0.339134 0.968148 0.727568
Si Si7 0.613453 0.675263 0.759106
O O1 0.782809 0.842155 0.708492
O O2 0.632529 0.911802 0.583107
O O3 0.615260 0.970374 0.691909
O O4 0.768637 0.093313 0.685186
O O5 0.613240 0.340925 0.080634
O O6 0.466675 0.528291 0.090056
O O7 0.697088 0.524161 0.173356
O O8 0.588212 0.339474 0.183576
O O9 0.500000 0.671745 0.250000
O O10 0.534830 0.741361 0.164013
O O11 0.621451 0.887560 0.280026
O O12 0.596749 0.757690 0.474452
O O13 0.801891 0.798923 0.585963
O O14 0.374969 0.826763 0.716337
O O15 0.500000 0.614985 0.750000
#
# Coordination Sequence:
#
# PCOD9300711 Si02
#       7
#     8   8   8   8   8   8   8
#     4  11  19  36  59  82 118 151 200 255 301 362
#     4  11  21  39  61  89 124 165 207 269 318 387
#     4  12  20  37  61  89 116 154 207 260 306 372
#     4  11  22  40  58  94 125 164 213 268 315 392
#     4  11  23  36  65  90 123 167 215 258 328 390
#     4  11  21  34  59  88 122 151 200 259 318 371
#     4  11  21  33  58  92 119 154 204 258 322 376
#
# _framework density 20.937248
#
# number of rings (size 3 to 8) (size 9 to 14) (size 15 to 20)
#    0.000    0.857    7.143    3.000    0.000    0.000 
#    0.000    0.714    0.000    0.000    0.000    8.000 
#    0.000    0.000    0.000    0.000    0.000    0.000 
#
# Total GULP energy -155903.065292 kJ/mol
# GULP energy per Si atom -5567.966618 kJ/mol
# Density = 2.088959 g / cm^3
# Si number density = 20.937248 Si / 1000 Ang^3
#
#
#
# Elastic Constant Matrix: (Units=GPa)
#
#
# Indices 1 2 3 4 5 6 
#
# 1 72.6597 20.5931 8.1476 0.0000 -6.6064 0.0000
# 2 20.5931 127.9639 2.4841 0.0000 3.6471 0.0000
# 3 8.1476 2.4841 75.8914 0.0000 -18.0269 0.0000
# 4 0.0000 0.0000 0.0000 16.4982 0.0000 -12.1797
# 5 -6.6064 3.6471 -18.0269 0.0000 28.9272 0.0000
# 6 0.0000 0.0000 0.0000 -12.1797 0.0000 -30.5248
#
#
#
# Elastic Compliance Matrix: (Units=1/GPa)
#
#
# Indices 1 2 3 4 5 6 
#
# 1 0.014839 -0.002466 -0.000744 0.000000 0.003237 0.000000
# 2 -0.002466 0.008274 -0.000455 0.000000 -0.001890 0.000000
# 3 -0.000744 -0.000455 0.015546 0.000000 0.009576 0.000000
# 4 0.000000 0.000000 0.000000 0.046821 0.000000 -0.018682
# 5 0.003237 -0.001890 0.009576 0.000000 0.041514 0.000000
# 6 0.000000 0.000000 0.000000 -0.018682 0.000000 -0.025306
#
#
# Mechanical properties :
#
#
# Convention : Reuss Voigt Hill
#
# Bulk Modulus (GPa) = 31.91784 37.66274 34.79029
# Shear Modulus (GPa) = 41.85456 19.33279 30.59367
#
# Velocity S-wave (km/s) = 4.47592 3.04199 3.82672
# Velocity P-wave (km/s) = 6.47993 5.51051 6.01478
#
# Compressibility (1/GPa) = 0.03133044
#
# Stress axis : x y z
#
# Youngs Moduli (GPa) = 67.38853 120.85712 64.32535
#
# Poissons Ratio (x) = 0.29802 0.04783
# Poissons Ratio (y) = 0.16617 0.02927
# Poissons Ratio (z) = 0.05011 0.05499
#
# Static dielectric constant tensor:
#      x y z
#    x 1.854880 0.000000 -0.030720 
#    y 0.000000 1.803710 0.000000 
#    z -0.030720 0.000000 1.778000 
# 
# From -- ./inp_files/273257.got.cif
#   From: 2010.05.17/outbox.cif.g08.bks.cpg/sg15_137_cif.got.tgz:273257.got - 2010.06.03 18:47:42.
