data_PCOD9300687
_publ_section_title
;
Structure prediction by ZEFSAII (Michael W. Deem and Ramdas Pophale) SiO2 
 PCOD9300687
Probable space group: C 2/C
;
_chemical_formula_sum "Si O2"
_cell_formula_units_Z 60
_cell_length_a 16.426400
_cell_length_b 18.215055
_cell_length_c 16.573188
_cell_angle_alpha 90.000000
_cell_angle_beta 146.929717
_cell_angle_gamma 90.000000
_cell_volume 2705.870100
_symmetry_space_group_name_H-M "C 2/C"
_symmetry_group_IT_number 15
_symmetry_cell_setting 'monoclinic'
loop_
_space_group_symop_operation_xyz
x,y,z
-x,y,1/2-z
-x,-y,-z
x,-y,1/2+z
1/2+x,1/2+y,z
1/2-x,1/2+y,1/2-z
1/2-x,1/2-y,-z
1/2+x,1/2-y,1/2+z
loop_
_atom_site_type_symbol
_atom_site_label
_atom_site_fract_x
_atom_site_fract_y
_atom_site_fract_z
Si Si1 0.514633 0.578165 0.641469
Si Si2 0.000000 0.954511 0.750000
Si Si3 0.279702 0.160254 0.937865
Si Si4 0.670434 0.648487 0.288005
Si Si5 0.711022 0.169305 0.379931
Si Si6 0.410940 0.643490 0.951907
Si Si7 0.562999 0.187193 0.085529
Si Si8 0.338946 0.797615 0.142763
O O1 0.464379 0.503598 0.642265
O O2 0.640706 0.608734 0.806361
O O3 0.374284 0.632288 0.515712
O O4 0.596827 0.581729 0.623414
O O5 0.865892 0.901946 0.666220
O O6 0.219921 0.242833 0.893605
O O7 0.352291 0.143789 0.085514
O O8 0.393788 0.162844 0.958023
O O9 0.842292 0.650137 0.406401
O O10 0.619229 0.731684 0.261681
O O11 0.563174 0.627006 0.125901
O O12 0.637305 0.161199 0.231440
O O13 0.423446 0.724816 0.919286
O O14 0.275889 0.651036 0.903770
O O15 0.500000 0.829148 0.250000
O O16 0.250000 0.750000 0.000000
#
# Coordination Sequence:
#
# PCOD9300687 Si02
#       8
#     8   4   8   8   8   8   8   8
#     4  12  23  39  62  95 128 175 218 261 313 395
#     4  12  26  46  62  86 130 190 232 248 294 408
#     4  11  20  33  58  96 133 163 206 269 333 382
#     4  11  23  42  64  93 128 176 216 261 319 386
#     4  11  19  35  58  94 136 164 203 263 336 395
#     4  11  22  37  64  99 129 154 215 272 333 377
#     4  11  21  35  64  98 131 156 206 283 345 378
#     4  11  21  38  66  99 129 159 203 274 338 381
#
# _framework density 22.174014
#
# number of rings (size 3 to 8) (size 9 to 14) (size 15 to 20)
#    0.000    0.800    7.333    0.400    1.867    2.667 
#    0.000    0.667    0.000    0.000    0.000    0.000 
#    0.000    0.000    0.000    0.000    0.000    0.000 
#
# Total GULP energy -167411.644036 kJ/mol
# GULP energy per Si atom -5580.388135 kJ/mol
# Density = 2.212354 g / cm^3
# Si number density = 22.174014 Si / 1000 Ang^3
#
#
#
# Elastic Constant Matrix: (Units=GPa)
#
#
# Indices 1 2 3 4 5 6 
#
# 1 167.3238 36.9065 12.8348 0.0003 21.5611 -0.0006
# 2 36.9065 48.9478 5.9622 -0.0001 -0.5984 0.0002
# 3 12.8348 5.9622 50.5199 0.0004 -4.0166 0.0002
# 4 0.0003 -0.0001 0.0004 -1.4978 0.0001 5.6929
# 5 21.5611 -0.5984 -4.0166 0.0001 37.9068 -0.0001
# 6 -0.0006 0.0002 0.0002 5.6929 -0.0001 23.0613
#
#
#
# Elastic Compliance Matrix: (Units=1/GPa)
#
#
# Indices 1 2 3 4 5 6 
#
# 1 0.008037 -0.005908 -0.001730 0.000001 -0.004848 0.000000
# 2 -0.005908 0.025072 -0.001169 -0.000002 0.003633 0.000000
# 3 -0.001730 -0.001169 0.020622 0.000002 0.003151 -0.000001
# 4 0.000001 -0.000002 0.000002 -0.344451 0.000001 0.085031
# 5 -0.004848 0.003633 0.003151 0.000001 0.029529 0.000000
# 6 0.000000 0.000000 -0.000001 0.085031 0.000000 0.022372
#
#
# Mechanical properties :
#
#
# Convention : Reuss Voigt Hill
#
# Bulk Modulus (GPa) = 27.68855 42.02204 34.85529
# Shear Modulus (GPa) = -23.90454 25.96660 1.03103
#
# Velocity S-wave (km/s) = -3.28692 3.42576 0.68263
# Velocity P-wave (km/s) = 1.37516 5.88557 4.04653
#
# Compressibility (1/GPa) = 0.03611601
#
# Stress axis : x y z
#
# Youngs Moduli (GPa) = 124.42341 39.88556 48.49153
#
# Poissons Ratio (x) = 0.23566 0.08389
# Poissons Ratio (y) = 0.73515 0.05669
# Poissons Ratio (z) = 0.21525 0.04663
#
# Static dielectric constant tensor:
#      x y z
#    x 2.029800 0.000000 -0.003910 
#    y 0.000000 1.798800 0.000000 
#    z -0.003910 0.000000 1.887580 
# 
# From -- ./inp_files/211778.got.cif
#   From: 2010.05.17/outbox.cif.g08.bks.cpg/sg15_106_cif.got.tgz:211778.got - 2010.06.03 18:47:42.
