data_PCOD9300604
_publ_section_title
;
Structure prediction by ZEFSAII (Michael W. Deem and Ramdas Pophale) SiO2 
 PCOD9300604
Probable space group: C 2/C
;
_chemical_formula_sum "Si O2"
_cell_formula_units_Z 40
_cell_length_a 9.445813
_cell_length_b 13.075566
_cell_length_c 18.396960
_cell_angle_alpha 90.000000
_cell_angle_beta 137.272438
_cell_angle_gamma 90.000000
_cell_volume 1541.715202
_symmetry_space_group_name_H-M "C 2/C"
_symmetry_group_IT_number 15
_symmetry_cell_setting 'monoclinic'
loop_
_space_group_symop_operation_xyz
x,y,z
-x,y,1/2-z
-x,-y,-z
x,-y,1/2+z
1/2+x,1/2+y,z
1/2-x,1/2+y,1/2-z
1/2-x,1/2-y,-z
1/2+x,1/2-y,1/2+z
loop_
_atom_site_type_symbol
_atom_site_label
_atom_site_fract_x
_atom_site_fract_y
_atom_site_fract_z
Si Si1 0.091675 0.421617 0.364129
Si Si2 0.577522 0.810680 0.705876
Si Si3 0.175414 0.255844 0.598462
Si Si4 0.170956 0.898664 0.480843
Si Si5 0.316374 0.871721 0.378655
O O1 0.313227 0.285426 0.212572
O O2 0.279375 0.494612 0.460787
O O3 0.907798 0.446518 0.352361
O O4 0.000000 0.433962 0.250000
O O5 0.500000 0.868927 0.750000
O O6 0.728230 0.819613 0.691606
O O7 0.356931 0.823875 0.579878
O O8 0.542788 0.657504 0.579412
O O9 0.345830 0.198294 0.614569
O O10 0.023451 0.322463 0.492045
O O11 0.192627 0.913035 0.402017
#
# Coordination Sequence:
#
# PCOD9300604 Si02
#       5
#     8   8   8   8   8
#     4  12  25  39  58  93 130 152 191 259 311 342
#     4  11  18  38  66  90 111 158 212 238 282 354
#     4  11  22  39  65  88 117 164 202 242 294 364
#     4  11  23  39  65  90 118 160 205 246 291 359
#     4  11  22  41  65  85 124 161 198 244 297 363
#
# _framework density 25.945129000000001
#
# number of rings (size 3 to 8) (size 9 to 14) (size 15 to 20)
#    0.000    0.800    6.000    3.600    0.000    0.000 
#    0.000    0.000    0.000    0.000    0.000    0.000 
#    0.000    0.000    0.000    0.000    0.000    0.000 
#
# Total GULP energy -111384.019801 kJ/mol
# GULP energy per Si atom -5569.200990 kJ/mol
# Density = 2.588608 g / cm^3
# Si number density = 25.945129 Si / 1000 Ang^3
#
#
#
# Elastic Constant Matrix: (Units=GPa)
#
#
# Indices 1 2 3 4 5 6 
#
# 1 73.5447 -1.2632 17.6343 0.0000 -31.9824 0.0000
# 2 -1.2632 54.5237 8.9867 0.0000 0.0999 0.0000
# 3 17.6343 8.9867 165.7650 0.0000 -45.3286 0.0000
# 4 0.0000 0.0000 0.0000 5.6398 0.0000 20.2949
# 5 -31.9824 0.0999 -45.3286 0.0000 51.4041 0.0000
# 6 0.0000 0.0000 0.0000 20.2949 0.0000 12.5993
#
#
#
# Elastic Compliance Matrix: (Units=1/GPa)
#
#
# Indices 1 2 3 4 5 6 
#
# 1 0.018956 0.000154 0.001581 0.000000 0.013188 0.000000
# 2 0.000154 0.018565 -0.001326 0.000000 -0.001110 0.000000
# 3 0.001581 -0.001326 0.008178 0.000000 0.008198 0.000000
# 4 0.000000 0.000000 0.000000 -0.036967 0.000000 0.059546
# 5 0.013188 -0.001110 0.008198 0.000000 0.034890 0.000000
# 6 0.000000 0.000000 0.000000 0.059546 0.000000 -0.016548
#
#
# Mechanical properties :
#
#
# Convention : Reuss Voigt Hill
#
# Bulk Modulus (GPa) = 21.49733 38.28324 29.89028
# Shear Modulus (GPa) = 119.72879 31.82703 75.77791
#
# Velocity S-wave (km/s) = 6.80052 3.50623 5.41021
# Velocity P-wave (km/s) = 8.36460 5.58382 7.11145
#
# Compressibility (1/GPa) = 0.04651741
#
# Stress axis : x y z
#
# Youngs Moduli (GPa) = 52.75451 53.86524 122.27862
#
# Poissons Ratio (x) = -0.00831 -0.19337
# Poissons Ratio (y) = -0.00814 0.16218
# Poissons Ratio (z) = -0.08342 0.07144
#
# Static dielectric constant tensor:
#      x y z
#    x 2.172300 0.000000 -0.094420 
#    y 0.000000 2.130590 0.000000 
#    z -0.094420 0.000000 2.051850 
# 
# From -- ./inp_files/143069.got.cif
#   From: 2010.05.17/outbox.cif.g08.bks.cpg/sg15_72_cif.got.tgz:143069.got - 2010.06.03 18:47:42.
