data_PCOD9300594
_publ_section_title
;
Structure prediction by ZEFSAII (Michael W. Deem and Ramdas Pophale) SiO2 
 PCOD9300594
Probable space group: C 2/C
;
_chemical_formula_sum "Si O2"
_cell_formula_units_Z 52
_cell_length_a 7.275894
_cell_length_b 31.545910
_cell_length_c 10.826876
_cell_angle_alpha 90.000000
_cell_angle_beta 115.092994
_cell_angle_gamma 90.000000
_cell_volume 2250.499438
_symmetry_space_group_name_H-M "C 2/C"
_symmetry_group_IT_number 15
_symmetry_cell_setting 'monoclinic'
loop_
_space_group_symop_operation_xyz
x,y,z
-x,y,1/2-z
-x,-y,-z
x,-y,1/2+z
1/2+x,1/2+y,z
1/2-x,1/2+y,1/2-z
1/2-x,1/2-y,-z
1/2+x,1/2-y,1/2+z
loop_
_atom_site_type_symbol
_atom_site_label
_atom_site_fract_x
_atom_site_fract_y
_atom_site_fract_z
Si Si1 0.631965 0.006873 0.660216
Si Si2 0.000000 0.942423 0.750000
Si Si3 0.619291 0.324074 0.155313
Si Si4 0.943984 0.644466 0.412707
Si Si5 0.518454 0.236573 0.401143
Si Si6 0.881502 0.597543 0.828897
Si Si7 0.353490 0.372181 0.878573
O O1 0.500000 0.998736 0.750000
O O2 0.731899 0.054444 0.666872
O O3 0.500000 0.000000 0.500000
O O4 0.804717 0.971792 0.700104
O O5 0.971138 0.913450 0.864866
O O6 0.500000 0.317235 0.250000
O O7 0.641477 0.274700 0.121891
O O8 0.771984 0.360400 0.246296
O O9 0.494598 0.344350 0.006909
O O10 0.982874 0.692853 0.462330
O O11 0.949480 0.613366 0.528076
O O12 0.142342 0.626494 0.396176
O O13 0.739511 0.645455 0.275958
O O14 0.500000 0.224611 0.250000
O O15 0.750000 0.250000 0.500000
O O16 0.000000 0.578941 0.750000
#
# Coordination Sequence:
#
# PCOD9300594 Si02
#       7
#     8   4   8   8   8   8   8
#     4  11  29  52  76 112 150 195 247 314 383 452
#     4  12  30  46  78 106 146 186 254 306 372 460
#     4  11  22  39  68 103 136 186 242 290 349 432
#     4  11  21  43  70  99 143 193 235 296 358 433
#     4  11  18  36  65 106 135 183 247 286 350 433
#     4  11  26  46  69  99 145 185 238 299 371 429
#     4  11  24  40  68 104 136 187 237 293 360 432
#
# _framework density 23.105981
#
# number of rings (size 3 to 8) (size 9 to 14) (size 15 to 20)
#    0.000    0.923    4.615    1.846   11.846    0.615 
#    0.000    0.769    3.385    0.000    0.000    0.000 
#    0.000    0.000    0.000    0.000    0.000    0.000 
#
# Total GULP energy -144753.327542 kJ/mol
# GULP energy per Si atom -5567.435675 kJ/mol
# Density = 2.305339 g / cm^3
# Si number density = 23.105981 Si / 1000 Ang^3
#
#
#
# Elastic Constant Matrix: (Units=GPa)
#
#
# Indices 1 2 3 4 5 6 
#
# 1 67.2844 48.6709 21.5719 0.0000 7.1661 0.0000
# 2 48.6709 161.9075 40.1192 0.0000 1.5419 0.0000
# 3 21.5719 40.1192 125.2268 0.0000 0.1635 0.0000
# 4 0.0000 0.0000 0.0000 43.3849 0.0000 -1.4220
# 5 7.1661 1.5419 0.1635 0.0000 23.7865 0.0000
# 6 0.0000 0.0000 0.0000 -1.4220 0.0000 -18.0661
#
#
#
# Elastic Compliance Matrix: (Units=1/GPa)
#
#
# Indices 1 2 3 4 5 6 
#
# 1 0.020013 -0.005550 -0.001662 0.000000 -0.005658 0.000000
# 2 -0.005550 0.008252 -0.001689 0.000000 0.001149 0.000000
# 3 -0.001662 -0.001689 0.008812 0.000000 0.000550 0.000000
# 4 0.000000 0.000000 0.000000 0.022990 0.000000 -0.001810
# 5 -0.005658 0.001149 0.000550 0.000000 0.043667 0.000000
# 6 0.000000 0.000000 0.000000 -0.001810 0.000000 -0.055210
#
#
# Mechanical properties :
#
#
# Convention : Reuss Voigt Hill
#
# Bulk Modulus (GPa) = 51.88209 63.90472 57.89341
# Shear Modulus (GPa) = 68.72635 26.09152 47.40893
#
# Velocity S-wave (km/s) = 5.45972 3.36402 4.53460
# Velocity P-wave (km/s) = 7.88970 6.54264 7.24753
#
# Compressibility (1/GPa) = 0.01927447
#
# Stress axis : x y z
#
# Youngs Moduli (GPa) = 49.96866 121.17586 113.47829
#
# Poissons Ratio (x) = 0.67256 0.18859
# Poissons Ratio (y) = 0.27734 0.19169
# Poissons Ratio (z) = 0.08304 0.20470
#
# Static dielectric constant tensor:
#      x y z
#    x 1.921790 0.000000 -0.051830 
#    y 0.000000 1.966640 0.000000 
#    z -0.051830 0.000000 1.823550 
# 
# From -- ./inp_files/82326.got.cif
#   From: 2010.05.17/outbox.cif.g08.bks.cpg/sg15_42_cif.got.tgz:82326.got - 2010.06.03 18:47:42.
