data_PCOD9300034
_publ_section_title
;
Structure prediction by ZEFSAII (Michael W. Deem and Ramdas Pophale) SiO2 
 PCOD9300034
Probable space group: C 2/C
;
_chemical_formula_sum "Si O2"
_cell_formula_units_Z 36
_cell_length_a 9.392957
_cell_length_b 8.204410
_cell_length_c 22.797158
_cell_angle_alpha 90.000000
_cell_angle_beta 66.665059
_cell_angle_gamma 90.000000
_cell_volume 1613.132528
_symmetry_space_group_name_H-M "C 2/C"
_symmetry_group_IT_number 15
_symmetry_cell_setting 'monoclinic'
loop_
_space_group_symop_operation_xyz
x,y,z
-x,y,1/2-z
-x,-y,-z
x,-y,1/2+z
1/2+x,1/2+y,z
1/2-x,1/2+y,1/2-z
1/2-x,1/2-y,-z
1/2+x,1/2-y,1/2+z
loop_
_atom_site_type_symbol
_atom_site_label
_atom_site_fract_x
_atom_site_fract_y
_atom_site_fract_z
Si Si1 0.776126 0.063149 0.639571
Si Si2 0.813663 0.424806 0.968947
Si Si3 0.500000 0.909319 0.750000
Si Si4 0.959157 0.090823 0.819428
Si Si5 0.315283 0.078046 0.089448
O O1 0.758446 0.250976 0.624149
O O2 0.940392 0.027794 0.643162
O O3 0.757436 0.967337 0.582034
O O4 0.647551 0.014346 0.708643
O O5 0.000124 0.426664 0.933440
O O6 0.750000 0.250000 0.000000
O O7 0.778021 0.552010 0.026861
O O8 0.512943 0.778289 0.800890
O O9 0.000000 0.011520 0.750000
O O10 0.779052 0.064041 0.861675
#
# Coordination Sequence:
#
# PCOD9300034 Si02
#       5
#     8   8   4   8   8
#     4  12  25  43  73 101 136 186 231 282 348 411
#     4  11  26  48  72 103 143 180 232 292 350 410
#     4  10  26  42  68 100 144 182 230 282 346 412
#     4  10  27  44  68 100 143 180 229 284 344 414
#     4  11  25  45  71 106 138 180 236 284 349 411
#
# _framework density 22.316828000000001
#
# number of rings (size 3 to 8) (size 9 to 14) (size 15 to 20)
#    0.667    0.444    0.000    4.667    7.778    8.889 
#    0.000    0.000    0.000    0.000    0.000    0.000 
#    0.000    0.000    0.000    0.000    0.000    0.000 
#
# Total GULP energy -100576.648933 kJ/mol
# GULP energy per Si atom -5587.591607 kJ/mol
# Density = 2.226603 g / cm^3
# Si number density = 22.316828 Si / 1000 Ang^3
#
#
#
# Elastic Constant Matrix: (Units=GPa)
#
#
# Indices 1 2 3 4 5 6 
#
# 1 122.7595 44.6434 69.6498 0.0000 1.4794 0.0000
# 2 44.6434 91.3726 57.6249 0.0000 -2.2271 0.0000
# 3 69.6498 57.6249 134.2934 0.0000 -9.0601 0.0000
# 4 0.0000 0.0000 0.0000 63.0753 0.0000 -7.3631
# 5 1.4794 -2.2271 -9.0601 0.0000 50.7227 0.0000
# 6 0.0000 0.0000 0.0000 -7.3631 0.0000 16.3150
#
#
#
# Elastic Compliance Matrix: (Units=1/GPa)
#
#
# Indices 1 2 3 4 5 6 
#
# 1 0.012093 -0.002643 -0.005232 0.000000 -0.001403 0.000000
# 2 -0.002643 0.015595 -0.005334 0.000000 -0.000191 0.000000
# 3 -0.005232 -0.005334 0.012595 0.000000 0.002168 0.000000
# 4 0.000000 0.000000 0.000000 0.016736 0.000000 0.007553
# 5 -0.001403 -0.000191 0.002168 0.000000 0.020135 0.000000
# 6 0.000000 0.000000 0.000000 0.007553 0.000000 0.064702
#
#
# Mechanical properties :
#
#
# Convention : Reuss Voigt Hill
#
# Bulk Modulus (GPa) = 72.12695 76.91797 74.52246
# Shear Modulus (GPa) = 28.91940 37.78977 33.35458
#
# Velocity S-wave (km/s) = 3.60371 4.11947 3.87019
# Velocity P-wave (km/s) = 7.05020 7.56095 7.31003
#
# Compressibility (1/GPa) = 0.01386444
#
# Stress axis : x y z
#
# Youngs Moduli (GPa) = 82.69461 64.12490 79.39548
#
# Poissons Ratio (x) = 0.16946 0.41543
# Poissons Ratio (y) = 0.21853 0.42349
# Poissons Ratio (z) = 0.43270 0.34204
#
# Static dielectric constant tensor:
#      x y z
#    x 1.809640 0.000000 0.000890 
#    y 0.000000 1.863380 0.000000 
#    z 0.000890 0.000000 1.839960 
# 
# From -- ./inp_files/262391.got.cif
#   From: 2010.05.17/outbox.cif.g08.bks.cpg/sg15_132_cif.got.tgz:262391.got - 2010.06.03 18:47:42.
