data_PCOD9300799
_publ_section_title
;
Structure prediction by ZEFSAII (Michael W. Deem and Ramdas Pophale) SiO2 
 PCOD9300799
Probable space group: C 2/C
;
_chemical_formula_sum "Si O2"
_cell_formula_units_Z 64
_cell_length_a 23.516357
_cell_length_b 19.090888
_cell_length_c 14.262693
_cell_angle_alpha 90.000000
_cell_angle_beta 32.348679
_cell_angle_gamma 90.000000
_cell_volume 3426.167196
_symmetry_space_group_name_H-M "C 2/C"
_symmetry_group_IT_number 15
_symmetry_cell_setting 'monoclinic'
loop_
_space_group_symop_operation_xyz
x,y,z
-x,y,1/2-z
-x,-y,-z
x,-y,1/2+z
1/2+x,1/2+y,z
1/2-x,1/2+y,1/2-z
1/2-x,1/2-y,-z
1/2+x,1/2-y,1/2+z
loop_
_atom_site_type_symbol
_atom_site_label
_atom_site_fract_x
_atom_site_fract_y
_atom_site_fract_z
Si Si1 0.518255 0.185391 0.381425
Si Si2 0.909896 0.833392 0.151206
Si Si3 0.836707 0.647568 0.499122
Si Si4 0.408528 0.402067 0.947901
Si Si5 0.741487 0.535813 0.970523
Si Si6 0.974228 0.974808 0.140289
Si Si7 0.876549 0.517849 0.948700
Si Si8 0.599697 0.947912 0.873600
O O1 0.533415 0.260724 0.406368
O O2 0.401127 0.171987 0.501751
O O3 0.555975 0.126444 0.401537
O O4 0.595949 0.174153 0.183609
O O5 0.783527 0.827072 0.342818
O O6 0.959787 0.891993 0.151230
O O7 0.916782 0.862099 0.034573
O O8 0.836054 0.562660 0.503157
O O9 0.500000 0.376231 0.750000
O O10 0.296976 0.405139 0.049125
O O11 0.434159 0.485098 0.930281
O O12 0.635996 0.506208 0.167941
O O13 0.815976 0.559647 0.952009
O O14 0.807294 0.476809 0.823041
O O15 0.000000 0.000000 0.000000
O O16 0.000000 0.514459 0.750000
O O17 0.863760 0.548439 0.069906
O O18 0.500000 0.000000 0.000000
#
# Coordination Sequence:
#
# PCOD9300799 Si02
#       8
#     8   8   8   8   8   8   8   8
#     4  11  23  38  54  89 125 153 194 243 293 365
#     4  11  21  38  62  82 117 162 192 238 306 356
#     4  11  19  39  59  83 123 157 187 238 308 357
#     4   9  21  39  61  85 114 152 203 249 292 345
#     4  11  20  36  60  90 118 151 194 251 300 346
#     4   9  19  37  60  89 111 149 201 246 292 353
#     4  12  20  35  61  90 117 154 201 251 296 350
#     4  12  21  35  61  87 122 156 198 247 295 354
#
# _framework density 18.679766000000001
#
# number of rings (size 3 to 8) (size 9 to 14) (size 15 to 20)
#    0.000    1.250    6.250    1.125    1.750    0.000 
#    9.000    0.625    0.000    1.500    0.000    0.000 
#    0.000    0.000    0.000    0.000    0.000    0.000 
#
# Total GULP energy -178525.318507 kJ/mol
# GULP energy per Si atom -5578.916203 kJ/mol
# Density = 1.863725 g / cm^3
# Si number density = 18.679766 Si / 1000 Ang^3
#
#
#
# Elastic Constant Matrix: (Units=GPa)
#
#
# Indices 1 2 3 4 5 6 
#
# 1 123.5104 25.5599 7.7638 0.0000 4.6563 0.0000
# 2 25.5599 74.1535 6.3747 0.0000 -0.6244 0.0000
# 3 7.7638 6.3747 50.4636 0.0000 1.6098 0.0000
# 4 0.0000 0.0000 0.0000 5.5605 0.0000 -1.1674
# 5 4.6563 -0.6244 1.6098 0.0000 31.6771 0.0000
# 6 0.0000 0.0000 0.0000 -1.1674 0.0000 28.6362
#
#
#
# Elastic Compliance Matrix: (Units=1/GPa)
#
#
# Indices 1 2 3 4 5 6 
#
# 1 0.008820 -0.002970 -0.000940 0.000000 -0.001307 0.000000
# 2 -0.002970 0.014638 -0.001418 0.000000 0.000797 0.000000
# 3 -0.000940 -0.001418 0.020169 0.000000 -0.000915 0.000000
# 4 0.000000 0.000000 0.000000 0.181394 0.000000 0.007395
# 5 -0.001307 0.000797 -0.000915 0.000000 0.031823 0.000000
# 6 0.000000 0.000000 0.000000 0.007395 0.000000 0.035222
#
#
# Mechanical properties :
#
#
# Convention : Reuss Voigt Hill
#
# Bulk Modulus (GPa) = 30.32962 36.39158 33.36060
# Shear Modulus (GPa) = 15.93821 27.07000 21.50410
#
# Velocity S-wave (km/s) = 2.92419 3.81092 3.39661
# Velocity P-wave (km/s) = 5.26051 6.23604 5.76894
#
# Compressibility (1/GPa) = 0.03297107
#
# Stress axis : x y z
#
# Youngs Moduli (GPa) = 113.38486 68.31573 49.58073
#
# Poissons Ratio (x) = 0.20291 0.04660
# Poissons Ratio (y) = 0.33677 0.07028
# Poissons Ratio (z) = 0.10658 0.09684
#
# Static dielectric constant tensor:
#      x y z
#    x 1.702790 0.000000 -0.000330 
#    y 0.000000 1.629120 0.000000 
#    z -0.000330 0.000000 1.663040 
# 
# From -- ./inp_files/174210.got.cif
#   From: 2010.05.17/outbox.cif.g08.bks.cpg/sg15_88_cif.got.tgz:174210.got - 2010.06.03 18:47:42.
