data_PCOD9300456
_publ_section_title
;
Structure prediction by ZEFSAII (Michael W. Deem and Ramdas Pophale) SiO2 
 PCOD9300456
Probable space group: C 2/C
;
_chemical_formula_sum "Si O2"
_cell_formula_units_Z 48
_cell_length_a 30.391401
_cell_length_b 4.836729
_cell_length_c 13.979446
_cell_angle_alpha 90.000000
_cell_angle_beta 111.173311
_cell_angle_gamma 90.000000
_cell_volume 1916.185813
_symmetry_space_group_name_H-M "C 2/C"
_symmetry_group_IT_number 15
_symmetry_cell_setting 'monoclinic'
loop_
_space_group_symop_operation_xyz
x,y,z
-x,y,1/2-z
-x,-y,-z
x,-y,1/2+z
1/2+x,1/2+y,z
1/2-x,1/2+y,1/2-z
1/2-x,1/2-y,-z
1/2+x,1/2-y,1/2+z
loop_
_atom_site_type_symbol
_atom_site_label
_atom_site_fract_x
_atom_site_fract_y
_atom_site_fract_z
Si Si1 0.563941 0.494832 0.135526
Si Si2 0.728101 0.075926 0.282038
Si Si3 0.377753 0.985969 0.278300
Si Si4 0.000000 0.114533 0.750000
Si Si5 0.578924 0.703005 0.948762
Si Si6 0.250000 0.250000 0.500000
Si Si7 0.639264 0.835002 0.448864
O O1 0.611757 0.667303 0.191681
O O2 0.527861 0.559707 0.191961
O O3 0.578640 0.176562 0.156663
O O4 0.551450 0.590519 0.019996
O O5 0.750653 0.877377 0.219099
O O6 0.672295 0.085857 0.222760
O O7 0.738339 0.952645 0.395384
O O8 0.372125 0.987639 0.159623
O O9 0.960946 0.279820 0.659438
O O10 0.611065 0.451018 0.936223
O O11 0.614331 0.951656 0.001714
O O12 0.305130 0.215973 0.506165
#
# Coordination Sequence:
#
# PCOD9300456 Si02
#       7
#     8   8   8   4   8   4   8
#     4  12  26  45  75 104 141 191 242 300 371 440
#     4  11  26  44  73 110 147 198 243 302 363 438
#     4  11  23  47  70 106 150 188 240 300 365 434
#     4  12  26  52  74 106 148 184 246 316 360 448
#     4  12  27  45  77 106 144 193 245 295 375 425
#     4  10  28  46  76 110 156 194 252 294 368 434
#     4  11  24  49  72 110 149 196 236 305 358 436
#
# _framework density 25.049761
#
# number of rings (size 3 to 8) (size 9 to 14) (size 15 to 20)
#    0.000    0.667    3.333    2.500    7.000    8.000 
#    0.000    3.333    0.000    0.000    0.000    0.000 
#    0.000    0.000    0.000    0.000    0.000    0.000 
#
# Total GULP energy -133855.865586 kJ/mol
# GULP energy per Si atom -5577.327733 kJ/mol
# Density = 2.499275 g / cm^3
# Si number density = 25.049761 Si / 1000 Ang^3
#
#
#
# Elastic Constant Matrix: (Units=GPa)
#
#
# Indices 1 2 3 4 5 6 
#
# 1 170.8450 33.9174 41.6265 0.0000 13.1258 0.0000
# 2 33.9174 81.3093 -7.7285 0.0000 15.6519 0.0000
# 3 41.6265 -7.7285 100.1464 0.0000 9.7089 0.0000
# 4 0.0000 0.0000 0.0000 15.1915 0.0000 -5.1515
# 5 13.1258 15.6519 9.7089 0.0000 29.1639 0.0000
# 6 0.0000 0.0000 0.0000 -5.1515 0.0000 29.2883
#
#
#
# Elastic Compliance Matrix: (Units=1/GPa)
#
#
# Indices 1 2 3 4 5 6 
#
# 1 0.007333 -0.003281 -0.003257 0.000000 -0.000455 0.000000
# 2 -0.003281 0.015516 0.003333 0.000000 -0.007960 0.000000
# 3 -0.003257 0.003333 0.012016 0.000000 -0.004323 0.000000
# 4 0.000000 0.000000 0.000000 0.070001 0.000000 0.012312
# 5 -0.000455 -0.007960 -0.004323 0.000000 0.040205 0.000000
# 6 0.000000 0.000000 0.000000 0.012312 0.000000 0.036309
#
#
# Mechanical properties :
#
#
# Convention : Reuss Voigt Hill
#
# Bulk Modulus (GPa) = 35.14334 54.21460 44.67897
# Shear Modulus (GPa) = 25.34519 33.69443 29.51981
#
# Velocity S-wave (km/s) = 3.18432 3.67154 3.43658
# Velocity P-wave (km/s) = 5.25164 6.29788 5.79841
#
# Compressibility (1/GPa) = 0.02845489
#
# Stress axis : x y z
#
# Youngs Moduli (GPa) = 136.36621 64.44764 83.22556
#
# Poissons Ratio (x) = 0.21145 0.27108
# Poissons Ratio (y) = 0.44741 -0.27738
# Poissons Ratio (z) = 0.44417 -0.21480
#
# Static dielectric constant tensor:
#      x y z
#    x 1.948140 0.000000 -0.074840 
#    y 0.000000 1.890770 0.000000 
#    z -0.074840 0.000000 2.084610 
# 
# From -- ./inp_files/179806.got.cif
#   From: 2010.05.17/outbox.cif.g08.bks.cpg/sg15_90_cif.got.tgz:179806.got - 2010.06.03 18:47:42.
