data_PCOD9300185
_publ_section_title
;
Structure prediction by ZEFSAII (Michael W. Deem and Ramdas Pophale) SiO2 
 PCOD9300185
Probable space group: C 2/C
;
_chemical_formula_sum "Si O2"
_cell_formula_units_Z 36
_cell_length_a 11.231153
_cell_length_b 9.542264
_cell_length_c 14.012539
_cell_angle_alpha 90.000000
_cell_angle_beta 103.809179
_cell_angle_gamma 90.000000
_cell_volume 1458.326591
_symmetry_space_group_name_H-M "C 2/C"
_symmetry_group_IT_number 15
_symmetry_cell_setting 'monoclinic'
loop_
_space_group_symop_operation_xyz
x,y,z
-x,y,1/2-z
-x,-y,-z
x,-y,1/2+z
1/2+x,1/2+y,z
1/2-x,1/2+y,1/2-z
1/2-x,1/2-y,-z
1/2+x,1/2-y,1/2+z
loop_
_atom_site_type_symbol
_atom_site_label
_atom_site_fract_x
_atom_site_fract_y
_atom_site_fract_z
Si Si1 0.482227 0.657847 0.963015
Si Si2 0.742567 0.429022 0.764605
Si Si3 0.500000 0.595052 0.750000
Si Si4 0.218779 0.648987 0.866564
Si Si5 0.958232 0.600876 0.907992
O O1 0.497389 0.675240 0.851080
O O2 0.336947 0.688810 0.953804
O O3 0.500000 0.500000 0.000000
O O4 0.571024 0.756126 0.041374
O O5 0.617978 0.496427 0.779452
O O6 0.752418 0.489604 0.660283
O O7 0.733817 0.265107 0.784895
O O8 0.855692 0.510471 0.835490
O O9 0.077631 0.642528 0.869331
O O10 0.000000 0.500000 0.000000
#
# Coordination Sequence:
#
# PCOD9300185 Si02
#       5
#     8   8   4   8   8
#     4  11  25  46  73 106 153 202 249 324 377 457
#     4  11  26  47  76 107 150 202 248 322 379 457
#     4  10  26  46  68 108 150 188 260 304 388 450
#     4  11  26  48  73 111 152 195 263 304 388 460
#     4  12  26  45  75 106 147 199 252 316 382 449
#
# _framework density 24.685828999999998
#
# number of rings (size 3 to 8) (size 9 to 14) (size 15 to 20)
#    0.000    0.889    2.222    2.667   12.444    4.444 
#    0.000    0.000    0.000    0.000    0.000    0.000 
#    0.000    0.000    0.000    0.000    0.000    0.000 
#
# Total GULP energy -100523.175163 kJ/mol
# GULP energy per Si atom -5584.620842 kJ/mol
# Density = 2.462964 g / cm^3
# Si number density = 24.685829 Si / 1000 Ang^3
#
#
#
# Elastic Constant Matrix: (Units=GPa)
#
#
# Indices 1 2 3 4 5 6 
#
# 1 87.7188 -0.1015 24.0943 0.0000 -2.8117 0.0000
# 2 -0.1015 132.2470 19.5258 0.0000 -14.0717 0.0000
# 3 24.0943 19.5258 65.5339 0.0000 3.5393 0.0000
# 4 0.0000 0.0000 0.0000 43.9816 0.0000 5.0436
# 5 -2.8117 -14.0717 3.5393 0.0000 36.5010 0.0000
# 6 0.0000 0.0000 0.0000 5.0436 0.0000 38.0216
#
#
#
# Elastic Compliance Matrix: (Units=1/GPa)
#
#
# Indices 1 2 3 4 5 6 
#
# 1 0.012867 0.000963 -0.005118 0.000000 0.001859 0.000000
# 2 0.000963 0.008397 -0.003051 0.000000 0.003607 0.000000
# 3 -0.005118 -0.003051 0.018230 0.000000 -0.003338 0.000000
# 4 0.000000 0.000000 0.000000 0.023088 0.000000 -0.003063
# 5 0.001859 0.003607 -0.003338 0.000000 0.029254 0.000000
# 6 0.000000 0.000000 0.000000 -0.003063 0.000000 0.026707
#
#
# Mechanical properties :
#
#
# Convention : Reuss Voigt Hill
#
# Bulk Modulus (GPa) = 39.86832 41.39300 40.63066
# Shear Modulus (GPa) = 35.38222 39.83293 37.60758
#
# Velocity S-wave (km/s) = 3.79000 4.02132 3.90737
# Velocity P-wave (km/s) = 5.94454 6.19400 6.07055
#
# Compressibility (1/GPa) = 0.02508257
#
# Stress axis : x y z
#
# Youngs Moduli (GPa) = 77.72102 119.09607 54.85402
#
# Poissons Ratio (x) = -0.11473 0.28074
# Poissons Ratio (y) = -0.07487 0.16735
# Poissons Ratio (z) = 0.39777 0.36333
#
# Static dielectric constant tensor:
#      x y z
#    x 1.990580 0.000000 -0.027270 
#    y 0.000000 2.191990 0.000000 
#    z -0.027270 0.000000 2.037130 
# 
# From -- ./inp_files/141987.got.cif
#   From: 2010.05.17/outbox.cif.g08.bks.cpg/sg15_71_cif.got.tgz:141987.got - 2010.06.03 18:47:42.
