data_PCOD9300735
_publ_section_title
;
Structure prediction by ZEFSAII (Michael W. Deem and Ramdas Pophale) SiO2 
 PCOD9300735
Probable space group: C 2/C
;
_chemical_formula_sum "Si O2"
_cell_formula_units_Z 32
_cell_length_a 22.987102
_cell_length_b 11.525870
_cell_length_c 12.489354
_cell_angle_alpha 90.000000
_cell_angle_beta 157.553184
_cell_angle_gamma 90.000000
_cell_volume 1263.464547
_symmetry_space_group_name_H-M "C 2/C"
_symmetry_group_IT_number 15
_symmetry_cell_setting 'monoclinic'
loop_
_space_group_symop_operation_xyz
x,y,z
-x,y,1/2-z
-x,-y,-z
x,-y,1/2+z
1/2+x,1/2+y,z
1/2-x,1/2+y,1/2-z
1/2-x,1/2-y,-z
1/2+x,1/2-y,1/2+z
loop_
_atom_site_type_symbol
_atom_site_label
_atom_site_fract_x
_atom_site_fract_y
_atom_site_fract_z
Si Si1 0.046014 0.338590 0.636956
Si Si2 0.000000 0.508134 0.250000
Si Si3 0.000000 0.892243 0.750000
Si Si4 0.329206 0.178656 0.372450
Si Si5 0.119953 0.893713 0.335385
O O1 0.962216 0.412377 0.583233
O O2 0.044618 0.352255 0.507005
O O3 0.017049 0.202910 0.605485
O O4 0.221455 0.379595 0.959756
O O5 0.142889 0.419080 0.491929
O O6 0.870157 0.804581 0.486460
O O7 0.059767 0.979145 0.758739
O O8 0.175866 0.159097 0.045207
#
# Coordination Sequence:
#
# PCOD9300735 Si02
#       5
#     8   4   4   8   8
#     4   9  20  39  56  89 119 153 203 241 294 361
#     4  11  19  36  66  80 119 169 180 252 312 323
#     4  11  21  40  64  88 123 163 186 250 314 329
#     4   9  22  37  57  92 122 144 213 242 276 385
#     4   9  21  37  58  85 122 152 198 245 289 361
#
# _framework density 25.327186000000001
#
# number of rings (size 3 to 8) (size 9 to 14) (size 15 to 20)
#    1.500    1.000    0.000    1.500    3.500    1.000 
#    0.000    7.500    0.000    0.000    0.000    0.000 
#    0.000    0.000    0.000    0.000    0.000    0.000 
#
# Total GULP energy -89084.704434 kJ/mol
# GULP energy per Si atom -5567.794027 kJ/mol
# Density = 2.526954 g / cm^3
# Si number density = 25.327186 Si / 1000 Ang^3
#
#
#
# Elastic Constant Matrix: (Units=GPa)
#
#
# Indices 1 2 3 4 5 6 
#
# 1 67.3584 33.4387 -3.4458 0.0000 -6.1665 0.0000
# 2 33.4387 192.8885 26.4127 0.0000 -9.1386 0.0000
# 3 -3.4458 26.4127 48.5502 0.0000 -14.6492 0.0000
# 4 0.0000 0.0000 0.0000 27.8795 0.0000 -28.8423
# 5 -6.1665 -9.1386 -14.6492 0.0000 30.2166 0.0000
# 6 0.0000 0.0000 0.0000 -28.8423 0.0000 32.3429
#
#
#
# Elastic Compliance Matrix: (Units=1/GPa)
#
#
# Indices 1 2 3 4 5 6 
#
# 1 0.017170 -0.003366 0.004451 0.000000 0.004644 0.000000
# 2 -0.003366 0.006263 -0.003844 0.000000 -0.000656 0.000000
# 3 0.004451 -0.003844 0.026856 0.000000 0.012766 0.000000
# 4 0.000000 0.000000 0.000000 0.463186 0.000000 0.413054
# 5 0.004644 -0.000656 0.012766 0.000000 0.040032 0.000000
# 6 0.000000 0.000000 0.000000 0.413054 0.000000 0.399266
#
#
# Mechanical properties :
#
#
# Convention : Reuss Voigt Hill
#
# Bulk Modulus (GPa) = 22.33604 46.84538 34.59071
# Shear Modulus (GPa) = 5.13761 34.91389 20.02575
#
# Velocity S-wave (km/s) = 1.42580 3.71686 2.81496
# Velocity P-wave (km/s) = 3.39833 6.07917 4.92468
#
# Compressibility (1/GPa) = 0.04477070
#
# Stress axis : x y z
#
# Youngs Moduli (GPa) = 58.24194 159.66345 37.23506
#
# Poissons Ratio (x) = 0.53742 -0.16573
# Poissons Ratio (y) = 0.19604 0.14314
# Poissons Ratio (z) = -0.25923 0.61380
#
# Static dielectric constant tensor:
#      x y z
#    x 2.176310 0.000000 0.088730 
#    y 0.000000 1.962730 0.000000 
#    z 0.088730 0.000000 2.010500 
# 
# From -- ./inp_files/94151.got.cif
#   From: 2010.05.17/outbox.cif.g08.bks.cpg/sg15_48_cif.got.tgz:94151.got - 2010.06.03 18:47:42.
