data_PCOD9300236
_publ_section_title
;
Structure prediction by ZEFSAII (Michael W. Deem and Ramdas Pophale) SiO2 
 PCOD9300236
Probable space group: C 2/C
;
_chemical_formula_sum "Si O2"
_cell_formula_units_Z 44
_cell_length_a 5.286595
_cell_length_b 18.433766
_cell_length_c 22.383973
_cell_angle_alpha 90.000000
_cell_angle_beta 114.604563
_cell_angle_gamma 90.000000
_cell_volume 1983.298678
_symmetry_space_group_name_H-M "C 2/C"
_symmetry_group_IT_number 15
_symmetry_cell_setting 'monoclinic'
loop_
_space_group_symop_operation_xyz
x,y,z
-x,y,1/2-z
-x,-y,-z
x,-y,1/2+z
1/2+x,1/2+y,z
1/2-x,1/2+y,1/2-z
1/2-x,1/2-y,-z
1/2+x,1/2-y,1/2+z
loop_
_atom_site_type_symbol
_atom_site_label
_atom_site_fract_x
_atom_site_fract_y
_atom_site_fract_z
Si Si1 0.500000 0.841173 0.750000
Si Si2 0.407997 0.885799 0.869311
Si Si3 0.385705 0.693390 0.467159
Si Si4 0.514326 0.254277 0.847983
Si Si5 0.745452 0.113169 0.907080
Si Si6 0.289245 0.019908 0.925001
O O1 0.461249 0.891420 0.804309
O O2 0.762234 0.787709 0.785303
O O3 0.693677 0.876054 0.933351
O O4 0.268701 0.807890 0.862852
O O5 0.222002 0.945794 0.883032
O O6 0.250000 0.750000 0.500000
O O7 0.426661 0.733577 0.408481
O O8 0.653936 0.659449 0.525124
O O9 0.627946 0.173516 0.849903
O O10 0.486535 0.064614 0.899990
O O11 0.013580 0.065455 0.914406
O O12 0.500000 0.000000 0.000000
#
# Coordination Sequence:
#
# PCOD9300236 Si02
#       6
#     4   8   8   8   8   8
#     4  10  26  46  76  96 132 194 272 304 356 426
#     4  11  24  43  73  98 141 191 243 296 358 445
#     4  11  21  38  68 110 143 178 231 297 362 437
#     4  11  24  43  74  99 137 190 252 303 353 430
#     4  12  25  42  69 110 150 181 225 295 379 431
#     4  12  26  42  69 110 155 186 223 290 378 451
#
# _framework density 22.185262999999999
#
# number of rings (size 3 to 8) (size 9 to 14) (size 15 to 20)
#    0.000    0.727    3.636    3.818    7.636    0.000 
#    0.000    0.000    8.000    0.000    0.000    0.000 
#    0.000    0.000    0.000    0.000    0.000    0.000 
#
# Total GULP energy -122999.683659 kJ/mol
# GULP energy per Si atom -5590.894712 kJ/mol
# Density = 2.213477 g / cm^3
# Si number density = 22.185263 Si / 1000 Ang^3
#
#
#
# Elastic Constant Matrix: (Units=GPa)
#
#
# Indices 1 2 3 4 5 6 
#
# 1 80.9550 22.0040 3.7578 0.0000 -4.0361 0.0000
# 2 22.0040 91.3538 2.9194 0.0000 -16.5503 0.0000
# 3 3.7578 2.9194 70.3297 0.0000 -11.4247 0.0000
# 4 0.0000 0.0000 0.0000 15.1662 0.0000 1.6078
# 5 -4.0361 -16.5503 -11.4247 0.0000 33.6547 0.0000
# 6 0.0000 0.0000 0.0000 1.6078 0.0000 36.0276
#
#
#
# Elastic Compliance Matrix: (Units=1/GPa)
#
#
# Indices 1 2 3 4 5 6 
#
# 1 0.013242 -0.003205 -0.000606 0.000000 -0.000194 0.000000
# 2 -0.003205 0.012809 0.000635 0.000000 0.006130 0.000000
# 3 -0.000606 0.000635 0.015096 0.000000 0.005364 0.000000
# 4 0.000000 0.000000 0.000000 0.066249 0.000000 -0.002956
# 5 -0.000194 0.006130 0.005364 0.000000 0.034526 0.000000
# 6 0.000000 0.000000 0.000000 -0.002956 0.000000 0.027888
#
#
# Mechanical properties :
#
#
# Convention : Reuss Voigt Hill
#
# Bulk Modulus (GPa) = 28.73949 33.33341 31.03645
# Shear Modulus (GPa) = 26.62954 31.23353 28.93153
#
# Velocity S-wave (km/s) = 3.46833 3.75620 3.61513
# Velocity P-wave (km/s) = 5.38716 5.81977 5.60764
#
# Compressibility (1/GPa) = 0.03479533
#
# Stress axis : x y z
#
# Youngs Moduli (GPa) = 75.51593 78.07129 66.24193
#
# Poissons Ratio (x) = 0.25025 0.04014
# Poissons Ratio (y) = 0.24206 -0.04209
# Poissons Ratio (z) = 0.04576 -0.04961
#
# Static dielectric constant tensor:
#      x y z
#    x 1.694390 0.000000 0.022720 
#    y 0.000000 1.841340 0.000000 
#    z 0.022720 0.000000 1.897490 
# 
# From -- ./inp_files/226921.got.cif
#   From: 2010.05.17/outbox.cif.g08.bks.cpg/sg15_114_cif.got.tgz:226921.got - 2010.06.03 18:47:42.
