data_PCOD9300974
_publ_section_title
;
Structure prediction by ZEFSAII (Michael W. Deem and Ramdas Pophale) SiO2 
 PCOD9300974
Probable space group: C 2/C
;
_chemical_formula_sum "Si O2"
_cell_formula_units_Z 56
_cell_length_a 16.975736
_cell_length_b 18.296602
_cell_length_c 9.878979
_cell_angle_alpha 90.000000
_cell_angle_beta 73.788390
_cell_angle_gamma 90.000000
_cell_volume 2946.385798
_symmetry_space_group_name_H-M "C 2/C"
_symmetry_group_IT_number 15
_symmetry_cell_setting 'monoclinic'
loop_
_space_group_symop_operation_xyz
x,y,z
-x,y,1/2-z
-x,-y,-z
x,-y,1/2+z
1/2+x,1/2+y,z
1/2-x,1/2+y,1/2-z
1/2-x,1/2-y,-z
1/2+x,1/2-y,1/2+z
loop_
_atom_site_type_symbol
_atom_site_label
_atom_site_fract_x
_atom_site_fract_y
_atom_site_fract_z
Si Si1 0.068580 0.092778 0.546235
Si Si2 0.098091 0.423473 0.190452
Si Si3 0.814101 0.492387 0.609013
Si Si4 0.181504 0.123811 0.245197
Si Si5 0.212923 0.717251 0.658163
Si Si6 0.679324 0.606584 0.729128
Si Si7 0.584820 0.428106 0.529202
O O1 0.138763 0.097583 0.401090
O O2 0.104240 0.126098 0.666385
O O3 0.987634 0.118400 0.505545
O O4 0.052572 0.007523 0.587428
O O5 0.131404 0.468973 0.302952
O O6 0.143100 0.343988 0.165523
O O7 0.000000 0.416593 0.250000
O O8 0.131434 0.468139 0.044325
O O9 0.766124 0.419789 0.681932
O O10 0.741937 0.552954 0.619382
O O11 0.186164 0.210739 0.249503
O O12 0.126690 0.106179 0.139192
O O13 0.250000 0.750000 0.500000
O O14 0.277677 0.675587 0.722817
O O15 0.648845 0.562921 0.876087
#
# Coordination Sequence:
#
# PCOD9300974 Si02
#       7
#     8   8   8   8   8   8   8
#     4  11  22  33  56  94 127 153 202 264 312 360
#     4  11  24  41  65  94 124 158 210 272 321 370
#     4  11  20  38  65  90 118 159 214 265 308 369
#     4  12  21  38  62  89 119 171 214 252 311 391
#     4  11  23  41  64  87 120 170 216 248 316 394
#     4  11  21  38  61  89 122 165 210 258 310 381
#     4  11  20  35  58  90 126 161 200 253 315 374
#
# _framework density 19.006336999999998
#
# number of rings (size 3 to 8) (size 9 to 14) (size 15 to 20)
#    0.000    0.857    5.714    3.000    0.000    4.000 
#    0.000    0.000    0.000    3.429    0.000    0.000 
#    0.000    0.000    0.000    0.000    0.000    0.000 
#
# Total GULP energy -156222.030399 kJ/mol
# GULP energy per Si atom -5579.358229 kJ/mol
# Density = 1.896308 g / cm^3
# Si number density = 19.006337 Si / 1000 Ang^3
#
#
#
# Elastic Constant Matrix: (Units=GPa)
#
#
# Indices 1 2 3 4 5 6 
#
# 1 105.3613 42.1481 35.6842 0.0000 19.2655 0.0000
# 2 42.1481 108.3010 33.7222 0.0000 10.4735 0.0000
# 3 35.6842 33.7222 99.4382 0.0000 4.7523 0.0000
# 4 0.0000 0.0000 0.0000 26.2299 0.0000 3.5207
# 5 19.2655 10.4735 4.7523 0.0000 28.0682 0.0000
# 6 0.0000 0.0000 0.0000 3.5207 0.0000 25.6487
#
#
#
# Elastic Compliance Matrix: (Units=1/GPa)
#
#
# Indices 1 2 3 4 5 6 
#
# 1 0.013312 -0.003462 -0.003254 0.000000 -0.007294 0.000000
# 2 -0.003462 0.011534 -0.002598 0.000000 -0.001488 0.000000
# 3 -0.003254 -0.002598 0.012050 0.000000 0.001163 0.000000
# 4 0.000000 0.000000 0.000000 0.038840 0.000000 -0.005331
# 5 -0.007294 -0.001488 0.001163 0.000000 0.040992 0.000000
# 6 0.000000 0.000000 0.000000 -0.005331 0.000000 0.039720
#
#
# Mechanical properties :
#
#
# Convention : Reuss Voigt Hill
#
# Bulk Modulus (GPa) = 54.74411 59.57884 57.16148
# Shear Modulus (GPa) = 27.59903 29.42576 28.51240
#
# Velocity S-wave (km/s) = 3.81477 3.93900 3.87738
# Velocity P-wave (km/s) = 6.94758 7.21820 7.08419
#
# Compressibility (1/GPa) = 0.01826680
#
# Stress axis : x y z
#
# Youngs Moduli (GPa) = 75.11975 86.70302 82.98869
#
# Poissons Ratio (x) = 0.30016 0.27009
# Poissons Ratio (y) = 0.26006 0.21560
# Poissons Ratio (z) = 0.24448 0.22525
#
# Static dielectric constant tensor:
#      x y z
#    x 1.720860 0.000000 -0.020420 
#    y 0.000000 1.682400 0.000000 
#    z -0.020420 0.000000 1.679250 
# 
# From -- ./inp_files/49044.got.cif
#   From: 2010.05.17/outbox.cif.g08.bks.cpg/sg15_25_cif.got.tgz:49044.got - 2010.06.03 18:47:42.
