data_PCOD9300395
_publ_section_title
;
Structure prediction by ZEFSAII (Michael W. Deem and Ramdas Pophale) SiO2 
 PCOD9300395
Probable space group: C 2/C
;
_chemical_formula_sum "Si O2"
_cell_formula_units_Z 40
_cell_length_a 23.364327
_cell_length_b 10.336134
_cell_length_c 8.435269
_cell_angle_alpha 90.000000
_cell_angle_beta 53.540622
_cell_angle_gamma 90.000000
_cell_volume 1638.387924
_symmetry_space_group_name_H-M "C 2/C"
_symmetry_group_IT_number 15
_symmetry_cell_setting 'monoclinic'
loop_
_space_group_symop_operation_xyz
x,y,z
-x,y,1/2-z
-x,-y,-z
x,-y,1/2+z
1/2+x,1/2+y,z
1/2-x,1/2+y,1/2-z
1/2-x,1/2-y,-z
1/2+x,1/2-y,1/2+z
loop_
_atom_site_type_symbol
_atom_site_label
_atom_site_fract_x
_atom_site_fract_y
_atom_site_fract_z
Si Si1 0.976276 0.201340 0.023580
Si Si2 0.384801 0.853211 0.408464
Si Si3 0.161200 0.099446 0.416164
Si Si4 0.864227 0.842632 0.190573
Si Si5 0.000000 0.569632 0.250000
Si Si6 0.250000 0.750000 0.500000
O O1 0.935530 0.240130 0.251118
O O2 0.920053 0.132020 0.001705
O O3 0.994018 0.337984 0.911017
O O4 0.051340 0.131822 0.923420
O O5 0.359811 0.797107 0.618426
O O6 0.317260 0.853311 0.406677
O O7 0.430918 0.980228 0.349325
O O8 0.171008 0.139475 0.581109
O O9 0.209026 0.176523 0.214408
O O10 0.169430 0.945188 0.377111
#
# Coordination Sequence:
#
# PCOD9300395 Si02
#       6
#     8   8   8   8   4   4
#     4  11  22  42  70 112 143 185 248 303 369 424
#     4  11  25  44  74 101 152 191 246 303 369 438
#     4  11  24  44  73 100 151 184 245 302 368 445
#     4  12  23  45  72 109 139 195 246 306 368 433
#     4  12  22  44  74 112 144 194 246 306 364 436
#     4  10  26  52  64 108 142 200 236 302 372 452
#
# _framework density 24.414242000000002
#
# number of rings (size 3 to 8) (size 9 to 14) (size 15 to 20)
#    0.000    0.800    4.000    3.600    0.000    2.400 
#   14.400    0.000    0.000    0.000    0.000    0.000 
#    0.000    0.000    0.000    0.000    0.000    0.000 
#
# Total GULP energy -111493.394407 kJ/mol
# GULP energy per Si atom -5574.669720 kJ/mol
# Density = 2.435867 g / cm^3
# Si number density = 24.414242 Si / 1000 Ang^3
#
#
#
# Elastic Constant Matrix: (Units=GPa)
#
#
# Indices 1 2 3 4 5 6 
#
# 1 64.9995 18.5888 12.5390 0.0000 -11.5746 0.0000
# 2 18.5888 101.7618 43.3005 0.0000 1.6246 0.0000
# 3 12.5390 43.3005 138.4487 0.0000 4.0203 0.0000
# 4 0.0000 0.0000 0.0000 28.6884 0.0000 11.3208
# 5 -11.5746 1.6246 4.0203 0.0000 32.7850 0.0000
# 6 0.0000 0.0000 0.0000 11.3208 0.0000 25.1584
#
#
#
# Elastic Compliance Matrix: (Units=1/GPa)
#
#
# Indices 1 2 3 4 5 6 
#
# 1 0.017539 -0.002943 -0.000855 0.000000 0.006443 0.000000
# 2 -0.002943 0.011830 -0.003398 0.000000 -0.001208 0.000000
# 3 -0.000855 -0.003398 0.008397 0.000000 -0.001163 0.000000
# 4 0.000000 0.000000 0.000000 0.042383 0.000000 -0.019072
# 5 0.006443 -0.001208 -0.001163 0.000000 0.032979 0.000000
# 6 0.000000 0.000000 0.000000 -0.019072 0.000000 0.048330
#
#
# Mechanical properties :
#
#
# Convention : Reuss Voigt Hill
#
# Bulk Modulus (GPa) = 42.78449 50.45186 46.61817
# Shear Modulus (GPa) = 27.22718 32.71183 29.96950
#
# Velocity S-wave (km/s) = 3.34311 3.66439 3.50743
# Velocity P-wave (km/s) = 5.69774 6.21397 5.96145
#
# Compressibility (1/GPa) = 0.02337296
#
# Stress axis : x y z
#
# Youngs Moduli (GPa) = 57.01738 84.53328 119.09139
#
# Poissons Ratio (x) = 0.24876 0.10184
# Poissons Ratio (y) = 0.16779 0.40469
# Poissons Ratio (z) = 0.04876 0.28726
#
# Static dielectric constant tensor:
#      x y z
#    x 1.938240 0.000000 0.383510 
#    y 0.000000 1.924410 0.000000 
#    z 0.383510 0.000000 0.456460 
# 
# From -- ./inp_files/65020.got.cif
#   From: 2010.05.17/outbox.cif.g08.bks.cpg/sg15_33_cif.got.tgz:65020.got - 2010.06.03 18:47:42.
