data_PCOD9300977
_publ_section_title
;
Structure prediction by ZEFSAII (Michael W. Deem and Ramdas Pophale) SiO2 
 PCOD9300977
Probable space group: C 2/C
;
_chemical_formula_sum "Si O2"
_cell_formula_units_Z 40
_cell_length_a 5.566485
_cell_length_b 21.678676
_cell_length_c 20.615563
_cell_angle_alpha 90.000000
_cell_angle_beta 50.147934
_cell_angle_gamma 90.000000
_cell_volume 1909.859416
_symmetry_space_group_name_H-M "C 2/C"
_symmetry_group_IT_number 15
_symmetry_cell_setting 'monoclinic'
loop_
_space_group_symop_operation_xyz
x,y,z
-x,y,1/2-z
-x,-y,-z
x,-y,1/2+z
1/2+x,1/2+y,z
1/2-x,1/2+y,1/2-z
1/2-x,1/2-y,-z
1/2+x,1/2-y,1/2+z
loop_
_atom_site_type_symbol
_atom_site_label
_atom_site_fract_x
_atom_site_fract_y
_atom_site_fract_z
Si Si1 0.204143 0.718183 0.939306
Si Si2 0.793748 0.377031 0.577547
Si Si3 0.310126 0.851476 0.341103
Si Si4 0.553797 0.572435 0.482195
Si Si5 0.637864 0.724816 0.325403
O O1 0.516168 0.684992 0.861614
O O2 0.106554 0.771547 0.908380
O O3 0.250000 0.750000 0.000000
O O4 0.968861 0.663820 0.993262
O O5 0.553415 0.414539 0.573674
O O6 0.598810 0.328656 0.655575
O O7 0.081624 0.409972 0.565287
O O8 0.500000 0.884577 0.250000
O O9 0.524667 0.793622 0.326532
O O10 0.161529 0.891476 0.425801
O O11 0.500000 0.500000 0.500000
O O12 0.000000 0.712709 0.250000
#
# Coordination Sequence:
#
# PCOD9300977 Si02
#       5
#     8   8   8   8   8
#     4  11  20  35  59  92 132 170 205 257 331 412
#     4  11  23  40  67  94 130 169 218 273 331 395
#     4  11  22  37  62  95 133 168 215 278 340 400
#     4  11  25  45  68  91 125 179 240 273 315 382
#     4  12  22  36  61  98 139 167 204 269 352 412
#
# _framework density 20.943950999999998
#
# number of rings (size 3 to 8) (size 9 to 14) (size 15 to 20)
#    0.000    0.800    6.000    3.600    0.000    0.000 
#    0.000    1.000    0.000    4.800    0.000    0.000 
#    0.000    0.000    0.000    0.000    0.000    0.000 
#
# Total GULP energy -111476.201967 kJ/mol
# GULP energy per Si atom -5573.810098 kJ/mol
# Density = 2.089628 g / cm^3
# Si number density = 20.943951 Si / 1000 Ang^3
#
#
#
# Elastic Constant Matrix: (Units=GPa)
#
#
# Indices 1 2 3 4 5 6 
#
# 1 132.0893 45.1772 29.9148 0.0000 -18.5278 0.0000
# 2 45.1772 103.0619 17.6865 0.0000 -13.9145 0.0000
# 3 29.9148 17.6865 59.6567 0.0000 -16.2320 0.0000
# 4 0.0000 0.0000 0.0000 11.9818 0.0000 1.9227
# 5 -18.5278 -13.9145 -16.2320 0.0000 41.0233 0.0000
# 6 0.0000 0.0000 0.0000 1.9227 0.0000 22.3876
#
#
#
# Elastic Compliance Matrix: (Units=1/GPa)
#
#
# Indices 1 2 3 4 5 6 
#
# 1 0.009781 -0.003452 -0.003360 0.000000 0.001917 0.000000
# 2 -0.003452 0.011684 -0.001209 0.000000 0.001925 0.000000
# 3 -0.003360 -0.001209 0.020487 0.000000 0.006179 0.000000
# 4 0.000000 0.000000 0.000000 0.084626 0.000000 -0.007268
# 5 0.001917 0.001925 0.006179 0.000000 0.028340 0.000000
# 6 0.000000 0.000000 0.000000 -0.007268 0.000000 0.045292
#
#
# Mechanical properties :
#
#
# Convention : Reuss Voigt Hill
#
# Bulk Modulus (GPa) = 38.59467 53.37388 45.98428
# Shear Modulus (GPa) = 22.23329 28.54716 25.39023
#
# Velocity S-wave (km/s) = 3.26170 3.69592 3.48558
# Velocity P-wave (km/s) = 5.71424 6.61458 6.18082
#
# Compressibility (1/GPa) = 0.02591031
#
# Stress axis : x y z
#
# Youngs Moduli (GPa) = 102.23750 85.59027 48.81184
#
# Poissons Ratio (x) = 0.29547 0.16399
# Poissons Ratio (y) = 0.35294 0.05901
# Poissons Ratio (z) = 0.34348 0.10347
#
# Static dielectric constant tensor:
#      x y z
#    x 1.880510 0.000000 0.003170 
#    y 0.000000 1.783400 0.000000 
#    z 0.003170 0.000000 1.784460 
# 
# From -- ./inp_files/129057.got.cif
#   From: 2010.05.17/outbox.cif.g08.bks.cpg/sg15_65_cif.got.tgz:129057.got - 2010.06.03 18:47:42.
