data_PCOD9300792
_publ_section_title
;
Structure prediction by ZEFSAII (Michael W. Deem and Ramdas Pophale) SiO2 
 PCOD9300792
Probable space group: C 2/C
;
_chemical_formula_sum "Si O2"
_cell_formula_units_Z 44
_cell_length_a 5.163566
_cell_length_b 24.831686
_cell_length_c 15.189544
_cell_angle_alpha 90.000000
_cell_angle_beta 98.601934
_cell_angle_gamma 90.000000
_cell_volume 1925.696135
_symmetry_space_group_name_H-M "C 2/C"
_symmetry_group_IT_number 15
_symmetry_cell_setting 'monoclinic'
loop_
_space_group_symop_operation_xyz
x,y,z
-x,y,1/2-z
-x,-y,-z
x,-y,1/2+z
1/2+x,1/2+y,z
1/2-x,1/2+y,1/2-z
1/2-x,1/2-y,-z
1/2+x,1/2-y,1/2+z
loop_
_atom_site_type_symbol
_atom_site_label
_atom_site_fract_x
_atom_site_fract_y
_atom_site_fract_z
Si Si1 0.351712 0.479774 0.658538
Si Si2 0.000000 0.218409 0.750000
Si Si3 0.899685 0.414601 0.423126
Si Si4 0.458431 0.608953 0.036075
Si Si5 0.149323 0.807235 0.664607
Si Si6 0.000000 0.398990 0.750000
Si Si7 0.500000 0.149301 0.750000
O O1 0.500000 0.506192 0.750000
O O2 0.186089 0.524127 0.599625
O O3 0.525220 0.443198 0.601968
O O4 0.175301 0.435466 0.697435
O O5 0.842146 0.256019 0.671514
O O6 0.763769 0.184190 0.780003
O O7 0.667107 0.389255 0.468555
O O8 0.172428 0.406795 0.486629
O O9 0.933945 0.386109 0.331173
O O10 0.454102 0.668033 0.082311
O O11 0.337451 0.858469 0.682103
O O12 0.000000 0.801614 0.750000
#
# Coordination Sequence:
#
# PCOD9300792 Si02
#       7
#     8   4   8   8   8   4   4
#     4  12  25  41  71 109 151 200 241 280 352 436
#     4  11  26  46  87 100 131 192 252 301 362 446
#     4  12  30  45  73  98 158 194 242 291 348 440
#     4  12  25  47  69 115 146 187 235 305 360 416
#     4  11  22  44  76 111 140 179 235 310 377 423
#     4  11  19  38  70 104 146 190 229 295 342 440
#     4  12  27  56  69 102 139 204 249 288 368 430
#
# _framework density 22.848880999999999
#
# number of rings (size 3 to 8) (size 9 to 14) (size 15 to 20)
#    0.000    0.364    4.545    3.818    8.909    0.000 
#    0.000    5.455    0.000    0.000    0.000    0.000 
#    0.000    0.000    0.000    0.000    0.000    0.000 
#
# Total GULP energy -122986.323622 kJ/mol
# GULP energy per Si atom -5590.287437 kJ/mol
# Density = 2.279688 g / cm^3
# Si number density = 22.848881 Si / 1000 Ang^3
#
#
#
# Elastic Constant Matrix: (Units=GPa)
#
#
# Indices 1 2 3 4 5 6 
#
# 1 112.3228 27.5883 29.3902 0.0000 -11.0084 0.0000
# 2 27.5883 88.3409 26.8798 0.0000 -12.4297 0.0000
# 3 29.3902 26.8798 87.5302 0.0000 -15.1353 0.0000
# 4 0.0000 0.0000 0.0000 14.5503 0.0000 14.4383
# 5 -11.0084 -12.4297 -15.1353 0.0000 47.3711 0.0000
# 6 0.0000 0.0000 0.0000 14.4383 0.0000 46.9588
#
#
#
# Elastic Compliance Matrix: (Units=1/GPa)
#
#
# Indices 1 2 3 4 5 6 
#
# 1 0.010229 -0.002278 -0.002569 0.000000 0.000958 0.000000
# 2 -0.002278 0.013208 -0.002946 0.000000 0.001995 0.000000
# 3 -0.002569 -0.002946 0.013713 0.000000 0.003011 0.000000
# 4 0.000000 0.000000 0.000000 0.098902 0.000000 -0.030409
# 5 0.000958 0.001995 0.003011 0.000000 0.022818 0.000000
# 6 0.000000 0.000000 0.000000 -0.030409 0.000000 0.030645
#
#
# Mechanical properties :
#
#
# Convention : Reuss Voigt Hill
#
# Bulk Modulus (GPa) = 46.37590 50.65672 48.51631
# Shear Modulus (GPa) = 23.55273 35.39842 29.47558
#
# Velocity S-wave (km/s) = 3.21410 3.94031 3.59559
# Velocity P-wave (km/s) = 5.84078 6.55132 6.20623
#
# Compressibility (1/GPa) = 0.02156293
#
# Stress axis : x y z
#
# Youngs Moduli (GPa) = 97.76554 75.70988 72.92452
#
# Poissons Ratio (x) = 0.17244 0.18736
# Poissons Ratio (y) = 0.22268 0.21487
# Poissons Ratio (z) = 0.25119 0.22307
#
# Static dielectric constant tensor:
#      x y z
#    x 1.884880 0.000000 0.079300 
#    y 0.000000 1.848180 0.000000 
#    z 0.079300 0.000000 1.829260 
# 
# From -- ./inp_files/129862.got.cif
#   From: 2010.05.17/outbox.cif.g08.bks.cpg/sg15_65_cif.got.tgz:129862.got - 2010.06.03 18:47:42.
