data_PCOD9300344
_publ_section_title
;
Structure prediction by ZEFSAII (Michael W. Deem and Ramdas Pophale) SiO2 
 PCOD9300344
Probable space group: C 2/C
;
_chemical_formula_sum "Si O2"
_cell_formula_units_Z 56
_cell_length_a 5.301303
_cell_length_b 14.312323
_cell_length_c 27.274147
_cell_angle_alpha 90.000000
_cell_angle_beta 87.695852
_cell_angle_gamma 90.000000
_cell_volume 2067.724427
_symmetry_space_group_name_H-M "C 2/C"
_symmetry_group_IT_number 15
_symmetry_cell_setting 'monoclinic'
loop_
_space_group_symop_operation_xyz
x,y,z
-x,y,1/2-z
-x,-y,-z
x,-y,1/2+z
1/2+x,1/2+y,z
1/2-x,1/2+y,1/2-z
1/2-x,1/2-y,-z
1/2+x,1/2-y,1/2+z
loop_
_atom_site_type_symbol
_atom_site_label
_atom_site_fract_x
_atom_site_fract_y
_atom_site_fract_z
Si Si1 0.682724 0.419429 0.981012
Si Si2 0.500000 0.512134 0.750000
Si Si3 0.000000 0.693844 0.750000
Si Si4 0.673355 0.846796 0.789629
Si Si5 0.511175 0.068690 0.575430
Si Si6 0.872470 0.688566 0.379715
Si Si7 0.858056 0.780434 0.928880
Si Si8 0.329669 0.389831 0.332479
O O1 0.503611 0.327844 0.974090
O O2 0.821131 0.475884 0.934805
O O3 0.500000 0.500000 0.000000
O O4 0.868800 0.410359 0.025243
O O5 0.281939 0.440243 0.766824
O O6 0.440427 0.560381 0.697489
O O7 0.116305 0.766824 0.709157
O O8 0.171831 0.631374 0.783954
O O9 0.500000 0.800280 0.750000
O O10 0.506819 0.870507 0.837329
O O11 0.645824 0.169386 0.579979
O O12 0.319500 0.058624 0.622639
O O13 0.069185 0.687793 0.424124
O O14 0.573246 0.678695 0.389906
O O15 0.900559 0.792695 0.356899
#
# Coordination Sequence:
#
# PCOD9300344 Si02
#       8
#     8   4   4   8   8   8   8   8
#     4  11  27  49  78 114 153 203 251 338 392 475
#     4  11  28  38  68 105 150 190 250 315 378 446
#     4  11  22  46  76  95 146 196 256 311 366 464
#     4  11  23  44  64 102 145 194 246 306 380 448
#     4  10  26  49  76 114 151 202 260 319 399 473
#     4  11  25  48  77 109 146 207 257 311 384 466
#     4  11  27  48  81 111 152 203 259 317 393 469
#     4  11  24  49  73 109 144 203 259 320 384 462
#
# _framework density 27.082913000000001
#
# number of rings (size 3 to 8) (size 9 to 14) (size 15 to 20)
#    0.000    1.143    1.429    3.000   13.000    0.571 
#    2.571    0.000    0.000    0.000    0.000    0.000 
#    0.000    0.000    0.000    0.000    0.000    0.000 
#
# Total GULP energy -156323.838080 kJ/mol
# GULP energy per Si atom -5582.994217 kJ/mol
# Density = 2.702127 g / cm^3
# Si number density = 27.082913 Si / 1000 Ang^3
#
#
#
# Elastic Constant Matrix: (Units=GPa)
#
#
# Indices 1 2 3 4 5 6 
#
# 1 43.6303 9.5806 12.8488 0.0000 4.5297 0.0000
# 2 9.5806 108.9172 3.7257 0.0000 -8.7612 0.0000
# 3 12.8488 3.7257 127.9838 0.0000 -22.2956 0.0000
# 4 0.0000 0.0000 0.0000 22.8386 0.0000 -19.5607
# 5 4.5297 -8.7612 -22.2956 0.0000 61.5497 0.0000
# 6 0.0000 0.0000 0.0000 -19.5607 0.0000 6.1407
#
#
#
# Elastic Compliance Matrix: (Units=1/GPa)
#
#
# Indices 1 2 3 4 5 6 
#
# 1 0.024638 -0.002325 -0.002967 0.000000 -0.003219 0.000000
# 2 -0.002325 0.009507 0.000237 0.000000 0.001610 0.000000
# 3 -0.002967 0.000237 0.008697 0.000000 0.003403 0.000000
# 4 0.000000 0.000000 0.000000 -0.025335 0.000000 -0.080704
# 5 -0.003219 0.001610 0.003403 0.000000 0.017946 0.000000
# 6 0.000000 0.000000 0.000000 -0.080704 0.000000 -0.094227
#
#
# Mechanical properties :
#
#
# Convention : Reuss Voigt Hill
#
# Bulk Modulus (GPa) = 30.54902 36.98239 33.76571
# Shear Modulus (GPa) = -132.43327 35.06421 -48.68453
#
# Velocity S-wave (km/s) = -7.00038 3.60210 -4.24442
# Velocity P-wave (km/s) = 7.35093 5.56642 3.39493
#
# Compressibility (1/GPa) = 0.03273428
#
# Stress axis : x y z
#
# Youngs Moduli (GPa) = 40.58754 105.18366 114.98021
#
# Poissons Ratio (x) = 0.24452 0.34110
# Poissons Ratio (y) = 0.09435 -0.02727
# Poissons Ratio (z) = 0.12041 -0.02494
#
# Static dielectric constant tensor:
#      x y z
#    x 2.778650 0.000000 0.329730 
#    y 0.000000 2.169330 0.000000 
#    z 0.329730 0.000000 2.546920 
# 
# From -- ./inp_files/305439.got.cif
#   From: 2010.05.17/outbox.cif.g08.bks.cpg/sg15_153_cif.got.tgz:305439.got - 2010.06.03 18:47:42.
