data_PCOD9300684
_publ_section_title
;
Structure prediction by ZEFSAII (Michael W. Deem and Ramdas Pophale) SiO2 
 PCOD9300684
Probable space group: C 2/C
;
_chemical_formula_sum "Si O2"
_cell_formula_units_Z 48
_cell_length_a 25.942335
_cell_length_b 15.997066
_cell_length_c 17.888895
_cell_angle_alpha 90.000000
_cell_angle_beta 18.321533
_cell_angle_gamma 90.000000
_cell_volume 2333.701693
_symmetry_space_group_name_H-M "C 2/C"
_symmetry_group_IT_number 15
_symmetry_cell_setting 'monoclinic'
loop_
_space_group_symop_operation_xyz
x,y,z
-x,y,1/2-z
-x,-y,-z
x,-y,1/2+z
1/2+x,1/2+y,z
1/2-x,1/2+y,1/2-z
1/2-x,1/2-y,-z
1/2+x,1/2-y,1/2+z
loop_
_atom_site_type_symbol
_atom_site_label
_atom_site_fract_x
_atom_site_fract_y
_atom_site_fract_z
Si Si1 0.890450 0.451765 0.061708
Si Si2 0.200195 0.049551 0.605114
Si Si3 0.154321 0.596567 0.494923
Si Si4 0.755535 0.052305 0.122160
Si Si5 0.913466 0.842467 0.530967
Si Si6 0.014406 0.312122 0.810471
O O1 0.751636 0.472771 0.312578
O O2 0.906276 0.534147 0.988253
O O3 0.867575 0.373627 0.038358
O O4 0.062460 0.434129 0.867075
O O5 0.158364 0.036095 0.575258
O O6 0.336645 0.123191 0.409174
O O7 0.265696 0.967645 0.555756
O O8 0.045219 0.084849 0.862230
O O9 0.284038 0.657395 0.276479
O O10 0.000000 0.636163 0.750000
O O11 0.820305 0.128746 0.082926
O O12 0.014438 0.758921 0.372930
O O13 0.000000 0.269647 0.750000
#
# Coordination Sequence:
#
# PCOD9300684 Si02
#       6
#     8   8   8   8   8   8
#     4   9  17  34  56  81 103 153 189 224 272 344
#     4  11  19  36  58  83 112 146 187 236 288 337
#     4  11  19  39  58  77 108 158 196 224 276 349
#     4   9  18  32  55  81 111 141 190 230 277 328
#     4  11  24  31  53  91 118 138 186 247 286 328
#     4  11  19  35  57  85 115 146 184 231 298 329
#
# _framework density 20.568180999999999
#
# number of rings (size 3 to 8) (size 9 to 14) (size 15 to 20)
#    0.000    1.667    5.000    2.500    0.000    1.333 
#    0.000    0.000    0.000    5.000    0.000    0.000 
#    0.000    0.000    0.000    0.000    0.000    0.000 
#
# Total GULP energy -133663.409088 kJ/mol
# GULP energy per Si atom -5569.308712 kJ/mol
# Density = 2.052137 g / cm^3
# Si number density = 20.568181 Si / 1000 Ang^3
#
#
#
# Elastic Constant Matrix: (Units=GPa)
#
#
# Indices 1 2 3 4 5 6 
#
# 1 72.1998 11.1866 27.4490 -0.0005 16.4607 -0.0001
# 2 11.1866 40.1528 13.0577 -0.0010 12.9425 0.0000
# 3 27.4490 13.0577 77.0010 -0.0027 38.1172 0.0008
# 4 -0.0005 -0.0010 -0.0027 25.4143 0.0013 13.2860
# 5 16.4607 12.9425 38.1172 0.0013 34.3141 -0.0002
# 6 -0.0001 0.0000 0.0008 13.2860 -0.0002 16.5125
#
#
#
# Elastic Compliance Matrix: (Units=1/GPa)
#
#
# Indices 1 2 3 4 5 6 
#
# 1 0.016373 -0.002476 -0.004423 0.000000 -0.002007 0.000001
# 2 -0.002476 0.028767 0.001750 0.000003 -0.011606 -0.000003
# 3 -0.004423 0.001750 0.030089 0.000010 -0.031961 -0.000010
# 4 0.000000 0.000003 0.000010 0.067914 -0.000015 -0.054644
# 5 -0.002007 -0.011606 -0.031961 -0.000015 0.069986 0.000014
# 6 0.000001 -0.000003 -0.000010 -0.054644 0.000014 0.104527
#
#
# Mechanical properties :
#
#
# Convention : Reuss Voigt Hill
#
# Bulk Modulus (GPa) = 15.40154 32.52667 23.96411
# Shear Modulus (GPa) = 14.30211 24.42555 19.36383
#
# Velocity S-wave (km/s) = 2.63981 3.44981 3.07163
# Velocity P-wave (km/s) = 4.09827 5.63175 4.92506
#
# Compressibility (1/GPa) = 0.06492856
#
# Stress axis : x y z
#
# Youngs Moduli (GPa) = 61.07490 34.76244 33.23528
#
# Poissons Ratio (x) = 0.08608 0.14701
# Poissons Ratio (y) = 0.15124 -0.05815
# Poissons Ratio (z) = 0.27016 -0.06082
#
# Static dielectric constant tensor:
#      x y z
#    x 1.867110 0.000000 -0.014730 
#    y 0.000000 1.760430 0.000000 
#    z -0.014730 0.000000 1.786880 
# 
# From -- ./inp_files/123824.got.cif
#   From: 2010.05.17/outbox.cif.g08.bks.cpg/sg15_62_cif.got.tgz:123824.got - 2010.06.03 18:47:42.
