data_PCOD9300493
_publ_section_title
;
Structure prediction by ZEFSAII (Michael W. Deem and Ramdas Pophale) SiO2 
 PCOD9300493
Probable space group: C 2/C
;
_chemical_formula_sum "Si O2"
_cell_formula_units_Z 36
_cell_length_a 13.734450
_cell_length_b 13.547149
_cell_length_c 7.567124
_cell_angle_alpha 90.000000
_cell_angle_beta 66.686481
_cell_angle_gamma 90.000000
_cell_volume 1293.003476
_symmetry_space_group_name_H-M "C 2/C"
_symmetry_group_IT_number 15
_symmetry_cell_setting 'monoclinic'
loop_
_space_group_symop_operation_xyz
x,y,z
-x,y,1/2-z
-x,-y,-z
x,-y,1/2+z
1/2+x,1/2+y,z
1/2-x,1/2+y,1/2-z
1/2-x,1/2-y,-z
1/2+x,1/2-y,1/2+z
loop_
_atom_site_type_symbol
_atom_site_label
_atom_site_fract_x
_atom_site_fract_y
_atom_site_fract_z
Si Si1 0.500000 0.274682 0.250000
Si Si2 0.686780 0.854708 0.493482
Si Si3 0.149453 0.107762 0.903852
Si Si4 0.417324 0.939815 0.441134
Si Si5 0.704946 0.613580 0.255286
O O1 0.422379 0.200263 0.406180
O O2 0.441023 0.341283 0.147207
O O3 0.738174 0.857545 0.262843
O O4 0.779294 0.830046 0.570058
O O5 0.657774 0.969259 0.568848
O O6 0.154359 0.990936 0.855405
O O7 0.144994 0.133666 0.114048
O O8 0.500000 0.888505 0.250000
O O9 0.328913 0.876852 0.601930
O O10 0.500000 0.000000 0.500000
#
# Coordination Sequence:
#
# PCOD9300493 Si02
#       5
#     4   8   8   8   8
#     4  12  26  44  66  98 142 174 212 276 344 400
#     4  11  22  43  63  94 136 170 214 279 332 388
#     4  11  24  43  70  97 130 177 227 270 330 391
#     4  11  16  29  58  91 118 157 214 262 313 372
#     4  11  21  41  68  96 128 175 225 275 320 390
#
# _framework density 27.842151999999999
#
# number of rings (size 3 to 8) (size 9 to 14) (size 15 to 20)
#    0.000    0.889    7.778    2.000    0.000    1.778 
#    0.000    2.222    0.000    0.000    0.000    0.000 
#    0.000    0.000    0.000    0.000    0.000    0.000 
#
# Total GULP energy -100677.884841 kJ/mol
# GULP energy per Si atom -5593.215824 kJ/mol
# Density = 2.777878 g / cm^3
# Si number density = 27.842152 Si / 1000 Ang^3
#
#
#
# Elastic Constant Matrix: (Units=GPa)
#
#
# Indices 1 2 3 4 5 6 
#
# 1 99.8702 41.5131 37.8443 0.0000 39.2708 0.0000
# 2 41.5131 65.1585 30.2506 0.0000 -4.2643 0.0000
# 3 37.8443 30.2506 140.2939 0.0000 37.6502 0.0000
# 4 0.0000 0.0000 0.0000 32.3273 0.0000 8.9044
# 5 39.2708 -4.2643 37.6502 0.0000 62.3160 0.0000
# 6 0.0000 0.0000 0.0000 8.9044 0.0000 59.8856
#
#
#
# Elastic Compliance Matrix: (Units=1/GPa)
#
#
# Indices 1 2 3 4 5 6 
#
# 1 0.022558 -0.016305 0.001844 0.000000 -0.016446 0.000000
# 2 -0.016305 0.029738 -0.006347 0.000000 0.016144 0.000000
# 3 0.001844 -0.006347 0.010058 0.000000 -0.007673 0.000000
# 4 0.000000 0.000000 0.000000 0.032255 0.000000 -0.004796
# 5 -0.016446 0.016144 -0.007673 0.000000 0.032152 0.000000
# 6 0.000000 0.000000 0.000000 -0.004796 0.000000 0.017412
#
#
# Mechanical properties :
#
#
# Convention : Reuss Voigt Hill
#
# Bulk Modulus (GPa) = 48.21542 58.28206 53.24874
# Shear Modulus (GPa) = 25.94697 43.95343 34.95020
#
# Velocity S-wave (km/s) = 3.05607 3.97755 3.54686
# Velocity P-wave (km/s) = 5.45965 6.48637 5.99503
#
# Compressibility (1/GPa) = 0.02074025
#
# Stress axis : x y z
#
# Youngs Moduli (GPa) = 44.32951 33.62693 99.42093
#
# Poissons Ratio (x) = 0.54827 -0.18334
# Poissons Ratio (y) = 0.72277 0.63099
# Poissons Ratio (z) = -0.08175 0.21342
#
# Static dielectric constant tensor:
#      x y z
#    x 2.180490 0.000000 0.029850 
#    y 0.000000 2.496200 0.000000 
#    z 0.029850 0.000000 2.224160 
# 
# From -- ./inp_files/37509.got.cif
#   From: 2010.05.17/outbox.cif.g08.bks.cpg/sg15_19_cif.got.tgz:37509.got - 2010.06.03 18:47:42.
