data_PCOD9300087
_publ_section_title
;
Structure prediction by ZEFSAII (Michael W. Deem and Ramdas Pophale) SiO2 
 PCOD9300087
Probable space group: C 2/C
;
_chemical_formula_sum "Si O2"
_cell_formula_units_Z 52
_cell_length_a 21.704374
_cell_length_b 5.172626
_cell_length_c 22.412733
_cell_angle_alpha 90.000000
_cell_angle_beta 117.063982
_cell_angle_gamma 90.000000
_cell_volume 2240.714868
_symmetry_space_group_name_H-M "C 2/C"
_symmetry_group_IT_number 15
_symmetry_cell_setting 'monoclinic'
loop_
_space_group_symop_operation_xyz
x,y,z
-x,y,1/2-z
-x,-y,-z
x,-y,1/2+z
1/2+x,1/2+y,z
1/2-x,1/2+y,1/2-z
1/2-x,1/2-y,-z
1/2+x,1/2-y,1/2+z
loop_
_atom_site_type_symbol
_atom_site_label
_atom_site_fract_x
_atom_site_fract_y
_atom_site_fract_z
Si Si1 0.772490 0.884815 0.071786
Si Si2 0.703526 0.767433 0.234050
Si Si3 0.413295 0.689649 0.118553
Si Si4 0.930235 0.871161 0.490051
Si Si5 0.369107 0.053807 0.193679
Si Si6 0.500000 0.641442 0.750000
Si Si7 0.859566 0.382336 0.419393
O O1 0.835876 0.072794 0.085832
O O2 0.803353 0.706273 0.138712
O O3 0.704879 0.004859 0.072288
O O4 0.750000 0.750000 0.000000
O O5 0.734652 0.479872 0.244220
O O6 0.660068 0.836387 0.274503
O O7 0.657365 0.819812 0.156003
O O8 0.405186 0.957029 0.148895
O O9 0.464752 0.526583 0.182520
O O10 0.435853 0.705559 0.061252
O O11 0.915091 0.609470 0.447720
O O12 0.876103 0.107301 0.457420
O O13 0.000000 0.000000 0.500000
O O14 0.433741 0.209463 0.249481
#
# Coordination Sequence:
#
# PCOD9300087 Si02
#       7
#     8   8   8   8   8   4   8
#     4  11  22  42  72 104 142 180 239 301 365 427
#     4  12  26  46  74 109 151 186 240 301 374 439
#     4  11  25  45  73 102 144 188 249 299 363 437
#     4  12  29  48  73 105 148 194 244 297 367 443
#     4  11  25  44  71 105 144 191 244 303 361 442
#     4  10  26  44  68 104 136 198 244 298 364 428
#     4  12  26  47  73 108 144 194 238 302 370 431
#
# _framework density 23.206880999999999
#
# number of rings (size 3 to 8) (size 9 to 14) (size 15 to 20)
#    0.000    0.615    3.077    3.692    8.615    3.692 
#    0.000    0.000    0.000    0.000    0.000    0.000 
#    0.000    0.000    0.000    0.000    0.000    0.000 
#
# Total GULP energy -145477.001341 kJ/mol
# GULP energy per Si atom -5595.269282 kJ/mol
# Density = 2.315406 g / cm^3
# Si number density = 23.206881 Si / 1000 Ang^3
#
#
#
# Elastic Constant Matrix: (Units=GPa)
#
#
# Indices 1 2 3 4 5 6 
#
# 1 56.7544 -9.7362 23.9527 -0.0030 -4.5363 -0.0045
# 2 -9.7362 59.9033 14.0031 -0.0064 9.1827 0.0013
# 3 23.9527 14.0031 95.2585 -0.0008 -2.9628 -0.0054
# 4 -0.0030 -0.0064 -0.0008 10.0879 -0.0006 -16.3776
# 5 -4.5363 9.1827 -2.9628 -0.0006 42.7123 -0.0044
# 6 -0.0045 0.0013 -0.0054 -16.3776 -0.0044 -26.4490
#
#
#
# Elastic Compliance Matrix: (Units=1/GPa)
#
#
# Indices 1 2 3 4 5 6 
#
# 1 0.020994 0.004677 -0.005941 0.000003 0.000812 -0.000004
# 2 0.004677 0.019003 -0.004090 0.000008 -0.003873 -0.000003
# 3 -0.005941 -0.004090 0.012628 -0.000003 0.001124 0.000000
# 4 0.000003 0.000008 -0.000003 0.049434 -0.000004 -0.030610
# 5 0.000812 -0.003873 0.001124 -0.000004 0.024409 -0.000002
# 6 -0.000004 -0.000003 0.000000 -0.030610 -0.000002 -0.018854
#
#
# Mechanical properties :
#
#
# Convention : Reuss Voigt Hill
#
# Bulk Modulus (GPa) = 23.85689 29.81725 26.83707
# Shear Modulus (GPa) = 37.79418 17.51667 27.65542
#
# Velocity S-wave (km/s) = 4.03994 2.75035 3.45583
# Velocity P-wave (km/s) = 5.66250 4.79190 5.24529
#
# Compressibility (1/GPa) = 0.04191660
#
# Stress axis : x y z
#
# Youngs Moduli (GPa) = 47.63171 52.62228 79.19002
#
# Poissons Ratio (x) = -0.24609 0.47049
# Poissons Ratio (y) = -0.22276 0.32388
# Poissons Ratio (z) = 0.28299 0.21522
#
# Static dielectric constant tensor:
#      x y z
#    x 2.197780 0.000020 0.092620 
#    y 0.000020 2.063960 -0.000010 
#    z 0.092620 -0.000010 1.878650 
# 
# From -- ./inp_files/254409.got.cif
#   From: 2010.05.17/outbox.cif.g08.bks.cpg/sg15_128_cif.got.tgz:254409.got - 2010.06.03 18:47:42.
