data_PCOD9300354
_publ_section_title
;
Structure prediction by ZEFSAII (Michael W. Deem and Ramdas Pophale) SiO2 
 PCOD9300354
Probable space group: C 2/C
;
_chemical_formula_sum "Si O2"
_cell_formula_units_Z 56
_cell_length_a 18.934628
_cell_length_b 18.657306
_cell_length_c 21.717249
_cell_angle_alpha 90.000000
_cell_angle_beta 162.920628
_cell_angle_gamma 90.000000
_cell_volume 2253.247215
_symmetry_space_group_name_H-M "C 2/C"
_symmetry_group_IT_number 15
_symmetry_cell_setting 'monoclinic'
loop_
_space_group_symop_operation_xyz
x,y,z
-x,y,1/2-z
-x,-y,-z
x,-y,1/2+z
1/2+x,1/2+y,z
1/2-x,1/2+y,1/2-z
1/2-x,1/2-y,-z
1/2+x,1/2-y,1/2+z
loop_
_atom_site_type_symbol
_atom_site_label
_atom_site_fract_x
_atom_site_fract_y
_atom_site_fract_z
Si Si1 0.086505 0.831019 0.635633
Si Si2 0.481583 0.093004 0.049694
Si Si3 0.234970 0.761439 0.329256
Si Si4 0.132464 0.167267 0.303379
Si Si5 0.928019 0.612287 0.759507
Si Si6 0.572682 0.497469 0.740806
Si Si7 0.636857 0.054127 0.306956
O O1 0.829562 0.867456 0.427871
O O2 0.291282 0.893039 0.804043
O O3 0.136502 0.780134 0.619756
O O4 0.123324 0.792344 0.731967
O O5 0.598857 0.101063 0.215578
O O6 0.290713 0.154402 0.875058
O O7 0.334656 0.019971 0.934815
O O8 0.436967 0.743734 0.558598
O O9 0.390149 0.147107 0.541834
O O10 0.000000 0.203126 0.250000
O O11 0.019251 0.087406 0.198289
O O12 0.965720 0.526320 0.789056
O O13 0.000000 0.635892 0.750000
O O14 0.500000 0.523206 0.750000
O O15 0.400212 0.536554 0.549158
O O16 0.500000 0.088729 0.250000
#
# Coordination Sequence:
#
# PCOD9300354 Si02
#       7
#     8   8   8   8   8   8   8
#     4  11  25  41  66  96 132 181 221 286 337 404
#     4  11  25  41  66  96 132 181 221 286 337 404
#     4  10  26  50  68  88 130 186 234 282 346 388
#     4  11  20  39  64 101 142 176 215 270 342 417
#     4  11  20  38  65 100 142 177 214 271 342 417
#     4  11  20  38  65 100 142 177 214 271 342 417
#     4  11  20  39  64 101 142 176 215 270 342 417
#
# _framework density 24.853020999999998
#
# number of rings (size 3 to 8) (size 9 to 14) (size 15 to 20)
#    0.000    1.143    5.714    1.714    8.000    1.143 
#    0.000    0.000    0.000   20.571    0.000    0.000 
#    0.000    0.000    0.000    0.000    0.000    0.000 
#
# Total GULP energy -155986.082496 kJ/mol
# GULP energy per Si atom -5570.931518 kJ/mol
# Density = 2.479645 g / cm^3
# Si number density = 24.853021 Si / 1000 Ang^3
#
#
#
# Elastic Constant Matrix: (Units=GPa)
#
#
# Indices 1 2 3 4 5 6 
#
# 1 78.2317 45.8712 14.2724 -5.7372 -14.1855 -0.4763
# 2 45.8712 87.6139 14.4192 -1.3311 -4.8412 0.1551
# 3 14.2724 14.4192 123.3669 -9.6782 -7.4399 -0.9248
# 4 -5.7372 -1.3311 -9.6782 3718.1538 -1.1287 264.0248
# 5 -14.1855 -4.8412 -7.4399 -1.1287 42.5488 0.0059
# 6 -0.4763 0.1551 -0.9248 264.0248 0.0059 119.3871
#
#
#
# Elastic Compliance Matrix: (Units=1/GPa)
#
#
# Indices 1 2 3 4 5 6 
#
# 1 0.019686 -0.009882 -0.000801 0.000024 0.005299 0.000032
# 2 -0.009882 0.016649 -0.000898 -0.000009 -0.001557 -0.000049
# 3 -0.000801 -0.000898 0.008371 0.000019 0.001095 0.000021
# 4 0.000024 -0.000009 0.000019 0.000319 0.000019 -0.000706
# 5 0.005299 -0.001557 0.001095 0.000019 0.025284 -0.000012
# 6 0.000032 -0.000049 0.000021 -0.000706 -0.000012 0.009937
#
#
# Mechanical properties :
#
#
# Convention : Reuss Voigt Hill
#
# Bulk Modulus (GPa) = 46.41330 48.70423 47.55877
# Shear Modulus (GPa) = 45.21290 790.32791 417.77041
#
# Velocity S-wave (km/s) = 4.26985 17.85192 12.97927
# Velocity P-wave (km/s) = 6.55930 21.08461 15.61386
#
# Compressibility (1/GPa) = 0.02154555
#
# Stress axis : x y z
#
# Youngs Moduli (GPa) = 50.79840 60.06352 119.45770
#
# Poissons Ratio (x) = 0.59353 0.09565
# Poissons Ratio (y) = 0.50198 0.10724
# Poissons Ratio (z) = 0.04068 0.05392
#
# Static dielectric constant tensor:
#      x y z
#    x 2.005550 -0.000030 -0.088390 
#    y -0.000030 1.975720 -0.000140 
#    z -0.088390 -0.000140 2.189870 
# 
# From -- ./inp_files/250050.got.cif
#   From: 2010.05.17/outbox.cif.g08.bks.cpg/sg15_126_cif.got.tgz:250050.got - 2010.06.03 18:47:42.
