data_PCOD9300134
_publ_section_title
;
Structure prediction by ZEFSAII (Michael W. Deem and Ramdas Pophale) SiO2 
 PCOD9300134
Probable space group: C 2/C
;
_chemical_formula_sum "Si O2"
_cell_formula_units_Z 44
_cell_length_a 25.241031
_cell_length_b 10.468740
_cell_length_c 8.326249
_cell_angle_alpha 90.000000
_cell_angle_beta 54.945478
_cell_angle_gamma 90.000000
_cell_volume 1801.049920
_symmetry_space_group_name_H-M "C 2/C"
_symmetry_group_IT_number 15
_symmetry_cell_setting 'monoclinic'
loop_
_space_group_symop_operation_xyz
x,y,z
-x,y,1/2-z
-x,-y,-z
x,-y,1/2+z
1/2+x,1/2+y,z
1/2-x,1/2+y,1/2-z
1/2-x,1/2-y,-z
1/2+x,1/2-y,1/2+z
loop_
_atom_site_type_symbol
_atom_site_label
_atom_site_fract_x
_atom_site_fract_y
_atom_site_fract_z
Si Si1 0.634428 0.929060 0.341653
Si Si2 0.500000 0.000000 0.000000
Si Si3 0.280946 0.120003 0.509279
Si Si4 0.359363 0.555044 0.657941
Si Si5 0.406451 0.323624 0.746568
Si Si6 0.533166 0.289109 0.363017
O O1 0.563743 0.981118 0.507492
O O2 0.670029 0.864877 0.428454
O O3 0.616691 0.821793 0.238733
O O4 0.681037 0.037047 0.188595
O O5 0.468544 0.137188 0.113768
O O6 0.250000 0.250000 0.500000
O O7 0.216994 0.049303 0.683323
O O8 0.382218 0.411278 0.643438
O O9 0.377610 0.617275 0.457079
O O10 0.399313 0.641524 0.717427
O O11 0.483566 0.330933 0.591855
O O12 0.500000 0.321606 0.250000
#
# Coordination Sequence:
#
# PCOD9300134 Si02
#       6
#     8   4   8   8   8   8
#     4  11  29  50  79 117 153 208 271 332 412 485
#     4  10  26  44  78 108 156 196 264 342 398 476
#     4  12  30  49  78 111 158 206 262 326 404 492
#     4  12  26  47  74 107 157 210 257 327 404 476
#     4  11  27  47  77 109 157 205 269 332 398 480
#     4  11  25  45  78 114 156 204 271 330 406 477
#
# _framework density 24.430194
#
# number of rings (size 3 to 8) (size 9 to 14) (size 15 to 20)
#    0.000    0.727    0.000    4.364   20.364    2.909 
#    0.000    0.000    0.000    0.000    0.000    0.000 
#    0.000    0.000    0.000    0.000    0.000    0.000 
#
# Total GULP energy -122676.981820 kJ/mol
# GULP energy per Si atom -5576.226446 kJ/mol
# Density = 2.437459 g / cm^3
# Si number density = 24.430194 Si / 1000 Ang^3
#
#
#
# Elastic Constant Matrix: (Units=GPa)
#
#
# Indices 1 2 3 4 5 6 
#
# 1 166.4006 12.1401 33.7942 0.0000 -16.8015 0.0000
# 2 12.1401 51.2596 14.6342 0.0000 -1.1091 0.0000
# 3 33.7942 14.6342 80.5617 0.0000 -7.9737 0.0000
# 4 0.0000 0.0000 0.0000 61.6339 0.0000 -18.9645
# 5 -16.8015 -1.1091 -7.9737 0.0000 48.1583 0.0000
# 6 0.0000 0.0000 0.0000 -18.9645 0.0000 50.3052
#
#
#
# Elastic Compliance Matrix: (Units=1/GPa)
#
#
# Indices 1 2 3 4 5 6 
#
# 1 0.006773 -0.000850 -0.002496 0.000000 0.001930 0.000000
# 2 -0.000850 0.020683 -0.003439 0.000000 -0.000390 0.000000
# 3 -0.002496 -0.003439 0.014224 0.000000 0.001405 0.000000
# 4 0.000000 0.000000 0.000000 0.018354 0.000000 0.006919
# 5 0.001930 -0.000390 0.001405 0.000000 0.021662 0.000000
# 6 0.000000 0.000000 0.000000 0.006919 0.000000 0.022487
#
#
# Mechanical properties :
#
#
# Convention : Reuss Voigt Hill
#
# Bulk Modulus (GPa) = 35.57409 46.59545 41.08477
# Shear Modulus (GPa) = 39.33193 47.86306 43.59749
#
# Velocity S-wave (km/s) = 4.01680 4.43106 4.22900
# Velocity P-wave (km/s) = 6.00883 6.73003 6.37963
#
# Compressibility (1/GPa) = 0.02811035
#
# Stress axis : x y z
#
# Youngs Moduli (GPa) = 147.63672 48.34833 70.30555
#
# Poissons Ratio (x) = 0.04109 0.17547
# Poissons Ratio (y) = 0.12547 0.24180
# Poissons Ratio (z) = 0.36848 0.16628
#
# Static dielectric constant tensor:
#      x y z
#    x 1.909570 0.000000 -0.007380 
#    y 0.000000 1.981360 0.000000 
#    z -0.007380 0.000000 2.029840 
# 
# From -- ./inp_files/60811.got.cif
#   From: 2010.05.17/outbox.cif.g08.bks.cpg/sg15_31_cif.got.tgz:60811.got - 2010.06.03 18:47:42.
