data_PCOD9300971
_publ_section_title
;
Structure prediction by ZEFSAII (Michael W. Deem and Ramdas Pophale) SiO2 
 PCOD9300971
Probable space group: C 2/C
;
_chemical_formula_sum "Si O2"
_cell_formula_units_Z 64
_cell_length_a 17.318045
_cell_length_b 12.168157
_cell_length_c 21.617676
_cell_angle_alpha 90.000000
_cell_angle_beta 144.900374
_cell_angle_gamma 90.000000
_cell_volume 2619.391716
_symmetry_space_group_name_H-M "C 2/C"
_symmetry_group_IT_number 15
_symmetry_cell_setting 'monoclinic'
loop_
_space_group_symop_operation_xyz
x,y,z
-x,y,1/2-z
-x,-y,-z
x,-y,1/2+z
1/2+x,1/2+y,z
1/2-x,1/2+y,1/2-z
1/2-x,1/2-y,-z
1/2+x,1/2-y,1/2+z
loop_
_atom_site_type_symbol
_atom_site_label
_atom_site_fract_x
_atom_site_fract_y
_atom_site_fract_z
Si Si1 0.345967 0.923037 0.653191
Si Si2 0.631924 0.166814 0.200419
Si Si3 0.029630 0.877746 0.995628
Si Si4 0.783631 0.451870 0.389239
Si Si5 0.379287 0.632650 0.272149
Si Si6 0.375007 0.266332 0.004529
Si Si7 0.479346 0.940659 0.406621
Si Si8 0.342437 0.152418 0.696158
O O1 0.500000 0.885677 0.750000
O O2 0.310926 0.887310 0.700220
O O3 0.229625 0.859248 0.540781
O O4 0.350627 0.055197 0.650363
O O5 0.753796 0.175907 0.232732
O O6 0.541219 0.070880 0.112672
O O7 0.514371 0.255310 0.135074
O O8 0.995058 0.867848 0.900157
O O9 0.943653 0.799725 0.983877
O O10 0.185095 0.853169 0.107930
O O11 0.000000 0.000000 0.000000
O O12 0.653171 0.511596 0.275545
O O13 0.785078 0.344150 0.433472
O O14 0.871408 0.411688 0.387804
O O15 0.866199 0.557033 0.472188
O O16 0.386233 0.721259 0.221575
O O17 0.434589 0.887732 0.313847
#
# Coordination Sequence:
#
# PCOD9300971 Si02
#       8
#     8   8   8   8   8   8   8   8
#     4  11  24  42  59  81 120 170 210 241 295 364
#     4   9  18  34  54  84 113 150 194 242 297 364
#     4  12  21  33  54  93 130 150 186 251 313 358
#     4   9  18  31  52  84 120 153 187 232 305 377
#     4  11  21  32  59  93 125 154 186 249 320 362
#     4  11  20  35  58  86 119 156 196 254 306 356
#     4   8  16  30  49  74 117 153 183 223 290 364
#     4  11  22  36  56  87 118 157 199 244 300 361
#
# _framework density 24.433153999999998
#
# number of rings (size 3 to 8) (size 9 to 14) (size 15 to 20)
#    0.000    1.750    3.750    3.000    1.750    1.500 
#    0.000    0.000    0.000    1.500    0.000    0.000 
#    0.000    0.000    0.000    0.000    0.000    0.000 
#
# Total GULP energy -178270.920814 kJ/mol
# GULP energy per Si atom -5570.966275 kJ/mol
# Density = 2.437754 g / cm^3
# Si number density = 24.433154 Si / 1000 Ang^3
#
#
#
# Elastic Constant Matrix: (Units=GPa)
#
#
# Indices 1 2 3 4 5 6 
#
# 1 51.9740 18.5950 19.3670 0.0000 12.7467 0.0000
# 2 18.5950 115.4871 17.2076 0.0000 -4.7035 0.0000
# 3 19.3670 17.2076 57.9659 -0.0001 -3.5484 0.0000
# 4 0.0000 0.0000 -0.0001 27.0090 0.0000 1.3210
# 5 12.7467 -4.7035 -3.5484 0.0000 26.9503 0.0000
# 6 0.0000 0.0000 0.0000 1.3210 0.0000 -8.9107
#
#
#
# Elastic Compliance Matrix: (Units=1/GPa)
#
#
# Indices 1 2 3 4 5 6 
#
# 1 0.027576 -0.003701 -0.009026 0.000000 -0.014877 0.000000
# 2 -0.003701 0.009598 -0.001414 0.000000 0.003239 0.000000
# 3 -0.009026 -0.001414 0.021103 0.000000 0.006801 0.000000
# 4 0.000000 0.000000 0.000000 0.036758 0.000000 0.005449
# 5 -0.014877 0.003239 0.006801 0.000000 0.045602 0.000000
# 6 0.000000 0.000000 0.000000 0.005449 0.000000 -0.111417
#
#
# Mechanical properties :
#
#
# Convention : Reuss Voigt Hill
#
# Bulk Modulus (GPa) = 33.33868 37.30735 35.32302
# Shear Modulus (GPa) = 74.07232 20.36022 47.21627
#
# Velocity S-wave (km/s) = 5.51200 2.88983 4.40075
# Velocity P-wave (km/s) = 7.36098 5.14170 6.34906
#
# Compressibility (1/GPa) = 0.02999519
#
# Stress axis : x y z
#
# Youngs Moduli (GPa) = 36.26286 104.19304 47.38631
#
# Poissons Ratio (x) = 0.38565 0.42769
# Poissons Ratio (y) = 0.13422 0.06701
# Poissons Ratio (z) = 0.32729 0.14735
#
# Static dielectric constant tensor:
#      x y z
#    x 1.963440 0.000000 0.019870 
#    y 0.000000 2.055670 0.000000 
#    z 0.019870 0.000000 2.063180 
# 
# From -- ./inp_files/300861.got.cif
#   From: 2010.05.17/outbox.cif.g08.bks.cpg/sg15_151_cif.got.tgz:300861.got - 2010.06.03 18:47:42.
