data_PCOD9300889
_publ_section_title
;
Structure prediction by ZEFSAII (Michael W. Deem and Ramdas Pophale) SiO2 
 PCOD9300889
Probable space group: C 2/C
;
_chemical_formula_sum "Si O2"
_cell_formula_units_Z 56
_cell_length_a 17.778318
_cell_length_b 25.538388
_cell_length_c 9.008859
_cell_angle_alpha 90.000000
_cell_angle_beta 129.085019
_cell_angle_gamma 90.000000
_cell_volume 3174.928077
_symmetry_space_group_name_H-M "C 2/C"
_symmetry_group_IT_number 15
_symmetry_cell_setting 'monoclinic'
loop_
_space_group_symop_operation_xyz
x,y,z
-x,y,1/2-z
-x,-y,-z
x,-y,1/2+z
1/2+x,1/2+y,z
1/2-x,1/2+y,1/2-z
1/2-x,1/2-y,-z
1/2+x,1/2-y,1/2+z
loop_
_atom_site_type_symbol
_atom_site_label
_atom_site_fract_x
_atom_site_fract_y
_atom_site_fract_z
Si Si1 0.784165 0.281747 0.326340
Si Si2 0.500000 0.407927 0.750000
Si Si3 0.295178 0.825312 0.675755
Si Si4 0.001728 0.283409 0.933969
Si Si5 0.580742 0.678208 0.567683
Si Si6 0.000000 0.133613 0.750000
Si Si7 0.607305 0.508492 0.206438
Si Si8 0.173302 0.929335 0.531948
O O1 0.764689 0.218859 0.305584
O O2 0.786651 0.302969 0.498308
O O3 0.887942 0.297726 0.391620
O O4 0.687659 0.308271 0.143834
O O5 0.461532 0.369353 0.576070
O O6 0.415201 0.445863 0.702910
O O7 0.410243 0.820813 0.852852
O O8 0.253033 0.883740 0.632053
O O9 0.000000 0.273841 0.750000
O O10 0.980169 0.231472 0.002628
O O11 0.572866 0.663773 0.732773
O O12 0.928777 0.099440 0.562366
O O13 0.650966 0.459011 0.349161
O O14 0.500000 0.500000 0.000000
O O15 0.680334 0.528350 0.171081
#
# Coordination Sequence:
#
# PCOD9300889 Si02
#       8
#     8   4   8   8   8   4   8   8
#     4   9  17  30  51  81 105 139 179 214 260 320
#     4  12  23  34  48  82 114 144 172 215 268 326
#     4   9  18  29  51  81 107 133 177 221 268 300
#     4   9  17  32  52  81 107 134 184 228 244 312
#     4  11  20  31  52  79 112 146 172 211 271 317
#     4  12  17  28  54  72 108 144 166 211 264 304
#     4  12  22  35  49  75 112 139 179 213 264 322
#     4  12  21  33  51  76 108 140 170 220 266 317
#
# _framework density 17.638195
#
# number of rings (size 3 to 8) (size 9 to 14) (size 15 to 20)
#    0.000    1.429    6.429    1.714    0.000    0.000 
#    0.000    0.714    0.000    0.000    0.000   16.000 
#    0.000    0.000    0.000    0.000    0.000    0.000 
#
# Total GULP energy -155875.940851 kJ/mol
# GULP energy per Si atom -5566.997888 kJ/mol
# Density = 1.759805 g / cm^3
# Si number density = 17.638195 Si / 1000 Ang^3
#
#
#
# Elastic Constant Matrix: (Units=GPa)
#
#
# Indices 1 2 3 4 5 6 
#
# 1 81.8670 49.1817 37.0438 0.0000 25.3037 0.0000
# 2 49.1817 109.0147 36.6806 0.0000 9.5981 0.0000
# 3 37.0438 36.6806 31.5136 0.0000 9.9003 0.0000
# 4 0.0000 0.0000 0.0000 22.1464 0.0000 -1.5947
# 5 25.3037 9.5981 9.9003 0.0000 27.1842 0.0000
# 6 0.0000 0.0000 0.0000 -1.5947 0.0000 19.5338
#
#
#
# Elastic Compliance Matrix: (Units=1/GPa)
#
#
# Indices 1 2 3 4 5 6 
#
# 1 0.033568 -0.003631 -0.029154 0.000000 -0.019346 0.000000
# 2 -0.003631 0.015506 -0.014818 0.000000 0.003301 0.000000
# 3 -0.029154 -0.014818 0.082523 0.000000 0.002315 0.000000
# 4 0.000000 0.000000 0.000000 0.045421 0.000000 0.003708
# 5 -0.019346 0.003301 0.002315 0.000000 0.052785 0.000000
# 6 0.000000 0.000000 0.000000 0.003708 0.000000 0.051496
#
#
# Mechanical properties :
#
#
# Convention : Reuss Voigt Hill
#
# Bulk Modulus (GPa) = 27.47952 52.02303 39.75127
# Shear Modulus (GPa) = 12.86556 20.40552 16.63554
#
# Velocity S-wave (km/s) = 2.70370 3.40500 3.07441
# Velocity P-wave (km/s) = 5.03587 6.70949 5.93200
#
# Compressibility (1/GPa) = 0.03639074
#
# Stress axis : x y z
#
# Youngs Moduli (GPa) = 29.79069 64.48993 12.11786
#
# Poissons Ratio (x) = 0.23416 0.35329
# Poissons Ratio (y) = 0.10817 0.17956
# Poissons Ratio (z) = 0.86852 0.95559
#
# Static dielectric constant tensor:
#      x y z
#    x 1.620770 0.000000 -0.019820 
#    y 0.000000 1.644410 0.000000 
#    z -0.019820 0.000000 1.660770 
# 
# From -- ./inp_files/52074.got.cif
#   From: 2010.05.17/outbox.cif.g08.bks.cpg/sg15_27_cif.got.tgz:52074.got - 2010.06.03 18:47:42.
