data_PCOD9300761
_publ_section_title
;
Structure prediction by ZEFSAII (Michael W. Deem and Ramdas Pophale) SiO2 
 PCOD9300761
Probable space group: C 2/C
;
_chemical_formula_sum "Si O2"
_cell_formula_units_Z 32
_cell_length_a 9.195153
_cell_length_b 11.034932
_cell_length_c 21.875780
_cell_angle_alpha 90.000000
_cell_angle_beta 145.695363
_cell_angle_gamma 90.000000
_cell_volume 1251.001080
_symmetry_space_group_name_H-M "C 2/C"
_symmetry_group_IT_number 15
_symmetry_cell_setting 'monoclinic'
loop_
_space_group_symop_operation_xyz
x,y,z
-x,y,1/2-z
-x,-y,-z
x,-y,1/2+z
1/2+x,1/2+y,z
1/2-x,1/2+y,1/2-z
1/2-x,1/2-y,-z
1/2+x,1/2-y,1/2+z
loop_
_atom_site_type_symbol
_atom_site_label
_atom_site_fract_x
_atom_site_fract_y
_atom_site_fract_z
Si Si1 0.423203 0.467050 0.128573
Si Si2 0.611630 0.606597 0.092308
Si Si3 0.445401 0.812127 0.961397
Si Si4 0.625772 0.113391 0.197291
O O1 0.497015 0.485859 0.083091
O O2 0.237445 0.580893 0.078808
O O3 0.694428 0.495512 0.255987
O O4 0.244281 0.351988 0.076523
O O5 0.718713 0.671498 0.191714
O O6 0.855670 0.580167 0.134189
O O7 0.412346 0.691319 0.988368
O O8 0.399892 0.809602 0.872885
#
# Coordination Sequence:
#
# PCOD9300761 Si02
#       4
#     8   8   8   8
#     4   9  21  37  57  94 125 151 217 257 300 381
#     4   9  20  39  57  85 126 160 203 259 304 373
#     4  11  19  37  65  86 122 168 197 257 325 357
#     4   9  20  39  56  88 125 159 204 261 301 375
#
# _framework density 25.579514
#
# number of rings (size 3 to 8) (size 9 to 14) (size 15 to 20)
#    1.500    1.000    0.000    2.250    0.000    1.000 
#   18.000    0.000    0.000    0.000    0.000    0.000 
#    0.000    0.000    0.000    0.000    0.000    0.000 
#
# Total GULP energy -89295.726325 kJ/mol
# GULP energy per Si atom -5580.982895 kJ/mol
# Density = 2.552129 g / cm^3
# Si number density = 25.579514 Si / 1000 Ang^3
#
#
#
# Elastic Constant Matrix: (Units=GPa)
#
#
# Indices 1 2 3 4 5 6 
#
# 1 99.4182 8.6774 25.0469 0.0000 9.6989 0.0000
# 2 8.6774 41.1589 2.9890 0.0000 -5.1668 0.0000
# 3 25.0469 2.9890 90.7125 -0.0001 -34.1597 0.0000
# 4 0.0000 0.0000 -0.0001 15.1653 -0.0001 8.4711
# 5 9.6989 -5.1668 -34.1597 -0.0001 46.5588 0.0000
# 6 0.0000 0.0000 0.0000 8.4711 0.0000 34.1608
#
#
#
# Elastic Compliance Matrix: (Units=1/GPa)
#
#
# Indices 1 2 3 4 5 6 
#
# 1 0.012642 -0.003161 -0.006232 0.000000 -0.007557 0.000000
# 2 -0.003161 0.025436 0.001859 0.000000 0.004845 0.000000
# 3 -0.006232 0.001859 0.018308 0.000000 0.014937 0.000000
# 4 0.000000 0.000000 0.000000 0.076543 0.000000 -0.018981
# 5 -0.007557 0.004845 0.014937 0.000000 0.034549 0.000000
# 6 0.000000 0.000000 0.000000 -0.018981 0.000000 0.033980
#
#
# Mechanical properties :
#
#
# Convention : Reuss Voigt Hill
#
# Bulk Modulus (GPa) = 24.20251 33.85739 29.02995
# Shear Modulus (GPa) = 21.71100 32.14872 26.92986
#
# Velocity S-wave (km/s) = 2.91652 3.54900 3.24819
# Velocity P-wave (km/s) = 4.56329 5.48259 5.04393
#
# Compressibility (1/GPa) = 0.04131802
#
# Stress axis : x y z
#
# Youngs Moduli (GPa) = 79.10328 39.31468 54.62036
#
# Poissons Ratio (x) = 0.12428 0.34039
# Poissons Ratio (y) = 0.25007 -0.10156
# Poissons Ratio (z) = 0.49297 -0.07310
#
# Static dielectric constant tensor:
#      x y z
#    x 2.026120 0.000000 -0.001390 
#    y 0.000000 1.997420 0.000000 
#    z -0.001390 0.000000 2.053610 
# 
# From -- ./inp_files/132572.got.cif
#   From: 2010.05.17/outbox.cif.g08.bks.cpg/sg15_67_cif.got.tgz:132572.got - 2010.06.03 18:47:42.
