data_PCOD9300880
_publ_section_title
;
Structure prediction by ZEFSAII (Michael W. Deem and Ramdas Pophale) SiO2 
 PCOD9300880
Probable space group: C 2/C
;
_chemical_formula_sum "Si O2"
_cell_formula_units_Z 64
_cell_length_a 20.677675
_cell_length_b 10.073780
_cell_length_c 13.019738
_cell_angle_alpha 90.000000
_cell_angle_beta 91.036693
_cell_angle_gamma 90.000000
_cell_volume 2711.598082
_symmetry_space_group_name_H-M "C 2/C"
_symmetry_group_IT_number 15
_symmetry_cell_setting 'monoclinic'
loop_
_space_group_symop_operation_xyz
x,y,z
-x,y,1/2-z
-x,-y,-z
x,-y,1/2+z
1/2+x,1/2+y,z
1/2-x,1/2+y,1/2-z
1/2-x,1/2-y,-z
1/2+x,1/2-y,1/2+z
loop_
_atom_site_type_symbol
_atom_site_label
_atom_site_fract_x
_atom_site_fract_y
_atom_site_fract_z
Si Si1 0.117469 0.995341 0.603622
Si Si2 0.997480 0.812052 0.625829
Si Si3 0.242333 0.114586 0.138351
Si Si4 0.348534 0.785764 0.881345
Si Si5 0.215257 0.676740 0.809983
Si Si6 0.432158 0.448751 0.185719
Si Si7 0.379872 0.178450 0.142082
Si Si8 0.908373 0.596163 0.567468
O O1 0.184550 0.936665 0.565941
O O2 0.061363 0.887605 0.590846
O O3 0.114050 0.151952 0.580930
O O4 0.119665 0.009646 0.729929
O O5 0.973850 0.680140 0.571446
O O6 0.000000 0.787165 0.750000
O O7 0.944269 0.928233 0.613089
O O8 0.216172 0.234291 0.208005
O O9 0.308876 0.163632 0.090775
O O10 0.263361 0.978167 0.199467
O O11 0.272582 0.747012 0.878175
O O12 0.367330 0.819444 0.765069
O O13 0.372346 0.899708 0.957398
O O14 0.144875 0.667456 0.859572
O O15 0.500000 0.426389 0.250000
O O16 0.413497 0.317654 0.126660
O O17 0.419133 0.050910 0.108909
#
# Coordination Sequence:
#
# PCOD9300880 Si02
#       8
#     8   8   8   8   8   8   8   8
#     4   8  15  30  50  74 104 136 175 214 258 310
#     4   9  18  31  52  78  99 133 179 220 255 304
#     4   9  16  28  50  75 102 137 172 212 258 304
#     4   9  18  33  52  76 109 144 176 214 258 319
#     4   9  17  30  49  78 107 137 177 214 259 317
#     4   8  15  31  53  69  95 137 173 204 251 311
#     4   9  19  33  52  77 105 141 176 208 260 322
#     4  11  20  30  53  82 107 136 176 222 266 305
#
# _framework density 23.602318
#
# number of rings (size 3 to 8) (size 9 to 14) (size 15 to 20)
#    0.000    3.250    0.000    2.625    0.000    1.000 
#    0.000    0.000    0.000   25.500    0.000   93.625 
#    0.000    2.000    0.000    0.000    0.000    0.000 
#
# Total GULP energy -178538.604231 kJ/mol
# GULP energy per Si atom -5579.331382 kJ/mol
# Density = 2.354860 g / cm^3
# Si number density = 23.602318 Si / 1000 Ang^3
#
#
#
# Elastic Constant Matrix: (Units=GPa)
#
#
# Indices 1 2 3 4 5 6 
#
# 1 55.8081 42.2974 4.1749 0.0000 4.3434 0.0000
# 2 42.2974 112.8764 22.7376 0.0000 6.5147 0.0000
# 3 4.1749 22.7376 44.6222 0.0000 3.1559 0.0000
# 4 0.0000 0.0000 0.0000 13.2238 0.0000 7.0348
# 5 4.3434 6.5147 3.1559 0.0000 8.9153 0.0000
# 6 0.0000 0.0000 0.0000 7.0348 0.0000 23.4433
#
#
#
# Elastic Compliance Matrix: (Units=1/GPa)
#
#
# Indices 1 2 3 4 5 6 
#
# 1 0.025665 -0.009869 0.003079 0.000000 -0.006382 0.000000
# 2 -0.009869 0.013945 -0.005951 0.000000 -0.003276 0.000000
# 3 0.003079 -0.005951 0.025594 0.000000 -0.006211 0.000000
# 4 0.000000 0.000000 0.000000 0.089987 0.000000 -0.027003
# 5 -0.006382 -0.003276 -0.006211 0.000000 0.119868 0.000000
# 6 0.000000 0.000000 0.000000 -0.027003 0.000000 0.050759
#
#
# Mechanical properties :
#
#
# Convention : Reuss Voigt Hill
#
# Bulk Modulus (GPa) = 25.17498 39.08071 32.12785
# Shear Modulus (GPa) = 13.71593 18.72295 16.21944
#
# Velocity S-wave (km/s) = 2.41327 2.81956 2.62429
# Velocity P-wave (km/s) = 4.29589 5.21477 4.77747
#
# Compressibility (1/GPa) = 0.03972198
#
# Stress axis : x y z
#
# Youngs Moduli (GPa) = 38.96399 71.70933 39.07181
#
# Poissons Ratio (x) = 0.70770 -0.12030
# Poissons Ratio (y) = 0.38454 0.23251
# Poissons Ratio (z) = -0.11997 0.42673
#
# Static dielectric constant tensor:
#      x y z
#    x 1.967730 0.000000 0.020330 
#    y 0.000000 1.873670 0.000000 
#    z 0.020330 0.000000 1.914170 
# 
# From -- ./inp_files/218290.got.cif
#   From: 2010.05.17/outbox.cif.g08.bks.cpg/sg15_110_cif.got.tgz:218290.got - 2010.06.03 18:47:42.
