data_PCOD9300762
_publ_section_title
;
Structure prediction by ZEFSAII (Michael W. Deem and Ramdas Pophale) SiO2 
 PCOD9300762
Probable space group: C 2/C
;
_chemical_formula_sum "Si O2"
_cell_formula_units_Z 52
_cell_length_a 6.618162
_cell_length_b 17.748498
_cell_length_c 23.368769
_cell_angle_alpha 90.000000
_cell_angle_beta 56.212484
_cell_angle_gamma 90.000000
_cell_volume 2281.345565
_symmetry_space_group_name_H-M "C 2/C"
_symmetry_group_IT_number 15
_symmetry_cell_setting 'monoclinic'
loop_
_space_group_symop_operation_xyz
x,y,z
-x,y,1/2-z
-x,-y,-z
x,-y,1/2+z
1/2+x,1/2+y,z
1/2-x,1/2+y,1/2-z
1/2-x,1/2-y,-z
1/2+x,1/2-y,1/2+z
loop_
_atom_site_type_symbol
_atom_site_label
_atom_site_fract_x
_atom_site_fract_y
_atom_site_fract_z
Si Si1 0.185013 0.054174 0.004186
Si Si2 0.857894 0.794403 0.429982
Si Si3 0.236770 0.549686 0.904263
Si Si4 0.000000 0.017317 0.750000
Si Si5 0.897807 0.827665 0.600701
Si Si6 0.929097 0.601096 0.196935
Si Si7 0.352619 0.732073 0.325094
O O1 0.102206 0.140882 0.025416
O O2 0.208705 0.023863 0.066226
O O3 0.451716 0.048508 0.934262
O O4 0.000000 0.000000 0.000000
O O5 0.750000 0.750000 0.500000
O O6 0.777914 0.879923 0.439442
O O7 0.738401 0.748220 0.396542
O O8 0.146973 0.786231 0.382197
O O9 0.410825 0.558089 0.821888
O O10 0.758106 0.968114 0.773467
O O11 0.699105 0.895669 0.627857
O O12 0.001661 0.807630 0.646627
O O13 0.783855 0.664565 0.185998
O O14 0.000000 0.622448 0.250000
O O15 0.500000 0.770228 0.250000
#
# Coordination Sequence:
#
# PCOD9300762 Si02
#       7
#     8   8   8   4   8   8   8
#     4  11  23  44  70  95 130 179 233 279 334 415
#     4  11  26  45  67  95 136 183 230 285 349 420
#     4  11  26  44  64  99 140 176 226 288 350 412
#     4  12  24  40  64  98 142 178 212 284 358 414
#     4  11  23  40  70  97 129 173 231 283 333 410
#     4  11  19  37  65  97 131 166 220 271 336 405
#     4  11  22  40  66  99 130 169 225 278 338 403
#
# _framework density 22.793566999999999
#
# number of rings (size 3 to 8) (size 9 to 14) (size 15 to 20)
#    0.000    0.923    2.308    4.615    0.000    9.846 
#    0.000    2.308    0.000    0.000    0.000    0.000 
#    0.000    0.000    0.000    0.000    0.000    0.000 
#
# Total GULP energy -145229.602672 kJ/mol
# GULP energy per Si atom -5585.753949 kJ/mol
# Density = 2.274169 g / cm^3
# Si number density = 22.793567 Si / 1000 Ang^3
#
#
#
# Elastic Constant Matrix: (Units=GPa)
#
#
# Indices 1 2 3 4 5 6 
#
# 1 110.0557 11.2655 17.9061 0.0000 -2.7613 0.0000
# 2 11.2655 49.1551 -3.9383 0.0000 -6.0929 0.0000
# 3 17.9061 -3.9383 94.6557 0.0000 -6.8441 0.0000
# 4 0.0000 0.0000 0.0000 29.8742 0.0000 -1.6786
# 5 -2.7613 -6.0929 -6.8441 0.0000 39.9858 0.0000
# 6 0.0000 0.0000 0.0000 -1.6786 0.0000 26.3241
#
#
#
# Elastic Compliance Matrix: (Units=1/GPa)
#
#
# Indices 1 2 3 4 5 6 
#
# 1 0.009641 -0.002367 -0.001924 0.000000 -0.000024 0.000000
# 2 -0.002367 0.021431 0.001583 0.000000 0.003373 0.000000
# 3 -0.001924 0.001583 0.011140 0.000000 0.002015 0.000000
# 4 0.000000 0.000000 0.000000 0.033594 0.000000 0.002142
# 5 -0.000024 0.003373 0.002015 0.000000 0.025866 0.000000
# 6 0.000000 0.000000 0.000000 0.002142 0.000000 0.038125
#
#
# Mechanical properties :
#
#
# Convention : Reuss Voigt Hill
#
# Bulk Modulus (GPa) = 27.17581 33.81479 30.49530
# Shear Modulus (GPa) = 31.75052 34.47903 33.11477
#
# Velocity S-wave (km/s) = 3.73629 3.89352 3.81571
# Velocity P-wave (km/s) = 5.52825 5.92284 5.72895
#
# Compressibility (1/GPa) = 0.03679743
#
# Stress axis : x y z
#
# Youngs Moduli (GPa) = 103.72368 46.66108 89.76543
#
# Poissons Ratio (x) = 0.11043 0.17271
# Poissons Ratio (y) = 0.24548 -0.14212
# Poissons Ratio (z) = 0.19957 -0.07388
#
# Static dielectric constant tensor:
#      x y z
#    x 1.815130 0.000000 -0.096260 
#    y 0.000000 1.827750 0.000000 
#    z -0.096260 0.000000 1.882320 
# 
# From -- ./inp_files/261315.got.cif
#   From: 2010.05.17/outbox.cif.g08.bks.cpg/sg15_131_cif.got.tgz:261315.got - 2010.06.03 18:47:42.
