data_PCOD9300872
_publ_section_title
;
Structure prediction by ZEFSAII (Michael W. Deem and Ramdas Pophale) SiO2 
 PCOD9300872
Probable space group: C 2/C
;
_chemical_formula_sum "Si O2"
_cell_formula_units_Z 56
_cell_length_a 15.846146
_cell_length_b 10.584038
_cell_length_c 18.910908
_cell_angle_alpha 90.000000
_cell_angle_beta 44.999403
_cell_angle_gamma 90.000000
_cell_volume 2242.683058
_symmetry_space_group_name_H-M "C 2/C"
_symmetry_group_IT_number 15
_symmetry_cell_setting 'monoclinic'
loop_
_space_group_symop_operation_xyz
x,y,z
-x,y,1/2-z
-x,-y,-z
x,-y,1/2+z
1/2+x,1/2+y,z
1/2-x,1/2+y,1/2-z
1/2-x,1/2-y,-z
1/2+x,1/2-y,1/2+z
loop_
_atom_site_type_symbol
_atom_site_label
_atom_site_fract_x
_atom_site_fract_y
_atom_site_fract_z
Si Si1 0.075089 0.534461 0.384879
Si Si2 0.578924 0.791176 0.304402
Si Si3 0.760817 0.933463 0.115086
Si Si4 0.707695 0.300777 0.870868
Si Si5 0.463879 0.329333 0.099091
Si Si6 0.657733 0.362330 0.576191
Si Si7 0.175575 0.953978 0.197856
O O1 0.060599 0.680463 0.373596
O O2 0.212766 0.504181 0.322088
O O3 0.000000 0.500000 0.500000
O O4 0.029222 0.427027 0.358743
O O5 0.660458 0.738618 0.320649
O O6 0.473333 0.695030 0.355494
O O7 0.658973 0.828881 0.189800
O O8 0.661140 0.557471 0.145904
O O9 0.871469 0.881365 0.095290
O O10 0.721332 0.068565 0.168756
O O11 0.750000 0.750000 0.000000
O O12 0.804289 0.953513 0.010339
O O13 0.779334 0.181344 0.857837
O O14 0.591480 0.328445 0.986597
O O15 0.433898 0.413902 0.185891
#
# Coordination Sequence:
#
# PCOD9300872 Si02
#       7
#     8   8   8   8   8   8   8
#     4  11  19  42  75 113 150 199 268 334 394 468
#     4  11  24  44  80 111 148 203 263 332 395 487
#     4  12  25  46  75 113 152 202 264 331 398 490
#     4  11  24  46  77 118 151 199 275 340 396 478
#     4  12  22  41  79 117 151 207 268 339 405 479
#     4  12  28  50  71 113 161 207 261 335 414 486
#     4  11  25  44  76 117 161 205 264 337 405 486
#
# _framework density 24.970089999999999
#
# number of rings (size 3 to 8) (size 9 to 14) (size 15 to 20)
#    0.000    0.571    7.143    3.000    0.000    2.286 
#    2.571    0.000    0.000    0.000    0.000    0.000 
#    0.000    0.000    0.000    0.000    0.000    0.000 
#
# Total GULP energy -156837.399233 kJ/mol
# GULP energy per Si atom -5601.335687 kJ/mol
# Density = 2.491326 g / cm^3
# Si number density = 24.970090 Si / 1000 Ang^3
#
#
#
# Elastic Constant Matrix: (Units=GPa)
#
#
# Indices 1 2 3 4 5 6 
#
# 1 38.1718 31.1511 19.7824 0.0000 5.4163 0.0000
# 2 31.1511 160.5602 19.8342 0.0000 5.4544 0.0000
# 3 19.7824 19.8342 180.9636 0.0000 0.7030 0.0000
# 4 0.0000 0.0000 0.0000 55.0490 0.0000 3.1521
# 5 5.4163 5.4544 0.7030 0.0000 32.2517 0.0000
# 6 0.0000 0.0000 0.0000 3.1521 0.0000 43.4545
#
#
#
# Elastic Compliance Matrix: (Units=1/GPa)
#
#
# Indices 1 2 3 4 5 6 
#
# 1 0.033207 -0.005923 -0.002963 0.000000 -0.004510 0.000000
# 2 -0.005923 0.007406 -0.000163 0.000000 -0.000254 0.000000
# 3 -0.002963 -0.000163 0.005866 0.000000 0.000397 0.000000
# 4 0.000000 0.000000 0.000000 0.018241 0.000000 -0.001323
# 5 -0.004510 -0.000254 0.000397 0.000000 0.031798 0.000000
# 6 0.000000 0.000000 0.000000 -0.001323 0.000000 0.023109
#
#
# Mechanical properties :
#
#
# Convention : Reuss Voigt Hill
#
# Bulk Modulus (GPa) = 35.23662 57.91457 46.57559
# Shear Modulus (GPa) = 33.97040 46.74624 40.35832
#
# Velocity S-wave (km/s) = 3.69242 4.33146 4.02464
# Velocity P-wave (km/s) = 5.68514 6.94689 6.34744
#
# Compressibility (1/GPa) = 0.02837957
#
# Stress axis : x y z
#
# Youngs Moduli (GPa) = 30.11418 135.02182 170.46631
#
# Poissons Ratio (x) = 0.79978 0.50515
# Poissons Ratio (y) = 0.17838 0.02783
# Poissons Ratio (z) = 0.08924 0.02204
#
# Static dielectric constant tensor:
#      x y z
#    x 1.980340 0.000000 0.025060 
#    y 0.000000 2.045820 0.000000 
#    z 0.025060 0.000000 2.026720 
# 
# From -- ./inp_files/210544.got.cif
#   From: 2010.05.17/outbox.cif.g08.bks.cpg/sg15_106_cif.got.tgz:210544.got - 2010.06.03 18:47:42.
