data_PCOD9300278
_publ_section_title
;
Structure prediction by ZEFSAII (Michael W. Deem and Ramdas Pophale) SiO2 
 PCOD9300278
Probable space group: C 2/C
;
_chemical_formula_sum "Si O2"
_cell_formula_units_Z 56
_cell_length_a 17.058087
_cell_length_b 21.196445
_cell_length_c 8.675645
_cell_angle_alpha 90.000000
_cell_angle_beta 121.242725
_cell_angle_gamma 90.000000
_cell_volume 2681.945393
_symmetry_space_group_name_H-M "C 2/C"
_symmetry_group_IT_number 15
_symmetry_cell_setting 'monoclinic'
loop_
_space_group_symop_operation_xyz
x,y,z
-x,y,1/2-z
-x,-y,-z
x,-y,1/2+z
1/2+x,1/2+y,z
1/2-x,1/2+y,1/2-z
1/2-x,1/2-y,-z
1/2+x,1/2-y,1/2+z
loop_
_atom_site_type_symbol
_atom_site_label
_atom_site_fract_x
_atom_site_fract_y
_atom_site_fract_z
Si Si1 0.648113 0.223942 0.429398
Si Si2 0.099959 0.927022 0.352921
Si Si3 0.707080 0.913152 0.068510
Si Si4 0.000000 0.161717 0.250000
Si Si5 0.000000 0.627728 0.750000
Si Si6 0.134695 0.939011 0.747263
Si Si7 0.507553 0.237654 0.007472
Si Si8 0.322198 0.956398 0.110678
O O1 0.750000 0.250000 0.500000
O O2 0.653933 0.150853 0.484370
O O3 0.588907 0.254960 0.507427
O O4 0.584996 0.229210 0.214593
O O5 0.186005 0.896646 0.354625
O O6 0.129849 0.936978 0.558998
O O7 0.000000 0.895471 0.250000
O O8 0.092121 0.994760 0.260998
O O9 0.697501 0.940459 0.230944
O O10 0.673628 0.968717 0.919546
O O11 0.077375 0.117313 0.260140
O O12 0.035591 0.206946 0.420673
O O13 0.003167 0.674380 0.605837
O O14 0.911865 0.582479 0.656145
O O15 0.236539 0.935739 0.918416
#
# Coordination Sequence:
#
# PCOD9300278 Si02
#       8
#     8   8   8   4   4   8   8   8
#     4  11  26  48  73  97 139 183 230 289 345 403
#     4  11  23  40  67 104 146 180 217 283 355 425
#     4  11  25  44  69 107 140 177 233 286 352 422
#     4  11  26  42  70 100 134 185 230 276 342 413
#     4  11  24  46  74  94 142 181 232 296 354 393
#     4  11  24  41  67 103 145 181 223 281 349 422
#     4  10  26  48  67 102 131 180 243 284 332 419
#     4  11  25  43  69 107 140 180 227 288 358 413
#
# _framework density 20.880365999999999
#
# number of rings (size 3 to 8) (size 9 to 14) (size 15 to 20)
#    0.000    1.143    2.143    3.857   10.000    1.714 
#    0.000    2.857    0.000    0.000    0.000    0.000 
#    0.000    0.000    0.000    0.000    0.000    0.000 
#
# Total GULP energy -156621.337616 kJ/mol
# GULP energy per Si atom -5593.619201 kJ/mol
# Density = 2.083284 g / cm^3
# Si number density = 20.880366 Si / 1000 Ang^3
#
#
#
# Elastic Constant Matrix: (Units=GPa)
#
#
# Indices 1 2 3 4 5 6 
#
# 1 96.3176 -2.9753 15.5310 0.0000 -11.1272 0.0000
# 2 -2.9753 58.1115 6.4993 0.0000 -7.4018 0.0000
# 3 15.5310 6.4993 75.3420 0.0000 -27.2802 0.0000
# 4 0.0000 0.0000 0.0000 63.7501 0.0000 -10.8568
# 5 -11.1272 -7.4018 -27.2802 0.0000 34.3670 0.0000
# 6 0.0000 0.0000 0.0000 -10.8568 0.0000 39.3905
#
#
#
# Elastic Compliance Matrix: (Units=1/GPa)
#
#
# Indices 1 2 3 4 5 6 
#
# 1 0.010946 0.001056 -0.001378 0.000000 0.002678 0.000000
# 2 0.001056 0.017798 -0.000338 0.000000 0.003906 0.000000
# 3 -0.001378 -0.000338 0.018802 0.000000 0.014406 0.000000
# 4 0.000000 0.000000 0.000000 0.016459 0.000000 0.004536
# 5 0.002678 0.003906 0.014406 0.000000 0.042241 0.000000
# 6 0.000000 0.000000 0.000000 0.004536 0.000000 0.026637
#
#
# Mechanical properties :
#
#
# Convention : Reuss Voigt Hill
#
# Bulk Modulus (GPa) = 21.63338 29.76455 25.69897
# Shear Modulus (GPa) = 33.41937 41.54926 37.48432
#
# Velocity S-wave (km/s) = 4.00499 4.46564 4.24157
# Velocity P-wave (km/s) = 5.63646 6.39335 6.02680
#
# Compressibility (1/GPa) = 0.04622485
#
# Stress axis : x y z
#
# Youngs Moduli (GPa) = 91.35355 56.18683 53.18504
#
# Poissons Ratio (x) = -0.05931 0.07329
# Poissons Ratio (y) = -0.09644 0.01800
# Poissons Ratio (z) = 0.12589 0.01902
#
# Static dielectric constant tensor:
#      x y z
#    x 1.760260 0.000000 -0.004680 
#    y 0.000000 1.749920 0.000000 
#    z -0.004680 0.000000 1.706620 
# 
# From -- ./inp_files/50385.got.cif
#   From: 2010.05.17/outbox.cif.g08.bks.cpg/sg15_26_cif.got.tgz:50385.got - 2010.06.03 18:47:42.
