data_PCOD9300997
_publ_section_title
;
Structure prediction by ZEFSAII (Michael W. Deem and Ramdas Pophale) SiO2 
 PCOD9300997
Probable space group: C 2/C
;
_chemical_formula_sum "Si O2"
_cell_formula_units_Z 56
_cell_length_a 7.653947
_cell_length_b 19.233539
_cell_length_c 25.175732
_cell_angle_alpha 90.000000
_cell_angle_beta 134.428211
_cell_angle_gamma 90.000000
_cell_volume 2646.688802
_symmetry_space_group_name_H-M "C 2/C"
_symmetry_group_IT_number 15
_symmetry_cell_setting 'monoclinic'
loop_
_space_group_symop_operation_xyz
x,y,z
-x,y,1/2-z
-x,-y,-z
x,-y,1/2+z
1/2+x,1/2+y,z
1/2-x,1/2+y,1/2-z
1/2-x,1/2-y,-z
1/2+x,1/2-y,1/2+z
loop_
_atom_site_type_symbol
_atom_site_label
_atom_site_fract_x
_atom_site_fract_y
_atom_site_fract_z
Si Si1 0.000000 0.778927 0.750000
Si Si2 0.922733 0.852680 0.907651
Si Si3 0.724777 0.966275 0.215092
Si Si4 0.000000 0.427282 0.750000
Si Si5 0.657751 0.126336 0.929330
Si Si6 0.132748 0.178949 0.720685
Si Si7 0.279970 0.773139 0.903176
Si Si8 0.810369 0.288562 0.436869
O O1 0.847641 0.733598 0.759747
O O2 0.792986 0.808354 0.668257
O O3 0.712001 0.886265 0.826936
O O4 0.811665 0.790955 0.918794
O O5 0.107143 0.812428 0.907999
O O6 0.101656 0.895812 0.985538
O O7 0.508145 0.936275 0.130109
O O8 0.766884 0.898042 0.259381
O O9 0.000000 0.980696 0.250000
O O10 0.631227 0.027355 0.232318
O O11 0.741539 0.189675 0.907158
O O12 0.474820 0.166503 0.930664
O O13 0.000000 0.188613 0.750000
O O14 0.959353 0.186535 0.633044
O O15 0.553808 0.792728 0.978598
#
# Coordination Sequence:
#
# PCOD9300997 Si02
#       8
#     4   8   8   4   8   8   8   8
#     4  12  21  30  58  98 124 149 198 240 298 370
#     4   9  21  38  61  88 128 161 192 240 319 378
#     4  11  22  40  64  87 116 163 220 253 283 345
#     4  12  27  40  60  88 122 169 206 248 294 360
#     4   9  16  37  66  91 116 155 201 254 302 359
#     4  11  20  35  63  91 119 159 197 256 303 348
#     4   9  19  34  59  96 124 150 191 252 308 377
#     4   9  17  35  64  90 120 157 190 242 327 364
#
# _framework density 21.158512999999999
#
# number of rings (size 3 to 8) (size 9 to 14) (size 15 to 20)
#    0.000    2.000    4.286    3.000    3.000    1.143 
#    1.286    0.714    0.000    0.000    0.000    0.000 
#    0.000    0.000    0.000    0.000    0.000    0.000 
#
# Total GULP energy -155917.010363 kJ/mol
# GULP energy per Si atom -5568.464656 kJ/mol
# Density = 2.111036 g / cm^3
# Si number density = 21.158513 Si / 1000 Ang^3
#
#
#
# Elastic Constant Matrix: (Units=GPa)
#
#
# Indices 1 2 3 4 5 6 
#
# 1 62.1524 19.5234 29.4332 0.0001 2.7600 0.0000
# 2 19.5234 41.5416 48.2145 0.0001 1.1515 0.0000
# 3 29.4332 48.2145 239.8528 0.0005 6.2290 -0.0002
# 4 0.0001 0.0001 0.0005 31.4670 0.0002 4.8597
# 5 2.7600 1.1515 6.2290 0.0002 26.6946 -0.0001
# 6 0.0000 0.0000 -0.0002 4.8597 -0.0001 -2.2638
#
#
#
# Elastic Compliance Matrix: (Units=1/GPa)
#
#
# Indices 1 2 3 4 5 6 
#
# 1 0.019022 -0.008131 -0.000662 0.000000 -0.001462 0.000000
# 2 -0.008131 0.034874 -0.006032 0.000000 0.000744 0.000000
# 3 -0.000662 -0.006032 0.005488 0.000000 -0.000952 0.000000
# 4 0.000000 0.000000 0.000000 0.023867 0.000000 0.051234
# 5 -0.001462 0.000744 -0.000952 0.000000 0.037802 -0.000001
# 6 0.000000 0.000000 0.000000 0.051234 -0.000001 -0.331744
#
#
# Mechanical properties :
#
#
# Convention : Reuss Voigt Hill
#
# Bulk Modulus (GPa) = 33.63164 59.76543 46.69853
# Shear Modulus (GPa) = -29.21730 27.60460 -0.80635
#
# Velocity S-wave (km/s) = -3.72005 3.61592 -0.61800
# Velocity P-wave (km/s) = 1.58810 6.76321 4.64860
#
# Compressibility (1/GPa) = 0.02973390
#
# Stress axis : x y z
#
# Youngs Moduli (GPa) = 52.57083 28.67492 182.22801
#
# Poissons Ratio (x) = 0.23316 0.12060
# Poissons Ratio (y) = 0.42746 1.09915
# Poissons Ratio (z) = 0.03479 0.17296
#
# Static dielectric constant tensor:
#      x y z
#    x 1.805800 0.000000 -0.009830 
#    y 0.000000 1.730470 0.000000 
#    z -0.009830 0.000000 1.852270 
# 
# From -- ./inp_files/289799.got.cif
#   From: 2010.05.17/outbox.cif.g08.bks.cpg/sg15_145_cif.got.tgz:289799.got - 2010.06.03 18:47:42.
