data_PCOD9300969
_publ_section_title
;
Structure prediction by ZEFSAII (Michael W. Deem and Ramdas Pophale) SiO2 
 PCOD9300969
Probable space group: C 2/C
;
_chemical_formula_sum "Si O2"
_cell_formula_units_Z 48
_cell_length_a 8.291664
_cell_length_b 29.469751
_cell_length_c 11.191920
_cell_angle_alpha 90.000000
_cell_angle_beta 54.740169
_cell_angle_gamma 90.000000
_cell_volume 2233.066007
_symmetry_space_group_name_H-M "C 2/C"
_symmetry_group_IT_number 15
_symmetry_cell_setting 'monoclinic'
loop_
_space_group_symop_operation_xyz
x,y,z
-x,y,1/2-z
-x,-y,-z
x,-y,1/2+z
1/2+x,1/2+y,z
1/2-x,1/2+y,1/2-z
1/2-x,1/2-y,-z
1/2+x,1/2-y,1/2+z
loop_
_atom_site_type_symbol
_atom_site_label
_atom_site_fract_x
_atom_site_fract_y
_atom_site_fract_z
Si Si1 0.247448 0.971257 0.017742
Si Si2 0.193462 0.136354 0.818604
Si Si3 0.753283 0.369354 0.006301
Si Si4 0.949949 0.279058 0.926310
Si Si5 0.851546 0.731404 0.729179
Si Si6 0.233143 0.034026 0.799962
O O1 0.322988 0.920528 0.957680
O O2 0.299958 0.980158 0.135980
O O3 0.006798 0.968259 0.111871
O O4 0.297880 0.004886 0.887368
O O5 0.212195 0.136739 0.665985
O O6 0.290898 0.183379 0.815318
O O7 0.276819 0.086703 0.812008
O O8 0.964385 0.137418 0.955567
O O9 0.900549 0.329820 0.908403
O O10 0.973793 0.279079 0.058600
O O11 0.750000 0.250000 0.000000
O O12 0.146129 0.256696 0.790409
O O13 0.000000 0.758399 0.750000
#
# Coordination Sequence:
#
# PCOD9300969 Si02
#       6
#     8   8   8   8   8   8
#     4   8  13  22  40  71 106 141 181 229 281 332
#     4   8  14  27  46  73 105 139 188 229 275 338
#     4   8  14  26  47  75 104 136 189 237 267 335
#     4  11  20  35  58  82 108 151 198 237 285 350
#     4  11  22  35  54  84 115 147 187 247 299 342
#     4   8  13  22  41  69 105 143 183 227 277 338
#
# _framework density 21.49511
#
# number of rings (size 3 to 8) (size 9 to 14) (size 15 to 20)
#    0.000    3.000    1.667    3.000    0.000    0.000 
#    0.000    0.000    0.000    6.000    0.000   12.833 
#    0.000    0.000    0.000   16.333    0.000    1.333 
#
# Total GULP energy -133725.676712 kJ/mol
# GULP energy per Si atom -5571.903196 kJ/mol
# Density = 2.144619 g / cm^3
# Si number density = 21.495110 Si / 1000 Ang^3
#
#
#
# Elastic Constant Matrix: (Units=GPa)
#
#
# Indices 1 2 3 4 5 6 
#
# 1 84.8434 31.8115 30.4532 0.0000 3.7964 0.0000
# 2 31.8115 135.9448 55.8070 0.0000 5.4777 0.0000
# 3 30.4532 55.8070 105.1960 0.0000 -1.3719 0.0000
# 4 0.0000 0.0000 0.0000 21.6864 0.0000 11.0278
# 5 3.7964 5.4777 -1.3719 0.0000 25.8580 0.0000
# 6 0.0000 0.0000 0.0000 11.0278 0.0000 4.5402
#
#
#
# Elastic Compliance Matrix: (Units=1/GPa)
#
#
# Indices 1 2 3 4 5 6 
#
# 1 0.013643 -0.001906 -0.002961 0.000000 -0.001756 0.000000
# 2 -0.001906 0.009804 -0.004676 0.000000 -0.002045 0.000000
# 3 -0.002961 -0.004676 0.012871 0.000000 0.002108 0.000000
# 4 0.000000 0.000000 0.000000 -0.196089 0.000000 0.476291
# 5 -0.001756 -0.002045 0.002108 0.000000 0.039476 0.000000
# 6 0.000000 0.000000 0.000000 0.476291 0.000000 -0.936632
#
#
# Mechanical properties :
#
#
# Convention : Reuss Voigt Hill
#
# Bulk Modulus (GPa) = 58.03279 62.45861 60.24570
# Shear Modulus (GPa) = -4.84450 24.27774 9.71662
#
# Velocity S-wave (km/s) = -1.50288 3.36438 2.12843
# Velocity P-wave (km/s) = 4.90359 6.64923 5.84198
#
# Compressibility (1/GPa) = 0.01723164
#
# Stress axis : x y z
#
# Youngs Moduli (GPa) = 73.30025 102.00071 77.69190
#
# Poissons Ratio (x) = 0.19442 0.23005
# Poissons Ratio (y) = 0.13971 0.36328
# Poissons Ratio (z) = 0.21705 0.47694
#
# Static dielectric constant tensor:
#      x y z
#    x 1.864690 0.000000 0.016720 
#    y 0.000000 1.799430 0.000000 
#    z 0.016720 0.000000 1.779860 
# 
# From -- ./inp_files/81801.got.cif
#   From: 2010.05.17/outbox.cif.g08.bks.cpg/sg15_41_cif.got.tgz:81801.got - 2010.06.03 18:47:42.
