data_PCOD9300065
_publ_section_title
;
Structure prediction by ZEFSAII (Michael W. Deem and Ramdas Pophale) SiO2 
 PCOD9300065
Probable space group: C 2/C
;
_chemical_formula_sum "Si O2"
_cell_formula_units_Z 60
_cell_length_a 19.044930
_cell_length_b 5.334352
_cell_length_c 23.474700
_cell_angle_alpha 90.000000
_cell_angle_beta 94.586387
_cell_angle_gamma 90.000000
_cell_volume 2377.213666
_symmetry_space_group_name_H-M "C 2/C"
_symmetry_group_IT_number 15
_symmetry_cell_setting 'monoclinic'
loop_
_space_group_symop_operation_xyz
x,y,z
-x,y,1/2-z
-x,-y,-z
x,-y,1/2+z
1/2+x,1/2+y,z
1/2-x,1/2+y,1/2-z
1/2-x,1/2-y,-z
1/2+x,1/2-y,1/2+z
loop_
_atom_site_type_symbol
_atom_site_label
_atom_site_fract_x
_atom_site_fract_y
_atom_site_fract_z
Si Si1 0.500000 0.615399 0.750000
Si Si2 0.210443 0.490637 0.401465
Si Si3 0.914325 0.795600 0.560521
Si Si4 0.237262 0.912261 0.217726
Si Si5 0.462600 0.959245 0.908782
Si Si6 0.868813 0.947458 0.448480
Si Si7 0.587726 0.324173 0.354963
Si Si8 0.904735 0.825783 0.830394
O O1 0.437827 0.745337 0.709894
O O2 0.463254 0.444220 0.794739
O O3 0.156777 0.366290 0.442339
O O4 0.227890 0.359669 0.341733
O O5 0.286178 0.503291 0.436965
O O6 0.165337 0.729533 0.376698
O O7 0.898693 0.007440 0.512554
O O8 0.988757 0.663455 0.555870
O O9 0.914610 0.887381 0.626301
O O10 0.276616 0.137061 0.255635
O O11 0.166971 0.075047 0.200903
O O12 0.424586 0.042189 0.846941
O O13 0.400776 0.833864 0.941524
O O14 0.526602 0.785718 0.891473
O O15 0.901214 0.076268 0.395090
#
# Coordination Sequence:
#
# PCOD9300065 Si02
#       8
#     4   8   8   8   8   8   8   8
#     4  12  22  46  66  98 138 178 236 308 362 452
#     4  10  26  43  70 106 139 198 240 310 381 453
#     4  11  24  45  71 103 143 189 251 310 379 453
#     4  11  27  46  73 107 153 199 248 313 377 460
#     4  11  23  44  68 104 136 189 242 302 378 449
#     4  11  24  46  68 104 145 187 247 309 382 457
#     4  11  25  44  69 102 140 185 245 304 373 454
#     4  11  26  41  71 102 137 194 238 306 375 450
#
# _framework density 25.239630999999999
#
# number of rings (size 3 to 8) (size 9 to 14) (size 15 to 20)
#    0.000    1.067    2.667    1.600    7.467    7.467 
#    0.000    0.000    0.000    0.000    0.000    0.000 
#    0.000    0.000    0.000    0.000    0.000    0.000 
#
# Total GULP energy -167192.817174 kJ/mol
# GULP energy per Si atom -5573.093906 kJ/mol
# Density = 2.518218 g / cm^3
# Si number density = 25.239631 Si / 1000 Ang^3
#
#
#
# Elastic Constant Matrix: (Units=GPa)
#
#
# Indices 1 2 3 4 5 6 
#
# 1 177.0694 27.8676 55.4518 0.0000 8.9659 0.0000
# 2 27.8676 27.9923 9.1411 0.0000 8.3444 0.0000
# 3 55.4518 9.1411 87.5093 0.0000 26.7725 0.0000
# 4 0.0000 0.0000 0.0000 38.9286 0.0000 2.3101
# 5 8.9659 8.3444 26.7725 0.0000 45.6002 0.0000
# 6 0.0000 0.0000 0.0000 2.3101 0.0000 22.3066
#
#
#
# Elastic Compliance Matrix: (Units=1/GPa)
#
#
# Indices 1 2 3 4 5 6 
#
# 1 0.008363 -0.007420 -0.005408 0.000000 0.002889 0.000000
# 2 -0.007420 0.044731 0.002544 0.000000 -0.008220 0.000000
# 3 -0.005408 0.002544 0.017559 0.000000 -0.009712 0.000000
# 4 0.000000 0.000000 0.000000 0.025847 0.000000 -0.002677
# 5 0.002889 -0.008220 -0.009712 0.000000 0.028568 0.000000
# 6 0.000000 0.000000 0.000000 -0.002677 0.000000 0.045107
#
#
# Mechanical properties :
#
#
# Convention : Reuss Voigt Hill
#
# Bulk Modulus (GPa) = 19.96584 53.05466 36.51025
# Shear Modulus (GPa) = 24.10368 34.70779 29.40574
#
# Velocity S-wave (km/s) = 3.09365 3.71230 3.41700
# Velocity P-wave (km/s) = 4.54847 6.28020 5.48313
#
# Compressibility (1/GPa) = 0.05008554
#
# Stress axis : x y z
#
# Youngs Moduli (GPa) = 119.58041 22.35589 56.94950
#
# Poissons Ratio (x) = 0.16589 0.30796
# Poissons Ratio (y) = 0.88734 -0.14490
# Poissons Ratio (z) = 0.64665 -0.05688
#
# Static dielectric constant tensor:
#      x y z
#    x 2.005740 0.000000 0.054970 
#    y 0.000000 2.262520 0.000000 
#    z 0.054970 0.000000 2.036940 
# 
# From -- ./inp_files/278954.got.cif
#   From: 2010.05.17/outbox.cif.g08.bks.cpg/sg15_140_cif.got.tgz:278954.got - 2010.06.03 18:47:42.
