data_PCOD9300916
_publ_section_title
;
Structure prediction by ZEFSAII (Michael W. Deem and Ramdas Pophale) SiO2 
 PCOD9300916
Probable space group: C 2/C
;
_chemical_formula_sum "Si O2"
_cell_formula_units_Z 56
_cell_length_a 12.878305
_cell_length_b 29.174138
_cell_length_c 9.014518
_cell_angle_alpha 90.000000
_cell_angle_beta 63.817109
_cell_angle_gamma 90.000000
_cell_volume 3039.348890
_symmetry_space_group_name_H-M "C 2/C"
_symmetry_group_IT_number 15
_symmetry_cell_setting 'monoclinic'
loop_
_space_group_symop_operation_xyz
x,y,z
-x,y,1/2-z
-x,-y,-z
x,-y,1/2+z
1/2+x,1/2+y,z
1/2-x,1/2+y,1/2-z
1/2-x,1/2-y,-z
1/2+x,1/2-y,1/2+z
loop_
_atom_site_type_symbol
_atom_site_label
_atom_site_fract_x
_atom_site_fract_y
_atom_site_fract_z
Si Si1 0.861317 0.309454 0.851615
Si Si2 0.156990 0.164312 0.911742
Si Si3 0.802574 0.261301 0.198900
Si Si4 0.195760 0.106389 0.412220
Si Si5 0.590341 0.515271 0.571311
Si Si6 0.000000 0.788813 0.750000
Si Si7 0.863838 0.915062 0.876032
Si Si8 0.000000 0.852881 0.250000
O O1 0.796064 0.277475 0.769634
O O2 0.798744 0.359322 0.892385
O O3 0.000000 0.312390 0.750000
O O4 0.834162 0.284173 0.022951
O O5 0.263539 0.198350 0.833869
O O6 0.094370 0.171521 0.793261
O O7 0.076313 0.181151 0.093521
O O8 0.173564 0.111660 0.950686
O O9 0.914574 0.238848 0.199145
O O10 0.184135 0.052928 0.464858
O O11 0.193615 0.105791 0.234838
O O12 0.079835 0.124620 0.569868
O O13 0.500000 0.534479 0.750000
O O14 0.500000 0.500000 0.500000
O O15 0.651627 0.469406 0.592027
O O16 0.000000 0.911701 0.750000
#
# Coordination Sequence:
#
# PCOD9300916 Si02
#       8
#     8   8   8   8   8   4   8   4
#     4  11  25  44  64  92 129 174 222 259 315 388
#     4  12  22  36  57  88 125 166 202 258 322 375
#     4  11  25  40  64  92 121 173 221 271 309 378
#     4  12  22  38  61  90 126 169 203 265 328 376
#     4  11  20  33  57  94 129 156 198 263 330 384
#     4  12  24  40  59  90 132 164 211 272 334 362
#     4  11  21  35  55  91 129 159 196 259 330 380
#     4  12  20  32  59  90 118 158 215 252 314 382
#
# _framework density 18.425000000000001
#
# number of rings (size 3 to 8) (size 9 to 14) (size 15 to 20)
#    0.000    0.571    7.143    3.000    3.000    1.143 
#    0.000    0.000    0.000    0.857    1.857    0.000 
#    0.000    0.000    0.000    0.000    0.000    0.000 
#
# Total GULP energy -156083.950007 kJ/mol
# GULP energy per Si atom -5574.426786 kJ/mol
# Density = 1.838306 g / cm^3
# Si number density = 18.425000 Si / 1000 Ang^3
#
#
#
# Elastic Constant Matrix: (Units=GPa)
#
#
# Indices 1 2 3 4 5 6 
#
# 1 85.5780 45.8228 20.0520 0.0000 -0.5433 0.0000
# 2 45.8228 106.4582 22.6284 0.0000 -11.4438 0.0000
# 3 20.0520 22.6284 60.7365 0.0000 -0.0363 0.0000
# 4 0.0000 0.0000 0.0000 24.1454 0.0000 6.1926
# 5 -0.5433 -11.4438 -0.0363 0.0000 36.3792 0.0000
# 6 0.0000 0.0000 0.0000 6.1926 0.0000 24.1149
#
#
#
# Elastic Compliance Matrix: (Units=1/GPa)
#
#
# Indices 1 2 3 4 5 6 
#
# 1 0.015746 -0.006367 -0.002827 0.000000 -0.001770 0.000000
# 2 -0.006367 0.013164 -0.002800 0.000000 0.004043 0.000000
# 3 -0.002827 -0.002800 0.018441 0.000000 -0.000905 0.000000
# 4 0.000000 0.000000 0.000000 0.044336 0.000000 -0.011385
# 5 -0.001770 0.004043 -0.000905 0.000000 0.028733 0.000000
# 6 0.000000 0.000000 0.000000 -0.011385 0.000000 0.044392
#
#
# Mechanical properties :
#
#
# Convention : Reuss Voigt Hill
#
# Bulk Modulus (GPa) = 42.80512 47.75322 45.27917
# Shear Modulus (GPa) = 25.43429 27.87921 26.65675
#
# Velocity S-wave (km/s) = 3.71943 3.89410 3.80777
# Velocity P-wave (km/s) = 6.45973 6.79651 6.63026
#
# Compressibility (1/GPa) = 0.02336169
#
# Stress axis : x y z
#
# Youngs Moduli (GPa) = 63.51002 75.96753 54.22805
#
# Poissons Ratio (x) = 0.48366 0.15332
# Poissons Ratio (y) = 0.40435 0.15183
# Poissons Ratio (z) = 0.17957 0.21270
#
# Static dielectric constant tensor:
#      x y z
#    x 1.647630 0.000000 0.031920 
#    y 0.000000 1.710530 0.000000 
#    z 0.031920 0.000000 1.646040 
# 
# From -- ./inp_files/35340.got.cif
#   From: 2010.05.17/outbox.cif.g08.bks.cpg/sg15_18_cif.got.tgz:35340.got - 2010.06.03 18:47:42.
