data_PCOD9300928
_publ_section_title
;
Structure prediction by ZEFSAII (Michael W. Deem and Ramdas Pophale) SiO2 
 PCOD9300928
Probable space group: C 2/C
;
_chemical_formula_sum "Si O2"
_cell_formula_units_Z 44
_cell_length_a 25.903983
_cell_length_b 7.629598
_cell_length_c 12.646650
_cell_angle_alpha 90.000000
_cell_angle_beta 50.888141
_cell_angle_gamma 90.000000
_cell_volume 1939.359525
_symmetry_space_group_name_H-M "C 2/C"
_symmetry_group_IT_number 15
_symmetry_cell_setting 'monoclinic'
loop_
_space_group_symop_operation_xyz
x,y,z
-x,y,1/2-z
-x,-y,-z
x,-y,1/2+z
1/2+x,1/2+y,z
1/2-x,1/2+y,1/2-z
1/2-x,1/2-y,-z
1/2+x,1/2-y,1/2+z
loop_
_atom_site_type_symbol
_atom_site_label
_atom_site_fract_x
_atom_site_fract_y
_atom_site_fract_z
Si Si1 0.665731 0.321546 0.010636
Si Si2 0.257439 0.022496 0.044665
Si Si3 0.072136 0.287664 0.820366
Si Si4 0.614118 0.853635 0.209680
Si Si5 0.000000 0.468665 0.750000
Si Si6 0.879232 0.953897 0.652330
O O1 0.698297 0.130775 0.959032
O O2 0.630590 0.390796 0.953041
O O3 0.723864 0.444297 0.981712
O O4 0.611598 0.301940 0.172500
O O5 0.196572 0.044648 0.203705
O O6 0.312611 0.163110 0.935500
O O7 0.110409 0.472041 0.789512
O O8 0.004003 0.352347 0.852230
O O9 0.081148 0.137973 0.894780
O O10 0.589572 0.689909 0.308853
O O11 0.563863 0.908975 0.181573
#
# Coordination Sequence:
#
# PCOD9300928 Si02
#       6
#     8   8   8   8   4   8
#     4   9  19  35  57  84 120 143 179 238 282 336
#     4   9  19  37  53  84 123 142 177 238 295 325
#     4   8  19  40  56  78 119 148 180 237 282 316
#     4   9  19  37  58  81 111 153 190 225 285 334
#     4   8  18  40  62  68 118 162 174 242 286 304
#     4  11  20  33  62  89 105 152 194 222 283 353
#
# _framework density 22.687902999999999
#
# number of rings (size 3 to 8) (size 9 to 14) (size 15 to 20)
#    1.091    1.818    0.000    1.636    2.545    0.727 
#    0.000    5.455    0.000    0.000    0.000    0.000 
#    0.000    0.000    0.000    0.000    0.000    0.000 
#
# Total GULP energy -122488.086083 kJ/mol
# GULP energy per Si atom -5567.640276 kJ/mol
# Density = 2.263626 g / cm^3
# Si number density = 22.687903 Si / 1000 Ang^3
#
#
#
# Elastic Constant Matrix: (Units=GPa)
#
#
# Indices 1 2 3 4 5 6 
#
# 1 92.2647 13.4380 3.7624 0.0000 -10.2286 0.0000
# 2 13.4380 75.2302 -0.1557 0.0000 5.6617 0.0000
# 3 3.7624 -0.1557 17.1329 0.0000 -3.7272 0.0000
# 4 0.0000 0.0000 0.0000 4.8253 0.0000 -3.8527
# 5 -10.2286 5.6617 -3.7272 0.0000 15.4948 0.0000
# 6 0.0000 0.0000 0.0000 -3.8527 0.0000 -6.7832
#
#
#
# Elastic Compliance Matrix: (Units=1/GPa)
#
#
# Indices 1 2 3 4 5 6 
#
# 1 0.012283 -0.002871 -0.000772 0.000000 0.008971 0.000000
# 2 -0.002871 0.014356 -0.000836 0.000000 -0.007342 0.000000
# 3 -0.000772 -0.000836 0.061714 0.000000 0.014641 0.000000
# 4 0.000000 0.000000 0.000000 0.142580 0.000000 -0.080983
# 5 0.008971 -0.007342 0.014641 0.000000 0.076664 0.000000
# 6 0.000000 0.000000 0.000000 -0.080983 0.000000 -0.101426
#
#
# Mechanical properties :
#
#
# Convention : Reuss Voigt Hill
#
# Bulk Modulus (GPa) = 12.59516 24.30190 18.44853
# Shear Modulus (GPa) = 20.69585 13.87960 17.28772
#
# Velocity S-wave (km/s) = 3.02354 2.47607 2.76339
# Velocity P-wave (km/s) = 4.21338 4.34847 4.28146
#
# Compressibility (1/GPa) = 0.07939557
#
# Stress axis : x y z
#
# Youngs Moduli (GPa) = 81.41642 69.65675 16.20371
#
# Poissons Ratio (x) = 0.19997 0.01250
# Poissons Ratio (y) = 0.23372 0.01355
# Poissons Ratio (z) = 0.06283 0.05825
#
# Static dielectric constant tensor:
#      x y z
#    x 1.867550 0.000000 -0.026770 
#    y 0.000000 1.973380 0.000000 
#    z -0.026770 0.000000 1.820960 
# 
# From -- ./inp_files/116215.got.cif
#   From: 2010.05.17/outbox.cif.g08.bks.cpg/sg15_59_cif.got.tgz:116215.got - 2010.06.03 18:47:42.
