data_PCOD9300251
_publ_section_title
;
Structure prediction by ZEFSAII (Michael W. Deem and Ramdas Pophale) SiO2 
 PCOD9300251
Probable space group: C 2/C
;
_chemical_formula_sum "Si O2"
_cell_formula_units_Z 40
_cell_length_a 12.119172
_cell_length_b 13.928502
_cell_length_c 16.107053
_cell_angle_alpha 90.000000
_cell_angle_beta 36.778293
_cell_angle_gamma 90.000000
_cell_volume 1627.861128
_symmetry_space_group_name_H-M "C 2/C"
_symmetry_group_IT_number 15
_symmetry_cell_setting 'monoclinic'
loop_
_space_group_symop_operation_xyz
x,y,z
-x,y,1/2-z
-x,-y,-z
x,-y,1/2+z
1/2+x,1/2+y,z
1/2-x,1/2+y,1/2-z
1/2-x,1/2-y,-z
1/2+x,1/2-y,1/2+z
loop_
_atom_site_type_symbol
_atom_site_label
_atom_site_fract_x
_atom_site_fract_y
_atom_site_fract_z
Si Si1 0.003075 0.161849 0.513527
Si Si2 0.685055 0.151260 0.584629
Si Si3 0.787969 0.971849 0.870189
Si Si4 0.239710 0.635457 0.003293
Si Si5 0.147505 0.351790 0.807655
O O1 0.841563 0.117994 0.555608
O O2 0.920266 0.261028 0.597976
O O3 0.099133 0.103605 0.530821
O O4 0.176368 0.180440 0.349821
O O5 0.500000 0.164429 0.750000
O O6 0.750000 0.250000 0.500000
O O7 0.678737 0.075951 0.513006
O O8 0.704457 0.936308 0.835198
O O9 0.000000 0.939203 0.750000
O O10 0.779678 0.085428 0.891335
O O11 0.023214 0.616849 0.146341
O O12 0.250000 0.750000 0.000000
#
# Coordination Sequence:
#
# PCOD9300251 Si02
#       5
#     8   8   8   8   8
#     4  11  23  43  74 105 148 191 240 294 365 435
#     4  12  24  43  71 107 150 190 241 300 365 431
#     4  12  25  47  74 108 144 190 244 306 367 435
#     4  10  26  47  69 102 144 196 243 296 365 437
#     4  11  23  44  75 109 148 189 241 298 366 446
#
# _framework density 24.572119000000001
#
# number of rings (size 3 to 8) (size 9 to 14) (size 15 to 20)
#    0.000    0.800    4.000    3.000    0.000    8.800 
#    3.600    0.000    0.000    0.000    0.000    0.000 
#    0.000    0.000    0.000    0.000    0.000    0.000 
#
# Total GULP energy -111909.964275 kJ/mol
# GULP energy per Si atom -5595.498214 kJ/mol
# Density = 2.451619 g / cm^3
# Si number density = 24.572119 Si / 1000 Ang^3
#
#
#
# Elastic Constant Matrix: (Units=GPa)
#
#
# Indices 1 2 3 4 5 6 
#
# 1 143.3593 3.4436 26.1010 -0.0006 -16.5921 0.0001
# 2 3.4436 97.1483 21.8363 -0.0008 10.4629 0.0004
# 3 26.1010 21.8363 178.9507 -0.0017 -12.7153 0.0008
# 4 -0.0006 -0.0008 -0.0017 13.1808 0.0009 8.2611
# 5 -16.5921 10.4629 -12.7153 0.0009 44.6923 -0.0003
# 6 0.0001 0.0004 0.0008 8.2611 -0.0003 30.9535
#
#
#
# Elastic Compliance Matrix: (Units=1/GPa)
#
#
# Indices 1 2 3 4 5 6 
#
# 1 0.007441 -0.000351 -0.000858 0.000000 0.002601 0.000000
# 2 -0.000351 0.010983 -0.001512 0.000001 -0.003132 0.000000
# 3 -0.000858 -0.001512 0.006022 0.000001 0.001749 0.000000
# 4 0.000000 0.000001 0.000001 0.091108 -0.000002 -0.024316
# 5 0.002601 -0.003132 0.001749 -0.000002 0.024571 0.000001
# 6 0.000000 0.000000 0.000000 -0.024316 0.000001 0.038796
#
#
# Mechanical properties :
#
#
# Convention : Reuss Voigt Hill
#
# Bulk Modulus (GPa) = 52.61643 58.02445 55.32044
# Shear Modulus (GPa) = 26.21959 42.30381 34.26170
#
# Velocity S-wave (km/s) = 3.27011 4.15374 3.73813
# Velocity P-wave (km/s) = 5.97643 6.83154 6.41824
#
# Compressibility (1/GPa) = 0.01900547
#
# Stress axis : x y z
#
# Youngs Moduli (GPa) = 134.38926 91.04980 166.05981
#
# Poissons Ratio (x) = 0.03196 0.14243
# Poissons Ratio (y) = 0.04718 0.25100
# Poissons Ratio (z) = 0.11526 0.13762
#
# Static dielectric constant tensor:
#      x y z
#    x 1.975570 0.000000 -0.004550 
#    y 0.000000 2.010790 0.000000 
#    z -0.004550 0.000000 1.929940 
# 
# From -- ./inp_files/205599.got.cif
#   From: 2010.05.17/outbox.cif.g08.bks.cpg/sg15_103_cif.got.tgz:205599.got - 2010.06.03 18:47:42.
