data_PCOD9300219
_publ_section_title
;
Structure prediction by ZEFSAII (Michael W. Deem and Ramdas Pophale) SiO2 
 PCOD9300219
Probable space group: C 2/C
;
_chemical_formula_sum "Si O2"
_cell_formula_units_Z 44
_cell_length_a 13.622959
_cell_length_b 18.741644
_cell_length_c 8.136971
_cell_angle_alpha 90.000000
_cell_angle_beta 109.016198
_cell_angle_gamma 90.000000
_cell_volume 1964.127479
_symmetry_space_group_name_H-M "C 2/C"
_symmetry_group_IT_number 15
_symmetry_cell_setting 'monoclinic'
loop_
_space_group_symop_operation_xyz
x,y,z
-x,y,1/2-z
-x,-y,-z
x,-y,1/2+z
1/2+x,1/2+y,z
1/2-x,1/2+y,1/2-z
1/2-x,1/2-y,-z
1/2+x,1/2-y,1/2+z
loop_
_atom_site_type_symbol
_atom_site_label
_atom_site_fract_x
_atom_site_fract_y
_atom_site_fract_z
Si Si1 0.538419 0.206082 0.098216
Si Si2 0.443125 0.930481 0.392486
Si Si3 0.255941 0.882577 0.747475
Si Si4 0.000000 0.063468 0.750000
Si Si5 0.027669 0.155629 0.090316
Si Si6 0.236075 0.019449 0.913700
O O1 0.500000 0.237496 0.250000
O O2 0.649909 0.171319 0.184931
O O3 0.466201 0.139551 0.011163
O O4 0.529296 0.268898 0.962067
O O5 0.500000 0.919896 0.250000
O O6 0.320193 0.945058 0.335253
O O7 0.500000 0.000000 0.500000
O O8 0.151607 0.838058 0.663325
O O9 0.259415 0.937953 0.595249
O O10 0.256060 0.934855 0.905899
O O11 0.113574 0.026952 0.810342
O O12 0.999998 0.107701 0.580434
O O13 0.000000 0.122115 0.250000
#
# Coordination Sequence:
#
# PCOD9300219 Si02
#       6
#     8   8   8   4   8   8
#     4  12  24  45  69 100 143 185 239 298 359 427
#     4  12  23  39  68 104 139 183 238 303 365 421
#     4  11  26  43  73 105 140 187 235 300 361 427
#     4  10  26  46  74 102 148 194 230 304 354 432
#     4  11  27  47  69 103 141 194 242 285 357 439
#     4  11  24  43  69 108 138 187 234 297 369 416
#
# _framework density 22.401803000000001
#
# number of rings (size 3 to 8) (size 9 to 14) (size 15 to 20)
#    0.000    0.727    4.545    2.182    3.818    4.364 
#    0.000    0.000    0.000    0.000    0.000    0.000 
#    0.000    0.000    0.000    0.000    0.000    0.000 
#
# Total GULP energy -122956.064424 kJ/mol
# GULP energy per Si atom -5588.912019 kJ/mol
# Density = 2.235082 g / cm^3
# Si number density = 22.401803 Si / 1000 Ang^3
#
#
#
# Elastic Constant Matrix: (Units=GPa)
#
#
# Indices 1 2 3 4 5 6 
#
# 1 143.3976 37.7579 58.9549 0.0000 20.6331 0.0000
# 2 37.7579 52.5652 32.5644 0.0000 6.3491 0.0000
# 3 58.9549 32.5644 107.7025 0.0000 -3.9755 0.0000
# 4 0.0000 0.0000 0.0000 6.8857 0.0000 3.7729
# 5 20.6331 6.3491 -3.9755 0.0000 36.1029 0.0000
# 6 0.0000 0.0000 0.0000 3.7729 0.0000 19.5749
#
#
#
# Elastic Compliance Matrix: (Units=1/GPa)
#
#
# Indices 1 2 3 4 5 6 
#
# 1 0.010979 -0.004042 -0.005013 0.000000 -0.006116 0.000000
# 2 -0.004042 0.025799 -0.005693 0.000000 -0.002854 0.000000
# 3 -0.005013 -0.005693 0.013950 0.000000 0.005403 0.000000
# 4 0.000000 0.000000 0.000000 0.162379 0.000000 -0.031297
# 5 -0.006116 -0.002854 0.005403 0.000000 0.032291 0.000000
# 6 0.000000 0.000000 0.000000 -0.031297 0.000000 0.057118
#
#
# Mechanical properties :
#
#
# Convention : Reuss Voigt Hill
#
# Bulk Modulus (GPa) = 47.10144 62.46886 54.78515
# Shear Modulus (GPa) = 14.74535 24.13856 19.44196
#
# Velocity S-wave (km/s) = 2.56837 3.28613 2.94917
# Velocity P-wave (km/s) = 5.46505 6.50726 6.00879
#
# Compressibility (1/GPa) = 0.02123077
#
# Stress axis : x y z
#
# Youngs Moduli (GPa) = 91.08269 38.76120 71.68448
#
# Poissons Ratio (x) = 0.15666 0.35939
# Poissons Ratio (y) = 0.36813 0.40813
# Poissons Ratio (z) = 0.45664 0.22068
#
# Static dielectric constant tensor:
#      x y z
#    x 1.845240 0.000000 -0.043720 
#    y 0.000000 1.793520 0.000000 
#    z -0.043720 0.000000 1.892660 
# 
# From -- ./inp_files/31028.got.cif
#   From: 2010.05.17/outbox.cif.g08.bks.cpg/sg15_16_cif.got.tgz:31028.got - 2010.06.03 18:47:42.
