data_PCOD9300468
_publ_section_title
;
Structure prediction by ZEFSAII (Michael W. Deem and Ramdas Pophale) SiO2 
 PCOD9300468
Probable space group: C 2/C
;
_chemical_formula_sum "Si O2"
_cell_formula_units_Z 52
_cell_length_a 20.349585
_cell_length_b 9.579413
_cell_length_c 23.498263
_cell_angle_alpha 90.000000
_cell_angle_beta 32.215193
_cell_angle_gamma 90.000000
_cell_volume 2441.964910
_symmetry_space_group_name_H-M "C 2/C"
_symmetry_group_IT_number 15
_symmetry_cell_setting 'monoclinic'
loop_
_space_group_symop_operation_xyz
x,y,z
-x,y,1/2-z
-x,-y,-z
x,-y,1/2+z
1/2+x,1/2+y,z
1/2-x,1/2+y,1/2-z
1/2-x,1/2-y,-z
1/2+x,1/2-y,1/2+z
loop_
_atom_site_type_symbol
_atom_site_label
_atom_site_fract_x
_atom_site_fract_y
_atom_site_fract_z
Si Si1 0.041649 0.981298 0.035835
Si Si2 0.303837 0.070559 0.327752
Si Si3 0.500000 0.118361 0.750000
Si Si4 0.768883 0.300322 0.282535
Si Si5 0.315760 0.646943 0.771802
Si Si6 0.386684 0.933542 0.548343
Si Si7 0.960690 0.253389 0.392280
O O1 0.084152 0.120780 0.039083
O O2 0.926578 0.921115 0.154951
O O3 0.165721 0.890491 0.949011
O O4 0.000000 0.000000 0.000000
O O5 0.364177 0.217894 0.268875
O O6 0.394919 0.980048 0.299853
O O7 0.273696 0.961629 0.298373
O O8 0.567484 0.212742 0.652445
O O9 0.774208 0.292236 0.211167
O O10 0.657057 0.206456 0.386528
O O11 0.892274 0.235138 0.216797
O O12 0.230763 0.536758 0.866891
O O13 0.428507 0.886436 0.455078
O O14 0.500000 0.000000 0.500000
#
# Coordination Sequence:
#
# PCOD9300468 Si02
#       7
#     8   8   4   8   8   8   8
#     4  12  23  42  72 110 142 175 233 307 377 420
#     4  11  25  44  67  97 142 190 232 291 354 423
#     4  10  28  50  70  96 144 202 250 278 334 448
#     4  11  21  39  65 101 144 175 229 292 359 433
#     4  12  24  38  67 110 143 173 231 302 376 419
#     4  12  24  38  68 108 142 180 232 301 367 427
#     4  11  23  45  69  99 139 189 241 285 346 428
#
# _framework density 21.294325000000001
#
# number of rings (size 3 to 8) (size 9 to 14) (size 15 to 20)
#    0.000    0.615    6.154    1.846    4.308    0.615 
#    0.000    3.846    0.000    0.000    0.000    0.000 
#    0.000    0.000    0.000    0.000    0.000    0.000 
#
# Total GULP energy -145056.956241 kJ/mol
# GULP energy per Si atom -5579.113702 kJ/mol
# Density = 2.124586 g / cm^3
# Si number density = 21.294325 Si / 1000 Ang^3
#
#
#
# Elastic Constant Matrix: (Units=GPa)
#
#
# Indices 1 2 3 4 5 6 
#
# 1 71.9071 25.5144 21.9049 0.0000 17.9129 0.0000
# 2 25.5144 108.6573 39.2702 0.0000 20.8677 0.0000
# 3 21.9049 39.2702 99.4640 0.0000 8.4825 0.0000
# 4 0.0000 0.0000 0.0000 38.6741 0.0000 1.0147
# 5 17.9129 20.8677 8.4825 0.0000 37.5611 0.0000
# 6 0.0000 0.0000 0.0000 1.0147 0.0000 28.4582
#
#
#
# Elastic Compliance Matrix: (Units=1/GPa)
#
#
# Indices 1 2 3 4 5 6 
#
# 1 0.016924 -0.001843 -0.002446 0.000000 -0.006495 0.000000
# 2 -0.001843 0.011990 -0.003910 0.000000 -0.004899 0.000000
# 3 -0.002446 -0.003910 0.012084 0.000000 0.000610 0.000000
# 4 0.000000 0.000000 0.000000 0.025881 0.000000 -0.000923
# 5 -0.006495 -0.004899 0.000610 0.000000 0.032305 0.000000
# 6 0.000000 0.000000 0.000000 -0.000923 0.000000 0.035172
#
#
# Mechanical properties :
#
#
# Convention : Reuss Voigt Hill
#
# Bulk Modulus (GPa) = 40.64903 50.37860 45.51381
# Shear Modulus (GPa) = 31.45566 33.82796 32.64181
#
# Velocity S-wave (km/s) = 3.84759 3.99004 3.91946
# Velocity P-wave (km/s) = 6.23451 6.70349 6.47325
#
# Compressibility (1/GPa) = 0.02460083
#
# Stress axis : x y z
#
# Youngs Moduli (GPa) = 59.08897 83.40213 82.75177
#
# Poissons Ratio (x) = 0.15369 0.20238
# Poissons Ratio (y) = 0.10888 0.32358
# Poissons Ratio (z) = 0.14451 0.32612
#
# Static dielectric constant tensor:
#      x y z
#    x 1.808840 0.000000 0.032310 
#    y 0.000000 1.844660 0.000000 
#    z 0.032310 0.000000 1.842470 
# 
# From -- ./inp_files/301977.got.cif
#   From: 2010.05.17/outbox.cif.g08.bks.cpg/sg15_151_cif.got.tgz:301977.got - 2010.06.03 18:47:42.
