data_PCOD9300460
_publ_section_title
;
Structure prediction by ZEFSAII (Michael W. Deem and Ramdas Pophale) SiO2 
 PCOD9300460
Probable space group: C 2/C
;
_chemical_formula_sum "Si O2"
_cell_formula_units_Z 44
_cell_length_a 10.930542
_cell_length_b 8.822027
_cell_length_c 21.263090
_cell_angle_alpha 90.000000
_cell_angle_beta 76.226610
_cell_angle_gamma 90.000000
_cell_volume 1991.430868
_symmetry_space_group_name_H-M "C 2/C"
_symmetry_group_IT_number 15
_symmetry_cell_setting 'monoclinic'
loop_
_space_group_symop_operation_xyz
x,y,z
-x,y,1/2-z
-x,-y,-z
x,-y,1/2+z
1/2+x,1/2+y,z
1/2-x,1/2+y,1/2-z
1/2-x,1/2-y,-z
1/2+x,1/2-y,1/2+z
loop_
_atom_site_type_symbol
_atom_site_label
_atom_site_fract_x
_atom_site_fract_y
_atom_site_fract_z
Si Si1 0.951218 0.479182 0.113273
Si Si2 0.000000 0.038062 0.750000
Si Si3 0.823579 0.598264 0.009953
Si Si4 0.388960 0.793143 0.851835
Si Si5 0.615378 0.645687 0.342391
Si Si6 0.574248 0.550866 0.552252
O O1 0.862262 0.578716 0.078312
O O2 0.898041 0.325584 0.148602
O O3 0.005918 0.578300 0.162792
O O4 0.061403 0.426689 0.051228
O O5 0.916021 0.154402 0.801670
O O6 0.903412 0.930020 0.723482
O O7 0.718402 0.471720 0.016375
O O8 0.750000 0.750000 0.000000
O O9 0.253996 0.872632 0.856567
O O10 0.419628 0.715216 0.916109
O O11 0.496706 0.563415 0.391100
O O12 0.500000 0.500000 0.500000
#
# Coordination Sequence:
#
# PCOD9300460 Si02
#       6
#     8   4   8   8   8   8
#     4  11  24  38  67 100 130 175 221 260 328 400
#     4  10  28  48  64  92 128 172 228 286 338 374
#     4  11  21  38  61 100 144 172 207 260 324 403
#     4  11  25  45  66  98 129 173 226 277 332 390
#     4  11  24  46  67  95 129 175 224 275 330 393
#     4  11  22  39  66 100 144 176 209 268 332 400
#
# _framework density 22.094667999999999
#
# number of rings (size 3 to 8) (size 9 to 14) (size 15 to 20)
#    0.000    1.091    3.636    2.182    2.545    6.545 
#    0.000    0.000    0.000    0.000    0.000    0.000 
#    0.000    0.000    0.000    0.000    0.000    0.000 
#
# Total GULP energy -122563.679147 kJ/mol
# GULP energy per Si atom -5571.076325 kJ/mol
# Density = 2.204438 g / cm^3
# Si number density = 22.094668 Si / 1000 Ang^3
#
#
#
# Elastic Constant Matrix: (Units=GPa)
#
#
# Indices 1 2 3 4 5 6 
#
# 1 88.3910 23.2522 14.9705 0.0000 27.2247 0.0000
# 2 23.2522 77.0891 25.7310 0.0000 21.2573 0.0000
# 3 14.9705 25.7310 55.1347 0.0000 23.6872 0.0000
# 4 0.0000 0.0000 0.0000 26.6858 0.0000 6.0921
# 5 27.2247 21.2573 23.6872 0.0000 30.7824 0.0000
# 6 0.0000 0.0000 0.0000 6.0921 0.0000 42.7901
#
#
#
# Elastic Compliance Matrix: (Units=1/GPa)
#
#
# Indices 1 2 3 4 5 6 
#
# 1 0.015936 -0.001585 0.002984 0.000000 -0.015296 0.000000
# 2 -0.001585 0.016816 -0.004528 0.000000 -0.006727 0.000000
# 3 0.002984 -0.004528 0.028728 0.000000 -0.021619 0.000000
# 4 0.000000 0.000000 0.000000 0.038732 0.000000 -0.005514
# 5 -0.015296 -0.006727 -0.021619 0.000000 0.067296 0.000000
# 6 0.000000 0.000000 0.000000 -0.005514 0.000000 0.024155
#
#
# Mechanical properties :
#
#
# Convention : Reuss Voigt Hill
#
# Bulk Modulus (GPa) = 18.10809 38.72470 28.41640
# Shear Modulus (GPa) = 23.11302 30.49573 26.80438
#
# Velocity S-wave (km/s) = 3.23784 3.71918 3.48682
# Velocity P-wave (km/s) = 4.71080 6.00065 5.39441
#
# Compressibility (1/GPa) = 0.05522392
#
# Stress axis : x y z
#
# Youngs Moduli (GPa) = 62.75048 59.46622 34.80883
#
# Poissons Ratio (x) = 0.09425 -0.10388
# Poissons Ratio (y) = 0.09946 0.15760
# Poissons Ratio (z) = -0.18726 0.26924
#
# Static dielectric constant tensor:
#      x y z
#    x -1.772050 0.000000 -4.422060 
#    y 0.000000 1.990450 0.000000 
#    z -4.422060 0.000000 -3.500110 
# 
# From -- ./inp_files/236120.got.cif
#   From: 2010.05.17/outbox.cif.g08.bks.cpg/sg15_119_cif.got.tgz:236120.got - 2010.06.03 18:47:42.
