data_PCOD9300910
_publ_section_title
;
Structure prediction by ZEFSAII (Michael W. Deem and Ramdas Pophale) SiO2 
 PCOD9300910
Probable space group: C 2/C
;
_chemical_formula_sum "Si O2"
_cell_formula_units_Z 56
_cell_length_a 11.601227
_cell_length_b 15.603949
_cell_length_c 15.376515
_cell_angle_alpha 90.000000
_cell_angle_beta 114.067559
_cell_angle_gamma 90.000000
_cell_volume 2541.547128
_symmetry_space_group_name_H-M "C 2/C"
_symmetry_group_IT_number 15
_symmetry_cell_setting 'monoclinic'
loop_
_space_group_symop_operation_xyz
x,y,z
-x,y,1/2-z
-x,-y,-z
x,-y,1/2+z
1/2+x,1/2+y,z
1/2-x,1/2+y,1/2-z
1/2-x,1/2-y,-z
1/2+x,1/2-y,1/2+z
loop_
_atom_site_type_symbol
_atom_site_label
_atom_site_fract_x
_atom_site_fract_y
_atom_site_fract_z
Si Si1 0.140832 0.688206 0.282188
Si Si2 0.304528 0.337697 0.308636
Si Si3 0.958402 0.312832 0.337118
Si Si4 0.413171 0.544610 0.140069
Si Si5 0.895312 0.133995 0.411740
Si Si6 0.777657 0.650489 0.522570
Si Si7 0.589828 0.642993 0.878789
O O1 0.173321 0.734625 0.200274
O O2 0.250516 0.622665 0.338374
O O3 0.140279 0.770706 0.348675
O O4 0.000000 0.653274 0.250000
O O5 0.177938 0.357137 0.215415
O O6 0.281769 0.366746 0.400049
O O7 0.439314 0.369513 0.317190
O O8 0.940138 0.221477 0.378098
O O9 0.000000 0.297228 0.250000
O O10 0.071900 0.361322 0.420530
O O11 0.500000 0.566942 0.250000
O O12 0.512754 0.559346 0.091785
O O13 0.357876 0.449425 0.129674
O O14 0.295263 0.602572 0.076198
O O15 0.896806 0.151369 0.513973
O O16 0.750000 0.750000 0.500000
#
# Coordination Sequence:
#
# PCOD9300910 Si02
#       7
#     8   8   8   8   8   8   8
#     4   9  20  36  60  84 115 155 198 242 289 343
#     4   9  18  33  59  81 115 149 192 230 293 348
#     4   9  18  33  56  90 119 145 190 243 296 339
#     4  12  25  37  60  87 122 151 195 249 298 346
#     4  11  20  35  61  87 111 154 203 241 284 347
#     4  11  20  33  55  88 117 148 191 243 293 346
#     4  11  21  40  56  86 117 160 195 240 292 354
#
# _framework density 22.033825
#
# number of rings (size 3 to 8) (size 9 to 14) (size 15 to 20)
#    0.000    1.714    2.857    2.571    4.000    0.000 
#    0.000    0.000    3.143    4.286    0.000    0.000 
#    0.000    0.000    0.000    0.000    0.000    0.000 
#
# Total GULP energy -156208.610964 kJ/mol
# GULP energy per Si atom -5578.878963 kJ/mol
# Density = 2.198367 g / cm^3
# Si number density = 22.033825 Si / 1000 Ang^3
#
#
#
# Elastic Constant Matrix: (Units=GPa)
#
#
# Indices 1 2 3 4 5 6 
#
# 1 94.0578 1.3576 23.3879 0.0000 25.4718 0.0000
# 2 1.3576 42.6520 18.6673 0.0000 6.4636 0.0000
# 3 23.3879 18.6673 109.8754 0.0000 12.2418 0.0000
# 4 0.0000 0.0000 0.0000 23.1285 0.0000 3.2005
# 5 25.4718 6.4636 12.2418 0.0000 44.6455 0.0000
# 6 0.0000 0.0000 0.0000 3.2005 0.0000 18.1411
#
#
#
# Elastic Compliance Matrix: (Units=1/GPa)
#
#
# Indices 1 2 3 4 5 6 
#
# 1 0.013093 0.001654 -0.002279 0.000000 -0.007085 0.000000
# 2 0.001654 0.025826 -0.004351 0.000000 -0.003490 0.000000
# 3 -0.002279 -0.004351 0.010429 0.000000 -0.000930 0.000000
# 4 0.000000 0.000000 0.000000 0.044319 0.000000 -0.007819
# 5 -0.007085 -0.003490 -0.000930 0.000000 0.027201 0.000000
# 6 0.000000 0.000000 0.000000 -0.007819 0.000000 0.056503
#
#
# Mechanical properties :
#
#
# Convention : Reuss Voigt Hill
#
# Bulk Modulus (GPa) = 25.38252 37.04564 31.21408
# Shear Modulus (GPa) = 24.94340 30.72786 27.83563
#
# Velocity S-wave (km/s) = 3.36825 3.73845 3.55817
# Velocity P-wave (km/s) = 5.16445 5.95687 5.57476
#
# Compressibility (1/GPa) = 0.03939719
#
# Stress axis : x y z
#
# Youngs Moduli (GPa) = 76.37609 38.72061 95.88604
#
# Poissons Ratio (x) = -0.06405 0.21849
# Poissons Ratio (y) = -0.12634 0.41720
# Poissons Ratio (z) = 0.17404 0.16847
#
# Static dielectric constant tensor:
#      x y z
#    x 1.864090 0.000000 -0.011380 
#    y 0.000000 1.825440 0.000000 
#    z -0.011380 0.000000 1.900570 
# 
# From -- ./inp_files/146148.got.cif
#   From: 2010.05.17/outbox.cif.g08.bks.cpg/sg15_74_cif.got.tgz:146148.got - 2010.06.03 18:47:42.
