data_PCOD9300040
_publ_section_title
;
Structure prediction by ZEFSAII (Michael W. Deem and Ramdas Pophale) SiO2 
 PCOD9300040
Probable space group: C 2/C
;
_chemical_formula_sum "Si O2"
_cell_formula_units_Z 44
_cell_length_a 17.418385
_cell_length_b 17.078565
_cell_length_c 11.532758
_cell_angle_alpha 90.000000
_cell_angle_beta 142.225239
_cell_angle_gamma 90.000000
_cell_volume 2101.552847
_symmetry_space_group_name_H-M "C 2/C"
_symmetry_group_IT_number 15
_symmetry_cell_setting 'monoclinic'
loop_
_space_group_symop_operation_xyz
x,y,z
-x,y,1/2-z
-x,-y,-z
x,-y,1/2+z
1/2+x,1/2+y,z
1/2-x,1/2+y,1/2-z
1/2-x,1/2-y,-z
1/2+x,1/2-y,1/2+z
loop_
_atom_site_type_symbol
_atom_site_label
_atom_site_fract_x
_atom_site_fract_y
_atom_site_fract_z
Si Si1 0.293022 0.541958 0.472888
Si Si2 0.635559 0.276407 0.114674
Si Si3 0.013014 0.923652 0.090330
Si Si4 0.943567 0.356436 0.804419
Si Si5 0.659384 0.114292 0.737662
Si Si6 0.000000 0.316141 0.250000
O O1 0.385483 0.549549 0.692315
O O2 0.374703 0.590312 0.477165
O O3 0.162904 0.581049 0.350392
O O4 0.255730 0.457078 0.375931
O O5 0.560194 0.350169 0.075042
O O6 0.623318 0.211886 0.201234
O O7 0.767427 0.311289 0.229237
O O8 0.573324 0.237735 0.928174
O O9 0.000000 0.000000 0.000000
O O10 0.000000 0.327340 0.750000
O O11 0.048362 0.397410 0.011334
O O12 0.594508 0.133844 0.783172
#
# Coordination Sequence:
#
# PCOD9300040 Si02
#       6
#     8   8   8   8   8   4
#     4  11  26  44  70  99 143 176 233 284 339 413
#     4  11  25  46  70 102 141 178 238 279 351 407
#     4  11  25  43  69 104 130 186 226 287 341 400
#     4  11  27  44  72 101 140 184 225 287 344 419
#     4  11  24  46  69 105 135 184 229 280 351 404
#     4  10  26  42  72 102 138 184 224 292 340 416
#
# _framework density 20.936899
#
# number of rings (size 3 to 8) (size 9 to 14) (size 15 to 20)
#    0.000    1.091    1.818    2.182   11.455    4.364 
#    0.000    0.000    0.000    0.000    0.000    0.000 
#    0.000    0.000    0.000    0.000    0.000    0.000 
#
# Total GULP energy -122841.641891 kJ/mol
# GULP energy per Si atom -5583.710995 kJ/mol
# Density = 2.088925 g / cm^3
# Si number density = 20.936899 Si / 1000 Ang^3
#
#
#
# Elastic Constant Matrix: (Units=GPa)
#
#
# Indices 1 2 3 4 5 6 
#
# 1 141.3987 22.0056 53.6753 0.0000 -7.4753 0.0000
# 2 22.0056 57.3484 25.3783 0.0000 -3.7663 0.0000
# 3 53.6753 25.3783 72.6390 0.0000 9.7293 0.0000
# 4 0.0000 0.0000 0.0000 15.4962 0.0000 10.7235
# 5 -7.4753 -3.7663 9.7293 0.0000 33.3398 0.0000
# 6 0.0000 0.0000 0.0000 10.7235 0.0000 32.7737
#
#
#
# Elastic Compliance Matrix: (Units=1/GPa)
#
#
# Indices 1 2 3 4 5 6 
#
# 1 0.010524 0.000006 -0.008424 0.000000 0.004819 0.000000
# 2 0.000006 0.021331 -0.008097 0.000000 0.004774 0.000000
# 3 -0.008424 -0.008097 0.024139 0.000000 -0.009848 0.000000
# 4 0.000000 0.000000 0.000000 0.083420 0.000000 -0.027295
# 5 0.004819 0.004774 -0.009848 0.000000 0.034488 0.000000
# 6 0.000000 0.000000 0.000000 -0.027295 0.000000 0.039443
#
#
# Mechanical properties :
#
#
# Convention : Reuss Voigt Hill
#
# Bulk Modulus (GPa) = 43.54341 52.61160 48.07751
# Shear Modulus (GPa) = 19.68281 27.67707 23.67994
#
# Velocity S-wave (km/s) = 3.06943 3.63978 3.36670
# Velocity P-wave (km/s) = 5.77966 6.54578 6.17461
#
# Compressibility (1/GPa) = 0.02296559
#
# Stress axis : x y z
#
# Youngs Moduli (GPa) = 95.02367 46.87922 41.42657
#
# Poissons Ratio (x) = -0.00029 0.34897
# Poissons Ratio (y) = -0.00058 0.33541
# Poissons Ratio (z) = 0.80046 0.37956
#
# Static dielectric constant tensor:
#      x y z
#    x 2.101890 0.000000 -0.300620 
#    y 0.000000 1.713230 0.000000 
#    z -0.300620 0.000000 2.079360 
# 
# From -- ./inp_files/106775.got.cif
#   From: 2010.05.17/outbox.cif.g08.bks.cpg/sg15_54_cif.got.tgz:106775.got - 2010.06.03 18:47:42.
