data_PCOD9300565
_publ_section_title
;
Structure prediction by ZEFSAII (Michael W. Deem and Ramdas Pophale) SiO2 
 PCOD9300565
Probable space group: C 2/C
;
_chemical_formula_sum "Si O2"
_cell_formula_units_Z 40
_cell_length_a 10.766925
_cell_length_b 21.763020
_cell_length_c 17.020632
_cell_angle_alpha 90.000000
_cell_angle_beta 33.196326
_cell_angle_gamma 90.000000
_cell_volume 2183.625930
_symmetry_space_group_name_H-M "C 2/C"
_symmetry_group_IT_number 15
_symmetry_cell_setting 'monoclinic'
loop_
_space_group_symop_operation_xyz
x,y,z
-x,y,1/2-z
-x,-y,-z
x,-y,1/2+z
1/2+x,1/2+y,z
1/2-x,1/2+y,1/2-z
1/2-x,1/2-y,-z
1/2+x,1/2-y,1/2+z
loop_
_atom_site_type_symbol
_atom_site_label
_atom_site_fract_x
_atom_site_fract_y
_atom_site_fract_z
Si Si1 0.840260 0.571555 0.766061
Si Si2 0.367849 0.608375 0.065696
Si Si3 0.234672 0.624264 0.865045
Si Si4 0.257790 0.260684 0.588492
Si Si5 0.498421 0.936004 0.633791
O O1 0.803115 0.608548 0.705501
O O2 0.000000 0.597776 0.750000
O O3 0.945409 0.506588 0.682540
O O4 0.593591 0.569035 0.936829
O O5 0.408658 0.680781 0.030755
O O6 0.195944 0.587414 0.087690
O O7 0.232165 0.598339 0.218236
O O8 0.500000 0.616753 0.750000
O O9 0.176188 0.695633 0.909688
O O10 0.083913 0.581368 0.002035
O O11 0.250000 0.250000 0.500000
O O12 0.000000 0.276076 0.750000
#
# Coordination Sequence:
#
# PCOD9300565 Si02
#       5
#     8   8   8   8   8
#     4  12  25  39  59  88 130 167 200 246 312 372
#     4  11  20  38  62  91 118 159 207 255 304 353
#     4  11  22  39  63  95 122 158 207 260 304 356
#     4  11  18  34  63  93 118 146 203 265 300 343
#     4  11  21  38  62  88 123 158 208 251 301 358
#
# _framework density 18.318155000000001
#
# number of rings (size 3 to 8) (size 9 to 14) (size 15 to 20)
#    0.000    0.800    8.000    2.400    0.000    0.000 
#    0.000    2.000    0.000    0.000    0.000    0.000 
#    0.000    0.000    0.000    0.000    0.000    0.000 
#
# Total GULP energy -111622.814508 kJ/mol
# GULP energy per Si atom -5581.140725 kJ/mol
# Density = 1.827646 g / cm^3
# Si number density = 18.318155 Si / 1000 Ang^3
#
#
#
# Elastic Constant Matrix: (Units=GPa)
#
#
# Indices 1 2 3 4 5 6 
#
# 1 102.7608 37.2125 44.1185 -0.0007 11.9667 0.0007
# 2 37.2125 91.3771 20.5560 0.0049 -1.0091 0.0001
# 3 44.1185 20.5560 117.2846 0.0140 5.5809 -0.0088
# 4 -0.0007 0.0049 0.0140 26.1610 -0.0070 8.7439
# 5 11.9667 -1.0091 5.5809 -0.0070 24.1838 0.0018
# 6 0.0007 0.0001 -0.0088 8.7439 0.0018 10.6436
#
#
#
# Elastic Compliance Matrix: (Units=1/GPa)
#
#
# Indices 1 2 3 4 5 6 
#
# 1 0.013964 -0.004829 -0.004113 0.000004 -0.006162 -0.000007
# 2 -0.004829 0.013085 -0.000623 -0.000002 0.003079 0.000001
# 3 -0.004113 -0.000623 0.010199 -0.000012 -0.000344 0.000018
# 4 0.000004 -0.000002 -0.000012 0.052693 0.000019 -0.043288
# 5 -0.006162 0.003079 -0.000344 0.000019 0.044607 -0.000023
# 6 -0.000007 0.000001 0.000018 -0.043288 -0.000023 0.129515
#
#
# Mechanical properties :
#
#
# Convention : Reuss Voigt Hill
#
# Bulk Modulus (GPa) = 55.19933 57.24406 56.22170
# Shear Modulus (GPa) = 17.28715 26.16672 21.72694
#
# Velocity S-wave (km/s) = 3.07533 3.78360 3.44770
# Velocity P-wave (km/s) = 6.54288 7.09966 6.82695
#
# Compressibility (1/GPa) = 0.01811616
#
# Stress axis : x y z
#
# Youngs Moduli (GPa) = 71.61485 76.42592 98.04828
#
# Poissons Ratio (x) = 0.36909 0.40327
# Poissons Ratio (y) = 0.34585 0.06110
# Poissons Ratio (z) = 0.29455 0.04763
#
# Static dielectric constant tensor:
#      x y z
#    x 1.603390 0.000000 0.010910 
#    y 0.000000 1.662850 0.000010 
#    z 0.010910 0.000010 1.654010 
# 
# From -- ./inp_files/30162.got.cif
#   From: 2010.05.17/outbox.cif.g08.bks.cpg/sg15_16_cif.got.tgz:30162.got - 2010.06.03 18:47:42.
