data_PCOD9300153
_publ_section_title
;
Structure prediction by ZEFSAII (Michael W. Deem and Ramdas Pophale) SiO2 
 PCOD9300153
Probable space group: C 2/C
;
_chemical_formula_sum "Si O2"
_cell_formula_units_Z 28
_cell_length_a 22.685719
_cell_length_b 4.914178
_cell_length_c 20.635199
_cell_angle_alpha 90.000000
_cell_angle_beta 27.423012
_cell_angle_gamma 90.000000
_cell_volume 1059.485079
_symmetry_space_group_name_H-M "C 2/C"
_symmetry_group_IT_number 15
_symmetry_cell_setting 'monoclinic'
loop_
_space_group_symop_operation_xyz
x,y,z
-x,y,1/2-z
-x,-y,-z
x,-y,1/2+z
1/2+x,1/2+y,z
1/2-x,1/2+y,1/2-z
1/2-x,1/2-y,-z
1/2+x,1/2-y,1/2+z
loop_
_atom_site_type_symbol
_atom_site_label
_atom_site_fract_x
_atom_site_fract_y
_atom_site_fract_z
Si Si1 0.670247 0.081504 0.181899
Si Si2 0.277975 0.768632 0.679975
Si Si3 0.500000 0.833584 0.250000
Si Si4 0.053758 0.031285 0.572417
O O1 0.562918 0.264389 0.319897
O O2 0.690121 0.802687 0.203378
O O3 0.615998 0.014165 0.164255
O O4 0.813394 0.197550 0.044833
O O5 0.228825 0.563817 0.783606
O O6 0.414029 0.658894 0.520661
O O7 0.460341 0.650677 0.349517
#
# Coordination Sequence:
#
# PCOD9300153 Si02
#       4
#     8   8   4   8
#     4  10  26  45  74 106 147 192 247 309 374 437
#     4  10  26  49  77 109 151 196 252 306 374 448
#     4  12  24  44  72 108 150 188 254 304 372 448
#     4  10  26  45  74 106 147 192 247 309 374 437
#
# _framework density 26.427934
#
# number of rings (size 3 to 8) (size 9 to 14) (size 15 to 20)
#    1.714    0.000    0.000    1.714    8.000    9.143 
#    0.000    0.000    0.000    0.000    0.000    0.000 
#    0.000    0.000    0.000    0.000    0.000    0.000 
#
# Total GULP energy -78394.927307 kJ/mol
# GULP energy per Si atom -5599.637665 kJ/mol
# Density = 2.636778 g / cm^3
# Si number density = 26.427934 Si / 1000 Ang^3
#
#
#
# Elastic Constant Matrix: (Units=GPa)
#
#
# Indices 1 2 3 4 5 6 
#
# 1 104.0177 12.5902 6.2960 -0.0143 -2.2123 0.0435
# 2 12.5902 63.3909 24.1808 0.0496 -8.7039 -0.0553
# 3 6.2960 24.1808 133.4548 0.1636 -8.2930 -0.1104
# 4 -0.0143 0.0496 0.1636 36.2643 0.0942 31.6426
# 5 -2.2123 -8.7039 -8.2930 0.0942 60.7071 -0.1724
# 6 0.0435 -0.0553 -0.1104 31.6426 -0.1724 36.4924
#
#
#
# Elastic Compliance Matrix: (Units=1/GPa)
#
#
# Indices 1 2 3 4 5 6 
#
# 1 0.009853 -0.001903 -0.000116 0.000081 0.000070 -0.000084
# 2 -0.001903 0.017565 -0.002965 -0.000175 0.002045 0.000181
# 3 -0.000116 -0.002965 0.008078 -0.000224 0.000675 0.000217
# 4 0.000081 -0.000175 -0.000224 0.113313 -0.000508 -0.098257
# 5 0.000070 0.002045 0.000675 -0.000508 0.016863 0.000525
# 6 -0.000084 0.000181 0.000217 -0.098257 0.000525 0.112605
#
#
# Mechanical properties :
#
#
# Convention : Reuss Voigt Hill
#
# Bulk Modulus (GPa) = 39.17351 42.99970 41.08660
# Shear Modulus (GPa) = 16.84888 43.87918 30.36403
#
# Velocity S-wave (km/s) = 2.52770 4.07914 3.39327
# Velocity P-wave (km/s) = 4.83466 6.20417 5.56173
#
# Compressibility (1/GPa) = 0.02552745
#
# Stress axis : x y z
#
# Youngs Moduli (GPa) = 101.49553 56.93017 123.78747
#
# Poissons Ratio (x) = 0.10835 0.01433
# Poissons Ratio (y) = 0.19317 0.36709
# Poissons Ratio (z) = 0.01175 0.16882
#
# Static dielectric constant tensor:
#      x y z
#    x 2.060000 -0.000060 -0.061140 
#    y -0.000060 2.098450 0.000030 
#    z -0.061140 0.000030 2.124610 
# 
# From -- ./inp_files/64283.got.cif
#   From: 2010.05.17/outbox.cif.g08.bks.cpg/sg15_33_cif.got.tgz:64283.got - 2010.06.03 18:47:42.
