data_PCOD9300585
_publ_section_title
;
Structure prediction by ZEFSAII (Michael W. Deem and Ramdas Pophale) SiO2 
 PCOD9300585
Probable space group: C 2/C
;
_chemical_formula_sum "Si O2"
_cell_formula_units_Z 48
_cell_length_a 12.973941
_cell_length_b 18.872862
_cell_length_c 10.612968
_cell_angle_alpha 90.000000
_cell_angle_beta 44.206667
_cell_angle_gamma 90.000000
_cell_volume 1811.899637
_symmetry_space_group_name_H-M "C 2/C"
_symmetry_group_IT_number 15
_symmetry_cell_setting 'monoclinic'
loop_
_space_group_symop_operation_xyz
x,y,z
-x,y,1/2-z
-x,-y,-z
x,-y,1/2+z
1/2+x,1/2+y,z
1/2-x,1/2+y,1/2-z
1/2-x,1/2-y,-z
1/2+x,1/2-y,1/2+z
loop_
_atom_site_type_symbol
_atom_site_label
_atom_site_fract_x
_atom_site_fract_y
_atom_site_fract_z
Si Si1 0.036422 0.570601 0.384977
Si Si2 0.302644 0.670513 0.231390
Si Si3 0.318798 0.157087 0.908245
Si Si4 0.284887 0.182395 0.640780
Si Si5 0.716104 0.509282 0.932776
Si Si6 0.457629 0.589229 0.618412
O O1 0.162693 0.619622 0.337702
O O2 0.135214 0.535829 0.189642
O O3 0.000000 0.500000 0.500000
O O4 0.909652 0.629662 0.479194
O O5 0.273558 0.695977 0.399985
O O6 0.301074 0.732942 0.127037
O O7 0.451775 0.627332 0.075159
O O8 0.500000 0.160363 0.750000
O O9 0.285011 0.170965 0.791964
O O10 0.252880 0.077362 0.981840
O O11 0.129208 0.150978 0.733928
O O12 0.665394 0.537801 0.837874
O O13 0.581618 0.457372 0.077219
#
# Coordination Sequence:
#
# PCOD9300585 Si02
#       6
#     8   8   8   8   8   8
#     4  11  18  36  56  74 106 159 205 239 275 339
#     4  11  22  33  52  82 119 153 185 238 298 353
#     4  11  20  34  51  77 117 158 194 223 285 360
#     4  11  21  34  53  78 114 154 200 229 289 353
#     4   9  19  34  52  74  99 153 202 245 272 317
#     4   9  19  33  51  72 106 145 194 246 275 326
#
# _framework density 26.491534999999999
#
# number of rings (size 3 to 8) (size 9 to 14) (size 15 to 20)
#    0.000    1.667    5.000    1.500    0.000    2.667 
#    0.000    0.000    0.000    0.000    0.000    0.000 
#    0.000   88.000    0.000    1.333    0.000    0.000 
#
# Total GULP energy -133925.401973 kJ/mol
# GULP energy per Si atom -5580.225082 kJ/mol
# Density = 2.643124 g / cm^3
# Si number density = 26.491535 Si / 1000 Ang^3
#
#
#
# Elastic Constant Matrix: (Units=GPa)
#
#
# Indices 1 2 3 4 5 6 
#
# 1 52.9772 12.0154 27.4677 -0.0001 -25.4102 0.0000
# 2 12.0154 124.1727 35.4294 0.0000 2.5526 0.0000
# 3 27.4677 35.4294 118.8004 -0.0002 -32.0549 0.0004
# 4 -0.0001 0.0000 -0.0002 76.6839 0.0001 -16.5718
# 5 -25.4102 2.5526 -32.0549 0.0001 36.7743 -0.0001
# 6 0.0000 0.0000 0.0004 -16.5718 -0.0001 62.1722
#
#
#
# Elastic Compliance Matrix: (Units=1/GPa)
#
#
# Indices 1 2 3 4 5 6 
#
# 1 0.029523 -0.003153 -0.000422 0.000000 0.020251 0.000000
# 2 -0.003153 0.009563 -0.003778 0.000000 -0.006136 0.000000
# 3 -0.000422 -0.003778 0.012597 0.000000 0.010951 0.000000
# 4 0.000000 0.000000 0.000000 0.013838 0.000000 0.003688
# 5 0.020251 -0.006136 0.010951 0.000000 0.051157 0.000000
# 6 0.000000 0.000000 0.000000 0.003688 0.000000 0.017067
#
#
# Mechanical properties :
#
#
# Convention : Reuss Voigt Hill
#
# Bulk Modulus (GPa) = 27.04412 49.53059 38.28735
# Shear Modulus (GPa) = 31.09922 49.86194 40.48058
#
# Velocity S-wave (km/s) = 3.42998 4.34312 3.91328
# Velocity P-wave (km/s) = 5.09089 6.62477 5.90782
#
# Compressibility (1/GPa) = 0.03697662
#
# Stress axis : x y z
#
# Youngs Moduli (GPa) = 33.87193 104.57422 79.38653
#
# Poissons Ratio (x) = 0.32970 0.03347
# Poissons Ratio (y) = 0.10679 0.29996
# Poissons Ratio (z) = 0.01428 0.39513
#
# Static dielectric constant tensor:
#      x y z
#    x 2.342380 0.000000 0.126910 
#    y 0.000000 2.304740 0.000000 
#    z 0.126910 0.000000 2.116750 
# 
# From -- ./inp_files/48358.got.cif
#   From: 2010.05.17/outbox.cif.g08.bks.cpg/sg15_25_cif.got.tgz:48358.got - 2010.06.03 18:47:42.
