data_PCOD9300170
_publ_section_title
;
Structure prediction by ZEFSAII (Michael W. Deem and Ramdas Pophale) SiO2 
 PCOD9300170
Probable space group: C 2/C
;
_chemical_formula_sum "Si O2"
_cell_formula_units_Z 60
_cell_length_a 26.785751
_cell_length_b 13.999440
_cell_length_c 20.781154
_cell_angle_alpha 90.000000
_cell_angle_beta 20.095824
_cell_angle_gamma 90.000000
_cell_volume 2677.480054
_symmetry_space_group_name_H-M "C 2/C"
_symmetry_group_IT_number 15
_symmetry_cell_setting 'monoclinic'
loop_
_space_group_symop_operation_xyz
x,y,z
-x,y,1/2-z
-x,-y,-z
x,-y,1/2+z
1/2+x,1/2+y,z
1/2-x,1/2+y,1/2-z
1/2-x,1/2-y,-z
1/2+x,1/2-y,1/2+z
loop_
_atom_site_type_symbol
_atom_site_label
_atom_site_fract_x
_atom_site_fract_y
_atom_site_fract_z
Si Si1 0.829167 0.138191 0.062263
Si Si2 0.609958 0.041993 0.418887
Si Si3 0.000000 0.613442 0.750000
Si Si4 0.388430 0.562355 0.440848
Si Si5 0.104451 0.321901 0.254021
Si Si6 0.274046 0.019236 0.598055
Si Si7 0.471144 0.366898 0.597854
Si Si8 0.892923 0.200215 0.702225
O O1 0.754959 0.078879 0.210047
O O2 0.701073 0.203858 0.189017
O O3 0.962908 0.199424 0.928480
O O4 0.882663 0.052597 0.952222
O O5 0.536483 0.133098 0.541200
O O6 0.500000 0.000000 0.500000
O O7 0.641102 0.966879 0.437601
O O8 0.068437 0.678490 0.722579
O O9 0.123524 0.543463 0.571691
O O10 0.500000 0.590012 0.250000
O O11 0.233298 0.604915 0.610558
O O12 0.431418 0.605722 0.458307
O O13 0.129476 0.220485 0.256050
O O14 0.214700 0.117382 0.642090
O O15 0.133068 0.956527 0.786636
O O16 0.556350 0.333049 0.431153
#
# Coordination Sequence:
#
# PCOD9300170 Si02
#       8
#     8   8   4   8   8   8   8   8
#     4  12  26  48  71 106 142 186 244 302 354 421
#     4  11  22  41  69 101 141 182 233 296 359 414
#     4  10  26  46  66 104 148 186 230 270 358 432
#     4  12  28  47  70 102 144 191 236 287 353 430
#     4  11  26  41  72 103 142 186 225 288 348 442
#     4  11  24  45  68 100 145 185 232 290 356 426
#     4  12  25  43  71 107 141 180 232 294 359 421
#     4  12  27  44  76 106 137 188 243 303 362 409
#
# _framework density 22.409130000000001
#
# number of rings (size 3 to 8) (size 9 to 14) (size 15 to 20)
#    0.000    0.533    5.333    2.000    8.400    1.067 
#    1.200    0.667    0.000    0.000    0.000    0.000 
#    0.000    0.000    0.000    0.000    0.000    0.000 
#
# Total GULP energy -167929.657537 kJ/mol
# GULP energy per Si atom -5597.655251 kJ/mol
# Density = 2.235813 g / cm^3
# Si number density = 22.409130 Si / 1000 Ang^3
#
#
#
# Elastic Constant Matrix: (Units=GPa)
#
#
# Indices 1 2 3 4 5 6 
#
# 1 90.9611 17.9488 9.0988 0.0008 -23.7638 -0.0004
# 2 17.9488 71.2642 5.2639 0.0013 -0.4511 -0.0005
# 3 9.0988 5.2639 65.1033 0.0027 -0.9134 -0.0013
# 4 0.0008 0.0013 0.0027 30.0763 -0.0009 -18.5773
# 5 -23.7638 -0.4511 -0.9134 -0.0009 28.8354 0.0003
# 6 -0.0004 -0.0005 -0.0013 -18.5773 0.0003 26.8624
#
#
#
# Elastic Compliance Matrix: (Units=1/GPa)
#
#
# Indices 1 2 3 4 5 6 
#
# 1 0.015089 -0.003601 -0.001645 0.000000 0.012327 0.000000
# 2 -0.003601 0.014977 -0.000746 -0.000001 -0.002757 0.000000
# 3 -0.001645 -0.000746 0.015638 -0.000002 -0.000872 0.000000
# 4 0.000000 -0.000001 -0.000002 0.058043 0.000002 0.040141
# 5 0.012327 -0.002757 -0.000872 0.000002 0.044768 0.000001
# 6 0.000000 0.000000 0.000000 0.040141 0.000001 0.064987
#
#
# Mechanical properties :
#
#
# Convention : Reuss Voigt Hill
#
# Bulk Modulus (GPa) = 29.65577 32.43908 31.04743
# Shear Modulus (GPa) = 21.12149 30.15594 25.63872
#
# Velocity S-wave (km/s) = 3.07341 3.67236 3.38615
# Velocity P-wave (km/s) = 5.08498 5.69990 5.40120
#
# Compressibility (1/GPa) = 0.03372025
#
# Stress axis : x y z
#
# Youngs Moduli (GPa) = 66.27259 66.76948 63.94599
#
# Poissons Ratio (x) = 0.24043 0.10518
# Poissons Ratio (y) = 0.23864 0.04773
# Poissons Ratio (z) = 0.10900 0.04984
#
# Static dielectric constant tensor:
#      x y z
#    x 1.836450 0.000000 0.002350 
#    y 0.000000 1.813450 0.000000 
#    z 0.002350 0.000000 1.820530 
# 
# From -- ./inp_files/257868.got.cif
#   From: 2010.05.17/outbox.cif.g08.bks.cpg/sg15_129_cif.got.tgz:257868.got - 2010.06.03 18:47:42.
