data_PCOD9300622
_publ_section_title
;
Structure prediction by ZEFSAII (Michael W. Deem and Ramdas Pophale) SiO2 
 PCOD9300622
Probable space group: C 2/C
;
_chemical_formula_sum "Si O2"
_cell_formula_units_Z 44
_cell_length_a 21.411853
_cell_length_b 6.612985
_cell_length_c 15.609949
_cell_angle_alpha 90.000000
_cell_angle_beta 54.066350
_cell_angle_gamma 90.000000
_cell_volume 1789.682002
_symmetry_space_group_name_H-M "C 2/C"
_symmetry_group_IT_number 15
_symmetry_cell_setting 'monoclinic'
loop_
_space_group_symop_operation_xyz
x,y,z
-x,y,1/2-z
-x,-y,-z
x,-y,1/2+z
1/2+x,1/2+y,z
1/2-x,1/2+y,1/2-z
1/2-x,1/2-y,-z
1/2+x,1/2-y,1/2+z
loop_
_atom_site_type_symbol
_atom_site_label
_atom_site_fract_x
_atom_site_fract_y
_atom_site_fract_z
Si Si1 0.061428 0.439606 0.881550
Si Si2 0.825196 0.696336 0.792265
Si Si3 0.500000 0.205233 0.250000
Si Si4 0.349172 0.776404 0.555897
Si Si5 0.892717 0.992030 0.363786
Si Si6 0.314259 0.130681 0.452407
O O1 0.125402 0.612847 0.824548
O O2 0.102523 0.254979 0.895799
O O3 0.027201 0.403951 0.815892
O O4 0.000000 0.500000 0.000000
O O5 0.737322 0.736662 0.844423
O O6 0.869616 0.880434 0.800449
O O7 0.820377 0.517437 0.865926
O O8 0.405780 0.248521 0.363021
O O9 0.385258 0.626453 0.454967
O O10 0.339677 0.993087 0.514483
O O11 0.788420 0.877766 0.456796
O O12 0.000000 0.965203 0.250000
#
# Coordination Sequence:
#
# PCOD9300622 Si02
#       6
#     8   8   4   8   8   8
#     4  12  30  51  72 110 160 197 254 310 377 460
#     4  11  24  44  76 109 146 194 247 318 373 434
#     4  12  28  50  74 104 146 218 236 302 390 454
#     4  11  25  45  75 116 144 193 258 319 369 444
#     4  11  23  44  79 104 148 195 250 304 383 452
#     4  11  18  42  75 111 149 183 239 309 383 441
#
# _framework density 24.585372
#
# number of rings (size 3 to 8) (size 9 to 14) (size 15 to 20)
#    0.000    0.727    5.455    2.182    5.091    3.636 
#    6.545    0.000    0.000    0.000    0.000    0.000 
#    0.000    0.000    0.000    0.000    0.000    0.000 
#
# Total GULP energy -122534.909813 kJ/mol
# GULP energy per Si atom -5569.768628 kJ/mol
# Density = 2.452941 g / cm^3
# Si number density = 24.585372 Si / 1000 Ang^3
#
#
#
# Elastic Constant Matrix: (Units=GPa)
#
#
# Indices 1 2 3 4 5 6 
#
# 1 133.1308 33.5556 59.9085 0.0010 -9.2502 -0.0002
# 2 33.5556 89.4288 47.9916 0.0089 -1.4732 0.0044
# 3 59.9085 47.9916 192.8099 -0.0003 -18.2311 0.0008
# 4 0.0010 0.0089 -0.0003 53.2389 0.0000 -18.3414
# 5 -9.2502 -1.4732 -18.2311 0.0000 51.6787 -0.0007
# 6 -0.0002 0.0044 0.0008 -18.3414 -0.0007 22.0225
#
#
#
# Elastic Compliance Matrix: (Units=1/GPa)
#
#
# Indices 1 2 3 4 5 6 
#
# 1 0.009119 -0.002226 -0.002205 0.000001 0.000791 0.000001
# 2 -0.002226 0.013481 -0.002757 -0.000004 -0.000987 -0.000006
# 3 -0.002205 -0.002757 0.006738 0.000001 0.001904 0.000001
# 4 0.000001 -0.000004 0.000001 0.026341 0.000001 0.021938
# 5 0.000791 -0.000987 0.001904 0.000001 0.020135 0.000001
# 6 0.000001 -0.000006 0.000001 0.021938 0.000001 0.063679
#
#
# Mechanical properties :
#
#
# Convention : Reuss Voigt Hill
#
# Bulk Modulus (GPa) = 66.83283 77.58679 72.20981
# Shear Modulus (GPa) = 31.47496 43.64894 37.56195
#
# Velocity S-wave (km/s) = 3.58191 4.21812 3.91297
# Velocity P-wave (km/s) = 6.65956 7.43976 7.06045
#
# Compressibility (1/GPa) = 0.01496271
#
# Stress axis : x y z
#
# Youngs Moduli (GPa) = 109.65530 74.18099 148.41671
#
# Poissons Ratio (x) = 0.16510 0.32722
# Poissons Ratio (y) = 0.24405 0.40921
# Poissons Ratio (z) = 0.24176 0.20453
#
# Static dielectric constant tensor:
#      x y z
#    x 1.128890 0.000000 0.844080 
#    y 0.000000 2.032840 0.000000 
#    z 0.844080 0.000000 0.830430 
# 
# From -- ./inp_files/160716.got.cif
#   From: 2010.05.17/outbox.cif.g08.bks.cpg/sg15_81_cif.got.tgz:160716.got - 2010.06.03 18:47:42.
