data_PCOD9300909
_publ_section_title
;
Structure prediction by ZEFSAII (Michael W. Deem and Ramdas Pophale) SiO2 
 PCOD9300909
Probable space group: C 2/C
;
_chemical_formula_sum "Si O2"
_cell_formula_units_Z 56
_cell_length_a 22.207837
_cell_length_b 19.812281
_cell_length_c 17.570440
_cell_angle_alpha 90.000000
_cell_angle_beta 154.953964
_cell_angle_gamma 90.000000
_cell_volume 3272.797779
_symmetry_space_group_name_H-M "C 2/C"
_symmetry_group_IT_number 15
_symmetry_cell_setting 'monoclinic'
loop_
_space_group_symop_operation_xyz
x,y,z
-x,y,1/2-z
-x,-y,-z
x,-y,1/2+z
1/2+x,1/2+y,z
1/2-x,1/2+y,1/2-z
1/2-x,1/2-y,-z
1/2+x,1/2-y,1/2+z
loop_
_atom_site_type_symbol
_atom_site_label
_atom_site_fract_x
_atom_site_fract_y
_atom_site_fract_z
Si Si1 0.164600 0.578628 0.711953
Si Si2 0.152018 0.504109 0.464918
Si Si3 0.346239 0.070024 0.377360
Si Si4 0.853614 0.751363 0.047243
Si Si5 0.776349 0.131866 0.689338
Si Si6 0.592384 0.387668 0.483430
Si Si7 0.146338 0.022425 0.444693
O O1 0.155445 0.503035 0.666252
O O2 0.251762 0.621405 0.750497
O O3 0.001855 0.601078 0.538951
O O4 0.252509 0.569746 0.889607
O O5 0.167778 0.447960 0.549377
O O6 0.177891 0.575513 0.535791
O O7 0.268073 0.498696 0.531973
O O8 0.000000 0.500411 0.250000
O O9 0.215506 0.109154 0.188867
O O10 0.881998 0.824632 0.043441
O O11 0.000000 0.724154 0.250000
O O12 0.750000 0.750000 0.000000
O O13 0.782594 0.703642 0.903696
O O14 0.937387 0.119369 0.844907
O O15 0.605830 0.456344 0.449034
O O16 0.000000 0.055172 0.250000
#
# Coordination Sequence:
#
# PCOD9300909 Si02
#       7
#     8   8   8   8   8   8   8
#     4   9  20  34  51  76 105 142 178 210 266 322
#     4  11  20  34  54  80 109 140 176 218 268 315
#     4   9  20  34  51  75 107 140 176 216 262 321
#     4  12  24  39  55  78 108 142 184 221 258 307
#     4  11  23  36  53  76 108 147 178 217 265 314
#     4  11  23  37  51  77 111 143 180 218 262 315
#     4  11  20  33  55  80 111 140 174 222 265 311
#
# _framework density 17.110741999999998
#
# number of rings (size 3 to 8) (size 9 to 14) (size 15 to 20)
#    0.000    1.429    4.286    1.714    6.000    1.714 
#    0.000    0.000    0.000    0.000    0.000    2.000 
#    0.000    0.000    0.000    0.000    0.000    0.000 
#
# Total GULP energy -156191.113414 kJ/mol
# GULP energy per Si atom -5578.254051 kJ/mol
# Density = 1.707180 g / cm^3
# Si number density = 17.110742 Si / 1000 Ang^3
#
#
#
# Elastic Constant Matrix: (Units=GPa)
#
#
# Indices 1 2 3 4 5 6 
#
# 1 79.1376 17.9563 38.7186 0.0000 3.1997 0.0000
# 2 17.9563 29.4324 11.8170 0.0000 0.3672 0.0000
# 3 38.7186 11.8170 125.7272 0.0000 3.8616 0.0000
# 4 0.0000 0.0000 0.0000 21.3620 0.0000 -6.0137
# 5 3.1997 0.3672 3.8616 0.0000 35.2209 0.0000
# 6 0.0000 0.0000 0.0000 -6.0137 0.0000 20.7479
#
#
#
# Elastic Compliance Matrix: (Units=1/GPa)
#
#
# Indices 1 2 3 4 5 6 
#
# 1 0.016705 -0.008445 -0.004321 0.000000 -0.000956 0.000000
# 2 -0.008445 0.039577 -0.001134 0.000000 0.000479 0.000000
# 3 -0.004321 -0.001134 0.009410 0.000000 -0.000627 0.000000
# 4 0.000000 0.000000 0.000000 0.050971 0.000000 0.014774
# 5 -0.000956 0.000479 -0.000627 0.000000 0.028543 0.000000
# 6 0.000000 0.000000 0.000000 0.014774 0.000000 0.052480
#
#
# Mechanical properties :
#
#
# Convention : Reuss Voigt Hill
#
# Bulk Modulus (GPa) = 26.39016 41.25344 33.82180
# Shear Modulus (GPa) = 20.99800 26.51985 23.75892
#
# Velocity S-wave (km/s) = 3.50692 3.94114 3.73035
# Velocity P-wave (km/s) = 5.64399 6.69867 6.19382
#
# Compressibility (1/GPa) = 0.03789291
#
# Stress axis : x y z
#
# Youngs Moduli (GPa) = 59.86138 25.26696 106.26549
#
# Poissons Ratio (x) = 0.21337 0.45922
# Poissons Ratio (y) = 0.50551 0.12050
# Poissons Ratio (z) = 0.25869 0.02865
#
# Static dielectric constant tensor:
#      x y z
#    x 1.616620 0.000000 -0.010210 
#    y 0.000000 1.567110 0.000000 
#    z -0.010210 0.000000 1.597350 
# 
# From -- ./inp_files/49709.got.cif
#   From: 2010.05.17/outbox.cif.g08.bks.cpg/sg15_25_cif.got.tgz:49709.got - 2010.06.03 18:47:42.
