data_PCOD9300104
_publ_section_title
;
Structure prediction by ZEFSAII (Michael W. Deem and Ramdas Pophale) SiO2 
 PCOD9300104
Probable space group: C 2/C
;
_chemical_formula_sum "Si O2"
_cell_formula_units_Z 60
_cell_length_a 20.661009
_cell_length_b 8.577428
_cell_length_c 24.793183
_cell_angle_alpha 90.000000
_cell_angle_beta 40.122071
_cell_angle_gamma 90.000000
_cell_volume 2831.448831
_symmetry_space_group_name_H-M "C 2/C"
_symmetry_group_IT_number 15
_symmetry_cell_setting 'monoclinic'
loop_
_space_group_symop_operation_xyz
x,y,z
-x,y,1/2-z
-x,-y,-z
x,-y,1/2+z
1/2+x,1/2+y,z
1/2-x,1/2+y,1/2-z
1/2-x,1/2-y,-z
1/2+x,1/2-y,1/2+z
loop_
_atom_site_type_symbol
_atom_site_label
_atom_site_fract_x
_atom_site_fract_y
_atom_site_fract_z
Si Si1 0.329986 0.532624 0.729754
Si Si2 0.788848 0.407496 0.594257
Si Si3 0.665112 0.123594 0.625131
Si Si4 0.491641 0.301650 0.320218
Si Si5 0.026550 0.553083 0.809503
Si Si6 0.868691 0.714875 0.656386
Si Si7 0.500000 0.000000 0.500000
Si Si8 0.721221 0.578189 0.534492
O O1 0.272683 0.435041 0.812144
O O2 0.416332 0.626971 0.705429
O O3 0.246059 0.654330 0.763403
O O4 0.368585 0.402194 0.662947
O O5 0.735152 0.259916 0.601376
O O6 0.906133 0.400705 0.532991
O O7 0.766149 0.539427 0.564235
O O8 0.615796 0.037990 0.708455
O O9 0.563050 0.160292 0.656814
O O10 0.732633 0.029523 0.540630
O O11 0.500000 0.292402 0.250000
O O12 0.482185 0.121080 0.345824
O O13 0.398566 0.416461 0.388725
O O14 0.070058 0.630881 0.834689
O O15 0.917234 0.637025 0.572244
O O16 0.750000 0.750000 0.500000
#
# Coordination Sequence:
#
# PCOD9300104 Si02
#       8
#     8   8   8   8   8   8   4   8
#     4  11  25  43  70  96 131 187 231 287 338 424
#     4  11  24  44  67  98 136 179 230 281 351 411
#     4  11  23  39  67 103 133 182 222 292 343 412
#     4  12  23  41  67 101 140 178 226 282 348 413
#     4  11  22  42  69  98 142 181 229 282 357 411
#     4  11  24  47  68  97 136 182 238 282 352 419
#     4  10  26  44  70  96 140 178 228 294 352 408
#     4  12  24  41  65 101 142 176 222 285 351 407
#
# _framework density 21.190566
#
# number of rings (size 3 to 8) (size 9 to 14) (size 15 to 20)
#    0.000    0.800    5.333    2.000    3.733    0.000 
#    0.000    0.000    0.000    4.000    0.000    0.000 
#    0.000    0.000    0.000    0.000    0.000    0.000 
#
# Total GULP energy -167006.441549 kJ/mol
# GULP energy per Si atom -5566.881385 kJ/mol
# Density = 2.114234 g / cm^3
# Si number density = 21.190566 Si / 1000 Ang^3
#
#
#
# Elastic Constant Matrix: (Units=GPa)
#
#
# Indices 1 2 3 4 5 6 
#
# 1 87.3030 42.6666 23.1526 0.0004 -34.4204 -0.0007
# 2 42.6666 66.7307 14.2869 0.0007 -10.6257 -0.0014
# 3 23.1526 14.2869 61.3937 0.0002 -25.2177 -0.0003
# 4 0.0004 0.0007 0.0002 24.3506 0.0001 -4.4638
# 5 -34.4204 -10.6257 -25.2177 0.0001 39.0645 -0.0001
# 6 -0.0007 -0.0014 -0.0003 -4.4638 -0.0001 33.2728
#
#
#
# Elastic Compliance Matrix: (Units=1/GPa)
#
#
# Indices 1 2 3 4 5 6 
#
# 1 0.025377 -0.013435 0.001687 0.000000 0.019795 0.000000
# 2 -0.013435 0.023083 -0.003522 0.000000 -0.007833 0.000001
# 3 0.001687 -0.003522 0.022711 0.000000 0.015189 0.000000
# 4 0.000000 0.000000 0.000000 0.042102 0.000000 0.005648
# 5 0.019795 -0.007833 0.015189 0.000000 0.050715 0.000000
# 6 0.000000 0.000001 0.000000 0.005648 0.000000 0.030812
#
#
# Mechanical properties :
#
#
# Convention : Reuss Voigt Hill
#
# Bulk Modulus (GPa) = 24.61236 41.73774 33.17505
# Shear Modulus (GPa) = 20.93061 28.35900 24.64481
#
# Velocity S-wave (km/s) = 3.14623 3.66223 3.41399
# Velocity P-wave (km/s) = 4.98381 6.13365 5.58838
#
# Compressibility (1/GPa) = 0.04062999
#
# Stress axis : x y z
#
# Youngs Moduli (GPa) = 39.40512 43.32256 44.03196
#
# Poissons Ratio (x) = 0.58204 -0.07429
# Poissons Ratio (y) = 0.52941 0.15510
# Poissons Ratio (z) = -0.06648 0.15260
#
# Static dielectric constant tensor:
#      x y z
#    x 1.663680 0.000000 0.059190 
#    y 0.000000 1.512240 0.000000 
#    z 0.059190 0.000000 1.784390 
# 
# From -- ./inp_files/300505.got.cif
#   From: 2010.05.17/outbox.cif.g08.bks.cpg/sg15_151_cif.got.tgz:300505.got - 2010.06.03 18:47:42.
