data_PCOD9300440
_publ_section_title
;
Structure prediction by ZEFSAII (Michael W. Deem and Ramdas Pophale) SiO2 
 PCOD9300440
Probable space group: C 2/C
;
_chemical_formula_sum "Si O2"
_cell_formula_units_Z 60
_cell_length_a 29.838849
_cell_length_b 14.630860
_cell_length_c 22.149262
_cell_angle_alpha 90.000000
_cell_angle_beta 18.190243
_cell_angle_gamma 90.000000
_cell_volume 3018.607986
_symmetry_space_group_name_H-M "C 2/C"
_symmetry_group_IT_number 15
_symmetry_cell_setting 'monoclinic'
loop_
_space_group_symop_operation_xyz
x,y,z
-x,y,1/2-z
-x,-y,-z
x,-y,1/2+z
1/2+x,1/2+y,z
1/2-x,1/2+y,1/2-z
1/2-x,1/2-y,-z
1/2+x,1/2-y,1/2+z
loop_
_atom_site_type_symbol
_atom_site_label
_atom_site_fract_x
_atom_site_fract_y
_atom_site_fract_z
Si Si1 0.732425 0.264920 0.728744
Si Si2 0.474424 0.008989 0.651755
Si Si3 0.520895 0.814787 0.417543
Si Si4 0.776684 0.073506 0.736135
Si Si5 0.285222 0.360184 0.359364
Si Si6 0.816100 0.347964 0.796185
Si Si7 0.500000 0.026689 0.250000
Si Si8 0.582687 0.586601 0.508259
O O1 0.646548 0.255214 0.775621
O O2 0.901322 0.289023 0.519927
O O3 0.728038 0.163620 0.763085
O O4 0.643538 0.336453 0.883537
O O5 0.638192 0.991147 0.421690
O O6 0.393427 0.913835 0.744312
O O7 0.474570 0.030421 0.722097
O O8 0.414307 0.089244 0.687194
O O9 0.425600 0.830252 0.599998
O O10 0.824703 0.108060 0.740420
O O11 0.891581 0.012336 0.554170
O O12 0.274956 0.251058 0.373647
O O13 0.137176 0.409200 0.563424
O O14 0.416869 0.392982 0.231450
O O15 0.679882 0.399163 0.942435
#
# Coordination Sequence:
#
# PCOD9300440 Si02
#       8
#     8   8   8   8   8   8   4   8
#     4  11  19  33  54  99 126 149 193 248 333 370
#     4  11  21  40  60  83 122 170 215 234 298 387
#     4  11  20  34  61  92 127 154 198 259 321 366
#     4  11  18  32  58  86 124 157 192 255 314 363
#     4  11  22  39  54  85 127 159 207 248 299 377
#     4  11  20  34  60  89 119 155 196 260 315 363
#     4  10  28  42  60  82 116 188 208 242 290 376
#     4  11  20  33  56  92 122 156 191 259 325 357
#
# _framework density 19.876712000000001
#
# number of rings (size 3 to 8) (size 9 to 14) (size 15 to 20)
#    0.000    1.067    8.000    1.600    1.867    0.533 
#    0.000    0.000    0.000    0.800    0.000    0.000 
#    0.000    0.000    0.000    0.000    0.000    0.000 
#
# Total GULP energy -167509.294133 kJ/mol
# GULP energy per Si atom -5583.643138 kJ/mol
# Density = 1.983147 g / cm^3
# Si number density = 19.876712 Si / 1000 Ang^3
#
#
#
# Elastic Constant Matrix: (Units=GPa)
#
#
# Indices 1 2 3 4 5 6 
#
# 1 37.6142 1.7798 18.2266 0.0000 -17.8127 -0.0001
# 2 1.7798 48.7197 2.5013 -0.0002 1.0873 -0.0001
# 3 18.2266 2.5013 55.4430 0.0000 -19.7706 -0.0004
# 4 0.0000 -0.0002 0.0000 15.0459 0.0000 -11.9820
# 5 -17.8127 1.0873 -19.7706 0.0000 27.9330 0.0001
# 6 -0.0001 -0.0001 -0.0004 -11.9820 0.0001 23.9239
#
#
#
# Elastic Compliance Matrix: (Units=1/GPa)
#
#
# Indices 1 2 3 4 5 6 
#
# 1 0.039357 -0.001650 -0.005205 0.000000 0.021478 0.000000
# 2 -0.001650 0.020722 -0.001412 0.000000 -0.002858 0.000000
# 3 -0.005205 -0.001412 0.024943 0.000001 0.014390 0.000001
# 4 0.000000 0.000000 0.000001 0.110561 0.000000 0.055373
# 5 0.021478 -0.002858 0.014390 0.000000 0.059792 0.000000
# 6 0.000000 0.000000 0.000001 0.055373 0.000000 0.069532
#
#
# Mechanical properties :
#
#
# Convention : Reuss Voigt Hill
#
# Bulk Modulus (GPa) = 14.60096 20.75469 17.67782
# Shear Modulus (GPa) = 13.72609 21.33185 17.52897
#
# Velocity S-wave (km/s) = 2.63070 3.27954 2.97288
# Velocity P-wave (km/s) = 4.07298 4.98045 4.54940
#
# Compressibility (1/GPa) = 0.06848865
#
# Stress axis : x y z
#
# Youngs Moduli (GPa) = 25.40844 48.25763 40.09194
#
# Poissons Ratio (x) = 0.07962 0.20868
# Poissons Ratio (y) = 0.04192 0.05659
# Poissons Ratio (z) = 0.13225 0.06812
#
# Static dielectric constant tensor:
#      x y z
#    x 1.734530 0.000000 -0.042970 
#    y 0.000000 1.693190 0.000000 
#    z -0.042970 0.000000 1.713250 
# 
# From -- ./inp_files/259420.got.cif
#   From: 2010.05.17/outbox.cif.g08.bks.cpg/sg15_130_cif.got.tgz:259420.got - 2010.06.03 18:47:42.
