data_PCOD9300972
_publ_section_title
;
Structure prediction by ZEFSAII (Michael W. Deem and Ramdas Pophale) SiO2 
 PCOD9300972
Probable space group: C 2/C
;
_chemical_formula_sum "Si O2"
_cell_formula_units_Z 64
_cell_length_a 13.423742
_cell_length_b 12.308426
_cell_length_c 16.809824
_cell_angle_alpha 90.000000
_cell_angle_beta 98.823420
_cell_angle_gamma 90.000000
_cell_volume 2744.536972
_symmetry_space_group_name_H-M "C 2/C"
_symmetry_group_IT_number 15
_symmetry_cell_setting 'monoclinic'
loop_
_space_group_symop_operation_xyz
x,y,z
-x,y,1/2-z
-x,-y,-z
x,-y,1/2+z
1/2+x,1/2+y,z
1/2-x,1/2+y,1/2-z
1/2-x,1/2-y,-z
1/2+x,1/2-y,1/2+z
loop_
_atom_site_type_symbol
_atom_site_label
_atom_site_fract_x
_atom_site_fract_y
_atom_site_fract_z
Si Si1 0.491549 0.573320 0.918255
Si Si2 0.909700 0.889778 0.815849
Si Si3 0.713856 0.625773 0.924819
Si Si4 0.234001 0.166317 0.611490
Si Si5 0.225818 0.887439 0.858964
Si Si6 0.852444 0.661410 0.794153
Si Si7 0.397236 0.082634 0.265713
Si Si8 0.770107 0.431312 0.592429
O O1 0.487387 0.485759 0.844404
O O2 0.594049 0.643786 0.920958
O O3 0.387029 0.642939 0.905306
O O4 0.500000 0.500000 0.000000
O O5 0.846219 0.902904 0.726902
O O6 0.931144 0.760913 0.813905
O O7 0.838940 0.909267 0.883247
O O8 0.718829 0.496537 0.906660
O O9 0.774538 0.673446 0.858000
O O10 0.776620 0.637880 0.014011
O O11 0.282743 0.279792 0.589402
O O12 0.280078 0.164304 0.707625
O O13 0.279827 0.059286 0.576586
O O14 0.334474 0.868564 0.830163
O O15 0.905539 0.544246 0.794006
O O16 0.500000 0.134068 0.250000
O O17 0.337707 0.090027 0.176273
#
# Coordination Sequence:
#
# PCOD9300972 Si02
#       8
#     8   8   8   8   8   8   8   8
#     4  11  20  36  56  86 120 147 181 233 287 335
#     4   9  18  38  54  76 115 150 183 225 280 334
#     4  11  20  35  58  87 111 147 184 233 287 335
#     4   9  18  38  54  76 115 150 183 225 280 334
#     4   9  20  36  57  80 108 147 192 228 274 333
#     4   9  20  36  57  80 108 147 192 228 274 333
#     4   9  18  38  57  75 106 148 187 230 271 329
#     4   9  18  34  57  75 114 147 170 228 297 329
#
# _framework density 23.319051000000002
#
# number of rings (size 3 to 8) (size 9 to 14) (size 15 to 20)
#    0.000    2.500    2.500    2.250    0.000    3.000 
#   13.500    2.500    0.000    0.000    0.000    0.000 
#    0.000    0.000    0.000    0.000    0.000    0.000 
#
# Total GULP energy -178284.152894 kJ/mol
# GULP energy per Si atom -5571.379778 kJ/mol
# Density = 2.326598 g / cm^3
# Si number density = 23.319051 Si / 1000 Ang^3
#
#
#
# Elastic Constant Matrix: (Units=GPa)
#
#
# Indices 1 2 3 4 5 6 
#
# 1 55.7592 -21.0047 -10.6353 0.0000 2.4789 0.0000
# 2 -21.0047 87.6244 -15.1223 0.0000 17.2747 0.0000
# 3 -10.6353 -15.1223 54.3745 0.0000 15.2899 0.0000
# 4 0.0000 0.0000 0.0000 16.4765 0.0000 8.2640
# 5 2.4789 17.2747 15.2899 0.0000 22.5491 0.0000
# 6 0.0000 0.0000 0.0000 8.2640 0.0000 -7.2805
#
#
#
# Elastic Compliance Matrix: (Units=1/GPa)
#
#
# Indices 1 2 3 4 5 6 
#
# 1 0.027702 0.014520 0.016608 0.000000 -0.025431 0.000000
# 2 0.014520 0.024845 0.019214 0.000000 -0.033658 0.000000
# 3 0.016608 0.019214 0.039089 0.000000 -0.043051 0.000000
# 4 0.000000 0.000000 0.000000 0.038674 0.000000 0.043899
# 5 -0.025431 -0.033658 -0.043051 0.000000 0.102120 0.000000
# 6 0.000000 0.000000 0.000000 0.043899 0.000000 -0.087524
#
#
# Mechanical properties :
#
#
# Convention : Reuss Voigt Hill
#
# Bulk Modulus (GPa) = 5.19967 11.58149 8.39058
# Shear Modulus (GPa) = 46.15596 22.65038 34.40317
#
# Velocity S-wave (km/s) = 4.45379 3.11999 3.84516
# Velocity P-wave (km/s) = 5.35564 4.23750 4.82905
#
# Compressibility (1/GPa) = 0.19232004
#
# Stress axis : x y z
#
# Youngs Moduli (GPa) = 36.09801 40.25024 25.58280
#
# Poissons Ratio (x) = -0.58444 -0.42487
# Poissons Ratio (y) = -0.52415 -0.49155
# Poissons Ratio (z) = -0.59950 -0.77338
#
# Static dielectric constant tensor:
#      x y z
#    x 1.986500 0.000000 0.041240 
#    y 0.000000 1.985610 0.000000 
#    z 0.041240 0.000000 1.888860 
# 
# From -- ./inp_files/205129.got.cif
#   From: 2010.05.17/outbox.cif.g08.bks.cpg/sg15_103_cif.got.tgz:205129.got - 2010.06.03 18:47:42.
