data_PCOD9300936
_publ_section_title
;
Structure prediction by ZEFSAII (Michael W. Deem and Ramdas Pophale) SiO2 
 PCOD9300936
Probable space group: C 2/C
;
_chemical_formula_sum "Si O2"
_cell_formula_units_Z 64
_cell_length_a 29.705074
_cell_length_b 14.047641
_cell_length_c 8.442533
_cell_angle_alpha 90.000000
_cell_angle_beta 87.967658
_cell_angle_gamma 90.000000
_cell_volume 3520.736594
_symmetry_space_group_name_H-M "C 2/C"
_symmetry_group_IT_number 15
_symmetry_cell_setting 'monoclinic'
loop_
_space_group_symop_operation_xyz
x,y,z
-x,y,1/2-z
-x,-y,-z
x,-y,1/2+z
1/2+x,1/2+y,z
1/2-x,1/2+y,1/2-z
1/2-x,1/2-y,-z
1/2+x,1/2-y,1/2+z
loop_
_atom_site_type_symbol
_atom_site_label
_atom_site_fract_x
_atom_site_fract_y
_atom_site_fract_z
Si Si1 0.730941 0.223033 0.826727
Si Si2 0.861536 0.821656 0.632749
Si Si3 0.129616 0.790144 0.234855
Si Si4 0.699950 0.136564 0.318066
Si Si5 0.418615 0.576731 0.344079
Si Si6 0.833091 0.035458 0.580434
Si Si7 0.769055 0.544340 0.877565
Si Si8 0.455118 0.391956 0.157752
O O1 0.678986 0.252689 0.816462
O O2 0.760329 0.285736 0.702561
O O3 0.735048 0.114101 0.773752
O O4 0.750000 0.250000 0.000000
O O5 0.874341 0.797262 0.452572
O O6 0.904585 0.832900 0.740481
O O7 0.840882 0.928251 0.636606
O O8 0.155039 0.694997 0.282946
O O9 0.158944 0.880811 0.292543
O O10 0.080671 0.807606 0.313510
O O11 0.700123 0.091402 0.491848
O O12 0.712103 0.055192 0.188721
O O13 0.372891 0.553601 0.448889
O O14 0.432727 0.487728 0.234572
O O15 0.457494 0.592499 0.469165
O O16 0.780909 0.038674 0.539229
O O17 0.500000 0.374928 0.250000
#
# Coordination Sequence:
#
# PCOD9300936 Si02
#       8
#     8   8   8   8   8   8   8   8
#     4  12  23  37  56  82 118 163 206 242 280 334
#     4  12  20  34  57  82 116 161 194 231 281 336
#     4  11  23  39  56  80 117 151 196 236 293 349
#     4  12  25  39  55  82 116 159 202 250 287 337
#     4  11  21  33  56  83 116 155 187 230 290 352
#     4  11  20  34  55  81 115 160 195 232 272 337
#     4  12  26  37  55  83 118 160 207 246 284 328
#     4  11  22  38  58  85 116 148 190 242 298 367
#
# _framework density 18.178014000000001
#
# number of rings (size 3 to 8) (size 9 to 14) (size 15 to 20)
#    0.000    0.500    7.500    2.250    5.250    0.000 
#    0.000    0.000    0.000    0.000    0.000    0.875 
#    0.000    0.000    0.000    0.000    0.000    0.000 
#
# Total GULP energy -178774.672061 kJ/mol
# GULP energy per Si atom -5586.708502 kJ/mol
# Density = 1.813664 g / cm^3
# Si number density = 18.178014 Si / 1000 Ang^3
#
#
#
# Elastic Constant Matrix: (Units=GPa)
#
#
# Indices 1 2 3 4 5 6 
#
# 1 50.5955 20.8243 20.9184 0.0000 23.8379 0.0000
# 2 20.8243 65.0176 13.5002 0.0000 10.7522 0.0000
# 3 20.9184 13.5002 79.8528 0.0000 29.4063 0.0000
# 4 0.0000 0.0000 0.0000 27.3534 0.0000 2.5661
# 5 23.8379 10.7522 29.4063 0.0000 28.2466 0.0000
# 6 0.0000 0.0000 0.0000 2.5661 0.0000 20.0251
#
#
#
# Elastic Compliance Matrix: (Units=1/GPa)
#
#
# Indices 1 2 3 4 5 6 
#
# 1 0.035935 -0.007051 0.003175 0.000000 -0.030948 0.000000
# 2 -0.007051 0.017826 -0.001393 0.000000 0.000615 0.000000
# 3 0.003175 -0.001393 0.020626 0.000000 -0.023622 0.000000
# 4 0.000000 0.000000 0.000000 0.037003 0.000000 -0.004742
# 5 -0.030948 0.000615 -0.023622 0.000000 0.085877 0.000000
# 6 0.000000 0.000000 0.000000 -0.004742 0.000000 0.050545
#
#
# Mechanical properties :
#
#
# Convention : Reuss Voigt Hill
#
# Bulk Modulus (GPa) = 15.66196 33.99463 24.82830
# Shear Modulus (GPa) = 17.88057 24.47320 21.17688
#
# Velocity S-wave (km/s) = 3.13970 3.67319 3.41687
# Velocity P-wave (km/s) = 4.66671 6.06064 5.40877
#
# Compressibility (1/GPa) = 0.06384898
#
# Stress axis : x y z
#
# Youngs Moduli (GPa) = 27.82822 56.09694 48.48334
#
# Poissons Ratio (x) = 0.39553 -0.15394
# Poissons Ratio (y) = 0.19621 0.06755
# Poissons Ratio (z) = -0.08836 0.07816
#
# Static dielectric constant tensor:
#      x y z
#    x 1.660260 0.000000 0.023310 
#    y 0.000000 1.616830 0.000000 
#    z 0.023310 0.000000 1.718660 
# 
# From -- ./inp_files/69367.got.cif
#   From: 2010.05.17/outbox.cif.g08.bks.cpg/sg15_35_cif.got.tgz:69367.got - 2010.06.03 18:47:42.
