data_PCOD9300005
_publ_section_title
;
Structure prediction by ZEFSAII (Michael W. Deem and Ramdas Pophale) SiO2 
 PCOD9300005
Probable space group: C 2/C
;
_chemical_formula_sum "Si O2"
_cell_formula_units_Z 48
_cell_length_a 12.705675
_cell_length_b 23.134845
_cell_length_c 8.604783
_cell_angle_alpha 90.000000
_cell_angle_beta 111.664881
_cell_angle_gamma 90.000000
_cell_volume 2350.648985
_symmetry_space_group_name_H-M "C 2/C"
_symmetry_group_IT_number 15
_symmetry_cell_setting 'monoclinic'
loop_
_space_group_symop_operation_xyz
x,y,z
-x,y,1/2-z
-x,-y,-z
x,-y,1/2+z
1/2+x,1/2+y,z
1/2-x,1/2+y,1/2-z
1/2-x,1/2-y,-z
1/2+x,1/2-y,1/2+z
loop_
_atom_site_type_symbol
_atom_site_label
_atom_site_fract_x
_atom_site_fract_y
_atom_site_fract_z
Si Si1 0.795604 0.576639 0.165401
Si Si2 0.212099 0.312648 0.420521
Si Si3 0.882286 0.468303 0.391006
Si Si4 0.500000 0.126692 0.750000
Si Si5 0.153531 0.266694 0.070538
Si Si6 0.500000 0.163806 0.250000
Si Si7 0.619835 0.351839 0.740119
O O1 0.811667 0.518275 0.270832
O O2 0.898371 0.622100 0.253479
O O3 0.678202 0.606364 0.146517
O O4 0.816804 0.558016 0.000442
O O5 0.250000 0.250000 0.500000
O O6 0.084464 0.331785 0.388850
O O7 0.209613 0.308169 0.232062
O O8 0.295015 0.352322 0.565376
O O9 0.000000 0.500000 0.500000
O O10 0.919822 0.416173 0.301327
O O11 0.113826 0.210669 0.148827
O O12 0.250000 0.250000 0.000000
O O13 0.056364 0.297070 0.915119
O O14 0.500000 0.366303 0.750000
#
# Coordination Sequence:
#
# PCOD9300005 Si02
#       7
#     8   8   8   4   8   4   8
#     4  12  25  43  69 106 139 185 236 311 370 420
#     4  10  26  40  68 100 139 190 232 287 352 435
#     4  12  22  40  71 109 139 171 238 309 380 416
#     4  12  23  40  76 108 142 179 226 308 374 426
#     4  11  25  40  67 104 138 188 236 291 362 433
#     4  12  23  40  72 108 150 167 228 308 370 430
#     4  11  27  48  66  95 150 202 244 285 354 445
#
# _framework density 20.419891
#
# number of rings (size 3 to 8) (size 9 to 14) (size 15 to 20)
#    0.000    0.667    5.000    2.000    9.333    0.000 
#    0.000    0.833    0.000    0.000    0.000    0.000 
#    0.000    0.000    0.000    0.000    0.000    0.000 
#
# Total GULP energy -134062.530274 kJ/mol
# GULP energy per Si atom -5585.938761 kJ/mol
# Density = 2.037341 g / cm^3
# Si number density = 20.419891 Si / 1000 Ang^3
#
#
#
# Elastic Constant Matrix: (Units=GPa)
#
#
# Indices 1 2 3 4 5 6 
#
# 1 160.0185 67.3906 57.6926 0.0000 -16.9685 0.0000
# 2 67.3906 121.5175 54.6695 0.0000 -6.8099 0.0000
# 3 57.6926 54.6695 144.9790 0.0000 -10.8787 0.0000
# 4 0.0000 0.0000 0.0000 25.0292 0.0000 -1.2766
# 5 -16.9685 -6.8099 -10.8787 0.0000 44.1610 0.0000
# 6 0.0000 0.0000 0.0000 -1.2766 0.0000 33.4625
#
#
#
# Elastic Compliance Matrix: (Units=1/GPa)
#
#
# Indices 1 2 3 4 5 6 
#
# 1 0.008818 -0.003926 -0.001854 0.000000 0.002326 0.000000
# 2 -0.003926 0.011675 -0.002871 0.000000 -0.000415 0.000000
# 3 -0.001854 -0.002871 0.008794 0.000000 0.001011 0.000000
# 4 0.000000 0.000000 0.000000 0.040031 0.000000 0.001527
# 5 0.002326 -0.000415 0.001011 0.000000 0.023723 0.000000
# 6 0.000000 0.000000 0.000000 0.001527 0.000000 0.029942
#
#
# Mechanical properties :
#
#
# Convention : Reuss Voigt Hill
#
# Bulk Modulus (GPa) = 83.44231 87.33558 85.38895
# Shear Modulus (GPa) = 34.65478 36.98136 35.81807
#
# Velocity S-wave (km/s) = 4.12407 4.26026 4.19271
# Velocity P-wave (km/s) = 7.97679 8.18916 8.08368
#
# Compressibility (1/GPa) = 0.01198433
#
# Stress axis : x y z
#
# Youngs Moduli (GPa) = 113.40962 85.65424 113.71384
#
# Poissons Ratio (x) = 0.33624 0.21083
# Poissons Ratio (y) = 0.44520 0.32653
# Poissons Ratio (z) = 0.21027 0.24595
#
# Static dielectric constant tensor:
#      x y z
#    x 1.729990 0.000000 -0.017880 
#    y 0.000000 1.778240 0.000000 
#    z -0.017880 0.000000 1.771560 
# 
# From -- ./inp_files/32698.got.cif
#   From: 2010.05.17/outbox.cif.g08.bks.cpg/sg15_17_cif.got.tgz:32698.got - 2010.06.03 18:47:42.
