data_PCOD9300049
_publ_section_title
;
Structure prediction by ZEFSAII (Michael W. Deem and Ramdas Pophale) SiO2 
 PCOD9300049
Probable space group: C 2/C
;
_chemical_formula_sum "Si O2"
_cell_formula_units_Z 52
_cell_length_a 20.222568
_cell_length_b 9.423882
_cell_length_c 23.110513
_cell_angle_alpha 90.000000
_cell_angle_beta 33.477806
_cell_angle_gamma 90.000000
_cell_volume 2429.466729
_symmetry_space_group_name_H-M "C 2/C"
_symmetry_group_IT_number 15
_symmetry_cell_setting 'monoclinic'
loop_
_space_group_symop_operation_xyz
x,y,z
-x,y,1/2-z
-x,-y,-z
x,-y,1/2+z
1/2+x,1/2+y,z
1/2-x,1/2+y,1/2-z
1/2-x,1/2-y,-z
1/2+x,1/2-y,1/2+z
loop_
_atom_site_type_symbol
_atom_site_label
_atom_site_fract_x
_atom_site_fract_y
_atom_site_fract_z
Si Si1 0.000000 0.355916 0.750000
Si Si2 0.531300 0.407687 0.536385
Si Si3 0.748405 0.600251 0.391316
Si Si4 0.696894 0.731175 0.765368
Si Si5 0.055972 0.698651 0.083737
Si Si6 0.929715 0.572532 0.996400
Si Si7 0.802921 0.070206 0.275940
O O1 0.123195 0.434175 0.675152
O O2 0.028721 0.270810 0.670566
O O3 0.500000 0.500000 0.500000
O O4 0.662253 0.466421 0.454826
O O5 0.531265 0.236963 0.530299
O O6 0.442639 0.433068 0.656515
O O7 0.767169 0.664987 0.313516
O O8 0.678710 0.727310 0.475437
O O9 0.553476 0.734374 0.872414
O O10 0.754361 0.791643 0.780028
O O11 0.740967 0.574023 0.722706
O O12 0.044949 0.531620 0.076379
O O13 0.782792 0.567177 0.105941
O O14 0.000000 0.500000 0.000000
#
# Coordination Sequence:
#
# PCOD9300049 Si02
#       7
#     4   8   8   8   8   8   8
#     4  10  26  42  74  88 122 178 238 278 326 388
#     4  12  24  39  64 100 141 177 210 267 335 405
#     4  11  22  43  63  94 128 171 228 281 329 383
#     4  11  22  33  61  92 136 171 207 264 324 412
#     4  11  22  43  63  94 128 171 228 281 329 383
#     4  12  24  39  64 100 141 177 210 267 335 405
#     4  12  22  35  57  96 134 173 205 253 335 396
#
# _framework density 21.403874999999999
#
# number of rings (size 3 to 8) (size 9 to 14) (size 15 to 20)
#    0.000    0.615    6.154    3.231    0.000    1.231 
#    0.000    0.769    0.000    1.846    0.000    0.000 
#    0.000    0.000    0.000    0.000    0.000    0.000 
#
# Total GULP energy -144851.417393 kJ/mol
# GULP energy per Si atom -5571.208361 kJ/mol
# Density = 2.135516 g / cm^3
# Si number density = 21.403875 Si / 1000 Ang^3
#
#
#
# Elastic Constant Matrix: (Units=GPa)
#
#
# Indices 1 2 3 4 5 6 
#
# 1 28.7787 0.5078 21.9151 0.0000 -12.5483 0.0000
# 2 0.5078 134.5277 10.9692 0.0000 -4.1050 0.0000
# 3 21.9151 10.9692 127.7171 0.0000 -17.5977 0.0000
# 4 0.0000 0.0000 0.0000 27.2343 0.0000 -1.5663
# 5 -12.5483 -4.1050 -17.5977 0.0000 41.4160 0.0000
# 6 0.0000 0.0000 0.0000 -1.5663 0.0000 7.1119
#
#
#
# Elastic Compliance Matrix: (Units=1/GPa)
#
#
# Indices 1 2 3 4 5 6 
#
# 1 0.044132 0.000664 -0.006138 0.000000 0.010829 0.000000
# 2 0.000664 0.007506 -0.000667 0.000000 0.000662 0.000000
# 3 -0.006138 -0.000667 0.009214 0.000000 0.001989 0.000000
# 4 0.000000 0.000000 0.000000 0.037190 0.000000 0.008190
# 5 0.010829 0.000662 0.001989 0.000000 0.028337 0.000000
# 6 0.000000 0.000000 0.000000 0.008190 0.000000 0.142412
#
#
# Mechanical properties :
#
#
# Convention : Reuss Voigt Hill
#
# Bulk Modulus (GPa) = 20.58873 39.75640 30.17256
# Shear Modulus (GPa) = 16.82017 32.32787 24.57402
#
# Velocity S-wave (km/s) = 2.80634 3.89057 3.39205
# Velocity P-wave (km/s) = 4.48784 6.22870 5.42851
#
# Compressibility (1/GPa) = 0.04857027
#
# Stress axis : x y z
#
# Youngs Moduli (GPa) = 22.65943 133.23527 108.52574
#
# Poissons Ratio (x) = -0.08851 0.66608
# Poissons Ratio (y) = -0.01505 0.07244
# Poissons Ratio (z) = 0.13907 0.08893
#
# Static dielectric constant tensor:
#      x y z
#    x 1.786450 0.000000 -0.001120 
#    y 0.000000 1.753800 0.000000 
#    z -0.001120 0.000000 1.934140 
# 
# From -- ./inp_files/301972.got.cif
#   From: 2010.05.17/outbox.cif.g08.bks.cpg/sg15_151_cif.got.tgz:301972.got - 2010.06.03 18:47:42.
