data_PCOD9300327
_publ_section_title
;
Structure prediction by ZEFSAII (Michael W. Deem and Ramdas Pophale) SiO2 
 PCOD9300327
Probable space group: C 2/C
;
_chemical_formula_sum "Si O2"
_cell_formula_units_Z 44
_cell_length_a 31.550756
_cell_length_b 7.505271
_cell_length_c 8.836297
_cell_angle_alpha 90.000000
_cell_angle_beta 122.165649
_cell_angle_gamma 90.000000
_cell_volume 1771.249845
_symmetry_space_group_name_H-M "C 2/C"
_symmetry_group_IT_number 15
_symmetry_cell_setting 'monoclinic'
loop_
_space_group_symop_operation_xyz
x,y,z
-x,y,1/2-z
-x,-y,-z
x,-y,1/2+z
1/2+x,1/2+y,z
1/2-x,1/2+y,1/2-z
1/2-x,1/2-y,-z
1/2+x,1/2-y,1/2+z
loop_
_atom_site_type_symbol
_atom_site_label
_atom_site_fract_x
_atom_site_fract_y
_atom_site_fract_z
Si Si1 0.377091 0.975954 0.350917
Si Si2 0.639722 0.372974 0.824665
Si Si3 0.437464 0.324656 0.405442
Si Si4 0.309917 0.128408 0.987822
Si Si5 0.794005 0.983133 0.823151
Si Si6 0.500000 0.436084 0.250000
O O1 0.391319 0.802347 0.278615
O O2 0.359646 0.908568 0.481657
O O3 0.416789 0.134266 0.417628
O O4 0.326137 0.051624 0.178109
O O5 0.606105 0.547566 0.743319
O O6 0.681682 0.386059 0.774078
O O7 0.668550 0.366582 0.039481
O O8 0.476066 0.319479 0.338681
O O9 0.460911 0.433754 0.590292
O O10 0.296119 0.335781 0.959472
O O11 0.260925 0.040295 0.824248
#
# Coordination Sequence:
#
# PCOD9300327 Si02
#       6
#     8   8   8   8   8   4
#     4  11  26  42  68  98 139 182 234 269 345 398
#     4  11  24  42  69 101 134 191 222 285 330 412
#     4  11  24  50  73 104 134 175 221 291 354 420
#     4  11  24  40  62 104 139 194 230 282 316 397
#     4  11  23  39  64 100 148 181 244 270 323 385
#     4  10  26  48  80 104 132 166 226 292 368 418
#
# _framework density 24.841214999999998
#
# number of rings (size 3 to 8) (size 9 to 14) (size 15 to 20)
#    0.000    1.091    1.818    3.273   10.182    4.364 
#    0.000    5.455    0.000    0.000    0.000    0.000 
#    0.000    0.000    0.000    0.000    0.000    0.000 
#
# Total GULP energy -123251.725507 kJ/mol
# GULP energy per Si atom -5602.351159 kJ/mol
# Density = 2.478468 g / cm^3
# Si number density = 24.841215 Si / 1000 Ang^3
#
#
#
# Elastic Constant Matrix: (Units=GPa)
#
#
# Indices 1 2 3 4 5 6 
#
# 1 63.5739 37.2842 8.3407 0.0000 -5.7990 0.0000
# 2 37.2842 114.9619 -1.4534 0.0000 -1.0672 0.0000
# 3 8.3407 -1.4534 92.1988 0.0000 2.3365 0.0000
# 4 0.0000 0.0000 0.0000 38.3493 0.0000 5.5652
# 5 -5.7990 -1.0672 2.3365 0.0000 36.1258 0.0000
# 6 0.0000 0.0000 0.0000 5.5652 0.0000 35.6573
#
#
#
# Elastic Compliance Matrix: (Units=1/GPa)
#
#
# Indices 1 2 3 4 5 6 
#
# 1 0.020102 -0.006515 -0.002001 0.000000 0.003164 0.000000
# 2 -0.006515 0.010814 0.000780 0.000000 -0.000777 0.000000
# 3 -0.002001 0.000780 0.011065 0.000000 -0.001014 0.000000
# 4 0.000000 0.000000 0.000000 0.026680 0.000000 -0.004164
# 5 0.003164 -0.000777 -0.001014 0.000000 0.028231 0.000000
# 6 0.000000 0.000000 0.000000 -0.004164 0.000000 0.028695
#
#
# Mechanical properties :
#
#
# Convention : Reuss Voigt Hill
#
# Bulk Modulus (GPa) = 37.72591 39.89751 38.81171
# Shear Modulus (GPa) = 33.35602 37.13069 35.24335
#
# Velocity S-wave (km/s) = 3.66836 3.87036 3.77071
# Velocity P-wave (km/s) = 5.75867 6.00573 5.88349
#
# Compressibility (1/GPa) = 0.02650698
#
# Stress axis : x y z
#
# Youngs Moduli (GPa) = 49.74637 92.47076 90.37374
#
# Poissons Ratio (x) = 0.60248 0.18087
# Poissons Ratio (y) = 0.32412 -0.07045
# Poissons Ratio (z) = 0.09956 -0.07209
#
# Static dielectric constant tensor:
#      x y z
#    x 1.963350 0.000000 -0.015870 
#    y 0.000000 2.006620 0.000000 
#    z -0.015870 0.000000 1.954250 
# 
# From -- ./inp_files/68661.got.cif
#   From: 2010.05.17/outbox.cif.g08.bks.cpg/sg15_35_cif.got.tgz:68661.got - 2010.06.03 18:47:42.
