data_PCOD9300464
_publ_section_title
;
Structure prediction by ZEFSAII (Michael W. Deem and Ramdas Pophale) SiO2 
 PCOD9300464
Probable space group: C 2/C
;
_chemical_formula_sum "Si O2"
_cell_formula_units_Z 28
_cell_length_a 14.487205
_cell_length_b 11.891151
_cell_length_c 9.080831
_cell_angle_alpha 90.000000
_cell_angle_beta 142.078208
_cell_angle_gamma 90.000000
_cell_volume 961.426847
_symmetry_space_group_name_H-M "C 2/C"
_symmetry_group_IT_number 15
_symmetry_cell_setting 'monoclinic'
loop_
_space_group_symop_operation_xyz
x,y,z
-x,y,1/2-z
-x,-y,-z
x,-y,1/2+z
1/2+x,1/2+y,z
1/2-x,1/2+y,1/2-z
1/2-x,1/2-y,-z
1/2+x,1/2-y,1/2+z
loop_
_atom_site_type_symbol
_atom_site_label
_atom_site_fract_x
_atom_site_fract_y
_atom_site_fract_z
Si Si1 0.500000 0.772927 0.750000
Si Si2 0.203100 0.841247 0.760312
Si Si3 0.376595 0.381093 0.448100
Si Si4 0.723563 0.043319 0.473321
O O1 0.386235 0.703812 0.502322
O O2 0.404479 0.865616 0.726418
O O3 0.295269 0.728143 0.903927
O O4 0.055250 0.873480 0.671558
O O5 0.317269 0.936860 0.973031
O O6 0.303097 0.491219 0.430194
O O7 0.334215 0.391777 0.222638
#
# Coordination Sequence:
#
# PCOD9300464 Si02
#       4
#     4   8   8   8
#     4  10  28  48  82 112 152 208 256 304 394 456
#     4  11  26  47  77 112 156 197 255 318 380 453
#     4  11  27  47  77 112 152 199 257 313 387 448
#     4  11  26  47  77 112 156 197 255 318 380 453
#
# _framework density 29.123379
#
# number of rings (size 3 to 8) (size 9 to 14) (size 15 to 20)
#    0.000    1.143    0.000    2.571   12.000    4.571 
#    0.000    0.000    0.000    0.000    0.000    0.000 
#    0.000    0.000    0.000    0.000    0.000    0.000 
#
# Total GULP energy -78193.967073 kJ/mol
# GULP energy per Si atom -5585.283362 kJ/mol
# Density = 2.905709 g / cm^3
# Si number density = 29.123379 Si / 1000 Ang^3
#
#
#
# Elastic Constant Matrix: (Units=GPa)
#
#
# Indices 1 2 3 4 5 6 
#
# 1 99.1309 24.6621 13.8561 0.0000 -19.4492 0.0000
# 2 24.6621 181.9887 24.6559 0.0000 11.2732 0.0000
# 3 13.8561 24.6559 116.3793 0.0000 -23.7465 0.0000
# 4 0.0000 0.0000 0.0000 20.4580 0.0000 13.5705
# 5 -19.4492 11.2732 -23.7465 0.0000 47.9498 0.0000
# 6 0.0000 0.0000 0.0000 13.5705 0.0000 69.9602
#
#
#
# Elastic Compliance Matrix: (Units=1/GPa)
#
#
# Indices 1 2 3 4 5 6 
#
# 1 0.011565 -0.001899 0.000082 0.000000 0.005178 0.000000
# 2 -0.001899 0.006174 -0.001708 0.000000 -0.003067 0.000000
# 3 0.000082 -0.001708 0.010049 0.000000 0.005411 0.000000
# 4 0.000000 0.000000 0.000000 0.056099 0.000000 -0.010882
# 5 0.005178 -0.003067 0.005411 0.000000 0.026356 0.000000
# 6 0.000000 0.000000 0.000000 -0.010882 0.000000 0.016405
#
#
# Mechanical properties :
#
#
# Convention : Reuss Voigt Hill
#
# Bulk Modulus (GPa) = 48.22222 58.20523 53.21373
# Shear Modulus (GPa) = 35.55968 49.96192 42.76080
#
# Velocity S-wave (km/s) = 3.49807 4.14638 3.83595
# Velocity P-wave (km/s) = 5.73666 6.55381 6.15880
#
# Compressibility (1/GPa) = 0.02073733
#
# Stress axis : x y z
#
# Youngs Moduli (GPa) = 86.47136 161.98102 99.51465
#
# Poissons Ratio (x) = 0.30760 -0.00816
# Poissons Ratio (y) = 0.16421 0.16994
# Poissons Ratio (z) = -0.00709 0.27662
#
# Static dielectric constant tensor:
#      x y z
#    x 2.551270 0.000000 -0.448760 
#    y 0.000000 2.256150 0.000000 
#    z -0.448760 0.000000 2.737850 
# 
# From -- ./inp_files/55547.got.cif
#   From: 2010.05.17/outbox.cif.g08.bks.cpg/sg15_28_cif.got.tgz:55547.got - 2010.06.03 18:47:42.
