data_PCOD9300495
_publ_section_title
;
Structure prediction by ZEFSAII (Michael W. Deem and Ramdas Pophale) SiO2 
 PCOD9300495
Probable space group: C 2/C
;
_chemical_formula_sum "Si O2"
_cell_formula_units_Z 64
_cell_length_a 9.396590
_cell_length_b 21.408152
_cell_length_c 19.221849
_cell_angle_alpha 90.000000
_cell_angle_beta 62.602592
_cell_angle_gamma 90.000000
_cell_volume 3433.028975
_symmetry_space_group_name_H-M "C 2/C"
_symmetry_group_IT_number 15
_symmetry_cell_setting 'monoclinic'
loop_
_space_group_symop_operation_xyz
x,y,z
-x,y,1/2-z
-x,-y,-z
x,-y,1/2+z
1/2+x,1/2+y,z
1/2-x,1/2+y,1/2-z
1/2-x,1/2-y,-z
1/2+x,1/2-y,1/2+z
loop_
_atom_site_type_symbol
_atom_site_label
_atom_site_fract_x
_atom_site_fract_y
_atom_site_fract_z
Si Si1 0.019595 0.368357 0.164041
Si Si2 0.825537 0.210029 0.547222
Si Si3 0.343057 0.571702 0.334604
Si Si4 0.891475 0.593775 0.343786
Si Si5 0.968161 0.129650 0.092434
Si Si6 0.112022 0.690026 0.352120
Si Si7 0.459927 0.991588 0.090516
Si Si8 0.619150 0.255704 0.790211
O O1 0.186266 0.331213 0.114474
O O2 0.000000 0.388016 0.250000
O O3 0.996903 0.424376 0.115294
O O4 0.891742 0.313574 0.177993
O O5 0.750000 0.250000 0.500000
O O6 0.894760 0.262641 0.582623
O O7 0.957054 0.160224 0.492672
O O8 0.500000 0.569085 0.250000
O O9 0.406882 0.584057 0.397815
O O10 0.232495 0.631761 0.340709
O O11 0.224818 0.512938 0.356349
O O12 0.703440 0.596947 0.372553
O O13 0.000000 0.585168 0.250000
O O14 0.948304 0.659105 0.364756
O O15 0.935230 0.540026 0.388134
O O16 0.946067 0.190049 0.146582
O O17 0.202465 0.726851 0.271193
O O18 0.500000 0.000000 0.000000
O O19 0.500000 0.256054 0.750000
#
# Coordination Sequence:
#
# PCOD9300495 Si02
#       8
#     8   8   8   8   8   8   8   8
#     4  11  22  39  62  93 127 166 208 258 318 390
#     4  12  21  33  64  97 126 160 204 254 314 384
#     4  11  19  37  68  89 114 159 226 258 296 370
#     4  11  24  40  66  91 128 163 213 259 313 374
#     4  12  20  35  62  98 120 154 207 268 312 360
#     4  11  19  36  61  97 123 157 204 253 311 374
#     4  11  26  44  63  88 124 172 216 266 312 368
#     4  11  16  33  63  92 119 153 201 256 305 381
#
# _framework density 18.642430000000001
#
# number of rings (size 3 to 8) (size 9 to 14) (size 15 to 20)
#    0.000    0.750    8.750    1.875    1.750    0.500 
#    0.000    3.750    2.750    0.000    0.000    0.000 
#    0.000    0.000    0.000    0.000    0.000    0.000 
#
# Total GULP energy -178614.282695 kJ/mol
# GULP energy per Si atom -5581.696334 kJ/mol
# Density = 1.860000 g / cm^3
# Si number density = 18.642430 Si / 1000 Ang^3
#
#
#
# Elastic Constant Matrix: (Units=GPa)
#
#
# Indices 1 2 3 4 5 6 
#
# 1 62.5578 30.0198 18.0430 0.0000 1.4650 0.0000
# 2 30.0198 88.0928 18.8636 0.0000 15.6294 0.0000
# 3 18.0430 18.8636 81.8483 0.0000 9.1619 0.0000
# 4 0.0000 0.0000 0.0000 18.6848 0.0000 8.6364
# 5 1.4650 15.6294 9.1619 0.0000 27.2878 0.0000
# 6 0.0000 0.0000 0.0000 8.6364 0.0000 31.5759
#
#
#
# Elastic Compliance Matrix: (Units=1/GPa)
#
#
# Indices 1 2 3 4 5 6 
#
# 1 0.020135 -0.006856 -0.003301 0.000000 0.003954 0.000000
# 2 -0.006856 0.015358 -0.001127 0.000000 -0.008050 0.000000
# 3 -0.003301 -0.001127 0.013625 0.000000 -0.003752 0.000000
# 4 0.000000 0.000000 0.000000 0.061265 0.000000 -0.016757
# 5 0.003954 -0.008050 -0.003752 0.000000 0.042304 0.000000
# 6 0.000000 0.000000 0.000000 -0.016757 0.000000 0.036253
#
#
# Mechanical properties :
#
#
# Convention : Reuss Voigt Hill
#
# Bulk Modulus (GPa) = 37.66612 40.70574 39.18593
# Shear Modulus (GPa) = 22.69039 26.54786 24.61913
#
# Velocity S-wave (km/s) = 3.49253 3.77776 3.63794
# Velocity P-wave (km/s) = 6.04252 6.39617 6.22186
#
# Compressibility (1/GPa) = 0.02654906
#
# Stress axis : x y z
#
# Youngs Moduli (GPa) = 49.66531 65.11453 73.39364
#
# Poissons Ratio (x) = 0.44643 0.24228
# Poissons Ratio (y) = 0.34051 0.08271
# Poissons Ratio (z) = 0.16395 0.07338
#
# Static dielectric constant tensor:
#      x y z
#    x 1.645730 0.000000 0.007220 
#    y 0.000000 1.651440 0.000000 
#    z 0.007220 0.000000 1.697800 
# 
# From -- ./inp_files/233835.got.cif
#   From: 2010.05.17/outbox.cif.g08.bks.cpg/sg15_117_cif.got.tgz:233835.got - 2010.06.03 18:47:42.
