data_PCOD9300459
_publ_section_title
;
Structure prediction by ZEFSAII (Michael W. Deem and Ramdas Pophale) SiO2 
 PCOD9300459
Probable space group: C 2/C
;
_chemical_formula_sum "Si O2"
_cell_formula_units_Z 44
_cell_length_a 8.919655
_cell_length_b 10.977890
_cell_length_c 26.167210
_cell_angle_alpha 90.000000
_cell_angle_beta 53.190673
_cell_angle_gamma 90.000000
_cell_volume 2051.437535
_symmetry_space_group_name_H-M "C 2/C"
_symmetry_group_IT_number 15
_symmetry_cell_setting 'monoclinic'
loop_
_space_group_symop_operation_xyz
x,y,z
-x,y,1/2-z
-x,-y,-z
x,-y,1/2+z
1/2+x,1/2+y,z
1/2-x,1/2+y,1/2-z
1/2-x,1/2-y,-z
1/2+x,1/2-y,1/2+z
loop_
_atom_site_type_symbol
_atom_site_label
_atom_site_fract_x
_atom_site_fract_y
_atom_site_fract_z
Si Si1 0.417999 0.671139 0.489626
Si Si2 0.214811 0.993350 0.388440
Si Si3 0.882774 0.543945 0.154166
Si Si4 0.543840 0.322642 0.352364
Si Si5 0.000000 0.082147 0.750000
Si Si6 0.134123 0.598341 0.947613
O O1 0.250000 0.750000 0.500000
O O2 0.555651 0.598677 0.422851
O O3 0.338725 0.585674 0.550108
O O4 0.554538 0.773792 0.482570
O O5 0.198959 0.914406 0.341024
O O6 0.429023 0.030076 0.351541
O O7 0.899371 0.688770 0.139152
O O8 0.681076 0.506239 0.217327
O O9 0.890131 0.445900 0.106067
O O10 0.510657 0.333140 0.298361
O O11 0.353194 0.383837 0.413773
O O12 0.000000 0.500000 0.000000
#
# Coordination Sequence:
#
# PCOD9300459 Si02
#       6
#     8   8   8   8   4   8
#     4  11  21  38  61 101 145 169 203 258 322 400
#     4  11  24  38  67 100 130 175 218 255 327 399
#     4  11  24  46  66  97 129 174 226 271 333 387
#     4  11  25  45  67  96 129 174 223 278 326 390
#     4  10  28  48  64  92 128 172 228 286 336 368
#     4  11  22  39  66 100 143 174 207 268 329 397
#
# _framework density 21.448374000000001
#
# number of rings (size 3 to 8) (size 9 to 14) (size 15 to 20)
#    0.000    1.091    3.636    2.182    2.545    6.545 
#    0.000    0.000    0.000    0.000    0.000    0.000 
#    0.000    0.000    0.000    0.000    0.000    0.000 
#
# Total GULP energy -122527.233279 kJ/mol
# GULP energy per Si atom -5569.419694 kJ/mol
# Density = 2.139956 g / cm^3
# Si number density = 21.448374 Si / 1000 Ang^3
#
#
#
# Elastic Constant Matrix: (Units=GPa)
#
#
# Indices 1 2 3 4 5 6 
#
# 1 75.0999 16.4848 26.2659 0.0000 -22.5296 0.0000
# 2 16.4848 81.2756 8.7954 0.0000 -22.4250 0.0000
# 3 26.2659 8.7954 55.4245 0.0000 -24.2716 0.0000
# 4 0.0000 0.0000 0.0000 20.7513 0.0000 -6.2119
# 5 -22.5296 -22.4250 -24.2716 0.0000 31.9467 0.0000
# 6 0.0000 0.0000 0.0000 -6.2119 0.0000 41.6435
#
#
#
# Elastic Compliance Matrix: (Units=1/GPa)
#
#
# Indices 1 2 3 4 5 6 
#
# 1 0.017595 -0.000748 -0.004519 0.000000 0.008450 0.000000
# 2 -0.000748 0.015731 0.003691 0.000000 0.013319 0.000000
# 3 -0.004519 0.003691 0.028979 0.000000 0.021421 0.000000
# 4 0.000000 0.000000 0.000000 0.050442 0.000000 0.007524
# 5 0.008450 0.013319 0.021421 0.000000 0.062885 0.000000
# 6 0.000000 0.000000 0.000000 0.007524 0.000000 0.025136
#
#
# Mechanical properties :
#
#
# Convention : Reuss Voigt Hill
#
# Bulk Modulus (GPa) = 16.90561 34.98799 25.94680
# Shear Modulus (GPa) = 22.35743 29.55191 25.95467
#
# Velocity S-wave (km/s) = 3.23210 3.71592 3.48242
# Velocity P-wave (km/s) = 4.67202 5.89566 5.31914
#
# Compressibility (1/GPa) = 0.05915195
#
# Stress axis : x y z
#
# Youngs Moduli (GPa) = 56.83299 63.56862 34.50751
#
# Poissons Ratio (x) = 0.04757 0.15595
# Poissons Ratio (y) = 0.04253 -0.12736
# Poissons Ratio (z) = 0.25685 -0.23462
#
# Static dielectric constant tensor:
#      x y z
#    x 1.967190 0.000000 -0.003680 
#    y 0.000000 1.824910 0.000000 
#    z -0.003680 0.000000 1.535070 
# 
# From -- ./inp_files/287870.got.cif
#   From: 2010.05.17/outbox.cif.g08.bks.cpg/sg15_144_cif.got.tgz:287870.got - 2010.06.03 18:47:42.
