data_PCOD9300891
_publ_section_title
;
Structure prediction by ZEFSAII (Michael W. Deem and Ramdas Pophale) SiO2 
 PCOD9300891
Probable space group: C 2/C
;
_chemical_formula_sum "Si O2"
_cell_formula_units_Z 56
_cell_length_a 8.309224
_cell_length_b 25.624575
_cell_length_c 11.466280
_cell_angle_alpha 90.000000
_cell_angle_beta 72.793807
_cell_angle_gamma 90.000000
_cell_volume 2332.142522
_symmetry_space_group_name_H-M "C 2/C"
_symmetry_group_IT_number 15
_symmetry_cell_setting 'monoclinic'
loop_
_space_group_symop_operation_xyz
x,y,z
-x,y,1/2-z
-x,-y,-z
x,-y,1/2+z
1/2+x,1/2+y,z
1/2-x,1/2+y,1/2-z
1/2-x,1/2-y,-z
1/2+x,1/2-y,1/2+z
loop_
_atom_site_type_symbol
_atom_site_label
_atom_site_fract_x
_atom_site_fract_y
_atom_site_fract_z
Si Si1 0.641958 0.487540 0.619674
Si Si2 0.687732 0.345197 0.766758
Si Si3 0.565503 0.414385 0.976227
Si Si4 0.380987 0.941697 0.164684
Si Si5 0.428996 0.148391 0.996530
Si Si6 0.139068 0.730514 0.826397
Si Si7 0.329025 0.355305 0.165974
O O1 0.500000 0.489587 0.750000
O O2 0.601328 0.435739 0.556501
O O3 0.623707 0.535943 0.535313
O O4 0.818904 0.501681 0.638577
O O5 0.500000 0.348558 0.750000
O O6 0.695162 0.392806 0.854952
O O7 0.828219 0.347785 0.637641
O O8 0.690536 0.289972 0.832617
O O9 0.508335 0.368200 0.073210
O O10 0.500000 0.947036 0.250000
O O11 0.468091 0.904967 0.049297
O O12 0.227711 0.906089 0.247774
O O13 0.550493 0.198153 0.948482
O O14 0.297781 0.150657 0.916426
O O15 0.294564 0.695716 0.748362
O O16 0.000000 0.731494 0.750000
#
# Coordination Sequence:
#
# PCOD9300891 Si02
#       7
#     8   8   8   8   8   8   8
#     4  11  23  41  65  90 126 177 221 264 325 388
#     4  11  20  31  57  91 130 173 206 275 323 372
#     4  11  23  36  61  95 128 165 225 265 315 389
#     4   9  19  40  67  89 117 171 216 268 322 379
#     4   9  18  33  54  88 129 158 214 269 316 382
#     4   8  18  29  53  89 128 167 214 257 328 379
#     4   9  16  34  57  88 120 162 209 263 305 389
#
# _framework density 24.012253999999999
#
# number of rings (size 3 to 8) (size 9 to 14) (size 15 to 20)
#    0.000    2.286    2.857    2.143    2.000    1.714 
#    0.000    3.571    0.000    3.429    7.429    0.000 
#    0.000    0.000   22.857    0.000    0.000    0.000 
#
# Total GULP energy -156582.178435 kJ/mol
# GULP energy per Si atom -5592.220658 kJ/mol
# Density = 2.395760 g / cm^3
# Si number density = 24.012254 Si / 1000 Ang^3
#
#
#
# Elastic Constant Matrix: (Units=GPa)
#
#
# Indices 1 2 3 4 5 6 
#
# 1 33.9581 19.9037 32.8713 0.0000 -1.2753 0.0000
# 2 19.9037 111.4909 64.4302 0.0000 -5.9566 0.0000
# 3 32.8713 64.4302 152.6797 0.0000 -38.4290 0.0000
# 4 0.0000 0.0000 0.0000 29.2832 0.0000 -0.9457
# 5 -1.2753 -5.9566 -38.4290 0.0000 30.0479 0.0000
# 6 0.0000 0.0000 0.0000 -0.9457 0.0000 8.0916
#
#
#
# Elastic Compliance Matrix: (Units=1/GPa)
#
#
# Indices 1 2 3 4 5 6 
#
# 1 0.040987 -0.001299 -0.011655 0.000000 -0.013424 0.000000
# 2 -0.001299 0.012678 -0.006565 0.000000 -0.005938 0.000000
# 3 -0.011655 -0.006565 0.016778 0.000000 0.019662 0.000000
# 4 0.000000 0.000000 0.000000 0.034279 0.000000 0.004006
# 5 -0.013424 -0.005938 0.019662 0.000000 0.056679 0.000000
# 6 0.000000 0.000000 0.000000 0.004006 0.000000 0.124053
#
#
# Mechanical properties :
#
#
# Convention : Reuss Voigt Hill
#
# Bulk Modulus (GPa) = 31.84150 59.17103 45.50626
# Shear Modulus (GPa) = 14.92717 25.54610 20.23664
#
# Velocity S-wave (km/s) = 2.49599 3.26525 2.90619
# Velocity P-wave (km/s) = 4.64714 6.23790 5.50033
#
# Compressibility (1/GPa) = 0.03140556
#
# Stress axis : x y z
#
# Youngs Moduli (GPa) = 24.39786 78.87791 59.60174
#
# Poissons Ratio (x) = 0.10247 0.69465
# Poissons Ratio (y) = 0.03169 0.39128
# Poissons Ratio (z) = 0.28435 0.51782
#
# Static dielectric constant tensor:
#      x y z
#    x 1.998380 0.000000 0.054320 
#    y 0.000000 1.877380 0.000000 
#    z 0.054320 0.000000 1.921650 
# 
# From -- ./inp_files/81238.got.cif
#   From: 2010.05.17/outbox.cif.g08.bks.cpg/sg15_41_cif.got.tgz:81238.got - 2010.06.03 18:47:42.
