data_PCOD9300336
_publ_section_title
;
Structure prediction by ZEFSAII (Michael W. Deem and Ramdas Pophale) SiO2 
 PCOD9300336
Probable space group: C 2/C
;
_chemical_formula_sum "Si O2"
_cell_formula_units_Z 48
_cell_length_a 17.276735
_cell_length_b 13.785791
_cell_length_c 19.628514
_cell_angle_alpha 90.000000
_cell_angle_beta 155.466693
_cell_angle_gamma 90.000000
_cell_volume 1941.159828
_symmetry_space_group_name_H-M "C 2/C"
_symmetry_group_IT_number 15
_symmetry_cell_setting 'monoclinic'
loop_
_space_group_symop_operation_xyz
x,y,z
-x,y,1/2-z
-x,-y,-z
x,-y,1/2+z
1/2+x,1/2+y,z
1/2-x,1/2+y,1/2-z
1/2-x,1/2-y,-z
1/2+x,1/2-y,1/2+z
loop_
_atom_site_type_symbol
_atom_site_label
_atom_site_fract_x
_atom_site_fract_y
_atom_site_fract_z
Si Si1 0.010707 0.855788 0.431320
Si Si2 0.959922 0.483699 0.139589
Si Si3 0.519358 0.714893 0.087708
Si Si4 0.188056 0.827432 0.859841
Si Si5 0.565444 0.188688 0.232990
Si Si6 0.851405 0.435268 0.339851
O O1 0.998129 0.844371 0.502420
O O2 0.940393 0.760426 0.334710
O O3 0.854059 0.936654 0.291607
O O4 0.229899 0.857219 0.591236
O O5 0.000000 0.457939 0.250000
O O6 0.926699 0.598796 0.110126
O O7 0.131797 0.468126 0.225167
O O8 0.795536 0.418631 0.977584
O O9 0.588723 0.821732 0.118444
O O10 0.326763 0.735893 0.972712
O O11 0.150065 0.833511 0.748457
O O12 0.000000 0.810788 0.750000
O O13 0.500000 0.239812 0.250000
O O14 0.000000 0.500000 0.500000
#
# Coordination Sequence:
#
# PCOD9300336 Si02
#       6
#     8   8   8   8   8   8
#     4  12  23  46  80 108 147 197 261 316 387 450
#     4  10  26  49  69 109 164 192 253 315 376 457
#     4  11  22  43  70 110 145 193 255 302 375 467
#     4  11  24  41  72 107 153 205 246 306 379 458
#     4  11  25  49  76 110 147 199 259 323 383 462
#     4  11  24  44  75 111 152 195 250 318 380 450
#
# _framework density 24.727484
#
# number of rings (size 3 to 8) (size 9 to 14) (size 15 to 20)
#    0.000    1.000    3.333    2.000    2.333    4.667 
#   12.000    0.833    0.000    0.000    0.000    0.000 
#    0.000    0.000    0.000    0.000    0.000    0.000 
#
# Total GULP energy -134268.821788 kJ/mol
# GULP energy per Si atom -5594.534241 kJ/mol
# Density = 2.467120 g / cm^3
# Si number density = 24.727484 Si / 1000 Ang^3
#
#
#
# Elastic Constant Matrix: (Units=GPa)
#
#
# Indices 1 2 3 4 5 6 
#
# 1 142.9607 39.3972 76.4662 -0.0002 -12.1598 -0.0002
# 2 39.3972 78.5700 50.5242 -0.0043 -21.7476 -0.0020
# 3 76.4662 50.5242 139.2529 -0.0057 -7.6922 -0.0024
# 4 -0.0002 -0.0043 -0.0057 27.3754 -0.0007 -3.6449
# 5 -12.1598 -21.7476 -7.6922 -0.0007 53.5428 -0.0007
# 6 -0.0002 -0.0020 -0.0024 -3.6449 -0.0007 26.6385
#
#
#
# Elastic Compliance Matrix: (Units=1/GPa)
#
#
# Indices 1 2 3 4 5 6 
#
# 1 0.010170 -0.001678 -0.004925 -0.000001 0.000921 -0.000001
# 2 -0.001678 0.018978 -0.005604 0.000002 0.006522 0.000001
# 3 -0.004925 -0.005604 0.011825 0.000002 -0.001696 0.000001
# 4 -0.000001 0.000002 0.000002 0.037207 0.000001 0.005091
# 5 0.000921 0.006522 -0.001696 0.000001 0.021291 0.000001
# 6 -0.000001 0.000001 0.000001 0.005091 0.000001 0.038236
#
#
# Mechanical properties :
#
#
# Convention : Reuss Voigt Hill
#
# Bulk Modulus (GPa) = 60.38851 77.06209 68.72530
# Shear Modulus (GPa) = 29.82584 34.47105 32.14845
#
# Velocity S-wave (km/s) = 3.47678 3.73773 3.60962
# Velocity P-wave (km/s) = 6.37118 7.06114 6.72502
#
# Compressibility (1/GPa) = 0.01655944
#
# Stress axis : x y z
#
# Youngs Moduli (GPa) = 98.33098 52.69353 84.56600
#
# Poissons Ratio (x) = 0.08840 0.41647
# Poissons Ratio (y) = 0.16497 0.47391
# Poissons Ratio (z) = 0.48426 0.29530
#
# Static dielectric constant tensor:
#      x y z
#    x 1.964390 0.000000 0.029900 
#    y 0.000000 1.967410 0.000000 
#    z 0.029900 0.000000 2.053480 
# 
# From -- ./inp_files/249753.got.cif
#   From: 2010.05.17/outbox.cif.g08.bks.cpg/sg15_125_cif.got.tgz:249753.got - 2010.06.03 18:47:42.
