data_PCOD9300795
_publ_section_title
;
Structure prediction by ZEFSAII (Michael W. Deem and Ramdas Pophale) SiO2 
 PCOD9300795
Probable space group: C 2/C
;
_chemical_formula_sum "Si O2"
_cell_formula_units_Z 60
_cell_length_a 12.281565
_cell_length_b 16.190707
_cell_length_c 27.961588
_cell_angle_alpha 90.000000
_cell_angle_beta 151.392065
_cell_angle_gamma 90.000000
_cell_volume 2662.243010
_symmetry_space_group_name_H-M "C 2/C"
_symmetry_group_IT_number 15
_symmetry_cell_setting 'monoclinic'
loop_
_space_group_symop_operation_xyz
x,y,z
-x,y,1/2-z
-x,-y,-z
x,-y,1/2+z
1/2+x,1/2+y,z
1/2-x,1/2+y,1/2-z
1/2-x,1/2-y,-z
1/2+x,1/2-y,1/2+z
loop_
_atom_site_type_symbol
_atom_site_label
_atom_site_fract_x
_atom_site_fract_y
_atom_site_fract_z
Si Si1 0.534962 0.817893 0.084206
Si Si2 0.773850 0.243450 0.117761
Si Si3 0.056650 0.072914 0.669003
Si Si4 0.000000 0.088207 0.750000
Si Si5 0.990379 0.743833 0.383923
Si Si6 0.627012 0.331417 0.690167
Si Si7 0.944671 0.431512 0.175365
Si Si8 0.667950 0.450221 0.980510
O O1 0.775075 0.856269 0.163514
O O2 0.565104 0.752562 0.138046
O O3 0.424298 0.769063 0.997544
O O4 0.367539 0.891773 0.036144
O O5 0.660041 0.238857 0.125785
O O6 0.886893 0.333884 0.158002
O O7 0.958326 0.175380 0.171193
O O8 0.998954 0.041095 0.699547
O O9 0.319161 0.053147 0.760523
O O10 0.047540 0.171247 0.659588
O O11 0.875303 0.036655 0.561907
O O12 0.250000 0.750000 0.500000
O O13 0.884303 0.673190 0.308593
O O14 0.555877 0.401243 0.624876
O O15 0.000000 0.462903 0.250000
O O16 0.736570 0.462601 0.062122
#
# Coordination Sequence:
#
# PCOD9300795 Si02
#       8
#     8   8   8   4   8   8   8   8
#     4  11  21  40  72  97 132 178 228 285 331 417
#     4  11  19  38  72  97 121 174 238 271 329 407
#     4  12  26  42  67  97 139 180 218 285 343 413
#     4  12  22  44  66  98 142 182 218 278 368 394
#     4  12  24  41  62 103 138 176 224 287 346 395
#     4  11  20  43  71  96 129 180 232 280 330 416
#     4  12  21  44  71  93 130 177 228 278 342 408
#     4  11  24  43  68 102 132 179 236 276 346 416
#
# _framework density 22.537386000000001
#
# number of rings (size 3 to 8) (size 9 to 14) (size 15 to 20)
#    0.000    0.533    8.000    2.000    0.000    2.133 
#    4.800    0.000    1.467    0.000    0.000    0.000 
#    0.000    0.000    0.000    0.000    0.000    0.000 
#
# Total GULP energy -167457.430015 kJ/mol
# GULP energy per Si atom -5581.914334 kJ/mol
# Density = 2.248609 g / cm^3
# Si number density = 22.537386 Si / 1000 Ang^3
#
#
#
# Elastic Constant Matrix: (Units=GPa)
#
#
# Indices 1 2 3 4 5 6 
#
# 1 81.1058 10.1017 45.4080 0.0001 -28.6596 0.0000
# 2 10.1017 29.1527 24.2999 0.0004 -1.1709 0.0000
# 3 45.4080 24.2999 187.1645 0.0012 -25.7455 0.0001
# 4 0.0001 0.0004 0.0012 17.0088 0.0001 -10.8131
# 5 -28.6596 -1.1709 -25.7455 0.0001 43.7725 0.0000
# 6 0.0000 0.0000 0.0001 -10.8131 0.0000 5.0125
#
#
#
# Elastic Compliance Matrix: (Units=1/GPa)
#
#
# Indices 1 2 3 4 5 6 
#
# 1 0.017709 -0.003706 -0.002431 -0.000001 0.010066 -0.000001
# 2 -0.003706 0.039415 -0.004795 0.000002 -0.004192 0.000004
# 3 -0.002431 -0.004795 0.006875 0.000001 0.002324 0.000002
# 4 -0.000001 0.000002 0.000001 -0.158297 0.000001 -0.341479
# 5 0.010066 -0.004192 0.002324 0.000001 0.030691 0.000002
# 6 -0.000001 0.000004 0.000002 -0.341479 0.000002 -0.537141
#
#
# Mechanical properties :
#
#
# Convention : Reuss Voigt Hill
#
# Bulk Modulus (GPa) = 23.73299 50.78246 37.25773
# Shear Modulus (GPa) = -8.85205 27.66632 9.40713
#
# Velocity S-wave (km/s) = -1.98400 3.50748 2.04526
# Velocity P-wave (km/s) = 2.30327 6.24377 4.70583
#
# Compressibility (1/GPa) = 0.04213543
#
# Stress axis : x y z
#
# Youngs Moduli (GPa) = 56.46890 25.37126 145.45975
#
# Poissons Ratio (x) = 0.09403 0.35355
# Poissons Ratio (y) = 0.20928 0.69746
# Poissons Ratio (z) = 0.13725 0.12165
#
# Static dielectric constant tensor:
#      x y z
#    x 1.884080 0.000000 -0.022020 
#    y 0.000000 1.837760 0.000000 
#    z -0.022020 0.000000 1.873770 
# 
# From -- ./inp_files/293563.got.cif
#   From: 2010.05.17/outbox.cif.g08.bks.cpg/sg15_147_cif.got.tgz:293563.got - 2010.06.03 18:47:42.
