data_PCOD9300926
_publ_section_title
;
Structure prediction by ZEFSAII (Michael W. Deem and Ramdas Pophale) SiO2 
 PCOD9300926
Probable space group: C 2/C
;
_chemical_formula_sum "Si O2"
_cell_formula_units_Z 56
_cell_length_a 14.115653
_cell_length_b 14.913057
_cell_length_c 21.101391
_cell_angle_alpha 90.000000
_cell_angle_beta 149.382895
_cell_angle_gamma 90.000000
_cell_volume 2262.304254
_symmetry_space_group_name_H-M "C 2/C"
_symmetry_group_IT_number 15
_symmetry_cell_setting 'monoclinic'
loop_
_space_group_symop_operation_xyz
x,y,z
-x,y,1/2-z
-x,-y,-z
x,-y,1/2+z
1/2+x,1/2+y,z
1/2-x,1/2+y,1/2-z
1/2-x,1/2-y,-z
1/2+x,1/2-y,1/2+z
loop_
_atom_site_type_symbol
_atom_site_label
_atom_site_fract_x
_atom_site_fract_y
_atom_site_fract_z
Si Si1 0.500000 0.650045 0.250000
Si Si2 0.673407 0.932643 0.022362
Si Si3 0.147451 0.362121 0.468826
Si Si4 0.765331 0.639855 0.806918
Si Si5 0.379571 0.323946 0.044805
Si Si6 0.000000 0.557388 0.750000
Si Si7 0.666045 0.570084 0.101606
Si Si8 0.258126 0.430011 0.722483
O O1 0.666613 0.687224 0.394907
O O2 0.621362 0.597543 0.267869
O O3 0.751746 0.880997 0.128405
O O4 0.805284 0.910519 0.039728
O O5 0.458009 0.903516 0.901779
O O6 0.661972 0.039545 0.011058
O O7 0.959574 0.324159 0.392461
O O8 0.096699 0.386639 0.364737
O O9 0.591970 0.694785 0.681976
O O10 0.740036 0.537640 0.766774
O O11 0.250000 0.250000 0.000000
O O12 0.347748 0.348073 0.954475
O O13 0.150411 0.489613 0.805755
O O14 0.656186 0.609636 0.165422
O O15 0.500000 0.500000 0.000000
#
# Coordination Sequence:
#
# PCOD9300926 Si02
#       8
#     4   8   8   8   8   4   8   8
#     4  12  20  32  58  95 131 164 230 290 380 426
#     4  11  20  38  57  88 130 177 225 283 357 435
#     4  11  20  33  60  93 133 173 219 294 368 432
#     4  11  20  38  58  88 129 172 229 288 357 431
#     4  12  26  42  62  94 139 195 235 282 373 471
#     4  12  20  34  56  93 135 174 220 294 368 422
#     4  12  21  38  61  90 138 179 228 297 361 430
#     4  11  20  34  62  92 128 172 223 300 362 422
#
# _framework density 24.753523000000001
#
# number of rings (size 3 to 8) (size 9 to 14) (size 15 to 20)
#    0.000    0.571    8.571    3.000    0.000    0.000 
#    7.714    0.000    0.000    0.000    0.000    8.000 
#    0.000    0.000    0.000    0.000    0.000    0.000 
#
# Total GULP energy -156335.569308 kJ/mol
# GULP energy per Si atom -5583.413190 kJ/mol
# Density = 2.469718 g / cm^3
# Si number density = 24.753523 Si / 1000 Ang^3
#
#
#
# Elastic Constant Matrix: (Units=GPa)
#
#
# Indices 1 2 3 4 5 6 
#
# 1 125.6730 0.2501 60.7105 0.0001 -22.0221 0.0003
# 2 0.2501 59.2537 29.1592 0.0005 1.4868 0.0010
# 3 60.7105 29.1592 166.2641 0.0013 -11.3125 0.0028
# 4 0.0001 0.0005 0.0013 0.4492 0.0004 25.9317
# 5 -22.0221 1.4868 -11.3125 0.0004 68.4509 0.0007
# 6 0.0003 0.0010 0.0028 25.9317 0.0007 -12.3098
#
#
#
# Elastic Compliance Matrix: (Units=1/GPa)
#
#
# Indices 1 2 3 4 5 6 
#
# 1 0.010298 0.001809 -0.003898 0.000000 0.002629 0.000000
# 2 0.001809 0.018849 -0.004000 0.000000 -0.000488 0.000000
# 3 -0.003898 -0.004000 0.008152 -0.000001 0.000180 0.000000
# 4 0.000000 0.000000 -0.000001 0.018156 -0.000001 0.038248
# 5 0.002629 -0.000488 0.000180 -0.000001 0.015495 0.000000
# 6 0.000000 0.000000 0.000000 0.038248 0.000000 -0.000663
#
#
# Mechanical properties :
#
#
# Convention : Reuss Voigt Hill
#
# Bulk Modulus (GPa) = 39.80780 59.04784 49.42782
# Shear Modulus (GPa) = 55.04205 28.72280 41.88242
#
# Velocity S-wave (km/s) = 4.72063 3.41009 4.11783
# Velocity P-wave (km/s) = 6.76971 6.27782 6.52840
#
# Compressibility (1/GPa) = 0.02512071
#
# Stress axis : x y z
#
# Youngs Moduli (GPa) = 97.10994 53.05194 122.67349
#
# Poissons Ratio (x) = -0.09597 0.47824
# Poissons Ratio (y) = -0.17568 0.49064
# Poissons Ratio (z) = 0.37858 0.21219
#
# Static dielectric constant tensor:
#      x y z
#    x 19.214430 0.000270 -3.445230 
#    y 0.000270 2.141870 -0.000050 
#    z -3.445230 -0.000050 2.753300 
# 
# From -- ./inp_files/98279.got.cif
#   From: 2010.05.17/outbox.cif.g08.bks.cpg/sg15_50_cif.got.tgz:98279.got - 2010.06.03 18:47:42.
