data_PCOD9300923
_publ_section_title
;
Structure prediction by ZEFSAII (Michael W. Deem and Ramdas Pophale) SiO2 
 PCOD9300923
Probable space group: C 2/C
;
_chemical_formula_sum "Si O2"
_cell_formula_units_Z 60
_cell_length_a 11.935342
_cell_length_b 19.983506
_cell_length_c 13.695189
_cell_angle_alpha 90.000000
_cell_angle_beta 92.017428
_cell_angle_gamma 90.000000
_cell_volume 3264.414581
_symmetry_space_group_name_H-M "C 2/C"
_symmetry_group_IT_number 15
_symmetry_cell_setting 'monoclinic'
loop_
_space_group_symop_operation_xyz
x,y,z
-x,y,1/2-z
-x,-y,-z
x,-y,1/2+z
1/2+x,1/2+y,z
1/2-x,1/2+y,1/2-z
1/2-x,1/2-y,-z
1/2+x,1/2-y,1/2+z
loop_
_atom_site_type_symbol
_atom_site_label
_atom_site_fract_x
_atom_site_fract_y
_atom_site_fract_z
Si Si1 0.568815 0.722688 0.548431
Si Si2 0.500000 0.227628 0.250000
Si Si3 0.205287 0.664431 0.954479
Si Si4 0.358821 0.221152 0.951970
Si Si5 0.625878 0.079070 0.449431
Si Si6 0.366856 0.752518 0.238305
Si Si7 0.211483 0.372234 0.755694
Si Si8 0.129130 0.545900 0.070304
O O1 0.519173 0.727993 0.654857
O O2 0.659875 0.665113 0.534413
O O3 0.647733 0.788070 0.534301
O O4 0.464804 0.729589 0.471995
O O5 0.393946 0.178666 0.237413
O O6 0.171131 0.701265 0.853105
O O7 0.155436 0.592613 0.976992
O O8 0.330255 0.213516 0.838274
O O9 0.250000 0.250000 0.000000
O O10 0.391136 0.151714 0.003288
O O11 0.708047 0.088944 0.359405
O O12 0.503815 0.052174 0.411669
O O13 0.661568 0.027872 0.535640
O O14 0.500000 0.749029 0.250000
O O15 0.313461 0.678353 0.236810
O O16 0.191772 0.422773 0.665362
#
# Coordination Sequence:
#
# PCOD9300923 Si02
#       8
#     8   4   8   8   8   8   8   8
#     4  11  20  33  59  84 117 150 199 243 291 347
#     4  12  16  32  60  88 106 158 196 238 286 358
#     4  11  20  36  54  87 121 151 191 244 295 350
#     4  12  22  38  57  89 123 151 195 257 297 344
#     4  11  22  37  58  89 119 156 196 238 303 358
#     4  12  23  34  60  90 122 156 199 257 300 342
#     4  12  19  37  59  84 116 156 200 238 299 359
#     4  11  22  36  60  86 124 157 192 240 291 378
#
# _framework density 18.380019000000001
#
# number of rings (size 3 to 8) (size 9 to 14) (size 15 to 20)
#    0.000    0.533    9.333    0.800    0.000    1.067 
#    0.000    1.333    0.000    3.200    0.000    0.000 
#    0.000    0.000    0.000    0.000    0.000    0.000 
#
# Total GULP energy -167401.458444 kJ/mol
# GULP energy per Si atom -5580.048615 kJ/mol
# Density = 1.833818 g / cm^3
# Si number density = 18.380019 Si / 1000 Ang^3
#
#
#
# Elastic Constant Matrix: (Units=GPa)
#
#
# Indices 1 2 3 4 5 6 
#
# 1 77.0901 16.1829 10.3203 0.0000 -4.3750 0.0000
# 2 16.1829 42.9627 20.2082 0.0000 -3.0536 0.0000
# 3 10.3203 20.2082 128.0779 0.0000 -10.7844 0.0000
# 4 0.0000 0.0000 0.0000 27.5560 0.0000 -1.6888
# 5 -4.3750 -3.0536 -10.7844 0.0000 24.5311 0.0000
# 6 0.0000 0.0000 0.0000 -1.6888 0.0000 20.5463
#
#
#
# Elastic Compliance Matrix: (Units=1/GPa)
#
#
# Indices 1 2 3 4 5 6 
#
# 1 0.014175 -0.005125 -0.000181 0.000000 0.001810 0.000000
# 2 -0.005125 0.027044 -0.003788 0.000000 0.000787 0.000000
# 3 -0.000181 -0.003788 0.008700 0.000000 0.003321 0.000000
# 4 0.000000 0.000000 0.000000 0.036473 0.000000 0.002998
# 5 0.001810 0.000787 0.003321 0.000000 0.042645 0.000000
# 6 0.000000 0.000000 0.000000 0.002998 0.000000 0.048917
#
#
# Mechanical properties :
#
#
# Convention : Reuss Voigt Hill
#
# Bulk Modulus (GPa) = 31.51585 37.95039 34.73312
# Shear Modulus (GPa) = 24.18736 27.95462 26.07099
#
# Velocity S-wave (km/s) = 3.63155 3.90413 3.77031
# Velocity P-wave (km/s) = 5.89646 6.40433 6.15564
#
# Compressibility (1/GPa) = 0.03173007
#
# Stress axis : x y z
#
# Youngs Moduli (GPa) = 70.54801 36.97650 114.94808
#
# Poissons Ratio (x) = 0.18952 0.02081
# Poissons Ratio (y) = 0.36159 0.43540
# Poissons Ratio (z) = 0.01277 0.14006
#
# Static dielectric constant tensor:
#      x y z
#    x 1.657430 0.000000 0.005170 
#    y 0.000000 1.619610 0.000000 
#    z 0.005170 0.000000 1.711660 
# 
# From -- ./inp_files/145664.got.cif
#   From: 2010.05.17/outbox.cif.g08.bks.cpg/sg15_73_cif.got.tgz:145664.got - 2010.06.03 18:47:42.
