data_PCOD9300803
_publ_section_title
;
Structure prediction by ZEFSAII (Michael W. Deem and Ramdas Pophale) SiO2 
 PCOD9300803
Probable space group: C 2/C
;
_chemical_formula_sum "Si O2"
_cell_formula_units_Z 64
_cell_length_a 12.608408
_cell_length_b 28.017216
_cell_length_c 17.946039
_cell_angle_alpha 90.000000
_cell_angle_beta 29.646044
_cell_angle_gamma 90.000000
_cell_volume 3135.764708
_symmetry_space_group_name_H-M "C 2/C"
_symmetry_group_IT_number 15
_symmetry_cell_setting 'monoclinic'
loop_
_space_group_symop_operation_xyz
x,y,z
-x,y,1/2-z
-x,-y,-z
x,-y,1/2+z
1/2+x,1/2+y,z
1/2-x,1/2+y,1/2-z
1/2-x,1/2-y,-z
1/2+x,1/2-y,1/2+z
loop_
_atom_site_type_symbol
_atom_site_label
_atom_site_fract_x
_atom_site_fract_y
_atom_site_fract_z
Si Si1 0.498539 0.865954 0.077042
Si Si2 0.232280 0.670222 0.649112
Si Si3 0.028075 0.562581 0.322942
Si Si4 0.163796 0.858347 0.806624
Si Si5 0.228902 0.217573 0.151552
Si Si6 0.782447 0.925428 0.354260
Si Si7 0.085592 0.998723 0.362624
Si Si8 0.895239 0.928128 0.882954
O O1 0.305443 0.855598 0.250328
O O2 0.399243 0.890128 0.065575
O O3 0.608907 0.814911 0.994798
O O4 0.673961 0.901565 0.005097
O O5 0.438325 0.646528 0.486476
O O6 0.277264 0.726653 0.626040
O O7 0.000000 0.665031 0.750000
O O8 0.153814 0.613335 0.260168
O O9 0.189983 0.525062 0.260873
O O10 0.000000 0.556831 0.250000
O O11 0.823242 0.556663 0.502823
O O12 0.224539 0.807474 0.734896
O O13 0.084249 0.889755 0.784575
O O14 0.000000 0.213231 0.250000
O O15 0.000000 0.901405 0.250000
O O16 0.851137 0.958833 0.240011
O O17 0.901194 0.032908 0.441943
O O18 0.000000 0.000000 0.500000
O O19 0.000000 0.955415 0.750000
#
# Coordination Sequence:
#
# PCOD9300803 Si02
#       8
#     8   8   8   8   8   8   8   8
#     4  12  22  39  66  96 133 180 216 267 340 405
#     4  11  23  33  63 105 141 169 216 279 337 407
#     4  11  25  45  71  92 126 180 226 274 335 396
#     4  11  20  39  61  93 135 171 218 267 332 403
#     4  11  19  39  62  99 139 175 216 268 344 410
#     4  12  27  45  68  95 131 176 229 279 332 400
#     4  11  26  44  68 100 132 163 217 285 334 400
#     4  11  20  39  64  90 129 169 209 262 336 406
#
# _framework density 20.409694999999999
#
# number of rings (size 3 to 8) (size 9 to 14) (size 15 to 20)
#    0.000    0.750    5.000    3.000    5.250    4.000 
#    0.000    0.000    0.000    4.500    0.000    0.000 
#    0.000    0.000    0.000    0.000    0.000    0.000 
#
# Total GULP energy -178213.531661 kJ/mol
# GULP energy per Si atom -5569.172864 kJ/mol
# Density = 2.036324 g / cm^3
# Si number density = 20.409695 Si / 1000 Ang^3
#
#
#
# Elastic Constant Matrix: (Units=GPa)
#
#
# Indices 1 2 3 4 5 6 
#
# 1 104.0356 40.7497 22.4844 -0.0248 3.2014 -0.0135
# 2 40.7497 57.2790 11.2482 -0.0003 -0.2650 0.0280
# 3 22.4844 11.2482 105.9252 -0.0214 16.6641 0.1453
# 4 -0.0248 -0.0003 -0.0214 19.5638 0.0011 -4.0316
# 5 3.2014 -0.2650 16.6641 0.0011 46.2130 -0.0225
# 6 -0.0135 0.0280 0.1453 -4.0316 -0.0225 32.5849
#
#
#
# Elastic Compliance Matrix: (Units=1/GPa)
#
#
# Indices 1 2 3 4 5 6 
#
# 1 0.013699 -0.009382 -0.001859 0.000020 -0.000332 0.000024
# 2 -0.009382 0.024286 -0.000754 -0.000017 0.001061 -0.000023
# 3 -0.001859 -0.000754 0.010491 -0.000001 -0.003659 -0.000050
# 4 0.000020 -0.000017 -0.000001 0.052452 0.000001 0.006490
# 5 -0.000332 0.001061 -0.003659 0.000001 0.022987 0.000031
# 6 0.000024 -0.000023 -0.000050 0.006490 0.000031 0.031492
#
#
# Mechanical properties :
#
#
# Convention : Reuss Voigt Hill
#
# Bulk Modulus (GPa) = 40.84214 46.24493 43.54354
# Shear Modulus (GPa) = 26.65791 32.52284 29.59037
#
# Velocity S-wave (km/s) = 3.61798 3.99620 3.81178
# Velocity P-wave (km/s) = 6.12434 6.63327 6.38388
#
# Compressibility (1/GPa) = 0.02448452
#
# Stress axis : x y z
#
# Youngs Moduli (GPa) = 72.99727 41.17546 95.31956
#
# Poissons Ratio (x) = 0.38632 0.17723
# Poissons Ratio (y) = 0.68489 0.07190
# Poissons Ratio (z) = 0.13572 0.03106
#
# Static dielectric constant tensor:
#      x y z
#    x 1.973970 -0.000010 0.606040 
#    y -0.000010 1.748680 0.000010 
#    z 0.606040 0.000010 3.499820 
# 
# From -- ./inp_files/201466.got.cif
#   From: 2010.05.17/outbox.cif.g08.bks.cpg/sg15_101_cif.got.tgz:201466.got - 2010.06.03 18:47:42.
