data_PCOD9300502
_publ_section_title
;
Structure prediction by ZEFSAII (Michael W. Deem and Ramdas Pophale) SiO2 
 PCOD9300502
Probable space group: C 2/C
;
_chemical_formula_sum "Si O2"
_cell_formula_units_Z 48
_cell_length_a 16.705909
_cell_length_b 8.919958
_cell_length_c 28.020082
_cell_angle_alpha 90.000000
_cell_angle_beta 44.325699
_cell_angle_gamma 90.000000
_cell_volume 2917.531696
_symmetry_space_group_name_H-M "C 2/C"
_symmetry_group_IT_number 15
_symmetry_cell_setting 'monoclinic'
loop_
_space_group_symop_operation_xyz
x,y,z
-x,y,1/2-z
-x,-y,-z
x,-y,1/2+z
1/2+x,1/2+y,z
1/2-x,1/2+y,1/2-z
1/2-x,1/2-y,-z
1/2+x,1/2-y,1/2+z
loop_
_atom_site_type_symbol
_atom_site_label
_atom_site_fract_x
_atom_site_fract_y
_atom_site_fract_z
Si Si1 0.990332 0.014954 0.924132
Si Si2 0.067820 0.299402 0.597768
Si Si3 0.336306 0.314232 0.923280
Si Si4 0.221246 0.394455 0.448111
Si Si5 0.171095 0.113143 0.418989
Si Si6 0.417460 0.029558 0.829569
O O1 0.935212 0.902184 0.909700
O O2 0.094931 0.942019 0.907682
O O3 0.016401 0.173748 0.887460
O O4 0.892606 0.054572 0.005504
O O5 0.123366 0.392164 0.530441
O O6 0.172791 0.201395 0.575045
O O7 0.028744 0.412288 0.655282
O O8 0.267147 0.438483 0.921991
O O9 0.385891 0.181711 0.870383
O O10 0.250000 0.250000 0.000000
O O11 0.179279 0.293050 0.422062
O O12 0.297177 0.043534 0.364330
O O13 0.500000 0.053452 0.750000
#
# Coordination Sequence:
#
# PCOD9300502 Si02
#       6
#     8   8   8   8   8   8
#     4   9  17  31  56  77 100 129 171 218 260 302
#     4   8  14  29  49  73  92 131 170 202 251 313
#     4  11  17  31  51  75 102 138 175 218 259 304
#     4   8  14  27  51  72  98 126 172 209 244 303
#     4   9  17  33  52  79 101 128 170 219 258 309
#     4  11  21  33  50  74 105 137 174 217 265 315
#
# _framework density 16.452264
#
# number of rings (size 3 to 8) (size 9 to 14) (size 15 to 20)
#    0.000    2.667    3.333    2.000    0.000    0.000 
#    0.000   11.667    0.000    0.000    0.000    0.000 
#    0.000    0.000    0.000    0.000    0.000    0.000 
#
# Total GULP energy -133662.096754 kJ/mol
# GULP energy per Si atom -5569.254031 kJ/mol
# Density = 1.641482 g / cm^3
# Si number density = 16.452264 Si / 1000 Ang^3
#
#
#
# Elastic Constant Matrix: (Units=GPa)
#
#
# Indices 1 2 3 4 5 6 
#
# 1 73.5118 48.1472 30.6875 0.0000 7.5472 0.0000
# 2 48.1472 130.4386 67.7703 0.0000 12.6124 0.0000
# 3 30.6875 67.7703 96.9218 0.0000 7.9307 0.0000
# 4 0.0000 0.0000 0.0000 19.2535 0.0000 7.7444
# 5 7.5472 12.6124 7.9307 0.0000 12.0009 0.0000
# 6 0.0000 0.0000 0.0000 7.7444 0.0000 30.7342
#
#
#
# Elastic Compliance Matrix: (Units=1/GPa)
#
#
# Indices 1 2 3 4 5 6 
#
# 1 0.018346 -0.005494 -0.001581 0.000000 -0.004719 0.000000
# 2 -0.005494 0.014360 -0.007769 0.000000 -0.006502 0.000000
# 3 -0.001581 -0.007769 0.016387 0.000000 -0.001670 0.000000
# 4 0.000000 0.000000 0.000000 0.057797 0.000000 -0.014564
# 5 -0.004719 -0.006502 -0.001670 0.000000 0.094231 0.000000
# 6 0.000000 0.000000 0.000000 -0.014564 0.000000 0.036207
#
#
# Mechanical properties :
#
#
# Convention : Reuss Voigt Hill
#
# Bulk Modulus (GPa) = 51.53438 66.00911 58.77175
# Shear Modulus (GPa) = 18.28259 22.68220 20.48239
#
# Velocity S-wave (km/s) = 3.33716 3.71707 3.53223
# Velocity P-wave (km/s) = 6.80003 7.65708 7.24124
#
# Compressibility (1/GPa) = 0.01940452
#
# Stress axis : x y z
#
# Youngs Moduli (GPa) = 54.50720 69.63992 61.02358
#
# Poissons Ratio (x) = 0.38262 0.09648
# Poissons Ratio (y) = 0.29948 0.47409
# Poissons Ratio (z) = 0.08617 0.54103
#
# Static dielectric constant tensor:
#      x y z
#    x 1.568440 0.000000 0.011080 
#    y 0.000000 1.581290 0.000000 
#    z 0.011080 0.000000 1.527670 
# 
# From -- ./inp_files/208646.got.cif
#   From: 2010.05.17/outbox.cif.g08.bks.cpg/sg15_105_cif.got.tgz:208646.got - 2010.06.03 18:47:42.
