data_PCOD9300617
_publ_section_title
;
Structure prediction by ZEFSAII (Michael W. Deem and Ramdas Pophale) SiO2 
 PCOD9300617
Probable space group: C 2/C
;
_chemical_formula_sum "Si O2"
_cell_formula_units_Z 64
_cell_length_a 30.113447
_cell_length_b 13.843456
_cell_length_c 22.430075
_cell_angle_alpha 90.000000
_cell_angle_beta 159.848045
_cell_angle_gamma 90.000000
_cell_volume 3221.357716
_symmetry_space_group_name_H-M "C 2/C"
_symmetry_group_IT_number 15
_symmetry_cell_setting 'monoclinic'
loop_
_space_group_symop_operation_xyz
x,y,z
-x,y,1/2-z
-x,-y,-z
x,-y,1/2+z
1/2+x,1/2+y,z
1/2-x,1/2+y,1/2-z
1/2-x,1/2-y,-z
1/2+x,1/2-y,1/2+z
loop_
_atom_site_type_symbol
_atom_site_label
_atom_site_fract_x
_atom_site_fract_y
_atom_site_fract_z
Si Si1 0.268992 0.906854 0.463465
Si Si2 0.428949 0.074315 0.279468
Si Si3 0.639466 0.417723 0.078893
Si Si4 0.376782 0.200139 0.414235
Si Si5 0.260377 0.293553 0.883984
Si Si6 0.499354 0.560003 0.682798
Si Si7 0.095359 0.429087 0.156668
Si Si8 0.709749 0.995174 0.628021
O O1 0.384792 0.916335 0.656157
O O2 0.280425 0.809498 0.439496
O O3 0.264593 0.993639 0.409865
O O4 0.139107 0.901904 0.339353
O O5 0.356883 0.155661 0.227424
O O6 0.582533 0.062321 0.478733
O O7 0.377725 0.975923 0.245227
O O8 0.606830 0.305314 0.037857
O O9 0.774950 0.424738 0.215595
O O10 0.671751 0.461507 0.184698
O O11 0.542798 0.484186 0.920455
O O12 0.282366 0.210361 0.238646
O O13 0.515494 0.167375 0.564352
O O14 0.325764 0.111848 0.391752
O O15 0.390507 0.356685 0.049812
O O16 0.500000 0.516040 0.750000
O O17 0.000000 0.500000 0.000000
#
# Coordination Sequence:
#
# PCOD9300617 Si02
#       8
#     8   8   8   8   8   8   8   8
#     4  12  27  39  64 103 139 171 214 280 336 392
#     4  11  21  42  66  91 132 172 225 264 323 397
#     4  12  22  43  67  94 134 171 223 275 322 397
#     4  11  23  40  67 102 125 171 228 272 324 389
#     4  12  22  41  65  99 130 175 218 262 336 402
#     4  12  26  45  66  94 139 180 215 270 341 398
#     4  11  18  40  69  87 124 182 223 263 319 394
#     4  11  23  43  65  95 132 174 220 271 325 383
#
# _framework density 19.8674
#
# number of rings (size 3 to 8) (size 9 to 14) (size 15 to 20)
#    0.000    0.500    8.750    0.750    1.750    2.500 
#    0.000    2.500    0.000    5.250    0.000    0.000 
#    0.000    0.000    0.000    0.000    0.000    0.000 
#
# Total GULP energy -178806.943457 kJ/mol
# GULP energy per Si atom -5587.716983 kJ/mol
# Density = 1.982218 g / cm^3
# Si number density = 19.867400 Si / 1000 Ang^3
#
#
#
# Elastic Constant Matrix: (Units=GPa)
#
#
# Indices 1 2 3 4 5 6 
#
# 1 79.2660 13.8728 17.9214 0.0001 -17.6514 0.0000
# 2 13.8728 84.5051 33.0864 0.0001 -15.9277 0.0000
# 3 17.9214 33.0864 74.2889 0.0001 -23.4952 0.0001
# 4 0.0001 0.0001 0.0001 12.9355 0.0001 -1.1162
# 5 -17.6514 -15.9277 -23.4952 0.0001 38.8054 0.0001
# 6 0.0000 0.0000 0.0001 -1.1162 0.0001 20.7773
#
#
#
# Elastic Compliance Matrix: (Units=1/GPa)
#
#
# Indices 1 2 3 4 5 6 
#
# 1 0.014254 -0.000788 -0.001409 0.000000 0.005307 0.000000
# 2 -0.000788 0.014575 -0.005594 0.000000 0.002237 0.000000
# 3 -0.001409 -0.005594 0.019002 0.000000 0.008568 0.000000
# 4 0.000000 0.000000 0.000000 0.077667 0.000000 0.004172
# 5 0.005307 0.002237 0.008568 0.000000 0.034289 0.000000
# 6 0.000000 0.000000 0.000000 0.004172 0.000000 0.048354
#
#
# Mechanical properties :
#
#
# Convention : Reuss Voigt Hill
#
# Bulk Modulus (GPa) = 31.00862 40.86903 35.93883
# Shear Modulus (GPa) = 21.32452 26.04892 23.68672
#
# Velocity S-wave (km/s) = 3.27974 3.62489 3.45663
# Velocity P-wave (km/s) = 5.47576 6.17538 5.83607
#
# Compressibility (1/GPa) = 0.03224910
#
# Stress axis : x y z
#
# Youngs Moduli (GPa) = 70.15535 68.61210 52.62610
#
# Poissons Ratio (x) = 0.05406 0.07416
# Poissons Ratio (y) = 0.05528 0.29437
# Poissons Ratio (z) = 0.09887 0.38379
#
# Static dielectric constant tensor:
#      x y z
#    x 1.789440 0.000000 0.017400 
#    y 0.000000 1.654680 0.000000 
#    z 0.017400 0.000000 1.720380 
# 
# From -- ./inp_files/259446.got.cif
#   From: 2010.05.17/outbox.cif.g08.bks.cpg/sg15_130_cif.got.tgz:259446.got - 2010.06.03 18:47:42.
