data_PCOD9300904
_publ_section_title
;
Structure prediction by ZEFSAII (Michael W. Deem and Ramdas Pophale) SiO2 
 PCOD9300904
Probable space group: C 2/C
;
_chemical_formula_sum "Si O2"
_cell_formula_units_Z 52
_cell_length_a 12.156305
_cell_length_b 18.158145
_cell_length_c 22.343611
_cell_angle_alpha 90.000000
_cell_angle_beta 35.413174
_cell_angle_gamma 90.000000
_cell_volume 2857.961153
_symmetry_space_group_name_H-M "C 2/C"
_symmetry_group_IT_number 15
_symmetry_cell_setting 'monoclinic'
loop_
_space_group_symop_operation_xyz
x,y,z
-x,y,1/2-z
-x,-y,-z
x,-y,1/2+z
1/2+x,1/2+y,z
1/2-x,1/2+y,1/2-z
1/2-x,1/2-y,-z
1/2+x,1/2-y,1/2+z
loop_
_atom_site_type_symbol
_atom_site_label
_atom_site_fract_x
_atom_site_fract_y
_atom_site_fract_z
Si Si1 0.718305 0.006134 0.670613
Si Si2 0.669907 0.933916 0.817088
Si Si3 0.776827 0.577791 0.541238
Si Si4 0.000000 0.984355 0.750000
Si Si5 0.438049 0.609459 0.988330
Si Si6 0.698956 0.234740 0.921250
Si Si7 0.578079 0.797843 0.776547
O O1 0.500000 0.016739 0.750000
O O2 0.721025 0.985466 0.738848
O O3 0.817187 0.939726 0.589290
O O4 0.851724 0.076640 0.602562
O O5 0.848556 0.935846 0.781181
O O6 0.632117 0.854350 0.803222
O O7 0.474158 0.960621 0.934455
O O8 0.631258 0.534503 0.648327
O O9 0.664410 0.596005 0.529829
O O10 0.849791 0.652102 0.541640
O O11 0.432406 0.696072 0.005553
O O12 0.761816 0.246564 0.823925
O O13 0.606321 0.250084 0.127215
O O14 0.500000 0.838571 0.750000
#
# Coordination Sequence:
#
# PCOD9300904 Si02
#       7
#     8   8   8   4   8   8   8
#     4  11  20  37  60  92 122 148 198 247 298 346
#     4  12  21  39  59  83 123 154 202 238 301 355
#     4  12  22  39  60  85 123 155 198 248 289 358
#     4  12  28  40  52  88 120 168 194 236 302 362
#     4  11  20  32  63  94 114 154 190 251 299 338
#     4   9  18  34  60  94 112 142 197 246 301 331
#     4   8  16  33  59  90 111 140 182 260 291 328
#
# _framework density 18.194787000000002
#
# number of rings (size 3 to 8) (size 9 to 14) (size 15 to 20)
#    0.923    0.308    6.154    2.308    0.000    0.000 
#    0.000    0.000    1.692    0.923    0.000    0.000 
#    0.000    0.000    0.000    0.000    0.000    0.000 
#
# Total GULP energy -144843.248664 kJ/mol
# GULP energy per Si atom -5570.894179 kJ/mol
# Density = 1.815338 g / cm^3
# Si number density = 18.194787 Si / 1000 Ang^3
#
#
#
# Elastic Constant Matrix: (Units=GPa)
#
#
# Indices 1 2 3 4 5 6 
#
# 1 81.0409 0.6974 26.1703 0.0052 -7.0736 -0.0144
# 2 0.6974 43.6439 26.3874 0.0057 0.2681 -0.0081
# 3 26.1703 26.3874 114.4633 0.0161 -4.7492 -0.0287
# 4 0.0052 0.0057 0.0161 10.4463 -0.0050 8.7356
# 5 -7.0736 0.2681 -4.7492 -0.0050 25.5798 0.0133
# 6 -0.0144 -0.0081 -0.0287 8.7356 0.0133 -93.3731
#
#
#
# Elastic Compliance Matrix: (Units=1/GPa)
#
#
# Indices 1 2 3 4 5 6 
#
# 1 0.013703 0.001833 -0.003426 0.000000 0.003134 -0.000001
# 2 0.001833 0.026921 -0.006667 -0.000005 -0.001013 -0.000001
# 3 -0.003426 -0.006667 0.011106 -0.000009 0.001185 -0.000003
# 4 0.000000 -0.000005 -0.000009 0.088782 0.000011 0.008306
# 5 0.003134 -0.001013 0.001185 0.000011 0.040191 0.000006
# 6 -0.000001 -0.000001 -0.000003 0.008306 0.000006 -0.009933
#
#
# Mechanical properties :
#
#
# Convention : Reuss Voigt Hill
#
# Bulk Modulus (GPa) = 28.40087 38.40649 33.40368
# Shear Modulus (GPa) = 25.12236 0.92346 13.02291
#
# Velocity S-wave (km/s) = 3.71987 0.71319 2.67825
# Velocity P-wave (km/s) = 5.83893 4.67253 5.28799
#
# Compressibility (1/GPa) = 0.03521019
#
# Stress axis : x y z
#
# Youngs Moduli (GPa) = 72.97430 37.14621 90.04329
#
# Poissons Ratio (x) = -0.06809 0.30845
# Poissons Ratio (y) = -0.13376 0.60033
# Poissons Ratio (z) = 0.24998 0.24766
#
# Static dielectric constant tensor:
#      x y z
#    x 1.612800 0.000000 0.007990 
#    y 0.000000 1.640980 0.000000 
#    z 0.007990 0.000000 1.700130 
# 
# From -- ./inp_files/200319.got.cif
#   From: 2010.05.17/outbox.cif.g08.bks.cpg/sg15_101_cif.got.tgz:200319.got - 2010.06.03 18:47:42.
