data_PCOD9300763
_publ_section_title
;
Structure prediction by ZEFSAII (Michael W. Deem and Ramdas Pophale) SiO2 
 PCOD9300763
Probable space group: C 2/C
;
_chemical_formula_sum "Si O2"
_cell_formula_units_Z 48
_cell_length_a 12.852772
_cell_length_b 28.364434
_cell_length_c 7.066170
_cell_angle_alpha 90.000000
_cell_angle_beta 128.388751
_cell_angle_gamma 90.000000
_cell_volume 2019.150986
_symmetry_space_group_name_H-M "C 2/C"
_symmetry_group_IT_number 15
_symmetry_cell_setting 'monoclinic'
loop_
_space_group_symop_operation_xyz
x,y,z
-x,y,1/2-z
-x,-y,-z
x,-y,1/2+z
1/2+x,1/2+y,z
1/2-x,1/2+y,1/2-z
1/2-x,1/2-y,-z
1/2+x,1/2-y,1/2+z
loop_
_atom_site_type_symbol
_atom_site_label
_atom_site_fract_x
_atom_site_fract_y
_atom_site_fract_z
Si Si1 0.972601 0.338771 0.444466
Si Si2 0.617365 0.259836 0.730024
Si Si3 0.733888 0.915084 0.409007
Si Si4 0.275811 0.647051 0.327212
Si Si5 0.862942 0.068898 0.672776
Si Si6 0.609112 0.014628 0.275291
O O1 0.916529 0.287172 0.428064
O O2 0.866505 0.380980 0.320728
O O3 0.000000 0.334009 0.250000
O O4 0.118199 0.347947 0.693073
O O5 0.500000 0.269805 0.750000
O O6 0.654182 0.304196 0.643750
O O7 0.750000 0.250000 0.000000
O O8 0.784638 0.885570 0.646213
O O9 0.839237 0.932455 0.370669
O O10 0.658606 0.962181 0.396493
O O11 0.348094 0.621792 0.580888
O O12 0.000000 0.049063 0.750000
O O13 0.743814 0.042266 0.431401
O O14 0.500000 0.048567 0.250000
O O15 0.500000 0.000000 0.000000
#
# Coordination Sequence:
#
# PCOD9300763 Si02
#       6
#     8   8   8   8   8   8
#     4   9  18  37  69 104 128 175 234 282 334 414
#     4  11  19  37  67 102 135 178 232 285 336 416
#     4  11  23  44  71  98 139 179 231 281 347 407
#     4  11  24  43  71  97 139 185 228 280 361 406
#     4  12  30  46  65 107 145 177 234 292 342 414
#     4  12  23  46  74 102 132 183 233 282 339 417
#
# _framework density 23.772366999999999
#
# number of rings (size 3 to 8) (size 9 to 14) (size 15 to 20)
#    0.000    1.000    6.667    3.500    2.333    0.667 
#    0.000    0.833    0.000    0.000    0.000    0.000 
#    0.000    0.000    0.000    0.000    0.000    0.000 
#
# Total GULP energy -133822.928601 kJ/mol
# GULP energy per Si atom -5575.955358 kJ/mol
# Density = 2.371826 g / cm^3
# Si number density = 23.772367 Si / 1000 Ang^3
#
#
#
# Elastic Constant Matrix: (Units=GPa)
#
#
# Indices 1 2 3 4 5 6 
#
# 1 129.2164 31.0541 30.9428 0.0000 36.3055 0.0000
# 2 31.0541 118.1887 -3.6700 0.0000 9.0631 0.0000
# 3 30.9428 -3.6700 51.7377 0.0000 21.4823 0.0000
# 4 0.0000 0.0000 0.0000 19.2195 0.0000 8.5268
# 5 36.3055 9.0631 21.4823 0.0000 45.2743 0.0000
# 6 0.0000 0.0000 0.0000 8.5268 0.0000 28.1089
#
#
#
# Elastic Compliance Matrix: (Units=1/GPa)
#
#
# Indices 1 2 3 4 5 6 
#
# 1 0.011173 -0.002570 -0.004182 0.000000 -0.006461 0.000000
# 2 -0.002570 0.009299 0.002633 0.000000 -0.001049 0.000000
# 3 -0.004182 0.002633 0.025956 0.000000 -0.009489 0.000000
# 4 0.000000 0.000000 0.000000 0.060122 0.000000 -0.018238
# 5 -0.006461 -0.001049 -0.009489 0.000000 0.031981 0.000000
# 6 0.000000 0.000000 0.000000 -0.018238 0.000000 0.041108
#
#
# Mechanical properties :
#
#
# Convention : Reuss Voigt Hill
#
# Bulk Modulus (GPa) = 26.18568 46.19964 36.19266
# Shear Modulus (GPa) = 24.92411 34.57494 29.74953
#
# Velocity S-wave (km/s) = 3.24149 3.81782 3.54140
# Velocity P-wave (km/s) = 5.00487 6.23784 5.65506
#
# Compressibility (1/GPa) = 0.03818881
#
# Stress axis : x y z
#
# Youngs Moduli (GPa) = 89.49762 107.54307 38.52620
#
# Poissons Ratio (x) = 0.27641 0.16112
# Poissons Ratio (y) = 0.23003 -0.10142
# Poissons Ratio (z) = 0.37429 -0.28311
#
# Static dielectric constant tensor:
#      x y z
#    x 3.329020 0.000000 -0.560740 
#    y 0.000000 1.874660 0.000000 
#    z -0.560740 0.000000 2.069490 
# 
# From -- ./inp_files/43943.got.cif
#   From: 2010.05.17/outbox.cif.g08.bks.cpg/sg15_22_cif.got.tgz:43943.got - 2010.06.03 18:47:42.
