data_PCOD9300658
_publ_section_title
;
Structure prediction by ZEFSAII (Michael W. Deem and Ramdas Pophale) SiO2 
 PCOD9300658
Probable space group: C 2/C
;
_chemical_formula_sum "Si O2"
_cell_formula_units_Z 40
_cell_length_a 13.697342
_cell_length_b 7.709868
_cell_length_c 23.930278
_cell_angle_alpha 90.000000
_cell_angle_beta 39.581307
_cell_angle_gamma 90.000000
_cell_volume 1610.230539
_symmetry_space_group_name_H-M "C 2/C"
_symmetry_group_IT_number 15
_symmetry_cell_setting 'monoclinic'
loop_
_space_group_symop_operation_xyz
x,y,z
-x,y,1/2-z
-x,-y,-z
x,-y,1/2+z
1/2+x,1/2+y,z
1/2-x,1/2+y,1/2-z
1/2-x,1/2-y,-z
1/2+x,1/2-y,1/2+z
loop_
_atom_site_type_symbol
_atom_site_label
_atom_site_fract_x
_atom_site_fract_y
_atom_site_fract_z
Si Si1 0.308188 0.731446 0.037563
Si Si2 0.880671 0.634629 0.081611
Si Si3 0.686998 0.430363 0.260218
Si Si4 0.334451 0.065808 0.297974
Si Si5 0.394241 0.565601 0.350685
O O1 0.269126 0.590683 0.101688
O O2 0.204730 0.890057 0.107575
O O3 0.250000 0.750000 0.000000
O O4 0.491500 0.734453 0.953222
O O5 0.797950 0.537135 0.169290
O O6 0.749679 0.694223 0.094925
O O7 0.000000 0.500000 0.000000
O O8 0.658200 0.245058 0.242608
O O9 0.774274 0.424538 0.280590
O O10 0.526367 0.537657 0.338254
O O11 0.500000 0.026592 0.250000
O O12 0.500000 0.584008 0.250000
#
# Coordination Sequence:
#
# PCOD9300658 Si02
#       5
#     8   8   8   8   8
#     4  11  19  33  62  89 121 165 205 253 311 369
#     4   9  16  31  59  85 113 157 201 242 307 365
#     4  11  21  38  67  88 122 164 208 253 311 375
#     4  12  22  42  64  93 124 167 210 254 313 373
#     4   9  16  35  56  83 116 158 202 244 303 367
#
# _framework density 24.841163000000002
#
# number of rings (size 3 to 8) (size 9 to 14) (size 15 to 20)
#    0.000    1.600    8.000    1.200    0.000    0.000 
#    0.000    6.000    0.000    0.000    0.000    0.000 
#    0.000    0.000    0.000    0.000    0.000    0.000 
#
# Total GULP energy -111416.895273 kJ/mol
# GULP energy per Si atom -5570.844764 kJ/mol
# Density = 2.478462 g / cm^3
# Si number density = 24.841163 Si / 1000 Ang^3
#
#
#
# Elastic Constant Matrix: (Units=GPa)
#
#
# Indices 1 2 3 4 5 6 
#
# 1 223.4677 40.3545 86.9148 0.0000 -12.9255 0.0001
# 2 40.3545 72.4256 25.8485 0.0000 -0.5935 0.0002
# 3 86.9148 25.8485 110.4194 0.0000 -24.8453 0.0000
# 4 0.0000 0.0000 0.0000 16.8424 0.0000 3.9636
# 5 -12.9255 -0.5935 -24.8453 0.0000 65.9107 0.0000
# 6 0.0001 0.0002 0.0000 3.9636 0.0000 35.4250
#
#
#
# Elastic Compliance Matrix: (Units=1/GPa)
#
#
# Indices 1 2 3 4 5 6 
#
# 1 0.006730 -0.001984 -0.004961 0.000000 -0.000568 0.000000
# 2 -0.001984 0.015754 -0.002384 0.000000 -0.001146 0.000000
# 3 -0.004961 -0.002384 0.014528 0.000000 0.004482 0.000000
# 4 0.000000 0.000000 0.000000 0.060980 0.000000 -0.006823
# 5 -0.000568 -0.001146 0.004482 0.000000 0.016740 0.000000
# 6 0.000000 0.000000 0.000000 -0.006823 0.000000 0.028992
#
#
# Mechanical properties :
#
#
# Convention : Reuss Voigt Hill
#
# Bulk Modulus (GPa) = 54.48353 79.17201 66.82777
# Shear Modulus (GPa) = 29.67391 40.51528 35.09459
#
# Velocity S-wave (km/s) = 3.45997 4.04291 3.76275
# Velocity P-wave (km/s) = 6.15973 7.33035 6.77039
#
# Compressibility (1/GPa) = 0.01835417
#
# Stress axis : x y z
#
# Youngs Moduli (GPa) = 148.59595 63.47508 68.83460
#
# Poissons Ratio (x) = 0.12593 0.34146
# Poissons Ratio (y) = 0.29480 0.16411
# Poissons Ratio (z) = 0.73711 0.15134
#
# Static dielectric constant tensor:
#      x y z
#    x 2.167850 0.000000 0.053020 
#    y 0.000000 2.469900 0.000000 
#    z 0.053020 0.000000 1.998340 
# 
# From -- ./inp_files/236444.got.cif
#   From: 2010.05.17/outbox.cif.g08.bks.cpg/sg15_119_cif.got.tgz:236444.got - 2010.06.03 18:47:42.
