data_PCOD9300430
_publ_section_title
;
Structure prediction by ZEFSAII (Michael W. Deem and Ramdas Pophale) SiO2 
 PCOD9300430
Probable space group: C 2/C
;
_chemical_formula_sum "Si O2"
_cell_formula_units_Z 40
_cell_length_a 7.443539
_cell_length_b 21.844630
_cell_length_c 10.034112
_cell_angle_alpha 90.000000
_cell_angle_beta 116.284410
_cell_angle_gamma 90.000000
_cell_volume 1462.868233
_symmetry_space_group_name_H-M "C 2/C"
_symmetry_group_IT_number 15
_symmetry_cell_setting 'monoclinic'
loop_
_space_group_symop_operation_xyz
x,y,z
-x,y,1/2-z
-x,-y,-z
x,-y,1/2+z
1/2+x,1/2+y,z
1/2-x,1/2+y,1/2-z
1/2-x,1/2-y,-z
1/2+x,1/2-y,1/2+z
loop_
_atom_site_type_symbol
_atom_site_label
_atom_site_fract_x
_atom_site_fract_y
_atom_site_fract_z
Si Si1 0.000000 0.155117 0.250000
Si Si2 0.636231 0.754816 0.663634
Si Si3 0.500000 0.399829 0.250000
Si Si4 0.372933 0.167418 0.889987
Si Si5 0.219418 0.570004 0.060618
Si Si6 0.273846 0.006601 0.681186
O O1 0.807628 0.194034 0.223546
O O2 0.914320 0.111615 0.106922
O O3 0.500000 0.758502 0.750000
O O4 0.487424 0.774776 0.495432
O O5 0.773269 0.693016 0.718638
O O6 0.335715 0.358464 0.117071
O O7 0.367660 0.442900 0.300543
O O8 0.530740 0.112331 0.960702
O O9 0.212831 0.549888 0.213179
O O10 0.260311 0.508379 0.988829
O O11 0.500000 0.029971 0.750000
#
# Coordination Sequence:
#
# PCOD9300430 Si02
#       6
#     4   8   4   8   8   8
#     4  10  27  46  76 122 150 208 261 324 404 470
#     4  11  25  47  76 112 159 200 265 324 393 480
#     4  12  27  44  80 118 154 216 259 320 406 474
#     4  11  26  49  77 119 152 211 261 326 400 472
#     4  11  27  53  79 118 161 214 262 335 393 477
#     4  12  27  51  78 111 165 207 270 324 393 472
#
# _framework density 27.343543
#
# number of rings (size 3 to 8) (size 9 to 14) (size 15 to 20)
#    0.000    0.800    3.000    1.800    2.800   11.200 
#    0.000    0.000    0.000    0.000    0.000    0.000 
#    0.000    0.000    0.000    0.000    0.000    0.000 
#
# Total GULP energy -111627.943048 kJ/mol
# GULP energy per Si atom -5581.397152 kJ/mol
# Density = 2.728131 g / cm^3
# Si number density = 27.343543 Si / 1000 Ang^3
#
#
#
# Elastic Constant Matrix: (Units=GPa)
#
#
# Indices 1 2 3 4 5 6 
#
# 1 143.8286 38.0947 74.5193 0.0000 43.7254 0.0000
# 2 38.0947 117.9926 80.8930 0.0000 24.0220 0.0000
# 3 74.5193 80.8930 152.1236 0.0000 33.0116 0.0000
# 4 0.0000 0.0000 0.0000 58.2111 0.0000 8.4695
# 5 43.7254 24.0220 33.0116 0.0000 55.7876 0.0000
# 6 0.0000 0.0000 0.0000 8.4695 0.0000 34.6547
#
#
#
# Elastic Compliance Matrix: (Units=1/GPa)
#
#
# Indices 1 2 3 4 5 6 
#
# 1 0.010947 0.000768 -0.004402 0.000000 -0.006306 0.000000
# 2 0.000768 0.013546 -0.007094 0.000000 -0.002237 0.000000
# 3 -0.004402 -0.007094 0.012725 0.000000 -0.001025 0.000000
# 4 0.000000 0.000000 0.000000 0.017812 0.000000 -0.004353
# 5 -0.006306 -0.002237 -0.001025 0.000000 0.024437 0.000000
# 6 0.000000 0.000000 0.000000 -0.004353 0.000000 0.029920
#
#
# Mechanical properties :
#
#
# Convention : Reuss Voigt Hill
#
# Bulk Modulus (GPa) = 63.44876 88.99544 76.22210
# Shear Modulus (GPa) = 36.73813 44.42654 40.58234
#
# Velocity S-wave (km/s) = 3.66946 4.03520 3.85667
# Velocity P-wave (km/s) = 6.41934 7.37077 6.91144
#
# Compressibility (1/GPa) = 0.01576075
#
# Stress axis : x y z
#
# Youngs Moduli (GPa) = 91.34564 73.82236 78.58717
#
# Poissons Ratio (x) = -0.05666 0.34598
# Poissons Ratio (y) = -0.07012 0.55748
# Poissons Ratio (z) = 0.40215 0.52368
#
# Static dielectric constant tensor:
#      x y z
#    x 2.099700 0.000000 -0.048830 
#    y 0.000000 2.273080 0.000000 
#    z -0.048830 0.000000 2.322780 
# 
# From -- ./inp_files/81018.got.cif
#   From: 2010.05.17/outbox.cif.g08.bks.cpg/sg15_41_cif.got.tgz:81018.got - 2010.06.03 18:47:42.
