data_PCOD9300313
_publ_section_title
;
Structure prediction by ZEFSAII (Michael W. Deem and Ramdas Pophale) SiO2 
 PCOD9300313
Probable space group: C 2/C
;
_chemical_formula_sum "Si O2"
_cell_formula_units_Z 44
_cell_length_a 28.436632
_cell_length_b 5.085192
_cell_length_c 15.174460
_cell_angle_alpha 90.000000
_cell_angle_beta 66.035924
_cell_angle_gamma 90.000000
_cell_volume 2005.164715
_symmetry_space_group_name_H-M "C 2/C"
_symmetry_group_IT_number 15
_symmetry_cell_setting 'monoclinic'
loop_
_space_group_symop_operation_xyz
x,y,z
-x,y,1/2-z
-x,-y,-z
x,-y,1/2+z
1/2+x,1/2+y,z
1/2-x,1/2+y,1/2-z
1/2-x,1/2-y,-z
1/2+x,1/2-y,1/2+z
loop_
_atom_site_type_symbol
_atom_site_label
_atom_site_fract_x
_atom_site_fract_y
_atom_site_fract_z
Si Si1 0.627256 0.366790 0.283275
Si Si2 0.272309 0.177586 0.209708
Si Si3 0.113661 0.372527 0.169976
Si Si4 0.500000 0.940183 0.750000
Si Si5 0.020926 0.246618 0.931421
Si Si6 0.717334 0.994801 0.992006
O O1 0.680801 0.354786 0.291781
O O2 0.621312 0.613778 0.223243
O O3 0.581598 0.314129 0.386277
O O4 0.623646 0.116148 0.224975
O O5 0.234143 0.425248 0.220323
O O6 0.281219 0.016395 0.114132
O O7 0.052674 0.394253 0.193274
O O8 0.158054 0.427926 0.064097
O O9 0.507488 0.779305 0.836652
O O10 0.000000 0.500000 0.000000
O O11 0.000000 0.000000 0.000000
O O12 0.750000 0.250000 0.000000
O O13 0.750000 0.750000 0.000000
#
# Coordination Sequence:
#
# PCOD9300313 Si02
#       6
#     8   8   8   4   8   8
#     4  11  24  45  67 103 138 189 234 302 364 421
#     4  12  25  43  69 100 141 186 235 295 363 435
#     4  11  24  45  73  99 145 186 243 300 363 445
#     4  10  26  48  76 108 148 202 244 304 384 432
#     4  11  25  45  72 105 148 189 249 307 360 452
#     4  12  25  44  69 104 138 186 241 295 363 444
#
# _framework density 21.943337
#
# number of rings (size 3 to 8) (size 9 to 14) (size 15 to 20)
#    0.000    0.727    0.000    8.727    2.545    6.545 
#    3.273    0.000    0.000    0.000    0.000    0.000 
#    0.000    0.000    0.000    0.000    0.000    0.000 
#
# Total GULP energy -122631.508729 kJ/mol
# GULP energy per Si atom -5574.159488 kJ/mol
# Density = 2.189339 g / cm^3
# Si number density = 21.943337 Si / 1000 Ang^3
#
#
#
# Elastic Constant Matrix: (Units=GPa)
#
#
# Indices 1 2 3 4 5 6 
#
# 1 103.3531 35.4661 26.4883 0.0000 -15.1810 0.0000
# 2 35.4661 193.1222 45.6491 0.0000 -0.6113 0.0000
# 3 26.4883 45.6491 116.3395 0.0000 -15.9138 0.0000
# 4 0.0000 0.0000 0.0000 42.1665 0.0000 3.8107
# 5 -15.1810 -0.6113 -15.9138 0.0000 37.8817 0.0000
# 6 0.0000 0.0000 0.0000 3.8107 0.0000 31.6270
#
#
#
# Elastic Compliance Matrix: (Units=1/GPa)
#
#
# Indices 1 2 3 4 5 6 
#
# 1 0.011182 -0.001725 -0.001337 0.000000 0.003892 0.000000
# 2 -0.001725 0.006003 -0.002168 0.000000 -0.001505 0.000000
# 3 -0.001337 -0.002168 0.010262 0.000000 0.003741 0.000000
# 4 0.000000 0.000000 0.000000 0.023977 0.000000 -0.002889
# 5 0.003892 -0.001505 0.003741 0.000000 0.029505 0.000000
# 6 0.000000 0.000000 0.000000 -0.002889 0.000000 0.031967
#
#
# Mechanical properties :
#
#
# Convention : Reuss Voigt Hill
#
# Bulk Modulus (GPa) = 58.87105 69.78019 64.32562
# Shear Modulus (GPa) = 38.75448 42.68246 40.71847
#
# Velocity S-wave (km/s) = 4.20708 4.41514 4.31236
# Velocity P-wave (km/s) = 7.10537 7.60661 7.36026
#
# Compressibility (1/GPa) = 0.01698628
#
# Stress axis : x y z
#
# Youngs Moduli (GPa) = 89.43123 166.59161 97.44347
#
# Poissons Ratio (x) = 0.28741 0.13024
# Poissons Ratio (y) = 0.15429 0.21130
# Poissons Ratio (z) = 0.11953 0.36125
#
# Static dielectric constant tensor:
#      x y z
#    x 1.564780 0.000000 0.105020 
#    y 0.000000 1.751470 0.000000 
#    z 0.105020 0.000000 1.754930 
# 
# From -- ./inp_files/175655.got.cif
#   From: 2010.05.17/outbox.cif.g08.bks.cpg/sg15_88_cif.got.tgz:175655.got - 2010.06.03 18:47:42.
