data_PCOD9300522
_publ_section_title
;
Structure prediction by ZEFSAII (Michael W. Deem and Ramdas Pophale) SiO2 
 PCOD9300522
Probable space group: C 2/C
;
_chemical_formula_sum "Si O2"
_cell_formula_units_Z 48
_cell_length_a 10.067392
_cell_length_b 14.799037
_cell_length_c 14.241808
_cell_angle_alpha 90.000000
_cell_angle_beta 114.066393
_cell_angle_gamma 90.000000
_cell_volume 1937.409003
_symmetry_space_group_name_H-M "C 2/C"
_symmetry_group_IT_number 15
_symmetry_cell_setting 'monoclinic'
loop_
_space_group_symop_operation_xyz
x,y,z
-x,y,1/2-z
-x,-y,-z
x,-y,1/2+z
1/2+x,1/2+y,z
1/2-x,1/2+y,1/2-z
1/2-x,1/2-y,-z
1/2+x,1/2-y,1/2+z
loop_
_atom_site_type_symbol
_atom_site_label
_atom_site_fract_x
_atom_site_fract_y
_atom_site_fract_z
Si Si1 0.145391 0.790035 0.162423
Si Si2 0.305487 0.950513 0.282640
Si Si3 0.615897 0.019673 0.915447
Si Si4 0.419072 0.415028 0.530419
Si Si5 0.330326 0.359534 0.767408
Si Si6 0.348779 0.811942 0.595122
O O1 0.097670 0.838138 0.052642
O O2 0.284683 0.724381 0.189395
O O3 0.003885 0.735016 0.151034
O O4 0.195651 0.866821 0.251121
O O5 0.231941 0.045207 0.284292
O O6 0.346954 0.961227 0.183920
O O7 0.455700 0.939776 0.382080
O O8 0.755172 0.057813 0.008169
O O9 0.616306 0.912636 0.930705
O O10 0.500000 0.500000 0.500000
O O11 0.510878 0.381006 0.645610
O O12 0.241079 0.330522 0.836058
O O13 0.250000 0.750000 0.500000
#
# Coordination Sequence:
#
# PCOD9300522 Si02
#       6
#     8   8   8   8   8   8
#     4  11  20  31  53  83 114 146 183 236 283 323
#     4   9  18  32  50  78 110 145 180 227 279 328
#     4   9  17  31  52  75 109 141 184 231 266 326
#     4  11  18  34  55  84 113 147 191 233 277 340
#     4  11  20  32  53  85 115 143 190 235 280 336
#     4  11  18  29  52  84 112 136 184 236 280 322
#
# _framework density 24.775359000000002
#
# number of rings (size 3 to 8) (size 9 to 14) (size 15 to 20)
#    0.000    1.667    8.333    0.500    0.000    0.000 
#    0.000    0.833    0.000    4.000   17.333    0.000 
#    0.000    0.000    0.000    0.000    0.000    0.000 
#
# Total GULP energy -134333.385368 kJ/mol
# GULP energy per Si atom -5597.224390 kJ/mol
# Density = 2.471897 g / cm^3
# Si number density = 24.775359 Si / 1000 Ang^3
#
#
#
# Elastic Constant Matrix: (Units=GPa)
#
#
# Indices 1 2 3 4 5 6 
#
# 1 81.3820 35.1296 63.7564 0.0000 26.5060 0.0000
# 2 35.1296 111.5424 45.3014 0.0000 25.9265 0.0000
# 3 63.7564 45.3014 160.4092 0.0000 51.1252 0.0000
# 4 0.0000 0.0000 0.0000 52.7577 0.0000 20.0934
# 5 26.5060 25.9265 51.1252 0.0000 57.3693 0.0000
# 6 0.0000 0.0000 0.0000 20.0934 0.0000 37.7560
#
#
#
# Elastic Compliance Matrix: (Units=1/GPa)
#
#
# Indices 1 2 3 4 5 6 
#
# 1 0.019001 -0.003062 -0.006048 0.000000 -0.002005 0.000000
# 2 -0.003062 0.010961 -0.001048 0.000000 -0.002604 0.000000
# 3 -0.006048 -0.001048 0.011023 0.000000 -0.006555 0.000000
# 4 0.000000 0.000000 0.000000 0.023773 0.000000 -0.012652
# 5 -0.002005 -0.002604 -0.006555 0.000000 0.025376 0.000000
# 6 0.000000 0.000000 0.000000 -0.012652 0.000000 0.033219
#
#
# Mechanical properties :
#
#
# Convention : Reuss Voigt Hill
#
# Bulk Modulus (GPa) = 48.38396 71.30092 59.84244
# Shear Modulus (GPa) = 33.20942 43.51968 38.36455
#
# Velocity S-wave (km/s) = 3.66515 4.19569 3.93936
# Velocity P-wave (km/s) = 6.12230 7.23279 6.70059
#
# Compressibility (1/GPa) = 0.02066801
#
# Stress axis : x y z
#
# Youngs Moduli (GPa) = 52.62931 91.23561 90.71582
#
# Poissons Ratio (x) = 0.27933 0.54868
# Poissons Ratio (y) = 0.16113 0.09511
# Poissons Ratio (z) = 0.31832 0.09565
#
# Static dielectric constant tensor:
#      x y z
#    x 2.048640 0.000000 -0.040430 
#    y 0.000000 1.940130 0.000000 
#    z -0.040430 0.000000 2.010790 
# 
# From -- ./inp_files/237733.got.cif
#   From: 2010.05.17/outbox.cif.g08.bks.cpg/sg15_119_cif.got.tgz:237733.got - 2010.06.03 18:47:42.
