data_PCOD9300003
_publ_section_title
;
Structure prediction by ZEFSAII (Michael W. Deem and Ramdas Pophale) SiO2 
 PCOD9300003
Probable space group: C 2/C
;
_chemical_formula_sum "Si O2"
_cell_formula_units_Z 44
_cell_length_a 14.715942
_cell_length_b 19.358667
_cell_length_c 12.187413
_cell_angle_alpha 90.000000
_cell_angle_beta 141.587918
_cell_angle_gamma 90.000000
_cell_volume 2157.175619
_symmetry_space_group_name_H-M "C 2/C"
_symmetry_group_IT_number 15
_symmetry_cell_setting 'monoclinic'
loop_
_space_group_symop_operation_xyz
x,y,z
-x,y,1/2-z
-x,-y,-z
x,-y,1/2+z
1/2+x,1/2+y,z
1/2-x,1/2+y,1/2-z
1/2-x,1/2-y,-z
1/2+x,1/2-y,1/2+z
loop_
_atom_site_type_symbol
_atom_site_label
_atom_site_fract_x
_atom_site_fract_y
_atom_site_fract_z
Si Si1 0.500000 0.274764 0.250000
Si Si2 0.885289 0.692020 0.347603
Si Si3 0.176981 0.309462 0.259796
Si Si4 0.541699 0.618368 0.465487
Si Si5 0.840198 0.889059 0.984454
Si Si6 0.000000 0.238871 0.250000
Si Si7 0.000000 0.005593 0.250000
O O1 0.455661 0.230175 0.311009
O O2 0.633821 0.324143 0.411297
O O3 0.765716 0.745421 0.286688
O O4 0.803244 0.624772 0.222752
O O5 0.020802 0.677611 0.555439
O O6 0.283743 0.375229 0.356805
O O7 0.133499 0.288127 0.342348
O O8 0.469388 0.615482 0.515894
O O9 0.511546 0.687498 0.364959
O O10 0.479490 0.555900 0.334239
O O11 0.868424 0.955814 0.085885
#
# Coordination Sequence:
#
# PCOD9300003 Si02
#       7
#     4   8   8   8   8   4   4
#     4  11  20  35  64  93 130 155 192 248 322 359
#     4  12  22  36  60  98 129 152 193 253 317 366
#     4  12  22  36  60  98 129 152 193 253 317 366
#     4  11  22  41  62  89 122 163 207 249 292 366
#     4  11  22  41  62  89 122 163 207 249 292 366
#     4  11  20  35  64  93 130 155 192 248 322 359
#     4  10  26  40  66  80 118 174 216 236 292 356
#
# _framework density 20.397041000000002
#
# number of rings (size 3 to 8) (size 9 to 14) (size 15 to 20)
#    0.000    0.727    7.273    1.636    0.000    0.000 
#    0.000    0.909    0.000    3.273    0.000    0.000 
#    0.000    0.000    0.000    0.000    0.000    0.000 
#
# Total GULP energy -122721.881540 kJ/mol
# GULP energy per Si atom -5578.267343 kJ/mol
# Density = 2.035062 g / cm^3
# Si number density = 20.397041 Si / 1000 Ang^3
#
#
#
# Elastic Constant Matrix: (Units=GPa)
#
#
# Indices 1 2 3 4 5 6 
#
# 1 70.9557 17.0581 17.2910 0.0000 -4.5473 0.0000
# 2 17.0581 71.9074 33.7577 0.0000 -0.7762 0.0000
# 3 17.2910 33.7577 143.9445 0.0000 11.3908 0.0000
# 4 0.0000 0.0000 0.0000 28.7070 0.0000 -6.2527
# 5 -4.5473 -0.7762 11.3908 0.0000 30.0798 0.0000
# 6 0.0000 0.0000 0.0000 -6.2527 0.0000 7.9847
#
#
#
# Elastic Compliance Matrix: (Units=1/GPa)
#
#
# Indices 1 2 3 4 5 6 
#
# 1 0.015314 -0.002964 -0.001363 0.000000 0.002755 0.000000
# 2 -0.002964 0.016301 -0.003572 0.000000 0.001325 0.000000
# 3 -0.001363 -0.003572 0.008218 0.000000 -0.003410 0.000000
# 4 0.000000 0.000000 0.000000 0.041998 0.000000 0.032888
# 5 0.002755 0.001325 -0.003410 0.000000 0.034987 0.000000
# 6 0.000000 0.000000 0.000000 0.032888 0.000000 0.150995
#
#
# Mechanical properties :
#
#
# Convention : Reuss Voigt Hill
#
# Bulk Modulus (GPa) = 41.60107 47.00237 44.30172
# Shear Modulus (GPa) = 17.14551 27.93435 22.53993
#
# Velocity S-wave (km/s) = 2.90243 3.70473 3.32785
# Velocity P-wave (km/s) = 5.62780 6.43380 6.04425
#
# Compressibility (1/GPa) = 0.02403784
#
# Stress axis : x y z
#
# Youngs Moduli (GPa) = 65.29833 61.34639 121.67954
#
# Poissons Ratio (x) = 0.18180 0.16580
# Poissons Ratio (y) = 0.19351 0.43461
# Poissons Ratio (z) = 0.08897 0.21911
#
# Static dielectric constant tensor:
#      x y z
#    x 1.705980 0.000000 0.018180 
#    y 0.000000 1.755040 0.000000 
#    z 0.018180 0.000000 1.816640 
# 
# From -- ./inp_files/39570.got.cif
#   From: 2010.05.17/outbox.cif.g08.bks.cpg/sg15_20_cif.got.tgz:39570.got - 2010.06.03 18:47:42.
