data_PCOD9300534
_publ_section_title
;
Structure prediction by ZEFSAII (Michael W. Deem and Ramdas Pophale) SiO2 
 PCOD9300534
Probable space group: C 2/C
;
_chemical_formula_sum "Si O2"
_cell_formula_units_Z 56
_cell_length_a 19.429930
_cell_length_b 11.244357
_cell_length_c 14.462181
_cell_angle_alpha 90.000000
_cell_angle_beta 124.807230
_cell_angle_gamma 90.000000
_cell_volume 2594.320571
_symmetry_space_group_name_H-M "C 2/C"
_symmetry_group_IT_number 15
_symmetry_cell_setting 'monoclinic'
loop_
_space_group_symop_operation_xyz
x,y,z
-x,y,1/2-z
-x,-y,-z
x,-y,1/2+z
1/2+x,1/2+y,z
1/2-x,1/2+y,1/2-z
1/2-x,1/2-y,-z
1/2+x,1/2-y,1/2+z
loop_
_atom_site_type_symbol
_atom_site_label
_atom_site_fract_x
_atom_site_fract_y
_atom_site_fract_z
Si Si1 0.966688 0.318278 0.085547
Si Si2 0.359981 0.972146 0.536429
Si Si3 0.811303 0.924530 0.584333
Si Si4 0.605826 0.232215 0.166518
Si Si5 0.500000 0.812073 0.750000
Si Si6 0.242401 0.203497 0.640446
Si Si7 0.500000 0.389179 0.750000
Si Si8 0.375739 0.036923 0.828520
O O1 0.998444 0.204577 0.164058
O O2 0.032093 0.425189 0.129890
O O3 0.888264 0.388732 0.069794
O O4 0.949807 0.280695 0.968074
O O5 0.425813 0.890206 0.643191
O O6 0.367474 0.946726 0.432299
O O7 0.259862 0.973111 0.479909
O O8 0.806836 0.851104 0.484641
O O9 0.777462 0.833286 0.637953
O O10 0.909263 0.953993 0.677877
O O11 0.548682 0.263185 0.209301
O O12 0.684639 0.302398 0.187774
O O13 0.639310 0.098844 0.208387
O O14 0.318296 0.120410 0.724477
#
# Coordination Sequence:
#
# PCOD9300534 Si02
#       8
#     8   8   8   8   4   8   4   8
#     4  11  18  32  53  86 121 146 182 244 306 345
#     4  11  21  34  56  91 121 150 194 241 299 351
#     4  11  21  35  55  88 122 151 194 242 296 353
#     4  11  21  36  54  89 121 152 196 239 296 352
#     4  12  21  34  62  89 122 156 186 247 302 351
#     4  11  21  35  56  86 121 155 191 243 298 351
#     4  12  21  32  60  87 122 152 194 245 300 349
#     4  11  20  34  56  84 125 153 184 247 298 346
#
# _framework density 21.585612000000001
#
# number of rings (size 3 to 8) (size 9 to 14) (size 15 to 20)
#    0.000    0.857    8.571    3.000    0.000    0.000 
#    0.000    0.714    0.000    1.714    0.000    0.000 
#    0.000    0.000    0.000    0.000    0.000    0.000 
#
# Total GULP energy -156228.535303 kJ/mol
# GULP energy per Si atom -5579.590547 kJ/mol
# Density = 2.153648 g / cm^3
# Si number density = 21.585612 Si / 1000 Ang^3
#
#
#
# Elastic Constant Matrix: (Units=GPa)
#
#
# Indices 1 2 3 4 5 6 
#
# 1 140.3368 3.8744 38.5061 0.0000 2.8904 0.0000
# 2 3.8744 13.5895 9.6545 0.0000 4.8575 0.0000
# 3 38.5061 9.6545 85.8416 0.0000 9.4980 0.0000
# 4 0.0000 0.0000 0.0000 7.7641 0.0000 -0.5784
# 5 2.8904 4.8575 9.4980 0.0000 51.2686 0.0000
# 6 0.0000 0.0000 0.0000 -0.5784 0.0000 12.8015
#
#
#
# Elastic Compliance Matrix: (Units=1/GPa)
#
#
# Indices 1 2 3 4 5 6 
#
# 1 0.008129 0.000235 -0.003695 0.000000 0.000204 0.000000
# 2 0.000235 0.081855 -0.008629 0.000000 -0.006170 0.000000
# 3 -0.003695 -0.008629 0.014460 0.000000 -0.001653 0.000000
# 4 0.000000 0.000000 0.000000 0.129233 0.000000 0.005839
# 5 0.000204 -0.006170 -0.001653 0.000000 0.020384 0.000000
# 6 0.000000 0.000000 0.000000 0.005839 0.000000 0.078379
#
#
# Mechanical properties :
#
#
# Convention : Reuss Voigt Hill
#
# Bulk Modulus (GPa) = 12.45860 38.20422 25.33141
# Shear Modulus (GPa) = 13.04205 26.88237 19.96221
#
# Velocity S-wave (km/s) = 2.46072 3.53283 3.04434
# Velocity P-wave (km/s) = 3.72260 5.86332 4.91102
#
# Compressibility (1/GPa) = 0.08026582
#
# Stress axis : x y z
#
# Youngs Moduli (GPa) = 123.01645 12.21670 69.15446
#
# Poissons Ratio (x) = -0.00287 0.25556
# Poissons Ratio (y) = -0.02889 0.59672
# Poissons Ratio (z) = 0.45460 0.10541
#
# Static dielectric constant tensor:
#      x y z
#    x 1.890340 0.000000 0.023270 
#    y 0.000000 1.784150 0.000000 
#    z 0.023270 0.000000 1.800740 
# 
# From -- ./inp_files/162033.got.cif
#   From: 2010.05.17/outbox.cif.g08.bks.cpg/sg15_82_cif.got.tgz:162033.got - 2010.06.03 18:47:42.
