data_PCOD9300132
_publ_section_title
;
Structure prediction by ZEFSAII (Michael W. Deem and Ramdas Pophale) SiO2 
 PCOD9300132
Probable space group: C 2/C
;
_chemical_formula_sum "Si O2"
_cell_formula_units_Z 44
_cell_length_a 14.274484
_cell_length_b 5.001437
_cell_length_c 25.998926
_cell_angle_alpha 90.000000
_cell_angle_beta 73.833021
_cell_angle_gamma 90.000000
_cell_volume 1782.737258
_symmetry_space_group_name_H-M "C 2/C"
_symmetry_group_IT_number 15
_symmetry_cell_setting 'monoclinic'
loop_
_space_group_symop_operation_xyz
x,y,z
-x,y,1/2-z
-x,-y,-z
x,-y,1/2+z
1/2+x,1/2+y,z
1/2-x,1/2+y,1/2-z
1/2-x,1/2-y,-z
1/2+x,1/2-y,1/2+z
loop_
_atom_site_type_symbol
_atom_site_label
_atom_site_fract_x
_atom_site_fract_y
_atom_site_fract_z
Si Si1 0.891947 0.196933 0.269744
Si Si2 0.187463 0.465309 0.312751
Si Si3 0.346230 0.203360 0.452930
Si Si4 0.898208 0.814699 0.884419
Si Si5 0.613102 0.489140 0.381851
Si Si6 0.500000 0.500000 0.000000
O O1 0.879946 0.413464 0.226802
O O2 0.882081 0.291069 0.329954
O O3 0.000000 0.072041 0.250000
O O4 0.797181 0.014022 0.276431
O O5 0.143386 0.710184 0.352029
O O6 0.187440 0.208327 0.349459
O O7 0.250000 0.250000 0.500000
O O8 0.344141 0.409772 0.405583
O O9 0.365042 0.904058 0.430873
O O10 0.439133 0.291118 0.472837
O O11 0.010932 0.890836 0.875771
O O12 0.594914 0.476491 0.445339
#
# Coordination Sequence:
#
# PCOD9300132 Si02
#       6
#     8   8   8   8   8   4
#     4  12  29  53  80 112 159 205 261 338 384 464
#     4  12  28  51  77 113 150 205 263 307 402 463
#     4  11  26  47  75 114 149 200 259 309 391 466
#     4  11  26  49  76 114 151 201 256 321 389 457
#     4  11  25  51  76 113 153 200 255 314 388 465
#     4  10  26  44  78 104 158 190 244 316 372 454
#
# _framework density 24.681149000000001
#
# number of rings (size 3 to 8) (size 9 to 14) (size 15 to 20)
#    0.000    0.727    1.818    3.818    5.091    9.455 
#    0.000    0.000    0.000    0.000    0.000    0.000 
#    0.000    0.000    0.000    0.000    0.000    0.000 
#
# Total GULP energy -122702.211710 kJ/mol
# GULP energy per Si atom -5577.373260 kJ/mol
# Density = 2.462497 g / cm^3
# Si number density = 24.681149 Si / 1000 Ang^3
#
#
#
# Elastic Constant Matrix: (Units=GPa)
#
#
# Indices 1 2 3 4 5 6 
#
# 1 107.6428 4.5160 12.4146 0.0005 -15.1976 0.0004
# 2 4.5160 93.6592 22.6579 0.0011 -19.5276 0.0008
# 3 12.4146 22.6579 95.9398 -0.0004 -21.0907 0.0000
# 4 0.0005 0.0011 -0.0004 16.0753 -0.0003 -12.5758
# 5 -15.1976 -19.5276 -21.0907 -0.0003 29.9392 0.0000
# 6 0.0004 0.0008 0.0000 -12.5758 0.0000 31.4851
#
#
#
# Elastic Compliance Matrix: (Units=1/GPa)
#
#
# Indices 1 2 3 4 5 6 
#
# 1 0.010050 0.000702 -0.000289 -0.000001 0.005356 0.000000
# 2 0.000702 0.012558 -0.001393 -0.000002 0.007565 -0.000001
# 3 -0.000289 -0.001393 0.012492 0.000001 0.007745 0.000000
# 4 -0.000001 -0.000002 0.000001 0.090480 0.000000 0.036140
# 5 0.005356 0.007565 0.007745 0.000000 0.046510 0.000000
# 6 0.000000 -0.000001 0.000000 0.036140 0.000000 0.046196
#
#
# Mechanical properties :
#
#
# Convention : Reuss Voigt Hill
#
# Bulk Modulus (GPa) = 30.17567 41.82428 35.99998
# Shear Modulus (GPa) = 21.61766 32.67681 27.14723
#
# Velocity S-wave (km/s) = 2.96273 3.64257 3.32010
# Velocity P-wave (km/s) = 4.89453 5.88844 5.41434
#
# Compressibility (1/GPa) = 0.03313928
#
# Stress axis : x y z
#
# Youngs Moduli (GPa) = 99.50213 79.63301 80.05003
#
# Poissons Ratio (x) = -0.05590 0.02312
# Poissons Ratio (y) = -0.06985 0.11154
# Poissons Ratio (z) = 0.02874 0.11096
#
# Static dielectric constant tensor:
#      x y z
#    x 2.000150 0.000000 0.015480 
#    y 0.000000 1.915250 0.000000 
#    z 0.015480 0.000000 1.974800 
# 
# From -- ./inp_files/306817.got.cif
#   From: 2010.05.17/outbox.cif.g08.bks.cpg/sg15_154_cif.got.tgz:306817.got - 2010.06.03 18:47:42.
