data_PCOD9300850
_publ_section_title
;
Structure prediction by ZEFSAII (Michael W. Deem and Ramdas Pophale) SiO2 
 PCOD9300850
Probable space group: C 2/C
;
_chemical_formula_sum "Si O2"
_cell_formula_units_Z 64
_cell_length_a 16.754493
_cell_length_b 18.248153
_cell_length_c 14.863816
_cell_angle_alpha 90.000000
_cell_angle_beta 42.557956
_cell_angle_gamma 90.000000
_cell_volume 3073.567779
_symmetry_space_group_name_H-M "C 2/C"
_symmetry_group_IT_number 15
_symmetry_cell_setting 'monoclinic'
loop_
_space_group_symop_operation_xyz
x,y,z
-x,y,1/2-z
-x,-y,-z
x,-y,1/2+z
1/2+x,1/2+y,z
1/2-x,1/2+y,1/2-z
1/2-x,1/2-y,-z
1/2+x,1/2-y,1/2+z
loop_
_atom_site_type_symbol
_atom_site_label
_atom_site_fract_x
_atom_site_fract_y
_atom_site_fract_z
Si Si1 0.488057 0.940174 0.857340
Si Si2 0.031266 0.655379 0.956106
Si Si3 0.528820 0.411063 0.127312
Si Si4 0.238077 0.972705 0.861163
Si Si5 0.660432 0.090054 0.510334
Si Si6 0.276531 0.861736 0.357940
Si Si7 0.463507 0.319600 0.006626
Si Si8 0.106207 0.062048 0.285606
O O1 0.500000 0.903018 0.750000
O O2 0.623124 0.961126 0.766275
O O3 0.407732 0.013167 0.913949
O O4 0.442270 0.889717 0.975563
O O5 0.128796 0.641565 0.799572
O O6 0.909622 0.625928 0.013946
O O7 0.020312 0.741575 0.979989
O O8 0.500000 0.380412 0.250000
O O9 0.469852 0.366550 0.093808
O O10 0.475477 0.493117 0.168973
O O11 0.668061 0.420611 0.989052
O O12 0.175084 0.960108 0.819015
O O13 0.222549 0.056480 0.902532
O O14 0.661321 0.142345 0.596871
O O15 0.795081 0.075558 0.371072
O O16 0.168510 0.809751 0.421877
O O17 0.534491 0.365423 0.872197
#
# Coordination Sequence:
#
# PCOD9300850 Si02
#       8
#     8   8   8   8   8   8   8   8
#     4  12  24  41  70 100 128 166 222 276 328 385
#     4  12  27  43  63  94 136 180 208 261 333 398
#     4  11  23  40  69  99 123 165 221 276 324 379
#     4  11  19  41  67  94 130 159 213 280 322 370
#     4  12  24  41  68 100 127 165 223 279 327 381
#     4  12  23  44  67  94 130 169 222 275 322 382
#     4  11  27  44  63  93 137 177 216 260 328 404
#     4  11  22  41  67  96 125 169 214 273 325 377
#
# _framework density 20.822707000000001
#
# number of rings (size 3 to 8) (size 9 to 14) (size 15 to 20)
#    0.000    0.500    6.250    3.000    1.750    1.000 
#    2.250    0.000    0.000    3.750    0.000    0.000 
#    0.000    0.000    0.000    0.000    0.000    0.000 
#
# Total GULP energy -178918.332582 kJ/mol
# GULP energy per Si atom -5591.197893 kJ/mol
# Density = 2.077531 g / cm^3
# Si number density = 20.822707 Si / 1000 Ang^3
#
#
#
# Elastic Constant Matrix: (Units=GPa)
#
#
# Indices 1 2 3 4 5 6 
#
# 1 60.3106 19.8509 38.4410 0.0000 8.8894 0.0000
# 2 19.8509 65.4336 26.1634 0.0000 7.8557 0.0000
# 3 38.4410 26.1634 130.2512 0.0000 10.8022 0.0000
# 4 0.0000 0.0000 0.0000 8.0542 0.0000 -3.8918
# 5 8.8894 7.8557 10.8022 0.0000 40.4084 0.0000
# 6 0.0000 0.0000 0.0000 -3.8918 0.0000 6.1342
#
#
#
# Elastic Compliance Matrix: (Units=1/GPa)
#
#
# Indices 1 2 3 4 5 6 
#
# 1 0.021745 -0.004143 -0.005375 0.000000 -0.002541 0.000000
# 2 -0.004143 0.017636 -0.002159 0.000000 -0.001940 0.000000
# 3 -0.005375 -0.002159 0.009781 0.000000 -0.001013 0.000000
# 4 0.000000 0.000000 0.000000 0.179047 0.000000 0.113595
# 5 -0.002541 -0.001940 -0.001013 0.000000 0.025954 0.000000
# 6 0.000000 0.000000 0.000000 0.113595 0.000000 0.235091
#
#
# Mechanical properties :
#
#
# Convention : Reuss Voigt Hill
#
# Bulk Modulus (GPa) = 38.74587 47.21180 42.97884
# Shear Modulus (GPa) = 9.59307 22.35537 15.97422
#
# Velocity S-wave (km/s) = 2.14873 3.28015 2.77276
# Velocity P-wave (km/s) = 4.98036 6.08837 5.56202
#
# Compressibility (1/GPa) = 0.02580921
#
# Stress axis : x y z
#
# Youngs Moduli (GPa) = 45.98833 56.70355 102.23565
#
# Poissons Ratio (x) = 0.23490 0.54947
# Poissons Ratio (y) = 0.19051 0.22072
# Poissons Ratio (z) = 0.24717 0.12242
#
# Static dielectric constant tensor:
#      x y z
#    x 1.785100 0.000000 -0.000270 
#    y 0.000000 1.717980 0.000000 
#    z -0.000270 0.000000 1.765760 
# 
# From -- ./inp_files/163260.got.cif
#   From: 2010.05.17/outbox.cif.g08.bks.cpg/sg15_82_cif.got.tgz:163260.got - 2010.06.03 18:47:42.
