data_PCOD9300359
_publ_section_title
;
Structure prediction by ZEFSAII (Michael W. Deem and Ramdas Pophale) SiO2 
 PCOD9300359
Probable space group: C 2/C
;
_chemical_formula_sum "Si O2"
_cell_formula_units_Z 44
_cell_length_a 32.632515
_cell_length_b 7.727632
_cell_length_c 26.558467
_cell_angle_alpha 90.000000
_cell_angle_beta 164.254248
_cell_angle_gamma 90.000000
_cell_volume 1817.441170
_symmetry_space_group_name_H-M "C 2/C"
_symmetry_group_IT_number 15
_symmetry_cell_setting 'monoclinic'
loop_
_space_group_symop_operation_xyz
x,y,z
-x,y,1/2-z
-x,-y,-z
x,-y,1/2+z
1/2+x,1/2+y,z
1/2-x,1/2+y,1/2-z
1/2-x,1/2-y,-z
1/2+x,1/2-y,1/2+z
loop_
_atom_site_type_symbol
_atom_site_label
_atom_site_fract_x
_atom_site_fract_y
_atom_site_fract_z
Si Si1 0.500000 0.245174 0.250000
Si Si2 0.220537 0.571460 0.155554
Si Si3 0.101413 0.762426 0.100050
Si Si4 0.586956 0.119712 0.189584
Si Si5 0.677500 0.761438 0.308925
Si Si6 0.168236 0.073166 0.856542
O O1 0.651778 0.123350 0.430015
O O2 0.441203 0.367037 0.226917
O O3 0.229201 0.705659 0.211611
O O4 0.356948 0.441977 0.325415
O O5 0.193485 0.674860 0.072262
O O6 0.078324 0.445501 0.992520
O O7 0.101593 0.631967 0.147004
O O8 0.957150 0.755189 0.892484
O O9 0.615467 0.303513 0.248281
O O10 0.692239 0.964940 0.336101
O O11 0.650743 0.628839 0.322444
#
# Coordination Sequence:
#
# PCOD9300359 Si02
#       6
#     4   8   8   8   8   8
#     4  10  26  50  72 100 128 174 240 322 356 400
#     4  11  21  35  56  89 139 180 220 269 313 400
#     4  11  22  36  59  97 145 181 222 263 327 412
#     4  11  24  40  63 100 135 180 226 270 337 422
#     4  11  23  40  63  99 135 183 223 270 340 417
#     4  11  24  47  73  95 133 174 234 296 367 401
#
# _framework density 24.209862000000001
#
# number of rings (size 3 to 8) (size 9 to 14) (size 15 to 20)
#    0.000    1.091    1.818    6.000    2.545    2.909 
#    0.000    5.455    0.000    0.000    0.000    0.000 
#    0.000    0.000    0.000    0.000    0.000    0.000 
#
# Total GULP energy -122706.200882 kJ/mol
# GULP energy per Si atom -5577.554586 kJ/mol
# Density = 2.415476 g / cm^3
# Si number density = 24.209862 Si / 1000 Ang^3
#
#
#
# Elastic Constant Matrix: (Units=GPa)
#
#
# Indices 1 2 3 4 5 6 
#
# 1 120.4630 10.3544 17.7519 -0.0003 7.3354 0.0007
# 2 10.3544 25.3678 6.8021 0.0005 9.6795 0.0000
# 3 17.7519 6.8021 60.4987 -0.0026 15.9516 -0.0004
# 4 -0.0003 0.0005 -0.0026 23.4183 -0.0013 -3.4380
# 5 7.3354 9.6795 15.9516 -0.0013 22.8095 0.0003
# 6 0.0007 0.0000 -0.0004 -3.4380 0.0003 38.9794
#
#
#
# Elastic Compliance Matrix: (Units=1/GPa)
#
#
# Indices 1 2 3 4 5 6 
#
# 1 0.008896 -0.003026 -0.002273 0.000000 0.000013 0.000000
# 2 -0.003026 0.048066 0.000742 -0.000002 -0.019943 0.000000
# 3 -0.002273 0.000742 0.020847 0.000002 -0.014163 0.000000
# 4 0.000000 -0.000002 0.000002 0.043262 0.000002 0.003816
# 5 0.000013 -0.019943 -0.014163 0.000002 0.062205 0.000000
# 6 0.000000 0.000000 0.000000 0.003816 0.000000 0.025991
#
#
# Mechanical properties :
#
#
# Convention : Reuss Voigt Hill
#
# Bulk Modulus (GPa) = 14.55747 30.68293 22.62020
# Shear Modulus (GPa) = 20.72278 28.46950 24.59614
#
# Velocity S-wave (km/s) = 2.92886 3.43293 3.19086
# Velocity P-wave (km/s) = 4.17896 5.33053 4.78948
#
# Compressibility (1/GPa) = 0.06869324
#
# Stress axis : x y z
#
# Youngs Moduli (GPa) = 112.41446 20.80474 47.96789
#
# Poissons Ratio (x) = 0.06297 0.10905
# Poissons Ratio (y) = 0.34022 -0.03560
# Poissons Ratio (z) = 0.25557 -0.01544
#
# Static dielectric constant tensor:
#      x y z
#    x 2.156040 0.000000 0.158240 
#    y 0.000000 2.001150 0.000000 
#    z 0.158240 0.000000 2.104960 
# 
# From -- ./inp_files/284486.got.cif
#   From: 2010.05.17/outbox.cif.g08.bks.cpg/sg15_143_cif.got.tgz:284486.got - 2010.06.03 18:47:42.
