data_PCOD9300004
_publ_section_title
;
Structure prediction by ZEFSAII (Michael W. Deem and Ramdas Pophale) SiO2 
 PCOD9300004
Probable space group: C 2/C
;
_chemical_formula_sum "Si O2"
_cell_formula_units_Z 56
_cell_length_a 23.198341
_cell_length_b 6.183058
_cell_length_c 18.522187
_cell_angle_alpha 90.000000
_cell_angle_beta 64.243784
_cell_angle_gamma 90.000000
_cell_volume 2392.814861
_symmetry_space_group_name_H-M "C 2/C"
_symmetry_group_IT_number 15
_symmetry_cell_setting 'monoclinic'
loop_
_space_group_symop_operation_xyz
x,y,z
-x,y,1/2-z
-x,-y,-z
x,-y,1/2+z
1/2+x,1/2+y,z
1/2-x,1/2+y,1/2-z
1/2-x,1/2-y,-z
1/2+x,1/2-y,1/2+z
loop_
_atom_site_type_symbol
_atom_site_label
_atom_site_fract_x
_atom_site_fract_y
_atom_site_fract_z
Si Si1 0.000000 0.500000 0.500000
Si Si2 0.709012 0.902375 0.854428
Si Si3 0.413319 0.379455 0.083667
Si Si4 0.500000 0.980442 0.250000
Si Si5 0.202162 0.544891 0.708353
Si Si6 0.082031 0.157400 0.280993
Si Si7 0.369685 0.776668 0.013121
Si Si8 0.377116 0.721512 0.842227
O O1 0.971736 0.254667 0.520693
O O2 0.933242 0.579497 0.493246
O O3 0.642447 0.790830 0.867286
O O4 0.754479 0.713820 0.859384
O O5 0.738376 0.983007 0.762489
O O6 0.689211 0.090933 0.919456
O O7 0.432643 0.496411 0.146792
O O8 0.382404 0.555039 0.048338
O O9 0.523031 0.817573 0.299724
O O10 0.559643 0.128789 0.198295
O O11 0.140502 0.683868 0.766899
O O12 0.176268 0.342270 0.677293
O O13 0.103363 0.010823 0.201359
O O14 0.358740 0.724272 0.935581
#
# Coordination Sequence:
#
# PCOD9300004 Si02
#       8
#     4   8   8   4   8   8   8   8
#     4  10  26  40  66  96 142 180 230 278 342 410
#     4  11  24  44  73 101 133 179 237 284 335 417
#     4  11  23  44  67 100 135 183 233 278 341 414
#     4  10  26  40  68  98 140 182 230 276 344 416
#     4  11  24  44  74 101 133 181 236 283 342 415
#     4  11  23  43  70  98 136 185 231 276 341 414
#     4  11  26  44  68 103 142 179 226 288 351 405
#     4  11  26  45  66 105 144 176 228 293 348 402
#
# _framework density 23.403400999999999
#
# number of rings (size 3 to 8) (size 9 to 14) (size 15 to 20)
#    0.000    1.143    2.857    1.714    6.000    5.143 
#    0.000    1.429    0.000    0.000    0.000    0.000 
#    0.000    0.000    0.000    0.000    0.000    0.000 
#
# Total GULP energy -156244.955886 kJ/mol
# GULP energy per Si atom -5580.176996 kJ/mol
# Density = 2.335013 g / cm^3
# Si number density = 23.403401 Si / 1000 Ang^3
#
#
#
# Elastic Constant Matrix: (Units=GPa)
#
#
# Indices 1 2 3 4 5 6 
#
# 1 57.9413 15.2368 11.7475 0.0002 -5.0091 -0.0026
# 2 15.2368 80.8608 20.7682 0.0036 -3.1039 -0.0011
# 3 11.7475 20.7682 87.7822 -0.0001 20.2986 -0.0014
# 4 0.0002 0.0036 -0.0001 34.3635 0.0002 -6.8387
# 5 -5.0091 -3.1039 20.2986 0.0002 24.3658 -0.0005
# 6 -0.0026 -0.0011 -0.0014 -6.8387 -0.0005 53.5266
#
#
#
# Elastic Compliance Matrix: (Units=1/GPa)
#
#
# Indices 1 2 3 4 5 6 
#
# 1 0.019182 -0.002465 -0.003497 0.000000 0.006542 0.000001
# 2 -0.002465 0.014059 -0.004079 -0.000002 0.004682 0.000000
# 3 -0.003497 -0.004079 0.016240 0.000001 -0.014767 0.000000
# 4 0.000000 -0.000002 0.000001 0.029860 -0.000001 0.003815
# 5 0.006542 0.004682 -0.014767 -0.000001 0.055285 0.000000
# 6 0.000001 0.000000 0.000000 0.003815 0.000000 0.019170
#
#
# Mechanical properties :
#
#
# Convention : Reuss Voigt Hill
#
# Bulk Modulus (GPa) = 34.01534 35.78771 34.90153
# Shear Modulus (GPa) = 27.22193 34.37329 30.79761
#
# Velocity S-wave (km/s) = 3.41422 3.83656 3.63153
# Velocity P-wave (km/s) = 5.48711 5.91189 5.70346
#
# Compressibility (1/GPa) = 0.02939850
#
# Stress axis : x y z
#
# Youngs Moduli (GPa) = 52.13314 71.12964 61.57810
#
# Poissons Ratio (x) = 0.17535 0.21531
# Poissons Ratio (y) = 0.12852 0.25117
# Poissons Ratio (z) = 0.18229 0.29013
#
# Static dielectric constant tensor:
#      x y z
#    x 1.884910 0.000000 -0.003490 
#    y 0.000000 1.821910 0.000000 
#    z -0.003490 0.000000 1.911040 
# 
# From -- ./inp_files/256518.got.cif
#   From: 2010.05.17/outbox.cif.g08.bks.cpg/sg15_129_cif.got.tgz:256518.got - 2010.06.03 18:47:42.
