data_PCOD9300642
_publ_section_title
;
Structure prediction by ZEFSAII (Michael W. Deem and Ramdas Pophale) SiO2 
 PCOD9300642
Probable space group: C 2/C
;
_chemical_formula_sum "Si O2"
_cell_formula_units_Z 48
_cell_length_a 19.105032
_cell_length_b 20.214167
_cell_length_c 21.492169
_cell_angle_alpha 90.000000
_cell_angle_beta 20.606353
_cell_angle_gamma 90.000000
_cell_volume 2921.185962
_symmetry_space_group_name_H-M "C 2/C"
_symmetry_group_IT_number 15
_symmetry_cell_setting 'monoclinic'
loop_
_space_group_symop_operation_xyz
x,y,z
-x,y,1/2-z
-x,-y,-z
x,-y,1/2+z
1/2+x,1/2+y,z
1/2-x,1/2+y,1/2-z
1/2-x,1/2-y,-z
1/2+x,1/2-y,1/2+z
loop_
_atom_site_type_symbol
_atom_site_label
_atom_site_fract_x
_atom_site_fract_y
_atom_site_fract_z
Si Si1 0.559077 0.178025 0.047393
Si Si2 0.357629 0.029180 0.565321
Si Si3 0.468151 0.539825 0.963395
Si Si4 0.009724 0.483857 0.806774
Si Si5 0.692616 0.366755 0.056274
Si Si6 0.632450 0.678992 0.465613
O O1 0.350132 0.172262 0.255668
O O2 0.602532 0.108456 0.977139
O O3 0.729140 0.185972 0.958633
O O4 0.559247 0.247426 0.011821
O O5 0.414558 0.995390 0.452073
O O6 0.131564 0.020313 0.776108
O O7 0.500000 0.000000 0.500000
O O8 0.500000 0.500000 0.000000
O O9 0.495097 0.618022 0.953929
O O10 0.241493 0.530308 0.128648
O O11 0.000000 0.524188 0.750000
O O12 0.868486 0.420481 0.908069
O O13 0.500000 0.397512 0.250000
O O14 0.643107 0.336348 0.030856
#
# Coordination Sequence:
#
# PCOD9300642 Si02
#       6
#     8   8   8   8   8   8
#     4  11  22  32  49  74 103 143 180 220 255 317
#     4  11  21  38  55  77 106 147 183 223 271 315
#     4  12  22  37  56  73 105 148 180 226 271 317
#     4  11  21  35  53  77 104 139 187 221 262 316
#     4  11  19  32  48  72 104 144 179 215 256 305
#     4  12  20  35  47  73 107 139 181 220 260 314
#
# _framework density 16.431681999999999
#
# number of rings (size 3 to 8) (size 9 to 14) (size 15 to 20)
#    0.000    0.667    6.667    5.000    0.000    0.000 
#    0.000    0.000    0.000    0.000    0.000    0.000 
#    0.000    1.333    0.667    0.000    0.000    0.000 
#
# Total GULP energy -133745.502476 kJ/mol
# GULP energy per Si atom -5572.729270 kJ/mol
# Density = 1.639428 g / cm^3
# Si number density = 16.431682 Si / 1000 Ang^3
#
#
#
# Elastic Constant Matrix: (Units=GPa)
#
#
# Indices 1 2 3 4 5 6 
#
# 1 92.0334 43.4610 34.2265 0.0033 16.9488 0.0011
# 2 43.4610 66.7049 8.7519 0.0096 1.4422 -0.0011
# 3 34.2265 8.7519 151.0319 0.0186 20.7339 -0.0037
# 4 0.0033 0.0096 0.0186 19.3820 -0.0043 0.6238
# 5 16.9488 1.4422 20.7339 -0.0043 27.8093 -0.0016
# 6 0.0011 -0.0011 -0.0037 0.6238 -0.0016 21.2644
#
#
#
# Elastic Compliance Matrix: (Units=1/GPa)
#
#
# Indices 1 2 3 4 5 6 
#
# 1 0.019075 -0.011918 -0.002363 0.000003 -0.009246 -0.000003
# 2 -0.011918 0.022554 0.000621 -0.000009 0.005631 0.000003
# 3 -0.002363 0.000621 0.007717 -0.000008 -0.004346 0.000001
# 4 0.000003 -0.000009 -0.000008 0.051643 0.000013 -0.001515
# 5 -0.009246 0.005631 -0.004346 0.000013 0.044542 0.000003
# 6 -0.000003 0.000003 0.000001 -0.001515 0.000003 0.047071
#
#
# Mechanical properties :
#
#
# Convention : Reuss Voigt Hill
#
# Bulk Modulus (GPa) = 45.40225 53.62768 49.51496
# Shear Modulus (GPa) = 22.00072 28.57985 25.29028
#
# Velocity S-wave (km/s) = 3.66310 4.17503 3.92741
# Velocity P-wave (km/s) = 6.75144 7.47989 7.12498
#
# Compressibility (1/GPa) = 0.02202534
#
# Stress axis : x y z
#
# Youngs Moduli (GPa) = 52.42377 44.33900 129.58039
#
# Poissons Ratio (x) = 0.52845 0.30618
# Poissons Ratio (y) = 0.62481 -0.08046
# Poissons Ratio (z) = 0.12387 -0.02753
#
# Static dielectric constant tensor:
#      x y z
#    x 1.591050 -0.000010 0.027180 
#    y -0.000010 1.585780 0.000010 
#    z 0.027180 0.000010 1.615320 
# 
# From -- ./inp_files/216572.got.cif
#   From: 2010.05.17/outbox.cif.g08.bks.cpg/sg15_109_cif.got.tgz:216572.got - 2010.06.03 18:47:42.
