data_PCOD9300983
_publ_section_title
;
Structure prediction by ZEFSAII (Michael W. Deem and Ramdas Pophale) SiO2 
 PCOD9300983
Probable space group: C 2/C
;
_chemical_formula_sum "Si O2"
_cell_formula_units_Z 64
_cell_length_a 23.497054
_cell_length_b 11.867125
_cell_length_c 12.509804
_cell_angle_alpha 90.000000
_cell_angle_beta 70.479999
_cell_angle_gamma 90.000000
_cell_volume 3287.776394
_symmetry_space_group_name_H-M "C 2/C"
_symmetry_group_IT_number 15
_symmetry_cell_setting 'monoclinic'
loop_
_space_group_symop_operation_xyz
x,y,z
-x,y,1/2-z
-x,-y,-z
x,-y,1/2+z
1/2+x,1/2+y,z
1/2-x,1/2+y,1/2-z
1/2-x,1/2-y,-z
1/2+x,1/2-y,1/2+z
loop_
_atom_site_type_symbol
_atom_site_label
_atom_site_fract_x
_atom_site_fract_y
_atom_site_fract_z
Si Si1 0.067771 0.092037 0.739543
Si Si2 0.665667 0.308949 0.024278
Si Si3 0.069060 0.170906 0.191600
Si Si4 0.129146 0.829675 0.419938
Si Si5 0.708981 0.893902 0.842492
Si Si6 0.176567 0.776850 0.765408
Si Si7 0.708661 0.931467 0.504155
Si Si8 0.755646 0.440279 0.339985
O O1 0.110283 0.135003 0.618151
O O2 0.089998 0.140714 0.839547
O O3 0.000000 0.123730 0.750000
O O4 0.071655 0.956440 0.736264
O O5 0.667938 0.176506 0.053762
O O6 0.664362 0.311411 0.895704
O O7 0.724743 0.374183 0.033251
O O8 0.116401 0.238359 0.234906
O O9 0.000000 0.209840 0.250000
O O10 0.091469 0.170050 0.054061
O O11 0.163641 0.709384 0.384069
O O12 0.184155 0.920485 0.389901
O O13 0.778522 0.861603 0.827030
O O14 0.721961 0.937361 0.714358
O O15 0.688067 0.009821 0.908221
O O16 0.217397 0.665247 0.738655
O O17 0.714887 0.050148 0.563290
#
# Coordination Sequence:
#
# PCOD9300983 Si02
#       8
#     8   8   8   8   8   8   8   8
#     4  11  26  41  64  88 119 163 207 252 308 356
#     4  11  22  36  61  94 124 158 202 251 301 371
#     4  11  26  42  65  89 121 168 208 254 307 362
#     4  11  24  42  62  93 128 160 207 257 303 372
#     4  11  21  37  61  95 125 160 195 245 316 370
#     4  11  22  37  61  94 125 160 201 250 309 366
#     4  11  21  35  60  92 126 157 197 243 312 366
#     4  11  20  35  61  93 124 162 191 249 312 370
#
# _framework density 19.466044
#
# number of rings (size 3 to 8) (size 9 to 14) (size 15 to 20)
#    0.000    1.000    2.500    5.250    7.000    3.000 
#    0.000    0.000    0.000    8.250    0.000    0.000 
#    0.000    0.000    0.000    0.000    0.000    0.000 
#
# Total GULP energy -178242.780183 kJ/mol
# GULP energy per Si atom -5570.086881 kJ/mol
# Density = 1.942174 g / cm^3
# Si number density = 19.466044 Si / 1000 Ang^3
#
#
#
# Elastic Constant Matrix: (Units=GPa)
#
#
# Indices 1 2 3 4 5 6 
#
# 1 86.8629 -3.2325 28.9749 0.0000 -9.4073 0.0000
# 2 -3.2325 46.6042 0.5028 0.0000 -3.4517 0.0000
# 3 28.9749 0.5028 84.0327 0.0000 -0.3818 0.0000
# 4 0.0000 0.0000 0.0000 33.6613 0.0000 3.1994
# 5 -9.4073 -3.4517 -0.3818 0.0000 26.8370 0.0000
# 6 0.0000 0.0000 0.0000 3.1994 0.0000 19.9334
#
#
#
# Elastic Compliance Matrix: (Units=1/GPa)
#
#
# Indices 1 2 3 4 5 6 
#
# 1 0.013660 0.001361 -0.004696 0.000000 0.004896 0.000000
# 2 0.001361 0.021800 -0.000585 0.000000 0.003273 0.000000
# 3 -0.004696 -0.000585 0.013516 0.000000 -0.001529 0.000000
# 4 0.000000 0.000000 0.000000 0.030168 0.000000 -0.004842
# 5 0.004896 0.003273 -0.001529 0.000000 0.039377 0.000000
# 6 0.000000 0.000000 0.000000 -0.004842 0.000000 0.050944
#
#
# Mechanical properties :
#
#
# Convention : Reuss Voigt Hill
#
# Bulk Modulus (GPa) = 24.30948 29.99890 27.15419
# Shear Modulus (GPa) = 26.17566 28.83667 27.50616
#
# Velocity S-wave (km/s) = 3.67097 3.85305 3.76311
# Velocity P-wave (km/s) = 5.52117 5.93624 5.73246
#
# Compressibility (1/GPa) = 0.04113621
#
# Stress axis : x y z
#
# Youngs Moduli (GPa) = 73.20808 45.87084 73.98734
#
# Poissons Ratio (x) = -0.06242 0.34743
# Poissons Ratio (y) = -0.09962 0.04327
# Poissons Ratio (z) = 0.34377 0.02682
#
# Static dielectric constant tensor:
#      x y z
#    x 1.670750 0.000000 0.015080 
#    y 0.000000 1.695000 0.000000 
#    z 0.015080 0.000000 1.790830 
# 
# From -- ./inp_files/117992.got.cif
#   From: 2010.05.17/outbox.cif.g08.bks.cpg/sg15_59_cif.got.tgz:117992.got - 2010.06.03 18:47:42.
