data_PCOD9300819
_publ_section_title
;
Structure prediction by ZEFSAII (Michael W. Deem and Ramdas Pophale) SiO2 
 PCOD9300819
Probable space group: C 2/C
;
_chemical_formula_sum "Si O2"
_cell_formula_units_Z 44
_cell_length_a 6.496188
_cell_length_b 17.901144
_cell_length_c 21.068428
_cell_angle_alpha 90.000000
_cell_angle_beta 122.331686
_cell_angle_gamma 90.000000
_cell_volume 2070.193006
_symmetry_space_group_name_H-M "C 2/C"
_symmetry_group_IT_number 15
_symmetry_cell_setting 'monoclinic'
loop_
_space_group_symop_operation_xyz
x,y,z
-x,y,1/2-z
-x,-y,-z
x,-y,1/2+z
1/2+x,1/2+y,z
1/2-x,1/2+y,1/2-z
1/2-x,1/2-y,-z
1/2+x,1/2-y,1/2+z
loop_
_atom_site_type_symbol
_atom_site_label
_atom_site_fract_x
_atom_site_fract_y
_atom_site_fract_z
Si Si1 0.383102 0.625655 0.098540
Si Si2 0.370252 0.595390 0.950186
Si Si3 0.861253 0.331583 0.505431
Si Si4 0.458414 0.794671 0.377295
Si Si5 0.000000 0.878698 0.250000
Si Si6 0.217693 0.994597 0.184455
O O1 0.514417 0.705936 0.114621
O O2 0.554118 0.568690 0.163874
O O3 0.342733 0.590818 0.021402
O O4 0.113905 0.645105 0.080322
O O5 0.653409 0.609353 0.985252
O O6 0.282213 0.530436 0.889421
O O7 0.215283 0.667717 0.900931
O O8 0.750000 0.250000 0.500000
O O9 0.915332 0.326297 0.440197
O O10 0.233252 0.826309 0.300924
O O11 0.082698 0.931592 0.204993
O O12 0.500000 0.003402 0.250000
#
# Coordination Sequence:
#
# PCOD9300819 Si02
#       6
#     8   8   8   8   4   8
#     4  11  25  40  69 105 127 165 233 279 323 389
#     4  11  21  43  72  94 130 177 217 273 337 389
#     4  11  19  39  70  99 130 159 215 282 327 382
#     4  11  22  41  68  99 124 172 225 267 322 405
#     4  12  26  44  64  90 138 184 220 256 344 418
#     4  12  27  46  62  94 142 179 213 276 339 400
#
# _framework density 21.254055999999999
#
# number of rings (size 3 to 8) (size 9 to 14) (size 15 to 20)
#    0.000    0.727    7.273    1.636    1.273    2.182 
#    0.000    1.818    0.000    0.000    0.000    0.000 
#    0.000    0.000    0.000    0.000    0.000    0.000 
#
# Total GULP energy -122844.281347 kJ/mol
# GULP energy per Si atom -5583.830970 kJ/mol
# Density = 2.120568 g / cm^3
# Si number density = 21.254056 Si / 1000 Ang^3
#
#
#
# Elastic Constant Matrix: (Units=GPa)
#
#
# Indices 1 2 3 4 5 6 
#
# 1 94.6699 25.0309 40.7469 0.0000 33.6754 0.0000
# 2 25.0309 50.8176 48.4386 0.0000 14.6040 0.0000
# 3 40.7469 48.4386 82.1150 0.0000 35.9840 0.0000
# 4 0.0000 0.0000 0.0000 29.7031 0.0000 4.6406
# 5 33.6754 14.6040 35.9840 0.0000 36.6004 0.0000
# 6 0.0000 0.0000 0.0000 4.6406 0.0000 23.1790
#
#
#
# Elastic Compliance Matrix: (Units=1/GPa)
#
#
# Indices 1 2 3 4 5 6 
#
# 1 0.016492 -0.004933 0.000902 0.000000 -0.014092 0.000000
# 2 -0.004933 0.051131 -0.036478 0.000000 0.020001 0.000000
# 3 0.000902 -0.036478 0.047849 0.000000 -0.033317 0.000000
# 4 0.000000 0.000000 0.000000 0.034754 0.000000 -0.006958
# 5 -0.014092 0.020001 -0.033317 0.000000 0.065064 0.000000
# 6 0.000000 0.000000 0.000000 -0.006958 0.000000 0.044536
#
#
# Mechanical properties :
#
#
# Convention : Reuss Voigt Hill
#
# Bulk Modulus (GPa) = 29.02552 50.67060 39.84806
# Shear Modulus (GPa) = 14.19137 25.45557 19.82347
#
# Velocity S-wave (km/s) = 2.58680 3.46451 3.05731
# Velocity P-wave (km/s) = 4.75480 6.31632 5.59035
#
# Compressibility (1/GPa) = 0.03445244
#
# Stress axis : x y z
#
# Youngs Moduli (GPa) = 60.63552 19.55779 20.89923
#
# Poissons Ratio (x) = 0.09648 -0.01884
# Poissons Ratio (y) = 0.29912 0.76236
# Poissons Ratio (z) = -0.05467 0.71343
#
# Static dielectric constant tensor:
#      x y z
#    x 1.811630 0.000000 -0.005020 
#    y 0.000000 1.817680 0.000000 
#    z -0.005020 0.000000 1.792020 
# 
# From -- ./inp_files/184875.got.cif
#   From: 2010.05.17/outbox.cif.g08.bks.cpg/sg15_93_cif.got.tgz:184875.got - 2010.06.03 18:47:42.
