data_PCOD9300412
_publ_section_title
;
Structure prediction by ZEFSAII (Michael W. Deem and Ramdas Pophale) SiO2 
 PCOD9300412
Probable space group: C 2/C
;
_chemical_formula_sum "Si O2"
_cell_formula_units_Z 40
_cell_length_a 20.130759
_cell_length_b 5.020800
_cell_length_c 14.317474
_cell_angle_alpha 90.000000
_cell_angle_beta 67.488708
_cell_angle_gamma 90.000000
_cell_volume 1336.839771
_symmetry_space_group_name_H-M "C 2/C"
_symmetry_group_IT_number 15
_symmetry_cell_setting 'monoclinic'
loop_
_space_group_symop_operation_xyz
x,y,z
-x,y,1/2-z
-x,-y,-z
x,-y,1/2+z
1/2+x,1/2+y,z
1/2-x,1/2+y,1/2-z
1/2-x,1/2-y,-z
1/2+x,1/2-y,1/2+z
loop_
_atom_site_type_symbol
_atom_site_label
_atom_site_fract_x
_atom_site_fract_y
_atom_site_fract_z
Si Si1 0.332469 0.178314 0.591758
Si Si2 0.061925 0.452642 0.821282
Si Si3 0.525115 0.535962 0.093793
Si Si4 0.168729 0.667925 0.570429
Si Si5 0.327051 0.514058 0.761994
O O1 0.335169 0.116048 0.480651
O O2 0.381078 0.750345 0.758655
O O3 0.254269 0.087549 0.670390
O O4 0.336817 0.453270 0.646952
O O5 0.025635 0.743713 0.829257
O O6 0.103440 0.507923 0.896832
O O7 0.992734 0.257878 0.859626
O O8 0.000000 0.000000 0.000000
O O9 0.604955 0.649164 0.063188
O O10 0.250000 0.750000 0.500000
O O11 0.161053 0.743352 0.684228
#
# Coordination Sequence:
#
# PCOD9300412 Si02
#       5
#     8   8   8   8   8
#     4  11  22  47  80 114 167 219 278 344 427 488
#     4  12  25  46  81 113 160 218 271 343 421 498
#     4  12  26  50  80 119 159 217 275 344 426 505
#     4  10  26  52  79 122 165 221 282 352 422 514
#     4  11  24  48  78 121 165 221 286 346 419 515
#
# _framework density 29.921315
#
# number of rings (size 3 to 8) (size 9 to 14) (size 15 to 20)
#    0.000    0.800    6.000    0.600    0.000    0.800 
#    7.200    2.000    0.000    0.000    0.000    0.000 
#    0.000    0.000    0.000    0.000    0.000    0.000 
#
# Total GULP energy -111885.268704 kJ/mol
# GULP energy per Si atom -5594.263435 kJ/mol
# Density = 2.985321 g / cm^3
# Si number density = 29.921315 Si / 1000 Ang^3
#
#
#
# Elastic Constant Matrix: (Units=GPa)
#
#
# Indices 1 2 3 4 5 6 
#
# 1 210.2341 40.4592 48.6603 0.0001 -33.1962 0.0000
# 2 40.4592 195.1580 45.5347 0.0015 -28.2319 0.0006
# 3 48.6603 45.5347 165.9306 -0.0002 -2.2636 0.0000
# 4 0.0001 0.0015 -0.0002 26.1758 0.0000 -11.7648
# 5 -33.1962 -28.2319 -2.2636 0.0000 58.7486 0.0000
# 6 0.0000 0.0006 0.0000 -11.7648 0.0000 38.7985
#
#
#
# Elastic Compliance Matrix: (Units=1/GPa)
#
#
# Indices 1 2 3 4 5 6 
#
# 1 0.005646 -0.000393 -0.001508 0.000000 0.002943 0.000000
# 2 -0.000393 0.005921 -0.001475 0.000000 0.002566 0.000000
# 3 -0.001508 -0.001475 0.006856 0.000000 -0.001296 0.000000
# 4 0.000000 0.000000 0.000000 0.044231 0.000000 0.013412
# 5 0.002943 0.002566 -0.001296 0.000000 0.019868 0.000000
# 6 0.000000 0.000000 0.000000 0.013412 0.000000 0.029841
#
#
# Mechanical properties :
#
#
# Convention : Reuss Voigt Hill
#
# Bulk Modulus (GPa) = 85.67439 93.40345 89.53892
# Shear Modulus (GPa) = 40.64900 53.85583 47.25242
#
# Velocity S-wave (km/s) = 3.68982 4.24714 3.97825
# Velocity P-wave (km/s) = 6.84459 7.43876 7.14785
#
# Compressibility (1/GPa) = 0.01167210
#
# Stress axis : x y z
#
# Youngs Moduli (GPa) = 177.11785 168.89543 145.86335
#
# Poissons Ratio (x) = 0.06636 0.21992
# Poissons Ratio (y) = 0.06959 0.21508
# Poissons Ratio (z) = 0.26705 0.24905
#
# Static dielectric constant tensor:
#      x y z
#    x 2.325680 0.000000 -0.058930 
#    y 0.000000 2.329440 0.000000 
#    z -0.058930 0.000000 2.425970 
# 
# From -- ./inp_files/170752.got.cif
#   From: 2010.05.17/outbox.cif.g08.bks.cpg/sg15_86_cif.got.tgz:170752.got - 2010.06.03 18:47:42.
