data_PCOD9300158
_publ_section_title
;
Structure prediction by ZEFSAII (Michael W. Deem and Ramdas Pophale) SiO2 
 PCOD9300158
Probable space group: C 2/C
;
_chemical_formula_sum "Si O2"
_cell_formula_units_Z 40
_cell_length_a 11.286555
_cell_length_b 27.052801
_cell_length_c 5.565014
_cell_angle_alpha 90.000000
_cell_angle_beta 100.608778
_cell_angle_gamma 90.000000
_cell_volume 1670.138156
_symmetry_space_group_name_H-M "C 2/C"
_symmetry_group_IT_number 15
_symmetry_cell_setting 'monoclinic'
loop_
_space_group_symop_operation_xyz
x,y,z
-x,y,1/2-z
-x,-y,-z
x,-y,1/2+z
1/2+x,1/2+y,z
1/2-x,1/2+y,1/2-z
1/2-x,1/2-y,-z
1/2+x,1/2-y,1/2+z
loop_
_atom_site_type_symbol
_atom_site_label
_atom_site_fract_x
_atom_site_fract_y
_atom_site_fract_z
Si Si1 0.000000 0.142869 0.250000
Si Si2 0.819211 0.879105 0.058831
Si Si3 0.729981 0.476582 0.209092
Si Si4 0.724297 0.304995 0.078859
Si Si5 0.099305 0.370831 0.626640
Si Si6 0.000000 0.546828 0.750000
O O1 0.940492 0.114364 0.451332
O O2 0.109485 0.175716 0.387520
O O3 0.803182 0.919214 0.262826
O O4 0.806660 0.823708 0.163104
O O5 0.708507 0.887918 0.836642
O O6 0.686182 0.503971 0.434970
O O7 0.876300 0.480934 0.262867
O O8 0.750000 0.250000 0.000000
O O9 0.842443 0.336114 0.050629
O O10 0.000000 0.343576 0.750000
O O11 0.034084 0.416877 0.480999
#
# Coordination Sequence:
#
# PCOD9300158 Si02
#       6
#     4   8   8   8   8   4
#     4  10  26  45  76  96 142 198 240 299 378 432
#     4  11  24  46  69 101 149 194 247 304 369 440
#     4  12  26  42  72 110 153 200 258 311 376 451
#     4  11  25  45  73 105 141 185 244 304 370 456
#     4  11  21  38  68 101 148 193 231 295 376 436
#     4  12  22  41  66 108 154 198 236 307 376 454
#
# _framework density 23.950112000000001
#
# number of rings (size 3 to 8) (size 9 to 14) (size 15 to 20)
#    0.000    0.800    4.000    2.400    2.800    7.200 
#    0.000    1.000    0.000    0.000    0.000    0.000 
#    0.000    0.000    0.000    0.000    0.000    0.000 
#
# Total GULP energy -111940.135601 kJ/mol
# GULP energy per Si atom -5597.006780 kJ/mol
# Density = 2.389560 g / cm^3
# Si number density = 23.950112 Si / 1000 Ang^3
#
#
#
# Elastic Constant Matrix: (Units=GPa)
#
#
# Indices 1 2 3 4 5 6 
#
# 1 101.9248 8.5334 23.6880 0.0000 -25.6615 0.0000
# 2 8.5334 83.1870 32.9382 0.0000 -17.0976 0.0000
# 3 23.6880 32.9382 128.6725 0.0000 -18.8961 0.0000
# 4 0.0000 0.0000 0.0000 11.2210 0.0000 9.4747
# 5 -25.6615 -17.0976 -18.8961 0.0000 53.0972 0.0000
# 6 0.0000 0.0000 0.0000 9.4747 0.0000 23.9651
#
#
#
# Elastic Compliance Matrix: (Units=1/GPa)
#
#
# Indices 1 2 3 4 5 6 
#
# 1 0.011407 0.000466 -0.001464 0.000000 0.005142 0.000000
# 2 0.000466 0.013953 -0.003128 0.000000 0.003605 0.000000
# 3 -0.001464 -0.003128 0.009064 0.000000 0.001511 0.000000
# 4 0.000000 0.000000 0.000000 0.133776 0.000000 -0.052889
# 5 0.005142 0.003605 0.001511 0.000000 0.023017 0.000000
# 6 0.000000 0.000000 0.000000 -0.052889 0.000000 0.062637
#
#
# Mechanical properties :
#
#
# Convention : Reuss Voigt Hill
#
# Bulk Modulus (GPa) = 38.20904 49.34484 43.77694
# Shear Modulus (GPa) = 18.46177 34.23163 26.34670
#
# Velocity S-wave (km/s) = 2.77942 3.78470 3.32032
# Velocity P-wave (km/s) = 5.12723 6.30448 5.74608
#
# Compressibility (1/GPa) = 0.02617182
#
# Stress axis : x y z
#
# Youngs Moduli (GPa) = 87.66534 71.67004 110.32849
#
# Poissons Ratio (x) = -0.03343 0.16155
# Poissons Ratio (y) = -0.04090 0.34513
# Poissons Ratio (z) = 0.12837 0.22420
#
# Static dielectric constant tensor:
#      x y z
#    x 1.901610 0.000000 -0.034880 
#    y 0.000000 1.909010 0.000000 
#    z -0.034880 0.000000 1.993400 
# 
# From -- ./inp_files/5044.got.cif
#   From: 2010.05.17/outbox.cif.g08.bks.cpg/sg15_3_cif.got.tgz:5044.got - 2010.06.03 18:47:42.
