data_PCOD9300679
_publ_section_title
;
Structure prediction by ZEFSAII (Michael W. Deem and Ramdas Pophale) SiO2 
 PCOD9300679
Probable space group: C 2/C
;
_chemical_formula_sum "Si O2"
_cell_formula_units_Z 60
_cell_length_a 21.288329
_cell_length_b 17.733771
_cell_length_c 12.746664
_cell_angle_alpha 90.000000
_cell_angle_beta 36.523602
_cell_angle_gamma 90.000000
_cell_volume 2863.970038
_symmetry_space_group_name_H-M "C 2/C"
_symmetry_group_IT_number 15
_symmetry_cell_setting 'monoclinic'
loop_
_space_group_symop_operation_xyz
x,y,z
-x,y,1/2-z
-x,-y,-z
x,-y,1/2+z
1/2+x,1/2+y,z
1/2-x,1/2+y,1/2-z
1/2-x,1/2-y,-z
1/2+x,1/2-y,1/2+z
loop_
_atom_site_type_symbol
_atom_site_label
_atom_site_fract_x
_atom_site_fract_y
_atom_site_fract_z
Si Si1 0.781146 0.349783 0.216801
Si Si2 0.777452 0.569761 0.515250
Si Si3 0.229946 0.712179 0.416552
Si Si4 0.000000 0.656164 0.750000
Si Si5 0.615111 0.426193 0.063152
Si Si6 0.061255 0.908073 0.576015
Si Si7 0.356858 0.433782 0.716862
Si Si8 0.917079 0.457746 0.186870
O O1 0.787626 0.264311 0.251671
O O2 0.656102 0.365069 0.395977
O O3 0.838734 0.409165 0.217479
O O4 0.815669 0.371001 0.051866
O O5 0.702133 0.603184 0.526154
O O6 0.702712 0.511579 0.680270
O O7 0.861202 0.519611 0.337680
O O8 0.250000 0.750000 0.500000
O O9 0.282999 0.631107 0.360306
O O10 0.104431 0.701043 0.574007
O O11 0.970310 0.602452 0.692480
O O12 0.500000 0.398672 0.250000
O O13 0.608722 0.518345 0.072280
O O14 0.637828 0.413527 0.912047
O O15 0.000000 0.864281 0.750000
O O16 0.973198 0.932720 0.610470
O O17 0.000000 0.500000 0.000000
#
# Coordination Sequence:
#
# PCOD9300679 Si02
#       8
#     8   8   8   4   8   8   8   8
#     4  12  25  42  65  98 137 177 223 284 341 409
#     4  12  21  41  66 101 132 172 228 285 342 400
#     4  12  27  46  65  99 139 179 231 276 348 418
#     4  12  26  44  72 100 138 182 228 286 350 412
#     4  11  21  35  61 101 131 165 216 274 340 405
#     4  11  19  34  65  99 130 164 210 270 342 392
#     4  12  22  40  68  95 136 176 219 285 337 413
#     4  12  25  44  72 103 131 176 235 293 344 403
#
# _framework density 20.949940000000002
#
# number of rings (size 3 to 8) (size 9 to 14) (size 15 to 20)
#    0.000    0.267    8.000    2.800    4.667    0.000 
#    0.000    0.667    2.933    0.000    0.000    0.000 
#    0.000    0.000    0.000    0.000    0.000    0.000 
#
# Total GULP energy -167593.934844 kJ/mol
# GULP energy per Si atom -5586.464495 kJ/mol
# Density = 2.090226 g / cm^3
# Si number density = 20.949940 Si / 1000 Ang^3
#
#
#
# Elastic Constant Matrix: (Units=GPa)
#
#
# Indices 1 2 3 4 5 6 
#
# 1 126.7888 23.0202 35.2802 0.0000 18.7404 0.0000
# 2 23.0202 45.1333 8.6901 0.0000 -3.2582 0.0000
# 3 35.2802 8.6901 87.9852 0.0000 7.4001 0.0000
# 4 0.0000 0.0000 0.0000 20.9967 0.0000 -0.9566
# 5 18.7404 -3.2582 7.4001 0.0000 40.4917 0.0000
# 6 0.0000 0.0000 0.0000 -0.9566 0.0000 11.0666
#
#
#
# Elastic Compliance Matrix: (Units=1/GPa)
#
#
# Indices 1 2 3 4 5 6 
#
# 1 0.010391 -0.005000 -0.003285 0.000000 -0.004611 0.000000
# 2 -0.005000 0.025198 -0.000862 0.000000 0.004499 0.000000
# 3 -0.003285 -0.000862 0.012843 0.000000 -0.000896 0.000000
# 4 0.000000 0.000000 0.000000 0.047815 0.000000 0.004133
# 5 -0.004611 0.004499 -0.000896 0.000000 0.027356 0.000000
# 6 0.000000 0.000000 0.000000 0.004133 0.000000 0.090720
#
#
# Mechanical properties :
#
#
# Convention : Reuss Voigt Hill
#
# Bulk Modulus (GPa) = 33.18139 43.76536 38.47337
# Shear Modulus (GPa) = 20.60478 27.37210 23.98844
#
# Velocity S-wave (km/s) = 3.13952 3.61854 3.38751
# Velocity P-wave (km/s) = 5.38655 6.19631 5.80557
#
# Compressibility (1/GPa) = 0.03013738
#
# Stress axis : x y z
#
# Youngs Moduli (GPa) = 96.24160 39.68614 77.86223
#
# Poissons Ratio (x) = 0.19843 0.25576
# Poissons Ratio (y) = 0.48122 0.06713
# Poissons Ratio (z) = 0.31613 0.03422
#
# Static dielectric constant tensor:
#      x y z
#    x 1.762670 0.000000 -0.008250 
#    y 0.000000 1.763860 0.000000 
#    z -0.008250 0.000000 1.788860 
# 
# From -- ./inp_files/113774.got.cif
#   From: 2010.05.17/outbox.cif.g08.bks.cpg/sg15_57_cif.got.tgz:113774.got - 2010.06.03 18:47:42.
