data_PCOD9300018
_publ_section_title
;
Structure prediction by ZEFSAII (Michael W. Deem and Ramdas Pophale) SiO2 
 PCOD9300018
Probable space group: C 2/C
;
_chemical_formula_sum "Si O2"
_cell_formula_units_Z 52
_cell_length_a 20.020406
_cell_length_b 11.617222
_cell_length_c 21.457221
_cell_angle_alpha 90.000000
_cell_angle_beta 30.646194
_cell_angle_gamma 90.000000
_cell_volume 2543.860426
_symmetry_space_group_name_H-M "C 2/C"
_symmetry_group_IT_number 15
_symmetry_cell_setting 'monoclinic'
loop_
_space_group_symop_operation_xyz
x,y,z
-x,y,1/2-z
-x,-y,-z
x,-y,1/2+z
1/2+x,1/2+y,z
1/2-x,1/2+y,1/2-z
1/2-x,1/2-y,-z
1/2+x,1/2-y,1/2+z
loop_
_atom_site_type_symbol
_atom_site_label
_atom_site_fract_x
_atom_site_fract_y
_atom_site_fract_z
Si Si1 0.726283 0.702427 0.650632
Si Si2 0.596178 0.882202 0.231966
Si Si3 0.880419 0.477317 0.949544
Si Si4 0.881645 0.975251 0.180154
Si Si5 0.181549 0.041678 0.403440
Si Si6 0.864349 0.116541 0.321506
Si Si7 0.000000 0.695991 0.250000
O O1 0.833048 0.610811 0.540887
O O2 0.661000 0.652097 0.765095
O O3 0.789023 0.825540 0.609890
O O4 0.609242 0.724003 0.694837
O O5 0.500000 0.892842 0.250000
O O6 0.644174 0.751149 0.189820
O O7 0.501127 0.933921 0.362414
O O8 0.719892 0.965472 0.135069
O O9 0.928270 0.388038 0.857396
O O10 0.754195 0.561399 0.042952
O O11 0.804050 0.012910 0.181156
O O12 0.862427 0.050636 0.257373
O O13 0.033833 0.982685 0.041589
O O14 0.000000 0.099842 0.250000
#
# Coordination Sequence:
#
# PCOD9300018 Si02
#       7
#     8   8   8   8   8   8   4
#     4  11  24  41  68  99 135 168 221 277 329 396
#     4  11  24  42  67  99 128 175 220 272 332 383
#     4  11  23  41  63 106 128 174 220 267 342 383
#     4  10  26  45  66  97 128 184 217 266 340 384
#     4  11  24  45  68  91 136 171 225 272 324 406
#     4  10  26  41  67  96 137 174 224 273 324 397
#     4  12  22  40  70 102 136 172 218 276 338 382
#
# _framework density 20.441372999999999
#
# number of rings (size 3 to 8) (size 9 to 14) (size 15 to 20)
#    0.000    1.231    2.308    1.385   12.923    1.231 
#    0.000    3.077    0.000    0.000    0.000    0.000 
#    0.000    0.000    0.000    0.000    0.000    0.000 
#
# Total GULP energy -145067.299042 kJ/mol
# GULP energy per Si atom -5579.511502 kJ/mol
# Density = 2.039485 g / cm^3
# Si number density = 20.441373 Si / 1000 Ang^3
#
#
#
# Elastic Constant Matrix: (Units=GPa)
#
#
# Indices 1 2 3 4 5 6 
#
# 1 64.9778 30.9466 24.0224 0.0000 3.5049 0.0000
# 2 30.9466 117.2954 25.5193 0.0000 -5.2459 0.0000
# 3 24.0224 25.5193 97.1602 0.0000 -2.0889 0.0000
# 4 0.0000 0.0000 0.0000 32.8359 0.0000 9.6279
# 5 3.5049 -5.2459 -2.0889 0.0000 29.6855 0.0000
# 6 0.0000 0.0000 0.0000 9.6279 0.0000 14.3013
#
#
#
# Elastic Compliance Matrix: (Units=1/GPa)
#
#
# Indices 1 2 3 4 5 6 
#
# 1 0.018983 -0.004368 -0.003617 0.000000 -0.003268 0.000000
# 2 -0.004368 0.010108 -0.001528 0.000000 0.002195 0.000000
# 3 -0.003617 -0.001528 0.011609 0.000000 0.000974 0.000000
# 4 0.000000 0.000000 0.000000 0.037945 0.000000 -0.025545
# 5 -0.003268 0.002195 0.000974 0.000000 0.034529 0.000000
# 6 0.000000 0.000000 0.000000 -0.025545 0.000000 0.087121
#
#
# Mechanical properties :
#
#
# Convention : Reuss Voigt Hill
#
# Bulk Modulus (GPa) = 46.13404 48.93445 47.53424
# Shear Modulus (GPa) = 22.07067 28.62755 25.34911
#
# Velocity S-wave (km/s) = 3.28945 3.74635 3.52531
# Velocity P-wave (km/s) = 6.08648 6.53486 6.31465
#
# Compressibility (1/GPa) = 0.02167597
#
# Stress axis : x y z
#
# Youngs Moduli (GPa) = 52.67753 98.92740 86.14217
#
# Poissons Ratio (x) = 0.43209 0.31154
# Poissons Ratio (y) = 0.23008 0.13162
# Poissons Ratio (z) = 0.19051 0.15115
#
# Static dielectric constant tensor:
#      x y z
#    x 1.721950 0.000000 0.025830 
#    y 0.000000 1.738590 0.000000 
#    z 0.025830 0.000000 1.760450 
# 
# From -- ./inp_files/252731.got.cif
#   From: 2010.05.17/outbox.cif.g08.bks.cpg/sg15_127_cif.got.tgz:252731.got - 2010.06.03 18:47:42.
