data_PCOD9300405
_publ_section_title
;
Structure prediction by ZEFSAII (Michael W. Deem and Ramdas Pophale) SiO2 
 PCOD9300405
Probable space group: C 2/C
;
_chemical_formula_sum "Si O2"
_cell_formula_units_Z 60
_cell_length_a 6.345851
_cell_length_b 15.423672
_cell_length_c 29.923780
_cell_angle_alpha 90.000000
_cell_angle_beta 73.084585
_cell_angle_gamma 90.000000
_cell_volume 2802.114776
_symmetry_space_group_name_H-M "C 2/C"
_symmetry_group_IT_number 15
_symmetry_cell_setting 'monoclinic'
loop_
_space_group_symop_operation_xyz
x,y,z
-x,y,1/2-z
-x,-y,-z
x,-y,1/2+z
1/2+x,1/2+y,z
1/2-x,1/2+y,1/2-z
1/2-x,1/2-y,-z
1/2+x,1/2-y,1/2+z
loop_
_atom_site_type_symbol
_atom_site_label
_atom_site_fract_x
_atom_site_fract_y
_atom_site_fract_z
Si Si1 0.656295 0.018660 0.949367
Si Si2 0.500000 0.212777 0.750000
Si Si3 0.180330 0.631825 0.829584
Si Si4 0.562639 0.399720 0.926352
Si Si5 0.319738 0.222165 0.909201
Si Si6 0.504603 0.956338 0.637158
Si Si7 0.585218 0.239032 0.330245
Si Si8 0.120102 0.163693 0.518942
O O1 0.752215 0.116125 0.948434
O O2 0.566411 0.977423 0.909357
O O3 0.867955 0.963561 0.946055
O O4 0.500000 0.000000 0.000000
O O5 0.593465 0.161769 0.786801
O O6 0.711785 0.260467 0.716681
O O7 0.150933 0.527501 0.829157
O O8 0.400549 0.688964 0.827132
O O9 0.002716 0.656884 0.878898
O O10 0.456094 0.308417 0.915573
O O11 0.729240 0.451989 0.883618
O O12 0.654559 0.385761 0.970206
O O13 0.171173 0.239652 0.874639
O O14 0.139333 0.183608 0.955045
O O15 0.477672 0.861221 0.659955
O O16 0.250000 0.250000 0.500000
#
# Coordination Sequence:
#
# PCOD9300405 Si02
#       8
#     8   4   8   8   8   8   8   8
#     4  12  25  41  61  95 144 189 251 300 345 421
#     4  10  26  52  74 112 140 172 230 292 374 456
#     4  11  25  46  76 104 145 181 234 300 366 451
#     4  12  24  43  63  97 147 189 246 302 346 415
#     4  11  23  41  66  97 141 189 241 293 364 421
#     4  12  25  44  74 107 139 193 244 292 371 436
#     4  11  23  51  73 104 143 182 228 302 370 449
#     4  12  25  40  64  95 140 198 250 302 357 411
#
# _framework density 21.412400000000002
#
# number of rings (size 3 to 8) (size 9 to 14) (size 15 to 20)
#    0.000    0.533    4.000    4.400    3.733    1.067 
#    4.800    0.000    0.000    0.000    0.000    0.000 
#    0.000    0.000    0.000    0.000    0.000    0.000 
#
# Total GULP energy -167061.826652 kJ/mol
# GULP energy per Si atom -5568.727555 kJ/mol
# Density = 2.136366 g / cm^3
# Si number density = 21.412400 Si / 1000 Ang^3
#
#
#
# Elastic Constant Matrix: (Units=GPa)
#
#
# Indices 1 2 3 4 5 6 
#
# 1 103.5127 42.7098 29.6856 0.0000 -4.3206 0.0000
# 2 42.7098 88.8944 9.5469 0.0000 -8.8736 0.0000
# 3 29.6856 9.5469 67.3392 0.0000 -4.1367 0.0000
# 4 0.0000 0.0000 0.0000 11.7724 0.0000 -3.3959
# 5 -4.3206 -8.8736 -4.1367 0.0000 47.4527 0.0000
# 6 0.0000 0.0000 0.0000 -3.3959 0.0000 40.0906
#
#
#
# Elastic Compliance Matrix: (Units=1/GPa)
#
#
# Indices 1 2 3 4 5 6 
#
# 1 0.013612 -0.006019 -0.005168 0.000000 -0.000337 0.000000
# 2 -0.006019 0.014277 0.000763 0.000000 0.002188 0.000000
# 3 -0.005168 0.000763 0.017092 0.000000 0.001162 0.000000
# 4 0.000000 0.000000 0.000000 0.087072 0.000000 0.007376
# 5 -0.000337 0.002188 0.001162 0.000000 0.021553 0.000000
# 6 0.000000 0.000000 0.000000 0.007376 0.000000 0.025568
#
#
# Mechanical properties :
#
#
# Convention : Reuss Voigt Hill
#
# Bulk Modulus (GPa) = 41.43406 47.07011 44.25208
# Shear Modulus (GPa) = 24.03087 31.71676 27.87381
#
# Velocity S-wave (km/s) = 3.35369 3.85285 3.61191
# Velocity P-wave (km/s) = 5.86420 6.46707 6.17300
#
# Compressibility (1/GPa) = 0.02413474
#
# Stress axis : x y z
#
# Youngs Moduli (GPa) = 73.46474 70.04077 58.50824
#
# Poissons Ratio (x) = 0.42154 0.30237
# Poissons Ratio (y) = 0.44215 -0.04467
# Poissons Ratio (z) = 0.37967 -0.05347
#
# Static dielectric constant tensor:
#      x y z
#    x 1.799270 0.000000 0.005380 
#    y 0.000000 1.904170 0.000000 
#    z 0.005380 0.000000 1.770000 
# 
# From -- ./inp_files/305778.got.cif
#   From: 2010.05.17/outbox.cif.g08.bks.cpg/sg15_153_cif.got.tgz:305778.got - 2010.06.03 18:47:42.
