data_PCOD9300393
_publ_section_title
;
Structure prediction by ZEFSAII (Michael W. Deem and Ramdas Pophale) SiO2 
 PCOD9300393
Probable space group: C 2/C
;
_chemical_formula_sum "Si O2"
_cell_formula_units_Z 56
_cell_length_a 11.538441
_cell_length_b 9.025786
_cell_length_c 18.625518
_cell_angle_alpha 90.000000
_cell_angle_beta 91.762428
_cell_angle_gamma 90.000000
_cell_volume 1938.809019
_symmetry_space_group_name_H-M "C 2/C"
_symmetry_group_IT_number 15
_symmetry_cell_setting 'monoclinic'
loop_
_space_group_symop_operation_xyz
x,y,z
-x,y,1/2-z
-x,-y,-z
x,-y,1/2+z
1/2+x,1/2+y,z
1/2-x,1/2+y,1/2-z
1/2-x,1/2-y,-z
1/2+x,1/2-y,1/2+z
loop_
_atom_site_type_symbol
_atom_site_label
_atom_site_fract_x
_atom_site_fract_y
_atom_site_fract_z
Si Si1 0.667462 0.340033 0.574297
Si Si2 0.836897 0.448717 0.787288
Si Si3 0.916864 0.001366 0.187697
Si Si4 0.486547 0.901997 0.108539
Si Si5 0.907026 0.690177 0.139252
Si Si6 0.378566 0.565540 0.024959
Si Si7 0.791292 0.158958 0.884250
O O1 0.781440 0.268666 0.608249
O O2 0.701212 0.425913 0.501336
O O3 0.559175 0.227247 0.569378
O O4 0.656010 0.490728 0.623526
O O5 0.709400 0.517415 0.779192
O O6 0.076783 0.568137 0.675850
O O7 0.884972 0.397701 0.712309
O O8 0.820808 0.298080 0.834378
O O9 0.888273 0.075532 0.110171
O O10 0.000000 0.071329 0.250000
O O11 0.964976 0.841865 0.164258
O O12 0.470139 0.076204 0.086281
O O13 0.349869 0.862858 0.117313
O O14 0.340486 0.688968 0.966454
O O15 0.500000 0.500000 0.000000
#
# Coordination Sequence:
#
# PCOD9300393 Si02
#       7
#     8   8   8   8   8   8   8
#     4   9  23  49  79 112 159 206 273 336 402 473
#     4  12  27  46  82 119 161 220 268 330 417 484
#     4  12  29  49  80 119 164 218 267 340 417 481
#     4  11  23  50  77 116 158 212 269 339 400 478
#     4  11  26  46  77 114 171 206 279 337 402 490
#     4  10  26  51  81 113 165 209 275 341 408 493
#     4   9  26  49  78 114 164 199 278 332 404 484
#
# _framework density 28.883710000000001
#
# number of rings (size 3 to 8) (size 9 to 14) (size 15 to 20)
#    0.857    0.571    1.429    1.286   12.000    2.286 
#    0.000    1.429    0.000    0.000    0.000    0.000 
#    0.000    0.000    0.000    0.000    0.000    0.000 
#
# Total GULP energy -156244.169795 kJ/mol
# GULP energy per Si atom -5580.148921 kJ/mol
# Density = 2.881797 g / cm^3
# Si number density = 28.883710 Si / 1000 Ang^3
#
#
#
# Elastic Constant Matrix: (Units=GPa)
#
#
# Indices 1 2 3 4 5 6 
#
# 1 148.0546 29.2716 29.8560 0.0000 37.3941 0.0000
# 2 29.2716 170.4460 53.9440 0.0000 -15.3118 0.0000
# 3 29.8560 53.9440 169.0035 0.0000 30.4787 0.0000
# 4 0.0000 0.0000 0.0000 -4.4467 0.0000 -17.9859
# 5 37.3941 -15.3118 30.4787 0.0000 43.4143 0.0000
# 6 0.0000 0.0000 0.0000 -17.9859 0.0000 47.8273
#
#
#
# Elastic Compliance Matrix: (Units=1/GPa)
#
#
# Indices 1 2 3 4 5 6 
#
# 1 0.009659 -0.002889 0.001030 0.000000 -0.010062 0.000000
# 2 -0.002889 0.008180 -0.003515 0.000000 0.007840 0.000000
# 3 0.001030 -0.003515 0.008290 0.000000 -0.007947 0.000000
# 4 0.000000 0.000000 0.000000 -0.089202 0.000000 -0.033545
# 5 -0.010062 0.007840 -0.007947 0.000000 0.040045 0.000000
# 6 0.000000 0.000000 0.000000 -0.033545 0.000000 0.008293
#
#
# Mechanical properties :
#
#
# Convention : Reuss Voigt Hill
#
# Bulk Modulus (GPa) = 65.00831 79.29412 72.15122
# Shear Modulus (GPa) = 4393.74801 42.32115 2218.03458
#
# Velocity S-wave (km/s) = 39.04469 3.83198 27.74141
# Velocity P-wave (km/s) = 45.33438 6.86231 32.42142
#
# Compressibility (1/GPa) = 0.01538265
#
# Stress axis : x y z
#
# Youngs Moduli (GPa) = 103.53162 122.25416 120.62748
#
# Poissons Ratio (x) = 0.35316 -0.12428
# Poissons Ratio (y) = 0.29907 0.42395
# Poissons Ratio (z) = -0.10666 0.42966
#
# Static dielectric constant tensor:
#      x y z
#    x 2.375560 0.000000 0.025370 
#    y 0.000000 2.384840 0.000000 
#    z 0.025370 0.000000 2.456070 
# 
# From -- ./inp_files/199826.got.cif
#   From: 2010.05.17/outbox.cif.g08.bks.cpg/sg15_100_cif.got.tgz:199826.got - 2010.06.03 18:47:42.
