data_PCOD9300774
_publ_section_title
;
Structure prediction by ZEFSAII (Michael W. Deem and Ramdas Pophale) SiO2 
 PCOD9300774
Probable space group: C 2/C
;
_chemical_formula_sum "Si O2"
_cell_formula_units_Z 48
_cell_length_a 32.222166
_cell_length_b 7.883941
_cell_length_c 8.545999
_cell_angle_alpha 90.000000
_cell_angle_beta 83.937485
_cell_angle_gamma 90.000000
_cell_volume 2158.863667
_symmetry_space_group_name_H-M "C 2/C"
_symmetry_group_IT_number 15
_symmetry_cell_setting 'monoclinic'
loop_
_space_group_symop_operation_xyz
x,y,z
-x,y,1/2-z
-x,-y,-z
x,-y,1/2+z
1/2+x,1/2+y,z
1/2-x,1/2+y,1/2-z
1/2-x,1/2-y,-z
1/2+x,1/2-y,1/2+z
loop_
_atom_site_type_symbol
_atom_site_label
_atom_site_fract_x
_atom_site_fract_y
_atom_site_fract_z
Si Si1 0.715545 0.825099 0.162394
Si Si2 0.145183 0.166197 0.598145
Si Si3 0.029991 0.401718 0.108187
Si Si4 0.698161 0.472484 0.343140
Si Si5 0.918247 0.671914 0.198933
Si Si6 0.836394 0.481579 0.577710
O O1 0.712223 0.647086 0.253177
O O2 0.701567 0.963528 0.297602
O O3 0.761533 0.887254 0.094108
O O4 0.680676 0.850963 0.043333
O O5 0.159713 0.023651 0.470312
O O6 0.099517 0.168543 0.695417
O O7 0.149494 0.344942 0.510634
O O8 0.180302 0.149583 0.717532
O O9 0.057113 0.540972 0.196103
O O10 0.000000 0.315407 0.250000
O O11 0.057338 0.294214 0.973626
O O12 0.000000 0.500000 0.000000
O O13 0.876026 0.581643 0.157092
#
# Coordination Sequence:
#
# PCOD9300774 Si02
#       6
#     8   8   8   8   8   8
#     4  11  23  38  59  84 123 172 228 282 309 367
#     4  11  24  41  58  89 127 168 219 266 324 373
#     4   9  19  35  64 103 133 154 192 247 324 394
#     4  11  26  41  59  88 124 178 237 271 320 364
#     4  11  19  38  62  95 135 157 197 262 321 380
#     4  11  21  37  62  87 123 169 213 267 335 357
#
# _framework density 22.233917999999999
#
# number of rings (size 3 to 8) (size 9 to 14) (size 15 to 20)
#    0.000    1.333    3.333    2.000    2.333    4.000 
#    0.000    0.000    0.000    0.000    0.000   15.167 
#    0.000    0.000    0.000    0.000    0.000    0.000 
#
# Total GULP energy -134031.753220 kJ/mol
# GULP energy per Si atom -5584.656384 kJ/mol
# Density = 2.218331 g / cm^3
# Si number density = 22.233918 Si / 1000 Ang^3
#
#
#
# Elastic Constant Matrix: (Units=GPa)
#
#
# Indices 1 2 3 4 5 6 
#
# 1 81.3661 25.5485 28.0757 0.0000 -8.5708 0.0000
# 2 25.5485 74.6050 16.5322 0.0000 2.2019 0.0000
# 3 28.0757 16.5322 103.5990 0.0000 -16.8087 0.0000
# 4 0.0000 0.0000 0.0000 27.6191 0.0000 -6.5581
# 5 -8.5708 2.2019 -16.8087 0.0000 73.6554 0.0000
# 6 0.0000 0.0000 0.0000 -6.5581 0.0000 21.6986
#
#
#
# Elastic Compliance Matrix: (Units=1/GPa)
#
#
# Indices 1 2 3 4 5 6 
#
# 1 0.014888 -0.004436 -0.003140 0.000000 0.001148 0.000000
# 2 -0.004436 0.015282 -0.001448 0.000000 -0.001304 0.000000
# 3 -0.003140 -0.001448 0.011093 0.000000 0.002209 0.000000
# 4 0.000000 0.000000 0.000000 0.039006 0.000000 0.011789
# 5 0.001148 -0.001304 0.002209 0.000000 0.014254 0.000000
# 6 0.000000 0.000000 0.000000 0.011789 0.000000 0.049649
#
#
# Mechanical properties :
#
#
# Convention : Reuss Voigt Hill
#
# Bulk Modulus (GPa) = 43.07737 44.43143 43.75440
# Shear Modulus (GPa) = 29.41883 37.22220 33.32051
#
# Velocity S-wave (km/s) = 3.64146 4.09604 3.87542
# Velocity P-wave (km/s) = 6.09073 6.51130 6.30452
#
# Compressibility (1/GPa) = 0.02321404
#
# Stress axis : x y z
#
# Youngs Moduli (GPa) = 67.16981 65.43446 90.14541
#
# Poissons Ratio (x) = 0.29028 0.28309
# Poissons Ratio (y) = 0.29798 0.13053
# Poissons Ratio (z) = 0.21094 0.09475
#
# Static dielectric constant tensor:
#      x y z
#    x 1.818930 0.000000 -0.097530 
#    y 0.000000 1.833660 0.000000 
#    z -0.097530 0.000000 1.937570 
# 
# From -- ./inp_files/68596.got.cif
#   From: 2010.05.17/outbox.cif.g08.bks.cpg/sg15_35_cif.got.tgz:68596.got - 2010.06.03 18:47:42.
