data_PCOD9300519
_publ_section_title
;
Structure prediction by ZEFSAII (Michael W. Deem and Ramdas Pophale) SiO2 
 PCOD9300519
Probable space group: C 2/C
;
_chemical_formula_sum "Si O2"
_cell_formula_units_Z 40
_cell_length_a 11.912493
_cell_length_b 7.756564
_cell_length_c 20.020684
_cell_angle_alpha 90.000000
_cell_angle_beta 59.049243
_cell_angle_gamma 90.000000
_cell_volume 1586.501917
_symmetry_space_group_name_H-M "C 2/C"
_symmetry_group_IT_number 15
_symmetry_cell_setting 'monoclinic'
loop_
_space_group_symop_operation_xyz
x,y,z
-x,y,1/2-z
-x,-y,-z
x,-y,1/2+z
1/2+x,1/2+y,z
1/2-x,1/2+y,1/2-z
1/2-x,1/2-y,-z
1/2+x,1/2-y,1/2+z
loop_
_atom_site_type_symbol
_atom_site_label
_atom_site_fract_x
_atom_site_fract_y
_atom_site_fract_z
Si Si1 0.777552 0.518305 0.265697
Si Si2 0.247509 0.356320 0.098435
Si Si3 0.768598 0.477633 0.032812
Si Si4 0.624263 0.820877 0.375956
Si Si5 0.982387 0.019267 0.610076
O O1 0.827264 0.391810 0.309326
O O2 0.744927 0.699058 0.312247
O O3 0.864986 0.488525 0.174425
O O4 0.625100 0.463222 0.298235
O O5 0.254830 0.160661 0.074466
O O6 0.394829 0.415714 0.074813
O O7 0.199179 0.476781 0.053085
O O8 0.861436 0.367751 0.051535
O O9 0.622190 0.399629 0.076928
O O10 0.505258 0.689190 0.401414
#
# Coordination Sequence:
#
# PCOD9300519 Si02
#       5
#     8   8   8   8   8
#     4   8  18  36  50  75 111 132 168 225 254 294
#     4   8  20  33  54  80 106 134 173 216 252 311
#     4  11  17  36  59  74 104 143 170 208 266 304
#     4   9  19  33  57  75 103 139 172 216 255 305
#     4   8  21  34  54  76 105 136 171 215 256 303
#
# _framework density 25.212702
#
# number of rings (size 3 to 8) (size 9 to 14) (size 15 to 20)
#    2.400    0.400    0.000    1.800    0.000    4.000 
#    0.000    8.000    8.800    0.000    0.000    0.000 
#    0.000    0.000    0.000    0.000    0.000    0.000 
#
# Total GULP energy -111372.104587 kJ/mol
# GULP energy per Si atom -5568.605229 kJ/mol
# Density = 2.515532 g / cm^3
# Si number density = 25.212702 Si / 1000 Ang^3
#
#
#
# Elastic Constant Matrix: (Units=GPa)
#
#
# Indices 1 2 3 4 5 6 
#
# 1 54.7445 9.5219 26.8947 0.0000 0.4630 0.0000
# 2 9.5219 59.7153 -3.2987 0.0000 1.3709 0.0000
# 3 26.8947 -3.2987 61.6270 0.0000 6.7376 0.0000
# 4 0.0000 0.0000 0.0000 48.8849 0.0000 8.8328
# 5 0.4630 1.3709 6.7376 0.0000 15.3849 0.0000
# 6 0.0000 0.0000 0.0000 8.8328 0.0000 26.1007
#
#
#
# Elastic Compliance Matrix: (Units=1/GPa)
#
#
# Indices 1 2 3 4 5 6 
#
# 1 0.024720 -0.004689 -0.011557 0.000000 0.004735 0.000000
# 2 -0.004689 0.017743 0.003312 0.000000 -0.002890 0.000000
# 3 -0.011557 0.003312 0.022520 0.000000 -0.009809 0.000000
# 4 0.000000 0.000000 0.000000 0.021789 0.000000 -0.007373
# 5 0.004735 -0.002890 -0.009809 0.000000 0.069410 0.000000
# 6 0.000000 0.000000 0.000000 -0.007373 0.000000 0.040808
#
#
# Mechanical properties :
#
#
# Convention : Reuss Voigt Hill
#
# Bulk Modulus (GPa) = 25.56513 26.92474 26.24494
# Shear Modulus (GPa) = 21.19595 27.60536 24.40065
#
# Velocity S-wave (km/s) = 2.90260 3.31252 3.11431
# Velocity P-wave (km/s) = 4.62550 5.03315 4.83362
#
# Compressibility (1/GPa) = 0.03911577
#
# Stress axis : x y z
#
# Youngs Moduli (GPa) = 40.45373 56.36005 44.40546
#
# Poissons Ratio (x) = 0.26426 0.51317
# Poissons Ratio (y) = 0.18968 -0.14707
# Poissons Ratio (z) = 0.46750 -0.18666
#
# Static dielectric constant tensor:
#      x y z
#    x 1.978370 0.000000 -0.015060 
#    y 0.000000 2.122180 0.000000 
#    z -0.015060 0.000000 1.994810 
# 
# From -- ./inp_files/241751.got.cif
#   From: 2010.05.17/outbox.cif.g08.bks.cpg/sg15_121_cif.got.tgz:241751.got - 2010.06.03 18:47:42.
