data_PCOD9300214
_publ_section_title
;
Structure prediction by ZEFSAII (Michael W. Deem and Ramdas Pophale) SiO2 
 PCOD9300214
Probable space group: C 2/C
;
_chemical_formula_sum "Si O2"
_cell_formula_units_Z 32
_cell_length_a 18.616928
_cell_length_b 11.477545
_cell_length_c 11.980071
_cell_angle_alpha 90.000000
_cell_angle_beta 150.779334
_cell_angle_gamma 90.000000
_cell_volume 1249.658907
_symmetry_space_group_name_H-M "C 2/C"
_symmetry_group_IT_number 15
_symmetry_cell_setting 'monoclinic'
loop_
_space_group_symop_operation_xyz
x,y,z
-x,y,1/2-z
-x,-y,-z
x,-y,1/2+z
1/2+x,1/2+y,z
1/2-x,1/2+y,1/2-z
1/2-x,1/2-y,-z
1/2+x,1/2-y,1/2+z
loop_
_atom_site_type_symbol
_atom_site_label
_atom_site_fract_x
_atom_site_fract_y
_atom_site_fract_z
Si Si1 0.254143 0.172455 0.681277
Si Si2 0.500000 0.000000 0.000000
Si Si3 0.693590 0.638743 0.855919
Si Si4 0.000000 0.996465 0.750000
Si Si5 0.843854 0.587776 0.495340
O O1 0.196414 0.172762 0.730501
O O2 0.259668 0.302629 0.640000
O O3 0.137324 0.087551 0.462312
O O4 0.418957 0.125941 0.894044
O O5 0.366103 0.951403 0.898994
O O6 0.547703 0.582037 0.712528
O O7 0.750000 0.750000 0.000000
O O8 0.808200 0.528947 0.017373
O O9 0.000000 0.630012 0.750000
#
# Coordination Sequence:
#
# PCOD9300214 Si02
#       5
#     8   4   8   4   8
#     4  11  26  49  78 112 149 206 260 318 393 465
#     4  10  26  46  72 110 154 192 252 322 380 458
#     4  11  29  46  74 111 157 204 254 321 393 464
#     4  12  26  50  74 110 154 202 260 320 384 460
#     4  11  25  46  77 111 148 201 257 322 388 461
#
# _framework density 25.606987
#
# number of rings (size 3 to 8) (size 9 to 14) (size 15 to 20)
#    0.000    1.000    1.250    2.250   15.750    4.000 
#    0.000    0.000    0.000    0.000    0.000    0.000 
#    0.000    0.000    0.000    0.000    0.000    0.000 
#
# Total GULP energy -89120.658696 kJ/mol
# GULP energy per Si atom -5570.041169 kJ/mol
# Density = 2.554870 g / cm^3
# Si number density = 25.606987 Si / 1000 Ang^3
#
#
#
# Elastic Constant Matrix: (Units=GPa)
#
#
# Indices 1 2 3 4 5 6 
#
# 1 143.8732 63.5168 16.1348 0.0000 6.3279 0.0000
# 2 63.5168 225.2433 44.3330 0.0000 9.1712 0.0000
# 3 16.1348 44.3330 31.3164 0.0000 4.4896 0.0000
# 4 0.0000 0.0000 0.0000 50.1017 0.0000 3.3024
# 5 6.3279 9.1712 4.4896 0.0000 37.0644 0.0000
# 6 0.0000 0.0000 0.0000 3.3024 0.0000 36.4295
#
#
#
# Elastic Compliance Matrix: (Units=1/GPa)
#
#
# Indices 1 2 3 4 5 6 
#
# 1 0.007995 -0.001989 -0.001199 0.000000 -0.000728 0.000000
# 2 -0.001989 0.006657 -0.008358 0.000000 -0.000295 0.000000
# 3 -0.001199 -0.008358 0.044834 0.000000 -0.003158 0.000000
# 4 0.000000 0.000000 0.000000 0.020079 0.000000 -0.001820
# 5 -0.000728 -0.000295 -0.003158 0.000000 0.027560 0.000000
# 6 0.000000 0.000000 0.000000 -0.001820 0.000000 0.027615
#
#
# Mechanical properties :
#
#
# Convention : Reuss Voigt Hill
#
# Bulk Modulus (GPa) = 27.47622 72.04468 49.76045
# Shear Modulus (GPa) = 29.41786 43.14901 36.28344
#
# Velocity S-wave (km/s) = 3.39310 4.10939 3.76830
# Velocity P-wave (km/s) = 5.10922 7.12123 6.19742
#
# Compressibility (1/GPa) = 0.03639511
#
# Stress axis : x y z
#
# Youngs Moduli (GPa) = 125.07640 150.20700 22.30439
#
# Poissons Ratio (x) = 0.29874 0.02675
# Poissons Ratio (y) = 0.24876 0.18641
# Poissons Ratio (z) = 0.15002 1.25537
#
# Static dielectric constant tensor:
#      x y z
#    x 2.181680 0.000000 -0.397950 
#    y 0.000000 1.953240 0.000000 
#    z -0.397950 0.000000 2.575370 
# 
# From -- ./inp_files/167454.got.cif
#   From: 2010.05.17/outbox.cif.g08.bks.cpg/sg15_84_cif.got.tgz:167454.got - 2010.06.03 18:47:42.
