data_PCOD9300258
_publ_section_title
;
Structure prediction by ZEFSAII (Michael W. Deem and Ramdas Pophale) SiO2 
 PCOD9300258
Probable space group: C 2/C
;
_chemical_formula_sum "Si O2"
_cell_formula_units_Z 48
_cell_length_a 14.596443
_cell_length_b 5.041125
_cell_length_c 25.363063
_cell_angle_alpha 90.000000
_cell_angle_beta 84.043180
_cell_angle_gamma 90.000000
_cell_volume 1856.200252
_symmetry_space_group_name_H-M "C 2/C"
_symmetry_group_IT_number 15
_symmetry_cell_setting 'monoclinic'
loop_
_space_group_symop_operation_xyz
x,y,z
-x,y,1/2-z
-x,-y,-z
x,-y,1/2+z
1/2+x,1/2+y,z
1/2-x,1/2+y,1/2-z
1/2-x,1/2-y,-z
1/2+x,1/2-y,1/2+z
loop_
_atom_site_type_symbol
_atom_site_label
_atom_site_fract_x
_atom_site_fract_y
_atom_site_fract_z
Si Si1 0.567534 0.523314 0.790423
Si Si2 0.305347 0.566005 0.810391
Si Si3 0.825216 0.433976 0.379493
Si Si4 0.951441 0.691484 0.460783
Si Si5 0.904986 0.530909 0.653112
Si Si6 0.624658 0.422857 0.938581
O O1 0.500000 0.624288 0.750000
O O2 0.329148 0.854340 0.831709
O O3 0.539574 0.239722 0.814722
O O4 0.567494 0.732496 0.837157
O O5 0.338338 0.353394 0.852670
O O6 0.196842 0.540191 0.817456
O O7 0.340382 0.509889 0.749679
O O8 0.901597 0.528310 0.417278
O O9 0.721745 0.456027 0.411831
O O10 0.000000 0.500000 0.500000
O O11 0.032742 0.896053 0.441011
O O12 0.873173 0.843542 0.499849
O O13 0.893906 0.663209 0.596651
#
# Coordination Sequence:
#
# PCOD9300258 Si02
#       6
#     8   8   8   8   8   8
#     4  12  26  43  71 109 142 186 238 311 370 445
#     4  11  25  47  71 105 138 196 243 300 371 443
#     4  11  26  47  74 104 150 192 250 302 370 455
#     4  11  27  44  75 108 154 192 253 312 373 450
#     4  11  24  46  73  96 147 191 244 297 368 453
#     4  10  26  47  71 111 141 208 245 311 382 441
#
# _framework density 25.859276000000001
#
# number of rings (size 3 to 8) (size 9 to 14) (size 15 to 20)
#    0.000    1.000    0.000    5.000   14.000    0.667 
#    0.000    0.000    0.000    0.000    0.000    0.000 
#    0.000    0.000    0.000    0.000    0.000    0.000 
#
# Total GULP energy -134440.784018 kJ/mol
# GULP energy per Si atom -5601.699334 kJ/mol
# Density = 2.580042 g / cm^3
# Si number density = 25.859276 Si / 1000 Ang^3
#
#
#
# Elastic Constant Matrix: (Units=GPa)
#
#
# Indices 1 2 3 4 5 6 
#
# 1 96.9576 7.8882 14.0113 0.0000 -7.1006 0.0000
# 2 7.8882 83.0382 47.9371 0.0000 -6.9335 0.0000
# 3 14.0113 47.9371 134.3987 0.0000 -13.9152 0.0000
# 4 0.0000 0.0000 0.0000 43.4694 0.0000 10.8541
# 5 -7.1006 -6.9335 -13.9152 0.0000 45.7466 0.0000
# 6 0.0000 0.0000 0.0000 10.8541 0.0000 32.9331
#
#
#
# Elastic Compliance Matrix: (Units=1/GPa)
#
#
# Indices 1 2 3 4 5 6 
#
# 1 0.010563 -0.000423 -0.000813 0.000000 0.001328 0.000000
# 2 -0.000423 0.015202 -0.005314 0.000000 0.000622 0.000000
# 3 -0.000813 -0.005314 0.009627 0.000000 0.001997 0.000000
# 4 0.000000 0.000000 0.000000 0.025068 0.000000 -0.008262
# 5 0.001328 0.000622 0.001997 0.000000 0.022767 0.000000
# 6 0.000000 0.000000 0.000000 -0.008262 0.000000 0.033088
#
#
# Mechanical properties :
#
#
# Convention : Reuss Voigt Hill
#
# Bulk Modulus (GPa) = 44.85725 50.45197 47.65461
# Shear Modulus (GPa) = 36.53739 40.73367 38.63553
#
# Velocity S-wave (km/s) = 3.76298 3.97319 3.86951
# Velocity P-wave (km/s) = 6.02199 6.37188 6.19940
#
# Compressibility (1/GPa) = 0.02229294
#
# Stress axis : x y z
#
# Youngs Moduli (GPa) = 94.67063 65.77900 103.87069
#
# Poissons Ratio (x) = 0.02785 0.08441
# Poissons Ratio (y) = 0.04008 0.55195
# Poissons Ratio (z) = 0.07694 0.34954
#
# Static dielectric constant tensor:
#      x y z
#    x 2.146260 0.000000 -0.172530 
#    y 0.000000 2.065370 0.000000 
#    z -0.172530 0.000000 2.125230 
# 
# From -- ./inp_files/312245.got.cif
#   From: 2010.05.17/outbox.cif.g08.bks.cpg/sg15_157_cif.got.tgz:312245.got - 2010.06.03 18:47:42.
