data_PCOD9300282
_publ_section_title
;
Structure prediction by ZEFSAII (Michael W. Deem and Ramdas Pophale) SiO2 
 PCOD9300282
Probable space group: C 2/C
;
_chemical_formula_sum "Si O2"
_cell_formula_units_Z 44
_cell_length_a 6.015346
_cell_length_b 21.870625
_cell_length_c 21.979167
_cell_angle_alpha 90.000000
_cell_angle_beta 130.551189
_cell_angle_gamma 90.000000
_cell_volume 2197.085019
_symmetry_space_group_name_H-M "C 2/C"
_symmetry_group_IT_number 15
_symmetry_cell_setting 'monoclinic'
loop_
_space_group_symop_operation_xyz
x,y,z
-x,y,1/2-z
-x,-y,-z
x,-y,1/2+z
1/2+x,1/2+y,z
1/2-x,1/2+y,1/2-z
1/2-x,1/2-y,-z
1/2+x,1/2-y,1/2+z
loop_
_atom_site_type_symbol
_atom_site_label
_atom_site_fract_x
_atom_site_fract_y
_atom_site_fract_z
Si Si1 0.220734 0.613718 0.571011
Si Si2 0.716645 0.402107 0.892665
Si Si3 0.679718 0.974777 0.164733
Si Si4 0.581372 0.498914 0.585590
Si Si5 0.169716 0.195553 0.714320
Si Si6 0.500000 0.313397 0.750000
O O1 0.092364 0.585241 0.610630
O O2 0.392649 0.553668 0.579445
O O3 0.441355 0.667516 0.625993
O O4 0.976839 0.627354 0.477908
O O5 0.822466 0.462493 0.874771
O O6 0.497329 0.433068 0.901534
O O7 0.578951 0.355627 0.820934
O O8 0.412837 0.985885 0.161710
O O9 0.000000 0.967024 0.250000
O O10 0.500000 0.500000 0.500000
O O11 0.500000 0.171147 0.750000
O O12 0.233989 0.267686 0.719568
O O13 0.000000 0.184477 0.750000
#
# Coordination Sequence:
#
# PCOD9300282 Si02
#       6
#     8   8   8   8   8   4
#     4  11  23  38  68  98 139 179 238 291 356 425
#     4  11  22  42  66 100 138 180 229 291 360 433
#     4  11  22  37  61 100 142 177 223 278 365 428
#     4  11  21  39  66 105 140 179 224 292 365 442
#     4  10  26  49  69  97 141 186 251 302 350 413
#     4  10  26  48  68  96 142 192 244 294 356 422
#
# _framework density 20.026534000000002
#
# number of rings (size 3 to 8) (size 9 to 14) (size 15 to 20)
#    0.545    0.727    4.545    1.636    5.091    4.364 
#    0.000    0.909    0.000    0.000    0.000    0.000 
#    0.000    0.000    0.000    0.000    0.000    0.000 
#
# Total GULP energy -122488.098257 kJ/mol
# GULP energy per Si atom -5567.640830 kJ/mol
# Density = 1.998095 g / cm^3
# Si number density = 20.026534 Si / 1000 Ang^3
#
#
#
# Elastic Constant Matrix: (Units=GPa)
#
#
# Indices 1 2 3 4 5 6 
#
# 1 88.9461 25.5641 48.7631 0.0000 6.2730 0.0000
# 2 25.5641 109.0064 78.8034 0.0000 2.8630 0.0000
# 3 48.7631 78.8034 181.9040 0.0000 10.1505 0.0000
# 4 0.0000 0.0000 0.0000 16.9414 0.0000 3.0200
# 5 6.2730 2.8630 10.1505 0.0000 27.7163 0.0000
# 6 0.0000 0.0000 0.0000 3.0200 0.0000 14.6881
#
#
#
# Elastic Compliance Matrix: (Units=1/GPa)
#
#
# Indices 1 2 3 4 5 6 
#
# 1 0.013312 -0.000826 -0.003111 0.000000 -0.001788 0.000000
# 2 -0.000826 0.013424 -0.005642 0.000000 0.000867 0.000000
# 3 -0.003111 -0.005642 0.008885 0.000000 -0.001967 0.000000
# 4 0.000000 0.000000 0.000000 0.061273 0.000000 -0.012598
# 5 -0.001788 0.000867 -0.001967 0.000000 0.037115 0.000000
# 6 0.000000 0.000000 0.000000 -0.012598 0.000000 0.070673
#
#
# Mechanical properties :
#
#
# Convention : Reuss Voigt Hill
#
# Bulk Modulus (GPa) = 60.74372 76.23530 68.48951
# Shear Modulus (GPa) = 21.80285 26.98420 24.39352
#
# Velocity S-wave (km/s) = 3.30312 3.67471 3.49386
# Velocity P-wave (km/s) = 6.70410 7.49363 7.10983
#
# Compressibility (1/GPa) = 0.01646261
#
# Stress axis : x y z
#
# Youngs Moduli (GPa) = 75.12154 74.49544 112.54385
#
# Poissons Ratio (x) = 0.06153 0.35011
# Poissons Ratio (y) = 0.06205 0.63500
# Poissons Ratio (z) = 0.23370 0.42032
#
# Static dielectric constant tensor:
#      x y z
#    x 1.783080 0.000000 0.023770 
#    y 0.000000 1.672330 0.000000 
#    z 0.023770 0.000000 1.685210 
# 
# From -- ./inp_files/228005.got.cif
#   From: 2010.05.17/outbox.cif.g08.bks.cpg/sg15_115_cif.got.tgz:228005.got - 2010.06.03 18:47:42.
