data_PCOD9300126
_publ_section_title
;
Structure prediction by ZEFSAII (Michael W. Deem and Ramdas Pophale) SiO2 
 PCOD9300126
Probable space group: C 2/C
;
_chemical_formula_sum "Si O2"
_cell_formula_units_Z 56
_cell_length_a 19.699399
_cell_length_b 5.354479
_cell_length_c 22.221721
_cell_angle_alpha 90.000000
_cell_angle_beta 70.725186
_cell_angle_gamma 90.000000
_cell_volume 2212.560247
_symmetry_space_group_name_H-M "C 2/C"
_symmetry_group_IT_number 15
_symmetry_cell_setting 'monoclinic'
loop_
_space_group_symop_operation_xyz
x,y,z
-x,y,1/2-z
-x,-y,-z
x,-y,1/2+z
1/2+x,1/2+y,z
1/2-x,1/2+y,1/2-z
1/2-x,1/2-y,-z
1/2+x,1/2-y,1/2+z
loop_
_atom_site_type_symbol
_atom_site_label
_atom_site_fract_x
_atom_site_fract_y
_atom_site_fract_z
Si Si1 0.000000 0.307745 0.250000
Si Si2 0.360770 0.680868 0.558453
Si Si3 0.224900 0.930828 0.817632
Si Si4 0.000000 0.500000 0.500000
Si Si5 0.529753 0.158466 0.605423
Si Si6 0.745803 0.548623 0.592303
Si Si7 0.158933 0.219349 0.213420
Si Si8 0.882208 0.162851 0.946278
O O1 0.013060 0.423769 0.179007
O O2 0.074935 0.171658 0.239550
O O3 0.324746 0.631562 0.633335
O O4 0.358535 0.435724 0.518016
O O5 0.440527 0.784882 0.533809
O O6 0.306350 0.881896 0.543517
O O7 0.220183 0.694452 0.861902
O O8 0.196191 0.905659 0.759425
O O9 0.309846 0.000116 0.790747
O O10 0.971151 0.671376 0.569903
O O11 0.570421 0.914185 0.563717
O O12 0.571367 0.424775 0.592727
O O13 0.689905 0.362187 0.640903
O O14 0.690953 0.710626 0.568948
#
# Coordination Sequence:
#
# PCOD9300126 Si02
#       8
#     4   8   8   4   8   8   8   8
#     4  12  26  46  74 112 154 198 254 320 398 456
#     4  10  26  44  75 103 141 197 254 312 386 454
#     4  11  24  43  76 105 145 202 255 313 381 474
#     4  10  26  52  68 106 148 190 250 314 374 466
#     4  11  27  47  76 106 152 197 248 311 389 456
#     4  11  23  45  72 107 143 194 251 313 377 465
#     4  11  24  45  69 109 151 196 251 316 383 464
#     4  11  25  49  71 107 148 192 246 318 379 458
#
# _framework density 25.310047000000001
#
# number of rings (size 3 to 8) (size 9 to 14) (size 15 to 20)
#    0.000    1.143    2.857    1.286    8.000    4.571 
#    5.143    0.000    0.000    0.000    0.000    0.000 
#    0.000    0.000    0.000    0.000    0.000    0.000 
#
# Total GULP energy -155885.811417 kJ/mol
# GULP energy per Si atom -5567.350408 kJ/mol
# Density = 2.525244 g / cm^3
# Si number density = 25.310047 Si / 1000 Ang^3
#
#
#
# Elastic Constant Matrix: (Units=GPa)
#
#
# Indices 1 2 3 4 5 6 
#
# 1 84.8186 4.5524 -8.4029 -0.0088 -10.8081 -0.0286
# 2 4.5524 87.9672 3.1753 -0.0094 -14.6739 -0.0324
# 3 -8.4029 3.1753 87.6279 -0.0022 -4.5251 -0.0003
# 4 -0.0088 -0.0094 -0.0022 35.9805 -0.0021 -9.0840
# 5 -10.8081 -14.6739 -4.5251 -0.0021 41.0603 -0.0060
# 6 -0.0286 -0.0324 -0.0003 -9.0840 -0.0060 -6.2726
#
#
#
# Elastic Compliance Matrix: (Units=1/GPa)
#
#
# Indices 1 2 3 4 5 6 
#
# 1 0.012360 -0.000129 0.001363 -0.000009 0.003358 -0.000047
# 2 -0.000129 0.012094 -0.000230 -0.000010 0.004263 -0.000052
# 3 0.001363 -0.000230 0.011631 -0.000001 0.001558 -0.000006
# 4 -0.000009 -0.000010 -0.000001 0.020352 -0.000009 -0.029473
# 5 0.003358 0.004263 0.001558 -0.000009 0.026933 -0.000050
# 6 -0.000047 -0.000052 -0.000006 -0.029473 -0.000050 -0.116739
#
#
# Mechanical properties :
#
#
# Convention : Reuss Voigt Hill
#
# Bulk Modulus (GPa) = 26.25148 28.78481 27.51815
# Shear Modulus (GPa) = -220.46163 31.55956 -94.45103
#
# Velocity S-wave (km/s) = -9.34310 3.53500 -6.11544
# Velocity P-wave (km/s) = 10.29548 5.29710 6.24250
#
# Compressibility (1/GPa) = 0.03809309
#
# Stress axis : x y z
#
# Youngs Moduli (GPa) = 80.90838 82.68624 85.97386
#
# Poissons Ratio (x) = 0.01065 -0.11720
# Poissons Ratio (y) = 0.01042 0.01981
# Poissons Ratio (z) = -0.11030 0.01905
#
# Static dielectric constant tensor:
#      x y z
#    x 1.606150 0.000010 -0.205060 
#    y 0.000010 2.058520 0.000000 
#    z -0.205060 0.000000 1.940080 
# 
# From -- ./inp_files/278946.got.cif
#   From: 2010.05.17/outbox.cif.g08.bks.cpg/sg15_140_cif.got.tgz:278946.got - 2010.06.03 18:47:42.
