data_PCOD9300913
_publ_section_title
;
Structure prediction by ZEFSAII (Michael W. Deem and Ramdas Pophale) SiO2 
 PCOD9300913
Probable space group: C 2/C
;
_chemical_formula_sum "Si O2"
_cell_formula_units_Z 52
_cell_length_a 16.196159
_cell_length_b 23.206092
_cell_length_c 8.811469
_cell_angle_alpha 90.000000
_cell_angle_beta 59.552363
_cell_angle_gamma 90.000000
_cell_volume 2855.066958
_symmetry_space_group_name_H-M "C 2/C"
_symmetry_group_IT_number 15
_symmetry_cell_setting 'monoclinic'
loop_
_space_group_symop_operation_xyz
x,y,z
-x,y,1/2-z
-x,-y,-z
x,-y,1/2+z
1/2+x,1/2+y,z
1/2-x,1/2+y,1/2-z
1/2-x,1/2-y,-z
1/2+x,1/2-y,1/2+z
loop_
_atom_site_type_symbol
_atom_site_label
_atom_site_fract_x
_atom_site_fract_y
_atom_site_fract_z
Si Si1 0.113642 0.167021 0.408207
Si Si2 0.190654 0.284601 0.847744
Si Si3 0.660808 0.441612 0.400640
Si Si4 0.218261 0.668613 0.662897
Si Si5 0.106895 0.053769 0.610125
Si Si6 0.480059 0.782281 0.085610
Si Si7 0.000000 0.113497 0.250000
O O1 0.224263 0.185054 0.322094
O O2 0.095173 0.114484 0.537114
O O3 0.052084 0.225065 0.474008
O O4 0.081733 0.146669 0.268827
O O5 0.210269 0.215545 0.825710
O O6 0.208562 0.307144 0.001959
O O7 0.081002 0.300261 0.919958
O O8 0.740928 0.395593 0.374770
O O9 0.663672 0.507208 0.456420
O O10 0.657795 0.439980 0.223196
O O11 0.560731 0.419342 0.565735
O O12 0.111813 0.675881 0.831814
O O13 0.000000 0.032313 0.750000
O O14 0.500000 0.770799 0.250000
#
# Coordination Sequence:
#
# PCOD9300913 Si02
#       7
#     8   8   8   8   8   8   4
#     4  11  20  33  56  85 115 149 183 229 279 334
#     4   9  17  31  55  89 110 145 187 226 284 332
#     4  12  23  38  54  81 115 149 190 231 278 336
#     4   9  18  31  56  83 114 146 185 233 278 331
#     4  12  25  37  54  82 117 153 187 228 287 331
#     4   9  17  32  56  90 114 146 188 231 275 337
#     4  12  18  32  58  76 114 148 176 234 266 334
#
# _framework density 18.213234
#
# number of rings (size 3 to 8) (size 9 to 14) (size 15 to 20)
#    0.000    1.538    4.615    3.231    0.000    0.000 
#    0.000    3.077    0.000    0.923    0.000    0.000 
#    0.000    0.000    0.000    0.000    0.000    0.000 
#
# Total GULP energy -144849.494074 kJ/mol
# GULP energy per Si atom -5571.134387 kJ/mol
# Density = 1.817178 g / cm^3
# Si number density = 18.213234 Si / 1000 Ang^3
#
#
#
# Elastic Constant Matrix: (Units=GPa)
#
#
# Indices 1 2 3 4 5 6 
#
# 1 69.4557 38.0479 37.4251 0.0000 -24.4265 0.0000
# 2 38.0479 89.8076 32.0481 0.0000 -8.6470 0.0000
# 3 37.4251 32.0481 44.5587 0.0000 -8.8123 0.0000
# 4 0.0000 0.0000 0.0000 -9.5900 0.0000 -10.7134
# 5 -24.4265 -8.6470 -8.8123 0.0000 32.4605 0.0000
# 6 0.0000 0.0000 0.0000 -10.7134 0.0000 6.5415
#
#
#
# Elastic Compliance Matrix: (Units=1/GPa)
#
#
# Indices 1 2 3 4 5 6 
#
# 1 0.036861 -0.005453 -0.023078 0.000000 0.020020 0.000000
# 2 -0.005453 0.015825 -0.007164 0.000000 -0.001833 0.000000
# 3 -0.023078 -0.007164 0.045616 0.000000 -0.006891 0.000000
# 4 0.000000 0.000000 0.000000 -0.036851 0.000000 -0.060354
# 5 0.020020 -0.001833 -0.006891 0.000000 0.043513 0.000000
# 6 0.000000 0.000000 0.000000 -0.060354 0.000000 0.054025
#
#
# Mechanical properties :
#
#
# Convention : Reuss Voigt Hill
#
# Bulk Modulus (GPa) = 37.16036 46.54047 41.85041
# Shear Modulus (GPa) = 20.88977 12.30245 16.59611
#
# Velocity S-wave (km/s) = 3.39035 2.60180 3.02190
# Velocity P-wave (km/s) = 5.98107 5.88510 5.93328
#
# Compressibility (1/GPa) = 0.02691040
#
# Stress axis : x y z
#
# Youngs Moduli (GPa) = 27.12871 63.18946 21.92216
#
# Poissons Ratio (x) = 0.34460 0.50593
# Poissons Ratio (y) = 0.14795 0.15706
# Poissons Ratio (z) = 0.62609 0.45271
#
# Static dielectric constant tensor:
#      x y z
#    x 1.641270 0.000000 0.004470 
#    y 0.000000 1.650470 0.000000 
#    z 0.004470 0.000000 1.647310 
# 
# From -- ./inp_files/42046.got.cif
#   From: 2010.05.17/outbox.cif.g08.bks.cpg/sg15_22_cif.got.tgz:42046.got - 2010.06.03 18:47:42.
