data_PCOD9300241
_publ_section_title
;
Structure prediction by ZEFSAII (Michael W. Deem and Ramdas Pophale) SiO2 
 PCOD9300241
Probable space group: C 2/C
;
_chemical_formula_sum "Si O2"
_cell_formula_units_Z 44
_cell_length_a 17.174862
_cell_length_b 9.904208
_cell_length_c 11.712148
_cell_angle_alpha 90.000000
_cell_angle_beta 60.331283
_cell_angle_gamma 90.000000
_cell_volume 1731.092631
_symmetry_space_group_name_H-M "C 2/C"
_symmetry_group_IT_number 15
_symmetry_cell_setting 'monoclinic'
loop_
_space_group_symop_operation_xyz
x,y,z
-x,y,1/2-z
-x,-y,-z
x,-y,1/2+z
1/2+x,1/2+y,z
1/2-x,1/2+y,1/2-z
1/2-x,1/2-y,-z
1/2+x,1/2-y,1/2+z
loop_
_atom_site_type_symbol
_atom_site_label
_atom_site_fract_x
_atom_site_fract_y
_atom_site_fract_z
Si Si1 0.563318 0.254797 0.961808
Si Si2 0.427244 0.278107 0.885613
Si Si3 0.330086 0.967689 0.360050
Si Si4 0.653869 0.534988 0.863706
Si Si5 0.744562 0.860600 0.402576
Si Si6 0.000000 0.337159 0.750000
O O1 0.490177 0.194149 0.928605
O O2 0.588332 0.407859 0.909246
O O3 0.658150 0.180306 0.892125
O O4 0.526360 0.245343 0.117449
O O5 0.500000 0.346869 0.750000
O O6 0.364820 0.183993 0.853782
O O7 0.375201 0.374144 0.008689
O O8 0.255981 0.005823 0.320064
O O9 0.280642 0.002604 0.515140
O O10 0.415284 0.065434 0.286894
O O11 0.667531 0.618353 0.737224
O O12 0.750000 0.750000 0.500000
#
# Coordination Sequence:
#
# PCOD9300241 Si02
#       6
#     8   8   8   8   8   4
#     4  11  27  46  76 109 152 200 253 317 382 454
#     4  12  28  46  71 110 152 197 254 316 383 445
#     4  11  25  48  76 106 148 199 258 312 372 464
#     4  12  28  45  78 107 154 201 252 317 384 457
#     4  11  26  46  76 106 146 197 258 307 379 455
#     4  10  26  46  78 106 150 194 258 306 384 448
#
# _framework density 25.417473000000001
#
# number of rings (size 3 to 8) (size 9 to 14) (size 15 to 20)
#    0.000    0.727    2.727    2.182   14.000    1.455 
#    0.000    0.000    0.000    0.000    0.000    0.000 
#    0.000    0.000    0.000    0.000    0.000    0.000 
#
# Total GULP energy -123173.155822 kJ/mol
# GULP energy per Si atom -5598.779810 kJ/mol
# Density = 2.535962 g / cm^3
# Si number density = 25.417473 Si / 1000 Ang^3
#
#
#
# Elastic Constant Matrix: (Units=GPa)
#
#
# Indices 1 2 3 4 5 6 
#
# 1 96.4944 -2.9668 -1.0538 0.0000 1.4605 0.0000
# 2 -2.9668 56.2938 50.4580 0.0000 -12.1428 0.0000
# 3 -1.0538 50.4580 197.8872 0.0000 -16.9846 0.0000
# 4 0.0000 0.0000 0.0000 36.3102 0.0000 1.1867
# 5 1.4605 -12.1428 -16.9846 0.0000 42.0582 0.0000
# 6 0.0000 0.0000 0.0000 1.1867 0.0000 32.6758
#
#
#
# Elastic Compliance Matrix: (Units=1/GPa)
#
#
# Indices 1 2 3 4 5 6 
#
# 1 0.010384 0.000603 -0.000119 0.000000 -0.000234 0.000000
# 2 0.000603 0.023887 -0.005695 0.000000 0.004576 0.000000
# 3 -0.000119 -0.005695 0.006593 0.000000 0.001022 0.000000
# 4 0.000000 0.000000 0.000000 0.027573 0.000000 -0.001001
# 5 -0.000234 0.004576 0.001022 0.000000 0.025519 0.000000
# 6 0.000000 0.000000 0.000000 -0.001001 0.000000 0.030640
#
#
# Mechanical properties :
#
#
# Convention : Reuss Voigt Hill
#
# Bulk Modulus (GPa) = 32.84830 49.28336 41.06583
# Shear Modulus (GPa) = 34.44368 42.49137 38.46753
#
# Velocity S-wave (km/s) = 3.68519 4.09313 3.89450
# Velocity P-wave (km/s) = 5.57306 6.46296 6.03444
#
# Compressibility (1/GPa) = 0.03044298
#
# Stress axis : x y z
#
# Youngs Moduli (GPa) = 96.30118 41.86331 151.68528
#
# Poissons Ratio (x) = -0.02524 0.01799
# Poissons Ratio (y) = -0.05807 0.86383
# Poissons Ratio (z) = 0.01142 0.23841
#
# Static dielectric constant tensor:
#      x y z
#    x 2.047140 0.000000 0.024560 
#    y 0.000000 2.020050 0.000000 
#    z 0.024560 0.000000 2.053410 
# 
# From -- ./inp_files/104089.got.cif
#   From: 2010.05.17/outbox.cif.g08.bks.cpg/sg15_53_cif.got.tgz:104089.got - 2010.06.03 18:47:42.
