data_PCOD9300352
_publ_section_title
;
Structure prediction by ZEFSAII (Michael W. Deem and Ramdas Pophale) SiO2 
 PCOD9300352
Probable space group: C 2/C
;
_chemical_formula_sum "Si O2"
_cell_formula_units_Z 52
_cell_length_a 21.085449
_cell_length_b 8.094828
_cell_length_c 14.873469
_cell_angle_alpha 90.000000
_cell_angle_beta 107.091921
_cell_angle_gamma 90.000000
_cell_volume 2426.528732
_symmetry_space_group_name_H-M "C 2/C"
_symmetry_group_IT_number 15
_symmetry_cell_setting 'monoclinic'
loop_
_space_group_symop_operation_xyz
x,y,z
-x,y,1/2-z
-x,-y,-z
x,-y,1/2+z
1/2+x,1/2+y,z
1/2-x,1/2+y,1/2-z
1/2-x,1/2-y,-z
1/2+x,1/2-y,1/2+z
loop_
_atom_site_type_symbol
_atom_site_label
_atom_site_fract_x
_atom_site_fract_y
_atom_site_fract_z
Si Si1 0.294528 0.401128 0.090612
Si Si2 0.399645 0.879413 0.605414
Si Si3 0.000000 0.851619 0.250000
Si Si4 0.341913 0.021636 0.416770
Si Si5 0.648602 0.095383 0.764818
Si Si6 0.381679 0.457945 0.787167
Si Si7 0.203920 0.887284 0.090797
O O1 0.332173 0.228142 0.093360
O O2 0.220469 0.396859 0.098779
O O3 0.335621 0.498015 0.182801
O O4 0.294250 0.502145 0.997729
O O5 0.457833 0.762752 0.664622
O O6 0.398556 0.945997 0.503564
O O7 0.393765 0.034779 0.668885
O O8 0.048233 0.963636 0.209729
O O9 0.317694 0.200155 0.441006
O O10 0.355576 0.038123 0.316945
O O11 0.620261 0.261305 0.709658
O O12 0.724202 0.115808 0.830753
O O13 0.348801 0.536597 0.861474
#
# Coordination Sequence:
#
# PCOD9300352 Si02
#       7
#     8   8   4   8   8   8   8
#     4  11  21  37  63  97 135 167 201 265 332 384
#     4  11  25  42  64  94 131 172 221 264 317 389
#     4  10  26  50  64  82 130 186 220 266 316 378
#     4  12  22  36  63 102 134 164 211 263 331 388
#     4  12  23  38  68 102 132 165 211 273 332 385
#     4  11  24  43  64  91 132 174 217 263 321 384
#     4  12  22  39  65 105 139 162 207 267 337 390
#
# _framework density 21.429791999999999
#
# number of rings (size 3 to 8) (size 9 to 14) (size 15 to 20)
#    0.000    0.615    4.615    4.615    2.154    0.615 
#    0.000   10.000    0.000    0.000    0.000    0.000 
#    0.000    0.000    0.000    0.000    0.000    0.000 
#
# Total GULP energy -145470.970289 kJ/mol
# GULP energy per Si atom -5595.037319 kJ/mol
# Density = 2.138102 g / cm^3
# Si number density = 21.429792 Si / 1000 Ang^3
#
#
#
# Elastic Constant Matrix: (Units=GPa)
#
#
# Indices 1 2 3 4 5 6 
#
# 1 67.6550 0.5646 16.1629 0.0000 -1.5800 0.0000
# 2 0.5646 60.5180 3.3910 0.0000 8.1949 0.0000
# 3 16.1629 3.3910 95.8461 0.0000 -14.1986 0.0000
# 4 0.0000 0.0000 0.0000 39.3112 0.0000 -2.5743
# 5 -1.5800 8.1949 -14.1986 0.0000 25.7337 0.0000
# 6 0.0000 0.0000 0.0000 -2.5743 0.0000 19.4352
#
#
#
# Elastic Compliance Matrix: (Units=1/GPa)
#
#
# Indices 1 2 3 4 5 6 
#
# 1 0.015408 0.000083 -0.002684 0.000000 -0.000561 0.000000
# 2 0.000083 0.017484 -0.001586 0.000000 -0.006438 0.000000
# 3 -0.002684 -0.001586 0.011971 0.000000 0.006945 0.000000
# 4 0.000000 0.000000 0.000000 0.025661 0.000000 0.003399
# 5 -0.000561 -0.006438 0.006945 0.000000 0.044707 0.000000
# 6 0.000000 0.000000 0.000000 0.003399 0.000000 0.051903
#
#
# Mechanical properties :
#
#
# Convention : Reuss Voigt Hill
#
# Bulk Modulus (GPa) = 27.40676 29.36181 28.38429
# Shear Modulus (GPa) = 26.64207 30.48938 28.56573
#
# Velocity S-wave (km/s) = 3.52977 3.77604 3.65498
# Velocity P-wave (km/s) = 5.42487 5.72210 5.57546
#
# Compressibility (1/GPa) = 0.03648734
#
# Stress axis : x y z
#
# Youngs Moduli (GPa) = 64.89967 57.19550 83.53460
#
# Poissons Ratio (x) = -0.00473 0.22425
# Poissons Ratio (y) = -0.00537 0.13250
# Poissons Ratio (z) = 0.17422 0.09072
#
# Static dielectric constant tensor:
#      x y z
#    x 1.759630 0.000000 0.014300 
#    y 0.000000 1.789110 0.000000 
#    z 0.014300 0.000000 1.749670 
# 
# From -- ./inp_files/172057.got.cif
#   From: 2010.05.17/outbox.cif.g08.bks.cpg/sg15_87_cif.got.tgz:172057.got - 2010.06.03 18:47:42.
