data_PCOD9300989
_publ_section_title
;
Structure prediction by ZEFSAII (Michael W. Deem and Ramdas Pophale) SiO2 
 PCOD9300989
Probable space group: C 2/C
;
_chemical_formula_sum "Si O2"
_cell_formula_units_Z 36
_cell_length_a 10.332286
_cell_length_b 29.215571
_cell_length_c 8.480269
_cell_angle_alpha 90.000000
_cell_angle_beta 141.447689
_cell_angle_gamma 90.000000
_cell_volume 1595.394200
_symmetry_space_group_name_H-M "C 2/C"
_symmetry_group_IT_number 15
_symmetry_cell_setting 'monoclinic'
loop_
_space_group_symop_operation_xyz
x,y,z
-x,y,1/2-z
-x,-y,-z
x,-y,1/2+z
1/2+x,1/2+y,z
1/2-x,1/2+y,1/2-z
1/2-x,1/2-y,-z
1/2+x,1/2-y,1/2+z
loop_
_atom_site_type_symbol
_atom_site_label
_atom_site_fract_x
_atom_site_fract_y
_atom_site_fract_z
Si Si1 0.355909 0.371492 0.259341
Si Si2 0.661184 0.287405 0.791120
Si Si3 0.500000 0.929743 0.750000
Si Si4 0.544967 0.203204 0.479582
Si Si5 0.903516 0.044783 0.483805
O O1 0.500000 0.356539 0.250000
O O2 0.244936 0.326481 0.217307
O O3 0.500337 0.407525 0.492297
O O4 0.157211 0.399085 0.001598
O O5 0.500000 0.313341 0.750000
O O6 0.576325 0.255136 0.568995
O O7 0.750000 0.250000 0.000000
O O8 0.846835 0.315085 0.888774
O O9 0.343982 0.955654 0.721817
O O10 0.500000 0.201646 0.250000
O O11 0.000000 0.000000 0.500000
O O12 0.000000 0.045222 0.750000
#
# Coordination Sequence:
#
# PCOD9300989 Si02
#       5
#     8   8   4   8   8
#     4   9  19  33  56  88 118 144 190 253 301 330
#     4   9  21  39  55  78 122 167 187 235 323 362
#     4   8  16  36  56  82 120 152 174 246 306 328
#     4  11  20  35  62  87 111 151 215 254 279 355
#     4   9  19  35  61  84 114 154 190 233 298 358
#
# _framework density 22.564957
#
# number of rings (size 3 to 8) (size 9 to 14) (size 15 to 20)
#    0.000    3.111    1.111    0.667    0.000    8.000 
#    0.000    0.000   22.000    0.000    0.000    0.000 
#    0.000    0.000    0.000    0.000    0.000    0.000 
#
# Total GULP energy -100277.071623 kJ/mol
# GULP energy per Si atom -5570.948423 kJ/mol
# Density = 2.251360 g / cm^3
# Si number density = 22.564957 Si / 1000 Ang^3
#
#
#
# Elastic Constant Matrix: (Units=GPa)
#
#
# Indices 1 2 3 4 5 6 
#
# 1 201.5133 74.5440 41.5167 0.0000 48.3931 0.0000
# 2 74.5440 101.0651 24.8561 0.0000 21.8872 0.0000
# 3 41.5167 24.8561 69.5418 0.0000 7.6756 0.0000
# 4 0.0000 0.0000 0.0000 19.2733 0.0000 9.1172
# 5 48.3931 21.8872 7.6756 0.0000 45.5030 0.0000
# 6 0.0000 0.0000 0.0000 9.1172 0.0000 38.2167
#
#
#
# Elastic Compliance Matrix: (Units=1/GPa)
#
#
# Indices 1 2 3 4 5 6 
#
# 1 0.008787 -0.004282 -0.002966 0.000000 -0.006785 0.000000
# 2 -0.004282 0.013995 -0.002247 0.000000 -0.001798 0.000000
# 3 -0.002966 -0.002247 0.016799 0.000000 0.001402 0.000000
# 4 0.000000 0.000000 0.000000 0.058485 0.000000 -0.013953
# 5 -0.006785 -0.001798 0.001402 0.000000 0.029821 0.000000
# 6 0.000000 0.000000 0.000000 -0.013953 0.000000 0.029495
#
#
# Mechanical properties :
#
#
# Convention : Reuss Voigt Hill
#
# Bulk Modulus (GPa) = 48.56776 72.66154 60.61465
# Shear Modulus (GPa) = 27.28682 36.01218 31.64950
#
# Velocity S-wave (km/s) = 3.48121 3.99925 3.74919
# Velocity P-wave (km/s) = 6.14237 7.32095 6.75740
#
# Compressibility (1/GPa) = 0.02058979
#
# Stress axis : x y z
#
# Youngs Moduli (GPa) = 113.80279 71.45239 59.52621
#
# Poissons Ratio (x) = 0.30598 0.17658
# Poissons Ratio (y) = 0.48733 0.13377
# Poissons Ratio (z) = 0.33759 0.16057
#
# Static dielectric constant tensor:
#      x y z
#    x 1.924030 0.000000 0.065170 
#    y 0.000000 1.994440 0.000000 
#    z 0.065170 0.000000 1.929550 
# 
# From -- ./inp_files/34926.got.cif
#   From: 2010.05.17/outbox.cif.g08.bks.cpg/sg15_18_cif.got.tgz:34926.got - 2010.06.03 18:47:42.
