data_PCOD9300416
_publ_section_title
;
Structure prediction by ZEFSAII (Michael W. Deem and Ramdas Pophale) SiO2 
 PCOD9300416
Probable space group: C 2/C
;
_chemical_formula_sum "Si O2"
_cell_formula_units_Z 56
_cell_length_a 7.923178
_cell_length_b 12.314215
_cell_length_c 19.980437
_cell_angle_alpha 90.000000
_cell_angle_beta 106.525811
_cell_angle_gamma 90.000000
_cell_volume 1868.917330
_symmetry_space_group_name_H-M "C 2/C"
_symmetry_group_IT_number 15
_symmetry_cell_setting 'monoclinic'
loop_
_space_group_symop_operation_xyz
x,y,z
-x,y,1/2-z
-x,-y,-z
x,-y,1/2+z
1/2+x,1/2+y,z
1/2-x,1/2+y,1/2-z
1/2-x,1/2-y,-z
1/2+x,1/2-y,1/2+z
loop_
_atom_site_type_symbol
_atom_site_label
_atom_site_fract_x
_atom_site_fract_y
_atom_site_fract_z
Si Si1 0.694620 0.255692 0.782176
Si Si2 0.135304 0.825734 0.074203
Si Si3 0.367549 0.059011 0.817496
Si Si4 0.671900 0.119399 0.323287
Si Si5 0.964720 0.005486 0.643928
Si Si6 0.204267 0.496319 0.001979
Si Si7 0.859285 0.281377 0.442860
O O1 0.500000 0.303377 0.750000
O O2 0.745615 0.251812 0.865710
O O3 0.829884 0.310676 0.746087
O O4 0.667875 0.134275 0.750253
O O5 0.469294 0.734596 0.997840
O O6 0.017233 0.876336 0.120959
O O7 0.232971 0.931882 0.053583
O O8 0.483959 0.965826 0.674712
O O9 0.174865 0.012190 0.812589
O O10 0.409005 0.140087 0.884473
O O11 0.853215 0.054719 0.332619
O O12 0.727995 0.198987 0.389755
O O13 0.839019 0.958220 0.571842
O O14 0.227619 0.365516 0.013213
O O15 0.000000 0.500000 0.000000
#
# Coordination Sequence:
#
# PCOD9300416 Si02
#       7
#     8   8   8   8   8   8   8
#     4  11  28  55  88 131 184 245 312 382 468 568
#     4  12  27  53  91 134 193 239 309 390 468 552
#     4  10  26  56  94 132 182 246 315 385 462 561
#     4  11  25  57  94 127 186 240 315 386 456 561
#     4  11  26  51  90 128 180 241 303 387 455 544
#     4  11  27  47  86 133 183 239 297 383 463 541
#     4  10  26  52  90 135 179 240 311 376 468 554
#
# _framework density 29.963874000000001
#
# number of rings (size 3 to 8) (size 9 to 14) (size 15 to 20)
#    0.000    1.143    1.429    1.286   10.000    5.714 
#    7.714   14.286    0.000    0.000    0.000    0.000 
#    0.000    0.000    0.000    0.000    0.000    0.000 
#
# Total GULP energy -156763.314624 kJ/mol
# GULP energy per Si atom -5598.689808 kJ/mol
# Density = 2.989567 g / cm^3
# Si number density = 29.963874 Si / 1000 Ang^3
#
#
#
# Elastic Constant Matrix: (Units=GPa)
#
#
# Indices 1 2 3 4 5 6 
#
# 1 230.3020 111.5610 44.1221 0.0000 2.6221 0.0000
# 2 111.5610 212.3504 117.3273 0.0000 1.2280 0.0000
# 3 44.1221 117.3273 214.1816 0.0000 -8.9605 0.0000
# 4 0.0000 0.0000 0.0000 75.0440 0.0000 -9.6233
# 5 2.6221 1.2280 -8.9605 0.0000 45.7065 0.0000
# 6 0.0000 0.0000 0.0000 -9.6233 0.0000 74.8408
#
#
#
# Elastic Compliance Matrix: (Units=1/GPa)
#
#
# Indices 1 2 3 4 5 6 
#
# 1 0.005895 -0.003475 0.000684 0.000000 -0.000111 0.000000
# 2 -0.003475 0.008839 -0.004162 0.000000 -0.000854 0.000000
# 3 0.000684 -0.004162 0.006867 0.000000 0.001419 0.000000
# 4 0.000000 0.000000 0.000000 0.013549 0.000000 0.001742
# 5 -0.000111 -0.000854 0.001419 0.000000 0.022186 0.000000
# 6 0.000000 0.000000 0.000000 0.001742 0.000000 0.013586
#
#
# Mechanical properties :
#
#
# Convention : Reuss Voigt Hill
#
# Bulk Modulus (GPa) = 129.91869 133.65054 131.78461
# Shear Modulus (GPa) = 57.21267 64.70649 60.95958
#
# Velocity S-wave (km/s) = 4.37440 4.65207 4.51537
# Velocity P-wave (km/s) = 8.30460 8.57650 8.44164
#
# Compressibility (1/GPa) = 0.00769712
#
# Stress axis : x y z
#
# Youngs Moduli (GPa) = 169.62149 113.13250 145.61912
#
# Poissons Ratio (x) = 0.39310 -0.09965
# Poissons Ratio (y) = 0.58939 0.60606
# Poissons Ratio (z) = -0.11607 0.47086
#
# Static dielectric constant tensor:
#      x y z
#    x 2.534650 0.000000 0.043660 
#    y 0.000000 2.487750 0.000000 
#    z 0.043660 0.000000 2.453850 
# 
# From -- ./inp_files/264410.got.cif
#   From: 2010.05.17/outbox.cif.g08.bks.cpg/sg15_133_cif.got.tgz:264410.got - 2010.06.03 18:47:42.
