data_PCOD9300856
_publ_section_title
;
Structure prediction by ZEFSAII (Michael W. Deem and Ramdas Pophale) SiO2 
 PCOD9300856
Probable space group: C 2/C
;
_chemical_formula_sum "Si O2"
_cell_formula_units_Z 64
_cell_length_a 18.316971
_cell_length_b 10.927660
_cell_length_c 14.660727
_cell_angle_alpha 90.000000
_cell_angle_beta 90.209290
_cell_angle_gamma 90.000000
_cell_volume 2934.495455
_symmetry_space_group_name_H-M "C 2/C"
_symmetry_group_IT_number 15
_symmetry_cell_setting 'monoclinic'
loop_
_space_group_symop_operation_xyz
x,y,z
-x,y,1/2-z
-x,-y,-z
x,-y,1/2+z
1/2+x,1/2+y,z
1/2-x,1/2+y,1/2-z
1/2-x,1/2-y,-z
1/2+x,1/2-y,1/2+z
loop_
_atom_site_type_symbol
_atom_site_label
_atom_site_fract_x
_atom_site_fract_y
_atom_site_fract_z
Si Si1 0.593873 0.839072 0.391464
Si Si2 0.938055 0.771101 0.904999
Si Si3 0.826277 0.804857 0.275125
Si Si4 0.560108 0.447365 0.122278
Si Si5 0.681176 0.900308 0.570914
Si Si6 0.665413 0.119355 0.713321
Si Si7 0.406985 0.675196 0.610296
Si Si8 0.348695 0.584082 0.060047
O O1 0.507632 0.816586 0.394974
O O2 0.625837 0.890603 0.486307
O O3 0.619084 0.913230 0.303193
O O4 0.630324 0.703370 0.382215
O O5 0.874950 0.731553 0.836276
O O6 0.960827 0.910498 0.881923
O O7 0.910056 0.769695 0.009079
O O8 0.878220 0.917420 0.304273
O O9 0.824695 0.715569 0.361660
O O10 0.745994 0.846082 0.247197
O O11 0.866967 0.747288 0.187532
O O12 0.489536 0.363275 0.135143
O O13 0.596746 0.416270 0.025502
O O14 0.763907 0.905451 0.533436
O O15 0.668427 0.015009 0.636789
O O16 0.362109 0.547653 0.604437
#
# Coordination Sequence:
#
# PCOD9300856 Si02
#       8
#     8   8   8   8   8   8   8   8
#     4  12  23  47  74  98 136 184 236 287 337 415
#     4  11  25  45  71 104 137 177 239 290 347 406
#     4  12  25  41  66 103 144 183 225 283 352 411
#     4  11  22  41  73 110 132 175 230 300 353 391
#     4  12  26  47  67 101 147 187 232 275 347 426
#     4  12  29  43  67 105 137 191 231 279 344 419
#     4  11  22  41  70 108 143 168 227 301 357 392
#     4  11  19  41  70 101 134 174 224 285 347 405
#
# _framework density 21.809540999999999
#
# number of rings (size 3 to 8) (size 9 to 14) (size 15 to 20)
#    0.000    0.500    6.250    2.625    3.500    3.000 
#    0.000    3.750    0.000    0.000    0.000    0.000 
#    0.000    0.000    0.000    0.000    0.000    0.000 
#
# Total GULP energy -179055.882306 kJ/mol
# GULP energy per Si atom -5595.496322 kJ/mol
# Density = 2.175990 g / cm^3
# Si number density = 21.809541 Si / 1000 Ang^3
#
#
#
# Elastic Constant Matrix: (Units=GPa)
#
#
# Indices 1 2 3 4 5 6 
#
# 1 92.0185 9.6758 54.8968 0.0000 10.8584 0.0000
# 2 9.6758 35.7524 27.3293 0.0000 -3.1261 0.0000
# 3 54.8968 27.3293 126.2881 0.0000 7.1061 0.0000
# 4 0.0000 0.0000 0.0000 12.6605 0.0000 6.0476
# 5 10.8584 -3.1261 7.1061 0.0000 41.3637 0.0000
# 6 0.0000 0.0000 0.0000 6.0476 0.0000 23.7191
#
#
#
# Elastic Compliance Matrix: (Units=1/GPa)
#
#
# Indices 1 2 3 4 5 6 
#
# 1 0.015010 0.000676 -0.006515 0.000000 -0.002770 0.000000
# 2 0.000676 0.034152 -0.007896 0.000000 0.003760 0.000000
# 3 -0.006515 -0.007896 0.012518 0.000000 -0.001037 0.000000
# 4 0.000000 0.000000 0.000000 0.089939 0.000000 -0.022931
# 5 -0.002770 0.003760 -0.001037 0.000000 0.025365 0.000000
# 6 0.000000 0.000000 0.000000 -0.022931 0.000000 0.048007
#
#
# Mechanical properties :
#
#
# Convention : Reuss Voigt Hill
#
# Bulk Modulus (GPa) = 29.23230 48.65143 38.94187
# Shear Modulus (GPa) = 18.94916 26.35915 22.65416
#
# Velocity S-wave (km/s) = 2.95082 3.48027 3.22643
# Velocity P-wave (km/s) = 5.00423 6.20529 5.63684
#
# Compressibility (1/GPa) = 0.03420873
#
# Stress axis : x y z
#
# Youngs Moduli (GPa) = 66.62207 29.28115 79.88764
#
# Poissons Ratio (x) = -0.01979 0.52048
# Poissons Ratio (y) = -0.04503 0.63079
# Poissons Ratio (z) = 0.43406 0.23120
#
# Static dielectric constant tensor:
#      x y z
#    x 1.764210 0.000000 -0.017690 
#    y 0.000000 1.835070 0.000000 
#    z -0.017690 0.000000 1.836780 
# 
# From -- ./inp_files/161339.got.cif
#   From: 2010.05.17/outbox.cif.g08.bks.cpg/sg15_81_cif.got.tgz:161339.got - 2010.06.03 18:47:42.
