data_PCOD9300168
_publ_section_title
;
Structure prediction by ZEFSAII (Michael W. Deem and Ramdas Pophale) SiO2 
 PCOD9300168
Probable space group: C 2/C
;
_chemical_formula_sum "Si O2"
_cell_formula_units_Z 44
_cell_length_a 32.064828
_cell_length_b 5.198650
_cell_length_c 20.635856
_cell_angle_alpha 90.000000
_cell_angle_beta 146.567623
_cell_angle_gamma 90.000000
_cell_volume 1895.204469
_symmetry_space_group_name_H-M "C 2/C"
_symmetry_group_IT_number 15
_symmetry_cell_setting 'monoclinic'
loop_
_space_group_symop_operation_xyz
x,y,z
-x,y,1/2-z
-x,-y,-z
x,-y,1/2+z
1/2+x,1/2+y,z
1/2-x,1/2+y,1/2-z
1/2-x,1/2-y,-z
1/2+x,1/2-y,1/2+z
loop_
_atom_site_type_symbol
_atom_site_label
_atom_site_fract_x
_atom_site_fract_y
_atom_site_fract_z
Si Si1 0.500000 0.786772 0.250000
Si Si2 0.788557 0.967494 0.485781
Si Si3 0.374569 0.032136 0.261912
Si Si4 0.078954 0.969596 0.738408
Si Si5 0.301486 0.906235 0.807706
Si Si6 0.351638 0.972753 0.506946
O O1 0.484510 0.608292 0.291989
O O2 0.571874 0.964894 0.355982
O O3 0.700917 0.030594 0.381360
O O4 0.822229 0.188663 0.482928
O O5 0.843444 0.968772 0.618501
O O6 0.793677 0.688479 0.458859
O O7 0.427545 0.257732 0.304280
O O8 0.342713 0.082096 0.292177
O O9 0.413087 0.757266 0.303284
O O10 0.261818 0.630978 0.767921
O O11 0.358486 0.969928 0.940089
#
# Coordination Sequence:
#
# PCOD9300168 Si02
#       6
#     4   8   8   8   8   8
#     4  10  26  46  64  86 132 172 222 250 308 378
#     4  11  21  38  64  95 130 157 207 266 324 367
#     4  12  22  38  63  97 129 156 212 262 321 369
#     4  11  24  39  61  92 127 172 207 261 307 372
#     4  12  22  41  65  95 133 162 203 256 325 385
#     4  11  22  41  66  94 122 177 207 252 309 383
#
# _framework density 23.216491999999999
#
# number of rings (size 3 to 8) (size 9 to 14) (size 15 to 20)
#    0.000    0.727    3.636    5.455    0.000    6.545 
#    0.000    1.818    0.000    0.000    0.000    0.000 
#    0.000    0.000    0.000    0.000    0.000    0.000 
#
# Total GULP energy -123244.501079 kJ/mol
# GULP energy per Si atom -5602.022776 kJ/mol
# Density = 2.316365 g / cm^3
# Si number density = 23.216492 Si / 1000 Ang^3
#
#
#
# Elastic Constant Matrix: (Units=GPa)
#
#
# Indices 1 2 3 4 5 6 
#
# 1 96.9011 29.0499 -1.9561 0.0005 -7.0520 0.0012
# 2 29.0499 103.8544 14.0839 0.0010 -4.3716 -0.0008
# 3 -1.9561 14.0839 17.0434 -0.0004 -1.8287 -0.0001
# 4 0.0005 0.0010 -0.0004 10.9567 -0.0002 -6.9495
# 5 -7.0520 -4.3716 -1.8287 -0.0002 35.9408 -0.0003
# 6 0.0012 -0.0008 -0.0001 -6.9495 -0.0003 39.7774
#
#
#
# Elastic Compliance Matrix: (Units=1/GPa)
#
#
# Indices 1 2 3 4 5 6 
#
# 1 0.011715 -0.003831 0.004733 0.000000 0.002073 0.000000
# 2 -0.003831 0.012124 -0.010438 -0.000001 0.000192 0.000000
# 3 0.004733 -0.010438 0.068178 0.000004 0.003128 0.000000
# 4 0.000000 -0.000001 0.000004 0.102643 0.000001 0.017933
# 5 0.002073 0.000192 0.003128 0.000001 0.028413 0.000000
# 6 0.000000 0.000000 0.000000 0.017933 0.000000 0.028273
#
#
# Mechanical properties :
#
#
# Convention : Reuss Voigt Hill
#
# Bulk Modulus (GPa) = 13.70909 33.35049 23.52979
# Shear Modulus (GPa) = 16.96452 29.10973 23.03712
#
# Velocity S-wave (km/s) = 2.70610 3.54480 3.15346
# Velocity P-wave (km/s) = 3.96001 5.58125 4.83901
#
# Compressibility (1/GPa) = 0.07294429
#
# Stress axis : x y z
#
# Youngs Moduli (GPa) = 85.36165 82.47971 14.66749
#
# Poissons Ratio (x) = 0.31602 -0.06942
# Poissons Ratio (y) = 0.32706 0.15310
# Poissons Ratio (z) = -0.40403 0.86093
#
# Static dielectric constant tensor:
#      x y z
#    x 1.867260 0.000000 -0.031710 
#    y 0.000000 1.861310 0.000000 
#    z -0.031710 0.000000 1.883560 
# 
# From -- ./inp_files/221123.got.cif
#   From: 2010.05.17/outbox.cif.g08.bks.cpg/sg15_111_cif.got.tgz:221123.got - 2010.06.03 18:47:42.
