data_PCOD9300319
_publ_section_title
;
Structure prediction by ZEFSAII (Michael W. Deem and Ramdas Pophale) SiO2 
 PCOD9300319
Probable space group: C 2/C
;
_chemical_formula_sum "Si O2"
_cell_formula_units_Z 44
_cell_length_a 14.390515
_cell_length_b 32.996328
_cell_length_c 5.189959
_cell_angle_alpha 90.000000
_cell_angle_beta 52.454205
_cell_angle_gamma 90.000000
_cell_volume 1953.916296
_symmetry_space_group_name_H-M "C 2/C"
_symmetry_group_IT_number 15
_symmetry_cell_setting 'monoclinic'
loop_
_space_group_symop_operation_xyz
x,y,z
-x,y,1/2-z
-x,-y,-z
x,-y,1/2+z
1/2+x,1/2+y,z
1/2-x,1/2+y,1/2-z
1/2-x,1/2-y,-z
1/2+x,1/2-y,1/2+z
loop_
_atom_site_type_symbol
_atom_site_label
_atom_site_fract_x
_atom_site_fract_y
_atom_site_fract_z
Si Si1 0.229977 0.524125 0.312707
Si Si2 0.209359 0.858895 0.449572
Si Si3 0.500000 0.459920 0.250000
Si Si4 0.500000 0.168340 0.250000
Si Si5 0.840975 0.384915 0.714555
Si Si6 0.232397 0.722745 0.779573
Si Si7 0.500000 0.413045 0.750000
O O1 0.192964 0.506456 0.649666
O O2 0.175452 0.568704 0.351029
O O3 0.373952 0.523904 0.067644
O O4 0.283728 0.858020 0.585277
O O5 0.177774 0.814552 0.400370
O O6 0.098412 0.885273 0.704901
O O7 0.272874 0.880805 0.102560
O O8 0.545479 0.438062 0.431808
O O9 0.538071 0.137186 0.411570
O O10 0.390959 0.198027 0.496853
O O11 0.250000 0.750000 0.500000
O O12 0.250000 0.750000 0.000000
#
# Coordination Sequence:
#
# PCOD9300319 Si02
#       7
#     8   8   4   4   8   8   4
#     4  12  23  39  61  97 139 176 229 300 349 399
#     4  11  22  40  65  94 134 177 224 274 332 417
#     4  12  22  37  61  92 136 176 226 270 358 413
#     4  10  26  48  77  96 136 193 227 282 350 421
#     4  11  23  44  66  95 129 183 242 272 332 421
#     4  11  25  44  69 104 135 168 222 281 348 411
#     4  12  20  37  62  94 128 175 223 276 328 410
#
# _framework density 22.518878000000001
#
# number of rings (size 3 to 8) (size 9 to 14) (size 15 to 20)
#    0.000    0.727    3.636    4.909    0.000    8.000 
#    0.000    0.909    0.000    0.000    0.000    0.000 
#    0.000    0.000    0.000    0.000    0.000    0.000 
#
# Total GULP energy -122795.186617 kJ/mol
# GULP energy per Si atom -5581.599392 kJ/mol
# Density = 2.246762 g / cm^3
# Si number density = 22.518878 Si / 1000 Ang^3
#
#
#
# Elastic Constant Matrix: (Units=GPa)
#
#
# Indices 1 2 3 4 5 6 
#
# 1 123.7128 47.9906 24.3915 0.0000 28.3675 0.0000
# 2 47.9906 139.2630 9.5835 0.0000 6.0395 0.0000
# 3 24.3915 9.5835 52.3164 0.0000 17.5952 0.0000
# 4 0.0000 0.0000 0.0000 31.6290 0.0000 2.5918
# 5 28.3675 6.0395 17.5952 0.0000 42.7485 0.0000
# 6 0.0000 0.0000 0.0000 2.5918 0.0000 52.7678
#
#
#
# Elastic Compliance Matrix: (Units=1/GPa)
#
#
# Indices 1 2 3 4 5 6 
#
# 1 0.011304 -0.003456 -0.002645 0.000000 -0.005924 0.000000
# 2 -0.003456 0.008341 -0.000338 0.000000 0.001255 0.000000
# 3 -0.002645 -0.000338 0.022985 0.000000 -0.007658 0.000000
# 4 0.000000 0.000000 0.000000 0.031744 0.000000 -0.001559
# 5 -0.005924 0.001255 -0.007658 0.000000 0.030299 0.000000
# 6 0.000000 0.000000 0.000000 -0.001559 0.000000 0.019028
#
#
# Mechanical properties :
#
#
# Convention : Reuss Voigt Hill
#
# Bulk Modulus (GPa) = 33.61252 53.24703 43.42978
# Shear Modulus (GPa) = 34.13071 40.98418 37.55745
#
# Velocity S-wave (km/s) = 3.89736 4.27076 4.08833
# Velocity P-wave (km/s) = 5.93391 6.92936 6.45087
#
# Compressibility (1/GPa) = 0.02975082
#
# Stress axis : x y z
#
# Youngs Moduli (GPa) = 88.46473 119.89481 43.50675
#
# Poissons Ratio (x) = 0.41441 0.11506
# Poissons Ratio (y) = 0.30578 0.01472
# Poissons Ratio (z) = 0.23395 0.04056
#
# Static dielectric constant tensor:
#      x y z
#    x 1.834980 0.000000 -0.095510 
#    y 0.000000 1.855120 0.000000 
#    z -0.095510 0.000000 1.832560 
# 
# From -- ./inp_files/8626.got.cif
#   From: 2010.05.17/outbox.cif.g08.bks.cpg/sg15_5_cif.got.tgz:8626.got - 2010.06.03 18:47:42.
