data_PCOD9300247
_publ_section_title
;
Structure prediction by ZEFSAII (Michael W. Deem and Ramdas Pophale) SiO2 
 PCOD9300247
Probable space group: C 2/C
;
_chemical_formula_sum "Si O2"
_cell_formula_units_Z 64
_cell_length_a 26.889781
_cell_length_b 11.738700
_cell_length_c 14.614041
_cell_angle_alpha 90.000000
_cell_angle_beta 40.767961
_cell_angle_gamma 90.000000
_cell_volume 3012.235413
_symmetry_space_group_name_H-M "C 2/C"
_symmetry_group_IT_number 15
_symmetry_cell_setting 'monoclinic'
loop_
_space_group_symop_operation_xyz
x,y,z
-x,y,1/2-z
-x,-y,-z
x,-y,1/2+z
1/2+x,1/2+y,z
1/2-x,1/2+y,1/2-z
1/2-x,1/2-y,-z
1/2+x,1/2-y,1/2+z
loop_
_atom_site_type_symbol
_atom_site_label
_atom_site_fract_x
_atom_site_fract_y
_atom_site_fract_z
Si Si1 0.439416 0.090049 0.762556
Si Si2 0.272773 0.445578 0.365722
Si Si3 0.526717 0.710390 0.389128
Si Si4 0.859776 0.867714 0.064874
Si Si5 0.894183 0.336582 0.868125
Si Si6 0.496287 0.690824 0.872531
Si Si7 0.398210 0.511290 0.328825
Si Si8 0.282283 0.808417 0.545699
O O1 0.500000 0.136250 0.750000
O O2 0.457290 0.154488 0.643780
O O3 0.433532 0.956315 0.786207
O O4 0.360080 0.137456 0.904100
O O5 0.321140 0.402076 0.213181
O O6 0.193999 0.372513 0.490440
O O7 0.324421 0.453694 0.384785
O O8 0.260199 0.579517 0.360864
O O9 0.440791 0.687269 0.476806
O O10 0.535797 0.676991 0.481738
O O11 0.580353 0.631484 0.250314
O O12 0.801379 0.782567 0.096115
O O13 0.878070 0.963312 0.962294
O O14 0.924034 0.262336 0.740794
O O15 0.934979 0.262363 0.894428
O O16 0.529754 0.569648 0.792936
O O17 0.250000 0.750000 0.500000
#
# Coordination Sequence:
#
# PCOD9300247 Si02
#       8
#     8   8   8   8   8   8   8   8
#     4  11  19  42  70  94 137 180 239 289 335 426
#     4  11  26  46  70 106 147 184 247 293 366 446
#     4  12  24  42  76 111 135 185 251 300 353 431
#     4  12  25  43  71 109 142 190 236 298 370 414
#     4  10  26  47  66 100 145 192 232 299 363 422
#     4  11  25  45  73 100 144 190 237 295 368 435
#     4  12  25  46  74 108 144 188 242 307 362 430
#     4  11  22  44  70  99 142 189 231 299 361 416
#
# _framework density 21.246679
#
# number of rings (size 3 to 8) (size 9 to 14) (size 15 to 20)
#    0.000    0.750    6.250    0.750    3.500    4.000 
#    2.250    0.000    0.000    0.000    0.000    0.000 
#    0.000    0.000    0.000    0.000    0.000    0.000 
#
# Total GULP energy -178341.086046 kJ/mol
# GULP energy per Si atom -5573.158939 kJ/mol
# Density = 2.119832 g / cm^3
# Si number density = 21.246679 Si / 1000 Ang^3
#
#
#
# Elastic Constant Matrix: (Units=GPa)
#
#
# Indices 1 2 3 4 5 6 
#
# 1 73.2643 13.3429 7.6655 0.0000 -8.1075 0.0000
# 2 13.3429 94.2398 17.2814 0.0000 -7.0781 0.0000
# 3 7.6655 17.2814 78.1549 0.0000 -3.3671 0.0000
# 4 0.0000 0.0000 0.0000 34.8255 0.0000 0.1538
# 5 -8.1075 -7.0781 -3.3671 0.0000 28.0511 0.0000
# 6 0.0000 0.0000 0.0000 0.1538 0.0000 39.9069
#
#
#
# Elastic Compliance Matrix: (Units=1/GPa)
#
#
# Indices 1 2 3 4 5 6 
#
# 1 0.014441 -0.001604 -0.000904 0.000000 0.003661 0.000000
# 2 -0.001604 0.011416 -0.002275 0.000000 0.002144 0.000000
# 3 -0.000904 -0.002275 0.013420 0.000000 0.000776 0.000000
# 4 0.000000 0.000000 0.000000 0.028715 0.000000 -0.000111
# 5 0.003661 0.002144 0.000776 0.000000 0.037341 0.000000
# 6 0.000000 0.000000 0.000000 -0.000111 0.000000 0.025059
#
#
# Mechanical properties :
#
#
# Convention : Reuss Voigt Hill
#
# Bulk Modulus (GPa) = 33.65600 35.80427 34.73013
# Shear Modulus (GPa) = 33.36398 34.38131 33.87264
#
# Velocity S-wave (km/s) = 3.96702 4.02705 3.99715
# Velocity P-wave (km/s) = 6.07108 6.20573 6.13877
#
# Compressibility (1/GPa) = 0.02971239
#
# Stress axis : x y z
#
# Youngs Moduli (GPa) = 69.24733 87.59263 74.51474
#
# Poissons Ratio (x) = 0.14049 0.06736
# Poissons Ratio (y) = 0.11107 0.16950
# Poissons Ratio (z) = 0.06260 0.19925
#
# Static dielectric constant tensor:
#      x y z
#    x 1.810360 0.000000 -0.017200 
#    y 0.000000 1.964120 0.000000 
#    z -0.017200 0.000000 1.758760 
# 
# From -- ./inp_files/177806.got.cif
#   From: 2010.05.17/outbox.cif.g08.bks.cpg/sg15_89_cif.got.tgz:177806.got - 2010.06.03 18:47:42.
