data_PCOD9300798
_publ_section_title
;
Structure prediction by ZEFSAII (Michael W. Deem and Ramdas Pophale) SiO2 
 PCOD9300798
Probable space group: C 2/C
;
_chemical_formula_sum "Si O2"
_cell_formula_units_Z 56
_cell_length_a 13.293169
_cell_length_b 22.577902
_cell_length_c 8.738320
_cell_angle_alpha 90.000000
_cell_angle_beta 87.300284
_cell_angle_gamma 90.000000
_cell_volume 2619.737440
_symmetry_space_group_name_H-M "C 2/C"
_symmetry_group_IT_number 15
_symmetry_cell_setting 'monoclinic'
loop_
_space_group_symop_operation_xyz
x,y,z
-x,y,1/2-z
-x,-y,-z
x,-y,1/2+z
1/2+x,1/2+y,z
1/2-x,1/2+y,1/2-z
1/2-x,1/2-y,-z
1/2+x,1/2-y,1/2+z
loop_
_atom_site_type_symbol
_atom_site_label
_atom_site_fract_x
_atom_site_fract_y
_atom_site_fract_z
Si Si1 0.198471 0.272130 0.179759
Si Si2 0.102994 0.781332 0.145189
Si Si3 0.605842 0.834595 0.452158
Si Si4 0.077347 0.470068 0.116515
Si Si5 0.624325 0.143827 0.455201
Si Si6 0.702822 0.915734 0.656875
Si Si7 0.894463 0.847568 0.673602
O O1 0.305283 0.290595 0.244431
O O2 0.120022 0.314408 0.278786
O O3 0.182677 0.297993 0.010206
O O4 0.159768 0.207004 0.231025
O O5 0.135082 0.722244 0.051535
O O6 0.000000 0.775319 0.250000
O O7 0.091393 0.827360 0.004821
O O8 0.492990 0.846929 0.509471
O O9 0.675483 0.889428 0.492756
O O10 0.144217 0.417522 0.042782
O O11 0.151850 0.520620 0.173688
O O12 0.000000 0.447116 0.250000
O O13 0.000000 0.500000 0.000000
O O14 0.645795 0.127469 0.279687
O O15 0.819548 0.903684 0.680988
O O16 0.000000 0.857665 0.750000
#
# Coordination Sequence:
#
# PCOD9300798 Si02
#       7
#     8   8   8   8   8   8   8
#     4  11  22  39  60  95 128 172 205 260 314 378
#     4  11  22  38  61  92 129 169 211 260 316 376
#     4  11  19  39  58  89 130 168 197 251 320 376
#     4  12  23  41  63  96 128 163 209 261 325 386
#     4  12  25  36  66  96 130 163 212 256 321 391
#     4  12  23  40  61  91 130 168 204 261 323 369
#     4  11  24  42  63  89 132 171 217 258 310 380
#
# _framework density 21.376189
#
# number of rings (size 3 to 8) (size 9 to 14) (size 15 to 20)
#    0.000    0.571    5.714    5.143    2.000    0.571 
#    0.000    0.000    0.000    1.714    0.000    0.000 
#    0.000    0.000    0.000    0.000    0.000    0.000 
#
# Total GULP energy -156527.939184 kJ/mol
# GULP energy per Si atom -5590.283542 kJ/mol
# Density = 2.132754 g / cm^3
# Si number density = 21.376189 Si / 1000 Ang^3
#
#
#
# Elastic Constant Matrix: (Units=GPa)
#
#
# Indices 1 2 3 4 5 6 
#
# 1 138.8719 21.2905 7.3239 0.0000 26.4536 0.0000
# 2 21.2905 73.5231 3.1764 0.0000 14.7583 0.0000
# 3 7.3239 3.1764 64.5202 0.0000 6.5716 0.0000
# 4 0.0000 0.0000 0.0000 26.4905 0.0000 6.8983
# 5 26.4536 14.7583 6.5716 0.0000 37.5325 0.0000
# 6 0.0000 0.0000 0.0000 6.8983 0.0000 33.9480
#
#
#
# Elastic Compliance Matrix: (Units=1/GPa)
#
#
# Indices 1 2 3 4 5 6 
#
# 1 0.008448 -0.001355 -0.000346 0.000000 -0.005361 0.000000
# 2 -0.001355 0.014985 -0.000082 0.000000 -0.004923 0.000000
# 3 -0.000346 -0.000082 0.015796 0.000000 -0.002489 0.000000
# 4 0.000000 0.000000 0.000000 0.039858 0.000000 -0.008099
# 5 -0.005361 -0.004923 -0.002489 0.000000 0.032794 0.000000
# 6 0.000000 0.000000 0.000000 -0.008099 0.000000 0.031103
#
#
# Mechanical properties :
#
#
# Convention : Reuss Voigt Hill
#
# Bulk Modulus (GPa) = 28.04161 37.83296 32.93729
# Shear Modulus (GPa) = 31.55784 35.93582 33.74683
#
# Velocity S-wave (km/s) = 3.84644 4.10459 3.97761
# Velocity P-wave (km/s) = 5.73354 6.34039 6.04459
#
# Compressibility (1/GPa) = 0.03566129
#
# Stress axis : x y z
#
# Youngs Moduli (GPa) = 118.36968 66.73188 63.30743
#
# Poissons Ratio (x) = 0.09044 0.02192
# Poissons Ratio (y) = 0.16043 0.00522
# Poissons Ratio (z) = 0.04098 0.00551
#
# Static dielectric constant tensor:
#      x y z
#    x 1.766200 0.000000 0.002740 
#    y 0.000000 1.821720 0.000000 
#    z 0.002740 0.000000 1.893720 
# 
# From -- ./inp_files/41235.got.cif
#   From: 2010.05.17/outbox.cif.g08.bks.cpg/sg15_21_cif.got.tgz:41235.got - 2010.06.03 18:47:42.
