data_PCOD9300807
_publ_section_title
;
Structure prediction by ZEFSAII (Michael W. Deem and Ramdas Pophale) SiO2 
 PCOD9300807
Probable space group: C 2/C
;
_chemical_formula_sum "Si O2"
_cell_formula_units_Z 32
_cell_length_a 22.883918
_cell_length_b 6.731752
_cell_length_c 14.421507
_cell_angle_alpha 90.000000
_cell_angle_beta 44.696162
_cell_angle_gamma 90.000000
_cell_volume 1562.567653
_symmetry_space_group_name_H-M "C 2/C"
_symmetry_group_IT_number 15
_symmetry_cell_setting 'monoclinic'
loop_
_space_group_symop_operation_xyz
x,y,z
-x,y,1/2-z
-x,-y,-z
x,-y,1/2+z
1/2+x,1/2+y,z
1/2-x,1/2+y,1/2-z
1/2-x,1/2-y,-z
1/2+x,1/2-y,1/2+z
loop_
_atom_site_type_symbol
_atom_site_label
_atom_site_fract_x
_atom_site_fract_y
_atom_site_fract_z
Si Si1 0.348024 0.551172 0.712072
Si Si2 0.295932 0.353346 0.592017
Si Si3 0.413358 0.206853 0.298588
Si Si4 0.823673 0.333369 0.354048
O O1 0.355195 0.460517 0.600559
O O2 0.255722 0.654339 0.821541
O O3 0.406576 0.707156 0.701300
O O4 0.357329 0.354656 0.762969
O O5 0.342969 0.308203 0.442960
O O6 0.223725 0.512592 0.658048
O O7 0.500000 0.246463 0.250000
O O8 0.392143 0.972092 0.324359
O O9 0.750000 0.250000 0.500000
#
# Coordination Sequence:
#
# PCOD9300807 Si02
#       4
#     8   8   8   8
#     4  11  21  37  66  93 115 157 211 253 290 349
#     4  11  21  37  66  93 117 155 210 253 290 355
#     4  11  25  40  57  93 132 158 193 246 313 368
#     4  11  19  39  65  86 114 164 212 247 288 347
#
# _framework density 20.479113000000002
#
# number of rings (size 3 to 8) (size 9 to 14) (size 15 to 20)
#    0.000    1.000    7.500    1.500    0.000    2.000 
#    0.000    1.250    0.000    0.000    0.000    0.000 
#    0.000    0.000    0.000    0.000    0.000    0.000 
#
# Total GULP energy -89067.865227 kJ/mol
# GULP energy per Si atom -5566.741577 kJ/mol
# Density = 2.043250 g / cm^3
# Si number density = 20.479113 Si / 1000 Ang^3
#
#
#
# Elastic Constant Matrix: (Units=GPa)
#
#
# Indices 1 2 3 4 5 6 
#
# 1 97.7284 16.7292 8.7521 0.0015 0.4704 -0.0021
# 2 16.7292 111.3290 4.6535 0.0023 1.7001 -0.0025
# 3 8.7521 4.6535 9.2956 0.0008 7.8857 0.0006
# 4 0.0015 0.0023 0.0008 15.9916 -0.0026 8.4809
# 5 0.4704 1.7001 7.8857 -0.0026 26.4208 0.0028
# 6 -0.0021 -0.0025 0.0006 8.4809 0.0028 29.1531
#
#
#
# Elastic Compliance Matrix: (Units=1/GPa)
#
#
# Indices 1 2 3 4 5 6 
#
# 1 0.011654 -0.001238 -0.013717 0.000000 0.003966 0.000001
# 2 -0.001238 0.009328 -0.004034 -0.000002 0.000626 0.000001
# 3 -0.013717 -0.004034 0.163476 -0.000017 -0.048288 0.000005
# 4 0.000000 -0.000002 -0.000017 0.073940 0.000015 -0.021510
# 5 0.003966 0.000626 -0.048288 0.000015 0.052150 -0.000008
# 6 0.000001 0.000001 0.000005 -0.021510 -0.000008 0.040559
#
#
# Mechanical properties :
#
#
# Convention : Reuss Voigt Hill
#
# Bulk Modulus (GPa) = 6.82700 30.95805 18.89253
# Shear Modulus (GPa) = 11.41781 26.86099 19.13940
#
# Velocity S-wave (km/s) = 2.36378 3.62557 3.06041
# Velocity P-wave (km/s) = 3.28494 5.71630 4.66191
#
# Compressibility (1/GPa) = 0.14647728
#
# Stress axis : x y z
#
# Youngs Moduli (GPa) = 85.80916 107.20923 6.11711
#
# Poissons Ratio (x) = 0.13277 0.08391
# Poissons Ratio (y) = 0.10627 0.02468
# Poissons Ratio (z) = 1.17705 0.43254
#
# Static dielectric constant tensor:
#      x y z
#    x 1.805500 0.000000 0.052050 
#    y 0.000000 1.797980 0.000000 
#    z 0.052050 0.000000 1.825970 
# 
# From -- ./inp_files/164944.got.cif
#   From: 2010.05.17/outbox.cif.g08.bks.cpg/sg15_83_cif.got.tgz:164944.got - 2010.06.03 18:47:42.
