data_PCOD9300695
_publ_section_title
;
Structure prediction by ZEFSAII (Michael W. Deem and Ramdas Pophale) SiO2 
 PCOD9300695
Probable space group: C 2/C
;
_chemical_formula_sum "Si O2"
_cell_formula_units_Z 56
_cell_length_a 12.444313
_cell_length_b 19.776436
_cell_length_c 17.436196
_cell_angle_alpha 90.000000
_cell_angle_beta 130.110151
_cell_angle_gamma 90.000000
_cell_volume 3281.880053
_symmetry_space_group_name_H-M "C 2/C"
_symmetry_group_IT_number 15
_symmetry_cell_setting 'monoclinic'
loop_
_space_group_symop_operation_xyz
x,y,z
-x,y,1/2-z
-x,-y,-z
x,-y,1/2+z
1/2+x,1/2+y,z
1/2-x,1/2+y,1/2-z
1/2-x,1/2-y,-z
1/2+x,1/2-y,1/2+z
loop_
_atom_site_type_symbol
_atom_site_label
_atom_site_fract_x
_atom_site_fract_y
_atom_site_fract_z
Si Si1 0.422006 0.323679 0.565567
Si Si2 0.203237 0.121944 0.268139
Si Si3 0.149669 0.011695 0.847719
Si Si4 0.367753 0.182663 0.471442
Si Si5 0.428652 0.056124 0.912900
Si Si6 0.630990 0.532336 0.516408
Si Si7 0.363546 0.973684 0.730485
O O1 0.559537 0.340519 0.679607
O O2 0.434473 0.254320 0.524351
O O3 0.280405 0.320300 0.551138
O O4 0.397457 0.388177 0.500809
O O5 0.317081 0.169906 0.361197
O O6 0.270623 0.085205 0.225751
O O7 0.174048 0.059579 0.313661
O O8 0.273917 0.061653 0.879113
O O9 0.000000 0.037514 0.750000
O O10 0.144856 0.995137 0.935663
O O11 0.473975 0.122143 0.542252
O O12 0.410225 0.023658 0.820600
O O13 0.500000 0.000000 0.000000
O O14 0.500000 0.500000 0.500000
O O15 0.769276 0.514145 0.626902
O O16 0.500000 0.946792 0.750000
#
# Coordination Sequence:
#
# PCOD9300695 Si02
#       7
#     8   8   8   8   8   8   8
#     4  11  22  37  57  89 119 154 196 242 298 353
#     4  11  20  39  60  82 120 165 194 234 304 368
#     4  11  19  35  63  84 116 161 201 235 292 365
#     4  11  22  36  62  85 118 156 196 243 291 363
#     4  11  20  37  58  88 117 154 203 241 294 357
#     4  12  21  35  58  92 119 149 198 250 288 339
#     4  11  22  33  59  91 121 148 196 258 293 334
#
# _framework density 17.063389999999998
#
# number of rings (size 3 to 8) (size 9 to 14) (size 15 to 20)
#    0.000    0.857    7.143    3.000    0.000    1.143 
#    0.000    1.429    0.000    4.286    0.000    0.000 
#    0.000    0.000    0.000    0.000    0.000    0.000 
#
# Total GULP energy -156297.225401 kJ/mol
# GULP energy per Si atom -5582.043764 kJ/mol
# Density = 1.702455 g / cm^3
# Si number density = 17.063390 Si / 1000 Ang^3
#
#
#
# Elastic Constant Matrix: (Units=GPa)
#
#
# Indices 1 2 3 4 5 6 
#
# 1 99.4491 29.4049 44.3796 0.0000 1.8594 0.0000
# 2 29.4049 93.1207 48.6099 0.0000 0.4988 0.0000
# 3 44.3796 48.6099 140.1028 0.0000 6.0038 0.0000
# 4 0.0000 0.0000 0.0000 22.8015 0.0000 3.0468
# 5 1.8594 0.4988 6.0038 0.0000 30.6288 0.0000
# 6 0.0000 0.0000 0.0000 3.0468 0.0000 22.6714
#
#
#
# Elastic Compliance Matrix: (Units=1/GPa)
#
#
# Indices 1 2 3 4 5 6 
#
# 1 0.012075 -0.002220 -0.003050 0.000000 -0.000099 0.000000
# 2 -0.002220 0.013536 -0.004023 0.000000 0.000703 0.000000
# 3 -0.003050 -0.004023 0.009569 0.000000 -0.001625 0.000000
# 4 0.000000 0.000000 0.000000 0.044659 0.000000 -0.006002
# 5 -0.000099 0.000703 -0.001625 0.000000 0.032962 0.000000
# 6 0.000000 0.000000 0.000000 -0.006002 0.000000 0.044915
#
#
# Mechanical properties :
#
#
# Convention : Reuss Voigt Hill
#
# Bulk Modulus (GPa) = 60.26665 64.16239 62.21452
# Shear Modulus (GPa) = 27.49743 29.23890 28.36816
#
# Velocity S-wave (km/s) = 4.01869 4.14399 4.08182
# Velocity P-wave (km/s) = 7.54514 7.78337 7.66518
#
# Compressibility (1/GPa) = 0.01659292
#
# Stress axis : x y z
#
# Youngs Moduli (GPa) = 82.81625 73.87558 104.49898
#
# Poissons Ratio (x) = 0.16401 0.31876
# Poissons Ratio (y) = 0.18386 0.42044
# Poissons Ratio (z) = 0.25262 0.29723
#
# Static dielectric constant tensor:
#      x y z
#    x 1.621870 0.000000 0.022560 
#    y 0.000000 1.558530 0.000000 
#    z 0.022560 0.000000 1.608390 
# 
# From -- ./inp_files/199572.got.cif
#   From: 2010.05.17/outbox.cif.g08.bks.cpg/sg15_100_cif.got.tgz:199572.got - 2010.06.03 18:47:42.
