data_PCOD9300173
_publ_section_title
;
Structure prediction by ZEFSAII (Michael W. Deem and Ramdas Pophale) SiO2 
 PCOD9300173
Probable space group: C 2/C
;
_chemical_formula_sum "Si O2"
_cell_formula_units_Z 44
_cell_length_a 21.573996
_cell_length_b 11.490661
_cell_length_c 8.378304
_cell_angle_alpha 90.000000
_cell_angle_beta 82.752138
_cell_angle_gamma 90.000000
_cell_volume 2060.381401
_symmetry_space_group_name_H-M "C 2/C"
_symmetry_group_IT_number 15
_symmetry_cell_setting 'monoclinic'
loop_
_space_group_symop_operation_xyz
x,y,z
-x,y,1/2-z
-x,-y,-z
x,-y,1/2+z
1/2+x,1/2+y,z
1/2-x,1/2+y,1/2-z
1/2-x,1/2-y,-z
1/2+x,1/2-y,1/2+z
loop_
_atom_site_type_symbol
_atom_site_label
_atom_site_fract_x
_atom_site_fract_y
_atom_site_fract_z
Si Si1 0.554458 0.095110 0.995897
Si Si2 0.860293 0.562759 0.814707
Si Si3 0.268927 0.066032 0.098514
Si Si4 0.289348 0.648152 0.071703
Si Si5 0.000000 0.026951 0.250000
Si Si6 0.564040 0.654524 0.521769
O O1 0.586012 0.118571 0.812008
O O2 0.534456 0.219906 0.066595
O O3 0.500000 0.000000 0.000000
O O4 0.605368 0.039520 0.098150
O O5 0.812634 0.508442 0.703483
O O6 0.817514 0.627659 0.960191
O O7 0.228859 0.141213 0.235305
O O8 0.228716 0.974064 0.008522
O O9 0.362344 0.670339 0.026586
O O10 0.250000 0.750000 0.000000
O O11 0.948161 0.940755 0.339074
O O12 0.969484 0.103843 0.123153
#
# Coordination Sequence:
#
# PCOD9300173 Si02
#       6
#     8   8   8   8   4   8
#     4  11  23  37  64  95 130 167 214 270 332 377
#     4   9  19  37  56  96 132 161 202 269 316 394
#     4   9  19  37  61  91 129 163 210 249 321 388
#     4  11  21  40  67  95 127 175 208 271 331 385
#     4  10  26  46  66  88 128 184 220 274 312 394
#     4  11  24  45  64  93 130 168 230 264 326 391
#
# _framework density 21.355267999999999
#
# number of rings (size 3 to 8) (size 9 to 14) (size 15 to 20)
#    0.000    1.818    0.000    4.909    5.091    0.000 
#    0.000   10.000    0.000    0.000    0.000    0.000 
#    0.000    0.000    0.000    0.000    0.000    0.000 
#
# Total GULP energy -122827.406220 kJ/mol
# GULP energy per Si atom -5583.063919 kJ/mol
# Density = 2.130666 g / cm^3
# Si number density = 21.355268 Si / 1000 Ang^3
#
#
#
# Elastic Constant Matrix: (Units=GPa)
#
#
# Indices 1 2 3 4 5 6 
#
# 1 87.3234 36.4104 24.5133 0.0000 -19.4530 0.0000
# 2 36.4104 101.4588 27.0357 0.0000 -2.2879 0.0000
# 3 24.5133 27.0357 118.6671 0.0000 -20.1533 0.0000
# 4 0.0000 0.0000 0.0000 10.9498 0.0000 5.4889
# 5 -19.4530 -2.2879 -20.1533 0.0000 34.5003 0.0000
# 6 0.0000 0.0000 0.0000 5.4889 0.0000 25.3175
#
#
#
# Elastic Compliance Matrix: (Units=1/GPa)
#
#
# Indices 1 2 3 4 5 6 
#
# 1 0.015625 -0.005249 -0.000660 0.000000 0.008076 0.000000
# 2 -0.005249 0.012276 -0.002306 0.000000 -0.003492 0.000000
# 3 -0.000660 -0.002306 0.009990 0.000000 0.005311 0.000000
# 4 0.000000 0.000000 0.000000 0.102461 0.000000 -0.022214
# 5 0.008076 -0.003492 0.005311 0.000000 0.036410 0.000000
# 6 0.000000 0.000000 0.000000 -0.022214 0.000000 0.044314
#
#
# Mechanical properties :
#
#
# Convention : Reuss Voigt Hill
#
# Bulk Modulus (GPa) = 46.59568 53.70757 50.15163
# Shear Modulus (GPa) = 20.43652 28.78618 24.61135
#
# Velocity S-wave (km/s) = 3.09686 3.67545 3.39849
# Velocity P-wave (km/s) = 5.88677 6.57389 6.23980
#
# Compressibility (1/GPa) = 0.02146122
#
# Stress axis : x y z
#
# Youngs Moduli (GPa) = 64.00033 81.46232 100.09513
#
# Poissons Ratio (x) = 0.42762 0.06608
# Poissons Ratio (y) = 0.33596 0.23077
# Poissons Ratio (z) = 0.04225 0.18781
#
# Static dielectric constant tensor:
#      x y z
#    x 1.773350 0.000000 -0.062350 
#    y 0.000000 1.738610 0.000000 
#    z -0.062350 0.000000 1.813940 
# 
# From -- ./inp_files/54424.got.cif
#   From: 2010.05.17/outbox.cif.g08.bks.cpg/sg15_28_cif.got.tgz:54424.got - 2010.06.03 18:47:42.
