data_PCOD9300096
_publ_section_title
;
Structure prediction by ZEFSAII (Michael W. Deem and Ramdas Pophale) SiO2 
 PCOD9300096
Probable space group: C 2/C
;
_chemical_formula_sum "Si O2"
_cell_formula_units_Z 40
_cell_length_a 11.408189
_cell_length_b 8.886718
_cell_length_c 14.696289
_cell_angle_alpha 90.000000
_cell_angle_beta 87.829876
_cell_angle_gamma 90.000000
_cell_volume 1488.861163
_symmetry_space_group_name_H-M "C 2/C"
_symmetry_group_IT_number 15
_symmetry_cell_setting 'monoclinic'
loop_
_space_group_symop_operation_xyz
x,y,z
-x,y,1/2-z
-x,-y,-z
x,-y,1/2+z
1/2+x,1/2+y,z
1/2-x,1/2+y,1/2-z
1/2-x,1/2-y,-z
1/2+x,1/2-y,1/2+z
loop_
_atom_site_type_symbol
_atom_site_label
_atom_site_fract_x
_atom_site_fract_y
_atom_site_fract_z
Si Si1 0.712971 0.092300 0.254484
Si Si2 0.234357 0.908471 0.547972
Si Si3 0.046217 0.650000 0.837698
Si Si4 0.588347 0.452371 0.900011
Si Si5 0.500000 0.000000 0.500000
Si Si6 0.000000 0.827150 0.250000
O O1 0.784184 0.124183 0.345480
O O2 0.796289 0.074388 0.166490
O O3 0.614260 0.219909 0.244337
O O4 0.653466 0.935094 0.286266
O O5 0.250000 0.750000 0.500000
O O6 0.359058 0.993219 0.531732
O O7 0.130649 0.987546 0.495893
O O8 0.046962 0.779838 0.913566
O O9 0.000000 0.733727 0.750000
O O10 0.970918 0.523372 0.891375
O O11 0.515619 0.569914 0.839954
#
# Coordination Sequence:
#
# PCOD9300096 Si02
#       6
#     8   8   8   8   4   4
#     4  11  25  46  73 107 152 196 246 305 378 447
#     4  11  25  45  71 108 145 191 243 313 371 436
#     4  11  23  45  72 103 142 193 241 305 367 436
#     4  12  26  45  76 109 150 191 259 305 371 455
#     4  10  26  44  70 102 146 188 244 294 378 442
#     4  12  24  46  74 114 142 200 250 294 386 436
#
# _framework density 26.86617
#
# number of rings (size 3 to 8) (size 9 to 14) (size 15 to 20)
#    0.000    0.800    4.000    2.400    5.600    3.200 
#    7.200    2.000    0.000    0.000    0.000    0.000 
#    0.000    0.000    0.000    0.000    0.000    0.000 
#
# Total GULP energy -111465.911252 kJ/mol
# GULP energy per Si atom -5573.295563 kJ/mol
# Density = 2.680502 g / cm^3
# Si number density = 26.866170 Si / 1000 Ang^3
#
#
#
# Elastic Constant Matrix: (Units=GPa)
#
#
# Indices 1 2 3 4 5 6 
#
# 1 105.1178 23.5030 30.3196 0.0000 10.9283 0.0000
# 2 23.5030 93.3713 2.4307 0.0000 26.1816 0.0000
# 3 30.3196 2.4307 129.3219 0.0000 7.5078 0.0000
# 4 0.0000 0.0000 0.0000 23.4958 0.0000 24.6682
# 5 10.9283 26.1816 7.5078 0.0000 49.0619 0.0000
# 6 0.0000 0.0000 0.0000 24.6682 0.0000 35.4079
#
#
#
# Elastic Compliance Matrix: (Units=1/GPa)
#
#
# Indices 1 2 3 4 5 6 
#
# 1 0.010847 -0.002463 -0.002455 0.000000 -0.000726 0.000000
# 2 -0.002463 0.013157 0.000712 0.000000 -0.006581 0.000000
# 3 -0.002455 0.000712 0.008359 0.000000 -0.001113 0.000000
# 4 0.000000 0.000000 0.000000 0.158485 0.000000 -0.110415
# 5 -0.000726 -0.006581 -0.001113 0.000000 0.024227 0.000000
# 6 0.000000 0.000000 0.000000 -0.110415 0.000000 0.105167
#
#
# Mechanical properties :
#
#
# Convention : Reuss Voigt Hill
#
# Bulk Modulus (GPa) = 41.74894 48.92419 45.33656
# Shear Modulus (GPa) = 14.85277 39.69697 27.27487
#
# Velocity S-wave (km/s) = 2.35381 3.84810 3.18970
# Velocity P-wave (km/s) = 4.79172 6.16390 5.52061
#
# Compressibility (1/GPa) = 0.02395270
#
# Stress axis : x y z
#
# Youngs Moduli (GPa) = 92.18855 76.00635 119.62651
#
# Poissons Ratio (x) = 0.18720 0.29365
# Poissons Ratio (y) = 0.22705 -0.08520
# Poissons Ratio (z) = 0.22630 -0.05413
#
# Static dielectric constant tensor:
#      x y z
#    x 2.250740 0.000000 0.108900 
#    y 0.000000 2.195040 0.000000 
#    z 0.108900 0.000000 2.055540 
# 
# From -- ./inp_files/150729.got.cif
#   From: 2010.05.17/outbox.cif.g08.bks.cpg/sg15_76_cif.got.tgz:150729.got - 2010.06.03 18:47:42.
