data_PCOD9300078
_publ_section_title
;
Structure prediction by ZEFSAII (Michael W. Deem and Ramdas Pophale) SiO2 
 PCOD9300078
Probable space group: C 2/C
;
_chemical_formula_sum "Si O2"
_cell_formula_units_Z 56
_cell_length_a 16.504482
_cell_length_b 10.936898
_cell_length_c 12.664164
_cell_angle_alpha 90.000000
_cell_angle_beta 71.454847
_cell_angle_gamma 90.000000
_cell_volume 2167.277406
_symmetry_space_group_name_H-M "C 2/C"
_symmetry_group_IT_number 15
_symmetry_cell_setting 'monoclinic'
loop_
_space_group_symop_operation_xyz
x,y,z
-x,y,1/2-z
-x,-y,-z
x,-y,1/2+z
1/2+x,1/2+y,z
1/2-x,1/2+y,1/2-z
1/2-x,1/2-y,-z
1/2+x,1/2-y,1/2+z
loop_
_atom_site_type_symbol
_atom_site_label
_atom_site_fract_x
_atom_site_fract_y
_atom_site_fract_z
Si Si1 0.465673 0.364417 0.103339
Si Si2 0.787522 0.052411 0.662567
Si Si3 0.066104 0.471647 0.067572
Si Si4 0.061778 0.804991 0.629772
Si Si5 0.250000 0.250000 0.000000
Si Si6 0.500000 0.158957 0.250000
Si Si7 0.153757 0.846215 0.007650
Si Si8 0.699609 0.900089 0.404854
O O1 0.383982 0.442718 0.168532
O O2 0.458015 0.241978 0.176959
O O3 0.462104 0.349950 0.978212
O O4 0.563638 0.402261 0.080305
O O5 0.774777 0.169564 0.593624
O O6 0.715049 0.061443 0.779931
O O7 0.791681 0.929362 0.593770
O O8 0.048638 0.341093 0.122502
O O9 0.062755 0.570558 0.161262
O O10 0.161202 0.480655 0.979259
O O11 0.000000 0.500000 0.000000
O O12 0.164268 0.813811 0.598623
O O13 0.000000 0.848331 0.750000
O O14 0.138234 0.714791 0.958414
O O15 0.212700 0.845503 0.086036
#
# Coordination Sequence:
#
# PCOD9300078 Si02
#       8
#     8   8   8   8   4   4   8   8
#     4  11  24  46  68 106 136 186 241 287 354 436
#     4  11  26  46  75  98 145 187 229 303 355 421
#     4  12  24  41  68 105 136 182 237 284 360 425
#     4  11  24  44  70  99 146 189 233 296 359 419
#     4  10  26  44  66 106 138 178 246 282 350 430
#     4  12  22  40  72 100 144 178 232 296 342 428
#     4  11  24  47  69 100 142 181 240 284 356 432
#     4  11  26  44  69 107 141 181 235 300 351 432
#
# _framework density 25.838871999999999
#
# number of rings (size 3 to 8) (size 9 to 14) (size 15 to 20)
#    0.000    0.857    3.571    2.143    6.000    4.571 
#    2.571    0.000    1.571    0.000    0.000    0.000 
#    0.000    0.000    0.000    0.000    0.000    0.000 
#
# Total GULP energy -156222.493309 kJ/mol
# GULP energy per Si atom -5579.374761 kJ/mol
# Density = 2.578006 g / cm^3
# Si number density = 25.838872 Si / 1000 Ang^3
#
#
#
# Elastic Constant Matrix: (Units=GPa)
#
#
# Indices 1 2 3 4 5 6 
#
# 1 108.1058 -2.1117 13.5203 0.0000 -15.2282 0.0000
# 2 -2.1117 39.6351 9.9421 0.0000 9.5304 0.0000
# 3 13.5203 9.9421 162.6912 0.0000 -22.4568 0.0000
# 4 0.0000 0.0000 0.0000 32.0555 0.0000 3.5472
# 5 -15.2282 9.5304 -22.4568 0.0000 28.6290 0.0000
# 6 0.0000 0.0000 0.0000 3.5472 0.0000 32.2672
#
#
#
# Elastic Compliance Matrix: (Units=1/GPa)
#
#
# Indices 1 2 3 4 5 6 
#
# 1 0.010024 -0.000807 -0.000012 0.000000 0.005591 0.000000
# 2 -0.000807 0.029159 -0.003492 0.000000 -0.012876 0.000000
# 3 -0.000012 -0.003492 0.007312 0.000000 0.006892 0.000000
# 4 0.000000 0.000000 0.000000 0.031580 0.000000 -0.003472
# 5 0.005591 -0.012876 0.006892 0.000000 0.047596 0.000000
# 6 0.000000 0.000000 0.000000 -0.003472 0.000000 0.031373
#
#
# Mechanical properties :
#
#
# Convention : Reuss Voigt Hill
#
# Bulk Modulus (GPa) = 26.40456 39.23704 32.82080
# Shear Modulus (GPa) = 28.04412 37.86245 32.95328
#
# Velocity S-wave (km/s) = 3.29803 3.83211 3.57506
# Velocity P-wave (km/s) = 4.97432 5.89901 5.45629
#
# Compressibility (1/GPa) = 0.03787225
#
# Stress axis : x y z
#
# Youngs Moduli (GPa) = 99.76553 34.29459 136.75537
#
# Poissons Ratio (x) = 0.02769 0.00163
# Poissons Ratio (y) = 0.08055 0.47756
# Poissons Ratio (z) = 0.00119 0.11976
#
# Static dielectric constant tensor:
#      x y z
#    x 2.140640 0.000000 -0.050270 
#    y 0.000000 2.264850 0.000000 
#    z -0.050270 0.000000 1.986450 
# 
# From -- ./inp_files/105658.got.cif
#   From: 2010.05.17/outbox.cif.g08.bks.cpg/sg15_53_cif.got.tgz:105658.got - 2010.06.03 18:47:42.
