data_PCOD9300828
_publ_section_title
;
Structure prediction by ZEFSAII (Michael W. Deem and Ramdas Pophale) SiO2 
 PCOD9300828
Probable space group: C 2/C
;
_chemical_formula_sum "Si O2"
_cell_formula_units_Z 40
_cell_length_a 17.627952
_cell_length_b 11.193268
_cell_length_c 12.056505
_cell_angle_alpha 90.000000
_cell_angle_beta 122.465680
_cell_angle_gamma 90.000000
_cell_volume 2007.127690
_symmetry_space_group_name_H-M "C 2/C"
_symmetry_group_IT_number 15
_symmetry_cell_setting 'monoclinic'
loop_
_space_group_symop_operation_xyz
x,y,z
-x,y,1/2-z
-x,-y,-z
x,-y,1/2+z
1/2+x,1/2+y,z
1/2-x,1/2+y,1/2-z
1/2-x,1/2-y,-z
1/2+x,1/2-y,1/2+z
loop_
_atom_site_type_symbol
_atom_site_label
_atom_site_fract_x
_atom_site_fract_y
_atom_site_fract_z
Si Si1 0.280546 0.298886 0.900500
Si Si2 0.570386 0.156766 0.615403
Si Si3 0.605443 0.118346 0.171775
Si Si4 0.000000 0.237050 0.750000
Si Si5 0.069000 0.026443 0.954500
Si Si6 0.500000 0.323349 0.750000
O O1 0.354457 0.209647 0.907424
O O2 0.202691 0.319594 0.746661
O O3 0.250000 0.250000 0.000000
O O4 0.330139 0.428578 0.944959
O O5 0.472034 0.150656 0.478403
O O6 0.555892 0.241665 0.709529
O O7 0.602466 0.024309 0.672603
O O8 0.573735 0.173980 0.262966
O O9 0.971090 0.144711 0.633988
O O10 0.063077 0.913149 0.869447
O O11 0.000000 0.000000 0.000000
#
# Coordination Sequence:
#
# PCOD9300828 Si02
#       6
#     8   8   8   4   8   4
#     4  12  24  43  70 102 135 185 239 284 355 427
#     4  11  25  44  66 100 139 182 231 292 354 415
#     4  11  23  42  69  96 138 180 229 284 351 425
#     4  11  19  40  68  94 135 179 222 280 348 405
#     4  11  22  40  69  99 132 179 229 287 353 407
#     4  11  23  42  72  94 137 181 230 294 358 409
#
# _framework density 19.928975000000001
#
# number of rings (size 3 to 8) (size 9 to 14) (size 15 to 20)
#    0.000    0.800    6.000    0.600    0.000    6.400 
#    0.000    2.000    0.000    0.000    0.000    0.000 
#    0.000    0.000    0.000    0.000    0.000    0.000 
#
# Total GULP energy -111391.601042 kJ/mol
# GULP energy per Si atom -5569.580052 kJ/mol
# Density = 1.988362 g / cm^3
# Si number density = 19.928975 Si / 1000 Ang^3
#
#
#
# Elastic Constant Matrix: (Units=GPa)
#
#
# Indices 1 2 3 4 5 6 
#
# 1 106.8483 55.1478 57.5108 0.0000 -10.9264 0.0000
# 2 55.1478 140.4324 59.4205 0.0000 -16.5155 0.0000
# 3 57.5108 59.4205 89.7020 0.0000 4.8000 0.0000
# 4 0.0000 0.0000 0.0000 34.1613 0.0000 -8.1420
# 5 -10.9264 -16.5155 4.8000 0.0000 43.1082 0.0000
# 6 0.0000 0.0000 0.0000 -8.1420 0.0000 36.8574
#
#
#
# Elastic Compliance Matrix: (Units=1/GPa)
#
#
# Indices 1 2 3 4 5 6 
#
# 1 0.015582 -0.001798 -0.009028 0.000000 0.004266 0.000000
# 2 -0.001798 0.011075 -0.006425 0.000000 0.004503 0.000000
# 3 -0.009028 -0.006425 0.021575 0.000000 -0.007152 0.000000
# 4 0.000000 0.000000 0.000000 0.030900 0.000000 0.006826
# 5 0.004266 0.004503 -0.007152 0.000000 0.026800 0.000000
# 6 0.000000 0.000000 0.000000 0.006826 0.000000 0.028639
#
#
# Mechanical properties :
#
#
# Convention : Reuss Voigt Hill
#
# Bulk Modulus (GPa) = 72.82486 75.68231 74.25359
# Shear Modulus (GPa) = 28.79385 33.81896 31.30641
#
# Velocity S-wave (km/s) = 3.80521 4.12390 3.96776
# Velocity P-wave (km/s) = 7.47848 7.79320 7.63746
#
# Compressibility (1/GPa) = 0.01373157
#
# Stress axis : x y z
#
# Youngs Moduli (GPa) = 64.17534 90.29588 46.35086
#
# Poissons Ratio (x) = 0.16231 0.41845
# Poissons Ratio (y) = 0.11536 0.29779
# Poissons Ratio (z) = 0.57937 0.58011
#
# Static dielectric constant tensor:
#      x y z
#    x 1.803290 0.000000 0.072420 
#    y 0.000000 1.696370 0.000000 
#    z 0.072420 0.000000 1.682490 
# 
# From -- ./inp_files/95164.got.cif
#   From: 2010.05.17/outbox.cif.g08.bks.cpg/sg15_48_cif.got.tgz:95164.got - 2010.06.03 18:47:42.
