data_PCOD9300759
_publ_section_title
;
Structure prediction by ZEFSAII (Michael W. Deem and Ramdas Pophale) SiO2 
 PCOD9300759
Probable space group: C 2/C
;
_chemical_formula_sum "Si O2"
_cell_formula_units_Z 40
_cell_length_a 15.623672
_cell_length_b 12.277964
_cell_length_c 8.573461
_cell_angle_alpha 90.000000
_cell_angle_beta 109.283627
_cell_angle_gamma 90.000000
_cell_volume 1552.349468
_symmetry_space_group_name_H-M "C 2/C"
_symmetry_group_IT_number 15
_symmetry_cell_setting 'monoclinic'
loop_
_space_group_symop_operation_xyz
x,y,z
-x,y,1/2-z
-x,-y,-z
x,-y,1/2+z
1/2+x,1/2+y,z
1/2-x,1/2+y,1/2-z
1/2-x,1/2-y,-z
1/2+x,1/2-y,1/2+z
loop_
_atom_site_type_symbol
_atom_site_label
_atom_site_fract_x
_atom_site_fract_y
_atom_site_fract_z
Si Si1 0.704821 0.232657 0.643226
Si Si2 0.111660 0.149885 0.606938
Si Si3 0.142764 0.066731 0.299902
Si Si4 0.929954 0.384278 0.841583
Si Si5 0.340613 0.020564 0.018550
O O1 0.750000 0.250000 0.500000
O O2 0.784166 0.192941 0.807594
O O3 0.656802 0.338842 0.680599
O O4 0.641544 0.128344 0.576214
O O5 0.093436 0.118411 0.418662
O O6 0.059630 0.255747 0.633695
O O7 0.100257 0.041891 0.702211
O O8 0.240918 0.026953 0.425620
O O9 0.913574 0.432795 0.002469
O O10 0.842949 0.434357 0.696162
O O11 0.000000 0.417533 0.750000
#
# Coordination Sequence:
#
# PCOD9300759 Si02
#       5
#     8   8   8   8   8
#     4  11  19  37  64  96 129 153 195 266 323 370
#     4  11  23  38  62  94 126 156 206 256 320 369
#     4  11  22  38  67  98 123 154 199 273 328 363
#     4  12  26  43  61  86 128 173 212 247 291 374
#     4  11  22  40  64  93 124 159 209 252 318 364
#
# _framework density 25.767392999999998
#
# number of rings (size 3 to 8) (size 9 to 14) (size 15 to 20)
#    0.000    0.800    4.000    6.000    2.800    0.000 
#    0.000    1.000    0.000    0.000    0.000    0.000 
#    0.000    0.000    0.000    0.000    0.000    0.000 
#
# Total GULP energy -111904.122394 kJ/mol
# GULP energy per Si atom -5595.206120 kJ/mol
# Density = 2.570875 g / cm^3
# Si number density = 25.767393 Si / 1000 Ang^3
#
#
#
# Elastic Constant Matrix: (Units=GPa)
#
#
# Indices 1 2 3 4 5 6 
#
# 1 29.0752 9.3576 13.2655 0.0000 -14.2554 0.0000
# 2 9.3576 201.9807 81.8082 0.0000 -16.2146 0.0000
# 3 13.2655 81.8082 145.7128 0.0000 -24.8335 0.0000
# 4 0.0000 0.0000 0.0000 53.7150 0.0000 -13.1497
# 5 -14.2554 -16.2146 -24.8335 0.0000 22.1630 0.0000
# 6 0.0000 0.0000 0.0000 -13.1497 0.0000 18.2336
#
#
#
# Elastic Compliance Matrix: (Units=1/GPa)
#
#
# Indices 1 2 3 4 5 6 
#
# 1 0.050396 -0.000126 0.001226 0.000000 0.033696 0.000000
# 2 -0.000126 0.006420 -0.003469 0.000000 0.000729 0.000000
# 3 0.001226 -0.003469 0.010383 0.000000 0.009885 0.000000
# 4 0.000000 0.000000 0.000000 0.022608 0.000000 0.016305
# 5 0.033696 0.000729 0.009885 0.000000 0.078404 0.000000
# 6 0.000000 0.000000 0.000000 0.016305 0.000000 0.066602
#
#
# Mechanical properties :
#
#
# Convention : Reuss Voigt Hill
#
# Bulk Modulus (GPa) = 16.00994 65.07014 40.54004
# Shear Modulus (GPa) = 19.20319 36.97815 28.09067
#
# Velocity S-wave (km/s) = 2.73289 3.79235 3.30534
# Velocity P-wave (km/s) = 4.02306 6.66960 5.50766
#
# Compressibility (1/GPa) = 0.06246118
#
# Stress axis : x y z
#
# Youngs Moduli (GPa) = 19.84279 155.75522 96.30706
#
# Poissons Ratio (x) = 0.01964 -0.11803
# Poissons Ratio (y) = 0.00250 0.33407
# Poissons Ratio (z) = -0.02432 0.54029
#
# Static dielectric constant tensor:
#      x y z
#    x 2.230850 0.000000 0.174930 
#    y 0.000000 2.015600 0.000000 
#    z 0.174930 0.000000 2.107390 
# 
# From -- ./inp_files/46045.got.cif
#   From: 2010.05.17/outbox.cif.g08.bks.cpg/sg15_24_cif.got.tgz:46045.got - 2010.06.03 18:47:42.
