data_PCOD9300855
_publ_section_title
;
Structure prediction by ZEFSAII (Michael W. Deem and Ramdas Pophale) SiO2 
 PCOD9300855
Probable space group: C 2/C
;
_chemical_formula_sum "Si O2"
_cell_formula_units_Z 64
_cell_length_a 11.525779
_cell_length_b 14.512059
_cell_length_c 28.604270
_cell_angle_alpha 90.000000
_cell_angle_beta 142.412197
_cell_angle_gamma 90.000000
_cell_volume 2918.389728
_symmetry_space_group_name_H-M "C 2/C"
_symmetry_group_IT_number 15
_symmetry_cell_setting 'monoclinic'
loop_
_space_group_symop_operation_xyz
x,y,z
-x,y,1/2-z
-x,-y,-z
x,-y,1/2+z
1/2+x,1/2+y,z
1/2-x,1/2+y,1/2-z
1/2-x,1/2-y,-z
1/2+x,1/2-y,1/2+z
loop_
_atom_site_type_symbol
_atom_site_label
_atom_site_fract_x
_atom_site_fract_y
_atom_site_fract_z
Si Si1 0.875064 0.110744 0.608027
Si Si2 0.058972 0.925374 0.822463
Si Si3 0.990464 0.821365 0.605332
Si Si4 0.001431 0.865060 0.453800
Si Si5 0.028284 0.646197 0.057460
Si Si6 0.696172 0.124183 0.935652
Si Si7 0.133085 0.288594 0.832694
Si Si8 0.581076 0.067347 0.384149
O O1 0.002670 0.107651 0.601939
O O2 0.654850 0.095073 0.522497
O O3 0.875245 0.212865 0.629406
O O4 0.936520 0.033338 0.664127
O O5 0.943532 0.875130 0.827221
O O6 0.271096 0.884599 0.898600
O O7 0.000000 0.908176 0.750000
O O8 0.831444 0.877565 0.524771
O O9 0.903283 0.723303 0.593299
O O10 0.158354 0.802011 0.622198
O O11 0.195643 0.909811 0.534743
O O12 0.010916 0.754395 0.459636
O O13 0.827257 0.888761 0.431684
O O14 0.034604 0.622160 0.113997
O O15 0.551392 0.039630 0.885286
O O16 0.051913 0.386053 0.825064
O O17 0.000000 0.251250 0.750000
#
# Coordination Sequence:
#
# PCOD9300855 Si02
#       8
#     8   8   8   8   8   8   8   8
#     4  11  23  43  70  98 125 177 226 273 325 393
#     4  12  28  44  64  96 137 179 216 274 337 395
#     4  11  25  44  66  98 136 172 221 272 337 388
#     4  11  19  41  69 101 129 166 218 276 331 376
#     4  11  21  42  70  95 129 171 226 273 322 390
#     4  11  23  41  71 102 129 169 222 285 325 388
#     4  12  26  43  65  96 138 175 217 275 333 398
#     4  11  22  39  66 100 129 168 219 273 329 388
#
# _framework density 21.929901000000001
#
# number of rings (size 3 to 8) (size 9 to 14) (size 15 to 20)
#    0.000    0.750    5.000    3.375    7.000    0.000 
#    0.000    0.625    0.000    0.000    0.000    0.000 
#    0.000    0.000    0.000    0.000    0.000    0.000 
#
# Total GULP energy -178863.422047 kJ/mol
# GULP energy per Si atom -5589.481939 kJ/mol
# Density = 2.187999 g / cm^3
# Si number density = 21.929901 Si / 1000 Ang^3
#
#
#
# Elastic Constant Matrix: (Units=GPa)
#
#
# Indices 1 2 3 4 5 6 
#
# 1 86.9287 20.8458 19.7075 0.0000 -22.5235 0.0000
# 2 20.8458 106.3723 12.0265 0.0000 -13.5319 0.0000
# 3 19.7075 12.0265 56.9377 0.0000 -25.0881 0.0000
# 4 0.0000 0.0000 0.0000 14.2414 0.0000 -12.5228
# 5 -22.5235 -13.5319 -25.0881 0.0000 32.5179 0.0000
# 6 0.0000 0.0000 0.0000 -12.5228 0.0000 26.8703
#
#
#
# Elastic Compliance Matrix: (Units=1/GPa)
#
#
# Indices 1 2 3 4 5 6 
#
# 1 0.014307 -0.001616 -0.000819 0.000000 0.008605 0.000000
# 2 -0.001616 0.010116 -0.000327 0.000000 0.002838 0.000000
# 3 -0.000819 -0.000327 0.026673 0.000000 0.019876 0.000000
# 4 0.000000 0.000000 0.000000 0.118973 0.000000 0.055447
# 5 0.008605 0.002838 0.019876 0.000000 0.053228 0.000000
# 6 0.000000 0.000000 0.000000 0.055447 0.000000 0.063057
#
#
# Mechanical properties :
#
#
# Convention : Reuss Voigt Hill
#
# Bulk Modulus (GPa) = 21.94365 39.48873 30.71619
# Shear Modulus (GPa) = 16.28306 27.90317 22.09312
#
# Velocity S-wave (km/s) = 2.72785 3.57091 3.17747
# Velocity P-wave (km/s) = 4.46649 5.92012 5.24392
#
# Compressibility (1/GPa) = 0.04557128
#
# Stress axis : x y z
#
# Youngs Moduli (GPa) = 69.89817 98.85663 37.49085
#
# Poissons Ratio (x) = 0.15979 0.03070
# Poissons Ratio (y) = 0.11298 0.01225
# Poissons Ratio (z) = 0.05723 0.03231
#
# Static dielectric constant tensor:
#      x y z
#    x 1.812280 0.000000 -0.002200 
#    y 0.000000 1.781500 0.000000 
#    z -0.002200 0.000000 1.825670 
# 
# From -- ./inp_files/293105.got.cif
#   From: 2010.05.17/outbox.cif.g08.bks.cpg/sg15_147_cif.got.tgz:293105.got - 2010.06.03 18:47:42.
