data_PCOD9300177
_publ_section_title
;
Structure prediction by ZEFSAII (Michael W. Deem and Ramdas Pophale) SiO2 
 PCOD9300177
Probable space group: C 2/C
;
_chemical_formula_sum "Si O2"
_cell_formula_units_Z 60
_cell_length_a 15.634722
_cell_length_b 14.755751
_cell_length_c 14.601140
_cell_angle_alpha 90.000000
_cell_angle_beta 125.662492
_cell_angle_gamma 90.000000
_cell_volume 2736.800250
_symmetry_space_group_name_H-M "C 2/C"
_symmetry_group_IT_number 15
_symmetry_cell_setting 'monoclinic'
loop_
_space_group_symop_operation_xyz
x,y,z
-x,y,1/2-z
-x,-y,-z
x,-y,1/2+z
1/2+x,1/2+y,z
1/2-x,1/2+y,1/2-z
1/2-x,1/2-y,-z
1/2+x,1/2-y,1/2+z
loop_
_atom_site_type_symbol
_atom_site_label
_atom_site_fract_x
_atom_site_fract_y
_atom_site_fract_z
Si Si1 0.829249 0.462344 0.891263
Si Si2 0.042990 0.635787 0.510308
Si Si3 0.741630 0.858467 0.470604
Si Si4 0.830585 0.860754 0.820792
Si Si5 0.533722 0.449402 0.928997
Si Si6 0.909437 0.709343 0.764745
Si Si7 0.143631 0.795289 0.464337
Si Si8 0.500000 0.409316 0.250000
O O1 0.859734 0.565401 0.931925
O O2 0.737635 0.442113 0.761468
O O3 0.794889 0.411921 0.962206
O O4 0.935837 0.415968 0.920042
O O5 0.036609 0.667295 0.611808
O O6 0.065013 0.720168 0.457841
O O7 0.750000 0.750000 0.500000
O O8 0.850596 0.907800 0.509169
O O9 0.654701 0.863051 0.336697
O O10 0.813221 0.770492 0.749158
O O11 0.953328 0.867204 0.872553
O O12 0.826059 0.854759 0.927180
O O13 0.494948 0.520820 0.829890
O O14 0.500000 0.500000 0.000000
O O15 0.000000 0.744426 0.750000
O O16 0.250000 0.750000 0.500000
O O17 0.092773 0.845766 0.346117
#
# Coordination Sequence:
#
# PCOD9300177 Si02
#       8
#     8   8   8   8   8   8   8   4
#     4  11  24  45  70 101 144 192 241 312 369 445
#     4  10  26  46  67 102 145 188 247 300 373 450
#     4  12  25  43  74 107 145 195 243 304 381 447
#     4  11  25  44  71 102 145 185 245 305 375 442
#     4  12  28  46  73 112 149 190 251 316 378 442
#     4  11  22  42  71 104 140 185 245 302 368 449
#     4  11  28  48  73 105 145 199 248 298 379 464
#     4  12  28  50  76 106 150 198 246 318 368 456
#
# _framework density 21.923413
#
# number of rings (size 3 to 8) (size 9 to 14) (size 15 to 20)
#    0.000    0.800    4.000    1.600   10.267    1.067 
#    0.000    0.000    0.000    0.000    0.000    0.000 
#    0.000    0.000    0.000    0.000    0.000    0.000 
#
# Total GULP energy -167361.276388 kJ/mol
# GULP energy per Si atom -5578.709213 kJ/mol
# Density = 2.187351 g / cm^3
# Si number density = 21.923413 Si / 1000 Ang^3
#
#
#
# Elastic Constant Matrix: (Units=GPa)
#
#
# Indices 1 2 3 4 5 6 
#
# 1 103.4936 24.8662 43.9121 0.0000 0.0002 0.0000
# 2 24.8662 68.6789 19.2129 0.0000 -8.9556 0.0000
# 3 43.9121 19.2129 108.8047 0.0000 -7.0449 0.0000
# 4 0.0000 0.0000 0.0000 30.5865 0.0000 5.5996
# 5 0.0002 -8.9556 -7.0449 0.0000 28.3025 0.0000
# 6 0.0000 0.0000 0.0000 5.5996 0.0000 36.3920
#
#
#
# Elastic Compliance Matrix: (Units=1/GPa)
#
#
# Indices 1 2 3 4 5 6 
#
# 1 0.012437 -0.003525 -0.004542 0.000000 -0.002246 0.000000
# 2 -0.003525 0.016834 -0.001225 0.000000 0.005022 0.000000
# 3 -0.004542 -0.001225 0.011399 0.000000 0.002450 0.000000
# 4 0.000000 0.000000 0.000000 0.033642 0.000000 -0.005176
# 5 -0.002246 0.005022 0.002450 0.000000 0.037532 0.000000
# 6 0.000000 0.000000 0.000000 -0.005176 0.000000 0.028275
#
#
# Mechanical properties :
#
#
# Convention : Reuss Voigt Hill
#
# Bulk Modulus (GPa) = 45.27834 50.77329 48.02581
# Shear Modulus (GPa) = 30.10881 31.92193 31.01537
#
# Velocity S-wave (km/s) = 3.70991 3.81998 3.76535
# Velocity P-wave (km/s) = 6.24892 6.53192 6.39199
#
# Compressibility (1/GPa) = 0.02208562
#
# Stress axis : x y z
#
# Youngs Moduli (GPa) = 80.40742 59.40255 87.72809
#
# Poissons Ratio (x) = 0.20940 0.39848
# Poissons Ratio (y) = 0.28344 0.10745
# Poissons Ratio (z) = 0.36523 0.07276
#
# Static dielectric constant tensor:
#      x y z
#    x 1.793950 0.000000 -0.022600 
#    y 0.000000 1.967410 0.000000 
#    z -0.022600 0.000000 1.941420 
# 
# From -- ./inp_files/154273.got.cif
#   From: 2010.05.17/outbox.cif.g08.bks.cpg/sg15_78_cif.got.tgz:154273.got - 2010.06.03 18:47:42.
