data_PCOD9300162
_publ_section_title
;
Structure prediction by ZEFSAII (Michael W. Deem and Ramdas Pophale) SiO2 
 PCOD9300162
Probable space group: C 2/C
;
_chemical_formula_sum "Si O2"
_cell_formula_units_Z 52
_cell_length_a 24.245501
_cell_length_b 14.185625
_cell_length_c 8.329260
_cell_angle_alpha 90.000000
_cell_angle_beta 116.939236
_cell_angle_gamma 90.000000
_cell_volume 2553.884851
_symmetry_space_group_name_H-M "C 2/C"
_symmetry_group_IT_number 15
_symmetry_cell_setting 'monoclinic'
loop_
_space_group_symop_operation_xyz
x,y,z
-x,y,1/2-z
-x,-y,-z
x,-y,1/2+z
1/2+x,1/2+y,z
1/2-x,1/2+y,1/2-z
1/2-x,1/2-y,-z
1/2+x,1/2-y,1/2+z
loop_
_atom_site_type_symbol
_atom_site_label
_atom_site_fract_x
_atom_site_fract_y
_atom_site_fract_z
Si Si1 0.386182 0.402527 0.005322
Si Si2 0.802576 0.422876 0.335108
Si Si3 0.616763 0.778736 0.223399
Si Si4 0.000000 0.219347 0.250000
Si Si5 0.420357 0.397971 0.402253
Si Si6 0.739725 0.890323 0.857392
Si Si7 0.301816 0.707396 0.883027
O O1 0.391036 0.308384 0.907920
O O2 0.408058 0.494784 0.938935
O O3 0.313050 0.412562 0.952928
O O4 0.425764 0.395014 0.219134
O O5 0.863363 0.371557 0.347445
O O6 0.787642 0.397832 0.499573
O O7 0.797002 0.533524 0.298327
O O8 0.746806 0.376253 0.159413
O O9 0.554970 0.781742 0.248467
O O10 0.671542 0.748635 0.417414
O O11 0.026338 0.151123 0.423947
O O12 0.359578 0.337714 0.366818
O O13 0.728873 0.788392 0.765371
#
# Coordination Sequence:
#
# PCOD9300162 Si02
#       7
#     8   8   8   4   8   8   8
#     4  12  22  37  63  96 128 166 197 251 309 384
#     4  12  23  37  61  92 127 165 196 249 311 375
#     4  11  25  40  63  86 123 166 213 252 307 358
#     4  10  26  46  60  84 120 172 216 266 294 354
#     4  11  23  39  62  89 127 165 211 248 306 363
#     4  12  23  37  62  99 136 157 193 249 319 378
#     4  11  21  38  61  91 127 163 198 249 308 376
#
# _framework density 20.361136999999999
#
# number of rings (size 3 to 8) (size 9 to 14) (size 15 to 20)
#    0.000    0.615    4.615    4.615    2.154    3.077 
#    0.000    0.000    0.000    8.308    0.000    0.000 
#    0.000    0.000    0.000    0.000    0.000    0.000 
#
# Total GULP energy -145506.407340 kJ/mol
# GULP energy per Si atom -5596.400282 kJ/mol
# Density = 2.031479 g / cm^3
# Si number density = 20.361137 Si / 1000 Ang^3
#
#
#
# Elastic Constant Matrix: (Units=GPa)
#
#
# Indices 1 2 3 4 5 6 
#
# 1 73.7617 7.8839 19.4826 0.0000 -3.5249 0.0000
# 2 7.8839 63.3190 -5.2770 0.0000 2.1814 0.0000
# 3 19.4826 -5.2770 89.4313 0.0000 -9.3572 0.0000
# 4 0.0000 0.0000 0.0000 26.1438 0.0000 -5.1075
# 5 -3.5249 2.1814 -9.3572 0.0000 31.0314 0.0000
# 6 0.0000 0.0000 0.0000 -5.1075 0.0000 23.6302
#
#
#
# Elastic Compliance Matrix: (Units=1/GPa)
#
#
# Indices 1 2 3 4 5 6 
#
# 1 0.014679 -0.002126 -0.003235 0.000000 0.000841 0.000000
# 2 -0.002126 0.016201 0.001316 0.000000 -0.000984 0.000000
# 3 -0.003235 0.001316 0.012304 0.000000 0.003250 0.000000
# 4 0.000000 0.000000 0.000000 0.039936 0.000000 0.008632
# 5 0.000841 -0.000984 0.003250 0.000000 0.033370 0.000000
# 6 0.000000 0.000000 0.000000 0.008632 0.000000 0.044184
#
#
# Mechanical properties :
#
#
# Convention : Reuss Voigt Hill
#
# Bulk Modulus (GPa) = 28.49472 30.07678 29.28575
# Shear Modulus (GPa) = 27.70625 29.78923 28.74774
#
# Velocity S-wave (km/s) = 3.69283 3.82912 3.76159
# Velocity P-wave (km/s) = 5.67518 5.86117 5.76892
#
# Compressibility (1/GPa) = 0.03509422
#
# Stress axis : x y z
#
# Youngs Moduli (GPa) = 68.12366 61.72308 81.27233
#
# Poissons Ratio (x) = 0.13124 0.26294
# Poissons Ratio (y) = 0.14485 -0.10698
# Poissons Ratio (z) = 0.22040 -0.08125
#
# Static dielectric constant tensor:
#      x y z
#    x 1.760340 0.000000 -0.010090 
#    y 0.000000 1.672070 0.000000 
#    z -0.010090 0.000000 1.733030 
# 
# From -- ./inp_files/61655.got.cif
#   From: 2010.05.17/outbox.cif.g08.bks.cpg/sg15_31_cif.got.tgz:61655.got - 2010.06.03 18:47:42.
