data_PCOD9300058
_publ_section_title
;
Structure prediction by ZEFSAII (Michael W. Deem and Ramdas Pophale) SiO2 
 PCOD9300058
Probable space group: C 2/C
;
_chemical_formula_sum "Si O2"
_cell_formula_units_Z 56
_cell_length_a 21.922887
_cell_length_b 10.963234
_cell_length_c 26.286244
_cell_angle_alpha 90.000000
_cell_angle_beta 25.932343
_cell_angle_gamma 90.000000
_cell_volume 2762.828248
_symmetry_space_group_name_H-M "C 2/C"
_symmetry_group_IT_number 15
_symmetry_cell_setting 'monoclinic'
loop_
_space_group_symop_operation_xyz
x,y,z
-x,y,1/2-z
-x,-y,-z
x,-y,1/2+z
1/2+x,1/2+y,z
1/2-x,1/2+y,1/2-z
1/2-x,1/2-y,-z
1/2+x,1/2-y,1/2+z
loop_
_atom_site_type_symbol
_atom_site_label
_atom_site_fract_x
_atom_site_fract_y
_atom_site_fract_z
Si Si1 0.786618 0.433495 0.667963
Si Si2 0.500000 0.403575 0.250000
Si Si3 0.652428 0.444043 0.877925
Si Si4 0.424013 0.819147 0.022480
Si Si5 0.002547 0.891995 0.664429
Si Si6 0.738822 0.536318 0.914306
Si Si7 0.237906 0.242742 0.448392
Si Si8 0.500000 0.193583 0.750000
O O1 0.714787 0.460685 0.775775
O O2 0.847295 0.557505 0.598073
O O3 0.660886 0.386508 0.726994
O O4 0.585221 0.841242 0.917017
O O5 0.467583 0.490918 0.322075
O O6 0.371550 0.319373 0.329976
O O7 0.638808 0.300921 0.903039
O O8 0.742123 0.519006 0.851503
O O9 0.500000 0.500000 0.000000
O O10 0.393333 0.796605 0.985204
O O11 0.097727 0.904559 0.543044
O O12 0.036243 0.777681 0.674527
O O13 0.745924 0.398595 0.929116
O O14 0.867916 0.612347 0.836589
O O15 0.250000 0.250000 0.500000
#
# Coordination Sequence:
#
# PCOD9300058 Si02
#       8
#     8   4   8   8   8   8   8   4
#     4  11  24  45  70  99 138 178 224 281 334 405
#     4  11  21  40  64  98 125 175 212 262 346 383
#     4  11  25  42  69  95 133 179 221 274 339 402
#     4  10  26  43  67 107 133 173 231 279 341 395
#     4  11  23  42  69  90 137 174 221 272 330 406
#     4  11  24  45  63 100 130 172 225 274 337 394
#     4  11  22  40  72  96 132 167 217 282 326 406
#     4  11  27  42  66 100 129 179 224 274 330 399
#
# _framework density 20.269085
#
# number of rings (size 3 to 8) (size 9 to 14) (size 15 to 20)
#    0.000    1.143    4.286    0.857    4.000    3.429 
#    0.000    1.429    0.000    0.000    0.000    0.000 
#    0.000    0.000    0.000    0.000    0.000    0.000 
#
# Total GULP energy -156408.709046 kJ/mol
# GULP energy per Si atom -5586.025323 kJ/mol
# Density = 2.022295 g / cm^3
# Si number density = 20.269085 Si / 1000 Ang^3
#
#
#
# Elastic Constant Matrix: (Units=GPa)
#
#
# Indices 1 2 3 4 5 6 
#
# 1 115.8947 50.6886 14.5068 -0.0004 -8.1497 0.0001
# 2 50.6886 92.2981 23.9508 0.0020 -15.6074 -0.0008
# 3 14.5068 23.9508 49.6241 0.0017 -7.9203 -0.0009
# 4 -0.0004 0.0020 0.0017 9.0335 -0.0004 -14.2483
# 5 -8.1497 -15.6074 -7.9203 -0.0004 48.5937 0.0002
# 6 0.0001 -0.0008 -0.0009 -14.2483 0.0002 37.0125
#
#
#
# Elastic Compliance Matrix: (Units=1/GPa)
#
#
# Indices 1 2 3 4 5 6 
#
# 1 0.011363 -0.006168 -0.000366 0.000004 -0.000135 0.000001
# 2 -0.006168 0.016201 -0.005494 -0.000006 0.003274 -0.000002
# 3 -0.000366 -0.005494 0.023223 -0.000006 0.001959 -0.000002
# 4 0.000004 -0.000006 -0.000006 0.281812 0.000000 0.108486
# 5 -0.000135 0.003274 0.001959 0.000000 0.021927 0.000000
# 6 0.000001 -0.000002 -0.000002 0.108486 0.000000 0.068781
#
#
# Mechanical properties :
#
#
# Convention : Reuss Voigt Hill
#
# Bulk Modulus (GPa) = 37.41062 48.45659 42.93361
# Shear Modulus (GPa) = 10.95838 30.17264 20.56551
#
# Velocity S-wave (km/s) = 2.32770 3.86243 3.18877
# Velocity P-wave (km/s) = 5.07162 6.62191 5.89792
#
# Compressibility (1/GPa) = 0.02673038
#
# Stress axis : x y z
#
# Youngs Moduli (GPa) = 88.00867 61.72490 43.06116
#
# Poissons Ratio (x) = 0.38071 0.01577
# Poissons Ratio (y) = 0.54283 0.23656
# Poissons Ratio (z) = 0.03224 0.33910
#
# Static dielectric constant tensor:
#      x y z
#    x 1.846360 0.000000 0.069960 
#    y 0.000000 1.696000 0.000000 
#    z 0.069960 0.000000 1.753280 
# 
# From -- ./inp_files/111097.got.cif
#   From: 2010.05.17/outbox.cif.g08.bks.cpg/sg15_56_cif.got.tgz:111097.got - 2010.06.03 18:47:42.
