data_PCOD9300742
_publ_section_title
;
Structure prediction by ZEFSAII (Michael W. Deem and Ramdas Pophale) SiO2 
 PCOD9300742
Probable space group: C 2/C
;
_chemical_formula_sum "Si O2"
_cell_formula_units_Z 60
_cell_length_a 29.628835
_cell_length_b 12.574826
_cell_length_c 20.938271
_cell_angle_alpha 90.000000
_cell_angle_beta 160.301530
_cell_angle_gamma 90.000000
_cell_volume 2629.526967
_symmetry_space_group_name_H-M "C 2/C"
_symmetry_group_IT_number 15
_symmetry_cell_setting 'monoclinic'
loop_
_space_group_symop_operation_xyz
x,y,z
-x,y,1/2-z
-x,-y,-z
x,-y,1/2+z
1/2+x,1/2+y,z
1/2-x,1/2+y,1/2-z
1/2-x,1/2-y,-z
1/2+x,1/2-y,1/2+z
loop_
_atom_site_type_symbol
_atom_site_label
_atom_site_fract_x
_atom_site_fract_y
_atom_site_fract_z
Si Si1 0.000000 0.864678 0.250000
Si Si2 0.694661 0.964636 0.094553
Si Si3 0.542018 0.821440 0.716344
Si Si4 0.549744 0.673624 0.520927
Si Si5 0.152778 0.945754 0.822833
Si Si6 0.046573 0.135810 0.974835
Si Si7 0.733398 0.981001 0.902872
Si Si8 0.650915 0.913046 0.660223
O O1 0.071310 0.779638 0.298710
O O2 0.122891 0.939975 0.430146
O O3 0.813253 0.894516 0.286092
O O4 0.746378 0.032791 0.102766
O O5 0.620321 0.025960 0.053418
O O6 0.583026 0.883637 0.920831
O O7 0.489934 0.758005 0.585254
O O8 0.659098 0.896032 0.849376
O O9 0.458898 0.644546 0.339181
O O10 0.460769 0.625620 0.459590
O O11 0.578196 0.798687 0.565791
O O12 0.060687 0.053442 0.697420
O O13 0.227250 0.932413 0.990241
O O14 0.193557 0.116730 0.145310
O O15 0.648484 0.982320 0.723017
#
# Coordination Sequence:
#
# PCOD9300742 Si02
#       8
#     4   8   8   8   8   8   8   8
#     4  12  22  36  60  90 136 164 192 260 344 396
#     4  11  23  39  63  91 127 174 216 263 326 392
#     4  12  23  36  58  97 131 162 205 274 331 374
#     4  11  21  39  64  90 130 175 218 263 328 399
#     4  11  22  39  63  91 132 179 212 254 338 411
#     4  11  19  37  59  92 129 164 213 260 324 396
#     4  12  24  37  61  97 134 160 210 270 335 385
#     4  12  22  39  64  97 128 165 220 277 320 379
#
# _framework density 22.817792000000001
#
# number of rings (size 3 to 8) (size 9 to 14) (size 15 to 20)
#    0.000    0.533    8.000    2.000    1.867    0.533 
#    0.000    0.000    0.000    0.800    6.933    0.000 
#    0.000    0.000    0.000    0.000    0.000    0.000 
#
# Total GULP energy -167130.889441 kJ/mol
# GULP energy per Si atom -5571.029648 kJ/mol
# Density = 2.276586 g / cm^3
# Si number density = 22.817792 Si / 1000 Ang^3
#
#
#
# Elastic Constant Matrix: (Units=GPa)
#
#
# Indices 1 2 3 4 5 6 
#
# 1 98.0670 18.7581 19.9080 0.0000 -13.2711 0.0000
# 2 18.7581 42.3812 13.6032 0.0000 -17.2274 0.0000
# 3 19.9080 13.6032 65.2886 0.0000 -8.6177 0.0000
# 4 0.0000 0.0000 0.0000 20.8120 0.0000 0.4765
# 5 -13.2711 -17.2274 -8.6177 0.0000 37.7399 0.0000
# 6 0.0000 0.0000 0.0000 0.4765 0.0000 17.9869
#
#
#
# Elastic Compliance Matrix: (Units=1/GPa)
#
#
# Indices 1 2 3 4 5 6 
#
# 1 0.011655 -0.003571 -0.002561 0.000000 0.001884 0.000000
# 2 -0.003571 0.031360 -0.003837 0.000000 0.012183 0.000000
# 3 -0.002561 -0.003837 0.017061 0.000000 0.001244 0.000000
# 4 0.000000 0.000000 0.000000 0.048078 0.000000 -0.001274
# 5 0.001884 0.012183 0.001244 0.000000 0.033005 0.000000
# 6 0.000000 0.000000 0.000000 -0.001274 0.000000 0.055630
#
#
# Mechanical properties :
#
#
# Convention : Reuss Voigt Hill
#
# Bulk Modulus (GPa) = 24.91420 34.47505 29.69462
# Shear Modulus (GPa) = 21.72909 25.53892 23.63400
#
# Velocity S-wave (km/s) = 3.08926 3.34916 3.22183
# Velocity P-wave (km/s) = 4.86489 5.48611 5.18482
#
# Compressibility (1/GPa) = 0.04013776
#
# Stress axis : x y z
#
# Youngs Moduli (GPa) = 85.80031 31.88807 58.61245
#
# Poissons Ratio (x) = 0.11387 0.15012
# Poissons Ratio (y) = 0.30638 0.22490
# Poissons Ratio (z) = 0.21976 0.12235
#
# Static dielectric constant tensor:
#      x y z
#    x 1.983540 0.000000 -0.086930 
#    y 0.000000 1.891920 0.000000 
#    z -0.086930 0.000000 1.911050 
# 
# From -- ./inp_files/259403.got.cif
#   From: 2010.05.17/outbox.cif.g08.bks.cpg/sg15_130_cif.got.tgz:259403.got - 2010.06.03 18:47:42.
