data_PCOD9300338
_publ_section_title
;
Structure prediction by ZEFSAII (Michael W. Deem and Ramdas Pophale) SiO2 
 PCOD9300338
Probable space group: C 2/C
;
_chemical_formula_sum "Si O2"
_cell_formula_units_Z 56
_cell_length_a 10.760646
_cell_length_b 9.600955
_cell_length_c 23.157193
_cell_angle_alpha 90.000000
_cell_angle_beta 65.839639
_cell_angle_gamma 90.000000
_cell_volume 2182.858751
_symmetry_space_group_name_H-M "C 2/C"
_symmetry_group_IT_number 15
_symmetry_cell_setting 'monoclinic'
loop_
_space_group_symop_operation_xyz
x,y,z
-x,y,1/2-z
-x,-y,-z
x,-y,1/2+z
1/2+x,1/2+y,z
1/2-x,1/2+y,1/2-z
1/2-x,1/2-y,-z
1/2+x,1/2-y,1/2+z
loop_
_atom_site_type_symbol
_atom_site_label
_atom_site_fract_x
_atom_site_fract_y
_atom_site_fract_z
Si Si1 0.749965 0.669756 0.249193
Si Si2 0.684197 0.748793 0.576178
Si Si3 0.225495 0.418568 0.188288
Si Si4 0.147148 0.006696 0.444352
Si Si5 0.484117 0.227470 0.854956
Si Si6 0.917605 0.436104 0.614336
Si Si7 0.773720 0.938344 0.947552
O O1 0.823103 0.568641 0.280331
O O2 0.780516 0.832303 0.232477
O O3 0.597296 0.676507 0.302800
O O4 0.790868 0.606229 0.179484
O O5 0.750000 0.750000 0.500000
O O6 0.798974 0.841815 0.585478
O O7 0.674774 0.585526 0.589660
O O8 0.544908 0.835627 0.604725
O O9 0.337444 0.420738 0.116515
O O10 0.102144 0.341842 0.180368
O O11 0.239040 0.954651 0.480824
O O12 0.000000 0.000000 0.500000
O O13 0.383912 0.321355 0.912186
O O14 0.544799 0.095565 0.878246
O O15 0.867789 0.412343 0.558344
#
# Coordination Sequence:
#
# PCOD9300338 Si02
#       7
#     8   8   8   8   8   8   8
#     4  12  28  47  83 112 157 212 273 334 400 491
#     4  10  26  49  72 117 162 212 262 328 391 495
#     4  12  27  53  78 117 159 213 270 336 409 473
#     4  11  26  50  84 118 170 215 270 341 409 486
#     4  12  27  51  79 119 166 207 275 343 403 486
#     4  12  27  49  77 120 160 212 272 332 412 484
#     4  11  28  48  84 119 160 220 265 328 412 488
#
# _framework density 25.654433000000001
#
# number of rings (size 3 to 8) (size 9 to 14) (size 15 to 20)
#    0.000    0.571    4.286    1.286   10.000    2.857 
#    0.000    0.000    0.000    0.000    0.000    0.000 
#    0.000    0.000    0.000    0.000    0.000    0.000 
#
# Total GULP energy -156678.304091 kJ/mol
# GULP energy per Si atom -5595.653718 kJ/mol
# Density = 2.559604 g / cm^3
# Si number density = 25.654433 Si / 1000 Ang^3
#
#
#
# Elastic Constant Matrix: (Units=GPa)
#
#
# Indices 1 2 3 4 5 6 
#
# 1 84.4150 46.2275 16.6728 0.0000 -9.5657 0.0000
# 2 46.2275 140.9820 37.4703 0.0000 -8.0641 0.0000
# 3 16.6728 37.4703 114.3236 0.0000 -0.9100 0.0000
# 4 0.0000 0.0000 0.0000 53.0096 0.0000 -0.7273
# 5 -9.5657 -8.0641 -0.9100 0.0000 28.0488 0.0000
# 6 0.0000 0.0000 0.0000 -0.7273 0.0000 48.7126
#
#
#
# Elastic Compliance Matrix: (Units=1/GPa)
#
#
# Indices 1 2 3 4 5 6 
#
# 1 0.014857 -0.004479 -0.000669 0.000000 0.003757 0.000000
# 2 -0.004479 0.009252 -0.002371 0.000000 0.001056 0.000000
# 3 -0.000669 -0.002371 0.009617 0.000000 -0.000598 0.000000
# 4 0.000000 0.000000 0.000000 0.018868 0.000000 0.000282
# 5 0.003757 0.001056 -0.000598 0.000000 0.037218 0.000000
# 6 0.000000 0.000000 0.000000 0.000282 0.000000 0.020533
#
#
# Mechanical properties :
#
#
# Convention : Reuss Voigt Hill
#
# Bulk Modulus (GPa) = 53.50765 60.05131 56.77948
# Shear Modulus (GPa) = 37.99063 41.91090 39.95077
#
# Velocity S-wave (km/s) = 3.85237 4.04625 3.95050
# Velocity P-wave (km/s) = 6.37887 6.72965 6.55661
#
# Compressibility (1/GPa) = 0.01868892
#
# Stress axis : x y z
#
# Youngs Moduli (GPa) = 67.30924 108.08239 103.98306
#
# Poissons Ratio (x) = 0.48408 0.06955
# Poissons Ratio (y) = 0.30146 0.24653
# Poissons Ratio (z) = 0.04502 0.25625
#
# Static dielectric constant tensor:
#      x y z
#    x 2.076550 0.000000 0.057010 
#    y 0.000000 2.143700 0.000000 
#    z 0.057010 0.000000 2.013030 
# 
# From -- ./inp_files/291499.got.cif
#   From: 2010.05.17/outbox.cif.g08.bks.cpg/sg15_146_cif.got.tgz:291499.got - 2010.06.03 18:47:42.
