data_PCOD9300360
_publ_section_title
;
Structure prediction by ZEFSAII (Michael W. Deem and Ramdas Pophale) SiO2 
 PCOD9300360
Probable space group: C 2/C
;
_chemical_formula_sum "Si O2"
_cell_formula_units_Z 44
_cell_length_a 8.415860
_cell_length_b 31.027815
_cell_length_c 9.087847
_cell_angle_alpha 90.000000
_cell_angle_beta 121.923840
_cell_angle_gamma 90.000000
_cell_volume 2014.147998
_symmetry_space_group_name_H-M "C 2/C"
_symmetry_group_IT_number 15
_symmetry_cell_setting 'monoclinic'
loop_
_space_group_symop_operation_xyz
x,y,z
-x,y,1/2-z
-x,-y,-z
x,-y,1/2+z
1/2+x,1/2+y,z
1/2-x,1/2+y,1/2-z
1/2-x,1/2-y,-z
1/2+x,1/2-y,1/2+z
loop_
_atom_site_type_symbol
_atom_site_label
_atom_site_fract_x
_atom_site_fract_y
_atom_site_fract_z
Si Si1 0.552121 0.302326 0.474493
Si Si2 0.607759 0.128599 0.958546
Si Si3 0.540288 0.793080 0.935844
Si Si4 0.500000 0.995880 0.250000
Si Si5 0.000000 0.878881 0.250000
Si Si6 0.500000 0.656891 0.250000
Si Si7 0.146466 0.440949 0.059186
O O1 0.461725 0.255045 0.422318
O O2 0.734291 0.295045 0.460612
O O3 0.461260 0.345416 0.363563
O O4 0.585423 0.313728 0.661098
O O5 0.500000 0.121995 0.750000
O O6 0.530780 0.090991 0.025760
O O7 0.535328 0.174420 0.981693
O O8 0.830891 0.130348 0.092300
O O9 0.500000 0.807744 0.750000
O O10 0.626747 0.025593 0.417069
O O11 0.627380 0.967337 0.202761
O O12 0.824469 0.909849 0.137152
#
# Coordination Sequence:
#
# PCOD9300360 Si02
#       7
#     8   8   8   4   4   4   8
#     4  11  25  41  65 108 142 192 246 296 342 426
#     4  12  26  47  72 105 148 194 238 307 348 431
#     4  11  23  45  66  96 150 199 246 291 353 408
#     4  10  26  50  72 100 138 178 227 307 374 450
#     4  12  24  44  76 104 142 192 239 297 354 436
#     4  12  28  40  70 106 140 194 250 280 366 412
#     4  11  25  48  74 103 139 180 233 297 376 431
#
# _framework density 21.845466999999999
#
# number of rings (size 3 to 8) (size 9 to 14) (size 15 to 20)
#    0.000    0.727    5.455    1.091    5.091    1.455 
#    0.000    3.636    0.000    0.000    0.000    0.000 
#    0.000    0.000    0.000    0.000    0.000    0.000 
#
# Total GULP energy -122789.017640 kJ/mol
# GULP energy per Si atom -5581.318984 kJ/mol
# Density = 2.179575 g / cm^3
# Si number density = 21.845467 Si / 1000 Ang^3
#
#
#
# Elastic Constant Matrix: (Units=GPa)
#
#
# Indices 1 2 3 4 5 6 
#
# 1 65.9148 37.3920 31.6004 0.0000 14.4241 0.0000
# 2 37.3920 137.0176 47.8575 0.0000 -0.7848 0.0000
# 3 31.6004 47.8575 105.2486 0.0000 -10.1844 0.0000
# 4 0.0000 0.0000 0.0000 36.9616 0.0000 -6.3522
# 5 14.4241 -0.7848 -10.1844 0.0000 32.1869 0.0000
# 6 0.0000 0.0000 0.0000 -6.3522 0.0000 13.2272
#
#
#
# Elastic Compliance Matrix: (Units=1/GPa)
#
#
# Indices 1 2 3 4 5 6 
#
# 1 0.023344 -0.004244 -0.006294 0.000000 -0.012556 0.000000
# 2 -0.004244 0.009484 -0.002921 0.000000 0.001209 0.000000
# 3 -0.006294 -0.002921 0.013396 0.000000 0.006988 0.000000
# 4 0.000000 0.000000 0.000000 0.029489 0.000000 0.014162
# 5 -0.012556 0.001209 0.006988 0.000000 0.038936 0.000000
# 6 0.000000 0.000000 0.000000 0.014162 0.000000 0.082403
#
#
# Mechanical properties :
#
#
# Convention : Reuss Voigt Hill
#
# Bulk Modulus (GPa) = 51.80111 60.20898 56.00504
# Shear Modulus (GPa) = 21.70100 29.23054 25.46577
#
# Velocity S-wave (km/s) = 3.15522 3.66192 3.41797
# Velocity P-wave (km/s) = 6.08588 6.74542 6.42412
#
# Compressibility (1/GPa) = 0.01930461
#
# Stress axis : x y z
#
# Youngs Moduli (GPa) = 42.83802 105.44370 74.65176
#
# Poissons Ratio (x) = 0.44750 0.46986
# Poissons Ratio (y) = 0.18181 0.21807
# Poissons Ratio (z) = 0.26963 0.30801
#
# Static dielectric constant tensor:
#      x y z
#    x 1.841730 0.000000 0.040340 
#    y 0.000000 1.788670 0.000000 
#    z 0.040340 0.000000 1.866490 
# 
# From -- ./inp_files/26293.got.cif
#   From: 2010.05.17/outbox.cif.g08.bks.cpg/sg15_14_cif.got.tgz:26293.got - 2010.06.03 18:47:42.
