data_PCOD9300832
_publ_section_title
;
Structure prediction by ZEFSAII (Michael W. Deem and Ramdas Pophale) SiO2 
 PCOD9300832
Probable space group: C 2/C
;
_chemical_formula_sum "Si O2"
_cell_formula_units_Z 40
_cell_length_a 14.952775
_cell_length_b 14.768092
_cell_length_c 21.517341
_cell_angle_alpha 90.000000
_cell_angle_beta 159.092766
_cell_angle_gamma 90.000000
_cell_volume 1695.616867
_symmetry_space_group_name_H-M "C 2/C"
_symmetry_group_IT_number 15
_symmetry_cell_setting 'monoclinic'
loop_
_space_group_symop_operation_xyz
x,y,z
-x,y,1/2-z
-x,-y,-z
x,-y,1/2+z
1/2+x,1/2+y,z
1/2-x,1/2+y,1/2-z
1/2-x,1/2-y,-z
1/2+x,1/2-y,1/2+z
loop_
_atom_site_type_symbol
_atom_site_label
_atom_site_fract_x
_atom_site_fract_y
_atom_site_fract_z
Si Si1 0.015297 0.073348 0.587761
Si Si2 0.145301 0.851217 0.288728
Si Si3 0.759500 0.406237 0.060708
Si Si4 0.968090 0.472438 0.586899
Si Si5 0.357425 0.679600 0.369667
O O1 0.945405 0.114705 0.608720
O O2 0.006890 0.142865 0.526729
O O3 0.285695 0.028650 0.774122
O O4 0.822184 0.992463 0.449504
O O5 0.292134 0.932588 0.418195
O O6 0.308184 0.782977 0.353823
O O7 0.000000 0.801075 0.250000
O O8 0.827321 0.454567 0.040018
O O9 0.000000 0.364118 0.250000
O O10 0.523076 0.339994 0.915756
O O11 0.104833 0.380936 0.702243
#
# Coordination Sequence:
#
# PCOD9300832 Si02
#       5
#     8   8   8   8   8
#     4  11  22  40  66  93 123 171 218 262 308 387
#     4  12  26  39  62  98 137 160 204 276 336 355
#     4  11  19  40  69  92 115 169 226 254 299 384
#     4  11  22  42  68  92 126 170 218 260 311 389
#     4  11  24  38  64  98 127 163 216 268 310 377
#
# _framework density 23.590233999999999
#
# number of rings (size 3 to 8) (size 9 to 14) (size 15 to 20)
#    0.000    0.800    6.000    3.000    2.800    1.600 
#    0.000    1.000    4.400    0.000    0.000    0.000 
#    0.000    0.000    0.000    0.000    0.000    0.000 
#
# Total GULP energy -111590.561017 kJ/mol
# GULP energy per Si atom -5579.528051 kJ/mol
# Density = 2.353654 g / cm^3
# Si number density = 23.590234 Si / 1000 Ang^3
#
#
#
# Elastic Constant Matrix: (Units=GPa)
#
#
# Indices 1 2 3 4 5 6 
#
# 1 101.5790 19.9686 33.0869 0.0311 5.5371 0.0029
# 2 19.9686 50.6193 14.8196 0.0330 -0.9325 -0.0067
# 3 33.0869 14.8196 82.0616 0.0238 0.2204 0.0584
# 4 0.0311 0.0330 0.0238 11.4589 0.0259 1.0088
# 5 5.5371 -0.9325 0.2204 0.0259 45.1988 0.0009
# 6 0.0029 -0.0067 0.0584 1.0088 0.0009 15.8829
#
#
#
# Elastic Compliance Matrix: (Units=1/GPa)
#
#
# Indices 1 2 3 4 5 6 
#
# 1 0.011987 -0.003529 -0.004191 -0.000011 -0.001521 0.000013
# 2 -0.003529 0.021906 -0.002535 -0.000052 0.000897 0.000023
# 3 -0.004191 -0.002535 0.014333 -0.000007 0.000391 -0.000053
# 4 -0.000011 -0.000052 -0.000007 0.087760 -0.000050 -0.005574
# 5 -0.001521 0.000897 0.000391 -0.000050 0.022327 0.000001
# 6 0.000013 0.000023 -0.000053 -0.005574 0.000001 0.063315
#
#
# Mechanical properties :
#
#
# Convention : Reuss Voigt Hill
#
# Bulk Modulus (GPa) = 36.08401 41.11223 38.59812
# Shear Modulus (GPa) = 19.89035 25.60044 22.74539
#
# Velocity S-wave (km/s) = 2.90687 3.29783 3.10850
# Velocity P-wave (km/s) = 5.15712 5.65388 5.41121
#
# Compressibility (1/GPa) = 0.02771311
#
# Stress axis : x y z
#
# Youngs Moduli (GPa) = 83.42690 45.64863 69.76993
#
# Poissons Ratio (x) = 0.16111 0.29244
# Poissons Ratio (y) = 0.29445 0.17690
# Poissons Ratio (z) = 0.34968 0.11574
#
# Static dielectric constant tensor:
#      x y z
#    x 1.956230 0.000000 0.075740 
#    y 0.000000 1.896950 -0.000020 
#    z 0.075740 -0.000020 1.926460 
# 
# From -- ./inp_files/39423.got.cif
#   From: 2010.05.17/outbox.cif.g08.bks.cpg/sg15_20_cif.got.tgz:39423.got - 2010.06.03 18:47:42.
