data_PCOD9300498
_publ_section_title
;
Structure prediction by ZEFSAII (Michael W. Deem and Ramdas Pophale) SiO2 
 PCOD9300498
Probable space group: C 2/C
;
_chemical_formula_sum "Si O2"
_cell_formula_units_Z 52
_cell_length_a 10.605066
_cell_length_b 14.881563
_cell_length_c 16.629690
_cell_angle_alpha 90.000000
_cell_angle_beta 56.629008
_cell_angle_gamma 90.000000
_cell_volume 2191.786858
_symmetry_space_group_name_H-M "C 2/C"
_symmetry_group_IT_number 15
_symmetry_cell_setting 'monoclinic'
loop_
_space_group_symop_operation_xyz
x,y,z
-x,y,1/2-z
-x,-y,-z
x,-y,1/2+z
1/2+x,1/2+y,z
1/2-x,1/2+y,1/2-z
1/2-x,1/2-y,-z
1/2+x,1/2-y,1/2+z
loop_
_atom_site_type_symbol
_atom_site_label
_atom_site_fract_x
_atom_site_fract_y
_atom_site_fract_z
Si Si1 0.823270 0.726487 0.620137
Si Si2 0.124093 0.020399 0.849035
Si Si3 0.818445 0.103623 0.015725
Si Si4 0.000000 0.244973 0.750000
Si Si5 0.157772 0.852695 0.730661
Si Si6 0.018998 0.388667 0.886812
Si Si7 0.581780 0.910008 0.303669
O O1 0.855110 0.796201 0.536769
O O2 0.651297 0.691761 0.675604
O O3 0.818399 0.791431 0.699716
O O4 0.938423 0.650627 0.609942
O O5 0.244188 0.095353 0.784327
O O6 0.189168 0.963614 0.903257
O O7 0.120037 0.950811 0.778105
O O8 0.962228 0.062607 0.921410
O O9 0.658223 0.105931 0.024401
O O10 0.010010 0.313819 0.820867
O O11 0.000000 0.819672 0.750000
O O12 0.319630 0.862577 0.627736
O O13 0.047088 0.487296 0.839416
O O14 0.500000 0.885851 0.250000
#
# Coordination Sequence:
#
# PCOD9300498 Si02
#       7
#     8   8   8   4   8   8   8
#     4   9  18  28  52  73 106 129 169 211 268 301
#     4   9  18  30  55  73 102 132 183 216 248 299
#     4   9  16  34  53  77  96 141 178 215 248 312
#     4   8  14  32  48  72  88 138 178 202 230 314
#     4   9  17  31  48  76  98 134 172 216 252 313
#     4   9  15  29  54  68  95 133 181 207 241 303
#     4  11  17  29  48  82 102 130 168 222 256 304
#
# _framework density 23.724936
#
# number of rings (size 3 to 8) (size 9 to 14) (size 15 to 20)
#    0.000    2.769    2.308    2.308    0.000    0.000 
#    5.538    1.538    3.385    8.308    0.000    0.000 
#    0.000    0.000    0.000    0.000    0.000    0.000 
#
# Total GULP energy -144891.421614 kJ/mol
# GULP energy per Si atom -5572.746985 kJ/mol
# Density = 2.367094 g / cm^3
# Si number density = 23.724936 Si / 1000 Ang^3
#
#
#
# Elastic Constant Matrix: (Units=GPa)
#
#
# Indices 1 2 3 4 5 6 
#
# 1 103.0587 35.0225 23.1756 0.0000 -21.3963 0.0000
# 2 35.0225 77.6634 19.9066 0.0000 2.7754 0.0000
# 3 23.1756 19.9066 81.5565 0.0000 -30.8621 0.0000
# 4 0.0000 0.0000 0.0000 2.5866 0.0000 -3.0105
# 5 -21.3963 2.7754 -30.8621 0.0000 32.4821 0.0000
# 6 0.0000 0.0000 0.0000 -3.0105 0.0000 27.6078
#
#
#
# Elastic Compliance Matrix: (Units=1/GPa)
#
#
# Indices 1 2 3 4 5 6 
#
# 1 0.014272 -0.007510 0.002464 0.000000 0.012384 0.000000
# 2 -0.007510 0.018724 -0.007672 0.000000 -0.013836 0.000000
# 3 0.002464 -0.007672 0.022322 0.000000 0.023487 0.000000
# 4 0.000000 0.000000 0.000000 0.442801 0.000000 0.048286
# 5 0.012384 -0.013836 0.023487 0.000000 0.062441 0.000000
# 6 0.000000 0.000000 0.000000 0.048286 0.000000 0.041487
#
#
# Mechanical properties :
#
#
# Convention : Reuss Voigt Hill
#
# Bulk Modulus (GPa) = 33.46609 46.49868 39.98238
# Shear Modulus (GPa) = 7.84382 24.81356 16.32869
#
# Velocity S-wave (km/s) = 1.82026 3.23752 2.62630
# Velocity P-wave (km/s) = 4.30747 5.79802 5.10741
#
# Compressibility (1/GPa) = 0.02988100
#
# Stress axis : x y z
#
# Youngs Moduli (GPa) = 70.06494 53.40826 44.79974
#
# Poissons Ratio (x) = 0.40111 -0.11037
# Poissons Ratio (y) = 0.52620 0.34369
# Poissons Ratio (z) = -0.17261 0.40973
#
# Static dielectric constant tensor:
#      x y z
#    x 2.178940 0.000000 -0.006560 
#    y 0.000000 1.899630 0.000000 
#    z -0.006560 0.000000 1.974810 
# 
# From -- ./inp_files/269711.got.cif
#   From: 2010.05.17/outbox.cif.g08.bks.cpg/sg15_135_cif.got.tgz:269711.got - 2010.06.03 18:47:42.
