data_PCOD9300632
_publ_section_title
;
Structure prediction by ZEFSAII (Michael W. Deem and Ramdas Pophale) SiO2 
 PCOD9300632
Probable space group: C 2/C
;
_chemical_formula_sum "Si O2"
_cell_formula_units_Z 60
_cell_length_a 18.324387
_cell_length_b 17.826039
_cell_length_c 22.229868
_cell_angle_alpha 90.000000
_cell_angle_beta 148.003235
_cell_angle_gamma 90.000000
_cell_volume 3847.615408
_symmetry_space_group_name_H-M "C 2/C"
_symmetry_group_IT_number 15
_symmetry_cell_setting 'monoclinic'
loop_
_space_group_symop_operation_xyz
x,y,z
-x,y,1/2-z
-x,-y,-z
x,-y,1/2+z
1/2+x,1/2+y,z
1/2-x,1/2+y,1/2-z
1/2-x,1/2-y,-z
1/2+x,1/2-y,1/2+z
loop_
_atom_site_type_symbol
_atom_site_label
_atom_site_fract_x
_atom_site_fract_y
_atom_site_fract_z
Si Si1 0.358413 0.190351 0.047638
Si Si2 0.000000 0.409375 0.750000
Si Si3 0.133774 0.857094 0.305528
Si Si4 0.130308 0.131571 0.599215
Si Si5 0.549568 0.521498 0.653822
Si Si6 0.266023 0.499110 0.897064
Si Si7 0.153429 0.890009 0.656214
Si Si8 0.360617 0.246237 0.301569
O O1 0.440149 0.144361 0.155747
O O2 0.475604 0.230463 0.089425
O O3 0.250000 0.250000 0.000000
O O4 0.263294 0.137363 0.940110
O O5 0.124067 0.463594 0.817989
O O6 0.091688 0.933592 0.242478
O O7 0.168531 0.795285 0.278808
O O8 0.000000 0.831740 0.250000
O O9 0.176249 0.206021 0.665151
O O10 0.992909 0.145833 0.464355
O O11 0.232042 0.083250 0.628413
O O12 0.089238 0.077005 0.626301
O O13 0.386403 0.507476 0.531262
O O14 0.627853 0.443522 0.695758
O O15 0.313399 0.446393 0.875101
O O16 0.273204 0.829446 0.742360
#
# Coordination Sequence:
#
# PCOD9300632 Si02
#       8
#     8   4   8   8   8   8   8   8
#     4  12  23  31  43  73 110 135 154 194 249 304
#     4  12  22  32  52  72 102 132 166 202 242 296
#     4  11  20  31  46  70 101 132 161 193 239 295
#     4   8  17  30  50  68  95 128 169 203 238 287
#     4   8  17  32  51  67  93 131 168 201 238 285
#     4   9  17  32  49  73  93 128 169 205 238 284
#     4   9  16  31  49  70  95 126 168 204 236 288
#     4  11  19  30  49  72 101 131 161 199 247 293
#
# _framework density 15.594074000000001
#
# number of rings (size 3 to 8) (size 9 to 14) (size 15 to 20)
#    0.000    2.133    2.667    4.000    3.733    0.000 
#    0.000    0.667    2.933    0.000    1.733    1.867 
#    0.000    0.000    0.000    0.000    0.000    0.000 
#
# Total GULP energy -167093.808667 kJ/mol
# GULP energy per Si atom -5569.793622 kJ/mol
# Density = 1.555858 g / cm^3
# Si number density = 15.594074 Si / 1000 Ang^3
#
#
#
# Elastic Constant Matrix: (Units=GPa)
#
#
# Indices 1 2 3 4 5 6 
#
# 1 45.9421 35.6819 32.9468 -0.0007 4.2927 -0.0002
# 2 35.6819 80.2108 47.9824 -0.0019 1.3326 -0.0006
# 3 32.9468 47.9824 89.8208 -0.0014 -6.2161 -0.0005
# 4 -0.0007 -0.0019 -0.0014 15.1500 -0.0011 6.3855
# 5 4.2927 1.3326 -6.2161 -0.0011 19.9464 -0.0003
# 6 -0.0002 -0.0006 -0.0005 6.3855 -0.0003 25.4923
#
#
#
# Elastic Compliance Matrix: (Units=1/GPa)
#
#
# Indices 1 2 3 4 5 6 
#
# 1 0.037675 -0.011636 -0.008289 -0.000001 -0.009914 0.000000
# 2 -0.011636 0.022296 -0.007739 0.000002 -0.001397 0.000000
# 3 -0.008289 -0.007739 0.018874 0.000001 0.008183 0.000000
# 4 -0.000001 0.000002 0.000001 0.073798 0.000005 -0.018486
# 5 -0.009914 -0.001397 0.008183 0.000005 0.054912 -0.000001
# 6 0.000000 0.000000 0.000000 -0.018486 -0.000001 0.043858
#
#
# Mechanical properties :
#
#
# Convention : Reuss Voigt Hill
#
# Bulk Modulus (GPa) = 42.52404 49.91066 46.21735
# Shear Modulus (GPa) = 15.89408 18.74190 17.31799
#
# Velocity S-wave (km/s) = 3.19602 3.47055 3.33611
# Velocity P-wave (km/s) = 6.39906 6.93796 6.67395
#
# Compressibility (1/GPa) = 0.02351611
#
# Stress axis : x y z
#
# Youngs Moduli (GPa) = 26.54273 44.85013 52.98158
#
# Poissons Ratio (x) = 0.52189 0.43918
# Poissons Ratio (y) = 0.30886 0.41004
# Poissons Ratio (z) = 0.22002 0.34710
#
# Static dielectric constant tensor:
#      x y z
#    x 1.525390 0.000000 -0.006620 
#    y 0.000000 1.534680 0.000000 
#    z -0.006620 0.000000 1.530660 
# 
# From -- ./inp_files/280203.got.cif
#   From: 2010.05.17/outbox.cif.g08.bks.cpg/sg15_141_cif.got.tgz:280203.got - 2010.06.03 18:47:42.
