data_PCOD9300432
_publ_section_title
;
Structure prediction by ZEFSAII (Michael W. Deem and Ramdas Pophale) SiO2 
 PCOD9300432
Probable space group: C 2/C
;
_chemical_formula_sum "Si O2"
_cell_formula_units_Z 56
_cell_length_a 11.890385
_cell_length_b 14.379551
_cell_length_c 27.353624
_cell_angle_alpha 90.000000
_cell_angle_beta 31.034241
_cell_angle_gamma 90.000000
_cell_volume 2411.165995
_symmetry_space_group_name_H-M "C 2/C"
_symmetry_group_IT_number 15
_symmetry_cell_setting 'monoclinic'
loop_
_space_group_symop_operation_xyz
x,y,z
-x,y,1/2-z
-x,-y,-z
x,-y,1/2+z
1/2+x,1/2+y,z
1/2-x,1/2+y,1/2-z
1/2-x,1/2-y,-z
1/2+x,1/2-y,1/2+z
loop_
_atom_site_type_symbol
_atom_site_label
_atom_site_fract_x
_atom_site_fract_y
_atom_site_fract_z
Si Si1 0.597991 0.912619 0.933943
Si Si2 0.077841 0.577403 0.625876
Si Si3 0.217560 0.095513 0.505705
Si Si4 0.500000 0.042665 0.250000
Si Si5 0.333417 0.245196 0.023945
Si Si6 0.000000 0.000064 0.750000
Si Si7 0.096034 0.859944 0.295151
Si Si8 0.787670 0.700298 0.379104
O O1 0.399869 0.870167 0.976610
O O2 0.728688 0.844740 0.921710
O O3 0.778932 0.943538 0.827678
O O4 0.500000 0.000000 0.000000
O O5 0.200910 0.508129 0.541727
O O6 0.244347 0.658540 0.579442
O O7 0.998858 0.517784 0.701774
O O8 0.854253 0.626715 0.691734
O O9 0.223718 0.154407 0.454252
O O10 0.990580 0.113519 0.618396
O O11 0.309100 0.116125 0.332546
O O12 0.250000 0.250000 0.000000
O O13 0.593517 0.238336 0.930803
O O14 0.979247 0.064434 0.804616
O O15 0.001799 0.761477 0.311264
#
# Coordination Sequence:
#
# PCOD9300432 Si02
#       8
#     8   8   8   4   8   4   8   8
#     4  12  24  47  72 108 145 189 243 307 373 437
#     4  11  28  46  74 110 149 194 250 306 374 443
#     4  11  24  47  74 106 146 197 247 304 374 447
#     4  10  27  47  72 108 152 194 248 299 377 454
#     4  12  29  46  73 106 154 194 246 313 374 443
#     4  12  25  39  74 104 142 190 242 301 365 442
#     4  12  25  44  78 103 149 193 254 302 368 444
#     4  11  26  46  75 104 145 199 249 301 378 448
#
# _framework density 23.225276999999998
#
# number of rings (size 3 to 8) (size 9 to 14) (size 15 to 20)
#    0.000    0.571    4.286    1.714    8.000    2.857 
#    0.000    0.000    0.000    0.000    0.000    0.000 
#    0.000    0.000    0.000    0.000    0.000    0.000 
#
# Total GULP energy -156470.954283 kJ/mol
# GULP energy per Si atom -5588.248367 kJ/mol
# Density = 2.317241 g / cm^3
# Si number density = 23.225277 Si / 1000 Ang^3
#
#
#
# Elastic Constant Matrix: (Units=GPa)
#
#
# Indices 1 2 3 4 5 6 
#
# 1 84.7847 30.6683 17.7216 0.0009 13.8057 -0.0023
# 2 30.6683 111.5241 36.9435 -0.0038 10.8476 -0.0011
# 3 17.7216 36.9435 79.4443 0.0016 4.1266 -0.0108
# 4 0.0009 -0.0038 0.0016 19.7839 -0.0038 1.7631
# 5 13.8057 10.8476 4.1266 -0.0038 42.6798 0.0021
# 6 -0.0023 -0.0011 -0.0108 1.7631 0.0021 38.7653
#
#
#
# Elastic Compliance Matrix: (Units=1/GPa)
#
#
# Indices 1 2 3 4 5 6 
#
# 1 0.013752 -0.002933 -0.001519 -0.000002 -0.003556 0.000001
# 2 -0.002933 0.011440 -0.004587 0.000003 -0.001516 -0.000001
# 3 -0.001519 -0.004587 0.015049 -0.000002 0.000202 0.000004
# 4 -0.000002 0.000003 -0.000002 0.050752 0.000005 -0.002308
# 5 -0.003556 -0.001516 0.000202 0.000005 0.024946 -0.000002
# 6 0.000001 -0.000001 0.000004 -0.002308 -0.000002 0.025901
#
#
# Mechanical properties :
#
#
# Convention : Reuss Voigt Hill
#
# Bulk Modulus (GPa) = 45.11958 49.60220 47.36089
# Shear Modulus (GPa) = 29.88548 32.94046 31.41297
#
# Velocity S-wave (km/s) = 3.59104 3.77012 3.68167
# Velocity P-wave (km/s) = 6.05502 6.35257 6.20557
#
# Compressibility (1/GPa) = 0.02216333
#
# Stress axis : x y z
#
# Youngs Moduli (GPa) = 72.71711 87.41263 66.45004
#
# Poissons Ratio (x) = 0.25634 0.10095
# Poissons Ratio (y) = 0.21324 0.30481
# Poissons Ratio (z) = 0.11047 0.40096
#
# Static dielectric constant tensor:
#      x y z
#    x 1.851240 0.000000 0.026890 
#    y 0.000000 1.903400 -0.000010 
#    z 0.026890 -0.000010 1.943720 
# 
# From -- ./inp_files/311347.got.cif
#   From: 2010.05.17/outbox.cif.g08.bks.cpg/sg15_156_cif.got.tgz:311347.got - 2010.06.03 18:47:42.
