data_PCOD9300937
_publ_section_title
;
Structure prediction by ZEFSAII (Michael W. Deem and Ramdas Pophale) SiO2 
 PCOD9300937
Probable space group: C 2/C
;
_chemical_formula_sum "Si O2"
_cell_formula_units_Z 48
_cell_length_a 24.967483
_cell_length_b 11.950567
_cell_length_c 9.161544
_cell_angle_alpha 90.000000
_cell_angle_beta 116.328989
_cell_angle_gamma 90.000000
_cell_volume 2450.005154
_symmetry_space_group_name_H-M "C 2/C"
_symmetry_group_IT_number 15
_symmetry_cell_setting 'monoclinic'
loop_
_space_group_symop_operation_xyz
x,y,z
-x,y,1/2-z
-x,-y,-z
x,-y,1/2+z
1/2+x,1/2+y,z
1/2-x,1/2+y,1/2-z
1/2-x,1/2-y,-z
1/2+x,1/2-y,1/2+z
loop_
_atom_site_type_symbol
_atom_site_label
_atom_site_fract_x
_atom_site_fract_y
_atom_site_fract_z
Si Si1 0.810662 0.993238 0.215910
Si Si2 0.266341 0.088998 0.620163
Si Si3 0.433794 0.902301 0.229550
Si Si4 0.373334 0.071686 0.347750
Si Si5 0.677467 0.734824 0.905742
Si Si6 0.355200 0.734460 0.306109
O O1 0.852237 0.100757 0.288779
O O2 0.788873 0.932882 0.337487
O O3 0.835284 0.893987 0.146051
O O4 0.753559 0.043311 0.060062
O O5 0.295338 0.211256 0.662473
O O6 0.318797 0.011781 0.748631
O O7 0.500000 0.886888 0.250000
O O8 0.409701 0.796827 0.293658
O O9 0.426748 0.012395 0.321854
O O10 0.391084 0.917096 0.036965
O O11 0.351922 0.187378 0.251514
O O12 0.750000 0.750000 0.000000
O O13 0.650759 0.764438 0.030766
#
# Coordination Sequence:
#
# PCOD9300937 Si02
#       6
#     8   8   8   8   8   8
#     4  12  22  34  56  86 133 165 197 232 302 373
#     4  11  20  34  55  88 125 161 195 241 291 383
#     4  11  25  44  67  88 118 159 217 273 307 345
#     4  11  22  39  63  93 123 159 204 250 312 362
#     4  12  22  37  58  92 137 164 193 240 304 390
#     4  11  23  38  58  88 123 167 210 250 305 364
#
# _framework density 19.591794
#
# number of rings (size 3 to 8) (size 9 to 14) (size 15 to 20)
#    0.000    0.667    5.000    5.000    2.333    0.000 
#    0.000    0.000    0.000    5.000    0.000    0.000 
#    0.000    0.000    0.000    0.000    0.000    0.000 
#
# Total GULP energy -134105.055438 kJ/mol
# GULP energy per Si atom -5587.710643 kJ/mol
# Density = 1.954720 g / cm^3
# Si number density = 19.591794 Si / 1000 Ang^3
#
#
#
# Elastic Constant Matrix: (Units=GPa)
#
#
# Indices 1 2 3 4 5 6 
#
# 1 92.1446 20.7605 6.7033 0.0000 -20.9872 0.0000
# 2 20.7605 108.9321 -9.8482 0.0000 -3.7207 0.0000
# 3 6.7033 -9.8482 47.7955 0.0000 -14.1708 0.0000
# 4 0.0000 0.0000 0.0000 28.5548 0.0000 -5.7896
# 5 -20.9872 -3.7207 -14.1708 0.0000 25.3101 0.0000
# 6 0.0000 0.0000 0.0000 -5.7896 0.0000 17.0334
#
#
#
# Elastic Compliance Matrix: (Units=1/GPa)
#
#
# Indices 1 2 3 4 5 6 
#
# 1 0.013965 -0.002154 0.001124 0.000000 0.011892 0.000000
# 2 -0.002154 0.009873 0.002682 0.000000 0.001167 0.000000
# 3 0.001124 0.002682 0.026032 0.000000 0.015901 0.000000
# 4 0.000000 0.000000 0.000000 0.037612 0.000000 0.012784
# 5 0.011892 0.001167 0.015901 0.000000 0.058445 0.000000
# 6 0.000000 0.000000 0.000000 0.012784 0.000000 0.063054
#
#
# Mechanical properties :
#
#
# Convention : Reuss Voigt Hill
#
# Bulk Modulus (GPa) = 18.80611 31.56704 25.18657
# Shear Modulus (GPa) = 22.38134 29.59678 25.98906
#
# Velocity S-wave (km/s) = 3.38358 3.89095 3.64610
# Velocity P-wave (km/s) = 4.98845 6.02772 5.53254
#
# Compressibility (1/GPa) = 0.05317421
#
# Stress axis : x y z
#
# Youngs Moduli (GPa) = 71.60999 101.28771 38.41414
#
# Poissons Ratio (x) = 0.21814 -0.04316
# Poissons Ratio (y) = 0.15422 -0.10305
# Poissons Ratio (z) = -0.08045 -0.27170
#
# Static dielectric constant tensor:
#      x y z
#    x 1.714620 0.000000 -0.028440 
#    y 0.000000 1.721390 0.000000 
#    z -0.028440 0.000000 1.718990 
# 
# From -- ./inp_files/60528.got.cif
#   From: 2010.05.17/outbox.cif.g08.bks.cpg/sg15_31_cif.got.tgz:60528.got - 2010.06.03 18:47:42.
