data_PCOD9300737
_publ_section_title
;
Structure prediction by ZEFSAII (Michael W. Deem and Ramdas Pophale) SiO2 
 PCOD9300737
Probable space group: C 2/C
;
_chemical_formula_sum "Si O2"
_cell_formula_units_Z 52
_cell_length_a 13.244643
_cell_length_b 12.441137
_cell_length_c 15.032557
_cell_angle_alpha 90.000000
_cell_angle_beta 116.808217
_cell_angle_gamma 90.000000
_cell_volume 2210.811441
_symmetry_space_group_name_H-M "C 2/C"
_symmetry_group_IT_number 15
_symmetry_cell_setting 'monoclinic'
loop_
_space_group_symop_operation_xyz
x,y,z
-x,y,1/2-z
-x,-y,-z
x,-y,1/2+z
1/2+x,1/2+y,z
1/2-x,1/2+y,1/2-z
1/2-x,1/2-y,-z
1/2+x,1/2-y,1/2+z
loop_
_atom_site_type_symbol
_atom_site_label
_atom_site_fract_x
_atom_site_fract_y
_atom_site_fract_z
Si Si1 0.909559 0.026951 0.788890
Si Si2 0.000000 0.475096 0.750000
Si Si3 0.850353 0.480247 0.851751
Si Si4 0.827908 0.503365 0.047308
Si Si5 0.858436 0.768511 0.352196
Si Si6 0.407694 0.584375 0.037847
Si Si7 0.377073 0.775623 0.159126
O O1 0.899721 0.155945 0.789837
O O2 0.000000 0.000148 0.750000
O O3 0.781965 0.988242 0.725035
O O4 0.970785 0.968039 0.895678
O O5 0.924716 0.528389 0.800474
O O6 0.898367 0.427839 0.647917
O O7 0.887111 0.355498 0.864669
O O8 0.138091 0.478085 0.042036
O O9 0.856815 0.379679 0.088392
O O10 0.692321 0.504638 0.004363
O O11 0.905937 0.834324 0.454943
O O12 0.723060 0.775548 0.309082
O O13 0.368995 0.665760 0.100932
O O14 0.500000 0.776675 0.250000
#
# Coordination Sequence:
#
# PCOD9300737 Si02
#       7
#     8   4   8   8   8   8   8
#     4  12  25  43  70 100 135 175 227 283 339 401
#     4  12  28  42  66  98 138 184 222 276 340 418
#     4  12  24  48  68  98 140 180 226 277 343 407
#     4  11  21  42  67  95 130 174 229 280 325 390
#     4  11  23  39  66 100 135 176 218 287 340 396
#     4  11  20  41  68  99 129 170 232 281 331 394
#     4  11  19  36  68  97 128 168 229 282 325 388
#
# _framework density 23.520776000000001
#
# number of rings (size 3 to 8) (size 9 to 14) (size 15 to 20)
#    0.000    0.615    5.385    5.077    1.077    0.000 
#    0.000    0.000    0.000    2.769    0.000    0.000 
#    0.000    0.000    0.000    0.000    0.000    0.000 
#
# Total GULP energy -145132.189017 kJ/mol
# GULP energy per Si atom -5582.007270 kJ/mol
# Density = 2.346724 g / cm^3
# Si number density = 23.520776 Si / 1000 Ang^3
#
#
#
# Elastic Constant Matrix: (Units=GPa)
#
#
# Indices 1 2 3 4 5 6 
#
# 1 128.9225 12.9424 48.6557 0.0000 1.0726 0.0000
# 2 12.9424 60.9365 2.1151 0.0000 0.6779 0.0000
# 3 48.6557 2.1151 131.2908 0.0000 13.7411 0.0000
# 4 0.0000 0.0000 0.0000 19.2925 0.0000 -1.9381
# 5 1.0726 0.6779 13.7411 0.0000 40.8855 0.0000
# 6 0.0000 0.0000 0.0000 -1.9381 0.0000 29.6671
#
#
#
# Elastic Compliance Matrix: (Units=1/GPa)
#
#
# Indices 1 2 3 4 5 6 
#
# 1 0.009256 -0.001855 -0.003501 0.000000 0.000965 0.000000
# 2 -0.001855 0.016793 0.000457 0.000000 -0.000383 0.000000
# 3 -0.003501 0.000457 0.009223 0.000000 -0.003015 0.000000
# 4 0.000000 0.000000 0.000000 0.052176 0.000000 0.003409
# 5 0.000965 -0.000383 -0.003015 0.000000 0.025453 0.000000
# 6 0.000000 0.000000 0.000000 0.003409 0.000000 0.033930
#
#
# Mechanical properties :
#
#
# Convention : Reuss Voigt Hill
#
# Bulk Modulus (GPa) = 39.25758 49.84181 44.54970
# Shear Modulus (GPa) = 30.28092 35.13148 32.70620
#
# Velocity S-wave (km/s) = 3.59194 3.86895 3.73302
# Velocity P-wave (km/s) = 5.82491 6.41833 6.12881
#
# Compressibility (1/GPa) = 0.02547279
#
# Stress axis : x y z
#
# Youngs Moduli (GPa) = 108.03515 59.54885 108.43045
#
# Poissons Ratio (x) = 0.11047 0.37966
# Poissons Ratio (y) = 0.20042 -0.04956
# Poissons Ratio (z) = 0.37827 -0.02722
#
# Static dielectric constant tensor:
#      x y z
#    x 1.895730 0.000000 -0.053860 
#    y 0.000000 1.914170 0.000000 
#    z -0.053860 0.000000 2.055690 
# 
# From -- ./inp_files/198020.got.cif
#   From: 2010.05.17/outbox.cif.g08.bks.cpg/sg15_100_cif.got.tgz:198020.got - 2010.06.03 18:47:42.
