data_PCOD9300026
_publ_section_title
;
Structure prediction by ZEFSAII (Michael W. Deem and Ramdas Pophale) SiO2 
 PCOD9300026
Probable space group: C 2/C
;
_chemical_formula_sum "Si O2"
_cell_formula_units_Z 52
_cell_length_a 5.147640
_cell_length_b 24.512907
_cell_length_c 20.970184
_cell_angle_alpha 90.000000
_cell_angle_beta 103.735791
_cell_angle_gamma 90.000000
_cell_volume 2570.418066
_symmetry_space_group_name_H-M "C 2/C"
_symmetry_group_IT_number 15
_symmetry_cell_setting 'monoclinic'
loop_
_space_group_symop_operation_xyz
x,y,z
-x,y,1/2-z
-x,-y,-z
x,-y,1/2+z
1/2+x,1/2+y,z
1/2-x,1/2+y,1/2-z
1/2-x,1/2-y,-z
1/2+x,1/2-y,1/2+z
loop_
_atom_site_type_symbol
_atom_site_label
_atom_site_fract_x
_atom_site_fract_y
_atom_site_fract_z
Si Si1 0.796827 0.242843 0.370084
Si Si2 0.378515 0.541888 0.401891
Si Si3 0.987178 0.919411 0.052135
Si Si4 0.000000 0.669959 0.250000
Si Si5 0.126716 0.698012 0.062081
Si Si6 0.166287 0.405082 0.648886
Si Si7 0.509116 0.848474 0.079000
O O1 0.682048 0.209151 0.303847
O O2 0.570953 0.238543 0.412052
O O3 0.871960 0.305942 0.363062
O O4 0.067030 0.212509 0.407043
O O5 0.455983 0.479081 0.416132
O O6 0.445211 0.571370 0.473558
O O7 0.558200 0.569142 0.357754
O O8 0.069699 0.550562 0.366307
O O9 0.728528 0.891460 0.067797
O O10 0.240117 0.880532 0.079354
O O11 0.164834 0.630110 0.213057
O O12 0.080062 0.639071 0.090711
O O13 0.062259 0.691071 0.984694
#
# Coordination Sequence:
#
# PCOD9300026 Si02
#       7
#     8   8   8   4   8   8   8
#     4  11  24  38  58  86 124 160 210 253 295 363
#     4  11  21  38  60  91 125 160 193 256 302 373
#     4  11  22  36  61  93 126 159 202 235 320 382
#     4  10  26  42  64  90 114 168 212 254 304 366
#     4  11  20  36  57  89 121 162 198 246 311 368
#     4  11  21  38  62  87 124 157 205 254 307 353
#     4  12  21  37  59  90 128 164 197 249 308 377
#
# _framework density 20.230174000000002
#
# number of rings (size 3 to 8) (size 9 to 14) (size 15 to 20)
#    0.000    0.923    3.077    5.538    0.000    8.000 
#    0.000    0.000    0.000    3.692    0.000    0.000 
#    0.000    0.000    0.000    0.000    0.000    0.000 
#
# Total GULP energy -145415.444967 kJ/mol
# GULP energy per Si atom -5592.901730 kJ/mol
# Density = 2.018413 g / cm^3
# Si number density = 20.230174 Si / 1000 Ang^3
#
#
#
# Elastic Constant Matrix: (Units=GPa)
#
#
# Indices 1 2 3 4 5 6 
#
# 1 59.2073 -8.6053 6.4168 0.0000 13.4465 0.0000
# 2 -8.6053 70.2142 25.3803 0.0000 7.1477 0.0000
# 3 6.4168 25.3803 59.8387 0.0000 -3.0488 0.0000
# 4 0.0000 0.0000 0.0000 22.8292 0.0000 8.8132
# 5 13.4465 7.1477 -3.0488 0.0000 20.4601 0.0000
# 6 0.0000 0.0000 0.0000 8.8132 0.0000 30.9270
#
#
#
# Elastic Compliance Matrix: (Units=1/GPa)
#
#
# Indices 1 2 3 4 5 6 
#
# 1 0.022739 0.006932 -0.006311 0.000000 -0.018306 0.000000
# 2 0.006932 0.019989 -0.009885 0.000000 -0.013012 0.000000
# 3 -0.006311 -0.009885 0.022136 0.000000 0.010899 0.000000
# 4 0.000000 0.000000 0.000000 0.049218 0.000000 -0.014026
# 5 -0.018306 -0.013012 0.010899 0.000000 0.067076 0.000000
# 6 0.000000 0.000000 0.000000 -0.014026 0.000000 0.036331
#
#
# Mechanical properties :
#
#
# Convention : Reuss Voigt Hill
#
# Bulk Modulus (GPa) = 21.58151 26.18265 23.88208
# Shear Modulus (GPa) = 19.88363 25.91447 22.89905
#
# Velocity S-wave (km/s) = 3.13848 3.58296 3.36806
# Velocity P-wave (km/s) = 4.88104 5.48519 5.19191
#
# Compressibility (1/GPa) = 0.04633596
#
# Stress axis : x y z
#
# Youngs Moduli (GPa) = 43.97783 50.02693 45.17480
#
# Poissons Ratio (x) = -0.34677 0.28510
# Poissons Ratio (y) = -0.30484 0.44654
# Poissons Ratio (z) = 0.27755 0.49450
#
# Static dielectric constant tensor:
#      x y z
#    x 1.715330 0.000000 -0.015000 
#    y 0.000000 1.717080 0.000000 
#    z -0.015000 0.000000 1.724070 
# 
# From -- ./inp_files/227971.got.cif
#   From: 2010.05.17/outbox.cif.g08.bks.cpg/sg15_114_cif.got.tgz:227971.got - 2010.06.03 18:47:42.
