data_PCOD9300117
_publ_section_title
;
Structure prediction by ZEFSAII (Michael W. Deem and Ramdas Pophale) SiO2 
 PCOD9300117
Probable space group: C 2/C
;
_chemical_formula_sum "Si O2"
_cell_formula_units_Z 56
_cell_length_a 18.306593
_cell_length_b 5.436442
_cell_length_c 23.639302
_cell_angle_alpha 90.000000
_cell_angle_beta 107.606798
_cell_angle_gamma 90.000000
_cell_volume 2242.437601
_symmetry_space_group_name_H-M "C 2/C"
_symmetry_group_IT_number 15
_symmetry_cell_setting 'monoclinic'
loop_
_space_group_symop_operation_xyz
x,y,z
-x,y,1/2-z
-x,-y,-z
x,-y,1/2+z
1/2+x,1/2+y,z
1/2-x,1/2+y,1/2-z
1/2-x,1/2-y,-z
1/2+x,1/2-y,1/2+z
loop_
_atom_site_type_symbol
_atom_site_label
_atom_site_fract_x
_atom_site_fract_y
_atom_site_fract_z
Si Si1 0.000000 0.500000 0.000000
Si Si2 0.831759 0.531719 0.216288
Si Si3 0.403314 0.558263 0.419254
Si Si4 0.206193 0.614972 0.666703
Si Si5 0.392331 0.863195 0.070568
Si Si6 0.259676 0.717244 0.906711
Si Si7 0.472998 0.639062 0.624453
Si Si8 0.000000 0.672100 0.250000
O O1 0.923268 0.401866 0.015395
O O2 0.047760 0.260170 0.037475
O O3 0.811498 0.505715 0.277401
O O4 0.786767 0.356872 0.162226
O O5 0.793279 0.789440 0.190180
O O6 0.922083 0.517558 0.229615
O O7 0.329846 0.463022 0.435591
O O8 0.460376 0.344819 0.408380
O O9 0.360113 0.678445 0.354954
O O10 0.202998 0.466071 0.607606
O O11 0.304149 0.805478 0.060785
O O12 0.417215 0.127054 0.103371
O O13 0.435663 0.626931 0.107277
O O14 0.505784 0.667327 0.694665
#
# Coordination Sequence:
#
# PCOD9300117 Si02
#       8
#     4   8   8   8   8   8   8   4
#     4  10  26  52  76 102 138 190 248 318 376 418
#     4  11  23  38  63  98 143 190 231 279 359 431
#     4  10  26  44  73 100 139 188 246 305 365 428
#     4  11  23  42  66 102 144 193 237 289 360 448
#     4  11  26  49  73 102 146 186 245 308 364 426
#     4  11  23  43  69 102 142 185 236 299 351 445
#     4  11  26  45  70 108 145 189 237 296 363 443
#     4  12  24  38  68 108 146 192 236 296 358 442
#
# _framework density 24.972822000000001
#
# number of rings (size 3 to 8) (size 9 to 14) (size 15 to 20)
#    0.000    1.143    2.857    1.714   12.000    4.571 
#    0.000    0.714    0.000    0.000    0.000    0.000 
#    0.000    0.000    0.000    0.000    0.000    0.000 
#
# Total GULP energy -156150.768165 kJ/mol
# GULP energy per Si atom -5576.813149 kJ/mol
# Density = 2.491598 g / cm^3
# Si number density = 24.972822 Si / 1000 Ang^3
#
#
#
# Elastic Constant Matrix: (Units=GPa)
#
#
# Indices 1 2 3 4 5 6 
#
# 1 154.3103 6.2049 39.7511 -0.0001 -8.5048 0.0001
# 2 6.2049 64.5937 18.0023 -0.0001 6.8947 0.0001
# 3 39.7511 18.0023 101.6046 0.0000 0.7921 0.0000
# 4 -0.0001 -0.0001 0.0000 41.9842 0.0000 12.0349
# 5 -8.5048 6.8947 0.7921 0.0000 41.6101 0.0000
# 6 0.0001 0.0001 0.0000 12.0349 0.0000 22.0249
#
#
#
# Elastic Compliance Matrix: (Units=1/GPa)
#
#
# Indices 1 2 3 4 5 6 
#
# 1 0.007305 -0.000072 -0.002858 0.000000 0.001559 0.000000
# 2 -0.000072 0.016582 -0.002889 0.000000 -0.002707 0.000000
# 3 -0.002858 -0.002889 0.011474 0.000000 -0.000324 0.000000
# 4 0.000000 0.000000 0.000000 0.028242 0.000000 -0.015432
# 5 0.001559 -0.002707 -0.000324 0.000000 0.024806 0.000000
# 6 0.000000 0.000000 0.000000 -0.015432 0.000000 0.053836
#
#
# Mechanical properties :
#
#
# Convention : Reuss Voigt Hill
#
# Bulk Modulus (GPa) = 42.14829 49.82502 45.98666
# Shear Modulus (GPa) = 30.90405 38.22720 34.56563
#
# Velocity S-wave (km/s) = 3.52164 3.91673 3.72443
# Velocity P-wave (km/s) = 5.78362 6.35998 6.07863
#
# Compressibility (1/GPa) = 0.02372575
#
# Stress axis : x y z
#
# Youngs Moduli (GPa) = 136.88490 60.30492 87.15039
#
# Poissons Ratio (x) = 0.00433 0.24904
# Poissons Ratio (y) = 0.00983 0.25177
# Poissons Ratio (z) = 0.39116 0.17421
#
# Static dielectric constant tensor:
#      x y z
#    x 1.919960 0.000000 -0.037500 
#    y 0.000000 2.061230 0.000000 
#    z -0.037500 0.000000 2.061120 
# 
# From -- ./inp_files/297803.got.cif
#   From: 2010.05.17/outbox.cif.g08.bks.cpg/sg15_149_cif.got.tgz:297803.got - 2010.06.03 18:47:42.
