data_PCOD9300090
_publ_section_title
;
Structure prediction by ZEFSAII (Michael W. Deem and Ramdas Pophale) SiO2 
 PCOD9300090
Probable space group: C 2/C
;
_chemical_formula_sum "Si O2"
_cell_formula_units_Z 28
_cell_length_a 28.969405
_cell_length_b 7.213125
_cell_length_c 8.890284
_cell_angle_alpha 90.000000
_cell_angle_beta 39.412366
_cell_angle_gamma 90.000000
_cell_volume 1179.457053
_symmetry_space_group_name_H-M "C 2/C"
_symmetry_group_IT_number 15
_symmetry_cell_setting 'monoclinic'
loop_
_space_group_symop_operation_xyz
x,y,z
-x,y,1/2-z
-x,-y,-z
x,-y,1/2+z
1/2+x,1/2+y,z
1/2-x,1/2+y,1/2-z
1/2-x,1/2-y,-z
1/2+x,1/2-y,1/2+z
loop_
_atom_site_type_symbol
_atom_site_label
_atom_site_fract_x
_atom_site_fract_y
_atom_site_fract_z
Si Si1 0.000000 0.434377 0.250000
Si Si2 0.187475 0.981839 0.101799
Si Si3 0.712609 0.890104 0.387721
Si Si4 0.592092 0.178924 0.791750
O O1 0.037173 0.315793 0.288515
O O2 0.943729 0.567387 0.480019
O O3 0.176036 0.802850 0.024818
O O4 0.257365 0.088079 0.854772
O O5 0.214913 0.906140 0.191853
O O6 0.121314 0.122181 0.268414
O O7 0.658493 0.054995 0.562255
#
# Coordination Sequence:
#
# PCOD9300090 Si02
#       4
#     4   8   8   8
#     4  10  26  44  68  90 138 194 228 252 320 386
#     4  11  24  39  70 102 136 158 219 277 355 384
#     4  11  23  41  69 109 123 170 209 291 348 396
#     4  11  23  47  65  96 138 177 222 277 313 405
#
# _framework density 23.739737000000002
#
# number of rings (size 3 to 8) (size 9 to 14) (size 15 to 20)
#    0.000    1.143    2.857    2.571    8.000    0.000 
#    0.000    8.571    0.000    0.000    0.000    0.000 
#    0.000    0.000    0.000    0.000    0.000    0.000 
#
# Total GULP energy -78446.090205 kJ/mol
# GULP energy per Si atom -5603.292158 kJ/mol
# Density = 2.368570 g / cm^3
# Si number density = 23.739737 Si / 1000 Ang^3
#
#
#
# Elastic Constant Matrix: (Units=GPa)
#
#
# Indices 1 2 3 4 5 6 
#
# 1 84.0263 36.4107 16.0682 0.0000 14.0644 0.0000
# 2 36.4107 123.6706 4.4356 0.0000 -13.7985 0.0000
# 3 16.0682 4.4356 70.7803 0.0000 10.0397 0.0000
# 4 0.0000 0.0000 0.0000 31.6559 0.0000 -13.6279
# 5 14.0644 -13.7985 10.0397 0.0000 31.1997 0.0000
# 6 0.0000 0.0000 0.0000 -13.6279 0.0000 23.5964
#
#
#
# Elastic Compliance Matrix: (Units=1/GPa)
#
#
# Indices 1 2 3 4 5 6 
#
# 1 0.016342 -0.005772 -0.002034 0.000000 -0.009265 0.000000
# 2 -0.005772 0.010630 -0.000410 0.000000 0.007435 0.000000
# 3 -0.002034 -0.000410 0.015205 0.000000 -0.004158 0.000000
# 4 0.000000 0.000000 0.000000 0.042043 0.000000 0.024282
# 5 -0.009265 0.007435 -0.004158 0.000000 0.040854 0.000000
# 6 0.000000 0.000000 0.000000 0.024282 0.000000 0.056403
#
#
# Mechanical properties :
#
#
# Convention : Reuss Voigt Hill
#
# Bulk Modulus (GPa) = 38.84390 43.58958 41.21674
# Shear Modulus (GPa) = 24.21403 32.06123 28.13763
#
# Velocity S-wave (km/s) = 3.19718 3.67894 3.44649
# Velocity P-wave (km/s) = 5.47970 6.03717 5.76518
#
# Compressibility (1/GPa) = 0.02574407
#
# Stress axis : x y z
#
# Youngs Moduli (GPa) = 61.19205 94.07587 65.76604
#
# Poissons Ratio (x) = 0.54302 0.13377
# Poissons Ratio (y) = 0.35321 0.02699
# Poissons Ratio (z) = 0.12446 0.03861
#
# Static dielectric constant tensor:
#      x y z
#    x 1.932180 0.000000 0.009890 
#    y 0.000000 1.897510 0.000000 
#    z 0.009890 0.000000 1.892430 
# 
# From -- ./inp_files/45412.got.cif
#   From: 2010.05.17/outbox.cif.g08.bks.cpg/sg15_23_cif.got.tgz:45412.got - 2010.06.03 18:47:42.
