data_PCOD9300151
_publ_section_title
;
Structure prediction by ZEFSAII (Michael W. Deem and Ramdas Pophale) SiO2 
 PCOD9300151
Probable space group: C 2/C
;
_chemical_formula_sum "Si O2"
_cell_formula_units_Z 48
_cell_length_a 11.649398
_cell_length_b 23.807551
_cell_length_c 6.882629
_cell_angle_alpha 90.000000
_cell_angle_beta 75.525171
_cell_angle_gamma 90.000000
_cell_volume 1848.261664
_symmetry_space_group_name_H-M "C 2/C"
_symmetry_group_IT_number 15
_symmetry_cell_setting 'monoclinic'
loop_
_space_group_symop_operation_xyz
x,y,z
-x,y,1/2-z
-x,-y,-z
x,-y,1/2+z
1/2+x,1/2+y,z
1/2-x,1/2+y,1/2-z
1/2-x,1/2-y,-z
1/2+x,1/2-y,1/2+z
loop_
_atom_site_type_symbol
_atom_site_label
_atom_site_fract_x
_atom_site_fract_y
_atom_site_fract_z
Si Si1 0.998526 0.594083 0.978605
Si Si2 0.359803 0.644738 0.003248
Si Si3 0.136871 0.014492 0.420546
Si Si4 0.620552 0.681787 0.934759
Si Si5 0.326116 0.188013 0.157889
Si Si6 0.313469 0.005954 0.595513
O O1 0.000000 0.604765 0.750000
O O2 0.126246 0.567035 0.963793
O O3 0.940703 0.649166 0.092964
O O4 0.909175 0.543956 0.071578
O O5 0.353415 0.582221 0.087797
O O6 0.481575 0.671449 0.036567
O O7 0.364034 0.645974 0.768354
O O8 0.245256 0.679724 0.114052
O O9 0.281624 0.992017 0.360835
O O10 0.163120 0.002283 0.663835
O O11 0.000000 0.000000 0.500000
O O12 0.638472 0.747769 0.886964
O O13 0.725121 0.668306 0.043150
#
# Coordination Sequence:
#
# PCOD9300151 Si02
#       6
#     8   8   8   8   8   8
#     4  11  24  43  72 101 147 194 242 308 373 450
#     4  11  25  47  71 108 145 193 249 317 377 455
#     4  12  27  44  74 106 146 194 244 304 380 457
#     4  10  26  45  73 106 146 189 255 318 377 450
#     4  11  24  48  74 104 142 200 249 313 384 447
#     4  11  25  46  65 107 146 188 243 301 374 453
#
# _framework density 25.970347
#
# number of rings (size 3 to 8) (size 9 to 14) (size 15 to 20)
#    0.000    1.000    3.333    1.500    9.333    4.000 
#    6.000    0.000    0.000    0.000    0.000    0.000 
#    0.000    0.000    0.000    0.000    0.000    0.000 
#
# Total GULP energy -134283.476674 kJ/mol
# GULP energy per Si atom -5595.144861 kJ/mol
# Density = 2.591124 g / cm^3
# Si number density = 25.970347 Si / 1000 Ang^3
#
#
#
# Elastic Constant Matrix: (Units=GPa)
#
#
# Indices 1 2 3 4 5 6 
#
# 1 161.2638 51.9174 60.7083 0.0000 -16.1575 0.0000
# 2 51.9174 133.7089 23.5532 0.0000 -25.5796 0.0000
# 3 60.7083 23.5532 169.6228 0.0000 -26.0914 0.0000
# 4 0.0000 0.0000 0.0000 -104.0280 0.0000 -15.6306
# 5 -16.1575 -25.5796 -26.0914 0.0000 66.3495 0.0000
# 6 0.0000 0.0000 0.0000 -15.6306 0.0000 45.3282
#
#
#
# Elastic Compliance Matrix: (Units=1/GPa)
#
#
# Indices 1 2 3 4 5 6 
#
# 1 0.007998 -0.002678 -0.002501 0.000000 -0.000068 0.000000
# 2 -0.002678 0.009046 0.000147 0.000000 0.002893 0.000000
# 3 -0.002501 0.000147 0.007116 0.000000 0.002246 0.000000
# 4 0.000000 0.000000 0.000000 -0.009139 0.000000 -0.003152
# 5 -0.000068 0.002893 0.002246 0.000000 0.017054 0.000000
# 6 0.000000 0.000000 0.000000 -0.003152 0.000000 0.020975
#
#
# Mechanical properties :
#
#
# Convention : Reuss Voigt Hill
#
# Bulk Modulus (GPa) = 70.94015 81.88370 76.41192
# Shear Modulus (GPa) = 73.73435 23.42438 48.57937
#
# Velocity S-wave (km/s) = 5.33417 3.00653 4.32970
# Velocity P-wave (km/s) = 8.08164 6.60685 7.38117
#
# Compressibility (1/GPa) = 0.01409639
#
# Stress axis : x y z
#
# Youngs Moduli (GPa) = 125.03326 110.54216 140.53664
#
# Poissons Ratio (x) = 0.29603 0.35150
# Poissons Ratio (y) = 0.33483 -0.02071
# Poissons Ratio (z) = 0.31272 -0.01629
#
# Static dielectric constant tensor:
#      x y z
#    x 2.081850 0.000000 0.143910 
#    y 0.000000 1.915190 0.000000 
#    z 0.143910 0.000000 2.300790 
# 
# From -- ./inp_files/32522.got.cif
#   From: 2010.05.17/outbox.cif.g08.bks.cpg/sg15_17_cif.got.tgz:32522.got - 2010.06.03 18:47:42.
