data_PCOD9300109
_publ_section_title
;
Structure prediction by ZEFSAII (Michael W. Deem and Ramdas Pophale) SiO2 
 PCOD9300109
Probable space group: C 2/C
;
_chemical_formula_sum "Si O2"
_cell_formula_units_Z 56
_cell_length_a 18.812292
_cell_length_b 8.640322
_cell_length_c 31.845116
_cell_angle_alpha 90.000000
_cell_angle_beta 26.731012
_cell_angle_gamma 90.000000
_cell_volume 2328.285964
_symmetry_space_group_name_H-M "C 2/C"
_symmetry_group_IT_number 15
_symmetry_cell_setting 'monoclinic'
loop_
_space_group_symop_operation_xyz
x,y,z
-x,y,1/2-z
-x,-y,-z
x,-y,1/2+z
1/2+x,1/2+y,z
1/2-x,1/2+y,1/2-z
1/2-x,1/2-y,-z
1/2+x,1/2-y,1/2+z
loop_
_atom_site_type_symbol
_atom_site_label
_atom_site_fract_x
_atom_site_fract_y
_atom_site_fract_z
Si Si1 0.500000 0.859684 0.250000
Si Si2 0.998864 0.981709 0.599420
Si Si3 0.517934 0.642865 0.810211
Si Si4 0.871155 0.451676 0.896889
Si Si5 0.983120 0.639885 0.912359
Si Si6 0.168175 0.325107 0.397724
Si Si7 0.200534 0.902546 0.617524
Si Si8 0.000000 0.000000 0.500000
O O1 0.549381 0.963218 0.184689
O O2 0.351505 0.740862 0.325886
O O3 0.188757 0.004832 0.498838
O O4 0.964560 0.806469 0.632321
O O5 0.950643 0.998042 0.576440
O O6 0.929675 0.096022 0.670712
O O7 0.655573 0.718766 0.710277
O O8 0.448889 0.491905 0.823513
O O9 0.381050 0.768740 0.885872
O O10 0.970432 0.507904 0.884699
O O11 0.087166 0.610640 0.898339
O O12 0.806102 0.662700 0.024211
O O13 0.197000 0.467716 0.413504
O O14 0.073947 0.178779 0.465185
#
# Coordination Sequence:
#
# PCOD9300109 Si02
#       8
#     4   8   8   8   8   8   8   4
#     4  12  26  42  76 106 142 184 252 316 358 438
#     4  11  23  46  72  98 142 191 241 300 369 445
#     4  12  26  43  75 103 143 188 251 306 366 444
#     4  12  26  43  69 108 138 193 244 304 372 444
#     4  11  25  45  68  99 144 190 241 295 382 443
#     4  11  26  45  70 106 145 190 243 306 368 444
#     4  12  23  47  75 104 139 195 247 309 366 444
#     4  10  26  44  72 102 146 192 238 304 374 432
#
# _framework density 24.052028
#
# number of rings (size 3 to 8) (size 9 to 14) (size 15 to 20)
#    0.000    0.571    4.286    3.000    6.000    2.286 
#    0.000    0.000    0.000    0.000    0.000    0.000 
#    0.000    0.000    0.000    0.000    0.000    0.000 
#
# Total GULP energy -156181.240689 kJ/mol
# GULP energy per Si atom -5577.901453 kJ/mol
# Density = 2.399728 g / cm^3
# Si number density = 24.052028 Si / 1000 Ang^3
#
#
#
# Elastic Constant Matrix: (Units=GPa)
#
#
# Indices 1 2 3 4 5 6 
#
# 1 42.0437 7.2410 -2.7756 0.0021 10.3237 0.0089
# 2 7.2410 87.5985 18.8748 -0.0010 19.0061 0.0004
# 3 -2.7756 18.8748 56.6327 -0.0006 5.6161 -0.0009
# 4 0.0021 -0.0010 -0.0006 41.1638 0.0002 3.0861
# 5 10.3237 19.0061 5.6161 0.0002 23.0539 0.0013
# 6 0.0089 0.0004 -0.0009 3.0861 0.0013 25.9930
#
#
#
# Elastic Compliance Matrix: (Units=1/GPa)
#
#
# Indices 1 2 3 4 5 6 
#
# 1 0.027090 -0.000037 0.002603 -0.000001 -0.012735 -0.000008
# 2 -0.000037 0.014650 -0.003780 0.000000 -0.011141 0.000000
# 3 0.002603 -0.003780 0.019318 0.000000 -0.002756 0.000000
# 4 -0.000001 0.000000 0.000000 0.024511 0.000000 -0.002910
# 5 -0.012735 -0.011141 -0.002756 0.000000 0.058935 0.000001
# 6 -0.000008 0.000000 0.000000 -0.002910 0.000001 0.038817
#
#
# Mechanical properties :
#
#
# Convention : Reuss Voigt Hill
#
# Bulk Modulus (GPa) = 17.05597 25.88394 21.46996
# Shear Modulus (GPa) = 24.35533 28.90445 26.62989
#
# Velocity S-wave (km/s) = 3.18561 3.47038 3.33104
# Velocity P-wave (km/s) = 4.54285 5.18103 4.87240
#
# Compressibility (1/GPa) = 0.05863049
#
# Stress axis : x y z
#
# Youngs Moduli (GPa) = 36.91402 68.25764 51.76459
#
# Poissons Ratio (x) = 0.00254 -0.13474
# Poissons Ratio (y) = 0.00137 0.19566
# Poissons Ratio (z) = -0.09608 0.25800
#
# Static dielectric constant tensor:
#      x y z
#    x 1.950750 0.000000 -0.045450 
#    y 0.000000 1.876920 0.000000 
#    z -0.045450 0.000000 1.959910 
# 
# From -- ./inp_files/317528.got.cif
#   From: 2010.05.17/outbox.cif.g08.bks.cpg/sg15_159_cif.got.tgz:317528.got - 2010.06.03 18:47:42.
