data_PCOD9300859
_publ_section_title
;
Structure prediction by ZEFSAII (Michael W. Deem and Ramdas Pophale) SiO2 
 PCOD9300859
Probable space group: C 2/C
;
_chemical_formula_sum "Si O2"
_cell_formula_units_Z 36
_cell_length_a 10.152608
_cell_length_b 14.822763
_cell_length_c 10.995645
_cell_angle_alpha 90.000000
_cell_angle_beta 75.266093
_cell_angle_gamma 90.000000
_cell_volume 1600.319493
_symmetry_space_group_name_H-M "C 2/C"
_symmetry_group_IT_number 15
_symmetry_cell_setting 'monoclinic'
loop_
_space_group_symop_operation_xyz
x,y,z
-x,y,1/2-z
-x,-y,-z
x,-y,1/2+z
1/2+x,1/2+y,z
1/2-x,1/2+y,1/2-z
1/2-x,1/2-y,-z
1/2+x,1/2-y,1/2+z
loop_
_atom_site_type_symbol
_atom_site_label
_atom_site_fract_x
_atom_site_fract_y
_atom_site_fract_z
Si Si1 0.317442 0.663034 0.199070
Si Si2 0.000000 0.992069 0.750000
Si Si3 0.034151 0.322168 0.867987
Si Si4 0.571549 0.146839 0.854579
Si Si5 0.147321 0.138885 0.583128
O O1 0.378969 0.573802 0.241487
O O2 0.193582 0.696795 0.311319
O O3 0.424462 0.744249 0.160927
O O4 0.284669 0.641227 0.065563
O O5 0.954294 0.057006 0.869859
O O6 0.000000 0.373735 0.750000
O O7 0.941621 0.230890 0.885749
O O8 0.007809 0.371447 0.001126
O O9 0.500000 0.109709 0.750000
O O10 0.730692 0.127963 0.847636
#
# Coordination Sequence:
#
# PCOD9300859 Si02
#       5
#     8   4   8   8   8
#     4  11  22  41  64  99 127 165 218 268 314 384
#     4  12  24  42  62  96 130 168 208 272 326 382
#     4  11  19  41  72  90 121 178 214 261 316 375
#     4  11  22  40  68 100 126 164 226 267 303 381
#     4  11  22  43  68  91 130 174 211 257 332 383
#
# _framework density 22.495505999999999
#
# number of rings (size 3 to 8) (size 9 to 14) (size 15 to 20)
#    0.000    0.889    6.667    2.000    0.000    0.889 
#    8.000    2.222    0.000    0.000    0.000    0.000 
#    0.000    0.000    0.000    0.000    0.000    0.000 
#
# Total GULP energy -100411.986089 kJ/mol
# GULP energy per Si atom -5578.443672 kJ/mol
# Density = 2.244431 g / cm^3
# Si number density = 22.495506 Si / 1000 Ang^3
#
#
#
# Elastic Constant Matrix: (Units=GPa)
#
#
# Indices 1 2 3 4 5 6 
#
# 1 99.2856 13.7363 59.7567 0.0000 7.6975 0.0000
# 2 13.7363 54.4342 2.0446 0.0000 -12.6409 0.0000
# 3 59.7567 2.0446 145.0816 0.0000 -13.2072 0.0000
# 4 0.0000 0.0000 0.0000 12.9900 0.0000 3.5638
# 5 7.6975 -12.6409 -13.2072 0.0000 43.7236 0.0000
# 6 0.0000 0.0000 0.0000 3.5638 0.0000 11.4786
#
#
#
# Elastic Compliance Matrix: (Units=1/GPa)
#
#
# Indices 1 2 3 4 5 6 
#
# 1 0.015363 -0.005067 -0.006824 0.000000 -0.006231 0.000000
# 2 -0.005067 0.021373 0.002498 0.000000 0.007826 0.000000
# 3 -0.006824 0.002498 0.010121 0.000000 0.004981 0.000000
# 4 0.000000 0.000000 0.000000 0.084150 0.000000 -0.026127
# 5 -0.006231 0.007826 0.004981 0.000000 0.027735 0.000000
# 6 0.000000 0.000000 0.000000 -0.026127 0.000000 0.095231
#
#
# Mechanical properties :
#
#
# Convention : Reuss Voigt Hill
#
# Bulk Modulus (GPa) = 35.62229 49.98627 42.80428
# Shear Modulus (GPa) = 17.72321 28.52268 23.12295
#
# Velocity S-wave (km/s) = 2.80992 3.56466 3.20955
# Velocity P-wave (km/s) = 5.13782 6.26188 5.72750
#
# Compressibility (1/GPa) = 0.02807231
#
# Stress axis : x y z
#
# Youngs Moduli (GPa) = 65.09154 46.78778 98.80059
#
# Poissons Ratio (x) = 0.23709 0.67417
# Poissons Ratio (y) = 0.32985 -0.24684
# Poissons Ratio (z) = 0.44416 -0.11690
#
# Static dielectric constant tensor:
#      x y z
#    x 1.933650 0.000000 0.022830 
#    y 0.000000 1.789620 0.000000 
#    z 0.022830 0.000000 1.868620 
# 
# From -- ./inp_files/76622.got.cif
#   From: 2010.05.17/outbox.cif.g08.bks.cpg/sg15_39_cif.got.tgz:76622.got - 2010.06.03 18:47:42.
