data_PCOD9300207
_publ_section_title
;
Structure prediction by ZEFSAII (Michael W. Deem and Ramdas Pophale) SiO2 
 PCOD9300207
Probable space group: C 2/C
;
_chemical_formula_sum "Si O2"
_cell_formula_units_Z 56
_cell_length_a 13.235449
_cell_length_b 18.803849
_cell_length_c 11.796215
_cell_angle_alpha 90.000000
_cell_angle_beta 57.550500
_cell_angle_gamma 90.000000
_cell_volume 2477.427352
_symmetry_space_group_name_H-M "C 2/C"
_symmetry_group_IT_number 15
_symmetry_cell_setting 'monoclinic'
loop_
_space_group_symop_operation_xyz
x,y,z
-x,y,1/2-z
-x,-y,-z
x,-y,1/2+z
1/2+x,1/2+y,z
1/2-x,1/2+y,1/2-z
1/2-x,1/2-y,-z
1/2+x,1/2-y,1/2+z
loop_
_atom_site_type_symbol
_atom_site_label
_atom_site_fract_x
_atom_site_fract_y
_atom_site_fract_z
Si Si1 0.389110 0.586130 0.897570
Si Si2 0.659957 0.064284 0.321676
Si Si3 0.222094 0.932309 0.517310
Si Si4 0.326667 0.186502 0.553498
Si Si5 0.500000 0.653886 0.250000
Si Si6 0.109153 0.595787 0.773675
Si Si7 0.367471 0.333211 0.618739
Si Si8 0.000000 0.656634 0.250000
O O1 0.500000 0.568662 0.750000
O O2 0.319315 0.513995 0.973716
O O3 0.287932 0.637360 0.904367
O O4 0.440004 0.630248 0.973614
O O5 0.673513 0.068919 0.449433
O O6 0.784061 0.101684 0.208836
O O7 0.568738 0.108183 0.299846
O O8 0.630345 0.983413 0.309682
O O9 0.272761 0.894541 0.375532
O O10 0.105417 0.892976 0.633463
O O11 0.395259 0.147231 0.615717
O O12 0.297504 0.265254 0.614705
O O13 0.409041 0.194949 0.391427
O O14 0.556335 0.694280 0.321520
O O15 0.000000 0.599780 0.750000
#
# Coordination Sequence:
#
# PCOD9300207 Si02
#       8
#     8   8   8   8   4   8   8   4
#     4  12  25  43  74 107 141 180 236 296 353 420
#     4  11  23  42  70 101 142 182 234 294 342 413
#     4  11  23  45  69 108 140 183 241 296 350 413
#     4  12  28  46  71 106 144 186 237 286 355 427
#     4  10  26  46  72 102 144 190 232 296 352 408
#     4  12  25  43  73 105 142 188 240 290 351 420
#     4  11  26  48  68 104 148 184 237 284 356 426
#     4  12  24  46  72 102 140 188 234 296 350 414
#
# _framework density 22.604092000000001
#
# number of rings (size 3 to 8) (size 9 to 14) (size 15 to 20)
#    0.000    0.571    5.714    1.286    4.000    1.714 
#    0.000    1.429    0.000    0.000    0.000    0.000 
#    0.000    0.000    0.000    0.000    0.000    0.000 
#
# Total GULP energy -156346.179649 kJ/mol
# GULP energy per Si atom -5583.792130 kJ/mol
# Density = 2.255264 g / cm^3
# Si number density = 22.604092 Si / 1000 Ang^3
#
#
#
# Elastic Constant Matrix: (Units=GPa)
#
#
# Indices 1 2 3 4 5 6 
#
# 1 106.3902 16.1889 47.1427 0.0000 15.4841 0.0000
# 2 16.1889 76.2306 29.7808 0.0000 13.2051 0.0000
# 3 47.1427 29.7808 127.5807 0.0000 17.7158 0.0000
# 4 0.0000 0.0000 0.0000 16.0529 0.0000 12.8872
# 5 15.4841 13.2051 17.7158 0.0000 25.3331 0.0000
# 6 0.0000 0.0000 0.0000 12.8872 0.0000 25.3243
#
#
#
# Elastic Compliance Matrix: (Units=1/GPa)
#
#
# Indices 1 2 3 4 5 6 
#
# 1 0.011705 -0.000292 -0.003638 0.000000 -0.004458 0.000000
# 2 -0.000292 0.015232 -0.002625 0.000000 -0.005926 0.000000
# 3 -0.003638 -0.002625 0.010296 0.000000 -0.003609 0.000000
# 4 0.000000 0.000000 0.000000 0.105321 0.000000 -0.053597
# 5 -0.004458 -0.005926 -0.003609 0.000000 0.047811 0.000000
# 6 0.000000 0.000000 0.000000 -0.053597 0.000000 0.066762
#
#
# Mechanical properties :
#
#
# Convention : Reuss Voigt Hill
#
# Bulk Modulus (GPa) = 41.45391 55.15848 48.30619
# Shear Modulus (GPa) = 17.96764 27.81467 22.89115
#
# Velocity S-wave (km/s) = 2.82243 3.51167 3.18575
# Velocity P-wave (km/s) = 5.38520 6.39511 5.91176
#
# Compressibility (1/GPa) = 0.02412318
#
# Stress axis : x y z
#
# Youngs Moduli (GPa) = 85.43681 65.65108 97.12376
#
# Poissons Ratio (x) = 0.01919 0.35331
# Poissons Ratio (y) = 0.02498 0.25492
# Poissons Ratio (z) = 0.31080 0.17232
#
# Static dielectric constant tensor:
#      x y z
#    x 1.869000 0.000000 0.028270 
#    y 0.000000 1.782080 0.000000 
#    z 0.028270 0.000000 1.865850 
# 
# From -- ./inp_files/98694.got.cif
#   From: 2010.05.17/outbox.cif.g08.bks.cpg/sg15_50_cif.got.tgz:98694.got - 2010.06.03 18:47:42.
