data_PCOD9300592
_publ_section_title
;
Structure prediction by ZEFSAII (Michael W. Deem and Ramdas Pophale) SiO2 
 PCOD9300592
Probable space group: C 2/C
;
_chemical_formula_sum "Si O2"
_cell_formula_units_Z 56
_cell_length_a 21.015533
_cell_length_b 13.431957
_cell_length_c 14.768113
_cell_angle_alpha 90.000000
_cell_angle_beta 139.694271
_cell_angle_gamma 90.000000
_cell_volume 2696.615691
_symmetry_space_group_name_H-M "C 2/C"
_symmetry_group_IT_number 15
_symmetry_cell_setting 'monoclinic'
loop_
_space_group_symop_operation_xyz
x,y,z
-x,y,1/2-z
-x,-y,-z
x,-y,1/2+z
1/2+x,1/2+y,z
1/2-x,1/2+y,1/2-z
1/2-x,1/2-y,-z
1/2+x,1/2-y,1/2+z
loop_
_atom_site_type_symbol
_atom_site_label
_atom_site_fract_x
_atom_site_fract_y
_atom_site_fract_z
Si Si1 0.500000 0.867925 0.250000
Si Si2 0.962546 0.785537 0.009717
Si Si3 0.782088 0.929102 0.771127
Si Si4 0.092763 0.900683 0.023632
Si Si5 0.450169 0.906755 0.994764
Si Si6 0.149532 0.209226 0.425202
Si Si7 0.500000 0.332627 0.250000
Si Si8 0.893898 0.990079 0.720345
O O1 0.537037 0.919186 0.381887
O O2 0.579422 0.788354 0.302764
O O3 0.968857 0.774469 0.125328
O O4 0.047818 0.863740 0.070382
O O5 0.991188 0.687476 0.984624
O O6 0.857832 0.836450 0.869183
O O7 0.667346 0.904220 0.653820
O O8 0.809232 0.976713 0.702920
O O9 0.821079 0.018450 0.877358
O O10 0.128418 0.802387 0.008670
O O11 0.997525 0.953256 0.875864
O O12 0.500000 0.000000 0.000000
O O13 0.250000 0.250000 0.500000
O O14 0.131157 0.097383 0.376062
O O15 0.586816 0.407340 0.310601
#
# Coordination Sequence:
#
# PCOD9300592 Si02
#       8
#     4   8   8   8   8   8   4   8
#     4  12  23  49  64  94 138 178 234 292 354 416
#     4  11  23  45  70 103 143 185 241 296 353 429
#     4  11  23  44  71 104 142 184 234 296 367 426
#     4  11  19  39  68 101 138 176 234 302 342 418
#     4  12  30  49  69 100 145 188 237 301 365 435
#     4  12  22  34  67 104 133 180 234 291 354 417
#     4  12  19  39  74 104 140 186 240 308 342 424
#     4  11  18  36  63 105 136 169 235 295 351 408
#
# _framework density 20.766770000000001
#
# number of rings (size 3 to 8) (size 9 to 14) (size 15 to 20)
#    0.000    0.571    7.143    2.571    2.000    1.714 
#    2.571    0.714    0.000    0.000    0.000    0.000 
#    0.000    0.000    0.000    0.000    0.000    0.000 
#
# Total GULP energy -156114.288327 kJ/mol
# GULP energy per Si atom -5575.510297 kJ/mol
# Density = 2.071950 g / cm^3
# Si number density = 20.766770 Si / 1000 Ang^3
#
#
#
# Elastic Constant Matrix: (Units=GPa)
#
#
# Indices 1 2 3 4 5 6 
#
# 1 109.7025 35.7874 60.5203 0.0000 -4.8829 0.0000
# 2 35.7874 85.9307 37.9804 0.0000 1.5717 0.0000
# 3 60.5203 37.9804 107.8406 0.0000 5.8393 0.0000
# 4 0.0000 0.0000 0.0000 30.6870 0.0000 -19.7571
# 5 -4.8829 1.5717 5.8393 0.0000 43.0625 0.0000
# 6 0.0000 0.0000 0.0000 -19.7571 0.0000 90.2940
#
#
#
# Elastic Compliance Matrix: (Units=1/GPa)
#
#
# Indices 1 2 3 4 5 6 
#
# 1 0.014019 -0.002779 -0.007032 0.000000 0.002645 0.000000
# 2 -0.002779 0.014335 -0.003469 0.000000 -0.000368 0.000000
# 3 -0.007032 -0.003469 0.014585 0.000000 -0.002648 0.000000
# 4 0.000000 0.000000 0.000000 0.037931 0.000000 0.008300
# 5 0.002645 -0.000368 -0.002648 0.000000 0.023894 0.000000
# 6 0.000000 0.000000 0.000000 0.008300 0.000000 0.012891
#
#
# Mechanical properties :
#
#
# Convention : Reuss Voigt Hill
#
# Bulk Modulus (GPa) = 61.05644 63.56113 62.30878
# Shear Modulus (GPa) = 33.40593 44.08775 38.74684
#
# Velocity S-wave (km/s) = 4.01512 4.61260 4.32419
# Velocity P-wave (km/s) = 7.13861 7.68386 7.41624
#
# Compressibility (1/GPa) = 0.01637829
#
# Stress axis : x y z
#
# Youngs Moduli (GPa) = 71.33041 69.76125 68.56539
#
# Poissons Ratio (x) = 0.19385 0.48216
# Poissons Ratio (y) = 0.19821 0.23786
# Poissons Ratio (z) = 0.50161 0.24201
#
# Static dielectric constant tensor:
#      x y z
#    x 1.831600 0.000000 -0.141160 
#    y 0.000000 1.759870 0.000000 
#    z -0.141160 0.000000 1.772860 
# 
# From -- ./inp_files/168512.got.cif
#   From: 2010.05.17/outbox.cif.g08.bks.cpg/sg15_85_cif.got.tgz:168512.got - 2010.06.03 18:47:42.
