data_PCOD9300539
_publ_section_title
;
Structure prediction by ZEFSAII (Michael W. Deem and Ramdas Pophale) SiO2 
 PCOD9300539
Probable space group: C 2/C
;
_chemical_formula_sum "Si O2"
_cell_formula_units_Z 64
_cell_length_a 22.309373
_cell_length_b 13.606307
_cell_length_c 11.605914
_cell_angle_alpha 90.000000
_cell_angle_beta 116.844110
_cell_angle_gamma 90.000000
_cell_volume 3143.315022
_symmetry_space_group_name_H-M "C 2/C"
_symmetry_group_IT_number 15
_symmetry_cell_setting 'monoclinic'
loop_
_space_group_symop_operation_xyz
x,y,z
-x,y,1/2-z
-x,-y,-z
x,-y,1/2+z
1/2+x,1/2+y,z
1/2-x,1/2+y,1/2-z
1/2-x,1/2-y,-z
1/2+x,1/2-y,1/2+z
loop_
_atom_site_type_symbol
_atom_site_label
_atom_site_fract_x
_atom_site_fract_y
_atom_site_fract_z
Si Si1 0.669680 0.110455 0.288845
Si Si2 0.574268 0.385029 0.506719
Si Si3 0.942362 0.116759 0.989195
Si Si4 0.679224 0.621457 0.463807
Si Si5 0.707957 0.089361 0.746986
Si Si6 0.296268 0.307014 0.767852
Si Si7 0.898396 0.794454 0.209398
Si Si8 0.722103 0.579154 0.921739
O O1 0.721639 0.165078 0.246131
O O2 0.606401 0.180135 0.259867
O O3 0.714130 0.092777 0.441817
O O4 0.658095 0.999120 0.234269
O O5 0.558936 0.500748 0.483617
O O6 0.519550 0.348276 0.553569
O O7 0.649273 0.373060 0.619032
O O8 0.566627 0.326559 0.379422
O O9 0.919475 0.140883 0.838262
O O10 0.886719 0.159534 0.027577
O O11 0.741993 0.616854 0.605253
O O12 0.695945 0.677446 0.361515
O O13 0.673239 0.506948 0.422596
O O14 0.682741 0.195229 0.684218
O O15 0.753935 0.049873 0.683650
O O16 0.820509 0.822373 0.119515
#
# Coordination Sequence:
#
# PCOD9300539 Si02
#       8
#     8   8   8   8   8   8   8   8
#     4  11  22  34  58  88 115 150 189 229 286 342
#     4  11  24  37  59  85 110 149 198 229 285 333
#     4  11  23  38  56  85 114 147 189 238 278 338
#     4  11  21  34  54  82 120 147 181 226 287 338
#     4  11  22  36  55  88 118 149 188 231 284 343
#     4  12  21  36  56  83 120 152 184 231 287 345
#     4  12  20  38  58  82 115 152 185 234 279 337
#     4  11  18  32  57  82 117 147 181 227 279 336
#
# _framework density 20.360671
#
# number of rings (size 3 to 8) (size 9 to 14) (size 15 to 20)
#    0.000    0.750    6.250    3.375    0.000    0.500 
#    0.000    0.000    0.000    0.750    3.250    0.000 
#    0.000    0.000    0.000    0.000    0.000    0.000 
#
# Total GULP energy -178567.648810 kJ/mol
# GULP energy per Si atom -5580.239025 kJ/mol
# Density = 2.031433 g / cm^3
# Si number density = 20.360671 Si / 1000 Ang^3
#
#
#
# Elastic Constant Matrix: (Units=GPa)
#
#
# Indices 1 2 3 4 5 6 
#
# 1 81.3317 25.3515 27.1276 0.0000 -29.8187 0.0000
# 2 25.3515 94.7680 -0.3602 0.0000 -15.4140 0.0000
# 3 27.1276 -0.3602 56.4886 0.0000 -29.2908 0.0000
# 4 0.0000 0.0000 0.0000 18.8975 0.0000 -2.1729
# 5 -29.8187 -15.4140 -29.2908 0.0000 29.5605 0.0000
# 6 0.0000 0.0000 0.0000 -2.1729 0.0000 14.8273
#
#
#
# Elastic Compliance Matrix: (Units=1/GPa)
#
#
# Indices 1 2 3 4 5 6 
#
# 1 0.019949 -0.002160 0.000528 0.000000 0.019520 0.000000
# 2 -0.002160 0.013082 0.007256 0.000000 0.011833 0.000000
# 3 0.000528 0.007256 0.040587 0.000000 0.044532 0.000000
# 4 0.000000 0.000000 0.000000 0.053824 0.000000 0.007888
# 5 0.019520 0.011833 0.044532 0.000000 0.103816 0.000000
# 6 0.000000 0.000000 0.000000 0.007888 0.000000 0.068599
#
#
# Mechanical properties :
#
#
# Convention : Reuss Voigt Hill
#
# Bulk Modulus (GPa) = 11.78316 37.42511 24.60414
# Shear Modulus (GPa) = 15.77798 24.68835 20.23316
#
# Velocity S-wave (km/s) = 2.78677 3.48595 3.15578
# Velocity P-wave (km/s) = 4.01927 5.88417 5.03875
#
# Compressibility (1/GPa) = 0.08486686
#
# Stress axis : x y z
#
# Youngs Moduli (GPa) = 50.12723 76.44062 24.63857
#
# Poissons Ratio (x) = 0.16509 -0.01300
# Poissons Ratio (y) = 0.10826 -0.17879
# Poissons Ratio (z) = -0.02645 -0.55468
#
# Static dielectric constant tensor:
#      x y z
#    x 1.758860 0.000000 -0.012910 
#    y 0.000000 1.820670 0.000000 
#    z -0.012910 0.000000 1.741980 
# 
# From -- ./inp_files/112745.got.cif
#   From: 2010.05.17/outbox.cif.g08.bks.cpg/sg15_57_cif.got.tgz:112745.got - 2010.06.03 18:47:42.
