data_PCOD9300729
_publ_section_title
;
Structure prediction by ZEFSAII (Michael W. Deem and Ramdas Pophale) SiO2 
 PCOD9300729
Probable space group: C 2/C
;
_chemical_formula_sum "Si O2"
_cell_formula_units_Z 64
_cell_length_a 14.522281
_cell_length_b 16.164478
_cell_length_c 14.401840
_cell_angle_alpha 90.000000
_cell_angle_beta 55.752001
_cell_angle_gamma 90.000000
_cell_volume 2794.569044
_symmetry_space_group_name_H-M "C 2/C"
_symmetry_group_IT_number 15
_symmetry_cell_setting 'monoclinic'
loop_
_space_group_symop_operation_xyz
x,y,z
-x,y,1/2-z
-x,-y,-z
x,-y,1/2+z
1/2+x,1/2+y,z
1/2-x,1/2+y,1/2-z
1/2-x,1/2-y,-z
1/2+x,1/2-y,1/2+z
loop_
_atom_site_type_symbol
_atom_site_label
_atom_site_fract_x
_atom_site_fract_y
_atom_site_fract_z
Si Si1 0.278998 0.877825 0.252787
Si Si2 0.984029 0.832250 0.663078
Si Si3 0.510281 0.042229 0.630965
Si Si4 0.750557 0.194656 0.225947
Si Si5 0.495447 0.853347 0.639079
Si Si6 0.964778 0.086813 0.562118
Si Si7 0.152662 0.313355 0.082742
Si Si8 0.144363 0.203118 0.514094
O O1 0.389606 0.927790 0.161433
O O2 0.253475 0.793774 0.211127
O O3 0.159505 0.921787 0.326744
O O4 0.308537 0.847074 0.339825
O O5 0.851388 0.824403 0.735843
O O6 0.000000 0.882208 0.750000
O O7 0.030443 0.859999 0.536811
O O8 0.043499 0.743982 0.641665
O O9 0.500000 0.044832 0.750000
O O10 0.610731 0.105243 0.550703
O O11 0.531204 0.946551 0.596869
O O12 0.631540 0.161472 0.317890
O O13 0.791870 0.157890 0.105849
O O14 0.500000 0.840272 0.750000
O O15 0.564944 0.782878 0.548307
O O16 0.049682 0.131897 0.586735
O O17 0.000000 0.000000 0.500000
O O18 0.250000 0.250000 0.000000
O O19 0.250000 0.250000 0.500000
#
# Coordination Sequence:
#
# PCOD9300729 Si02
#       8
#     8   8   8   8   8   8   8   8
#     4  11  20  38  62  92 129 166 215 267 332 401
#     4  11  21  40  63  95 129 163 218 275 335 404
#     4   9  21  36  62  94 129 165 215 274 329 394
#     4  11  22  38  67  93 126 172 220 270 333 401
#     4  11  22  42  68  94 127 177 228 277 336 405
#     4  11  26  41  66  95 131 178 228 274 342 412
#     4  11  19  36  64  95 127 166 206 269 343 397
#     4  11  24  42  66  92 129 177 227 274 336 411
#
# _framework density 22.901565000000002
#
# number of rings (size 3 to 8) (size 9 to 14) (size 15 to 20)
#    0.000    1.250    6.250    0.375    3.500    1.000 
#    0.000    2.500    0.000    0.000    0.000    0.000 
#    0.000    0.000    0.000    0.000    0.000    0.000 
#
# Total GULP energy -178195.345244 kJ/mol
# GULP energy per Si atom -5568.604539 kJ/mol
# Density = 2.284944 g / cm^3
# Si number density = 22.901565 Si / 1000 Ang^3
#
#
#
# Elastic Constant Matrix: (Units=GPa)
#
#
# Indices 1 2 3 4 5 6 
#
# 1 132.9061 27.1940 25.5355 0.0000 -37.1154 0.0000
# 2 27.1940 113.5838 8.7730 0.0000 -22.7132 0.0000
# 3 25.5355 8.7730 53.7902 0.0000 -16.4717 0.0000
# 4 0.0000 0.0000 0.0000 25.3414 0.0000 3.7467
# 5 -37.1154 -22.7132 -16.4717 0.0000 37.6956 0.0000
# 6 0.0000 0.0000 0.0000 3.7467 0.0000 0.9126
#
#
#
# Elastic Compliance Matrix: (Units=1/GPa)
#
#
# Indices 1 2 3 4 5 6 
#
# 1 0.010611 -0.000538 -0.002135 0.000000 0.009191 0.000000
# 2 -0.000538 0.010040 0.000356 0.000000 0.005676 0.000000
# 3 -0.002135 0.000356 0.021898 0.000000 0.007681 0.000000
# 4 0.000000 0.000000 0.000000 0.100413 0.000000 -0.412257
# 5 0.009191 0.005676 0.007681 0.000000 0.042354 0.000000
# 6 0.000000 0.000000 0.000000 -0.412257 0.000000 2.788347
#
#
# Mechanical properties :
#
#
# Convention : Reuss Voigt Hill
#
# Bulk Modulus (GPa) = 26.37455 47.03167 36.70311
# Shear Modulus (GPa) = 1.67172 28.70841 15.19007
#
# Velocity S-wave (km/s) = 0.85530 3.54440 2.57821
# Velocity P-wave (km/s) = 3.53792 6.10994 4.99241
#
# Compressibility (1/GPa) = 0.03791534
#
# Stress axis : x y z
#
# Youngs Moduli (GPa) = 94.24229 99.59858 45.66539
#
# Poissons Ratio (x) = 0.05355 0.09751
# Poissons Ratio (y) = 0.05067 -0.01625
# Poissons Ratio (z) = 0.20123 -0.03543
#
# Static dielectric constant tensor:
#      x y z
#    x 1.939880 0.000000 0.051280 
#    y 0.000000 1.866750 0.000000 
#    z 0.051280 0.000000 1.974300 
# 
# From -- ./inp_files/205400.got.cif
#   From: 2010.05.17/outbox.cif.g08.bks.cpg/sg15_103_cif.got.tgz:205400.got - 2010.06.03 18:47:42.
