data_PCOD9300824
_publ_section_title
;
Structure prediction by ZEFSAII (Michael W. Deem and Ramdas Pophale) SiO2 
 PCOD9300824
Probable space group: C 2/C
;
_chemical_formula_sum "Si O2"
_cell_formula_units_Z 44
_cell_length_a 24.917580
_cell_length_b 13.489738
_cell_length_c 7.858414
_cell_angle_alpha 90.000000
_cell_angle_beta 49.162172
_cell_angle_gamma 90.000000
_cell_volume 1998.433304
_symmetry_space_group_name_H-M "C 2/C"
_symmetry_group_IT_number 15
_symmetry_cell_setting 'monoclinic'
loop_
_space_group_symop_operation_xyz
x,y,z
-x,y,1/2-z
-x,-y,-z
x,-y,1/2+z
1/2+x,1/2+y,z
1/2-x,1/2+y,1/2-z
1/2-x,1/2-y,-z
1/2+x,1/2-y,1/2+z
loop_
_atom_site_type_symbol
_atom_site_label
_atom_site_fract_x
_atom_site_fract_y
_atom_site_fract_z
Si Si1 0.527258 0.799999 0.996737
Si Si2 0.442257 0.587060 0.615190
Si Si3 0.238931 0.435287 0.983867
Si Si4 0.500000 0.945766 0.750000
Si Si5 0.656245 0.551157 0.973905
Si Si6 0.138876 0.577392 0.409652
O O1 0.500000 0.796203 0.250000
O O2 0.523734 0.692530 0.918614
O O3 0.494274 0.878624 0.932034
O O4 0.608027 0.837606 0.852979
O O5 0.500000 0.500000 0.500000
O O6 0.405697 0.600684 0.506265
O O7 0.381107 0.545592 0.865205
O O8 0.285040 0.511228 0.776409
O O9 0.186977 0.379550 0.962143
O O10 0.300055 0.387533 0.975466
O O11 0.186951 0.500729 0.206909
O O12 0.570295 0.014130 0.613905
#
# Coordination Sequence:
#
# PCOD9300824 Si02
#       6
#     8   8   8   4   8   8
#     4  12  25  39  64 104 134 166 221 272 328 392
#     4  11  23  42  67  92 128 172 220 280 327 373
#     4   9  19  36  66  85 125 181 201 262 332 386
#     4  12  24  40  68 100 136 170 214 268 332 398
#     4   9  20  40  62  90 123 172 221 260 326 389
#     4  11  19  40  64  95 130 171 209 262 334 391
#
# _framework density 22.017247000000001
#
# number of rings (size 3 to 8) (size 9 to 14) (size 15 to 20)
#    0.000    1.455    2.727    3.273    2.545    0.000 
#    0.000    9.091    0.000    0.000    0.000    0.000 
#    0.000    0.000    0.000    0.000    0.000    0.000 
#
# Total GULP energy -122644.198246 kJ/mol
# GULP energy per Si atom -5574.736284 kJ/mol
# Density = 2.196714 g / cm^3
# Si number density = 22.017247 Si / 1000 Ang^3
#
#
#
# Elastic Constant Matrix: (Units=GPa)
#
#
# Indices 1 2 3 4 5 6 
#
# 1 146.9495 17.9734 5.6212 0.0000 -1.0220 0.0000
# 2 17.9734 93.7910 16.2894 0.0000 -7.4454 0.0000
# 3 5.6212 16.2894 99.8825 0.0000 -7.5333 0.0000
# 4 0.0000 0.0000 0.0000 6.1410 0.0000 4.4153
# 5 -1.0220 -7.4454 -7.5333 0.0000 30.1224 0.0000
# 6 0.0000 0.0000 0.0000 4.4153 0.0000 16.3801
#
#
#
# Elastic Compliance Matrix: (Units=1/GPa)
#
#
# Indices 1 2 3 4 5 6 
#
# 1 0.006972 -0.001314 -0.000188 0.000000 -0.000135 0.000000
# 2 -0.001314 0.011380 -0.001603 0.000000 0.002367 0.000000
# 3 -0.000188 -0.001603 0.010451 0.000000 0.002211 0.000000
# 4 0.000000 0.000000 0.000000 0.201987 0.000000 -0.054447
# 5 -0.000135 0.002367 0.002211 0.000000 0.034331 0.000000
# 6 0.000000 0.000000 0.000000 -0.054447 0.000000 0.075726
#
#
# Mechanical properties :
#
#
# Convention : Reuss Voigt Hill
#
# Bulk Modulus (GPa) = 44.26498 46.71010 45.48754
# Shear Modulus (GPa) = 14.10082 30.57797 22.33940
#
# Velocity S-wave (km/s) = 2.53345 3.73073 3.18878
# Velocity P-wave (km/s) = 5.35781 6.31024 5.85343
#
# Compressibility (1/GPa) = 0.02259122
#
# Stress axis : x y z
#
# Youngs Moduli (GPa) = 143.42987 87.87163 95.68821
#
# Poissons Ratio (x) = 0.11547 0.01801
# Poissons Ratio (y) = 0.18848 0.15343
# Poissons Ratio (z) = 0.02700 0.14090
#
# Static dielectric constant tensor:
#      x y z
#    x 1.920750 0.000000 0.034510 
#    y 0.000000 1.789860 0.000000 
#    z 0.034510 0.000000 1.818610 
# 
# From -- ./inp_files/47142.got.cif
#   From: 2010.05.17/outbox.cif.g08.bks.cpg/sg15_24_cif.got.tgz:47142.got - 2010.06.03 18:47:42.
