data_PCOD9300074
_publ_section_title
;
Structure prediction by ZEFSAII (Michael W. Deem and Ramdas Pophale) SiO2 
 PCOD9300074
Probable space group: C 2/C
;
_chemical_formula_sum "Si O2"
_cell_formula_units_Z 36
_cell_length_a 7.729295
_cell_length_b 24.168732
_cell_length_c 8.450947
_cell_angle_alpha 90.000000
_cell_angle_beta 110.194219
_cell_angle_gamma 90.000000
_cell_volume 1481.652285
_symmetry_space_group_name_H-M "C 2/C"
_symmetry_group_IT_number 15
_symmetry_cell_setting 'monoclinic'
loop_
_space_group_symop_operation_xyz
x,y,z
-x,y,1/2-z
-x,-y,-z
x,-y,1/2+z
1/2+x,1/2+y,z
1/2-x,1/2+y,1/2-z
1/2-x,1/2-y,-z
1/2+x,1/2-y,1/2+z
loop_
_atom_site_type_symbol
_atom_site_label
_atom_site_fract_x
_atom_site_fract_y
_atom_site_fract_z
Si Si1 0.259027 0.679752 0.408298
Si Si2 0.372595 0.437076 0.858949
Si Si3 0.266972 0.447177 0.357306
Si Si4 0.479111 0.125513 0.911145
Si Si5 0.500000 0.271050 0.250000
O O1 0.298131 0.624683 0.323614
O O2 0.088456 0.663051 0.469926
O O3 0.434654 0.694527 0.575343
O O4 0.181660 0.732165 0.288163
O O5 0.500000 0.451518 0.750000
O O6 0.232639 0.487426 0.840433
O O7 0.518551 0.438488 0.048855
O O8 0.187429 0.417073 0.178422
O O9 0.155965 0.414830 0.461899
O O10 0.500000 0.157929 0.750000
#
# Coordination Sequence:
#
# PCOD9300074 Si02
#       5
#     8   8   8   8   4
#     4  11  23  44  67  85 131 162 223 260 327 350
#     4  11  23  36  62  95 130 171 198 249 305 398
#     4   8  21  37  58  95 132 153 205 236 315 380
#     4   8  20  39  65  89 123 167 195 254 307 383
#     4  10  26  44  64  94 114 170 220 292 300 356
#
# _framework density 24.297198999999999
#
# number of rings (size 3 to 8) (size 9 to 14) (size 15 to 20)
#    1.333    0.889    0.000    1.333    9.333    2.667 
#    0.000    6.667    0.000    0.000    0.000    0.000 
#    0.000    0.000    0.000    0.000    0.000    0.000 
#
# Total GULP energy -100367.606410 kJ/mol
# GULP energy per Si atom -5575.978134 kJ/mol
# Density = 2.424190 g / cm^3
# Si number density = 24.297199 Si / 1000 Ang^3
#
#
#
# Elastic Constant Matrix: (Units=GPa)
#
#
# Indices 1 2 3 4 5 6 
#
# 1 79.2083 15.6236 20.1988 0.0000 -7.5506 0.0000
# 2 15.6236 114.7155 31.6118 0.0000 -3.0029 0.0000
# 3 20.1988 31.6118 84.7009 0.0000 12.7372 0.0000
# 4 0.0000 0.0000 0.0000 58.1221 0.0000 -10.4245
# 5 -7.5506 -3.0029 12.7372 0.0000 28.3161 0.0000
# 6 0.0000 0.0000 0.0000 -10.4245 0.0000 68.2022
#
#
#
# Elastic Compliance Matrix: (Units=1/GPa)
#
#
# Indices 1 2 3 4 5 6 
#
# 1 0.014306 -0.000707 -0.003979 0.000000 0.005530 0.000000
# 2 -0.000707 0.009972 -0.003951 0.000000 0.002646 0.000000
# 3 -0.003979 -0.003951 0.015501 0.000000 -0.008453 0.000000
# 4 0.000000 0.000000 0.000000 0.017690 0.000000 0.002704
# 5 0.005530 0.002646 -0.008453 0.000000 0.040873 0.000000
# 6 0.000000 0.000000 0.000000 0.002704 0.000000 0.015076
#
#
# Mechanical properties :
#
#
# Convention : Reuss Voigt Hill
#
# Bulk Modulus (GPa) = 44.43627 45.94367 45.18997
# Shear Modulus (GPa) = 36.18127 45.00746 40.59436
#
# Velocity S-wave (km/s) = 3.86309 4.30859 4.09191
# Velocity P-wave (km/s) = 6.18274 6.61075 6.40032
#
# Compressibility (1/GPa) = 0.02250414
#
# Stress axis : x y z
#
# Youngs Moduli (GPa) = 69.89925 100.28577 64.51272
#
# Poissons Ratio (x) = 0.07091 0.25672
# Poissons Ratio (y) = 0.04943 0.25488
# Poissons Ratio (z) = 0.27815 0.39621
#
# Static dielectric constant tensor:
#      x y z
#    x 1.907090 0.000000 0.011560 
#    y 0.000000 1.968900 0.000000 
#    z 0.011560 0.000000 2.040600 
# 
# From -- ./inp_files/77995.got.cif
#   From: 2010.05.17/outbox.cif.g08.bks.cpg/sg15_39_cif.got.tgz:77995.got - 2010.06.03 18:47:42.
