data_PCOD9300528
_publ_section_title
;
Structure prediction by ZEFSAII (Michael W. Deem and Ramdas Pophale) SiO2 
 PCOD9300528
Probable space group: C 2/C
;
_chemical_formula_sum "Si O2"
_cell_formula_units_Z 64
_cell_length_a 21.597959
_cell_length_b 22.730374
_cell_length_c 10.477124
_cell_angle_alpha 90.000000
_cell_angle_beta 60.981136
_cell_angle_gamma 90.000000
_cell_volume 4497.812500
_symmetry_space_group_name_H-M "C 2/C"
_symmetry_group_IT_number 15
_symmetry_cell_setting 'monoclinic'
loop_
_space_group_symop_operation_xyz
x,y,z
-x,y,1/2-z
-x,-y,-z
x,-y,1/2+z
1/2+x,1/2+y,z
1/2-x,1/2+y,1/2-z
1/2-x,1/2-y,-z
1/2+x,1/2-y,1/2+z
loop_
_atom_site_type_symbol
_atom_site_label
_atom_site_fract_x
_atom_site_fract_y
_atom_site_fract_z
Si Si1 0.418526 0.257104 0.985317
Si Si2 0.084140 0.563317 0.665861
Si Si3 0.780549 0.183223 0.322256
Si Si4 0.415653 0.922910 0.834346
Si Si5 0.857722 0.633280 0.649969
Si Si6 0.418526 0.742896 0.177631
Si Si7 0.780549 0.183223 0.616646
Si Si8 0.142278 0.633280 0.365415
O O1 0.500000 0.271216 0.930752
O O2 0.411143 0.247824 0.838857
O O3 0.361740 0.307599 0.076254
O O4 0.396014 0.196257 0.074226
O O5 0.093887 0.493283 0.656113
O O6 0.117704 0.592359 0.757659
O O7 0.117705 0.592360 0.506936
O O8 0.000000 0.575988 0.750000
O O9 0.861740 0.192401 0.200266
O O10 0.777659 0.162519 0.472340
O O11 0.750000 0.250000 0.352882
O O12 0.726275 0.145410 0.293889
O O13 0.500000 0.911383 0.750000
O O14 0.381354 0.895015 0.742876
O O15 0.381353 0.895014 0.994413
O O16 0.896014 0.696257 0.633747
O O17 0.773725 0.645410 0.746440
#
# Coordination Sequence:
#
# PCOD9300528 Si02
#       8
#     8   8   8   8   8   8   8   8
#     4   9  15  25  46  70  89 111 143 176 210 255
#     4  11  20  32  47  60  79 115 156 183 208 244
#     4   8  14  26  43  65  85 109 144 177 205 252
#     4  11  24  32  39  62  91 113 148 189 210 242
#     4  11  18  31  46  61  87 120 144 175 218 252
#     4   9  15  25  46  70  89 111 143 176 210 255
#     4   8  14  26  43  65  85 109 144 177 205 252
#     4  11  18  31  46  61  87 120 144 175 218 252
#
# _framework density 14.229139999999999
#
# number of rings (size 3 to 8) (size 9 to 14) (size 15 to 20)
#    0.000    2.250    2.500    4.500    0.000    2.000 
#    0.000    5.625    0.000    0.000    0.000    0.000 
#    0.000    6.000    0.000    0.000    0.000    0.000 
#
# Total GULP energy -178309.787211 kJ/mol
# GULP energy per Si atom -5572.180850 kJ/mol
# Density = 1.419675 g / cm^3
# Si number density = 14.229140 Si / 1000 Ang^3
#
#
#
# Elastic Constant Matrix: (Units=GPa)
#
#
# Indices 1 2 3 4 5 6 
#
# 1 124.0005 51.2714 60.4885 0.0000 -15.8802 0.0000
# 2 51.2714 54.6796 46.7680 0.0000 -2.7540 0.0000
# 3 60.4885 46.7680 98.1174 0.0000 0.0515 0.0000
# 4 0.0000 0.0000 0.0000 7.9485 0.0000 -7.7666
# 5 -15.8802 -2.7540 0.0515 0.0000 28.5158 0.0000
# 6 0.0000 0.0000 0.0000 -7.7666 0.0000 20.6519
#
#
#
# Elastic Compliance Matrix: (Units=1/GPa)
#
#
# Indices 1 2 3 4 5 6 
#
# 1 0.015565 -0.010124 -0.004774 0.000000 0.007699 0.000000
# 2 -0.010124 0.037721 -0.011738 0.000000 -0.001974 0.000000
# 3 -0.004774 -0.011738 0.018732 0.000000 -0.003826 0.000000
# 4 0.000000 0.000000 0.000000 0.198897 0.000000 0.074800
# 5 0.007699 -0.001974 -0.003826 0.000000 0.039172 0.000000
# 6 0.000000 0.000000 0.000000 0.074800 0.000000 0.076552
#
#
# Mechanical properties :
#
#
# Convention : Reuss Voigt Hill
#
# Bulk Modulus (GPa) = 53.34242 65.98370 59.66306
# Shear Modulus (GPa) = 11.20673 19.30789 15.25731
#
# Velocity S-wave (km/s) = 2.80945 3.68764 3.27809
# Velocity P-wave (km/s) = 6.93495 8.03769 7.50660
#
# Compressibility (1/GPa) = 0.01874681
#
# Stress axis : x y z
#
# Youngs Moduli (GPa) = 64.24471 26.51045 53.38449
#
# Poissons Ratio (x) = 0.26839 0.25488
# Poissons Ratio (y) = 0.65040 0.62660
# Poissons Ratio (z) = 0.30673 0.31117
#
# Static dielectric constant tensor:
#      x y z
#    x 1.497630 0.000000 -0.020900 
#    y 0.000000 1.445000 0.000000 
#    z -0.020900 0.000000 1.463460 
# 
# From -- ./inp_files/63706.got.cif
#   From: 2010.05.17/outbox.cif.g08.bks.cpg/sg15_32_cif.got.tgz:63706.got - 2010.06.03 18:47:42.
