data_PCOD9300818
_publ_section_title
;
Structure prediction by ZEFSAII (Michael W. Deem and Ramdas Pophale) SiO2 
 PCOD9300818
Probable space group: C 2/C
;
_chemical_formula_sum "Si O2"
_cell_formula_units_Z 36
_cell_length_a 17.208807
_cell_length_b 17.153225
_cell_length_c 5.647345
_cell_angle_alpha 90.000000
_cell_angle_beta 104.337473
_cell_angle_gamma 90.000000
_cell_volume 1615.099177
_symmetry_space_group_name_H-M "C 2/C"
_symmetry_group_IT_number 15
_symmetry_cell_setting 'monoclinic'
loop_
_space_group_symop_operation_xyz
x,y,z
-x,y,1/2-z
-x,-y,-z
x,-y,1/2+z
1/2+x,1/2+y,z
1/2-x,1/2+y,1/2-z
1/2-x,1/2-y,-z
1/2+x,1/2-y,1/2+z
loop_
_atom_site_type_symbol
_atom_site_label
_atom_site_fract_x
_atom_site_fract_y
_atom_site_fract_z
Si Si1 0.834304 0.660353 0.022655
Si Si2 0.500000 0.220219 0.250000
Si Si3 0.567763 0.359604 0.973252
Si Si4 0.785233 0.806832 0.718162
Si Si5 0.202474 0.954475 0.265629
O O1 0.789832 0.646212 0.238316
O O2 0.929559 0.662446 0.106985
O O3 0.820074 0.751364 0.948470
O O4 0.779273 0.604807 0.818835
O O5 0.465837 0.280211 0.427224
O O6 0.500000 0.394351 0.750000
O O7 0.640067 0.346395 0.844243
O O8 0.615372 0.411068 0.201207
O O9 0.750000 0.750000 0.500000
O O10 0.206234 0.998559 0.520999
#
# Coordination Sequence:
#
# PCOD9300818 Si02
#       5
#     8   4   8   8   8
#     4  11  23  41  69 103 139 179 242 291 362 416
#     4  12  24  40  74 116 132 166 230 332 370 400
#     4  12  25  41  72 109 146 174 235 298 370 417
#     4  11  19  39  70 101 136 182 221 303 366 414
#     4  12  29  49  70  96 147 211 241 269 334 447
#
# _framework density 22.289653999999999
#
# number of rings (size 3 to 8) (size 9 to 14) (size 15 to 20)
#    0.000    0.444    6.667    2.667    3.111    0.889 
#    0.000    1.111    0.000    0.000    0.000    0.000 
#    0.000    0.000    0.000    0.000    0.000    0.000 
#
# Total GULP energy -100294.189075 kJ/mol
# GULP energy per Si atom -5571.899393 kJ/mol
# Density = 2.223892 g / cm^3
# Si number density = 22.289654 Si / 1000 Ang^3
#
#
#
# Elastic Constant Matrix: (Units=GPa)
#
#
# Indices 1 2 3 4 5 6 
#
# 1 127.1053 42.8915 50.5733 0.0000 29.3743 0.0000
# 2 42.8915 72.0466 49.4218 0.0000 12.5318 0.0000
# 3 50.5733 49.4218 116.0694 0.0000 11.1933 0.0000
# 4 0.0000 0.0000 0.0000 61.4539 0.0000 5.1977
# 5 29.3743 12.5318 11.1933 0.0000 59.2475 0.0000
# 6 0.0000 0.0000 0.0000 5.1977 0.0000 30.2431
#
#
#
# Elastic Compliance Matrix: (Units=1/GPa)
#
#
# Indices 1 2 3 4 5 6 
#
# 1 0.011337 -0.004104 -0.002785 0.000000 -0.004227 0.000000
# 2 -0.004104 0.021499 -0.007256 0.000000 -0.001142 0.000000
# 3 -0.002785 -0.007256 0.012872 0.000000 0.000484 0.000000
# 4 0.000000 0.000000 0.000000 0.016512 0.000000 -0.002838
# 5 -0.004227 -0.001142 0.000484 0.000000 0.019124 0.000000
# 6 0.000000 0.000000 0.000000 -0.002838 0.000000 0.033553
#
#
# Mechanical properties :
#
#
# Convention : Reuss Voigt Hill
#
# Bulk Modulus (GPa) = 57.40913 66.77715 62.09314
# Shear Modulus (GPa) = 33.55860 41.67787 37.61824
#
# Velocity S-wave (km/s) = 3.88438 4.32884 4.11262
# Velocity P-wave (km/s) = 6.77714 7.41681 7.10418
#
# Compressibility (1/GPa) = 0.01741883
#
# Stress axis : x y z
#
# Youngs Moduli (GPa) = 88.20555 46.51369 77.68913
#
# Poissons Ratio (x) = 0.19089 0.21635
# Poissons Ratio (y) = 0.36199 0.56371
# Poissons Ratio (z) = 0.24563 0.33750
#
# Static dielectric constant tensor:
#      x y z
#    x 1.837090 0.000000 0.005040 
#    y 0.000000 1.956580 0.000000 
#    z 0.005040 0.000000 1.979670 
# 
# From -- ./inp_files/9944.got.cif
#   From: 2010.05.17/outbox.cif.g08.bks.cpg/sg15_5_cif.got.tgz:9944.got - 2010.06.03 18:47:42.
