data_PCOD9300013
_publ_section_title
;
Structure prediction by ZEFSAII (Michael W. Deem and Ramdas Pophale) SiO2 
 PCOD9300013
Probable space group: C 2/C
;
_chemical_formula_sum "Si O2"
_cell_formula_units_Z 28
_cell_length_a 7.768929
_cell_length_b 6.501924
_cell_length_c 23.498581
_cell_angle_alpha 90.000000
_cell_angle_beta 63.390817
_cell_angle_gamma 90.000000
_cell_volume 1061.261121
_symmetry_space_group_name_H-M "C 2/C"
_symmetry_group_IT_number 15
_symmetry_cell_setting 'monoclinic'
loop_
_space_group_symop_operation_xyz
x,y,z
-x,y,1/2-z
-x,-y,-z
x,-y,1/2+z
1/2+x,1/2+y,z
1/2-x,1/2+y,1/2-z
1/2-x,1/2-y,-z
1/2+x,1/2-y,1/2+z
loop_
_atom_site_type_symbol
_atom_site_label
_atom_site_fract_x
_atom_site_fract_y
_atom_site_fract_z
Si Si1 0.353894 0.267097 0.870998
Si Si2 0.284799 0.576269 0.041832
Si Si3 0.000000 0.467965 0.750000
Si Si4 0.993660 0.216125 0.650433
O O1 0.423720 0.123339 0.808984
O O2 0.477453 0.472641 0.855377
O O3 0.134235 0.301931 0.882418
O O4 0.337263 0.135266 0.931305
O O5 0.210466 0.697328 0.109308
O O6 0.500000 0.500000 0.000000
O O7 0.250000 0.750000 0.000000
O O8 0.100497 0.302326 0.777706
#
# Coordination Sequence:
#
# PCOD9300013 Si02
#       4
#     8   8   4   8
#     4  11  26  47  74 108 148 194 247 306 370 440
#     4  11  24  49  76 110 150 196 248 306 368 442
#     4  10  26  40  74 102 148 188 250 298 376 434
#     4  11  26  47  74 108 148 194 247 306 370 440
#
# _framework density 26.383706
#
# number of rings (size 3 to 8) (size 9 to 14) (size 15 to 20)
#    0.000    1.143    2.857    0.857    8.000    9.143 
#    0.000    0.000    0.000    0.000    0.000    0.000 
#    0.000    0.000    0.000    0.000    0.000    0.000 
#
# Total GULP energy -78028.316470 kJ/mol
# GULP energy per Si atom -5573.451176 kJ/mol
# Density = 2.632366 g / cm^3
# Si number density = 26.383706 Si / 1000 Ang^3
#
#
#
# Elastic Constant Matrix: (Units=GPa)
#
#
# Indices 1 2 3 4 5 6 
#
# 1 93.2032 50.8733 2.4694 0.0000 -2.0442 0.0000
# 2 50.8733 154.4346 42.9498 0.0000 -6.5017 0.0000
# 3 2.4694 42.9498 119.9689 0.0000 -9.4379 0.0000
# 4 0.0000 0.0000 0.0000 64.9694 0.0000 3.8984
# 5 -2.0442 -6.5017 -9.4379 0.0000 32.1356 0.0000
# 6 0.0000 0.0000 0.0000 3.8984 0.0000 32.1309
#
#
#
# Elastic Compliance Matrix: (Units=1/GPa)
#
#
# Indices 1 2 3 4 5 6 
#
# 1 0.013304 -0.004776 0.001460 0.000000 0.000309 0.000000
# 2 -0.004776 0.008922 -0.003048 0.000000 0.000606 0.000000
# 3 0.001460 -0.003048 0.009577 0.000000 0.002289 0.000000
# 4 0.000000 0.000000 0.000000 0.015505 0.000000 -0.001881
# 5 0.000309 0.000606 0.002289 0.000000 0.031933 0.000000
# 6 0.000000 0.000000 0.000000 -0.001881 0.000000 0.031351
#
#
# Mechanical properties :
#
#
# Convention : Reuss Voigt Hill
#
# Bulk Modulus (GPa) = 52.42363 62.24351 57.33357
# Shear Modulus (GPa) = 38.55759 43.93479 41.24619
#
# Velocity S-wave (km/s) = 3.82700 4.08514 3.95817
# Velocity P-wave (km/s) = 6.28018 6.77452 6.53203
#
# Compressibility (1/GPa) = 0.01907537
#
# Stress axis : x y z
#
# Youngs Moduli (GPa) = 75.16511 112.08736 104.42000
#
# Poissons Ratio (x) = 0.53529 -0.15247
# Poissons Ratio (y) = 0.35896 0.31827
# Poissons Ratio (z) = -0.10975 0.34165
#
# Static dielectric constant tensor:
#      x y z
#    x 2.336120 0.000000 -0.056630 
#    y 0.000000 2.103230 0.000000 
#    z -0.056630 0.000000 2.165160 
# 
# From -- ./inp_files/266814.got.cif
#   From: 2010.05.17/outbox.cif.g08.bks.cpg/sg15_134_cif.got.tgz:266814.got - 2010.06.03 18:47:42.
