data_PCOD9300081
_publ_section_title
;
Structure prediction by ZEFSAII (Michael W. Deem and Ramdas Pophale) SiO2 
 PCOD9300081
Probable space group: C 2/C
;
_chemical_formula_sum "Si O2"
_cell_formula_units_Z 48
_cell_length_a 4.843661
_cell_length_b 15.494072
_cell_length_c 25.921297
_cell_angle_alpha 90.000000
_cell_angle_beta 79.971214
_cell_angle_gamma 90.000000
_cell_volume 1915.618254
_symmetry_space_group_name_H-M "C 2/C"
_symmetry_group_IT_number 15
_symmetry_cell_setting 'monoclinic'
loop_
_space_group_symop_operation_xyz
x,y,z
-x,y,1/2-z
-x,-y,-z
x,-y,1/2+z
1/2+x,1/2+y,z
1/2-x,1/2+y,1/2-z
1/2-x,1/2-y,-z
1/2+x,1/2-y,1/2+z
loop_
_atom_site_type_symbol
_atom_site_label
_atom_site_fract_x
_atom_site_fract_y
_atom_site_fract_z
Si Si1 0.272311 0.193857 0.397927
Si Si2 0.934785 0.323160 0.467304
Si Si3 0.957112 0.576637 0.628370
Si Si4 0.416831 0.451392 0.194914
Si Si5 0.276991 0.092127 0.071485
Si Si6 0.302006 0.349003 0.713412
O O1 0.588169 0.165657 0.396825
O O2 0.223781 0.203303 0.338700
O O3 0.207802 0.271381 0.439266
O O4 0.052212 0.116166 0.421287
O O5 0.750000 0.250000 0.500000
O O6 0.928095 0.395578 0.511386
O O7 0.856264 0.365184 0.415329
O O8 0.643164 0.601082 0.654341
O O9 0.876789 0.493731 0.596116
O O10 0.120933 0.561299 0.676293
O O11 0.500000 0.426357 0.250000
O O12 0.436879 0.556968 0.194776
O O13 0.500000 0.307208 0.750000
O O14 0.000000 0.364039 0.750000
#
# Coordination Sequence:
#
# PCOD9300081 Si02
#       6
#     8   8   8   8   8   8
#     4  11  22  41  62  95 131 170 215 266 328 383
#     4  10  26  44  66  92 138 178 212 270 330 384
#     4  12  22  42  68 101 129 170 219 271 317 387
#     4  11  23  40  67 101 130 163 213 274 328 375
#     4  11  21  41  65  96 127 170 225 264 315 385
#     4  11  20  36  64  92 124 162 213 265 321 385
#
# _framework density 25.057183999999999
#
# number of rings (size 3 to 8) (size 9 to 14) (size 15 to 20)
#    0.000    1.000    3.333    4.500    0.000    5.333 
#    0.000    8.333    0.000    0.000    0.000    0.000 
#    0.000    0.000    0.000    0.000    0.000    0.000 
#
# Total GULP energy -133939.268935 kJ/mol
# GULP energy per Si atom -5580.802872 kJ/mol
# Density = 2.500015 g / cm^3
# Si number density = 25.057184 Si / 1000 Ang^3
#
#
#
# Elastic Constant Matrix: (Units=GPa)
#
#
# Indices 1 2 3 4 5 6 
#
# 1 99.2771 8.0566 42.6760 0.0000 2.8130 0.0000
# 2 8.0566 51.3813 26.5729 0.0000 -14.5467 0.0000
# 3 42.6760 26.5729 141.1644 0.0000 -7.3508 0.0000
# 4 0.0000 0.0000 0.0000 27.7580 0.0000 0.6209
# 5 2.8130 -14.5467 -7.3508 0.0000 39.7167 0.0000
# 6 0.0000 0.0000 0.0000 0.6209 0.0000 7.8633
#
#
#
# Elastic Compliance Matrix: (Units=1/GPa)
#
#
# Indices 1 2 3 4 5 6 
#
# 1 0.011674 -0.000475 -0.003526 0.000000 -0.001653 0.000000
# 2 -0.000475 0.023843 -0.003926 0.000000 0.008040 0.000000
# 3 -0.003526 -0.003926 0.008913 0.000000 0.000461 0.000000
# 4 0.000000 0.000000 0.000000 0.036089 0.000000 -0.002850
# 5 -0.001653 0.008040 0.000461 0.000000 0.028326 0.000000
# 6 0.000000 0.000000 0.000000 -0.002850 0.000000 0.127399
#
#
# Mechanical properties :
#
#
# Convention : Reuss Voigt Hill
#
# Bulk Modulus (GPa) = 34.99401 49.60376 42.29889
# Shear Modulus (GPa) = 19.11145 29.36875 24.24010
#
# Velocity S-wave (km/s) = 2.76472 3.42726 3.11367
# Velocity P-wave (km/s) = 4.91809 5.95825 5.46298
#
# Compressibility (1/GPa) = 0.02857632
#
# Stress axis : x y z
#
# Youngs Moduli (GPa) = 85.66143 41.94021 112.19675
#
# Poissons Ratio (x) = 0.01993 0.39559
# Poissons Ratio (y) = 0.04070 0.44049
# Poissons Ratio (z) = 0.30203 0.16466
#
# Static dielectric constant tensor:
#      x y z
#    x 1.942210 0.000000 0.003330 
#    y 0.000000 2.098020 0.000000 
#    z 0.003330 0.000000 1.999280 
# 
# From -- ./inp_files/260656.got.cif
#   From: 2010.05.17/outbox.cif.g08.bks.cpg/sg15_131_cif.got.tgz:260656.got - 2010.06.03 18:47:42.
