data_PCOD9300402
_publ_section_title
;
Structure prediction by ZEFSAII (Michael W. Deem and Ramdas Pophale) SiO2 
 PCOD9300402
Probable space group: C 2/C
;
_chemical_formula_sum "Si O2"
_cell_formula_units_Z 56
_cell_length_a 13.215862
_cell_length_b 26.034876
_cell_length_c 8.147120
_cell_angle_alpha 90.000000
_cell_angle_beta 65.787824
_cell_angle_gamma 90.000000
_cell_volume 2556.616962
_symmetry_space_group_name_H-M "C 2/C"
_symmetry_group_IT_number 15
_symmetry_cell_setting 'monoclinic'
loop_
_space_group_symop_operation_xyz
x,y,z
-x,y,1/2-z
-x,-y,-z
x,-y,1/2+z
1/2+x,1/2+y,z
1/2-x,1/2+y,1/2-z
1/2-x,1/2-y,-z
1/2+x,1/2-y,1/2+z
loop_
_atom_site_type_symbol
_atom_site_label
_atom_site_fract_x
_atom_site_fract_y
_atom_site_fract_z
Si Si1 0.755857 0.927068 0.949119
Si Si2 0.500000 0.395812 0.750000
Si Si3 0.288118 0.882608 0.842223
Si Si4 0.434213 0.667395 0.967665
Si Si5 0.500000 0.815220 0.750000
Si Si6 0.609282 0.974292 0.572642
Si Si7 0.603919 0.111700 0.805688
Si Si8 0.056903 0.727302 0.887587
O O1 0.719915 0.881746 0.848373
O O2 0.887706 0.929569 0.837339
O O3 0.717462 0.908735 0.152630
O O4 0.679595 0.976982 0.969134
O O5 0.492944 0.361581 0.585387
O O6 0.392682 0.850750 0.831833
O O7 0.307527 0.941546 0.871868
O O8 0.175790 0.864447 0.997897
O O9 0.500000 0.673215 0.750000
O O10 0.389241 0.720696 0.079496
O O11 0.479013 0.784096 0.597266
O O12 0.500000 0.987863 0.750000
O O13 0.574867 0.931712 0.460170
O O14 0.500000 0.110889 0.750000
O O15 0.618888 0.172628 0.829865
O O16 0.000000 0.737166 0.750000
#
# Coordination Sequence:
#
# PCOD9300402 Si02
#       8
#     8   4   8   8   4   8   8   8
#     4  11  25  45  69 101 135 193 232 286 352 411
#     4  10  26  52  70  97 149 180 250 294 326 422
#     4  11  24  45  66 101 140 178 230 290 353 416
#     4  11  25  47  73 100 137 191 236 286 351 417
#     4  12  22  44  66  97 149 172 220 296 342 416
#     4  12  23  43  70 104 142 180 228 291 359 424
#     4  11  23  40  69 105 144 178 231 293 354 421
#     4  11  22  42  70 104 137 183 232 283 352 414
#
# _framework density 21.903946999999999
#
# number of rings (size 3 to 8) (size 9 to 14) (size 15 to 20)
#    0.000    0.857    3.571    3.857    2.000    2.286 
#    5.143    4.286    0.000    0.000    0.000    0.000 
#    0.000    0.000    0.000    0.000    0.000    0.000 
#
# Total GULP energy -156005.783935 kJ/mol
# GULP energy per Si atom -5571.635141 kJ/mol
# Density = 2.185409 g / cm^3
# Si number density = 21.903947 Si / 1000 Ang^3
#
#
#
# Elastic Constant Matrix: (Units=GPa)
#
#
# Indices 1 2 3 4 5 6 
#
# 1 96.9537 38.7575 50.0988 0.0000 -11.5043 0.0000
# 2 38.7575 107.7286 42.8634 0.0000 -13.1390 0.0000
# 3 50.0988 42.8634 124.9288 0.0000 8.1750 0.0000
# 4 0.0000 0.0000 0.0000 33.2007 0.0000 -21.7334
# 5 -11.5043 -13.1390 8.1750 0.0000 31.1123 0.0000
# 6 0.0000 0.0000 0.0000 -21.7334 0.0000 -54.7490
#
#
#
# Elastic Compliance Matrix: (Units=1/GPa)
#
#
# Indices 1 2 3 4 5 6 
#
# 1 0.014826 -0.002426 -0.005499 0.000000 0.005903 0.000000
# 2 -0.002426 0.012202 -0.003553 0.000000 0.005190 0.000000
# 3 -0.005499 -0.003553 0.011864 0.000000 -0.006652 0.000000
# 4 0.000000 0.000000 0.000000 0.023907 0.000000 -0.009490
# 5 0.005903 0.005190 -0.006652 0.000000 0.038264 0.000000
# 6 0.000000 0.000000 0.000000 -0.009490 0.000000 -0.014498
#
#
# Mechanical properties :
#
#
# Convention : Reuss Voigt Hill
#
# Bulk Modulus (GPa) = 62.75438 65.89450 64.32444
# Shear Modulus (GPa) = 43.54074 15.10556 29.32315
#
# Velocity S-wave (km/s) = 4.46332 2.62892 3.66282
# Velocity P-wave (km/s) = 7.43462 6.27405 6.87885
#
# Compressibility (1/GPa) = 0.01593514
#
# Stress axis : x y z
#
# Youngs Moduli (GPa) = 67.44857 81.95293 84.28600
#
# Poissons Ratio (x) = 0.19881 0.46353
# Poissons Ratio (y) = 0.16363 0.29950
# Poissons Ratio (z) = 0.37093 0.29121
#
# Static dielectric constant tensor:
#      x y z
#    x 1.818200 0.000000 0.087620 
#    y 0.000000 1.852950 0.000000 
#    z 0.087620 0.000000 1.895860 
# 
# From -- ./inp_files/42585.got.cif
#   From: 2010.05.17/outbox.cif.g08.bks.cpg/sg15_22_cif.got.tgz:42585.got - 2010.06.03 18:47:42.
