data_PCOD9300938
_publ_section_title
;
Structure prediction by ZEFSAII (Michael W. Deem and Ramdas Pophale) SiO2 
 PCOD9300938
Probable space group: C 2/C
;
_chemical_formula_sum "Si O2"
_cell_formula_units_Z 48
_cell_length_a 20.455064
_cell_length_b 11.731714
_cell_length_c 9.176726
_cell_angle_alpha 90.000000
_cell_angle_beta 96.225888
_cell_angle_gamma 90.000000
_cell_volume 2189.177875
_symmetry_space_group_name_H-M "C 2/C"
_symmetry_group_IT_number 15
_symmetry_cell_setting 'monoclinic'
loop_
_space_group_symop_operation_xyz
x,y,z
-x,y,1/2-z
-x,-y,-z
x,-y,1/2+z
1/2+x,1/2+y,z
1/2-x,1/2+y,1/2-z
1/2-x,1/2-y,-z
1/2+x,1/2-y,1/2+z
loop_
_atom_site_type_symbol
_atom_site_label
_atom_site_fract_x
_atom_site_fract_y
_atom_site_fract_z
Si Si1 0.060014 0.059934 0.430592
Si Si2 0.872505 0.248564 0.225526
Si Si3 0.258919 0.583420 0.118290
Si Si4 0.634512 0.591619 0.739427
Si Si5 0.674084 0.006987 0.846915
Si Si6 0.670546 0.772728 0.966231
O O1 0.069262 0.178698 0.340854
O O2 0.115949 0.079064 0.567776
O O3 0.076272 0.966780 0.314144
O O4 0.000000 0.000000 0.500000
O O5 0.802895 0.195503 0.150858
O O6 0.871448 0.384309 0.197468
O O7 0.865715 0.225583 0.397810
O O8 0.304990 0.482569 0.188219
O O9 0.197325 0.563961 0.210982
O O10 0.235457 0.561760 0.949625
O O11 0.646406 0.713492 0.812914
O O12 0.653085 0.905736 0.949990
O O13 0.750000 0.750000 0.000000
#
# Coordination Sequence:
#
# PCOD9300938 Si02
#       6
#     8   8   8   8   8   8
#     4  11  25  44  67  90 121 163 231 300 349 377
#     4  11  23  38  58  90 129 181 225 273 327 397
#     4  11  20  34  55  88 132 175 216 256 316 408
#     4  11  22  39  63  94 126 171 221 273 335 404
#     4  12  22  34  56  88 139 182 216 250 324 399
#     4  12  22  37  58  94 146 183 216 259 320 420
#
# _framework density 21.926038999999999
#
# number of rings (size 3 to 8) (size 9 to 14) (size 15 to 20)
#    0.000    0.667    5.000    5.000    2.333    0.000 
#    0.000    0.000    0.000    1.000    0.000    4.667 
#    0.000    0.000    0.000    0.000    0.000    0.000 
#
# Total GULP energy -133775.640513 kJ/mol
# GULP energy per Si atom -5573.985021 kJ/mol
# Density = 2.187613 g / cm^3
# Si number density = 21.926039 Si / 1000 Ang^3
#
#
#
# Elastic Constant Matrix: (Units=GPa)
#
#
# Indices 1 2 3 4 5 6 
#
# 1 46.3110 26.6244 30.7795 0.0000 -10.1775 0.0000
# 2 26.6244 154.4094 19.4399 0.0000 -5.1030 0.0000
# 3 30.7795 19.4399 100.0523 0.0000 -4.7123 0.0000
# 4 0.0000 0.0000 0.0000 35.4651 0.0000 -4.4554
# 5 -10.1775 -5.1030 -4.7123 0.0000 41.5741 0.0000
# 6 0.0000 0.0000 0.0000 -4.4554 0.0000 11.3147
#
#
#
# Elastic Compliance Matrix: (Units=1/GPa)
#
#
# Indices 1 2 3 4 5 6 
#
# 1 0.030864 -0.004060 -0.008418 0.000000 0.006103 0.000000
# 2 -0.004060 0.007192 -0.000154 0.000000 -0.000129 0.000000
# 3 -0.008418 -0.000154 0.012584 0.000000 -0.000653 0.000000
# 4 0.000000 0.000000 0.000000 0.029664 0.000000 0.011681
# 5 0.006103 -0.000129 -0.000653 0.000000 0.025458 0.000000
# 6 0.000000 0.000000 0.000000 0.011681 0.000000 0.092981
#
#
# Mechanical properties :
#
#
# Convention : Reuss Voigt Hill
#
# Bulk Modulus (GPa) = 39.41166 50.49558 44.95362
# Shear Modulus (GPa) = 21.50864 32.59937 27.05401
#
# Velocity S-wave (km/s) = 3.13543 3.86007 3.51647
# Velocity P-wave (km/s) = 5.57869 6.55338 6.08558
#
# Compressibility (1/GPa) = 0.02537320
#
# Stress axis : x y z
#
# Youngs Moduli (GPa) = 32.40059 139.05206 79.46756
#
# Poissons Ratio (x) = 0.56458 0.66899
# Poissons Ratio (y) = 0.13155 0.01226
# Poissons Ratio (z) = 0.27276 0.02146
#
# Static dielectric constant tensor:
#      x y z
#    x 1.952660 0.000000 -0.045910 
#    y 0.000000 1.853480 0.000000 
#    z -0.045910 0.000000 1.881620 
# 
# From -- ./inp_files/60608.got.cif
#   From: 2010.05.17/outbox.cif.g08.bks.cpg/sg15_31_cif.got.tgz:60608.got - 2010.06.03 18:47:42.
