data_PCOD9300404
_publ_section_title
;
Structure prediction by ZEFSAII (Michael W. Deem and Ramdas Pophale) SiO2 
 PCOD9300404
Probable space group: C 2/C
;
_chemical_formula_sum "Si O2"
_cell_formula_units_Z 52
_cell_length_a 5.496293
_cell_length_b 19.812991
_cell_length_c 29.344356
_cell_angle_alpha 90.000000
_cell_angle_beta 50.037160
_cell_angle_gamma 90.000000
_cell_volume 2449.258702
_symmetry_space_group_name_H-M "C 2/C"
_symmetry_group_IT_number 15
_symmetry_cell_setting 'monoclinic'
loop_
_space_group_symop_operation_xyz
x,y,z
-x,y,1/2-z
-x,-y,-z
x,-y,1/2+z
1/2+x,1/2+y,z
1/2-x,1/2+y,1/2-z
1/2-x,1/2-y,-z
1/2+x,1/2-y,1/2+z
loop_
_atom_site_type_symbol
_atom_site_label
_atom_site_fract_x
_atom_site_fract_y
_atom_site_fract_z
Si Si1 0.715960 0.112223 0.358456
Si Si2 0.500000 0.287997 0.750000
Si Si3 0.746388 0.329527 0.991649
Si Si4 0.633629 0.539082 0.377887
Si Si5 0.346184 0.343929 0.221545
Si Si6 0.300042 0.563795 0.507435
Si Si7 0.360223 0.403554 0.400328
O O1 0.520982 0.148491 0.423109
O O2 0.455445 0.070094 0.360233
O O3 0.865845 0.167073 0.306704
O O4 0.003954 0.069321 0.346061
O O5 0.230468 0.235674 0.765485
O O6 0.750000 0.250000 0.000000
O O7 0.434944 0.364009 0.006774
O O8 0.737513 0.363354 0.042668
O O9 0.353997 0.558590 0.447276
O O10 0.636186 0.457900 0.375533
O O11 0.500000 0.368468 0.250000
O O12 0.563439 0.358041 0.151880
O O13 0.000000 0.374055 0.250000
O O14 0.500000 0.500000 0.500000
O O15 0.956185 0.553544 0.569534
#
# Coordination Sequence:
#
# PCOD9300404 Si02
#       7
#     8   4   8   8   8   8   8
#     4  11  25  44  70 100 140 185 233 287 353 433
#     4  10  26  52  72  94 148 192 236 294 368 422
#     4  11  24  40  67 111 139 179 238 291 356 429
#     4  11  24  42  69 105 137 182 232 291 362 421
#     4  10  27  46  72  98 135 191 239 288 363 425
#     4  11  22  41  72 101 150 188 227 293 379 425
#     4  12  23  44  74  99 145 181 238 304 358 428
#
# _framework density 21.230913000000001
#
# number of rings (size 3 to 8) (size 9 to 14) (size 15 to 20)
#    0.462    0.615    3.077    3.231    4.308    0.615 
#    4.154    0.000    0.000    0.000    0.000    0.000 
#    0.000    0.000    0.000    0.000    0.000    0.000 
#
# Total GULP energy -145057.428263 kJ/mol
# GULP energy per Si atom -5579.131856 kJ/mol
# Density = 2.118259 g / cm^3
# Si number density = 21.230913 Si / 1000 Ang^3
#
#
#
# Elastic Constant Matrix: (Units=GPa)
#
#
# Indices 1 2 3 4 5 6 
#
# 1 107.7237 55.0019 55.0286 0.0000 15.7278 0.0000
# 2 55.0019 118.8894 29.0350 0.0000 4.7586 0.0000
# 3 55.0286 29.0350 125.4234 0.0000 13.5011 0.0000
# 4 0.0000 0.0000 0.0000 33.5738 0.0000 10.2355
# 5 15.7278 4.7586 13.5011 0.0000 18.2351 0.0000
# 6 0.0000 0.0000 0.0000 10.2355 0.0000 22.7823
#
#
#
# Elastic Compliance Matrix: (Units=1/GPa)
#
#
# Indices 1 2 3 4 5 6 
#
# 1 0.015970 -0.005890 -0.004701 0.000000 -0.008757 0.000000
# 2 -0.005890 0.011100 -0.000240 0.000000 0.002361 0.000000
# 3 -0.004701 -0.000240 0.010483 0.000000 -0.003645 0.000000
# 4 0.000000 0.000000 0.000000 0.034512 0.000000 -0.015506
# 5 -0.008757 0.002361 -0.003645 0.000000 0.064475 0.000000
# 6 0.000000 0.000000 0.000000 -0.015506 0.000000 0.050860
#
#
# Mechanical properties :
#
#
# Convention : Reuss Voigt Hill
#
# Bulk Modulus (GPa) = 62.92027 70.01861 66.46944
# Shear Modulus (GPa) = 23.32549 29.11631 26.22090
#
# Velocity S-wave (km/s) = 3.31820 3.70727 3.51812
# Velocity P-wave (km/s) = 6.66191 7.16773 6.91944
#
# Compressibility (1/GPa) = 0.01589313
#
# Stress axis : x y z
#
# Youngs Moduli (GPa) = 62.61762 90.09029 95.39097
#
# Poissons Ratio (x) = 0.53061 0.44840
# Poissons Ratio (y) = 0.36880 0.02286
# Poissons Ratio (z) = 0.29434 0.02159
#
# Static dielectric constant tensor:
#      x y z
#    x 1.905110 0.000000 0.004970 
#    y 0.000000 1.791520 0.000000 
#    z 0.004970 0.000000 1.736930 
# 
# From -- ./inp_files/305596.got.cif
#   From: 2010.05.17/outbox.cif.g08.bks.cpg/sg15_153_cif.got.tgz:305596.got - 2010.06.03 18:47:42.
