data_PCOD9300300
_publ_section_title
;
Structure prediction by ZEFSAII (Michael W. Deem and Ramdas Pophale) SiO2 
 PCOD9300300
Probable space group: C 2/C
;
_chemical_formula_sum "Si O2"
_cell_formula_units_Z 28
_cell_length_a 17.787245
_cell_length_b 8.896343
_cell_length_c 9.928954
_cell_angle_alpha 90.000000
_cell_angle_beta 132.181828
_cell_angle_gamma 90.000000
_cell_volume 1164.266038
_symmetry_space_group_name_H-M "C 2/C"
_symmetry_group_IT_number 15
_symmetry_cell_setting 'monoclinic'
loop_
_space_group_symop_operation_xyz
x,y,z
-x,y,1/2-z
-x,-y,-z
x,-y,1/2+z
1/2+x,1/2+y,z
1/2-x,1/2+y,1/2-z
1/2-x,1/2-y,-z
1/2+x,1/2-y,1/2+z
loop_
_atom_site_type_symbol
_atom_site_label
_atom_site_fract_x
_atom_site_fract_y
_atom_site_fract_z
Si Si1 0.790108 0.910049 0.094951
Si Si2 0.172324 0.544013 0.720150
Si Si3 0.000000 0.014663 0.250000
Si Si4 0.981112 0.304677 0.076868
O O1 0.753760 0.934953 0.202029
O O2 0.908025 0.923509 0.201952
O O3 0.750000 0.750000 0.000000
O O4 0.729871 0.029529 0.929861
O O5 0.087104 0.673710 0.626194
O O6 0.106206 0.395059 0.604267
O O7 0.038669 0.132307 0.410558
O O8 0.000000 0.375830 0.250000
#
# Coordination Sequence:
#
# PCOD9300300 Si02
#       4
#     8   8   4   8
#     4  12  29  44  73 107 148 193 253 305 369 430
#     4  11  24  47  70 112 148 189 238 315 364 436
#     4  10  26  48  74 102 144 204 244 298 372 452
#     4   9  21  43  77 102 139 194 243 286 376 438
#
# _framework density 24.049486999999999
#
# number of rings (size 3 to 8) (size 9 to 14) (size 15 to 20)
#    0.857    0.571    2.857    0.000    8.000    8.000 
#    0.000    0.000    0.000    0.000    0.000    0.000 
#    0.000    0.000    0.000    0.000    0.000    0.000 
#
# Total GULP energy -78370.187628 kJ/mol
# GULP energy per Si atom -5597.870545 kJ/mol
# Density = 2.399475 g / cm^3
# Si number density = 24.049487 Si / 1000 Ang^3
#
#
#
# Elastic Constant Matrix: (Units=GPa)
#
#
# Indices 1 2 3 4 5 6 
#
# 1 229.5942 42.1957 39.6113 0.0000 14.0311 0.0000
# 2 42.1957 55.9976 -12.6630 0.0000 5.3755 0.0000
# 3 39.6113 -12.6630 80.5903 0.0000 -2.3810 0.0000
# 4 0.0000 0.0000 0.0000 16.9872 0.0000 -1.8165
# 5 14.0311 5.3755 -2.3810 0.0000 39.7189 0.0000
# 6 0.0000 0.0000 0.0000 -1.8165 0.0000 29.2037
#
#
#
# Elastic Compliance Matrix: (Units=1/GPa)
#
#
# Indices 1 2 3 4 5 6 
#
# 1 0.006106 -0.005319 -0.003886 0.000000 -0.001670 0.000000
# 2 -0.005319 0.023369 0.006260 0.000000 -0.000908 0.000000
# 3 -0.003886 0.006260 0.015345 0.000000 0.001446 0.000000
# 4 0.000000 0.000000 0.000000 0.059262 0.000000 0.003686
# 5 -0.001670 -0.000908 0.001446 0.000000 0.025976 0.000000
# 6 0.000000 0.000000 0.000000 0.003686 0.000000 0.034472
#
#
# Mechanical properties :
#
#
# Convention : Reuss Voigt Hill
#
# Bulk Modulus (GPa) = 25.68880 56.05226 40.87053
# Shear Modulus (GPa) = 27.26330 36.98450 32.12390
#
# Velocity S-wave (km/s) = 3.37060 3.92580 3.65874
# Velocity P-wave (km/s) = 5.08456 6.62622 5.90591
#
# Compressibility (1/GPa) = 0.03892746
#
# Stress axis : x y z
#
# Youngs Moduli (GPa) = 163.78365 42.79217 65.16876
#
# Poissons Ratio (x) = 0.22762 0.25325
# Poissons Ratio (y) = 0.87120 -0.40792
# Poissons Ratio (z) = 0.63648 -0.26786
#
# Static dielectric constant tensor:
#      x y z
#    x 1.871830 0.000000 -0.019330 
#    y 0.000000 1.936760 0.000000 
#    z -0.019330 0.000000 1.977030 
# 
# From -- ./inp_files/36921.got.cif
#   From: 2010.05.17/outbox.cif.g08.bks.cpg/sg15_19_cif.got.tgz:36921.got - 2010.06.03 18:47:42.
