data_PCOD9300227
_publ_section_title
;
Structure prediction by ZEFSAII (Michael W. Deem and Ramdas Pophale) SiO2 
 PCOD9300227
Probable space group: C 2/C
;
_chemical_formula_sum "Si O2"
_cell_formula_units_Z 28
_cell_length_a 11.500221
_cell_length_b 8.716894
_cell_length_c 12.655830
_cell_angle_alpha 90.000000
_cell_angle_beta 128.224843
_cell_angle_gamma 90.000000
_cell_volume 996.675544
_symmetry_space_group_name_H-M "C 2/C"
_symmetry_group_IT_number 15
_symmetry_cell_setting 'monoclinic'
loop_
_space_group_symop_operation_xyz
x,y,z
-x,y,1/2-z
-x,-y,-z
x,-y,1/2+z
1/2+x,1/2+y,z
1/2-x,1/2+y,1/2-z
1/2-x,1/2-y,-z
1/2+x,1/2-y,1/2+z
loop_
_atom_site_type_symbol
_atom_site_label
_atom_site_fract_x
_atom_site_fract_y
_atom_site_fract_z
Si Si1 0.000000 0.116659 0.750000
Si Si2 0.861148 0.880679 0.836701
Si Si3 0.145131 0.417617 0.892199
Si Si4 0.147894 0.682715 0.036556
O O1 0.885860 0.235681 0.631570
O O2 0.929827 0.007279 0.797906
O O3 0.729319 0.803624 0.694255
O O4 0.784694 0.951773 0.896512
O O5 0.990332 0.763868 0.940033
O O6 0.000000 0.484615 0.750000
O O7 0.142498 0.503164 0.001503
O O8 0.250000 0.750000 0.000000
#
# Coordination Sequence:
#
# PCOD9300227 Si02
#       4
#     4   8   8   8
#     4  10  26  46  74 118 154 198 260 318 390 452
#     4  12  27  53  79 113 161 206 256 329 383 466
#     4  10  28  48  75 118 155 200 261 317 392 463
#     4  12  26  51  82 113 157 209 260 315 398 464
#
# _framework density 28.093398000000001
#
# number of rings (size 3 to 8) (size 9 to 14) (size 15 to 20)
#    0.857    0.000    2.857    1.714    8.000    5.714 
#    0.000    2.857    0.000    0.000    0.000    0.000 
#    0.000    0.000    0.000    0.000    0.000    0.000 
#
# Total GULP energy -78741.651695 kJ/mol
# GULP energy per Si atom -5624.403692 kJ/mol
# Density = 2.802946 g / cm^3
# Si number density = 28.093398 Si / 1000 Ang^3
#
#
#
# Elastic Constant Matrix: (Units=GPa)
#
#
# Indices 1 2 3 4 5 6 
#
# 1 209.6391 85.0789 60.5510 0.0000 -2.4374 0.0000
# 2 85.0789 173.2051 62.3159 0.0000 13.7329 0.0000
# 3 60.5510 62.3159 213.4840 0.0000 29.7808 0.0000
# 4 0.0000 0.0000 0.0000 49.0067 0.0000 -8.2060
# 5 -2.4374 13.7329 29.7808 0.0000 43.2156 0.0000
# 6 0.0000 0.0000 0.0000 -8.2060 0.0000 53.2654
#
#
#
# Elastic Compliance Matrix: (Units=1/GPa)
#
#
# Indices 1 2 3 4 5 6 
#
# 1 0.006299 -0.002808 -0.001262 0.000000 0.002117 0.000000
# 2 -0.002808 0.007730 -0.001212 0.000000 -0.001780 0.000000
# 3 -0.001262 -0.001212 0.005921 0.000000 -0.003767 0.000000
# 4 0.000000 0.000000 0.000000 0.020946 0.000000 0.003227
# 5 0.002117 -0.001780 -0.003767 0.000000 0.026420 0.000000
# 6 0.000000 0.000000 0.000000 0.003227 0.000000 0.019271
#
#
# Mechanical properties :
#
#
# Convention : Reuss Voigt Hill
#
# Bulk Modulus (GPa) = 106.53701 112.46888 109.50294
# Shear Modulus (GPa) = 49.86073 54.98970 52.42521
#
# Velocity S-wave (km/s) = 4.21743 4.42904 4.32453
# Velocity P-wave (km/s) = 7.85623 8.14101 7.99989
#
# Compressibility (1/GPa) = 0.00938641
#
# Stress axis : x y z
#
# Youngs Moduli (GPa) = 158.76055 129.37119 168.87974
#
# Poissons Ratio (x) = 0.36324 0.21319
# Poissons Ratio (y) = 0.44575 0.20463
# Poissons Ratio (z) = 0.20041 0.15676
#
# Static dielectric constant tensor:
#      x y z
#    x 2.083290 0.000000 0.105320 
#    y 0.000000 2.208990 0.000000 
#    z 0.105320 0.000000 2.261470 
# 
# From -- ./inp_files/140855.got.cif
#   From: 2010.05.17/outbox.cif.g08.bks.cpg/sg15_71_cif.got.tgz:140855.got - 2010.06.03 18:47:42.
