data_PCOD9300201
_publ_section_title
;
Structure prediction by ZEFSAII (Michael W. Deem and Ramdas Pophale) SiO2 
 PCOD9300201
Probable space group: C 2/C
;
_chemical_formula_sum "Si O2"
_cell_formula_units_Z 40
_cell_length_a 24.085795
_cell_length_b 17.080088
_cell_length_c 9.372759
_cell_angle_alpha 90.000000
_cell_angle_beta 27.311955
_cell_angle_gamma 90.000000
_cell_volume 1769.192293
_symmetry_space_group_name_H-M "C 2/C"
_symmetry_group_IT_number 15
_symmetry_cell_setting 'monoclinic'
loop_
_space_group_symop_operation_xyz
x,y,z
-x,y,1/2-z
-x,-y,-z
x,-y,1/2+z
1/2+x,1/2+y,z
1/2-x,1/2+y,1/2-z
1/2-x,1/2-y,-z
1/2+x,1/2-y,1/2+z
loop_
_atom_site_type_symbol
_atom_site_label
_atom_site_fract_x
_atom_site_fract_y
_atom_site_fract_z
Si Si1 0.006003 0.845139 0.397989
Si Si2 0.136348 0.307042 0.280755
Si Si3 0.006484 0.580364 0.571012
Si Si4 0.226038 0.913562 0.054283
Si Si5 0.206481 0.924204 0.429375
O O1 0.134064 0.858320 0.180117
O O2 0.000000 0.878429 0.250000
O O3 0.972284 0.754100 0.459659
O O4 0.906794 0.886546 0.726571
O O5 0.178242 0.367001 0.307651
O O6 0.101858 0.363136 0.228517
O O7 0.250000 0.250000 0.000000
O O8 0.000000 0.561272 0.750000
O O9 0.000000 0.500000 0.500000
O O10 0.137809 0.617916 0.245791
O O11 0.183707 0.930814 0.312860
O O12 0.230294 0.993322 0.951706
#
# Coordination Sequence:
#
# PCOD9300201 Si02
#       5
#     8   8   8   8   8
#     4  11  26  45  73 105 147 187 233 294 358 418
#     4  10  26  46  70  99 153 183 228 290 362 412
#     4  12  27  45  74 106 141 186 243 294 349 420
#     4  12  25  43  78 104 140 186 244 290 352 417
#     4  11  24  46  72 107 144 185 235 296 352 424
#
# _framework density 22.609189000000001
#
# number of rings (size 3 to 8) (size 9 to 14) (size 15 to 20)
#    0.000    0.800    2.000    3.600    8.400    4.000 
#    0.000    0.000    0.000    0.000    0.000    0.000 
#    0.000    0.000    0.000    0.000    0.000    0.000 
#
# Total GULP energy -111851.636633 kJ/mol
# GULP energy per Si atom -5592.581832 kJ/mol
# Density = 2.255773 g / cm^3
# Si number density = 22.609189 Si / 1000 Ang^3
#
#
#
# Elastic Constant Matrix: (Units=GPa)
#
#
# Indices 1 2 3 4 5 6 
#
# 1 205.9647 66.4587 70.3016 0.0000 12.9287 0.0000
# 2 66.4587 116.0618 29.2181 0.0000 -12.9680 0.0000
# 3 70.3016 29.2181 89.2719 0.0000 6.9047 0.0000
# 4 0.0000 0.0000 0.0000 25.3509 0.0000 -15.5497
# 5 12.9287 -12.9680 6.9047 0.0000 60.3048 0.0000
# 6 0.0000 0.0000 0.0000 -15.5497 0.0000 35.7260
#
#
#
# Elastic Compliance Matrix: (Units=1/GPa)
#
#
# Indices 1 2 3 4 5 6 
#
# 1 0.007715 -0.003410 -0.004818 0.000000 -0.001836 0.000000
# 2 -0.003410 0.011252 -0.001252 0.000000 0.003294 0.000000
# 3 -0.004818 -0.001252 0.015483 0.000000 -0.001009 0.000000
# 4 0.000000 0.000000 0.000000 0.053813 0.000000 0.023422
# 5 -0.001836 0.003294 -0.001009 0.000000 0.017800 0.000000
# 6 0.000000 0.000000 0.000000 0.023422 0.000000 0.038185
#
#
# Mechanical properties :
#
#
# Convention : Reuss Voigt Hill
#
# Bulk Modulus (GPa) = 64.55303 82.58391 73.56847
# Shear Modulus (GPa) = 29.69620 40.63101 35.16361
#
# Velocity S-wave (km/s) = 3.62810 4.24382 3.94798
# Velocity P-wave (km/s) = 6.79444 7.78584 7.30698
#
# Compressibility (1/GPa) = 0.01549114
#
# Stress axis : x y z
#
# Youngs Moduli (GPa) = 129.61501 88.87280 64.58524
#
# Poissons Ratio (x) = 0.30307 0.31114
# Poissons Ratio (y) = 0.44200 0.08086
# Poissons Ratio (z) = 0.62443 0.11127
#
# Static dielectric constant tensor:
#      x y z
#    x 1.820570 0.000000 -0.030440 
#    y 0.000000 1.831240 0.000000 
#    z -0.030440 0.000000 1.911030 
# 
# From -- ./inp_files/62850.got.cif
#   From: 2010.05.17/outbox.cif.g08.bks.cpg/sg15_32_cif.got.tgz:62850.got - 2010.06.03 18:47:42.
