data_PCOD9300555
_publ_section_title
;
Structure prediction by ZEFSAII (Michael W. Deem and Ramdas Pophale) SiO2 
 PCOD9300555
Probable space group: C 2/C
;
_chemical_formula_sum "Si O2"
_cell_formula_units_Z 64
_cell_length_a 31.961129
_cell_length_b 13.040053
_cell_length_c 9.593766
_cell_angle_alpha 90.000000
_cell_angle_beta 92.451104
_cell_angle_gamma 90.000000
_cell_volume 3994.781817
_symmetry_space_group_name_H-M "C 2/C"
_symmetry_group_IT_number 15
_symmetry_cell_setting 'monoclinic'
loop_
_space_group_symop_operation_xyz
x,y,z
-x,y,1/2-z
-x,-y,-z
x,-y,1/2+z
1/2+x,1/2+y,z
1/2-x,1/2+y,1/2-z
1/2-x,1/2-y,-z
1/2+x,1/2-y,1/2+z
loop_
_atom_site_type_symbol
_atom_site_label
_atom_site_fract_x
_atom_site_fract_y
_atom_site_fract_z
Si Si1 0.768226 0.891910 0.372919
Si Si2 0.189432 0.685865 0.215080
Si Si3 0.275464 0.591054 0.204264
Si Si4 0.367744 0.907341 0.017225
Si Si5 0.634181 0.848771 0.964836
Si Si6 0.679840 0.199557 0.754975
Si Si7 0.546668 0.909137 0.611993
Si Si8 0.956432 0.381588 0.559399
O O1 0.796920 0.791506 0.355723
O O2 0.767259 0.918602 0.536903
O O3 0.722185 0.859952 0.309107
O O4 0.784906 0.985035 0.281753
O O5 0.232626 0.633327 0.268505
O O6 0.156645 0.699125 0.334362
O O7 0.168280 0.611334 0.100654
O O8 0.309423 0.680580 0.228788
O O9 0.356257 0.840193 0.148169
O O10 0.368545 0.027547 0.054550
O O11 0.410707 0.871467 0.951621
O O12 0.585451 0.816882 0.978652
O O13 0.663876 0.826087 0.099292
O O14 0.504868 0.845564 0.566133
O O15 0.549668 0.915218 0.779498
O O16 0.542944 0.023419 0.547803
#
# Coordination Sequence:
#
# PCOD9300555 Si02
#       8
#     8   8   8   8   8   8   8   8
#     4  11  23  38  54  71 101 133 166 213 255 294
#     4  11  21  36  52  73 102 130 175 206 246 296
#     4  11  23  38  54  72 100 132 167 212 256 292
#     4  11  18  34  50  74  99 143 166 205 245 292
#     4  11  22  30  52  77 101 136 171 207 240 297
#     4  11  23  36  51  74 103 130 174 210 245 296
#     4   9  18  29  47  65 100 135 168 199 247 293
#     4   9  18  31  42  70  99 134 167 203 241 296
#
# _framework density 16.020900999999999
#
# number of rings (size 3 to 8) (size 9 to 14) (size 15 to 20)
#    0.000    1.500    3.750    3.000    8.750    1.000 
#    0.000    0.000    0.000    0.000    0.000    0.000 
#    0.000    6.000    0.000    0.000    0.000    0.000 
#
# Total GULP energy -178351.855846 kJ/mol
# GULP energy per Si atom -5573.495495 kJ/mol
# Density = 1.598444 g / cm^3
# Si number density = 16.020901 Si / 1000 Ang^3
#
#
#
# Elastic Constant Matrix: (Units=GPa)
#
#
# Indices 1 2 3 4 5 6 
#
# 1 76.7145 19.1901 25.1433 0.0000 -2.9303 0.0000
# 2 19.1901 43.3844 6.0195 0.0000 0.4199 0.0000
# 3 25.1433 6.0195 58.0945 0.0000 -2.9540 0.0000
# 4 0.0000 0.0000 0.0000 15.1843 0.0000 -1.2326
# 5 -2.9303 0.4199 -2.9540 0.0000 25.2728 0.0000
# 6 0.0000 0.0000 0.0000 -1.2326 0.0000 12.4466
#
#
#
# Elastic Compliance Matrix: (Units=1/GPa)
#
#
# Indices 1 2 3 4 5 6 
#
# 1 0.016877 -0.006568 -0.006558 0.000000 0.001300 0.000000
# 2 -0.006568 0.025953 0.000093 0.000000 -0.001182 0.000000
# 3 -0.006558 0.000093 0.020123 0.000000 0.001590 0.000000
# 4 0.000000 0.000000 0.000000 0.066391 0.000000 0.006575
# 5 0.001300 -0.001182 0.001590 0.000000 0.039924 0.000000
# 6 0.000000 0.000000 0.000000 0.006575 0.000000 0.080994
#
#
# Mechanical properties :
#
#
# Convention : Reuss Voigt Hill
#
# Bulk Modulus (GPa) = 27.10873 30.98881 29.04877
# Shear Modulus (GPa) = 17.32352 19.10344 18.21348
#
# Velocity S-wave (km/s) = 3.29189 3.45687 3.37539
# Velocity P-wave (km/s) = 5.60413 5.94290 5.77600
#
# Compressibility (1/GPa) = 0.03688848
#
# Stress axis : x y z
#
# Youngs Moduli (GPa) = 59.25114 38.53052 49.69500
#
# Poissons Ratio (x) = 0.25307 0.32589
# Poissons Ratio (y) = 0.38916 -0.00464
# Poissons Ratio (z) = 0.38856 -0.00360
#
# Static dielectric constant tensor:
#      x y z
#    x 1.581890 0.000000 0.007520 
#    y 0.000000 1.510900 0.000000 
#    z 0.007520 0.000000 1.564670 
# 
# From -- ./inp_files/69394.got.cif
#   From: 2010.05.17/outbox.cif.g08.bks.cpg/sg15_35_cif.got.tgz:69394.got - 2010.06.03 18:47:42.
