data_PCOD9300198
_publ_section_title
;
Structure prediction by ZEFSAII (Michael W. Deem and Ramdas Pophale) SiO2 
 PCOD9300198
Probable space group: C 2/C
;
_chemical_formula_sum "Si O2"
_cell_formula_units_Z 28
_cell_length_a 8.433599
_cell_length_b 18.860304
_cell_length_c 11.331835
_cell_angle_alpha 90.000000
_cell_angle_beta 42.543805
_cell_angle_gamma 90.000000
_cell_volume 1218.729434
_symmetry_space_group_name_H-M "C 2/C"
_symmetry_group_IT_number 15
_symmetry_cell_setting 'monoclinic'
loop_
_space_group_symop_operation_xyz
x,y,z
-x,y,1/2-z
-x,-y,-z
x,-y,1/2+z
1/2+x,1/2+y,z
1/2-x,1/2+y,1/2-z
1/2-x,1/2-y,-z
1/2+x,1/2-y,1/2+z
loop_
_atom_site_type_symbol
_atom_site_label
_atom_site_fract_x
_atom_site_fract_y
_atom_site_fract_z
Si Si1 0.890654 0.323894 0.433698
Si Si2 0.751438 0.822713 0.430155
Si Si3 0.749021 0.960561 0.837868
Si Si4 0.000000 0.574639 0.250000
O O1 0.750000 0.250000 0.500000
O O2 0.767542 0.386204 0.577835
O O3 0.000000 0.349782 0.250000
O O4 0.113608 0.305430 0.388274
O O5 0.750000 0.750000 0.500000
O O6 0.627469 0.878516 0.581915
O O7 0.000000 0.847854 0.250000
O O8 0.713750 0.957710 0.713772
O O9 0.000000 0.989695 0.750000
O O10 0.500000 0.000000 0.000000
#
# Coordination Sequence:
#
# PCOD9300198 Si02
#       4
#     8   8   8   4
#     4  11  25  43  72 111 148 193 251 319 386 457
#     4  11  22  38  68 105 150 194 240 311 391 451
#     4  11  28  50  78 109 150 208 261 318 387 467
#     4  10  26  46  70 108 152 196 256 320 376 470
#
# _framework density 22.974744999999999
#
# number of rings (size 3 to 8) (size 9 to 14) (size 15 to 20)
#    0.000    1.143    1.429    2.571   14.000    5.714 
#    0.000    0.000    0.000    0.000    0.000    0.000 
#    0.000    0.000    0.000    0.000    0.000    0.000 
#
# Total GULP energy -77979.698385 kJ/mol
# GULP energy per Si atom -5569.978456 kJ/mol
# Density = 2.292245 g / cm^3
# Si number density = 22.974745 Si / 1000 Ang^3
#
#
#
# Elastic Constant Matrix: (Units=GPa)
#
#
# Indices 1 2 3 4 5 6 
#
# 1 244.6097 34.8725 59.5254 0.0000 -2.7387 0.0000
# 2 34.8725 92.8364 19.7972 0.0000 -11.7868 0.0000
# 3 59.5254 19.7972 93.4927 0.0000 -10.2882 0.0000
# 4 0.0000 0.0000 0.0000 13.5707 0.0000 1.0881
# 5 -2.7387 -11.7868 -10.2882 0.0000 57.4625 0.0000
# 6 0.0000 0.0000 0.0000 1.0881 0.0000 30.8839
#
#
#
# Elastic Compliance Matrix: (Units=1/GPa)
#
#
# Indices 1 2 3 4 5 6 
#
# 1 0.004990 -0.001314 -0.002960 0.000000 -0.000562 0.000000
# 2 -0.001314 0.011840 -0.001438 0.000000 0.002108 0.000000
# 3 -0.002960 -0.001438 0.013095 0.000000 0.001909 0.000000
# 4 0.000000 0.000000 0.000000 0.073897 0.000000 -0.002604
# 5 -0.000562 0.002108 0.001909 0.000000 0.018150 0.000000
# 6 0.000000 0.000000 0.000000 -0.002604 0.000000 0.032471
#
#
# Mechanical properties :
#
#
# Convention : Reuss Voigt Hill
#
# Bulk Modulus (GPa) = 54.05714 73.25876 63.65795
# Shear Modulus (GPa) = 29.06386 41.49966 35.28176
#
# Velocity S-wave (km/s) = 3.56059 4.25469 3.92302
# Velocity P-wave (km/s) = 6.36269 7.48948 6.94896
#
# Compressibility (1/GPa) = 0.01849895
#
# Stress axis : x y z
#
# Youngs Moduli (GPa) = 200.41600 84.46136 76.36274
#
# Poissons Ratio (x) = 0.11101 0.22606
# Poissons Ratio (y) = 0.26341 0.10983
# Poissons Ratio (z) = 0.59330 0.12148
#
# Static dielectric constant tensor:
#      x y z
#    x 1.949970 0.000000 -0.002170 
#    y 0.000000 1.932460 0.000000 
#    z -0.002170 0.000000 1.839730 
# 
# From -- ./inp_files/77506.got.cif
#   From: 2010.05.17/outbox.cif.g08.bks.cpg/sg15_39_cif.got.tgz:77506.got - 2010.06.03 18:47:42.
