data_PCOD9300306
_publ_section_title
;
Structure prediction by ZEFSAII (Michael W. Deem and Ramdas Pophale) SiO2 
 PCOD9300306
Probable space group: C 2/C
;
_chemical_formula_sum "Si O2"
_cell_formula_units_Z 60
_cell_length_a 25.756171
_cell_length_b 5.318912
_cell_length_c 21.634861
_cell_angle_alpha 90.000000
_cell_angle_beta 120.709720
_cell_angle_gamma 90.000000
_cell_volume 2548.228114
_symmetry_space_group_name_H-M "C 2/C"
_symmetry_group_IT_number 15
_symmetry_cell_setting 'monoclinic'
loop_
_space_group_symop_operation_xyz
x,y,z
-x,y,1/2-z
-x,-y,-z
x,-y,1/2+z
1/2+x,1/2+y,z
1/2-x,1/2+y,1/2-z
1/2-x,1/2-y,-z
1/2+x,1/2-y,1/2+z
loop_
_atom_site_type_symbol
_atom_site_label
_atom_site_fract_x
_atom_site_fract_y
_atom_site_fract_z
Si Si1 0.496626 0.415967 0.925806
Si Si2 0.500000 0.773290 0.750000
Si Si3 0.210116 0.083980 0.020847
Si Si4 0.313315 0.247412 0.648754
Si Si5 0.816258 0.420653 0.770281
Si Si6 0.773738 0.623767 0.858673
Si Si7 0.447681 0.077913 0.340774
Si Si8 0.090969 0.097782 0.379318
O O1 0.484847 0.691191 0.890751
O O2 0.552470 0.318585 0.916099
O O3 0.450695 0.182273 0.882187
O O4 0.500000 0.500000 0.000000
O O5 0.527100 0.948551 0.712922
O O6 0.449353 0.592289 0.687007
O O7 0.188245 0.236771 0.067336
O O8 0.257383 0.882773 0.078263
O O9 0.250000 0.250000 0.000000
O O10 0.151893 0.005998 0.947893
O O11 0.286216 0.524201 0.643455
O O12 0.375263 0.217639 0.648952
O O13 0.320096 0.145615 0.722406
O O14 0.812542 0.435518 0.842109
O O15 0.754300 0.292452 0.712237
O O16 0.880937 0.301958 0.797284
#
# Coordination Sequence:
#
# PCOD9300306 Si02
#       8
#     8   4   8   8   8   8   8   8
#     4  11  28  51  71 107 143 192 250 301 374 439
#     4  10  26  48  74 112 138 196 252 310 364 430
#     4  11  25  43  67 108 141 186 237 296 369 441
#     4  11  24  43  71 101 141 187 236 299 367 441
#     4  11  25  40  71 101 146 183 238 311 362 449
#     4  11  23  43  66 105 141 184 240 287 382 429
#     4  11  27  46  77 103 144 191 247 305 370 435
#     4  11  25  46  74 102 147 188 247 307 359 445
#
# _framework density 23.545771999999999
#
# number of rings (size 3 to 8) (size 9 to 14) (size 15 to 20)
#    0.000    1.067    2.667    1.600   11.200    2.667 
#    0.000    0.000    0.000    0.000    0.000    0.000 
#    0.000    0.000    0.000    0.000    0.000    0.000 
#
# Total GULP energy -167074.246066 kJ/mol
# GULP energy per Si atom -5569.141536 kJ/mol
# Density = 2.349218 g / cm^3
# Si number density = 23.545772 Si / 1000 Ang^3
#
#
#
# Elastic Constant Matrix: (Units=GPa)
#
#
# Indices 1 2 3 4 5 6 
#
# 1 102.2240 -9.5894 43.2656 0.0000 -20.4037 -0.0010
# 2 -9.5894 37.5292 28.3981 -0.0060 -9.3612 0.0064
# 3 43.2656 28.3981 133.9900 0.0006 -18.7463 -0.0004
# 4 0.0000 -0.0060 0.0006 21.6972 0.0012 -17.6702
# 5 -20.4037 -9.3612 -18.7463 0.0012 40.1735 -0.0001
# 6 -0.0010 0.0064 -0.0004 -17.6702 -0.0001 11.1181
#
#
#
# Elastic Compliance Matrix: (Units=1/GPa)
#
#
# Indices 1 2 3 4 5 6 
#
# 1 0.014563 0.009863 -0.005816 0.000004 0.006981 0.000002
# 2 0.009863 0.039214 -0.010181 0.000025 0.009396 0.000017
# 3 -0.005816 -0.010181 0.011505 -0.000005 0.000042 -0.000003
# 4 0.000004 0.000025 -0.000005 -0.156580 0.000009 -0.248856
# 5 0.006981 0.009396 0.000042 0.000009 0.030647 0.000010
# 6 0.000002 0.000017 -0.000003 -0.248856 0.000010 -0.305569
#
#
# Mechanical properties :
#
#
# Convention : Reuss Voigt Hill
#
# Bulk Modulus (GPa) = 18.86320 44.21021 31.53671
# Shear Modulus (GPa) = -14.86853 28.70900 6.92023
#
# Velocity S-wave (km/s) = -2.51564 3.49561 1.71623
# Velocity P-wave (km/s) = 0.63972 5.92532 4.16535
#
# Compressibility (1/GPa) = 0.05301326
#
# Stress axis : x y z
#
# Youngs Moduli (GPa) = 68.66904 25.50103 86.91842
#
# Poissons Ratio (x) = -0.25152 0.50553
# Poissons Ratio (y) = -0.67730 0.88495
# Poissons Ratio (z) = 0.39939 0.25964
#
# Static dielectric constant tensor:
#      x y z
#    x 2.012380 -0.000020 -0.103300 
#    y -0.000020 2.099330 0.000000 
#    z -0.103300 0.000000 2.042960 
# 
# From -- ./inp_files/256767.got.cif
#   From: 2010.05.17/outbox.cif.g08.bks.cpg/sg15_129_cif.got.tgz:256767.got - 2010.06.03 18:47:42.
