data_PCOD9300429
_publ_section_title
;
Structure prediction by ZEFSAII (Michael W. Deem and Ramdas Pophale) SiO2 
 PCOD9300429
Probable space group: C 2/C
;
_chemical_formula_sum "Si O2"
_cell_formula_units_Z 24
_cell_length_a 5.394344
_cell_length_b 17.356326
_cell_length_c 11.029584
_cell_angle_alpha 90.000000
_cell_angle_beta 77.060623
_cell_angle_gamma 90.000000
_cell_volume 1006.434078
_symmetry_space_group_name_H-M "C 2/C"
_symmetry_group_IT_number 15
_symmetry_cell_setting 'monoclinic'
loop_
_space_group_symop_operation_xyz
x,y,z
-x,y,1/2-z
-x,-y,-z
x,-y,1/2+z
1/2+x,1/2+y,z
1/2-x,1/2+y,1/2-z
1/2-x,1/2-y,-z
1/2+x,1/2-y,1/2+z
loop_
_atom_site_type_symbol
_atom_site_label
_atom_site_fract_x
_atom_site_fract_y
_atom_site_fract_z
Si Si1 0.209211 0.719562 0.327768
Si Si2 0.910126 0.126571 0.515504
Si Si3 0.855217 0.477630 0.891551
O O1 0.500000 0.735481 0.250000
O O2 0.101064 0.794672 0.408904
O O3 0.241350 0.648424 0.416562
O O4 0.000000 0.704649 0.250000
O O5 0.176881 0.095540 0.437078
O O6 0.813584 0.055440 0.605850
O O7 0.000000 0.468945 0.750000
O O8 0.000000 0.500000 0.000000
#
# Coordination Sequence:
#
# PCOD9300429 Si02
#       3
#     8   8   8
#     4  11  27  47  81 112 163 205 266 326 401 469
#     4  10  27  46  73 120 152 209 265 329 395 476
#     4  11  27  47  81 111 161 208 267 329 399 470
#
# _framework density 23.84657
#
# number of rings (size 3 to 8) (size 9 to 14) (size 15 to 20)
#    0.000    1.333    0.000    1.000   18.667    5.333 
#    0.000    0.000    0.000    0.000    0.000    0.000 
#    0.000    0.000    0.000    0.000    0.000    0.000 
#
# Total GULP energy -67154.858737 kJ/mol
# GULP energy per Si atom -5596.238228 kJ/mol
# Density = 2.379229 g / cm^3
# Si number density = 23.846570 Si / 1000 Ang^3
#
#
#
# Elastic Constant Matrix: (Units=GPa)
#
#
# Indices 1 2 3 4 5 6 
#
# 1 168.1612 90.3659 101.2652 0.0000 7.2431 0.0000
# 2 90.3659 153.3339 98.6367 0.0000 -25.1228 0.0000
# 3 101.2652 98.6367 196.0505 0.0000 -22.1834 0.0000
# 4 0.0000 0.0000 0.0000 30.0108 0.0000 -13.8758
# 5 7.2431 -25.1228 -22.1834 0.0000 55.0654 0.0000
# 6 0.0000 0.0000 0.0000 -13.8758 0.0000 38.1842
#
#
#
# Elastic Compliance Matrix: (Units=1/GPa)
#
#
# Indices 1 2 3 4 5 6 
#
# 1 0.011173 -0.004959 -0.003875 0.000000 -0.005293 0.000000
# 2 -0.004959 0.012201 -0.003011 0.000000 0.005006 0.000000
# 3 -0.003875 -0.003011 0.008926 0.000000 0.002732 0.000000
# 4 0.000000 0.000000 0.000000 0.040051 0.000000 0.014554
# 5 -0.005293 0.005006 0.002732 0.000000 0.022241 0.000000
# 6 0.000000 0.000000 0.000000 0.014554 0.000000 0.031478
#
#
# Mechanical properties :
#
#
# Convention : Reuss Voigt Hill
#
# Bulk Modulus (GPa) = 116.13584 122.00900 119.07242
# Shear Modulus (GPa) = 32.75880 39.80393 36.28136
#
# Velocity S-wave (km/s) = 3.71041 4.08998 3.90481
# Velocity P-wave (km/s) = 8.19532 8.57783 8.38875
#
# Compressibility (1/GPa) = 0.00861061
#
# Stress axis : x y z
#
# Youngs Moduli (GPa) = 89.49922 81.95767 112.03025
#
# Poissons Ratio (x) = 0.40646 0.43413
# Poissons Ratio (y) = 0.44386 0.33728
# Poissons Ratio (z) = 0.34682 0.24675
#
# Static dielectric constant tensor:
#      x y z
#    x 1.992770 0.000000 0.020910 
#    y 0.000000 1.883630 0.000000 
#    z 0.020910 0.000000 1.961930 
# 
# From -- ./inp_files/71378.got.cif
#   From: 2010.05.17/outbox.cif.g08.bks.cpg/sg15_36_cif.got.tgz:71378.got - 2010.06.03 18:47:42.
