data_PCOD9300281
_publ_section_title
;
Structure prediction by ZEFSAII (Michael W. Deem and Ramdas Pophale) SiO2 
 PCOD9300281
Probable space group: C 2/C
;
_chemical_formula_sum "Si O2"
_cell_formula_units_Z 44
_cell_length_a 30.411834
_cell_length_b 4.941157
_cell_length_c 16.421224
_cell_angle_alpha 90.000000
_cell_angle_beta 51.117085
_cell_angle_gamma 90.000000
_cell_volume 1920.863742
_symmetry_space_group_name_H-M "C 2/C"
_symmetry_group_IT_number 15
_symmetry_cell_setting 'monoclinic'
loop_
_space_group_symop_operation_xyz
x,y,z
-x,y,1/2-z
-x,-y,-z
x,-y,1/2+z
1/2+x,1/2+y,z
1/2-x,1/2+y,1/2-z
1/2-x,1/2-y,-z
1/2+x,1/2-y,1/2+z
loop_
_atom_site_type_symbol
_atom_site_label
_atom_site_fract_x
_atom_site_fract_y
_atom_site_fract_z
Si Si1 0.000000 0.250896 0.250000
Si Si2 0.907297 0.482288 0.968170
Si Si3 0.159471 0.980567 0.513950
Si Si4 0.407880 0.448682 0.251737
Si Si5 0.237139 0.612912 0.211694
Si Si6 0.892018 0.546529 0.667855
O O1 0.959449 0.433054 0.352359
O O2 0.961018 0.061939 0.239199
O O3 0.884937 0.181444 0.978597
O O4 0.856776 0.682023 0.997903
O O5 0.919654 0.514610 0.048900
O O6 0.221103 0.063826 0.412412
O O7 0.145349 0.016301 0.625399
O O8 0.414803 0.144332 0.213211
O O9 0.398815 0.643678 0.185383
O O10 0.258904 0.415616 0.258605
O O11 0.173677 0.529756 0.265342
#
# Coordination Sequence:
#
# PCOD9300281 Si02
#       6
#     4   8   8   8   8   8
#     4  10  26  48  68  92 130 188 216 266 352 382
#     4  11  23  42  71  94 131 174 225 269 318 397
#     4  11  22  43  66  97 135 180 212 259 331 400
#     4  11  26  42  66  97 137 168 223 277 322 386
#     4  12  22  40  70  99 132 179 210 260 334 396
#     4  12  24  41  67 105 130 166 225 280 310 387
#
# _framework density 22.906364
#
# number of rings (size 3 to 8) (size 9 to 14) (size 15 to 20)
#    0.000    0.727    3.636    4.364    0.000    9.455 
#    0.000    0.000    0.000    0.000    0.000    0.000 
#    0.000    0.000    0.000    0.000    0.000    0.000 
#
# Total GULP energy -123318.800879 kJ/mol
# GULP energy per Si atom -5605.400040 kJ/mol
# Density = 2.285423 g / cm^3
# Si number density = 22.906364 Si / 1000 Ang^3
#
#
#
# Elastic Constant Matrix: (Units=GPa)
#
#
# Indices 1 2 3 4 5 6 
#
# 1 70.0200 -5.9450 18.3762 -0.0013 -13.3507 -0.0171
# 2 -5.9450 64.1287 -0.1188 -0.0078 1.8091 -0.0551
# 3 18.3762 -0.1188 123.3236 0.0032 0.9140 0.0005
# 4 -0.0013 -0.0078 0.0032 30.0731 0.0001 13.0475
# 5 -13.3507 1.8091 0.9140 0.0001 35.9185 -0.0010
# 6 -0.0171 -0.0551 0.0005 13.0475 -0.0010 24.7931
#
#
#
# Elastic Compliance Matrix: (Units=1/GPa)
#
#
# Indices 1 2 3 4 5 6 
#
# 1 0.016185 0.001326 -0.002455 -0.000006 0.006011 0.000018
# 2 0.001326 0.015725 -0.000180 -0.000015 -0.000294 0.000044
# 3 -0.002455 -0.000180 0.008483 0.000000 -0.001119 -0.000002
# 4 -0.000006 -0.000015 0.000000 0.043091 -0.000002 -0.022677
# 5 0.006011 -0.000294 -0.001119 -0.000002 0.030119 0.000006
# 6 0.000018 0.000044 -0.000002 -0.022677 0.000006 0.052268
#
#
# Mechanical properties :
#
#
# Convention : Reuss Voigt Hill
#
# Bulk Modulus (GPa) = 26.47317 31.34412 28.90864
# Shear Modulus (GPa) = 27.61234 34.50094 31.05664
#
# Velocity S-wave (km/s) = 3.47572 3.88515 3.68612
# Velocity P-wave (km/s) = 5.26210 5.81715 5.54657
#
# Compressibility (1/GPa) = 0.03777410
#
# Stress axis : x y z
#
# Youngs Moduli (GPa) = 61.78672 63.59464 117.88741
#
# Poissons Ratio (x) = -0.08434 0.28940
# Poissons Ratio (y) = -0.08195 0.02126
# Poissons Ratio (z) = 0.15168 0.01147
#
# Static dielectric constant tensor:
#      x y z
#    x 1.834420 -0.000010 0.011190 
#    y -0.000010 1.797750 0.000000 
#    z 0.011190 0.000000 1.852270 
# 
# From -- ./inp_files/175622.got.cif
#   From: 2010.05.17/outbox.cif.g08.bks.cpg/sg15_88_cif.got.tgz:175622.got - 2010.06.03 18:47:42.
