data_PCOD9300455
_publ_section_title
;
Structure prediction by ZEFSAII (Michael W. Deem and Ramdas Pophale) SiO2 
 PCOD9300455
Probable space group: C 2/C
;
_chemical_formula_sum "Si O2"
_cell_formula_units_Z 60
_cell_length_a 15.694657
_cell_length_b 15.802454
_cell_length_c 19.337126
_cell_angle_alpha 90.000000
_cell_angle_beta 143.841844
_cell_angle_gamma 90.000000
_cell_volume 2829.646659
_symmetry_space_group_name_H-M "C 2/C"
_symmetry_group_IT_number 15
_symmetry_cell_setting 'monoclinic'
loop_
_space_group_symop_operation_xyz
x,y,z
-x,y,1/2-z
-x,-y,-z
x,-y,1/2+z
1/2+x,1/2+y,z
1/2-x,1/2+y,1/2-z
1/2-x,1/2-y,-z
1/2+x,1/2-y,1/2+z
loop_
_atom_site_type_symbol
_atom_site_label
_atom_site_fract_x
_atom_site_fract_y
_atom_site_fract_z
Si Si1 0.835402 0.829679 0.520658
Si Si2 0.957167 0.767289 0.957430
Si Si3 0.334874 0.000489 0.127035
Si Si4 0.160301 0.354179 0.758160
Si Si5 0.971990 0.406371 0.505744
Si Si6 0.417968 0.722069 0.597620
Si Si7 0.000000 0.917511 0.750000
Si Si8 0.196764 0.930062 0.402302
O O1 0.750000 0.750000 0.500000
O O2 0.740716 0.910885 0.436165
O O3 0.918537 0.810856 0.504278
O O4 0.953053 0.861508 0.654342
O O5 0.801827 0.800934 0.832116
O O6 0.990983 0.668886 0.964588
O O7 0.952722 0.782207 0.038073
O O8 0.500000 0.983401 0.250000
O O9 0.295329 0.070315 0.160138
O O10 0.305131 0.047235 0.035656
O O11 0.084084 0.392360 0.641173
O O12 0.037810 0.287756 0.704106
O O13 0.805588 0.390121 0.419176
O O14 0.000000 0.500000 0.500000
O O15 0.250000 0.750000 0.500000
O O16 0.418887 0.631286 0.636221
O O17 0.131084 0.984473 0.827611
#
# Coordination Sequence:
#
# PCOD9300455 Si02
#       8
#     8   8   8   8   8   8   4   8
#     4  11  29  52  76  99 146 194 257 309 350 439
#     4  11  26  45  70 108 140 190 247 297 366 430
#     4  11  22  45  75 104 135 192 242 290 371 431
#     4  11  24  42  72 103 148 187 235 302 370 440
#     4  11  26  44  66 102 148 186 241 294 359 437
#     4  11  21  41  69 110 150 182 230 293 365 446
#     4  10  28  46  74 102 136 192 248 294 370 406
#     4  11  22  44  70 104 145 190 228 296 363 438
#
# _framework density 21.204059999999998
#
# number of rings (size 3 to 8) (size 9 to 14) (size 15 to 20)
#    0.000    1.067    5.333    0.000    8.400    1.600 
#    4.800    0.000    0.000    0.000    0.000    0.000 
#    0.000    0.000    0.000    0.000    0.000    0.000 
#
# Total GULP energy -167320.054782 kJ/mol
# GULP energy per Si atom -5577.335159 kJ/mol
# Density = 2.115580 g / cm^3
# Si number density = 21.204060 Si / 1000 Ang^3
#
#
#
# Elastic Constant Matrix: (Units=GPa)
#
#
# Indices 1 2 3 4 5 6 
#
# 1 76.8471 45.2191 26.8360 -0.0001 3.6685 0.0001
# 2 45.2191 139.4709 33.8735 0.0001 0.1236 0.0000
# 3 26.8360 33.8735 83.8556 -0.0002 -5.6425 0.0001
# 4 -0.0001 0.0001 -0.0002 21.5579 0.0000 1.3850
# 5 3.6685 0.1236 -5.6425 0.0000 18.1433 0.0001
# 6 0.0001 0.0000 0.0001 1.3850 0.0001 30.3671
#
#
#
# Elastic Compliance Matrix: (Units=1/GPa)
#
#
# Indices 1 2 3 4 5 6 
#
# 1 0.017375 -0.004659 -0.003997 0.000000 -0.004724 0.000000
# 2 -0.004659 0.009220 -0.002221 0.000000 0.000189 0.000000
# 3 -0.003997 -0.002221 0.014459 0.000000 0.005320 0.000000
# 4 0.000000 0.000000 0.000000 0.046523 0.000000 -0.002122
# 5 -0.004724 0.000189 0.005320 0.000000 0.057725 0.000000
# 6 0.000000 0.000000 0.000000 -0.002122 0.000000 0.033027
#
#
# Mechanical properties :
#
#
# Convention : Reuss Voigt Hill
#
# Bulk Modulus (GPa) = 51.80701 56.89230 54.34965
# Shear Modulus (GPa) = 24.21129 26.96334 25.58731
#
# Velocity S-wave (km/s) = 3.38275 3.56984 3.47755
# Velocity P-wave (km/s) = 6.30420 6.62425 6.46621
#
# Compressibility (1/GPa) = 0.01930241
#
# Stress axis : x y z
#
# Youngs Moduli (GPa) = 57.55301 108.46559 69.15959
#
# Poissons Ratio (x) = 0.50529 0.27640
# Poissons Ratio (y) = 0.26811 0.15358
# Poissons Ratio (z) = 0.23002 0.24087
#
# Static dielectric constant tensor:
#      x y z
#    x 1.757390 0.000000 -0.004730 
#    y 0.000000 1.818250 0.000000 
#    z -0.004730 0.000000 1.778830 
# 
# From -- ./inp_files/277565.got.cif
#   From: 2010.05.17/outbox.cif.g08.bks.cpg/sg15_139_cif.got.tgz:277565.got - 2010.06.03 18:47:42.
