data_PCOD9300860
_publ_section_title
;
Structure prediction by ZEFSAII (Michael W. Deem and Ramdas Pophale) SiO2 
 PCOD9300860
Probable space group: C 2/C
;
_chemical_formula_sum "Si O2"
_cell_formula_units_Z 40
_cell_length_a 15.628533
_cell_length_b 9.192113
_cell_length_c 12.609709
_cell_angle_alpha 90.000000
_cell_angle_beta 62.322312
_cell_angle_gamma 90.000000
_cell_volume 1604.219433
_symmetry_space_group_name_H-M "C 2/C"
_symmetry_group_IT_number 15
_symmetry_cell_setting 'monoclinic'
loop_
_space_group_symop_operation_xyz
x,y,z
-x,y,1/2-z
-x,-y,-z
x,-y,1/2+z
1/2+x,1/2+y,z
1/2-x,1/2+y,1/2-z
1/2-x,1/2-y,-z
1/2+x,1/2-y,1/2+z
loop_
_atom_site_type_symbol
_atom_site_label
_atom_site_fract_x
_atom_site_fract_y
_atom_site_fract_z
Si Si1 0.295269 0.542553 0.025649
Si Si2 0.919040 0.828535 0.103542
Si Si3 0.396774 0.949538 0.749040
Si Si4 0.115928 0.280865 0.394178
Si Si5 0.905711 0.072573 0.265040
O O1 0.183348 0.522822 0.115411
O O2 0.347910 0.421096 0.070502
O O3 0.327257 0.706668 0.040691
O O4 0.333682 0.501173 0.888153
O O5 0.879255 0.705888 0.204104
O O6 0.957387 0.951189 0.162324
O O7 0.005388 0.757893 0.987606
O O8 0.500000 0.953973 0.750000
O O9 0.383921 0.060805 0.657369
O O10 0.151665 0.179835 0.277024
O O11 0.000000 0.159766 0.250000
#
# Coordination Sequence:
#
# PCOD9300860 Si02
#       5
#     8   8   8   8   8
#     4  11  24  46  77  96 132 187 231 273 331 413
#     4  11  23  45  72 100 136 179 227 283 337 402
#     4  12  28  46  64 105 147 177 218 286 349 392
#     4  11  23  45  72 100 136 179 227 283 337 402
#     4  11  19  41  74 103 131 171 239 278 329 401
#
# _framework density 24.934244
#
# number of rings (size 3 to 8) (size 9 to 14) (size 15 to 20)
#    0.000    0.800    4.000    4.200    0.000    1.600 
#   14.400    0.000    0.000    0.000    0.000    0.000 
#    0.000    0.000    0.000    0.000    0.000    0.000 
#
# Total GULP energy -111845.418008 kJ/mol
# GULP energy per Si atom -5592.270900 kJ/mol
# Density = 2.487749 g / cm^3
# Si number density = 24.934244 Si / 1000 Ang^3
#
#
#
# Elastic Constant Matrix: (Units=GPa)
#
#
# Indices 1 2 3 4 5 6 
#
# 1 74.0481 7.0740 28.8583 0.0000 -12.4338 0.0000
# 2 7.0740 80.4853 -3.8500 0.0000 6.7179 0.0000
# 3 28.8583 -3.8500 124.3598 0.0000 -15.5989 0.0000
# 4 0.0000 0.0000 0.0000 36.2118 0.0000 8.3824
# 5 -12.4338 6.7179 -15.5989 0.0000 48.9432 0.0000
# 6 0.0000 0.0000 0.0000 8.3824 0.0000 5.1222
#
#
#
# Elastic Compliance Matrix: (Units=1/GPa)
#
#
# Indices 1 2 3 4 5 6 
#
# 1 0.015468 -0.001777 -0.003251 0.000000 0.003137 0.000000
# 2 -0.001777 0.012777 0.000553 0.000000 -0.002029 0.000000
# 3 -0.003251 0.000553 0.009062 0.000000 0.001986 0.000000
# 4 0.000000 0.000000 0.000000 0.044456 0.000000 -0.072751
# 5 0.003137 -0.002029 0.001986 0.000000 0.022140 0.000000
# 6 0.000000 0.000000 0.000000 -0.072751 0.000000 0.314282
#
#
# Mechanical properties :
#
#
# Convention : Reuss Voigt Hill
#
# Bulk Modulus (GPa) = 35.26363 38.11753 36.69058
# Shear Modulus (GPa) = 11.45249 34.50950 22.98099
#
# Velocity S-wave (km/s) = 2.14547 3.72428 3.03919
# Velocity P-wave (km/s) = 4.50675 5.81499 5.20215
#
# Compressibility (1/GPa) = 0.02835783
#
# Stress axis : x y z
#
# Youngs Moduli (GPa) = 64.64840 78.26803 110.35251
#
# Poissons Ratio (x) = 0.13908 0.35875
# Poissons Ratio (y) = 0.11487 -0.06107
# Poissons Ratio (z) = 0.21017 -0.04331
#
# Static dielectric constant tensor:
#      x y z
#    x 2.205950 0.000000 0.071520 
#    y 0.000000 1.961350 0.000000 
#    z 0.071520 0.000000 1.947720 
# 
# From -- ./inp_files/213687.got.cif
#   From: 2010.05.17/outbox.cif.g08.bks.cpg/sg15_107_cif.got.tgz:213687.got - 2010.06.03 18:47:42.
