data_PCOD9300398
_publ_section_title
;
Structure prediction by ZEFSAII (Michael W. Deem and Ramdas Pophale) SiO2 
 PCOD9300398
Probable space group: C 2/C
;
_chemical_formula_sum "Si O2"
_cell_formula_units_Z 44
_cell_length_a 14.671093
_cell_length_b 4.912834
_cell_length_c 23.488879
_cell_angle_alpha 90.000000
_cell_angle_beta 75.678954
_cell_angle_gamma 90.000000
_cell_volume 1640.389514
_symmetry_space_group_name_H-M "C 2/C"
_symmetry_group_IT_number 15
_symmetry_cell_setting 'monoclinic'
loop_
_space_group_symop_operation_xyz
x,y,z
-x,y,1/2-z
-x,-y,-z
x,-y,1/2+z
1/2+x,1/2+y,z
1/2-x,1/2+y,1/2-z
1/2-x,1/2-y,-z
1/2+x,1/2-y,1/2+z
loop_
_atom_site_type_symbol
_atom_site_label
_atom_site_fract_x
_atom_site_fract_y
_atom_site_fract_z
Si Si1 0.968356 0.682721 0.953070
Si Si2 0.394428 0.588645 0.162462
Si Si3 0.193525 0.088369 0.960950
Si Si4 0.747938 0.086650 0.882029
Si Si5 0.500000 0.149416 0.750000
Si Si6 0.058101 0.298249 0.642292
O O1 0.917185 0.486622 0.915222
O O2 0.050646 0.795896 0.901294
O O3 0.906679 0.913723 0.992311
O O4 0.000000 0.500000 0.000000
O O5 0.294258 0.739683 0.165167
O O6 0.432986 0.689031 0.217321
O O7 0.448697 0.294222 0.154392
O O8 0.203532 0.292372 0.904346
O O9 0.223981 0.791327 0.937660
O O10 0.250000 0.250000 0.000000
O O11 0.861800 0.068003 0.864142
O O12 0.563289 0.967974 0.698987
#
# Coordination Sequence:
#
# PCOD9300398 Si02
#       6
#     8   8   8   8   4   8
#     4  11  22  39  68 103 149 188 230 284 365 435
#     4  11  25  47  73 102 143 191 246 307 370 445
#     4  12  24  42  67 110 154 190 235 292 356 447
#     4  12  27  44  74 109 145 192 248 292 370 446
#     4  10  26  52  68 100 134 182 250 310 376 426
#     4  11  25  47  72 101 143 190 242 310 365 439
#
# _framework density 26.822897000000001
#
# number of rings (size 3 to 8) (size 9 to 14) (size 15 to 20)
#    0.000    0.727    3.636    3.273    7.636    1.455 
#    6.545    0.000    0.000    0.000    0.000    0.000 
#    0.000    0.000    0.000    0.000    0.000    0.000 
#
# Total GULP energy -122935.275958 kJ/mol
# GULP energy per Si atom -5587.967089 kJ/mol
# Density = 2.676185 g / cm^3
# Si number density = 26.822897 Si / 1000 Ang^3
#
#
#
# Elastic Constant Matrix: (Units=GPa)
#
#
# Indices 1 2 3 4 5 6 
#
# 1 90.9591 -11.3018 4.3939 0.0001 16.8732 0.0005
# 2 -11.3018 105.3541 21.4748 -0.0008 -11.2586 0.0009
# 3 4.3939 21.4748 143.5758 -0.0008 28.9475 0.0002
# 4 0.0001 -0.0008 -0.0008 46.2264 -0.0001 -0.3901
# 5 16.8732 -11.2586 28.9475 -0.0001 31.2941 -0.0001
# 6 0.0005 0.0009 0.0002 -0.3901 -0.0001 27.4765
#
#
#
# Elastic Compliance Matrix: (Units=1/GPa)
#
#
# Indices 1 2 3 4 5 6 
#
# 1 0.012386 0.000290 0.001110 0.000000 -0.007601 0.000000
# 2 0.000290 0.010806 -0.002923 0.000000 0.006435 0.000000
# 3 0.001110 -0.002923 0.009466 0.000000 -0.010406 0.000000
# 4 0.000000 0.000000 0.000000 0.021635 0.000000 0.000307
# 5 -0.007601 0.006435 -0.010406 0.000000 0.047994 0.000000
# 6 0.000000 0.000000 0.000000 0.000307 0.000000 0.036399
#
#
# Mechanical properties :
#
#
# Convention : Reuss Voigt Hill
#
# Bulk Modulus (GPa) = 33.76755 41.00253 37.38504
# Shear Modulus (GPa) = 32.98081 42.68753 37.83417
#
# Velocity S-wave (km/s) = 3.51034 3.99364 3.75976
# Velocity P-wave (km/s) = 5.38947 6.04856 5.72850
#
# Compressibility (1/GPa) = 0.02961423
#
# Stress axis : x y z
#
# Youngs Moduli (GPa) = 80.73396 92.53873 105.63885
#
# Poissons Ratio (x) = -0.02686 -0.11726
# Poissons Ratio (y) = -0.02343 0.30873
# Poissons Ratio (z) = -0.08961 0.27045
#
# Static dielectric constant tensor:
#      x y z
#    x 2.374920 0.000000 0.088510 
#    y 0.000000 2.153850 0.000000 
#    z 0.088510 0.000000 2.058380 
# 
# From -- ./inp_files/246481.got.cif
#   From: 2010.05.17/outbox.cif.g08.bks.cpg/sg15_124_cif.got.tgz:246481.got - 2010.06.03 18:47:42.
