data_PCOD9300541
_publ_section_title
;
Structure prediction by ZEFSAII (Michael W. Deem and Ramdas Pophale) SiO2 
 PCOD9300541
Probable space group: C 2/C
;
_chemical_formula_sum "Si O2"
_cell_formula_units_Z 56
_cell_length_a 12.981117
_cell_length_b 31.400374
_cell_length_c 9.592624
_cell_angle_alpha 90.000000
_cell_angle_beta 129.698254
_cell_angle_gamma 90.000000
_cell_volume 3008.480666
_symmetry_space_group_name_H-M "C 2/C"
_symmetry_group_IT_number 15
_symmetry_cell_setting 'monoclinic'
loop_
_space_group_symop_operation_xyz
x,y,z
-x,y,1/2-z
-x,-y,-z
x,-y,1/2+z
1/2+x,1/2+y,z
1/2-x,1/2+y,1/2-z
1/2-x,1/2-y,-z
1/2+x,1/2-y,1/2+z
loop_
_atom_site_type_symbol
_atom_site_label
_atom_site_fract_x
_atom_site_fract_y
_atom_site_fract_z
Si Si1 0.859462 0.230533 0.699870
Si Si2 0.652200 0.913939 0.827316
Si Si3 0.398029 0.866907 0.992628
Si Si4 0.197507 0.598656 0.805649
Si Si5 0.140140 0.129473 0.792235
Si Si6 0.601839 0.993051 0.213487
Si Si7 0.381626 0.234014 0.535770
O O1 0.750000 0.250000 0.500000
O O2 0.837195 0.179896 0.679404
O O3 0.000000 0.240604 0.750000
O O4 0.873124 0.245890 0.872479
O O5 0.500000 0.914044 0.750000
O O6 0.659569 0.881956 0.703998
O O7 0.678272 0.962867 0.807029
O O8 0.749105 0.897110 0.029069
O O9 0.315931 0.891141 0.042561
O O10 0.555038 0.881044 0.130073
O O11 0.388249 0.816854 0.015260
O O12 0.326778 0.617521 0.839558
O O13 0.191273 0.548380 0.771328
O O14 0.000000 0.120710 0.750000
O O15 0.500000 0.982883 0.250000
O O16 0.500000 0.000000 0.000000
O O17 0.500000 0.244478 0.750000
O O18 0.250000 0.250000 0.500000
#
# Coordination Sequence:
#
# PCOD9300541 Si02
#       7
#     8   8   8   8   8   8   8
#     4  11  25  42  63  88 122 165 215 271 318 382
#     4  11  21  36  65  96 124 163 212 261 309 383
#     4  11  21  36  63  93 120 160 204 260 320 370
#     4  11  19  37  61  88 128 159 196 258 316 367
#     4  11  25  43  59  86 128 171 208 256 323 381
#     4  11  18  32  57  98 125 148 201 261 308 353
#     4  12  25  40  63  92 125 164 214 265 324 385
#
# _framework density 18.614045000000001
#
# number of rings (size 3 to 8) (size 9 to 14) (size 15 to 20)
#    0.000    0.857    5.714    3.429    2.000    2.286 
#    0.000    1.429    0.000    0.000    0.000    0.000 
#    0.000    0.000    0.000    0.000    0.000    0.000 
#
# Total GULP energy -156197.384638 kJ/mol
# GULP energy per Si atom -5578.478023 kJ/mol
# Density = 1.857168 g / cm^3
# Si number density = 18.614045 Si / 1000 Ang^3
#
#
#
# Elastic Constant Matrix: (Units=GPa)
#
#
# Indices 1 2 3 4 5 6 
#
# 1 120.1209 61.0057 38.1775 0.0000 -16.7780 0.0000
# 2 61.0057 103.4538 51.3144 0.0000 12.9604 0.0000
# 3 38.1775 51.3144 82.6811 0.0000 -10.5776 0.0000
# 4 0.0000 0.0000 0.0000 27.8777 0.0000 -8.5292
# 5 -16.7780 12.9604 -10.5776 0.0000 32.1725 0.0000
# 6 0.0000 0.0000 0.0000 -8.5292 0.0000 19.2992
#
#
#
# Elastic Compliance Matrix: (Units=1/GPa)
#
#
# Indices 1 2 3 4 5 6 
#
# 1 0.015637 -0.011839 0.001859 0.000000 0.013535 0.000000
# 2 -0.011839 0.025844 -0.013252 0.000000 -0.020942 0.000000
# 3 0.001859 -0.013252 0.021158 0.000000 0.013264 0.000000
# 4 0.000000 0.000000 0.000000 0.041480 0.000000 0.018332
# 5 0.013535 -0.020942 0.013264 0.000000 0.050938 0.000000
# 6 0.000000 0.000000 0.000000 0.018332 0.000000 0.059917
#
#
# Mechanical properties :
#
#
# Convention : Reuss Voigt Hill
#
# Bulk Modulus (GPa) = 61.82491 67.47233 64.64862
# Shear Modulus (GPa) = 18.73842 26.25376 22.49609
#
# Velocity S-wave (km/s) = 3.17627 3.75964 3.48020
# Velocity P-wave (km/s) = 6.83650 7.42787 7.13831
#
# Compressibility (1/GPa) = 0.01617471
#
# Stress axis : x y z
#
# Youngs Moduli (GPa) = 63.94992 38.69333 47.26282
#
# Poissons Ratio (x) = 0.45808 -0.08784
# Poissons Ratio (y) = 0.75708 0.62635
# Poissons Ratio (z) = -0.11886 0.51278
#
# Static dielectric constant tensor:
#      x y z
#    x 1.643800 0.000000 -0.026650 
#    y 0.000000 1.609350 0.000000 
#    z -0.026650 0.000000 1.619130 
# 
# From -- ./inp_files/35758.got.cif
#   From: 2010.05.17/outbox.cif.g08.bks.cpg/sg15_18_cif.got.tgz:35758.got - 2010.06.03 18:47:42.
