data_PCOD9300817
_publ_section_title
;
Structure prediction by ZEFSAII (Michael W. Deem and Ramdas Pophale) SiO2 
 PCOD9300817
Probable space group: C 2/C
;
_chemical_formula_sum "Si O2"
_cell_formula_units_Z 56
_cell_length_a 22.073954
_cell_length_b 17.729008
_cell_length_c 21.624547
_cell_angle_alpha 90.000000
_cell_angle_beta 160.120120
_cell_angle_gamma 90.000000
_cell_volume 2877.753035
_symmetry_space_group_name_H-M "C 2/C"
_symmetry_group_IT_number 15
_symmetry_cell_setting 'monoclinic'
loop_
_space_group_symop_operation_xyz
x,y,z
-x,y,1/2-z
-x,-y,-z
x,-y,1/2+z
1/2+x,1/2+y,z
1/2-x,1/2+y,1/2-z
1/2-x,1/2-y,-z
1/2+x,1/2-y,1/2+z
loop_
_atom_site_type_symbol
_atom_site_label
_atom_site_fract_x
_atom_site_fract_y
_atom_site_fract_z
Si Si1 0.774780 0.084807 0.375157
Si Si2 0.396539 0.349183 0.862592
Si Si3 0.247559 0.088654 0.639986
Si Si4 0.134540 0.806480 0.929889
Si Si5 0.055749 0.852871 0.233890
Si Si6 0.533929 0.177723 0.355483
Si Si7 0.542764 0.795284 0.461342
O O1 0.822243 0.112597 0.352355
O O2 0.620262 0.136924 0.254744
O O3 0.953366 0.094521 0.587570
O O4 0.710557 0.998776 0.316552
O O5 0.231702 0.331821 0.658707
O O6 0.552759 0.398996 0.982921
O O7 0.487367 0.266849 0.959268
O O8 0.235119 0.125455 0.559950
O O9 0.392767 0.141354 0.812634
O O10 0.000000 0.838431 0.750000
O O11 0.250000 0.750000 0.000000
O O12 0.056364 0.754345 0.910932
O O13 0.269385 0.849142 0.436350
O O14 0.000000 0.874029 0.250000
O O15 0.982709 0.767871 0.152766
O O16 0.500000 0.162889 0.250000
#
# Coordination Sequence:
#
# PCOD9300817 Si02
#       7
#     8   8   8   8   8   8   8
#     4  12  27  40  65 104 132 176 223 274 351 399
#     4  11  24  42  68  92 129 178 227 272 333 401
#     4  11  25  45  62  99 142 165 219 293 330 389
#     4  11  19  39  69  98 122 175 225 261 330 404
#     4  11  21  41  68  90 133 173 217 276 327 399
#     4  11  21  41  65  91 128 174 224 274 327 405
#     4  11  22  43  70  95 131 173 229 285 320 403
#
# _framework density 19.459627000000001
#
# number of rings (size 3 to 8) (size 9 to 14) (size 15 to 20)
#    0.000    0.857    7.143    2.143    2.000    3.429 
#    2.571    0.000    0.000    0.000    0.000    0.000 
#    0.000    0.000    0.000    0.000    0.000    0.000 
#
# Total GULP energy -156391.777036 kJ/mol
# GULP energy per Si atom -5585.420608 kJ/mol
# Density = 1.941534 g / cm^3
# Si number density = 19.459627 Si / 1000 Ang^3
#
#
#
# Elastic Constant Matrix: (Units=GPa)
#
#
# Indices 1 2 3 4 5 6 
#
# 1 80.2030 31.8588 3.7290 0.0028 6.0425 -0.0026
# 2 31.8588 61.4341 -9.6253 0.0030 -10.2321 -0.0014
# 3 3.7290 -9.6253 85.7847 0.0057 5.2430 0.0024
# 4 0.0028 0.0030 0.0057 21.8222 -0.0038 -1.3410
# 5 6.0425 -10.2321 5.2430 -0.0038 23.0722 -0.0103
# 6 -0.0026 -0.0014 0.0024 -1.3410 -0.0103 37.1979
#
#
#
# Elastic Compliance Matrix: (Units=1/GPa)
#
#
# Indices 1 2 3 4 5 6 
#
# 1 0.017512 -0.010813 -0.001421 -0.000002 -0.009059 -0.000002
# 2 -0.010813 0.024449 0.002411 0.000000 0.013127 0.000004
# 3 -0.001421 0.002411 0.012069 -0.000004 -0.001301 -0.000001
# 4 -0.000002 0.000000 -0.000004 0.045927 0.000010 0.001656
# 5 -0.009059 0.013127 -0.001301 0.000010 0.051832 0.000015
# 6 -0.000002 0.000004 -0.000001 0.001656 0.000015 0.026943
#
#
# Mechanical properties :
#
#
# Convention : Reuss Voigt Hill
#
# Bulk Modulus (GPa) = 29.08276 31.03854 30.06065
# Shear Modulus (GPa) = 23.82784 29.84907 26.83845
#
# Velocity S-wave (km/s) = 3.50305 3.92075 3.71777
# Velocity P-wave (km/s) = 5.59816 6.03997 5.82326
#
# Compressibility (1/GPa) = 0.03438463
#
# Stress axis : x y z
#
# Youngs Moduli (GPa) = 57.10334 40.90131 82.85753
#
# Poissons Ratio (x) = 0.44226 0.11773
# Poissons Ratio (y) = 0.61745 -0.19977
# Poissons Ratio (z) = 0.08113 -0.09861
#
# Static dielectric constant tensor:
#      x y z
#    x 1.692240 -0.000010 -0.011180 
#    y -0.000010 1.660280 -0.000010 
#    z -0.011180 -0.000010 1.730740 
# 
# From -- ./inp_files/253375.got.cif
#   From: 2010.05.17/outbox.cif.g08.bks.cpg/sg15_127_cif.got.tgz:253375.got - 2010.06.03 18:47:42.
