data_PCOD9300071
_publ_section_title
;
Structure prediction by ZEFSAII (Michael W. Deem and Ramdas Pophale) SiO2 
 PCOD9300071
Probable space group: C 2/C
;
_chemical_formula_sum "Si O2"
_cell_formula_units_Z 52
_cell_length_a 20.637465
_cell_length_b 6.468525
_cell_length_c 23.057111
_cell_angle_alpha 90.000000
_cell_angle_beta 53.450639
_cell_angle_gamma 90.000000
_cell_volume 2472.681148
_symmetry_space_group_name_H-M "C 2/C"
_symmetry_group_IT_number 15
_symmetry_cell_setting 'monoclinic'
loop_
_space_group_symop_operation_xyz
x,y,z
-x,y,1/2-z
-x,-y,-z
x,-y,1/2+z
1/2+x,1/2+y,z
1/2-x,1/2+y,1/2-z
1/2-x,1/2-y,-z
1/2+x,1/2-y,1/2+z
loop_
_atom_site_type_symbol
_atom_site_label
_atom_site_fract_x
_atom_site_fract_y
_atom_site_fract_z
Si Si1 0.552339 0.206046 0.984291
Si Si2 0.370638 0.960574 0.845776
Si Si3 0.500000 0.303607 0.750000
Si Si4 0.181507 0.608288 0.007810
Si Si5 0.369893 0.434621 0.262585
Si Si6 0.764879 0.727660 0.105036
Si Si7 0.598837 0.574023 0.886497
O O1 0.583094 0.334470 0.912087
O O2 0.633647 0.181535 0.977258
O O3 0.490310 0.336070 0.056472
O O4 0.500000 0.000000 0.000000
O O5 0.381347 0.896184 0.906252
O O6 0.376490 0.773567 0.797431
O O7 0.431443 0.148649 0.806724
O O8 0.283716 0.065008 0.883618
O O9 0.545799 0.445638 0.771716
O O10 0.250000 0.750000 0.000000
O O11 0.214880 0.391189 0.965539
O O12 0.295014 0.573565 0.326705
O O13 0.364935 0.398319 0.196693
O O14 0.842606 0.802833 0.099964
#
# Coordination Sequence:
#
# PCOD9300071 Si02
#       7
#     8   8   4   8   8   8   8
#     4  11  26  46  69 103 137 190 235 295 357 418
#     4  11  25  43  72 100 139 185 231 296 359 418
#     4  10  26  44  64 104 138 176 246 278 370 424
#     4  12  24  45  75 100 143 180 238 295 357 429
#     4  11  26  44  70 102 142 188 230 301 357 426
#     4  11  25  45  66 108 137 187 238 288 359 429
#     4  11  27  44  70 100 144 181 245 287 357 433
#
# _framework density 21.029803999999999
#
# number of rings (size 3 to 8) (size 9 to 14) (size 15 to 20)
#    0.000    0.923    3.077    1.846    8.615    1.231 
#    0.000    0.000    0.000    0.000    0.000    0.000 
#    0.000    0.000    0.000    0.000    0.000    0.000 
#
# Total GULP energy -145037.502583 kJ/mol
# GULP energy per Si atom -5578.365484 kJ/mol
# Density = 2.098194 g / cm^3
# Si number density = 21.029804 Si / 1000 Ang^3
#
#
#
# Elastic Constant Matrix: (Units=GPa)
#
#
# Indices 1 2 3 4 5 6 
#
# 1 94.6995 47.4158 14.0155 -0.0010 -4.9021 0.0140
# 2 47.4158 122.5384 43.1825 -0.0067 15.2125 0.0203
# 3 14.0155 43.1825 90.0963 -0.0030 26.0880 0.0007
# 4 -0.0010 -0.0067 -0.0030 28.7231 -0.0008 -5.7754
# 5 -4.9021 15.2125 26.0880 -0.0008 32.5476 0.0027
# 6 0.0140 0.0203 0.0007 -5.7754 0.0027 40.6693
#
#
#
# Elastic Compliance Matrix: (Units=1/GPa)
#
#
# Indices 1 2 3 4 5 6 
#
# 1 0.013849 -0.005683 -0.001047 -0.000001 0.005581 -0.000002
# 2 -0.005683 0.012179 -0.003981 0.000001 -0.003357 -0.000004
# 3 -0.001047 -0.003981 0.016509 0.000001 -0.011529 0.000003
# 4 -0.000001 0.000001 0.000001 0.035839 -0.000001 0.005089
# 5 0.005581 -0.003357 -0.011529 -0.000001 0.042375 -0.000003
# 6 -0.000002 -0.000004 0.000003 0.005089 -0.000003 0.025311
#
#
# Mechanical properties :
#
#
# Convention : Reuss Voigt Hill
#
# Bulk Modulus (GPa) = 47.35881 57.39575 52.37728
# Shear Modulus (GPa) = 28.64977 33.90269 31.27623
#
# Velocity S-wave (km/s) = 3.69499 4.01948 3.86065
# Velocity P-wave (km/s) = 6.38535 6.99239 6.69575
#
# Compressibility (1/GPa) = 0.02111539
#
# Stress axis : x y z
#
# Youngs Moduli (GPa) = 72.20817 82.10543 60.57459
#
# Poissons Ratio (x) = 0.46659 0.06340
# Poissons Ratio (y) = 0.41034 0.24117
# Poissons Ratio (z) = 0.07557 0.32689
#
# Static dielectric constant tensor:
#      x y z
#    x 1.813060 -0.000020 -0.004650 
#    y -0.000020 1.862460 0.000000 
#    z -0.004650 0.000000 1.626110 
# 
# From -- ./inp_files/278878.got.cif
#   From: 2010.05.17/outbox.cif.g08.bks.cpg/sg15_140_cif.got.tgz:278878.got - 2010.06.03 18:47:42.
