data_PCOD9300477
_publ_section_title
;
Structure prediction by ZEFSAII (Michael W. Deem and Ramdas Pophale) SiO2 
 PCOD9300477
Probable space group: C 2/C
;
_chemical_formula_sum "Si O2"
_cell_formula_units_Z 52
_cell_length_a 8.514263
_cell_length_b 12.255549
_cell_length_c 27.045431
_cell_angle_alpha 90.000000
_cell_angle_beta 53.771964
_cell_angle_gamma 90.000000
_cell_volume 2276.513874
_symmetry_space_group_name_H-M "C 2/C"
_symmetry_group_IT_number 15
_symmetry_cell_setting 'monoclinic'
loop_
_space_group_symop_operation_xyz
x,y,z
-x,y,1/2-z
-x,-y,-z
x,-y,1/2+z
1/2+x,1/2+y,z
1/2-x,1/2+y,1/2-z
1/2-x,1/2-y,-z
1/2+x,1/2-y,1/2+z
loop_
_atom_site_type_symbol
_atom_site_label
_atom_site_fract_x
_atom_site_fract_y
_atom_site_fract_z
Si Si1 0.608728 0.514806 0.868740
Si Si2 0.809624 0.213850 0.933309
Si Si3 0.636807 0.919001 0.094784
Si Si4 0.877219 0.182769 0.364882
Si Si5 0.579159 0.882505 0.001782
Si Si6 0.895014 0.388250 0.664013
Si Si7 0.500000 0.977843 0.750000
O O1 0.438655 0.604048 0.903902
O O2 0.698514 0.513771 0.906844
O O3 0.528643 0.403736 0.859524
O O4 0.805712 0.543793 0.801387
O O5 0.602279 0.190304 0.947478
O O6 0.940138 0.304551 0.883957
O O7 0.750000 0.250000 0.000000
O O8 0.578982 0.809380 0.134703
O O9 0.708501 0.894534 0.026331
O O10 0.448612 0.996437 0.128638
O O11 0.688017 0.167114 0.435148
O O12 0.805815 0.152979 0.322929
O O13 0.500000 0.000000 0.000000
O O14 0.927424 0.407766 0.716220
#
# Coordination Sequence:
#
# PCOD9300477 Si02
#       7
#     8   8   8   8   8   8   4
#     4  11  25  48  74 106 147 202 252 311 381 445
#     4  12  22  44  81 113 152 197 240 322 399 458
#     4  11  24  43  68 105 148 189 243 304 371 456
#     4  12  24  45  74 108 145 200 242 300 392 446
#     4  12  22  41  65 111 158 181 237 304 379 475
#     4  11  24  49  72 105 152 191 253 311 371 456
#     4  10  28  52  68 104 150 200 270 310 362 462
#
# _framework density 22.841943000000001
#
# number of rings (size 3 to 8) (size 9 to 14) (size 15 to 20)
#    0.000    0.615    6.154    0.462    4.308    1.231 
#    5.538    0.000    0.000    0.000    0.000    0.000 
#    0.000    0.000    0.000    0.000    0.000    0.000 
#
# Total GULP energy -145253.633271 kJ/mol
# GULP energy per Si atom -5586.678203 kJ/mol
# Density = 2.278995 g / cm^3
# Si number density = 22.841943 Si / 1000 Ang^3
#
#
#
# Elastic Constant Matrix: (Units=GPa)
#
#
# Indices 1 2 3 4 5 6 
#
# 1 95.1437 22.7242 38.3363 0.0000 9.4187 0.0000
# 2 22.7242 112.0592 2.0219 0.0000 -1.4668 0.0000
# 3 38.3363 2.0219 94.1977 0.0000 10.2222 0.0000
# 4 0.0000 0.0000 0.0000 29.0971 0.0000 1.3640
# 5 9.4187 -1.4668 10.2222 0.0000 53.1677 0.0000
# 6 0.0000 0.0000 0.0000 1.3640 0.0000 33.8037
#
#
#
# Elastic Compliance Matrix: (Units=1/GPa)
#
#
# Indices 1 2 3 4 5 6 
#
# 1 0.013394 -0.002640 -0.005238 0.000000 -0.001438 0.000000
# 2 -0.002640 0.009452 0.000810 0.000000 0.000573 0.000000
# 3 -0.005238 0.000810 0.012896 0.000000 -0.001529 0.000000
# 4 0.000000 0.000000 0.000000 0.034433 0.000000 -0.001389
# 5 -0.001438 0.000573 -0.001529 0.000000 0.019373 0.000000
# 6 0.000000 0.000000 0.000000 -0.001389 0.000000 0.029639
#
#
# Mechanical properties :
#
#
# Convention : Reuss Voigt Hill
#
# Bulk Modulus (GPa) = 46.28713 47.50725 46.89719
# Shear Modulus (GPa) = 35.58031 39.10159 37.34095
#
# Velocity S-wave (km/s) = 3.95102 4.14192 4.04759
# Velocity P-wave (km/s) = 6.41266 6.61191 6.51305
#
# Compressibility (1/GPa) = 0.02160428
#
# Stress axis : x y z
#
# Youngs Moduli (GPa) = 74.65939 105.79547 77.54086
#
# Poissons Ratio (x) = 0.27935 0.40619
# Poissons Ratio (y) = 0.19714 -0.06277
# Poissons Ratio (z) = 0.39109 -0.08565
#
# Static dielectric constant tensor:
#      x y z
#    x 1.916350 0.000000 -0.001010 
#    y 0.000000 1.878060 0.000000 
#    z -0.001010 0.000000 1.878390 
# 
# From -- ./inp_files/287915.got.cif
#   From: 2010.05.17/outbox.cif.g08.bks.cpg/sg15_144_cif.got.tgz:287915.got - 2010.06.03 18:47:42.
