data_PCOD9300897
_publ_section_title
;
Structure prediction by ZEFSAII (Michael W. Deem and Ramdas Pophale) SiO2 
 PCOD9300897
Probable space group: C 2/C
;
_chemical_formula_sum "Si O2"
_cell_formula_units_Z 48
_cell_length_a 22.590878
_cell_length_b 9.740394
_cell_length_c 9.649704
_cell_angle_alpha 90.000000
_cell_angle_beta 80.366351
_cell_angle_gamma 90.000000
_cell_volume 2093.416195
_symmetry_space_group_name_H-M "C 2/C"
_symmetry_group_IT_number 15
_symmetry_cell_setting 'monoclinic'
loop_
_space_group_symop_operation_xyz
x,y,z
-x,y,1/2-z
-x,-y,-z
x,-y,1/2+z
1/2+x,1/2+y,z
1/2-x,1/2+y,1/2-z
1/2-x,1/2-y,-z
1/2+x,1/2-y,1/2+z
loop_
_atom_site_type_symbol
_atom_site_label
_atom_site_fract_x
_atom_site_fract_y
_atom_site_fract_z
Si Si1 0.705450 0.227353 0.839855
Si Si2 0.340072 0.294405 0.930193
Si Si3 0.928191 0.000110 0.037614
Si Si4 0.928866 0.820263 0.295237
Si Si5 0.242949 0.520455 0.046435
Si Si6 0.173713 0.651323 0.293768
O O1 0.661757 0.249118 0.727667
O O2 0.704208 0.105850 0.950448
O O3 0.774915 0.232523 0.755849
O O4 0.706279 0.370371 0.924936
O O5 0.396771 0.380264 0.960147
O O6 0.281815 0.393795 0.975344
O O7 0.164156 0.334397 0.962303
O O8 0.915087 0.139908 0.958870
O O9 0.913778 0.951399 0.199923
O O10 0.000000 0.000000 0.000000
O O11 0.887087 0.698730 0.256248
O O12 0.000000 0.792322 0.250000
O O13 0.202326 0.520793 0.202378
#
# Coordination Sequence:
#
# PCOD9300897 Si02
#       6
#     8   8   8   8   8   8
#     4   9  20  32  45  73  98 127 174 199 242 305
#     4  11  20  32  54  68 105 145 152 207 262 278
#     4   9  19  29  44  71  95 130 172 190 236 315
#     4   9  17  29  45  65  95 128 160 202 247 289
#     4   9  21  32  47  74  99 129 173 204 243 301
#     4   9  19  33  46  73 101 124 175 199 237 310
#
# _framework density 22.929030000000001
#
# number of rings (size 3 to 8) (size 9 to 14) (size 15 to 20)
#    1.000    1.667    0.000    1.500    7.000    0.000 
#    0.000    0.000    0.000    0.000    0.000    1.167 
#    0.000    3.000    0.000    1.000    0.000    0.167 
#
# Total GULP energy -133734.581250 kJ/mol
# GULP energy per Si atom -5572.274219 kJ/mol
# Density = 2.287684 g / cm^3
# Si number density = 22.929030 Si / 1000 Ang^3
#
#
#
# Elastic Constant Matrix: (Units=GPa)
#
#
# Indices 1 2 3 4 5 6 
#
# 1 116.9752 13.2600 17.4092 0.0000 21.6954 0.0000
# 2 13.2600 75.5517 15.3434 0.0000 3.7154 0.0000
# 3 17.4092 15.3434 133.8298 0.0000 17.4173 0.0000
# 4 0.0000 0.0000 0.0000 33.9020 0.0000 -0.2780
# 5 21.6954 3.7154 17.4173 0.0000 36.2619 0.0000
# 6 0.0000 0.0000 0.0000 -0.2780 0.0000 29.5374
#
#
#
# Elastic Compliance Matrix: (Units=1/GPa)
#
#
# Indices 1 2 3 4 5 6 
#
# 1 0.009787 -0.001365 -0.000398 0.000000 -0.005525 0.000000
# 2 -0.001365 0.013758 -0.001411 0.000000 0.000085 0.000000
# 3 -0.000398 -0.001411 0.008145 0.000000 -0.003530 0.000000
# 4 0.000000 0.000000 0.000000 0.029499 0.000000 0.000278
# 5 -0.005525 0.000085 -0.003530 0.000000 0.032569 0.000000
# 6 0.000000 0.000000 0.000000 0.000278 0.000000 0.033858
#
#
# Mechanical properties :
#
#
# Convention : Reuss Voigt Hill
#
# Bulk Modulus (GPa) = 39.45864 46.48687 42.97276
# Shear Modulus (GPa) = 35.10936 38.62984 36.86960
#
# Velocity S-wave (km/s) = 3.91732 4.10903 4.01432
# Velocity P-wave (km/s) = 6.14060 6.54450 6.34576
#
# Compressibility (1/GPa) = 0.02534299
#
# Stress axis : x y z
#
# Youngs Moduli (GPa) = 102.17136 72.68540 122.77427
#
# Poissons Ratio (x) = 0.09924 0.04882
# Poissons Ratio (y) = 0.13950 0.17320
# Poissons Ratio (z) = 0.04063 0.10254
#
# Static dielectric constant tensor:
#      x y z
#    x 1.841550 0.000000 0.020740 
#    y 0.000000 1.980470 0.000000 
#    z 0.020740 0.000000 1.958880 
# 
# From -- ./inp_files/110656.got.cif
#   From: 2010.05.17/outbox.cif.g08.bks.cpg/sg15_56_cif.got.tgz:110656.got - 2010.06.03 18:47:42.
