data_PCOD9300163
_publ_section_title
;
Structure prediction by ZEFSAII (Michael W. Deem and Ramdas Pophale) SiO2 
 PCOD9300163
Probable space group: C 2/C
;
_chemical_formula_sum "Si O2"
_cell_formula_units_Z 36
_cell_length_a 18.864649
_cell_length_b 5.129069
_cell_length_c 18.641856
_cell_angle_alpha 90.000000
_cell_angle_beta 48.560021
_cell_angle_gamma 90.000000
_cell_volume 1352.180424
_symmetry_space_group_name_H-M "C 2/C"
_symmetry_group_IT_number 15
_symmetry_cell_setting 'monoclinic'
loop_
_space_group_symop_operation_xyz
x,y,z
-x,y,1/2-z
-x,-y,-z
x,-y,1/2+z
1/2+x,1/2+y,z
1/2-x,1/2+y,1/2-z
1/2-x,1/2-y,-z
1/2+x,1/2-y,1/2+z
loop_
_atom_site_type_symbol
_atom_site_label
_atom_site_fract_x
_atom_site_fract_y
_atom_site_fract_z
Si Si1 0.640741 0.316759 0.263508
Si Si2 0.587820 0.184768 0.877604
Si Si3 0.613849 0.181974 0.565816
Si Si4 0.817556 0.812891 0.545744
Si Si5 0.000000 0.985905 0.750000
O O1 0.647833 0.599741 0.294201
O O2 0.724895 0.253655 0.153151
O O3 0.544594 0.334947 0.281340
O O4 0.629179 0.097810 0.331648
O O5 0.482631 0.190563 0.916509
O O6 0.597953 0.266018 0.953035
O O7 0.680807 0.395709 0.484178
O O8 0.580958 0.297838 0.663869
O O9 0.660073 0.898838 0.530651
#
# Coordination Sequence:
#
# PCOD9300163 Si02
#       5
#     8   8   8   8   4
#     4  11  24  41  67  90 129 166 202 255 305 374
#     4  11  22  42  65  95 128 163 198 252 322 371
#     4  11  24  40  65  90 129 164 204 258 303 372
#     4  12  23  40  66 100 121 157 211 262 307 358
#     4  10  26  46  60  88 126 176 210 242 318 366
#
# _framework density 26.623666
#
# number of rings (size 3 to 8) (size 9 to 14) (size 15 to 20)
#    0.000    0.889    0.000    8.000    0.000    9.778 
#    0.000    0.000    0.000    0.000    0.000    0.000 
#    0.000    0.000    0.000    0.000    0.000    0.000 
#
# Total GULP energy -101128.274928 kJ/mol
# GULP energy per Si atom -5618.237496 kJ/mol
# Density = 2.656307 g / cm^3
# Si number density = 26.623666 Si / 1000 Ang^3
#
#
#
# Elastic Constant Matrix: (Units=GPa)
#
#
# Indices 1 2 3 4 5 6 
#
# 1 77.0461 1.5064 -13.6416 -0.0087 2.2120 0.0113
# 2 1.5064 115.7636 27.9068 0.1164 -14.1909 0.1850
# 3 -13.6416 27.9068 102.8293 -0.0064 -14.6601 0.0313
# 4 -0.0087 0.1164 -0.0064 49.2308 0.0194 2.3603
# 5 2.2120 -14.1909 -14.6601 0.0194 46.7480 -0.0169
# 6 0.0113 0.1850 0.0313 2.3603 -0.0169 6.9107
#
#
#
# Elastic Compliance Matrix: (Units=1/GPa)
#
#
# Indices 1 2 3 4 5 6 
#
# 1 0.013338 -0.000664 0.001917 0.000005 -0.000232 -0.000015
# 2 -0.000664 0.009480 -0.002351 -0.000013 0.002172 -0.000233
# 3 0.001917 -0.002351 0.010994 0.000006 0.002643 0.000015
# 4 0.000005 -0.000013 0.000006 0.020651 -0.000013 -0.007053
# 5 -0.000232 0.002172 0.002643 -0.000013 0.022890 -0.000009
# 6 -0.000015 -0.000233 0.000015 -0.007053 -0.000009 0.147119
#
#
# Mechanical properties :
#
#
# Convention : Reuss Voigt Hill
#
# Bulk Modulus (GPa) = 31.63001 36.35357 33.99179
# Shear Modulus (GPa) = 21.07855 39.23572 30.15713
#
# Velocity S-wave (km/s) = 2.81681 3.84307 3.36924
# Velocity P-wave (km/s) = 4.74188 5.77724 5.28497
#
# Compressibility (1/GPa) = 0.03161554
#
# Stress axis : x y z
#
# Youngs Moduli (GPa) = 74.97241 105.48114 90.95807
#
# Poissons Ratio (x) = 0.07004 -0.17434
# Poissons Ratio (y) = 0.04978 0.21387
# Poissons Ratio (z) = -0.14370 0.24801
#
# Static dielectric constant tensor:
#      x y z
#    x 2.167140 -0.000090 -0.001670 
#    y -0.000090 2.006970 -0.000030 
#    z -0.001670 -0.000030 2.022980 
# 
# From -- ./inp_files/170460.got.cif
#   From: 2010.05.17/outbox.cif.g08.bks.cpg/sg15_86_cif.got.tgz:170460.got - 2010.06.03 18:47:42.
