data_PCOD9300425
_publ_section_title
;
Structure prediction by ZEFSAII (Michael W. Deem and Ramdas Pophale) SiO2 
 PCOD9300425
Probable space group: C 2/C
;
_chemical_formula_sum "Si O2"
_cell_formula_units_Z 60
_cell_length_a 15.951472
_cell_length_b 17.126129
_cell_length_c 12.352754
_cell_angle_alpha 90.000000
_cell_angle_beta 122.969143
_cell_angle_gamma 90.000000
_cell_volume 2831.176687
_symmetry_space_group_name_H-M "C 2/C"
_symmetry_group_IT_number 15
_symmetry_cell_setting 'monoclinic'
loop_
_space_group_symop_operation_xyz
x,y,z
-x,y,1/2-z
-x,-y,-z
x,-y,1/2+z
1/2+x,1/2+y,z
1/2-x,1/2+y,1/2-z
1/2-x,1/2-y,-z
1/2+x,1/2-y,1/2+z
loop_
_atom_site_type_symbol
_atom_site_label
_atom_site_fract_x
_atom_site_fract_y
_atom_site_fract_z
Si Si1 0.800635 0.203670 0.710506
Si Si2 0.086993 0.591759 0.039824
Si Si3 0.481456 0.398931 0.612766
Si Si4 0.129978 0.580788 0.530999
Si Si5 0.343335 0.253624 0.486431
Si Si6 0.000000 0.136172 0.750000
Si Si7 0.323645 0.873164 0.662396
Si Si8 0.617035 0.550375 0.024044
O O1 0.724108 0.132862 0.634877
O O2 0.806883 0.220748 0.841824
O O3 0.910707 0.183826 0.742846
O O4 0.775936 0.286475 0.636460
O O5 0.140840 0.513048 0.036441
O O6 0.115440 0.666468 0.991136
O O7 0.122172 0.608184 0.187534
O O8 0.966871 0.587763 0.960580
O O9 0.500000 0.421829 0.750000
O O10 0.430224 0.314643 0.577736
O O11 0.407283 0.458915 0.499040
O O12 0.581162 0.409646 0.610897
O O13 0.109630 0.614572 0.396738
O O14 0.250000 0.250000 0.500000
O O15 0.948477 0.087143 0.618407
O O16 0.231617 0.932117 0.585049
#
# Coordination Sequence:
#
# PCOD9300425 Si02
#       8
#     8   8   8   8   8   4   8   8
#     4  11  26  41  73 104 136 174 231 287 353 400
#     4  10  27  45  66  98 138 178 234 278 336 410
#     4  11  26  43  68 100 140 183 227 286 350 424
#     4  11  24  45  71  98 133 182 227 283 342 405
#     4  11  27  44  65  98 140 185 224 283 339 421
#     4  12  22  44  68 108 138 172 220 302 344 404
#     4  11  25  40  71 100 134 178 223 294 338 409
#     4  11  25  42  69 104 134 175 231 286 358 400
#
# _framework density 21.192602000000001
#
# number of rings (size 3 to 8) (size 9 to 14) (size 15 to 20)
#    0.000    1.067    3.333    0.800   13.067    0.000 
#    0.000    2.667    0.000    0.000    0.000    0.000 
#    0.000    0.000    0.000    0.000    0.000    0.000 
#
# Total GULP energy -167669.225107 kJ/mol
# GULP energy per Si atom -5588.974170 kJ/mol
# Density = 2.114437 g / cm^3
# Si number density = 21.192602 Si / 1000 Ang^3
#
#
#
# Elastic Constant Matrix: (Units=GPa)
#
#
# Indices 1 2 3 4 5 6 
#
# 1 105.9579 58.0501 23.0018 0.0000 -12.9644 0.0000
# 2 58.0501 140.0650 9.2293 0.0000 -3.8785 0.0000
# 3 23.0018 9.2293 53.8064 0.0000 -20.8958 0.0000
# 4 0.0000 0.0000 0.0000 32.9703 0.0000 14.9278
# 5 -12.9644 -3.8785 -20.8958 0.0000 41.1955 0.0000
# 6 0.0000 0.0000 0.0000 14.9278 0.0000 71.8857
#
#
#
# Elastic Compliance Matrix: (Units=1/GPa)
#
#
# Indices 1 2 3 4 5 6 
#
# 1 0.013419 -0.005239 -0.004221 0.000000 0.001589 0.000000
# 2 -0.005239 0.009267 0.000434 0.000000 -0.000556 0.000000
# 3 -0.004221 0.000434 0.024676 0.000000 0.011229 0.000000
# 4 0.000000 0.000000 0.000000 0.033478 0.000000 -0.006952
# 5 0.001589 -0.000556 0.011229 0.000000 0.030418 0.000000
# 6 0.000000 0.000000 0.000000 -0.006952 0.000000 0.015355
#
#
# Mechanical properties :
#
#
# Convention : Reuss Voigt Hill
#
# Bulk Modulus (GPa) = 34.11805 53.37684 43.74745
# Shear Modulus (GPa) = 32.37635 43.18015 37.77825
#
# Velocity S-wave (km/s) = 3.91285 4.51878 4.22668
# Velocity P-wave (km/s) = 6.04548 7.24341 6.67139
#
# Compressibility (1/GPa) = 0.02931000
#
# Stress axis : x y z
#
# Youngs Moduli (GPa) = 74.52246 107.91012 40.52549
#
# Poissons Ratio (x) = 0.56538 0.17105
# Poissons Ratio (y) = 0.39045 -0.01760
# Poissons Ratio (z) = 0.31454 -0.04686
#
# Static dielectric constant tensor:
#      x y z
#    x 1.765050 0.000000 -0.005120 
#    y 0.000000 1.791630 0.000000 
#    z -0.005120 0.000000 1.759910 
# 
# From -- ./inp_files/98797.got.cif
#   From: 2010.05.17/outbox.cif.g08.bks.cpg/sg15_50_cif.got.tgz:98797.got - 2010.06.03 18:47:42.
