data_PCOD9300543
_publ_section_title
;
Structure prediction by ZEFSAII (Michael W. Deem and Ramdas Pophale) SiO2 
 PCOD9300543
Probable space group: C 2/C
;
_chemical_formula_sum "Si O2"
_cell_formula_units_Z 40
_cell_length_a 14.031588
_cell_length_b 9.827534
_cell_length_c 14.846290
_cell_angle_alpha 90.000000
_cell_angle_beta 51.178408
_cell_angle_gamma 90.000000
_cell_volume 1595.010372
_symmetry_space_group_name_H-M "C 2/C"
_symmetry_group_IT_number 15
_symmetry_cell_setting 'monoclinic'
loop_
_space_group_symop_operation_xyz
x,y,z
-x,y,1/2-z
-x,-y,-z
x,-y,1/2+z
1/2+x,1/2+y,z
1/2-x,1/2+y,1/2-z
1/2-x,1/2-y,-z
1/2+x,1/2-y,1/2+z
loop_
_atom_site_type_symbol
_atom_site_label
_atom_site_fract_x
_atom_site_fract_y
_atom_site_fract_z
Si Si1 0.149867 0.720103 0.441665
Si Si2 0.007200 0.052117 0.098010
Si Si3 0.260052 0.946729 0.027372
Si Si4 0.863594 0.425451 0.310013
Si Si5 0.714054 0.625578 0.733154
O O1 0.171806 0.568017 0.458238
O O2 0.149674 0.759274 0.334686
O O3 0.037516 0.790167 0.561511
O O4 0.122091 0.014928 0.580081
O O5 0.883322 0.999354 0.216036
O O6 0.000000 0.000000 0.000000
O O7 0.230302 0.308422 0.101474
O O8 0.254283 0.834247 0.109117
O O9 0.332282 0.944314 0.890526
O O10 0.824100 0.431359 0.229831
O O11 0.000000 0.387734 0.250000
#
# Coordination Sequence:
#
# PCOD9300543 Si02
#       5
#     8   8   8   8   8
#     4   8  19  32  50  86 111 134 189 229 265 332
#     4   9  15  31  52  81 112 138 178 233 276 324
#     4  11  18  32  58  79 116 149 174 230 291 311
#     4   9  19  33  50  77 111 139 188 225 265 330
#     4   9  20  32  52  82 113 144 184 227 276 330
#
# _framework density 25.078206000000002
#
# number of rings (size 3 to 8) (size 9 to 14) (size 15 to 20)
#    1.200    1.600    2.000    3.000    0.000    4.000 
#    0.000    0.000    0.000    6.000    0.000    0.000 
#    0.000    0.000    0.000    0.000    0.000    0.000 
#
# Total GULP energy -111484.716795 kJ/mol
# GULP energy per Si atom -5574.235840 kJ/mol
# Density = 2.502113 g / cm^3
# Si number density = 25.078206 Si / 1000 Ang^3
#
#
#
# Elastic Constant Matrix: (Units=GPa)
#
#
# Indices 1 2 3 4 5 6 
#
# 1 103.6126 5.9480 23.7998 0.0000 15.8168 0.0000
# 2 5.9480 82.2572 0.9987 0.0000 1.0285 0.0000
# 3 23.7998 0.9987 39.4197 0.0000 25.2886 0.0000
# 4 0.0000 0.0000 0.0000 16.1675 0.0000 8.1523
# 5 15.8168 1.0285 25.2886 0.0000 58.1097 0.0000
# 6 0.0000 0.0000 0.0000 8.1523 0.0000 25.9569
#
#
#
# Elastic Compliance Matrix: (Units=1/GPa)
#
#
# Indices 1 2 3 4 5 6 
#
# 1 0.011250 -0.000731 -0.006683 0.000000 -0.000141 0.000000
# 2 -0.000731 0.012209 0.000198 0.000000 -0.000103 0.000000
# 3 -0.006683 0.000198 0.039169 0.000000 -0.015230 0.000000
# 4 0.000000 0.000000 0.000000 0.073491 0.000000 -0.023081
# 5 -0.000141 -0.000103 -0.015230 0.000000 0.023877 0.000000
# 6 0.000000 0.000000 0.000000 -0.023081 0.000000 0.045775
#
#
# Mechanical properties :
#
#
# Convention : Reuss Voigt Hill
#
# Bulk Modulus (GPa) = 20.74885 31.86470 26.30678
# Shear Modulus (GPa) = 21.16252 33.01634 27.08943
#
# Velocity S-wave (km/s) = 2.90808 3.63235 3.29020
# Velocity P-wave (km/s) = 4.42352 5.50687 4.99465
#
# Compressibility (1/GPa) = 0.04819545
#
# Stress axis : x y z
#
# Youngs Moduli (GPa) = 88.88941 81.90872 25.53067
#
# Poissons Ratio (x) = 0.05984 0.17063
# Poissons Ratio (y) = 0.06494 -0.00506
# Poissons Ratio (z) = 0.59409 -0.01623
#
# Static dielectric constant tensor:
#      x y z
#    x 1.950440 0.000000 0.041280 
#    y 0.000000 2.051080 0.000000 
#    z 0.041280 0.000000 2.124140 
# 
# From -- ./inp_files/96009.got.cif
#   From: 2010.05.17/outbox.cif.g08.bks.cpg/sg15_49_cif.got.tgz:96009.got - 2010.06.03 18:47:42.
