data_PCOD9300467
_publ_section_title
;
Structure prediction by ZEFSAII (Michael W. Deem and Ramdas Pophale) SiO2 
 PCOD9300467
Probable space group: C 2/C
;
_chemical_formula_sum "Si O2"
_cell_formula_units_Z 52
_cell_length_a 10.807728
_cell_length_b 9.388614
_cell_length_c 26.652777
_cell_angle_alpha 90.000000
_cell_angle_beta 119.804605
_cell_angle_gamma 90.000000
_cell_volume 2346.717003
_symmetry_space_group_name_H-M "C 2/C"
_symmetry_group_IT_number 15
_symmetry_cell_setting 'monoclinic'
loop_
_space_group_symop_operation_xyz
x,y,z
-x,y,1/2-z
-x,-y,-z
x,-y,1/2+z
1/2+x,1/2+y,z
1/2-x,1/2+y,1/2-z
1/2-x,1/2-y,-z
1/2+x,1/2-y,1/2+z
loop_
_atom_site_type_symbol
_atom_site_label
_atom_site_fract_x
_atom_site_fract_y
_atom_site_fract_z
Si Si1 0.506298 0.806900 0.843211
Si Si2 0.784836 0.732157 0.662302
Si Si3 0.565521 0.901624 0.056684
Si Si4 0.560966 0.590296 0.466676
Si Si5 0.608389 0.491941 0.365966
Si Si6 0.170729 0.468492 0.422163
Si Si7 0.000000 0.475966 0.250000
O O1 0.367109 0.788124 0.849725
O O2 0.532787 0.647251 0.828871
O O3 0.647511 0.867677 0.901023
O O4 0.486169 0.921428 0.795143
O O5 0.880167 0.867904 0.665746
O O6 0.773685 0.632096 0.610869
O O7 0.864975 0.628982 0.717321
O O8 0.512981 0.740970 0.038952
O O9 0.730470 0.938805 0.091976
O O10 0.490526 0.934106 0.094736
O O11 0.500000 0.000000 0.000000
O O12 0.500000 0.500000 0.500000
O O13 0.538617 0.535172 0.405609
O O14 0.730197 0.574203 0.511207
#
# Coordination Sequence:
#
# PCOD9300467 Si02
#       7
#     8   8   8   8   8   8   4
#     4  11  26  46  72 101 133 171 226 284 343 407
#     4  11  24  48  72  96 132 176 219 285 348 402
#     4  12  23  39  65  95 143 191 227 268 318 387
#     4  12  25  38  61 101 145 187 233 266 318 395
#     4  12  25  41  69 103 135 184 228 272 336 399
#     4  11  22  42  64  98 143 183 224 270 324 394
#     4  10  28  50  70 102 130 162 224 292 354 420
#
# _framework density 22.158614
#
# number of rings (size 3 to 8) (size 9 to 14) (size 15 to 20)
#    0.000    0.615    4.615    3.231    2.154    5.538 
#    0.000    0.000    0.000    0.000    0.000    0.000 
#    0.000    0.000    0.000    0.000    0.000    0.000 
#
# Total GULP energy -145189.829816 kJ/mol
# GULP energy per Si atom -5584.224224 kJ/mol
# Density = 2.210818 g / cm^3
# Si number density = 22.158614 Si / 1000 Ang^3
#
#
#
# Elastic Constant Matrix: (Units=GPa)
#
#
# Indices 1 2 3 4 5 6 
#
# 1 114.6169 54.6141 15.3334 0.0000 -19.5260 0.0000
# 2 54.6141 170.8172 40.0952 0.0000 -7.3427 0.0000
# 3 15.3334 40.0952 58.2207 0.0000 -3.7017 0.0000
# 4 0.0000 0.0000 0.0000 33.4496 0.0000 -3.6777
# 5 -19.5260 -7.3427 -3.7017 0.0000 20.9149 0.0000
# 6 0.0000 0.0000 0.0000 -3.6777 0.0000 43.0439
#
#
#
# Elastic Compliance Matrix: (Units=1/GPa)
#
#
# Indices 1 2 3 4 5 6 
#
# 1 0.012075 -0.003378 -0.000215 0.000000 0.010049 0.000000
# 2 -0.003378 0.007983 -0.004683 0.000000 -0.001180 0.000000
# 3 -0.000215 -0.004683 0.020572 0.000000 0.001797 0.000000
# 4 0.000000 0.000000 0.000000 0.030179 0.000000 0.002579
# 5 0.010049 -0.001180 0.001797 0.000000 0.057098 0.000000
# 6 0.000000 0.000000 0.000000 0.002579 0.000000 0.023452
#
#
# Mechanical properties :
#
#
# Convention : Reuss Voigt Hill
#
# Bulk Modulus (GPa) = 41.53175 62.63779 52.08477
# Shear Modulus (GPa) = 28.41922 35.05583 31.73752
#
# Velocity S-wave (km/s) = 3.58514 3.98180 3.78866
# Velocity P-wave (km/s) = 5.99343 7.03342 6.53415
#
# Compressibility (1/GPa) = 0.02407797
#
# Stress axis : x y z
#
# Youngs Moduli (GPa) = 82.81465 125.26937 48.61037
#
# Poissons Ratio (x) = 0.42320 0.01044
# Poissons Ratio (y) = 0.27978 0.22764
# Poissons Ratio (z) = 0.01778 0.58662
#
# Static dielectric constant tensor:
#      x y z
#    x 2.002940 0.000000 0.188150 
#    y 0.000000 1.891280 0.000000 
#    z 0.188150 0.000000 2.039150 
# 
# From -- ./inp_files/291703.got.cif
#   From: 2010.05.17/outbox.cif.g08.bks.cpg/sg15_146_cif.got.tgz:291703.got - 2010.06.03 18:47:42.
