data_PCOD9300378
_publ_section_title
;
Structure prediction by ZEFSAII (Michael W. Deem and Ramdas Pophale) SiO2 
 PCOD9300378
Probable space group: C 2/C
;
_chemical_formula_sum "Si O2"
_cell_formula_units_Z 36
_cell_length_a 22.297155
_cell_length_b 5.777787
_cell_length_c 11.919366
_cell_angle_alpha 90.000000
_cell_angle_beta 63.968119
_cell_angle_gamma 90.000000
_cell_volume 1379.768981
_symmetry_space_group_name_H-M "C 2/C"
_symmetry_group_IT_number 15
_symmetry_cell_setting 'monoclinic'
loop_
_space_group_symop_operation_xyz
x,y,z
-x,y,1/2-z
-x,-y,-z
x,-y,1/2+z
1/2+x,1/2+y,z
1/2-x,1/2+y,1/2-z
1/2-x,1/2-y,-z
1/2+x,1/2-y,1/2+z
loop_
_atom_site_type_symbol
_atom_site_label
_atom_site_fract_x
_atom_site_fract_y
_atom_site_fract_z
Si Si1 0.157492 0.987559 0.349276
Si Si2 0.216046 0.352893 0.639466
Si Si3 0.545817 0.812167 0.524799
Si Si4 0.874007 0.680799 0.907901
Si Si5 0.000000 0.013961 0.250000
O O1 0.163596 0.827559 0.235179
O O2 0.152269 0.823528 0.464002
O O3 0.226833 0.119109 0.314284
O O4 0.095137 0.160325 0.408395
O O5 0.250000 0.250000 0.500000
O O6 0.181106 0.593832 0.634040
O O7 0.497894 0.355129 0.362062
O O8 0.500000 0.000000 0.500000
O O9 0.594621 0.946984 0.568429
O O10 0.935185 0.825839 0.809546
#
# Coordination Sequence:
#
# PCOD9300378 Si02
#       5
#     8   8   8   8   4
#     4  11  27  50  79 121 155 213 274 332 400 486
#     4  12  25  52  81 115 161 213 269 333 406 474
#     4  11  26  52  77 120 160 205 264 338 402 485
#     4  11  25  50  79 113 159 213 263 335 400 480
#     4  10  26  50  78 116 154 212 266 326 414 474
#
# _framework density 26.091324
#
# number of rings (size 3 to 8) (size 9 to 14) (size 15 to 20)
#    0.000    0.889    2.222    2.667    0.000    8.889 
#    8.000    3.333    0.000    0.000    0.000    0.000 
#    0.000    0.000    0.000    0.000    0.000    0.000 
#
# Total GULP energy -101154.464182 kJ/mol
# GULP energy per Si atom -5619.692455 kJ/mol
# Density = 2.603194 g / cm^3
# Si number density = 26.091324 Si / 1000 Ang^3
#
#
#
# Elastic Constant Matrix: (Units=GPa)
#
#
# Indices 1 2 3 4 5 6 
#
# 1 132.0731 68.9896 72.4054 0.0000 -8.1752 0.0000
# 2 68.9896 146.3520 89.4972 0.0000 -18.4427 0.0000
# 3 72.4054 89.4972 171.4373 0.0000 -20.5728 0.0000
# 4 0.0000 0.0000 0.0000 52.0070 0.0000 14.2422
# 5 -8.1752 -18.4427 -20.5728 0.0000 51.0943 0.0000
# 6 0.0000 0.0000 0.0000 14.2422 0.0000 68.6824
#
#
#
# Elastic Compliance Matrix: (Units=1/GPa)
#
#
# Indices 1 2 3 4 5 6 
#
# 1 0.010923 -0.003471 -0.002881 0.000000 -0.000665 0.000000
# 2 -0.003471 0.011265 -0.004196 0.000000 0.001821 0.000000
# 3 -0.002881 -0.004196 0.009460 0.000000 0.001834 0.000000
# 4 0.000000 0.000000 0.000000 0.020386 0.000000 -0.004227
# 5 -0.000665 0.001821 0.001834 0.000000 0.020861 0.000000
# 6 0.000000 0.000000 0.000000 -0.004227 0.000000 0.015436
#
#
# Mechanical properties :
#
#
# Convention : Reuss Voigt Hill
#
# Bulk Modulus (GPa) = 94.77222 101.29406 98.03314
# Shear Modulus (GPa) = 44.26960 48.95475 46.61217
#
# Velocity S-wave (km/s) = 4.12359 4.33631 4.23129
# Velocity P-wave (km/s) = 7.68597 7.99866 7.84387
#
# Compressibility (1/GPa) = 0.01055162
#
# Stress axis : x y z
#
# Youngs Moduli (GPa) = 91.55016 88.77433 105.70430
#
# Poissons Ratio (x) = 0.30814 0.30454
# Poissons Ratio (y) = 0.31777 0.44354
# Poissons Ratio (z) = 0.26376 0.37250
#
# Static dielectric constant tensor:
#      x y z
#    x 2.068910 0.000000 0.027330 
#    y 0.000000 2.063920 0.000000 
#    z 0.027330 0.000000 2.007250 
# 
# From -- ./inp_files/115596.got.cif
#   From: 2010.05.17/outbox.cif.g08.bks.cpg/sg15_58_cif.got.tgz:115596.got - 2010.06.03 18:47:42.
