data_PCOD9300953
_publ_section_title
;
Structure prediction by ZEFSAII (Michael W. Deem and Ramdas Pophale) SiO2 
 PCOD9300953
Probable space group: C 2/C
;
_chemical_formula_sum "Si O2"
_cell_formula_units_Z 40
_cell_length_a 7.153524
_cell_length_b 12.351457
_cell_length_c 16.754351
_cell_angle_alpha 90.000000
_cell_angle_beta 89.736811
_cell_angle_gamma 90.000000
_cell_volume 1480.339259
_symmetry_space_group_name_H-M "C 2/C"
_symmetry_group_IT_number 15
_symmetry_cell_setting 'monoclinic'
loop_
_space_group_symop_operation_xyz
x,y,z
-x,y,1/2-z
-x,-y,-z
x,-y,1/2+z
1/2+x,1/2+y,z
1/2-x,1/2+y,1/2-z
1/2-x,1/2-y,-z
1/2+x,1/2-y,1/2+z
loop_
_atom_site_type_symbol
_atom_site_label
_atom_site_fract_x
_atom_site_fract_y
_atom_site_fract_z
Si Si1 0.056126 0.788877 0.957728
Si Si2 0.463733 0.627398 0.884691
Si Si3 0.748447 0.207084 0.202402
Si Si4 0.000000 0.407847 0.250000
Si Si5 0.000000 0.962316 0.750000
Si Si6 0.038247 0.440280 0.418117
O O1 0.130888 0.834566 0.874777
O O2 0.954627 0.679910 0.931115
O O3 0.250000 0.750000 0.000000
O O4 0.955041 0.855582 0.026714
O O5 0.439185 0.744693 0.838983
O O6 0.543933 0.543731 0.822359
O O7 0.260039 0.575685 0.905789
O O8 0.816609 0.114823 0.263321
O O9 0.834889 0.320635 0.234350
O O10 0.971581 0.476506 0.330610
O O11 0.000000 0.500000 0.500000
#
# Coordination Sequence:
#
# PCOD9300953 Si02
#       6
#     8   8   8   4   4   8
#     4   7  14  32  51  67 106 138 169 228 266 313
#     4   9  19  36  50  82 107 139 190 220 275 341
#     4   8  16  34  55  71 106 145 174 228 273 316
#     4   7  14  30  51  72 104 141 176 222 275 320
#     4  11  20  34  59  76 112 149 178 224 283 334
#     4   9  16  32  54  79 107 144 182 223 279 328
#
# _framework density 27.020831000000001
#
# number of rings (size 3 to 8) (size 9 to 14) (size 15 to 20)
#    0.000    4.400    0.000    0.000    0.000    0.800 
#   25.200    0.000    0.000    9.600    0.000    0.000 
#    0.000    0.000    0.000    0.000    0.000    0.000 
#
# Total GULP energy -111358.612354 kJ/mol
# GULP energy per Si atom -5567.930618 kJ/mol
# Density = 2.695933 g / cm^3
# Si number density = 27.020831 Si / 1000 Ang^3
#
#
#
# Elastic Constant Matrix: (Units=GPa)
#
#
# Indices 1 2 3 4 5 6 
#
# 1 80.4925 5.0741 3.2871 0.0000 -12.1260 0.0000
# 2 5.0741 108.4918 52.5037 0.0000 -19.0482 0.0000
# 3 3.2871 52.5037 178.0983 0.0000 0.1355 0.0000
# 4 0.0000 0.0000 0.0000 16.3549 0.0000 30.4380
# 5 -12.1260 -19.0482 0.1355 0.0000 20.8302 0.0000
# 6 0.0000 0.0000 0.0000 30.4380 0.0000 -1.8942
#
#
#
# Elastic Compliance Matrix: (Units=1/GPa)
#
#
# Indices 1 2 3 4 5 6 
#
# 1 0.013751 0.001276 -0.000637 0.000000 0.009176 0.000000
# 2 0.001276 0.013360 -0.003972 0.000000 0.012986 0.000000
# 3 -0.000637 -0.003972 0.006801 0.000000 -0.004047 0.000000
# 4 0.000000 0.000000 0.000000 0.001978 0.000000 0.031791
# 5 0.009176 0.012986 -0.004047 0.000000 0.065250 0.000000
# 6 0.000000 0.000000 0.000000 0.031791 0.000000 -0.017082
#
#
# Mechanical properties :
#
#
# Convention : Reuss Voigt Hill
#
# Bulk Modulus (GPa) = 36.70195 54.31250 45.50722
# Shear Modulus (GPa) = 50.09710 27.47269 38.78489
#
# Velocity S-wave (km/s) = 4.31050 3.19207 3.79274
# Velocity P-wave (km/s) = 6.19566 5.80772 6.00482
#
# Compressibility (1/GPa) = 0.02724651
#
# Stress axis : x y z
#
# Youngs Moduli (GPa) = 72.71938 74.85213 147.04513
#
# Poissons Ratio (x) = -0.09553 0.09367
# Poissons Ratio (y) = -0.09281 0.58405
# Poissons Ratio (z) = 0.04632 0.29730
#
# Static dielectric constant tensor:
#      x y z
#    x 2.213960 0.000000 -0.009030 
#    y 0.000000 2.246700 0.000000 
#    z -0.009030 0.000000 2.315930 
# 
# From -- ./inp_files/142596.got.cif
#   From: 2010.05.17/outbox.cif.g08.bks.cpg/sg15_72_cif.got.tgz:142596.got - 2010.06.03 18:47:42.
