data_PCOD9300124
_publ_section_title
;
Structure prediction by ZEFSAII (Michael W. Deem and Ramdas Pophale) SiO2 
 PCOD9300124
Probable space group: C 2/C
;
_chemical_formula_sum "Si O2"
_cell_formula_units_Z 36
_cell_length_a 15.090990
_cell_length_b 11.842635
_cell_length_c 11.217180
_cell_angle_alpha 90.000000
_cell_angle_beta 39.220506
_cell_angle_gamma 90.000000
_cell_volume 1267.586158
_symmetry_space_group_name_H-M "C 2/C"
_symmetry_group_IT_number 15
_symmetry_cell_setting 'monoclinic'
loop_
_space_group_symop_operation_xyz
x,y,z
-x,y,1/2-z
-x,-y,-z
x,-y,1/2+z
1/2+x,1/2+y,z
1/2-x,1/2+y,1/2-z
1/2-x,1/2-y,-z
1/2+x,1/2-y,1/2+z
loop_
_atom_site_type_symbol
_atom_site_label
_atom_site_fract_x
_atom_site_fract_y
_atom_site_fract_z
Si Si1 0.000000 0.751885 0.250000
Si Si2 0.278746 0.276098 0.613721
Si Si3 0.680827 0.142682 0.629873
Si Si4 0.425925 0.493674 0.949534
Si Si5 0.413205 0.090240 0.012400
O O1 0.862083 0.762719 0.302822
O O2 0.897705 0.685084 0.459515
O O3 0.387749 0.377101 0.454951
O O4 0.213530 0.343220 0.792905
O O5 0.750000 0.250000 0.500000
O O6 0.787288 0.081263 0.607267
O O7 0.537607 0.175847 0.843327
O O8 0.648011 0.057968 0.554480
O O9 0.500000 0.451233 0.750000
O O10 0.500000 0.500000 0.000000
O O11 0.500000 0.000000 0.000000
#
# Coordination Sequence:
#
# PCOD9300124 Si02
#       5
#     4   8   8   8   8
#     4  10  26  44  74 112 152 194 268 338 394 488
#     4  11  24  47  72 112 152 207 265 330 412 483
#     4  11  28  49  73 120 161 208 275 340 413 492
#     4  12  27  47  79 113 165 218 277 341 422 506
#     4  11  25  47  78 108 152 214 263 331 407 504
#
# _framework density 28.400437
#
# number of rings (size 3 to 8) (size 9 to 14) (size 15 to 20)
#    0.000    0.889    3.333    1.333    9.333    1.778 
#    0.000    0.000    0.000    0.000    0.000    0.000 
#    0.000    0.000    0.000    0.000    0.000    0.000 
#
# Total GULP energy -100232.586801 kJ/mol
# GULP energy per Si atom -5568.477044 kJ/mol
# Density = 2.833580 g / cm^3
# Si number density = 28.400437 Si / 1000 Ang^3
#
#
#
# Elastic Constant Matrix: (Units=GPa)
#
#
# Indices 1 2 3 4 5 6 
#
# 1 223.9240 36.3680 67.6735 0.0000 1.5052 0.0000
# 2 36.3680 96.2931 -5.5027 0.0000 -7.8179 0.0000
# 3 67.6735 -5.5027 249.8517 0.0000 -34.5370 0.0000
# 4 0.0000 0.0000 0.0000 25.8897 0.0000 -6.3348
# 5 1.5052 -7.8179 -34.5370 0.0000 64.1668 0.0000
# 6 0.0000 0.0000 0.0000 -6.3348 0.0000 47.6694
#
#
#
# Elastic Compliance Matrix: (Units=1/GPa)
#
#
# Indices 1 2 3 4 5 6 
#
# 1 0.005341 -0.002218 -0.001675 0.000000 -0.001297 0.000000
# 2 -0.002218 0.011455 0.001138 0.000000 0.002060 0.000000
# 3 -0.001675 0.001138 0.004868 0.000000 0.002798 0.000000
# 4 0.000000 0.000000 0.000000 0.039923 0.000000 0.005305
# 5 -0.001297 0.002060 0.002798 0.000000 0.017372 0.000000
# 6 0.000000 0.000000 0.000000 0.005305 0.000000 0.021683
#
#
# Mechanical properties :
#
#
# Convention : Reuss Voigt Hill
#
# Bulk Modulus (GPa) = 61.90562 85.23847 73.57205
# Shear Modulus (GPa) = 44.82841 58.98054 51.90447
#
# Velocity S-wave (km/s) = 3.97727 4.56208 4.27967
# Velocity P-wave (km/s) = 6.55258 7.60449 7.09805
#
# Compressibility (1/GPa) = 0.01615362
#
# Stress axis : x y z
#
# Youngs Moduli (GPa) = 187.23412 87.29817 205.43138
#
# Poissons Ratio (x) = 0.19364 0.34404
# Poissons Ratio (y) = 0.41531 -0.23375
# Poissons Ratio (z) = 0.31357 -0.09933
#
# Static dielectric constant tensor:
#      x y z
#    x -6.588080 0.000000 -8.361510 
#    y 0.000000 2.462810 0.000000 
#    z -8.361510 0.000000 -5.259880 
# 
# From -- ./inp_files/96790.got.cif
#   From: 2010.05.17/outbox.cif.g08.bks.cpg/sg15_49_cif.got.tgz:96790.got - 2010.06.03 18:47:42.
