data_PCOD9300770
_publ_section_title
;
Structure prediction by ZEFSAII (Michael W. Deem and Ramdas Pophale) SiO2 
 PCOD9300770
Probable space group: C 2/C
;
_chemical_formula_sum "Si O2"
_cell_formula_units_Z 48
_cell_length_a 19.270982
_cell_length_b 15.352105
_cell_length_c 19.436572
_cell_angle_alpha 90.000000
_cell_angle_beta 27.871202
_cell_angle_gamma 90.000000
_cell_volume 2688.188056
_symmetry_space_group_name_H-M "C 2/C"
_symmetry_group_IT_number 15
_symmetry_cell_setting 'monoclinic'
loop_
_space_group_symop_operation_xyz
x,y,z
-x,y,1/2-z
-x,-y,-z
x,-y,1/2+z
1/2+x,1/2+y,z
1/2-x,1/2+y,1/2-z
1/2-x,1/2-y,-z
1/2+x,1/2-y,1/2+z
loop_
_atom_site_type_symbol
_atom_site_label
_atom_site_fract_x
_atom_site_fract_y
_atom_site_fract_z
Si Si1 0.886787 0.793316 0.739165
Si Si2 0.076718 0.256797 0.952245
Si Si3 0.098687 0.426024 0.379979
Si Si4 0.439229 0.427224 0.105482
Si Si5 0.042801 0.968655 0.637931
Si Si6 0.134677 0.390227 0.183365
O O1 0.747262 0.787062 0.808962
O O2 0.862150 0.715792 0.815164
O O3 0.032400 0.769076 0.568479
O O4 0.922752 0.889889 0.732552
O O5 0.045533 0.171481 0.934661
O O6 0.970475 0.336942 0.030309
O O7 0.263762 0.439907 0.261600
O O8 0.106276 0.418973 0.288921
O O9 0.000000 0.500000 0.500000
O O10 0.517329 0.453552 0.107060
O O11 0.500000 0.500000 0.000000
O O12 0.208351 0.929500 0.480353
O O13 0.000000 0.001935 0.750000
O O14 0.000000 0.414754 0.250000
#
# Coordination Sequence:
#
# PCOD9300770 Si02
#       6
#     8   8   8   8   8   8
#     4  11  19  38  58  90 126 164 204 248 319 377
#     4  11  21  37  63  92 122 162 206 261 314 361
#     4  11  24  39  64  95 119 166 216 262 318 368
#     4  12  21  43  62  87 130 164 213 262 304 373
#     4  12  26  38  63  90 129 177 204 257 323 375
#     4  11  24  39  54  91 135 162 205 258 316 390
#
# _framework density 17.855893999999999
#
# number of rings (size 3 to 8) (size 9 to 14) (size 15 to 20)
#    0.000    0.667    8.333    1.500    7.000    1.333 
#    0.000    0.000    0.000    2.000    0.000    0.000 
#    0.000    0.000    0.000    0.000    0.000    0.000 
#
# Total GULP energy -133794.040591 kJ/mol
# GULP energy per Si atom -5574.751691 kJ/mol
# Density = 1.781525 g / cm^3
# Si number density = 17.855894 Si / 1000 Ang^3
#
#
#
# Elastic Constant Matrix: (Units=GPa)
#
#
# Indices 1 2 3 4 5 6 
#
# 1 80.9401 43.1570 46.2632 0.0006 -9.7235 0.0000
# 2 43.1570 76.4445 56.6240 0.0016 -8.1832 -0.0005
# 3 46.2632 56.6240 116.9749 0.0017 -12.8089 -0.0005
# 4 0.0006 0.0016 0.0017 25.9977 -0.0005 -5.5903
# 5 -9.7235 -8.1832 -12.8089 -0.0005 34.5978 0.0001
# 6 0.0000 -0.0005 -0.0005 -5.5903 0.0001 26.3666
#
#
#
# Elastic Compliance Matrix: (Units=1/GPa)
#
#
# Indices 1 2 3 4 5 6 
#
# 1 0.018722 -0.007840 -0.003373 0.000000 0.002159 0.000000
# 2 -0.007840 0.023726 -0.008350 -0.000001 0.000317 0.000000
# 3 -0.003373 -0.008350 0.014179 0.000000 0.002327 0.000000
# 4 0.000000 -0.000001 0.000000 0.040302 0.000000 0.008545
# 5 0.002159 0.000317 0.002327 0.000000 0.030447 0.000000
# 6 0.000000 0.000000 0.000000 0.008545 0.000000 0.039739
#
#
# Mechanical properties :
#
#
# Convention : Reuss Voigt Hill
#
# Bulk Modulus (GPa) = 57.13535 62.93863 60.03699
# Shear Modulus (GPa) = 23.57646 25.94677 24.76161
#
# Velocity S-wave (km/s) = 3.63764 3.81612 3.72795
# Velocity P-wave (km/s) = 7.05058 7.39876 7.22677
#
# Compressibility (1/GPa) = 0.01750230
#
# Stress axis : x y z
#
# Youngs Moduli (GPa) = 53.41170 42.14726 70.52441
#
# Poissons Ratio (x) = 0.33044 0.23788
# Poissons Ratio (y) = 0.41876 0.58886
# Poissons Ratio (z) = 0.18016 0.35192
#
# Static dielectric constant tensor:
#      x y z
#    x 1.631880 0.000000 0.010500 
#    y 0.000000 1.651370 0.000000 
#    z 0.010500 0.000000 1.718720 
# 
# From -- ./inp_files/66421.got.cif
#   From: 2010.05.17/outbox.cif.g08.bks.cpg/sg15_34_cif.got.tgz:66421.got - 2010.06.03 18:47:42.
