data_PCOD9300085
_publ_section_title
;
Structure prediction by ZEFSAII (Michael W. Deem and Ramdas Pophale) SiO2 
 PCOD9300085
Probable space group: C 2/C
;
_chemical_formula_sum "Si O2"
_cell_formula_units_Z 60
_cell_length_a 8.713015
_cell_length_b 19.289056
_cell_length_c 19.012139
_cell_angle_alpha 90.000000
_cell_angle_beta 62.553906
_cell_angle_gamma 90.000000
_cell_volume 2835.644611
_symmetry_space_group_name_H-M "C 2/C"
_symmetry_group_IT_number 15
_symmetry_cell_setting 'monoclinic'
loop_
_space_group_symop_operation_xyz
x,y,z
-x,y,1/2-z
-x,-y,-z
x,-y,1/2+z
1/2+x,1/2+y,z
1/2-x,1/2+y,1/2-z
1/2-x,1/2-y,-z
1/2+x,1/2-y,1/2+z
loop_
_atom_site_type_symbol
_atom_site_label
_atom_site_fract_x
_atom_site_fract_y
_atom_site_fract_z
Si Si1 0.000000 0.743743 0.250000
Si Si2 0.191090 0.176695 0.386354
Si Si3 0.053897 0.071840 0.319025
Si Si4 0.719615 0.593425 0.519989
Si Si5 0.038581 0.678424 0.937077
Si Si6 0.164573 0.938078 0.363792
Si Si7 0.736883 0.059576 0.493700
Si Si8 0.837370 0.317391 0.243934
O O1 0.884850 0.704519 0.333069
O O2 0.846021 0.782106 0.239016
O O3 0.141849 0.143633 0.321909
O O4 0.188841 0.118443 0.446852
O O5 0.054007 0.237790 0.433796
O O6 0.000000 0.066048 0.250000
O O7 0.888873 0.067690 0.405168
O O8 0.177283 0.009081 0.317528
O O9 0.818778 0.654017 0.538060
O O10 0.536378 0.583681 0.596850
O O11 0.823223 0.520706 0.504162
O O12 0.091310 0.659077 0.846662
O O13 0.876933 0.629120 0.988449
O O14 0.199822 0.944629 0.439037
O O15 0.285624 0.880812 0.304426
O O16 0.000000 0.280706 0.250000
#
# Coordination Sequence:
#
# PCOD9300085 Si02
#       8
#     4   8   8   8   8   8   8   8
#     4  10  26  44  68 100 144 186 234 294 360 416
#     4  11  23  46  64  99 142 191 231 284 367 429
#     4  11  25  43  70 103 143 184 228 291 363 427
#     4  11  22  43  68  95 142 177 233 296 354 421
#     4  11  25  40  67 103 134 183 244 287 346 433
#     4  11  21  43  72  96 135 183 230 285 361 409
#     4  11  22  45  68 101 135 180 230 298 349 417
#     4  11  23  43  70 104 136 180 239 293 346 418
#
# _framework density 21.159210000000002
#
# number of rings (size 3 to 8) (size 9 to 14) (size 15 to 20)
#    0.000    1.067    4.000    3.200    4.667    3.733 
#    3.600    0.000    0.000    0.000    0.000    0.000 
#    0.000    0.000    0.000    0.000    0.000    0.000 
#
# Total GULP energy -167250.185059 kJ/mol
# GULP energy per Si atom -5575.006169 kJ/mol
# Density = 2.111105 g / cm^3
# Si number density = 21.159210 Si / 1000 Ang^3
#
#
#
# Elastic Constant Matrix: (Units=GPa)
#
#
# Indices 1 2 3 4 5 6 
#
# 1 85.1169 35.1015 5.6260 0.0000 10.8191 0.0000
# 2 35.1015 84.3834 1.6131 0.0000 -15.9038 0.0000
# 3 5.6260 1.6131 59.1323 0.0000 3.4490 0.0000
# 4 0.0000 0.0000 0.0000 19.4186 0.0000 -19.2619
# 5 10.8191 -15.9038 3.4490 0.0000 33.9702 0.0000
# 6 0.0000 0.0000 0.0000 -19.2619 0.0000 -29.9888
#
#
#
# Elastic Compliance Matrix: (Units=1/GPa)
#
#
# Indices 1 2 3 4 5 6 
#
# 1 0.016512 -0.008587 -0.000800 0.000000 -0.009197 0.000000
# 2 -0.008587 0.017493 -0.000299 0.000000 0.010955 0.000000
# 3 -0.000800 -0.000299 0.017090 0.000000 -0.001620 0.000000
# 4 0.000000 0.000000 0.000000 0.031456 0.000000 -0.020204
# 5 -0.009197 0.010955 -0.001620 0.000000 0.037660 0.000000
# 6 0.000000 0.000000 0.000000 -0.020204 0.000000 -0.020369
#
#
# Mechanical properties :
#
#
# Convention : Reuss Voigt Hill
#
# Bulk Modulus (GPa) = 31.52350 34.81266 33.16808
# Shear Modulus (GPa) = 38.52441 17.09946 27.81193
#
# Velocity S-wave (km/s) = 4.27159 2.84585 3.62942
# Velocity P-wave (km/s) = 6.26571 5.22369 5.76828
#
# Compressibility (1/GPa) = 0.03172236
#
# Stress axis : x y z
#
# Youngs Moduli (GPa) = 60.56375 57.16633 58.51364
#
# Poissons Ratio (x) = 0.49086 0.04683
# Poissons Ratio (y) = 0.52003 0.01751
# Poissons Ratio (z) = 0.04847 0.01711
#
# Static dielectric constant tensor:
#      x y z
#    x 1.817500 0.000000 0.000190 
#    y 0.000000 1.817900 0.000000 
#    z 0.000190 0.000000 1.732400 
# 
# From -- ./inp_files/233046.got.cif
#   From: 2010.05.17/outbox.cif.g08.bks.cpg/sg15_117_cif.got.tgz:233046.got - 2010.06.03 18:47:42.
