data_PCOD9300944
_publ_section_title
;
Structure prediction by ZEFSAII (Michael W. Deem and Ramdas Pophale) SiO2 
 PCOD9300944
Probable space group: C 2/C
;
_chemical_formula_sum "Si O2"
_cell_formula_units_Z 52
_cell_length_a 9.738802
_cell_length_b 19.459434
_cell_length_c 22.035882
_cell_angle_alpha 90.000000
_cell_angle_beta 140.637441
_cell_angle_gamma 90.000000
_cell_volume 2648.560047
_symmetry_space_group_name_H-M "C 2/C"
_symmetry_group_IT_number 15
_symmetry_cell_setting 'monoclinic'
loop_
_space_group_symop_operation_xyz
x,y,z
-x,y,1/2-z
-x,-y,-z
x,-y,1/2+z
1/2+x,1/2+y,z
1/2-x,1/2+y,1/2-z
1/2-x,1/2-y,-z
1/2+x,1/2-y,1/2+z
loop_
_atom_site_type_symbol
_atom_site_label
_atom_site_fract_x
_atom_site_fract_y
_atom_site_fract_z
Si Si1 0.308706 0.573911 0.236439
Si Si2 0.305857 0.415300 0.231354
Si Si3 0.500000 0.227412 0.750000
Si Si4 0.002969 0.812052 0.628381
Si Si5 0.514232 0.183492 0.555723
Si Si6 0.449107 0.678060 0.891003
Si Si7 0.587313 0.832188 0.938655
O O1 0.500000 0.578579 0.250000
O O2 0.257656 0.494230 0.229865
O O3 0.390367 0.614142 0.324207
O O4 0.093708 0.613089 0.140817
O O5 0.500000 0.416529 0.250000
O O6 0.112163 0.373375 0.133866
O O7 0.393045 0.372378 0.317546
O O8 0.546767 0.273551 0.707425
O O9 0.715854 0.186500 0.843058
O O10 0.745463 0.820053 0.533445
O O11 0.079428 0.759029 0.602932
O O12 0.592151 0.171462 0.513847
O O13 0.514109 0.755852 0.893508
O O14 0.667351 0.653183 0.998667
#
# Coordination Sequence:
#
# PCOD9300944 Si02
#       7
#     8   8   4   8   8   8   8
#     4  11  20  37  57  84 121 157 182 232 291 351
#     4  11  23  34  56  87 122 149 185 233 295 340
#     4  12  18  38  62  80 110 152 192 238 286 340
#     4  11  20  34  61  86 112 151 192 235 285 333
#     4  11  20  34  56  92 111 142 194 242 275 336
#     4  11  22  37  58  86 111 155 188 243 282 340
#     4  11  21  36  60  86 119 144 193 240 289 329
#
# _framework density 19.633310000000002
#
# number of rings (size 3 to 8) (size 9 to 14) (size 15 to 20)
#    0.000    0.923    8.462    0.000    0.000    1.846 
#    0.000    0.000    0.000    5.538    0.000    0.000 
#    0.000    0.000    0.000    0.000    0.000    0.000 
#
# Total GULP energy -145078.283236 kJ/mol
# GULP energy per Si atom -5579.933971 kJ/mol
# Density = 1.958862 g / cm^3
# Si number density = 19.633310 Si / 1000 Ang^3
#
#
#
# Elastic Constant Matrix: (Units=GPa)
#
#
# Indices 1 2 3 4 5 6 
#
# 1 18.3749 20.2493 21.5431 -0.0001 11.1144 0.0001
# 2 20.2493 145.5844 69.2034 -0.0001 -4.0987 0.0002
# 3 21.5431 69.2034 140.6515 -0.0003 22.7620 0.0007
# 4 -0.0001 -0.0001 -0.0003 11.9179 -0.0002 25.2443
# 5 11.1144 -4.0987 22.7620 -0.0002 33.4304 0.0002
# 6 0.0001 0.0002 0.0007 25.2443 0.0002 -60.6963
#
#
#
# Elastic Compliance Matrix: (Units=1/GPa)
#
#
# Indices 1 2 3 4 5 6 
#
# 1 0.088166 -0.011543 -0.003205 0.000000 -0.028545 0.000000
# 2 -0.011543 0.011158 -0.005129 0.000000 0.008698 0.000000
# 3 -0.003205 -0.005129 0.011299 0.000000 -0.007256 0.000000
# 4 0.000000 0.000000 0.000000 0.044609 0.000000 0.018553
# 5 -0.028545 0.008698 -0.007256 0.000000 0.045410 0.000000
# 6 0.000000 0.000000 0.000000 0.018553 0.000000 -0.008759
#
#
# Mechanical properties :
#
#
# Convention : Reuss Voigt Hill
#
# Bulk Modulus (GPa) = 14.11085 58.51137 36.31111
# Shear Modulus (GPa) = 19.58786 9.83807 14.71296
#
# Velocity S-wave (km/s) = 3.16204 2.24093 2.74046
# Velocity P-wave (km/s) = 4.53146 6.04669 5.34306
#
# Compressibility (1/GPa) = 0.07086745
#
# Stress axis : x y z
#
# Youngs Moduli (GPa) = 11.34219 89.62570 88.50537
#
# Poissons Ratio (x) = 1.03456 0.28367
# Poissons Ratio (y) = 0.13092 0.45397
# Poissons Ratio (z) = 0.03635 0.45972
#
# Static dielectric constant tensor:
#      x y z
#    x 1.802420 0.000000 0.031160 
#    y 0.000000 1.703710 0.000000 
#    z 0.031160 0.000000 1.707250 
# 
# From -- ./inp_files/182847.got.cif
#   From: 2010.05.17/outbox.cif.g08.bks.cpg/sg15_92_cif.got.tgz:182847.got - 2010.06.03 18:47:42.
