data_PCOD9300702
_publ_section_title
;
Structure prediction by ZEFSAII (Michael W. Deem and Ramdas Pophale) SiO2 
 PCOD9300702
Probable space group: C 2/C
;
_chemical_formula_sum "Si O2"
_cell_formula_units_Z 60
_cell_length_a 13.711506
_cell_length_b 22.876288
_cell_length_c 13.846349
_cell_angle_alpha 90.000000
_cell_angle_beta 137.005909
_cell_angle_gamma 90.000000
_cell_volume 2961.701477
_symmetry_space_group_name_H-M "C 2/C"
_symmetry_group_IT_number 15
_symmetry_cell_setting 'monoclinic'
loop_
_space_group_symop_operation_xyz
x,y,z
-x,y,1/2-z
-x,-y,-z
x,-y,1/2+z
1/2+x,1/2+y,z
1/2-x,1/2+y,1/2-z
1/2-x,1/2-y,-z
1/2+x,1/2-y,1/2+z
loop_
_atom_site_type_symbol
_atom_site_label
_atom_site_fract_x
_atom_site_fract_y
_atom_site_fract_z
Si Si1 0.030822 0.742128 0.476306
Si Si2 0.167339 0.082494 0.353168
Si Si3 0.334846 0.020060 0.871803
Si Si4 0.166010 0.603885 0.342042
Si Si5 0.236163 0.182566 0.259490
Si Si6 0.767720 0.359945 0.413875
Si Si7 0.169269 0.468738 0.349564
Si Si8 0.000000 0.204123 0.750000
O O1 0.107175 0.787375 0.605052
O O2 0.114997 0.681087 0.549031
O O3 0.053614 0.756858 0.378621
O O4 0.862787 0.729321 0.370781
O O5 0.190525 0.145871 0.320780
O O6 0.249161 0.070382 0.513406
O O7 0.000000 0.072861 0.250000
O O8 0.234221 0.033495 0.329861
O O9 0.304128 0.073585 0.919608
O O10 0.308887 0.045621 0.746554
O O11 0.500000 0.000000 0.000000
O O12 0.193331 0.634067 0.260350
O O13 0.237641 0.643795 0.474298
O O14 0.216096 0.536992 0.385666
O O15 0.000000 0.603563 0.250000
O O16 0.612839 0.336559 0.275758
O O17 0.000000 0.466567 0.250000
#
# Coordination Sequence:
#
# PCOD9300702 Si02
#       8
#     8   8   8   8   8   8   8   4
#     4  12  24  42  68 100 140 184 235 291 354 424
#     4  12  28  48  70 104 148 183 233 297 355 416
#     4  12  23  44  74 106 140 188 238 280 351 440
#     4  11  19  35  67 102 139 175 215 278 352 421
#     4  12  25  46  70  98 140 186 237 290 357 420
#     4  12  23  36  64 102 145 177 221 286 355 425
#     4  11  23  42  72 107 139 185 232 278 342 430
#     4  12  24  38  62 110 144 176 226 300 368 422
#
# _framework density 20.258624999999999
#
# number of rings (size 3 to 8) (size 9 to 14) (size 15 to 20)
#    0.000    0.267    8.000    2.800    0.933    1.600 
#    0.000    0.667    0.000    0.000    0.000    0.000 
#    0.000    0.000    0.000    0.000    0.000    0.000 
#
# Total GULP energy -167480.815949 kJ/mol
# GULP energy per Si atom -5582.693865 kJ/mol
# Density = 2.021252 g / cm^3
# Si number density = 20.258625 Si / 1000 Ang^3
#
#
#
# Elastic Constant Matrix: (Units=GPa)
#
#
# Indices 1 2 3 4 5 6 
#
# 1 89.9473 26.9987 53.3822 0.0000 6.5696 0.0000
# 2 26.9987 94.1756 46.7629 0.0000 13.2360 0.0000
# 3 53.3822 46.7629 120.0237 0.0000 -3.7532 0.0000
# 4 0.0000 0.0000 0.0000 18.5021 0.0000 -4.8259
# 5 6.5696 13.2360 -3.7532 0.0000 32.8105 0.0000
# 6 0.0000 0.0000 0.0000 -4.8259 0.0000 36.2636
#
#
#
# Elastic Compliance Matrix: (Units=1/GPa)
#
#
# Indices 1 2 3 4 5 6 
#
# 1 0.015616 -0.000562 -0.006841 0.000000 -0.003683 0.000000
# 2 -0.000562 0.014440 -0.005575 0.000000 -0.006351 0.000000
# 3 -0.006841 -0.005575 0.013709 0.000000 0.005187 0.000000
# 4 0.000000 0.000000 0.000000 0.055991 0.000000 0.007451
# 5 -0.003683 -0.006351 0.005187 0.000000 0.034371 0.000000
# 6 0.000000 0.000000 0.000000 0.007451 0.000000 0.028567
#
#
# Mechanical properties :
#
#
# Convention : Reuss Voigt Hill
#
# Bulk Modulus (GPa) = 56.15420 62.04826 59.10123
# Shear Modulus (GPa) = 25.69551 29.31541 27.50546
#
# Velocity S-wave (km/s) = 3.56529 3.80815 3.68872
# Velocity P-wave (km/s) = 6.68784 7.07323 6.88323
#
# Compressibility (1/GPa) = 0.01780811
#
# Stress axis : x y z
#
# Youngs Moduli (GPa) = 64.03873 69.25078 72.94640
#
# Poissons Ratio (x) = 0.03892 0.49906
# Poissons Ratio (y) = 0.03599 0.40666
# Poissons Ratio (z) = 0.43811 0.38605
#
# Static dielectric constant tensor:
#      x y z
#    x 1.714370 0.000000 -0.003350 
#    y 0.000000 1.710280 0.000000 
#    z -0.003350 0.000000 1.829670 
# 
# From -- ./inp_files/42590.got.cif
#   From: 2010.05.17/outbox.cif.g08.bks.cpg/sg15_22_cif.got.tgz:42590.got - 2010.06.03 18:47:42.
