data_PCOD9300845
_publ_section_title
;
Structure prediction by ZEFSAII (Michael W. Deem and Ramdas Pophale) SiO2 
 PCOD9300845
Probable space group: C 2/C
;
_chemical_formula_sum "Si O2"
_cell_formula_units_Z 36
_cell_length_a 11.704035
_cell_length_b 18.273881
_cell_length_c 8.363524
_cell_angle_alpha 90.000000
_cell_angle_beta 89.116511
_cell_angle_gamma 90.000000
_cell_volume 1788.562326
_symmetry_space_group_name_H-M "C 2/C"
_symmetry_group_IT_number 15
_symmetry_cell_setting 'monoclinic'
loop_
_space_group_symop_operation_xyz
x,y,z
-x,y,1/2-z
-x,-y,-z
x,-y,1/2+z
1/2+x,1/2+y,z
1/2-x,1/2+y,1/2-z
1/2-x,1/2-y,-z
1/2+x,1/2-y,1/2+z
loop_
_atom_site_type_symbol
_atom_site_label
_atom_site_fract_x
_atom_site_fract_y
_atom_site_fract_z
Si Si1 0.196538 0.917739 0.933972
Si Si2 0.084486 0.776712 0.443399
Si Si3 0.500000 0.329334 0.750000
Si Si4 0.333778 0.214104 0.364170
Si Si5 0.125127 0.065219 0.792247
O O1 0.087413 0.877949 0.852966
O O2 0.306567 0.871657 0.878647
O O3 0.192366 0.002155 0.882516
O O4 0.183576 0.913818 0.124642
O O5 0.078515 0.779804 0.634088
O O6 0.171787 0.735483 0.324039
O O7 0.100930 0.861473 0.391805
O O8 0.959331 0.743310 0.406768
O O9 0.250000 0.250000 0.500000
O O10 0.000000 0.034566 0.750000
#
# Coordination Sequence:
#
# PCOD9300845 Si02
#       5
#     8   8   4   8   8
#     4  12  23  33  61  87 132 149 205 242 321 348
#     4  11  22  37  64  83 126 154 209 242 306 352
#     4  12  20  34  54  96 114 162 190 258 286 372
#     4  11  19  41  59  89 117 171 193 256 298 365
#     4  12  19  37  55  90 118 160 186 260 294 360
#
# _framework density 20.127897999999998
#
# number of rings (size 3 to 8) (size 9 to 14) (size 15 to 20)
#    0.000    0.444   10.000    2.000    0.000    0.889 
#    0.000    0.000    0.000    5.333    0.000    0.000 
#    0.000    0.000    0.000    0.000    0.000    0.000 
#
# Total GULP energy -100392.527195 kJ/mol
# GULP energy per Si atom -5577.362622 kJ/mol
# Density = 2.008209 g / cm^3
# Si number density = 20.127898 Si / 1000 Ang^3
#
#
#
# Elastic Constant Matrix: (Units=GPa)
#
#
# Indices 1 2 3 4 5 6 
#
# 1 79.8903 48.2018 29.4301 0.0000 -23.3959 0.0000
# 2 48.2018 120.2576 34.8531 0.0000 -21.7735 0.0000
# 3 29.4301 34.8531 157.7813 0.0000 -48.2861 0.0000
# 4 0.0000 0.0000 0.0000 5.0568 0.0000 4.1141
# 5 -23.3959 -21.7735 -48.2861 0.0000 27.1838 0.0000
# 6 0.0000 0.0000 0.0000 4.1141 0.0000 26.2035
#
#
#
# Elastic Compliance Matrix: (Units=1/GPa)
#
#
# Indices 1 2 3 4 5 6 
#
# 1 0.020154 -0.005660 0.003094 0.000000 0.018307 0.000000
# 2 -0.005660 0.011335 -0.000352 0.000000 0.003583 0.000000
# 3 0.003094 -0.000352 0.014389 0.000000 0.027940 0.000000
# 4 0.000000 0.000000 0.000000 0.226713 0.000000 -0.035595
# 5 0.018307 0.003583 0.027940 0.000000 0.105042 0.000000
# 6 0.000000 0.000000 0.000000 -0.035595 0.000000 0.043752
#
#
# Mechanical properties :
#
#
# Convention : Reuss Voigt Hill
#
# Bulk Modulus (GPa) = 24.97394 64.76656 44.87025
# Shear Modulus (GPa) = 11.34902 28.05177 19.70040
#
# Velocity S-wave (km/s) = 2.37712 3.73725 3.13191
# Velocity P-wave (km/s) = 4.46865 7.13232 5.95142
#
# Compressibility (1/GPa) = 0.04004174
#
# Stress axis : x y z
#
# Youngs Moduli (GPa) = 49.61856 88.22420 69.49770
#
# Poissons Ratio (x) = 0.49935 -0.21500
# Poissons Ratio (y) = 0.28084 0.02443
# Poissons Ratio (z) = -0.15350 0.03101
#
# Static dielectric constant tensor:
#      x y z
#    x 1.776190 0.000000 0.067760 
#    y 0.000000 1.738360 0.000000 
#    z 0.067760 0.000000 1.844270 
# 
# From -- ./inp_files/28692.got.cif
#   From: 2010.05.17/outbox.cif.g08.bks.cpg/sg15_15_cif.got.tgz:28692.got - 2010.06.03 18:47:42.
