data_PCOD9300500
_publ_section_title
;
Structure prediction by ZEFSAII (Michael W. Deem and Ramdas Pophale) SiO2 
 PCOD9300500
Probable space group: C 2/C
;
_chemical_formula_sum "Si O2"
_cell_formula_units_Z 64
_cell_length_a 24.789816
_cell_length_b 23.652216
_cell_length_c 10.186713
_cell_angle_alpha 90.000000
_cell_angle_beta 135.746606
_cell_angle_gamma 90.000000
_cell_volume 4168.028163
_symmetry_space_group_name_H-M "C 2/C"
_symmetry_group_IT_number 15
_symmetry_cell_setting 'monoclinic'
loop_
_space_group_symop_operation_xyz
x,y,z
-x,y,1/2-z
-x,-y,-z
x,-y,1/2+z
1/2+x,1/2+y,z
1/2-x,1/2+y,1/2-z
1/2-x,1/2-y,-z
1/2+x,1/2-y,1/2+z
loop_
_atom_site_type_symbol
_atom_site_label
_atom_site_fract_x
_atom_site_fract_y
_atom_site_fract_z
Si Si1 0.626150 0.071481 0.405324
Si Si2 0.519874 0.756653 0.936847
Si Si3 0.416655 0.048613 0.655833
Si Si4 0.175474 0.279139 0.306882
Si Si5 0.974859 0.607201 0.019721
Si Si6 0.094452 0.331152 0.421333
Si Si7 0.135547 0.751816 0.225915
Si Si8 0.218518 0.321320 0.093706
O O1 0.560878 0.082424 0.182106
O O2 0.579309 0.090732 0.453385
O O3 0.696815 0.114623 0.518374
O O4 0.639519 0.004586 0.434914
O O5 0.500000 0.748649 0.750000
O O6 0.516437 0.824770 0.958992
O O7 0.451404 0.728257 0.898818
O O8 0.605473 0.739594 0.131582
O O9 0.500000 0.026950 0.750000
O O10 0.391001 0.102607 0.527017
O O11 0.435766 0.078206 0.827182
O O12 0.250000 0.250000 0.500000
O O13 0.363906 0.186409 0.641898
O O14 0.200697 0.311686 0.217369
O O15 0.129203 0.292660 0.596030
O O16 0.000000 0.324280 0.250000
O O17 0.164609 0.719094 0.407966
O O18 0.195921 0.800123 0.292202
#
# Coordination Sequence:
#
# PCOD9300500 Si02
#       8
#     8   8   8   8   8   8   8   8
#     4  11  20  30  45  65  96 133 173 204 235 293
#     4  12  18  34  55  69  97 140 175 205 257 317
#     4  11  21  27  45  70  96 131 172 204 240 289
#     4  12  21  34  51  72 100 135 169 217 262 301
#     4  11  17  31  44  64  94 131 171 202 232 290
#     4  11  21  32  49  74 102 132 167 211 252 294
#     4  11  21  33  49  70  96 129 177 210 255 297
#     4  11  22  33  48  69  95 137 173 213 251 299
#
# _framework density 15.354983000000001
#
# number of rings (size 3 to 8) (size 9 to 14) (size 15 to 20)
#    0.000    0.750   10.000    1.125    0.000    0.000 
#    0.000    0.000    0.000    0.000    0.000    0.000 
#    0.000    1.000    0.000    5.000    0.000    3.250 
#
# Total GULP energy -178351.477577 kJ/mol
# GULP energy per Si atom -5573.483674 kJ/mol
# Density = 1.532003 g / cm^3
# Si number density = 15.354983 Si / 1000 Ang^3
#
#
#
# Elastic Constant Matrix: (Units=GPa)
#
#
# Indices 1 2 3 4 5 6 
#
# 1 83.9143 32.9648 33.4952 0.0000 -2.2350 0.0000
# 2 32.9648 80.2315 39.6208 0.0000 11.4675 0.0000
# 3 33.4952 39.6208 86.4246 0.0000 7.5825 0.0000
# 4 0.0000 0.0000 0.0000 17.6403 0.0000 8.6974
# 5 -2.2350 11.4675 7.5825 0.0000 31.8584 0.0000
# 6 0.0000 0.0000 0.0000 8.6974 0.0000 15.9715
#
#
#
# Elastic Compliance Matrix: (Units=1/GPa)
#
#
# Indices 1 2 3 4 5 6 
#
# 1 0.015600 -0.004921 -0.004128 0.000000 0.003848 0.000000
# 2 -0.004921 0.018214 -0.005962 0.000000 -0.005482 0.000000
# 3 -0.004128 -0.005962 0.016076 0.000000 -0.001970 0.000000
# 4 0.000000 0.000000 0.000000 0.077495 0.000000 -0.042201
# 5 0.003848 -0.005482 -0.001970 0.000000 0.034101 0.000000
# 6 0.000000 0.000000 0.000000 -0.042201 0.000000 0.085593
#
#
# Mechanical properties :
#
#
# Convention : Reuss Voigt Hill
#
# Bulk Modulus (GPa) = 50.32918 51.41466 50.87192
# Shear Modulus (GPa) = 17.62283 22.72669 20.17476
#
# Velocity S-wave (km/s) = 3.39144 3.85136 3.62869
# Velocity P-wave (km/s) = 6.94147 7.30302 7.12454
#
# Compressibility (1/GPa) = 0.01986919
#
# Stress axis : x y z
#
# Youngs Moduli (GPa) = 64.10131 54.90409 62.20320
#
# Poissons Ratio (x) = 0.27021 0.25675
# Poissons Ratio (y) = 0.31547 0.37083
# Poissons Ratio (z) = 0.26458 0.32731
#
# Static dielectric constant tensor:
#      x y z
#    x 1.567020 0.000000 -0.033410 
#    y 0.000000 1.516940 0.000000 
#    z -0.033410 0.000000 1.567610 
# 
# From -- ./inp_files/124078.got.cif
#   From: 2010.05.17/outbox.cif.g08.bks.cpg/sg15_63_cif.got.tgz:124078.got - 2010.06.03 18:47:42.
