data_PCOD9300608
_publ_section_title
;
Structure prediction by ZEFSAII (Michael W. Deem and Ramdas Pophale) SiO2 
 PCOD9300608
Probable space group: C 2/C
;
_chemical_formula_sum "Si O2"
_cell_formula_units_Z 52
_cell_length_a 16.034072
_cell_length_b 5.926757
_cell_length_c 24.203451
_cell_angle_alpha 90.000000
_cell_angle_beta 129.568871
_cell_angle_gamma 90.000000
_cell_volume 1773.019212
_symmetry_space_group_name_H-M "C 2/C"
_symmetry_group_IT_number 15
_symmetry_cell_setting 'monoclinic'
loop_
_space_group_symop_operation_xyz
x,y,z
-x,y,1/2-z
-x,-y,-z
x,-y,1/2+z
1/2+x,1/2+y,z
1/2-x,1/2+y,1/2-z
1/2-x,1/2-y,-z
1/2+x,1/2-y,1/2+z
loop_
_atom_site_type_symbol
_atom_site_label
_atom_site_fract_x
_atom_site_fract_y
_atom_site_fract_z
Si Si1 0.369934 0.638499 0.578392
Si Si2 0.789512 0.620291 0.695091
Si Si3 0.374555 0.434045 0.951945
Si Si4 0.864171 0.652599 0.589321
Si Si5 0.891353 0.235072 0.798995
Si Si6 0.500000 0.271045 0.750000
Si Si7 0.960794 0.578450 0.923911
O O1 0.375999 0.650414 0.514932
O O2 0.308354 0.403172 0.566235
O O3 0.328987 0.889013 0.576240
O O4 0.490047 0.616883 0.656730
O O5 0.713148 0.612046 0.608066
O O6 0.858945 0.390270 0.733518
O O7 0.712834 0.619197 0.716856
O O8 0.877516 0.824636 0.725611
O O9 0.365101 0.245652 0.900205
O O10 0.500000 0.500000 0.000000
O O11 0.947304 0.655117 0.674920
O O12 0.936452 0.682667 0.564273
O O13 0.919829 0.399225 0.863131
O O14 0.000000 0.500000 0.000000
#
# Coordination Sequence:
#
# PCOD9300608 Si02
#       7
#     8   8   8   8   8   4   8
#     4  11  23  44  76 107 144 187 258 319 369 447
#     4  12  25  43  72 111 152 207 252 325 384 466
#     4  12  21  39  74 111 145 190 260 322 384 437
#     4  11  24  45  73 102 153 202 241 311 386 458
#     4  11  23  41  73 108 149 192 270 312 380 439
#     4  12  28  50  68 110 168 200 254 306 412 464
#     4  11  18  38  73 111 144 188 253 330 372 441
#
# _framework density 29.328503000000001
#
# number of rings (size 3 to 8) (size 9 to 14) (size 15 to 20)
#    0.000    0.615    9.231    0.923    2.154    0.615 
#    0.000    1.538    0.000    0.000    0.000    0.000 
#    0.000    0.000    0.000    0.000    0.000    0.000 
#
# Total GULP energy -145088.237502 kJ/mol
# GULP energy per Si atom -5580.316827 kJ/mol
# Density = 2.926175 g / cm^3
# Si number density = 29.328503 Si / 1000 Ang^3
#
#
#
# Elastic Constant Matrix: (Units=GPa)
#
#
# Indices 1 2 3 4 5 6 
#
# 1 77.8398 17.0043 24.0337 0.0000 5.2377 0.0000
# 2 17.0043 167.7931 29.8238 0.0000 5.3309 0.0000
# 3 24.0337 29.8238 165.0933 0.0000 9.9871 0.0000
# 4 0.0000 0.0000 0.0000 51.2169 0.0000 10.4457
# 5 5.2377 5.3309 9.9871 0.0000 67.5923 0.0000
# 6 0.0000 0.0000 0.0000 10.4457 0.0000 28.2409
#
#
#
# Elastic Compliance Matrix: (Units=1/GPa)
#
#
# Indices 1 2 3 4 5 6 
#
# 1 0.013667 -0.001050 -0.001757 0.000000 -0.000717 0.000000
# 2 -0.001050 0.006245 -0.000959 0.000000 -0.000269 0.000000
# 3 -0.001757 -0.000959 0.006532 0.000000 -0.000753 0.000000
# 4 0.000000 0.000000 0.000000 0.021118 0.000000 -0.007811
# 5 -0.000717 -0.000269 -0.000753 0.000000 0.014983 0.000000
# 6 0.000000 0.000000 0.000000 -0.007811 0.000000 0.038299
#
#
# Mechanical properties :
#
#
# Convention : Reuss Voigt Hill
#
# Bulk Modulus (GPa) = 52.87495 61.38333 57.12914
# Shear Modulus (GPa) = 43.60020 52.06764 47.83392
#
# Velocity S-wave (km/s) = 3.85985 4.21803 4.04291
# Velocity P-wave (km/s) = 6.15891 6.68561 6.42766
#
# Compressibility (1/GPa) = 0.01891255
#
# Stress axis : x y z
#
# Youngs Moduli (GPa) = 73.16975 160.12422 153.09933
#
# Poissons Ratio (x) = 0.16814 0.26892
# Poissons Ratio (y) = 0.07683 0.14682
# Poissons Ratio (z) = 0.12853 0.15356
#
# Static dielectric constant tensor:
#      x y z
#    x 2.525730 0.000000 0.136680 
#    y 0.000000 2.585010 0.000000 
#    z 0.136680 0.000000 2.231230 
# 
# From -- ./inp_files/298419.got.cif
#   From: 2010.05.17/outbox.cif.g08.bks.cpg/sg15_150_cif.got.tgz:298419.got - 2010.06.03 18:47:42.
