data_PCOD9300843
_publ_section_title
;
Structure prediction by ZEFSAII (Michael W. Deem and Ramdas Pophale) SiO2 
 PCOD9300843
Probable space group: C 2/C
;
_chemical_formula_sum "Si O2"
_cell_formula_units_Z 40
_cell_length_a 22.050103
_cell_length_b 8.968174
_cell_length_c 18.221433
_cell_angle_alpha 90.000000
_cell_angle_beta 149.665668
_cell_angle_gamma 90.000000
_cell_volume 1819.814638
_symmetry_space_group_name_H-M "C 2/C"
_symmetry_group_IT_number 15
_symmetry_cell_setting 'monoclinic'
loop_
_space_group_symop_operation_xyz
x,y,z
-x,y,1/2-z
-x,-y,-z
x,-y,1/2+z
1/2+x,1/2+y,z
1/2-x,1/2+y,1/2-z
1/2-x,1/2-y,-z
1/2+x,1/2-y,1/2+z
loop_
_atom_site_type_symbol
_atom_site_label
_atom_site_fract_x
_atom_site_fract_y
_atom_site_fract_z
Si Si1 0.132615 0.161671 0.906874
Si Si2 0.187498 0.334773 0.622982
Si Si3 0.764699 0.012714 0.353519
Si Si4 0.842026 0.849930 0.645321
Si Si5 0.473064 0.925626 0.305196
O O1 0.000000 0.222886 0.750000
O O2 0.137843 0.003811 0.871897
O O3 0.250000 0.250000 0.000000
O O4 0.146930 0.118489 0.007347
O O5 0.220370 0.397032 0.736564
O O6 0.289043 0.373629 0.670041
O O7 0.076134 0.429201 0.473549
O O8 0.183539 0.151972 0.614253
O O9 0.650083 0.985112 0.288131
O O10 0.750000 0.750000 0.500000
O O11 0.958090 0.751597 0.778613
O O12 0.500000 0.977461 0.250000
#
# Coordination Sequence:
#
# PCOD9300843 Si02
#       5
#     8   8   8   8   8
#     4  12  27  49  71 105 144 190 250 304 360 429
#     4  11  23  41  68 100 146 176 234 286 361 429
#     4  11  25  45  65 105 138 184 230 294 365 423
#     4  11  20  42  72  98 131 188 242 292 343 433
#     4  11  19  40  75  99 130 183 243 291 344 432
#
# _framework density 21.980260999999999
#
# number of rings (size 3 to 8) (size 9 to 14) (size 15 to 20)
#    0.000    0.800    6.000    2.400    2.800    2.400 
#    7.200    5.000    0.000    0.000    0.000    0.000 
#    0.000    0.000    0.000    0.000    0.000    0.000 
#
# Total GULP energy -111653.538613 kJ/mol
# GULP energy per Si atom -5582.676931 kJ/mol
# Density = 2.193023 g / cm^3
# Si number density = 21.980261 Si / 1000 Ang^3
#
#
#
# Elastic Constant Matrix: (Units=GPa)
#
#
# Indices 1 2 3 4 5 6 
#
# 1 99.8065 31.0339 57.8043 0.0000 -21.9122 0.0000
# 2 31.0339 105.5757 47.9232 0.0000 -6.1431 0.0000
# 3 57.8043 47.9232 160.6847 0.0000 -29.1118 0.0000
# 4 0.0000 0.0000 0.0000 24.3966 0.0000 -12.6035
# 5 -21.9122 -6.1431 -29.1118 0.0000 46.7506 0.0000
# 6 0.0000 0.0000 0.0000 -12.6035 0.0000 25.2513
#
#
#
# Elastic Compliance Matrix: (Units=1/GPa)
#
#
# Indices 1 2 3 4 5 6 
#
# 1 0.013596 -0.002163 -0.003543 0.000000 0.003882 0.000000
# 2 -0.002163 0.011318 -0.002831 0.000000 -0.001289 0.000000
# 3 -0.003543 -0.002831 0.008988 0.000000 0.003564 0.000000
# 4 0.000000 0.000000 0.000000 0.055230 0.000000 0.027567
# 5 0.003882 -0.001289 0.003564 0.000000 0.025260 0.000000
# 6 0.000000 0.000000 0.000000 0.027567 0.000000 0.053361
#
#
# Mechanical properties :
#
#
# Convention : Reuss Voigt Hill
#
# Bulk Modulus (GPa) = 59.42129 71.06552 65.24340
# Shear Modulus (GPa) = 26.25570 34.56673 30.41122
#
# Velocity S-wave (km/s) = 3.45992 3.96994 3.72367
# Velocity P-wave (km/s) = 6.56156 7.30860 6.94513
#
# Compressibility (1/GPa) = 0.01682899
#
# Stress axis : x y z
#
# Youngs Moduli (GPa) = 73.55142 88.35789 111.26077
#
# Poissons Ratio (x) = 0.19108 0.39416
# Poissons Ratio (y) = 0.15906 0.31499
# Poissons Ratio (z) = 0.26057 0.25015
#
# Static dielectric constant tensor:
#      x y z
#    x 1.814530 0.000000 0.030580 
#    y 0.000000 1.848650 0.000000 
#    z 0.030580 0.000000 1.751790 
# 
# From -- ./inp_files/218813.got.cif
#   From: 2010.05.17/outbox.cif.g08.bks.cpg/sg15_110_cif.got.tgz:218813.got - 2010.06.03 18:47:42.
