data_PCOD9300341
_publ_section_title
;
Structure prediction by ZEFSAII (Michael W. Deem and Ramdas Pophale) SiO2 
 PCOD9300341
Probable space group: C 2/C
;
_chemical_formula_sum "Si O2"
_cell_formula_units_Z 32
_cell_length_a 28.118052
_cell_length_b 6.996922
_cell_length_c 17.577859
_cell_angle_alpha 90.000000
_cell_angle_beta 19.295402
_cell_angle_gamma 90.000000
_cell_volume 1142.744342
_symmetry_space_group_name_H-M "C 2/C"
_symmetry_group_IT_number 15
_symmetry_cell_setting 'monoclinic'
loop_
_space_group_symop_operation_xyz
x,y,z
-x,y,1/2-z
-x,-y,-z
x,-y,1/2+z
1/2+x,1/2+y,z
1/2-x,1/2+y,1/2-z
1/2-x,1/2-y,-z
1/2+x,1/2-y,1/2+z
loop_
_atom_site_type_symbol
_atom_site_label
_atom_site_fract_x
_atom_site_fract_y
_atom_site_fract_z
Si Si1 0.850490 0.985270 0.806222
Si Si2 0.287444 0.115404 0.631047
Si Si3 0.936289 0.257004 0.426173
Si Si4 0.633762 0.101878 0.257169
O O1 0.789735 0.969749 0.812885
O O2 0.915270 0.199919 0.709675
O O3 0.723762 0.983564 0.059443
O O4 0.966885 0.832768 0.653742
O O5 0.257735 0.308977 0.627519
O O6 0.426541 0.987730 0.438687
O O7 0.214854 0.167399 0.820120
O O8 0.000000 0.192524 0.250000
O O9 0.500000 0.000000 0.500000
#
# Coordination Sequence:
#
# PCOD9300341 Si02
#       4
#     8   8   8   8
#     4   9  23  48  80 116 157 216 271 331 408 482
#     4  10  26  49  73 118 158 211 272 330 399 488
#     4  12  28  48  76 119 167 206 271 333 409 477
#     4   9  21  46  86 113 153 212 276 329 402 482
#
# _framework density 28.002763000000002
#
# number of rings (size 3 to 8) (size 9 to 14) (size 15 to 20)
#    1.500    0.500    0.000    0.750    7.000    3.000 
#    4.500    1.250    0.000    0.000    0.000    0.000 
#    0.000    0.000    0.000    0.000    0.000    0.000 
#
# Total GULP energy -89445.610540 kJ/mol
# GULP energy per Si atom -5590.350659 kJ/mol
# Density = 2.793903 g / cm^3
# Si number density = 28.002763 Si / 1000 Ang^3
#
#
#
# Elastic Constant Matrix: (Units=GPa)
#
#
# Indices 1 2 3 4 5 6 
#
# 1 106.5977 50.3103 32.4776 0.0000 23.2008 0.0000
# 2 50.3103 128.1510 51.1884 -0.0001 -16.1879 0.0000
# 3 32.4776 51.1884 144.8860 0.0000 33.0677 0.0000
# 4 0.0000 -0.0001 0.0000 69.4583 0.0000 -8.5148
# 5 23.2008 -16.1879 33.0677 0.0000 56.0485 0.0000
# 6 0.0000 0.0000 0.0000 -8.5148 0.0000 46.5005
#
#
#
# Elastic Compliance Matrix: (Units=1/GPa)
#
#
# Indices 1 2 3 4 5 6 
#
# 1 0.014332 -0.007301 0.001389 0.000000 -0.008861 0.000000
# 2 -0.007301 0.014351 -0.005858 0.000000 0.010623 0.000000
# 3 0.001389 -0.005858 0.010606 0.000000 -0.008524 0.000000
# 4 0.000000 0.000000 0.000000 0.014728 0.000000 0.002697
# 5 -0.008861 0.010623 -0.008524 0.000000 0.029607 0.000000
# 6 0.000000 0.000000 0.000000 0.002697 0.000000 0.021999
#
#
# Mechanical properties :
#
#
# Convention : Reuss Voigt Hill
#
# Bulk Modulus (GPa) = 63.49558 71.95413 67.72486
# Shear Modulus (GPa) = 37.19875 50.77868 43.98872
#
# Velocity S-wave (km/s) = 3.64867 4.26296 3.96772
# Velocity P-wave (km/s) = 6.36195 7.06977 6.72517
#
# Compressibility (1/GPa) = 0.01574913
#
# Stress axis : x y z
#
# Youngs Moduli (GPa) = 69.77385 69.67937 94.28638
#
# Poissons Ratio (x) = 0.50870 -0.13096
# Poissons Ratio (y) = 0.50939 0.55238
# Poissons Ratio (z) = -0.09691 0.40822
#
# Static dielectric constant tensor:
#      x y z
#    x 2.336400 0.000000 -0.139110 
#    y 0.000000 2.219140 0.000000 
#    z -0.139110 0.000000 2.262390 
# 
# From -- ./inp_files/224348.got.cif
#   From: 2010.05.17/outbox.cif.g08.bks.cpg/sg15_113_cif.got.tgz:224348.got - 2010.06.03 18:47:42.
