data_PCOD9300427
_publ_section_title
;
Structure prediction by ZEFSAII (Michael W. Deem and Ramdas Pophale) SiO2 
 PCOD9300427
Probable space group: C 2/C
;
_chemical_formula_sum "Si O2"
_cell_formula_units_Z 32
_cell_length_a 5.223831
_cell_length_b 17.094678
_cell_length_c 15.528025
_cell_angle_alpha 90.000000
_cell_angle_beta 75.015031
_cell_angle_gamma 90.000000
_cell_volume 1339.493329
_symmetry_space_group_name_H-M "C 2/C"
_symmetry_group_IT_number 15
_symmetry_cell_setting 'monoclinic'
loop_
_space_group_symop_operation_xyz
x,y,z
-x,y,1/2-z
-x,-y,-z
x,-y,1/2+z
1/2+x,1/2+y,z
1/2-x,1/2+y,1/2-z
1/2-x,1/2-y,-z
1/2+x,1/2-y,1/2+z
loop_
_atom_site_type_symbol
_atom_site_label
_atom_site_fract_x
_atom_site_fract_y
_atom_site_fract_z
Si Si1 0.626720 0.890445 0.104191
Si Si2 0.596200 0.711551 0.647534
Si Si3 0.000000 0.477405 0.750000
Si Si4 0.689093 0.182403 0.436062
Si Si5 0.500000 0.371091 0.750000
O O1 0.561848 0.967922 0.162504
O O2 0.322739 0.105761 0.003208
O O3 0.876615 0.848839 0.128674
O O4 0.367505 0.835153 0.131973
O O5 0.500000 0.736001 0.750000
O O6 0.577663 0.787937 0.588087
O O7 0.747298 0.424691 0.752971
O O8 0.750000 0.250000 0.500000
O O9 0.903135 0.176608 0.341753
#
# Coordination Sequence:
#
# PCOD9300427 Si02
#       5
#     8   8   4   8   4
#     4  11  23  45  71 106 136 197 230 287 350 428
#     4  11  21  39  75 105 140 178 237 295 361 408
#     4  12  26  47  74  99 152 194 244 274 348 440
#     4  10  27  45  74 106 146 177 242 303 366 413
#     4  12  30  47  70 109 142 192 234 302 348 426
#
# _framework density 23.88963
#
# number of rings (size 3 to 8) (size 9 to 14) (size 15 to 20)
#    0.000    1.000    2.500    2.250    8.750    6.000 
#    0.000    0.000    0.000    0.000    0.000    0.000 
#    0.000    0.000    0.000    0.000    0.000    0.000 
#
# Total GULP energy -89579.635717 kJ/mol
# GULP energy per Si atom -5598.727232 kJ/mol
# Density = 2.383526 g / cm^3
# Si number density = 23.889630 Si / 1000 Ang^3
#
#
#
# Elastic Constant Matrix: (Units=GPa)
#
#
# Indices 1 2 3 4 5 6 
#
# 1 163.6675 58.7557 37.7569 0.0000 11.4533 0.0000
# 2 58.7557 91.7964 55.9554 0.0000 3.5759 0.0000
# 3 37.7569 55.9554 192.2267 0.0000 -16.8034 0.0000
# 4 0.0000 0.0000 0.0000 64.8474 0.0000 -50.9138
# 5 11.4533 3.5759 -16.8034 0.0000 40.4363 0.0000
# 6 0.0000 0.0000 0.0000 -50.9138 0.0000 149.2773
#
#
#
# Elastic Compliance Matrix: (Units=1/GPa)
#
#
# Indices 1 2 3 4 5 6 
#
# 1 0.008083 -0.004889 -0.000339 0.000000 -0.001998 0.000000
# 2 -0.004889 0.016532 -0.004004 0.000000 -0.001741 0.000000
# 3 -0.000339 -0.004004 0.006718 0.000000 0.003242 0.000000
# 4 0.000000 0.000000 0.000000 0.021060 0.000000 0.007183
# 5 -0.001998 -0.001741 0.003242 0.000000 0.026797 0.000000
# 6 0.000000 0.000000 0.000000 0.007183 0.000000 0.009149
#
#
# Mechanical properties :
#
#
# Convention : Reuss Voigt Hill
#
# Bulk Modulus (GPa) = 77.71388 83.62516 80.66952
# Shear Modulus (GPa) = 45.00725 70.59371 57.80048
#
# Velocity S-wave (km/s) = 4.34518 5.44188 4.92416
# Velocity P-wave (km/s) = 7.60099 8.63517 8.13454
#
# Compressibility (1/GPa) = 0.01286771
#
# Stress axis : x y z
#
# Youngs Moduli (GPa) = 123.71328 60.49019 148.85999
#
# Poissons Ratio (x) = 0.29575 0.05049
# Poissons Ratio (y) = 0.60486 0.59604
# Poissons Ratio (z) = 0.04196 0.24221
#
# Static dielectric constant tensor:
#      x y z
#    x 1.860960 0.000000 -0.096470 
#    y 0.000000 1.930940 0.000000 
#    z -0.096470 0.000000 1.919800 
# 
# From -- ./inp_files/183763.got.cif
#   From: 2010.05.17/outbox.cif.g08.bks.cpg/sg15_92_cif.got.tgz:183763.got - 2010.06.03 18:47:42.
