data_PCOD9300656
_publ_section_title
;
Structure prediction by ZEFSAII (Michael W. Deem and Ramdas Pophale) SiO2 
 PCOD9300656
Probable space group: C 2/C
;
_chemical_formula_sum "Si O2"
_cell_formula_units_Z 44
_cell_length_a 10.230415
_cell_length_b 9.698825
_cell_length_c 23.954418
_cell_angle_alpha 90.000000
_cell_angle_beta 65.184926
_cell_angle_gamma 90.000000
_cell_volume 2157.369770
_symmetry_space_group_name_H-M "C 2/C"
_symmetry_group_IT_number 15
_symmetry_cell_setting 'monoclinic'
loop_
_space_group_symop_operation_xyz
x,y,z
-x,y,1/2-z
-x,-y,-z
x,-y,1/2+z
1/2+x,1/2+y,z
1/2-x,1/2+y,1/2-z
1/2-x,1/2-y,-z
1/2+x,1/2-y,1/2+z
loop_
_atom_site_type_symbol
_atom_site_label
_atom_site_fract_x
_atom_site_fract_y
_atom_site_fract_z
Si Si1 0.424377 0.737417 0.430180
Si Si2 0.976479 0.308156 0.967149
Si Si3 0.000000 0.595518 0.250000
Si Si4 0.758717 0.739368 0.351580
Si Si5 0.924873 0.513580 0.380515
Si Si6 0.678168 0.430233 0.068345
O O1 0.432716 0.774483 0.494293
O O2 0.588670 0.738487 0.377076
O O3 0.359717 0.869502 0.410697
O O4 0.357105 0.589277 0.432216
O O5 0.023856 0.416749 0.910801
O O6 0.936645 0.164889 0.944116
O O7 0.832143 0.383573 0.016017
O O8 0.857619 0.689866 0.282807
O O9 0.003852 0.509570 0.306535
O O10 0.798230 0.624131 0.391736
O O11 0.816722 0.879585 0.368473
#
# Coordination Sequence:
#
# PCOD9300656 Si02
#       6
#     8   8   4   8   8   8
#     4  11  19  33  60  85 105 136 187 224 270 320
#     4   9  18  34  54  81 118 141 168 222 279 320
#     4   8  18  42  56  64 116 150 174 224 270 314
#     4   8  19  39  54  73 110 147 174 222 270 317
#     4   9  19  36  57  75 111 148 175 223 269 317
#     4   9  18  33  56  85 110 138 177 223 268 326
#
# _framework density 20.395205000000001
#
# number of rings (size 3 to 8) (size 9 to 14) (size 15 to 20)
#    1.091    1.818    0.000    2.182    0.000    0.727 
#    3.273    8.182    4.000    0.000    0.000    0.000 
#    0.000    0.000    0.000    0.000    0.000    0.000 
#
# Total GULP energy -122604.699774 kJ/mol
# GULP energy per Si atom -5572.940899 kJ/mol
# Density = 2.034878 g / cm^3
# Si number density = 20.395205 Si / 1000 Ang^3
#
#
#
# Elastic Constant Matrix: (Units=GPa)
#
#
# Indices 1 2 3 4 5 6 
#
# 1 31.0491 23.9103 11.2958 0.0000 -5.9035 0.0000
# 2 23.9103 163.4245 46.0088 0.0000 15.6142 0.0000
# 3 11.2958 46.0088 105.0940 0.0000 1.1188 0.0000
# 4 0.0000 0.0000 0.0000 19.8703 0.0000 -1.7033
# 5 -5.9035 15.6142 1.1188 0.0000 19.4745 0.0000
# 6 0.0000 0.0000 0.0000 -1.7033 0.0000 25.9037
#
#
#
# Elastic Compliance Matrix: (Units=1/GPa)
#
#
# Indices 1 2 3 4 5 6 
#
# 1 0.042159 -0.007579 -0.001415 0.000000 0.018939 0.000000
# 2 -0.007579 0.008965 -0.003011 0.000000 -0.009313 0.000000
# 3 -0.001415 -0.003011 0.010971 0.000000 0.001355 0.000000
# 4 0.000000 0.000000 0.000000 0.050612 0.000000 0.003328
# 5 0.018939 -0.009313 0.001355 0.000000 0.064479 0.000000
# 6 0.000000 0.000000 0.000000 0.003328 0.000000 0.038823
#
#
# Mechanical properties :
#
#
# Convention : Reuss Voigt Hill
#
# Bulk Modulus (GPa) = 26.25687 51.33304 38.79495
# Shear Modulus (GPa) = 19.78502 27.60654 23.69578
#
# Velocity S-wave (km/s) = 3.11799 3.68309 3.41226
# Velocity P-wave (km/s) = 5.08571 6.58109 5.88112
#
# Compressibility (1/GPa) = 0.03808528
#
# Stress axis : x y z
#
# Youngs Moduli (GPa) = 23.71947 111.53881 91.14775
#
# Poissons Ratio (x) = 0.84540 0.12896
# Poissons Ratio (y) = 0.17978 0.27446
# Poissons Ratio (z) = 0.03356 0.33586
#
# Static dielectric constant tensor:
#      x y z
#    x 1.784430 0.000000 0.015600 
#    y 0.000000 1.722470 0.000000 
#    z 0.015600 0.000000 1.755380 
# 
# From -- ./inp_files/236067.got.cif
#   From: 2010.05.17/outbox.cif.g08.bks.cpg/sg15_119_cif.got.tgz:236067.got - 2010.06.03 18:47:42.
