data_PCOD9300388
_publ_section_title
;
Structure prediction by ZEFSAII (Michael W. Deem and Ramdas Pophale) SiO2 
 PCOD9300388
Probable space group: C 2/C
;
_chemical_formula_sum "Si O2"
_cell_formula_units_Z 28
_cell_length_a 20.048541
_cell_length_b 5.532408
_cell_length_c 21.344861
_cell_angle_alpha 90.000000
_cell_angle_beta 154.924220
_cell_angle_gamma 90.000000
_cell_volume 1003.386495
_symmetry_space_group_name_H-M "C 2/C"
_symmetry_group_IT_number 15
_symmetry_cell_setting 'monoclinic'
loop_
_space_group_symop_operation_xyz
x,y,z
-x,y,1/2-z
-x,-y,-z
x,-y,1/2+z
1/2+x,1/2+y,z
1/2-x,1/2+y,1/2-z
1/2-x,1/2-y,-z
1/2+x,1/2-y,1/2+z
loop_
_atom_site_type_symbol
_atom_site_label
_atom_site_fract_x
_atom_site_fract_y
_atom_site_fract_z
Si Si1 0.000000 0.552933 0.750000
Si Si2 0.907282 0.752395 0.909050
Si Si3 0.930482 0.091843 0.292213
Si Si4 0.280648 0.743443 0.431092
O O1 0.152230 0.396538 0.862248
O O2 0.024365 0.716985 0.831207
O O3 0.774101 0.774710 0.848790
O O4 0.869158 0.782047 0.803522
O O5 0.000000 0.500000 0.000000
O O6 0.000000 0.000000 0.000000
O O7 0.050110 0.866767 0.407157
O O8 0.784348 0.015779 0.124000
#
# Coordination Sequence:
#
# PCOD9300388 Si02
#       4
#     4   8   8   8
#     4  12  28  46  80 120 172 218 276 340 422 502
#     4  10  26  50  84 117 161 213 276 340 408 488
#     4  11  28  49  83 117 167 220 280 344 418 496
#     4  11  28  50  80 118 165 215 279 343 421 490
#
# _framework density 27.9055
#
# number of rings (size 3 to 8) (size 9 to 14) (size 15 to 20)
#    0.000    1.143    0.000    1.714   20.000    4.571 
#    0.000    0.000    0.000    0.000    0.000    0.000 
#    0.000    0.000    0.000    0.000    0.000    0.000 
#
# Total GULP energy -78329.741609 kJ/mol
# GULP energy per Si atom -5594.981543 kJ/mol
# Density = 2.784199 g / cm^3
# Si number density = 27.905500 Si / 1000 Ang^3
#
#
#
# Elastic Constant Matrix: (Units=GPa)
#
#
# Indices 1 2 3 4 5 6 
#
# 1 154.7583 -0.6032 41.7442 0.0011 16.6276 0.0013
# 2 -0.6032 120.8808 66.7692 0.0043 -15.0514 0.0069
# 3 41.7442 66.7692 149.3222 -0.0004 5.5179 0.0004
# 4 0.0011 0.0043 -0.0004 57.0362 0.0003 -6.9502
# 5 16.6276 -15.0514 5.5179 0.0003 49.4152 0.0003
# 6 0.0013 0.0069 0.0004 -6.9502 0.0003 51.4225
#
#
#
# Elastic Compliance Matrix: (Units=1/GPa)
#
#
# Indices 1 2 3 4 5 6 
#
# 1 0.007343 0.001204 -0.002524 0.000000 -0.001822 0.000000
# 2 0.001204 0.011991 -0.005843 -0.000001 0.003900 -0.000002
# 3 -0.002524 -0.005843 0.010091 0.000001 -0.002057 0.000001
# 4 0.000000 -0.000001 0.000001 0.017826 0.000000 0.002409
# 5 -0.001822 0.003900 -0.002057 0.000000 0.022267 -0.000001
# 6 0.000000 -0.000002 0.000001 0.002409 -0.000001 0.019772
#
#
# Mechanical properties :
#
#
# Convention : Reuss Voigt Hill
#
# Bulk Modulus (GPa) = 66.22425 71.19796 68.71111
# Shear Modulus (GPa) = 46.01945 52.71153 49.36549
#
# Velocity S-wave (km/s) = 4.06534 4.35090 4.21054
# Velocity P-wave (km/s) = 6.76898 7.12810 6.95086
#
# Compressibility (1/GPa) = 0.01510021
#
# Stress axis : x y z
#
# Youngs Moduli (GPa) = 136.18588 83.39341 99.09892
#
# Poissons Ratio (x) = -0.10038 0.25009
# Poissons Ratio (y) = -0.16393 0.57899
# Poissons Ratio (z) = 0.34369 0.48723
#
# Static dielectric constant tensor:
#      x y z
#    x 2.236480 0.000000 0.028130 
#    y 0.000000 2.290750 0.000000 
#    z 0.028130 0.000000 2.267010 
# 
# From -- ./inp_files/108874.got.cif
#   From: 2010.05.17/outbox.cif.g08.bks.cpg/sg15_55_cif.got.tgz:108874.got - 2010.06.03 18:47:42.
