data_PCOD9300981
_publ_section_title
;
Structure prediction by ZEFSAII (Michael W. Deem and Ramdas Pophale) SiO2 
 PCOD9300981
Probable space group: C 2/C
;
_chemical_formula_sum "Si O2"
_cell_formula_units_Z 64
_cell_length_a 17.251571
_cell_length_b 13.956973
_cell_length_c 20.142540
_cell_angle_alpha 90.000000
_cell_angle_beta 27.040866
_cell_angle_gamma 90.000000
_cell_volume 2204.896908
_symmetry_space_group_name_H-M "C 2/C"
_symmetry_group_IT_number 15
_symmetry_cell_setting 'monoclinic'
loop_
_space_group_symop_operation_xyz
x,y,z
-x,y,1/2-z
-x,-y,-z
x,-y,1/2+z
1/2+x,1/2+y,z
1/2-x,1/2+y,1/2-z
1/2-x,1/2-y,-z
1/2+x,1/2-y,1/2+z
loop_
_atom_site_type_symbol
_atom_site_label
_atom_site_fract_x
_atom_site_fract_y
_atom_site_fract_z
Si Si1 0.434327 0.304964 0.369612
Si Si2 0.604402 0.184194 0.760184
Si Si3 0.389577 0.461261 0.643776
Si Si4 0.585443 0.628185 0.116312
Si Si5 0.565396 0.791469 0.982697
Si Si6 0.665709 0.002889 0.917792
Si Si7 0.082489 0.500939 0.124368
Si Si8 0.709347 0.687318 0.385829
O O1 0.500000 0.354799 0.250000
O O2 0.250000 0.250000 0.500000
O O3 0.365150 0.360696 0.488650
O O4 0.606163 0.239724 0.249489
O O5 0.455410 0.257113 0.848834
O O6 0.793804 0.215726 0.601140
O O7 0.568786 0.074039 0.775166
O O8 0.589950 0.198135 0.848965
O O9 0.500000 0.500000 0.500000
O O10 0.493841 0.406682 0.620150
O O11 0.299994 0.538214 0.761042
O O12 0.274789 0.385804 0.688840
O O13 0.500000 0.590983 0.250000
O O14 0.765360 0.574022 0.977270
O O15 0.677917 0.886745 0.911806
O O16 0.454141 0.757965 0.004758
O O17 0.637995 0.046527 0.011565
O O18 0.500000 0.000000 0.000000
O O19 0.000000 0.556649 0.250000
#
# Coordination Sequence:
#
# PCOD9300981 Si02
#       8
#     8   8   8   8   8   8   8   8
#     4   9  20  39  70 105 138 167 220 297 371 423
#     4  11  20  35  61 103 141 176 221 271 347 420
#     4  12  27  45  69  98 136 194 247 287 343 425
#     4  12  21  43  66  94 146 181 229 289 346 417
#     4  11  20  37  65 102 135 173 226 286 342 415
#     4  11  25  45  64  93 137 183 238 288 341 411
#     4  11  24  38  66 102 138 185 227 285 355 423
#     4  11  21  41  72 102 138 176 226 295 359 419
#
# _framework density 29.026301
#
# number of rings (size 3 to 8) (size 9 to 14) (size 15 to 20)
#    0.000    1.000    3.750    3.750    1.750    2.000 
#    0.000    0.625   16.500    0.000    0.000    0.000 
#    0.000    0.000    0.000    0.000    0.000    0.000 
#
# Total GULP energy -178435.162552 kJ/mol
# GULP energy per Si atom -5576.098830 kJ/mol
# Density = 2.896024 g / cm^3
# Si number density = 29.026301 Si / 1000 Ang^3
#
#
#
# Elastic Constant Matrix: (Units=GPa)
#
#
# Indices 1 2 3 4 5 6 
#
# 1 124.6649 29.3408 76.9335 0.0009 33.4633 -0.0005
# 2 29.3408 57.4645 29.3189 0.0025 -6.4351 -0.0028
# 3 76.9335 29.3189 229.1244 0.0012 41.0021 -0.0009
# 4 0.0009 0.0025 0.0012 39.2676 -0.0004 -12.5632
# 5 33.4633 -6.4351 41.0021 -0.0004 93.6937 0.0000
# 6 -0.0005 -0.0028 -0.0009 -12.5632 0.0000 29.5060
#
#
#
# Elastic Compliance Matrix: (Units=1/GPa)
#
#
# Indices 1 2 3 4 5 6 
#
# 1 0.011776 -0.005006 -0.002712 0.000000 -0.003363 0.000000
# 2 -0.005006 0.021310 -0.001766 -0.000001 0.004024 0.000002
# 3 -0.002712 -0.001766 0.005804 0.000000 -0.001693 0.000000
# 4 0.000000 -0.000001 0.000000 0.029482 0.000000 0.012553
# 5 -0.003363 0.004024 -0.001693 0.000000 0.012891 0.000000
# 6 0.000000 0.000002 0.000000 0.012553 0.000000 0.039236
#
#
# Mechanical properties :
#
#
# Convention : Reuss Voigt Hill
#
# Bulk Modulus (GPa) = 50.19509 75.82668 63.01089
# Shear Modulus (GPa) = 34.22145 50.87083 42.54614
#
# Velocity S-wave (km/s) = 3.43735 4.19092 3.83270
# Velocity P-wave (km/s) = 5.75190 7.04263 6.42973
#
# Compressibility (1/GPa) = 0.01992227
#
# Stress axis : x y z
#
# Youngs Moduli (GPa) = 84.92039 46.92701 172.29959
#
# Poissons Ratio (x) = 0.23490 0.46721
# Poissons Ratio (y) = 0.42508 0.30431
# Poissons Ratio (z) = 0.23027 0.08288
#
# Static dielectric constant tensor:
#      x y z
#    x 2.379250 0.000010 0.022610 
#    y 0.000010 2.433760 0.000010 
#    z 0.022610 0.000010 2.360390 
# 
# From -- ./inp_files/249917.got.cif
#   From: 2010.05.17/outbox.cif.g08.bks.cpg/sg15_125_cif.got.tgz:249917.got - 2010.06.03 18:47:42.
