data_PCOD9300268
_publ_section_title
;
Structure prediction by ZEFSAII (Michael W. Deem and Ramdas Pophale) SiO2 
 PCOD9300268
Probable space group: C 2/C
;
_chemical_formula_sum "Si O2"
_cell_formula_units_Z 40
_cell_length_a 5.547584
_cell_length_b 28.629427
_cell_length_c 12.082436
_cell_angle_alpha 90.000000
_cell_angle_beta 72.210706
_cell_angle_gamma 90.000000
_cell_volume 1827.229359
_symmetry_space_group_name_H-M "C 2/C"
_symmetry_group_IT_number 15
_symmetry_cell_setting 'monoclinic'
loop_
_space_group_symop_operation_xyz
x,y,z
-x,y,1/2-z
-x,-y,-z
x,-y,1/2+z
1/2+x,1/2+y,z
1/2-x,1/2+y,1/2-z
1/2-x,1/2-y,-z
1/2+x,1/2-y,1/2+z
loop_
_atom_site_type_symbol
_atom_site_label
_atom_site_fract_x
_atom_site_fract_y
_atom_site_fract_z
Si Si1 0.870433 0.795672 0.536125
Si Si2 0.295943 0.148698 0.863180
Si Si3 0.000000 0.922706 0.250000
Si Si4 0.000000 0.833754 0.750000
Si Si5 0.254904 0.471605 0.486130
Si Si6 0.481726 0.880320 0.573526
O O1 0.750000 0.750000 0.500000
O O2 0.667406 0.836717 0.553829
O O3 0.114848 0.810966 0.432506
O O4 0.943874 0.799908 0.654319
O O5 0.500000 0.168895 0.750000
O O6 0.153856 0.110803 0.809219
O O7 0.392137 0.121042 0.958016
O O8 0.836328 0.953755 0.354227
O O9 0.238092 0.867241 0.683034
O O10 0.500000 0.500000 0.500000
O O11 0.000000 0.500000 0.500000
O O12 0.151875 0.426498 0.570025
#
# Coordination Sequence:
#
# PCOD9300268 Si02
#       6
#     8   8   4   4   8   8
#     4  11  25  50  74 112 152 199 262 316 394 483
#     4  11  21  43  80 105 148 202 253 324 396 455
#     4  12  24  49  72 110 148 198 262 329 382 476
#     4  10  26  47  78 106 164 206 248 327 406 468
#     4  12  28  47  76 113 151 203 265 324 396 470
#     4  11  24  49  72 108 156 197 258 323 395 470
#
# _framework density 21.891069000000002
#
# number of rings (size 3 to 8) (size 9 to 14) (size 15 to 20)
#    0.000    0.800    4.000    1.800    2.800    4.000 
#   21.600    0.000    0.000    0.000    0.000    0.000 
#    0.000    0.000    0.000    0.000    0.000    0.000 
#
# Total GULP energy -111783.475401 kJ/mol
# GULP energy per Si atom -5589.173770 kJ/mol
# Density = 2.184124 g / cm^3
# Si number density = 21.891069 Si / 1000 Ang^3
#
#
#
# Elastic Constant Matrix: (Units=GPa)
#
#
# Indices 1 2 3 4 5 6 
#
# 1 150.9565 85.6913 86.3684 0.0000 -3.2230 0.0000
# 2 85.6913 157.4514 67.1190 0.0000 -3.4719 0.0000
# 3 86.3684 67.1190 190.3306 0.0000 -16.9459 0.0000
# 4 0.0000 0.0000 0.0000 -188.6601 0.0000 -262.7651
# 5 -3.2230 -3.4719 -16.9459 0.0000 50.2314 0.0000
# 6 0.0000 0.0000 0.0000 -262.7651 0.0000 -270.6775
#
#
#
# Elastic Compliance Matrix: (Units=1/GPa)
#
#
# Indices 1 2 3 4 5 6 
#
# 1 0.011272 -0.004639 -0.003550 0.000000 -0.000795 0.000000
# 2 -0.004639 0.009391 -0.001212 0.000000 -0.000057 0.000000
# 3 -0.003550 -0.001212 0.007489 0.000000 0.002215 0.000000
# 4 0.000000 0.000000 0.000000 0.015055 0.000000 -0.014615
# 5 -0.000795 -0.000057 0.002215 0.000000 0.020600 0.000000
# 6 0.000000 0.000000 0.000000 -0.014615 0.000000 0.010493
#
#
# Mechanical properties :
#
#
# Convention : Reuss Voigt Hill
#
# Bulk Modulus (GPa) = 106.93666 108.56622 107.75144
# Shear Modulus (GPa) = 51.96519 -64.51726 -6.27604
#
# Velocity S-wave (km/s) = 4.87746 -5.43470 -1.69504
# Velocity P-wave (km/s) = 8.98192 3.21252 6.74519
#
# Compressibility (1/GPa) = 0.00935133
#
# Stress axis : x y z
#
# Youngs Moduli (GPa) = 88.71788 106.48374 133.52180
#
# Poissons Ratio (x) = 0.49396 0.47398
# Poissons Ratio (y) = 0.41154 0.16181
# Poissons Ratio (z) = 0.31493 0.12904
#
# Static dielectric constant tensor:
#      x y z
#    x 1.818830 0.000000 -0.018880 
#    y 0.000000 1.891600 0.000000 
#    z -0.018880 0.000000 1.731980 
# 
# From -- ./inp_files/73814.got.cif
#   From: 2010.05.17/outbox.cif.g08.bks.cpg/sg15_37_cif.got.tgz:73814.got - 2010.06.03 18:47:42.
