data_PCOD9300553
_publ_section_title
;
Structure prediction by ZEFSAII (Michael W. Deem and Ramdas Pophale) SiO2 
 PCOD9300553
Probable space group: C 2/C
;
_chemical_formula_sum "Si O2"
_cell_formula_units_Z 48
_cell_length_a 18.471304
_cell_length_b 6.429870
_cell_length_c 20.793213
_cell_angle_alpha 90.000000
_cell_angle_beta 118.720750
_cell_angle_gamma 90.000000
_cell_volume 2165.744262
_symmetry_space_group_name_H-M "C 2/C"
_symmetry_group_IT_number 15
_symmetry_cell_setting 'monoclinic'
loop_
_space_group_symop_operation_xyz
x,y,z
-x,y,1/2-z
-x,-y,-z
x,-y,1/2+z
1/2+x,1/2+y,z
1/2-x,1/2+y,1/2-z
1/2-x,1/2-y,-z
1/2+x,1/2-y,1/2+z
loop_
_atom_site_type_symbol
_atom_site_label
_atom_site_fract_x
_atom_site_fract_y
_atom_site_fract_z
Si Si1 0.662021 0.871635 0.473538
Si Si2 0.138120 0.498770 0.329650
Si Si3 0.779648 0.880559 0.707728
Si Si4 0.877528 0.759024 0.291621
Si Si5 0.209694 0.281229 0.085848
Si Si6 0.086755 0.903628 0.054634
O O1 0.750000 0.750000 0.500000
O O2 0.615453 0.742404 0.508477
O O3 0.610636 0.893840 0.385028
O O4 0.678717 0.101260 0.509257
O O5 0.191697 0.320144 0.318290
O O6 0.087761 0.611557 0.250119
O O7 0.200923 0.676182 0.380881
O O8 0.717507 0.817460 0.737711
O O9 0.861579 0.006151 0.761424
O O10 0.723657 0.028532 0.640134
O O11 0.916395 0.779886 0.378791
O O12 0.149553 0.099464 0.084247
O O13 0.000000 0.000000 0.000000
#
# Coordination Sequence:
#
# PCOD9300553 Si02
#       6
#     8   8   8   8   8   8
#     4  12  22  41  64 101 132 167 226 283 345 400
#     4  11  22  34  65 100 128 162 213 296 341 394
#     4  11  18  33  61  98 129 157 217 289 337 380
#     4  11  20  36  59  95 127 168 219 279 341 392
#     4  11  20  37  65  95 131 164 218 274 346 386
#     4  12  27  43  63  95 138 185 227 274 338 422
#
# _framework density 22.163281999999999
#
# number of rings (size 3 to 8) (size 9 to 14) (size 15 to 20)
#    0.000    0.667    8.333    1.500    0.000    0.667 
#    0.000    0.000    0.000    6.000    0.000    0.000 
#    0.000    0.000    0.000    0.000    0.000    0.000 
#
# Total GULP energy -133908.856747 kJ/mol
# GULP energy per Si atom -5579.535698 kJ/mol
# Density = 2.211284 g / cm^3
# Si number density = 22.163282 Si / 1000 Ang^3
#
#
#
# Elastic Constant Matrix: (Units=GPa)
#
#
# Indices 1 2 3 4 5 6 
#
# 1 44.3210 21.9393 53.1546 0.0000 -16.2295 0.0000
# 2 21.9393 107.5686 49.9244 0.0000 -23.0054 0.0000
# 3 53.1546 49.9244 161.6230 0.0000 -42.2602 0.0000
# 4 0.0000 0.0000 0.0000 39.2369 0.0000 -5.9411
# 5 -16.2295 -23.0054 -42.2602 0.0000 31.9847 0.0000
# 6 0.0000 0.0000 0.0000 -5.9411 0.0000 16.1160
#
#
#
# Elastic Compliance Matrix: (Units=1/GPa)
#
#
# Indices 1 2 3 4 5 6 
#
# 1 0.037940 -0.001915 -0.011020 0.000000 0.003314 0.000000
# 2 -0.001915 0.011536 -0.001556 0.000000 0.005271 0.000000
# 3 -0.011020 -0.001556 0.013044 0.000000 0.010524 0.000000
# 4 0.000000 0.000000 0.000000 0.026993 0.000000 0.009951
# 5 0.003314 0.005271 0.010524 0.000000 0.050642 0.000000
# 6 0.000000 0.000000 0.000000 0.009951 0.000000 0.065719
#
#
# Mechanical properties :
#
#
# Convention : Reuss Voigt Hill
#
# Bulk Modulus (GPa) = 29.81565 62.61659 46.21612
# Shear Modulus (GPa) = 20.32242 30.03378 25.17810
#
# Velocity S-wave (km/s) = 3.03139 3.68518 3.37416
# Velocity P-wave (km/s) = 5.07290 6.81331 6.00648
#
# Compressibility (1/GPa) = 0.03353944
#
# Stress axis : x y z
#
# Youngs Moduli (GPa) = 26.35726 86.68432 76.66628
#
# Poissons Ratio (x) = 0.16599 0.84484
# Poissons Ratio (y) = 0.05047 0.11926
# Poissons Ratio (z) = 0.29045 0.13484
#
# Static dielectric constant tensor:
#      x y z
#    x 1.819160 0.000000 -0.042440 
#    y 0.000000 1.824730 0.000000 
#    z -0.042440 0.000000 1.952140 
# 
# From -- ./inp_files/254466.got.cif
#   From: 2010.05.17/outbox.cif.g08.bks.cpg/sg15_128_cif.got.tgz:254466.got - 2010.06.03 18:47:42.
