data_PCOD9300478
_publ_section_title
;
Structure prediction by ZEFSAII (Michael W. Deem and Ramdas Pophale) SiO2 
 PCOD9300478
Probable space group: C 2/C
;
_chemical_formula_sum "Si O2"
_cell_formula_units_Z 52
_cell_length_a 15.400943
_cell_length_b 15.394192
_cell_length_c 14.811220
_cell_angle_alpha 90.000000
_cell_angle_beta 35.938976
_cell_angle_gamma 90.000000
_cell_volume 2060.992285
_symmetry_space_group_name_H-M "C 2/C"
_symmetry_group_IT_number 15
_symmetry_cell_setting 'monoclinic'
loop_
_space_group_symop_operation_xyz
x,y,z
-x,y,1/2-z
-x,-y,-z
x,-y,1/2+z
1/2+x,1/2+y,z
1/2-x,1/2+y,1/2-z
1/2-x,1/2-y,-z
1/2+x,1/2-y,1/2+z
loop_
_atom_site_type_symbol
_atom_site_label
_atom_site_fract_x
_atom_site_fract_y
_atom_site_fract_z
Si Si1 0.933879 0.178378 0.631744
Si Si2 0.000000 0.073817 0.750000
Si Si3 0.277568 0.856636 0.808076
Si Si4 0.160927 0.380014 0.249468
Si Si5 0.797670 0.517666 0.440808
Si Si6 0.154266 0.204993 0.158136
Si Si7 0.862938 0.558337 0.067520
O O1 0.924196 0.133308 0.738038
O O2 0.875061 0.276437 0.691852
O O3 0.822744 0.128957 0.657353
O O4 0.105452 0.170841 0.458672
O O5 0.120912 0.016984 0.597895
O O6 0.328887 0.893233 0.861605
O O7 0.297540 0.938371 0.723219
O O8 0.156178 0.437973 0.162329
O O9 0.117316 0.282015 0.258596
O O10 0.033771 0.412627 0.424429
O O11 0.855737 0.512719 0.493855
O O12 0.257559 0.132291 0.112938
O O13 0.000000 0.171252 0.250000
O O14 0.250000 0.250000 0.000000
#
# Coordination Sequence:
#
# PCOD9300478 Si02
#       7
#     8   4   8   8   8   8   8
#     4  11  26  50  80 110 149 200 263 313 372 460
#     4  10  28  52  74 110 148 210 256 310 384 458
#     4  11  27  49  78 114 147 205 258 318 374 457
#     4  12  25  46  70 116 152 193 254 316 378 458
#     4  11  27  46  73 112 157 201 246 314 389 456
#     4  12  23  39  69 105 150 194 243 303 371 454
#     4  12  26  46  72 113 155 200 251 311 387 449
#
# _framework density 25.230564999999999
#
# number of rings (size 3 to 8) (size 9 to 14) (size 15 to 20)
#    0.000    0.615    4.615    1.385    7.538    4.308 
#   11.077    0.000    0.000    0.000    0.000    0.000 
#    0.000    0.000    0.000    0.000    0.000    0.000 
#
# Total GULP energy -145664.475655 kJ/mol
# GULP energy per Si atom -5602.479833 kJ/mol
# Density = 2.517314 g / cm^3
# Si number density = 25.230565 Si / 1000 Ang^3
#
#
#
# Elastic Constant Matrix: (Units=GPa)
#
#
# Indices 1 2 3 4 5 6 
#
# 1 146.1659 45.1329 45.3240 -0.0001 -4.9103 0.0001
# 2 45.1329 82.5728 50.1765 -0.0001 -10.3850 0.0001
# 3 45.3240 50.1765 145.0814 -0.0003 -7.0572 0.0002
# 4 -0.0001 -0.0001 -0.0003 34.6184 0.0002 -3.3242
# 5 -4.9103 -10.3850 -7.0572 0.0002 50.7871 -0.0001
# 6 0.0001 0.0001 0.0002 -3.3242 -0.0001 40.5285
#
#
#
# Elastic Compliance Matrix: (Units=1/GPa)
#
#
# Indices 1 2 3 4 5 6 
#
# 1 0.008426 -0.003824 -0.001317 0.000000 -0.000150 0.000000
# 2 -0.003824 0.017368 -0.004689 0.000000 0.002530 0.000000
# 3 -0.001317 -0.004689 0.008933 0.000000 0.000155 0.000000
# 4 0.000000 0.000000 0.000000 0.029116 0.000000 0.002388
# 5 -0.000150 0.002530 0.000155 0.000000 0.020214 0.000000
# 6 0.000000 0.000000 0.000000 0.002388 0.000000 0.024870
#
#
# Mechanical properties :
#
#
# Convention : Reuss Voigt Hill
#
# Bulk Modulus (GPa) = 66.36947 72.78742 69.57845
# Shear Modulus (GPa) = 37.42243 40.73258 39.07750
#
# Velocity S-wave (km/s) = 3.85543 4.02234 3.93977
# Velocity P-wave (km/s) = 6.79569 7.10519 6.95217
#
# Compressibility (1/GPa) = 0.01506717
#
# Stress axis : x y z
#
# Youngs Moduli (GPa) = 118.68563 57.57640 111.93940
#
# Poissons Ratio (x) = 0.22017 0.14743
# Poissons Ratio (y) = 0.45384 0.52490
# Poissons Ratio (z) = 0.15631 0.26998
#
# Static dielectric constant tensor:
#      x y z
#    x 2.005160 0.000000 0.053430 
#    y 0.000000 2.058480 0.000000 
#    z 0.053430 0.000000 1.987600 
# 
# From -- ./inp_files/155415.got.cif
#   From: 2010.05.17/outbox.cif.g08.bks.cpg/sg15_78_cif.got.tgz:155415.got - 2010.06.03 18:47:42.
