data_PCOD9300530
_publ_section_title
;
Structure prediction by ZEFSAII (Michael W. Deem and Ramdas Pophale) SiO2 
 PCOD9300530
Probable space group: C 2/C
;
_chemical_formula_sum "Si O2"
_cell_formula_units_Z 60
_cell_length_a 10.914713
_cell_length_b 21.320449
_cell_length_c 17.013168
_cell_angle_alpha 90.000000
_cell_angle_beta 59.555297
_cell_angle_gamma 90.000000
_cell_volume 3413.193174
_symmetry_space_group_name_H-M "C 2/C"
_symmetry_group_IT_number 15
_symmetry_cell_setting 'monoclinic'
loop_
_space_group_symop_operation_xyz
x,y,z
-x,y,1/2-z
-x,-y,-z
x,-y,1/2+z
1/2+x,1/2+y,z
1/2-x,1/2+y,1/2-z
1/2-x,1/2-y,-z
1/2+x,1/2-y,1/2+z
loop_
_atom_site_type_symbol
_atom_site_label
_atom_site_fract_x
_atom_site_fract_y
_atom_site_fract_z
Si Si1 0.000000 0.826614 0.250000
Si Si2 0.225031 0.385640 0.273939
Si Si3 0.652712 0.779346 0.170080
Si Si4 0.130868 0.724225 0.095424
Si Si5 0.592771 0.112802 0.565504
Si Si6 0.828564 0.622302 0.298516
Si Si7 0.645391 0.838392 0.882553
Si Si8 0.666213 0.014900 0.669203
O O1 0.862982 0.868644 0.277935
O O2 0.957505 0.779706 0.334381
O O3 0.201081 0.327574 0.222159
O O4 0.243139 0.445787 0.212248
O O5 0.078367 0.393143 0.369833
O O6 0.500000 0.755110 0.250000
O O7 0.632842 0.823044 0.099555
O O8 0.762219 0.722898 0.126907
O O9 0.208035 0.682723 0.137681
O O10 0.015119 0.683061 0.086374
O O11 0.250000 0.750000 0.000000
O O12 0.639203 0.117699 0.460571
O O13 0.663693 0.055314 0.590285
O O14 0.795519 0.631228 0.217360
O O15 0.779609 0.556157 0.349894
O O16 0.000000 0.621627 0.250000
O O17 0.500000 0.013830 0.750000
#
# Coordination Sequence:
#
# PCOD9300530 Si02
#       8
#     4   8   8   8   8   8   8   8
#     4  12  18  34  52  80 116 136 180 222 272 324
#     4   9  17  31  52  76 104 145 173 218 265 319
#     4   9  17  31  50  75 107 138 173 214 269 320
#     4  11  21  33  52  80 111 144 175 215 275 325
#     4   9  18  30  51  82 105 132 183 218 263 322
#     4   9  18  35  53  74 107 141 175 224 268 309
#     4  11  18  31  51  80 107 135 176 219 273 316
#     4   8  16  34  55  72 101 140 178 222 266 307
#
# _framework density 17.578847
#
# number of rings (size 3 to 8) (size 9 to 14) (size 15 to 20)
#    0.000    2.400    3.333    2.800    0.000    1.067 
#    0.000   12.000    1.467    0.800    0.000    0.000 
#    0.000    0.000    0.000    0.000    0.000    0.000 
#
# Total GULP energy -167165.101333 kJ/mol
# GULP energy per Si atom -5572.170044 kJ/mol
# Density = 1.753884 g / cm^3
# Si number density = 17.578847 Si / 1000 Ang^3
#
#
#
# Elastic Constant Matrix: (Units=GPa)
#
#
# Indices 1 2 3 4 5 6 
#
# 1 41.2309 22.0589 21.1317 0.0000 14.2092 0.0000
# 2 22.0589 81.3215 43.2415 0.0000 6.4012 0.0000
# 3 21.1317 43.2415 104.1011 0.0000 15.2487 0.0000
# 4 0.0000 0.0000 0.0000 8.1273 0.0000 -4.1939
# 5 14.2092 6.4012 15.2487 0.0000 20.6782 0.0000
# 6 0.0000 0.0000 0.0000 -4.1939 0.0000 7.9693
#
#
#
# Elastic Compliance Matrix: (Units=1/GPa)
#
#
# Indices 1 2 3 4 5 6 
#
# 1 0.036393 -0.007605 -0.001020 0.000000 -0.021901 0.000000
# 2 -0.007605 0.017372 -0.006334 0.000000 0.004519 0.000000
# 3 -0.001020 -0.006334 0.013514 0.000000 -0.007304 0.000000
# 4 0.000000 0.000000 0.000000 0.168913 0.000000 0.088892
# 5 -0.021901 0.004519 -0.007304 0.000000 0.067396 0.000000
# 6 0.000000 0.000000 0.000000 0.088892 0.000000 0.172261
#
#
# Mechanical properties :
#
#
# Convention : Reuss Voigt Hill
#
# Bulk Modulus (GPa) = 26.76684 44.39084 35.57884
# Shear Modulus (GPa) = 9.64835 16.70306 13.17570
#
# Velocity S-wave (km/s) = 2.34532 3.08584 2.74071
# Velocity P-wave (km/s) = 4.75330 6.16472 5.50444
#
# Compressibility (1/GPa) = 0.03735966
#
# Stress axis : x y z
#
# Youngs Moduli (GPa) = 27.47770 57.56301 73.99657
#
# Poissons Ratio (x) = 0.43778 0.07550
# Poissons Ratio (y) = 0.20898 0.46871
# Poissons Ratio (z) = 0.02804 0.36462
#
# Static dielectric constant tensor:
#      x y z
#    x 1.595500 0.000000 0.016970 
#    y 0.000000 1.622080 0.000000 
#    z 0.016970 0.000000 1.607200 
# 
# From -- ./inp_files/199123.got.cif
#   From: 2010.05.17/outbox.cif.g08.bks.cpg/sg15_100_cif.got.tgz:199123.got - 2010.06.03 18:47:42.
