data_PCOD9300365
_publ_section_title
;
Structure prediction by ZEFSAII (Michael W. Deem and Ramdas Pophale) SiO2 
 PCOD9300365
Probable space group: C 2/C
;
_chemical_formula_sum "Si O2"
_cell_formula_units_Z 28
_cell_length_a 14.081520
_cell_length_b 4.863305
_cell_length_c 16.643580
_cell_angle_alpha 90.000000
_cell_angle_beta 101.135172
_cell_angle_gamma 90.000000
_cell_volume 1118.340245
_symmetry_space_group_name_H-M "C 2/C"
_symmetry_group_IT_number 15
_symmetry_cell_setting 'monoclinic'
loop_
_space_group_symop_operation_xyz
x,y,z
-x,y,1/2-z
-x,-y,-z
x,-y,1/2+z
1/2+x,1/2+y,z
1/2-x,1/2+y,1/2-z
1/2-x,1/2-y,-z
1/2+x,1/2-y,1/2+z
loop_
_atom_site_type_symbol
_atom_site_label
_atom_site_fract_x
_atom_site_fract_y
_atom_site_fract_z
Si Si1 0.000000 0.681062 0.250000
Si Si2 0.559492 0.475216 0.426810
Si Si3 0.311529 0.027573 0.557324
Si Si4 0.205977 0.409537 0.274330
O O1 0.983007 0.854085 0.164179
O O2 0.095680 0.501284 0.247025
O O3 0.500000 0.500000 0.500000
O O4 0.352958 0.737152 0.536136
O O5 0.593400 0.782698 0.412077
O O6 0.250000 0.250000 0.500000
O O7 0.260522 0.983762 0.633647
O O8 0.272779 0.587241 0.225750
#
# Coordination Sequence:
#
# PCOD9300365 Si02
#       4
#     4   8   8   8
#     4  10  26  50  74 108 152 180 264 296 346 464
#     4  11  25  47  74 105 143 199 234 304 380 418
#     4  11  25  48  68 109 147 179 249 302 361 456
#     4  11  25  46  76 105 140 198 238 298 373 419
#
# _framework density 25.037102999999998
#
# number of rings (size 3 to 8) (size 9 to 14) (size 15 to 20)
#    0.000    1.143    0.000    5.143    4.000   10.286 
#    5.143    0.000    0.000    0.000    0.000    0.000 
#    0.000    0.000    0.000    0.000    0.000    0.000 
#
# Total GULP energy -78218.466359 kJ/mol
# GULP energy per Si atom -5587.033311 kJ/mol
# Density = 2.498012 g / cm^3
# Si number density = 25.037103 Si / 1000 Ang^3
#
#
#
# Elastic Constant Matrix: (Units=GPa)
#
#
# Indices 1 2 3 4 5 6 
#
# 1 49.9705 17.0284 29.0506 0.0000 -0.9426 0.0000
# 2 17.0284 163.0032 12.2137 0.0000 -4.5998 0.0000
# 3 29.0506 12.2137 105.0177 0.0000 -8.2114 0.0000
# 4 0.0000 0.0000 0.0000 41.2112 0.0000 -7.6997
# 5 -0.9426 -4.5998 -8.2114 0.0000 36.7402 0.0000
# 6 0.0000 0.0000 0.0000 -7.6997 0.0000 56.5341
#
#
#
# Elastic Compliance Matrix: (Units=1/GPa)
#
#
# Indices 1 2 3 4 5 6 
#
# 1 0.024566 -0.002100 -0.006639 0.000000 -0.001116 0.000000
# 2 -0.002100 0.006382 -0.000105 0.000000 0.000722 0.000000
# 3 -0.006639 -0.000105 0.011558 0.000000 0.002400 0.000000
# 4 0.000000 0.000000 0.000000 0.024899 0.000000 0.003391
# 5 -0.001116 0.000722 0.002400 0.000000 0.027816 0.000000
# 6 0.000000 0.000000 0.000000 0.003391 0.000000 0.018150
#
#
# Mechanical properties :
#
#
# Convention : Reuss Voigt Hill
#
# Bulk Modulus (GPa) = 40.29137 48.28631 44.28884
# Shear Modulus (GPa) = 35.88532 44.21035 40.04784
#
# Velocity S-wave (km/s) = 3.78998 4.20669 4.00376
# Velocity P-wave (km/s) = 5.93966 6.55155 6.25309
#
# Compressibility (1/GPa) = 0.02481921
#
# Stress axis : x y z
#
# Youngs Moduli (GPa) = 40.70691 156.67856 86.51694
#
# Poissons Ratio (x) = 0.32909 0.57435
# Poissons Ratio (y) = 0.08550 0.00907
# Poissons Ratio (z) = 0.27023 0.01643
#
# Static dielectric constant tensor:
#      x y z
#    x 2.006320 0.000000 -0.022670 
#    y 0.000000 1.965020 0.000000 
#    z -0.022670 0.000000 2.074260 
# 
# From -- ./inp_files/201604.got.cif
#   From: 2010.05.17/outbox.cif.g08.bks.cpg/sg15_101_cif.got.tgz:201604.got - 2010.06.03 18:47:42.
