data_PCOD9300627
_publ_section_title
;
Structure prediction by ZEFSAII (Michael W. Deem and Ramdas Pophale) SiO2 
 PCOD9300627
Probable space group: C 2/C
;
_chemical_formula_sum "Si O2"
_cell_formula_units_Z 56
_cell_length_a 20.333776
_cell_length_b 16.111384
_cell_length_c 9.454655
_cell_angle_alpha 90.000000
_cell_angle_beta 96.692807
_cell_angle_gamma 90.000000
_cell_volume 3076.286984
_symmetry_space_group_name_H-M "C 2/C"
_symmetry_group_IT_number 15
_symmetry_cell_setting 'monoclinic'
loop_
_space_group_symop_operation_xyz
x,y,z
-x,y,1/2-z
-x,-y,-z
x,-y,1/2+z
1/2+x,1/2+y,z
1/2-x,1/2+y,1/2-z
1/2-x,1/2-y,-z
1/2+x,1/2-y,1/2+z
loop_
_atom_site_type_symbol
_atom_site_label
_atom_site_fract_x
_atom_site_fract_y
_atom_site_fract_z
Si Si1 0.131981 0.162853 0.172261
Si Si2 0.944153 0.755120 0.331105
Si Si3 0.233382 0.132227 0.609983
Si Si4 0.664359 0.347672 0.371535
Si Si5 0.854943 0.277314 0.059176
Si Si6 0.491284 0.596893 0.026938
Si Si7 0.644845 0.462174 0.892245
O O1 0.129371 0.238173 0.283133
O O2 0.168435 0.085762 0.258727
O O3 0.057410 0.133512 0.113192
O O4 0.170471 0.179517 0.035425
O O5 0.884178 0.782511 0.215605
O O6 0.915846 0.711760 0.465945
O O7 0.975685 0.841684 0.394923
O O8 0.000000 0.711705 0.250000
O O9 0.224599 0.139789 0.776574
O O10 0.190520 0.208085 0.531635
O O11 0.307683 0.144488 0.575168
O O12 0.195891 0.053890 0.532222
O O13 0.632575 0.440768 0.368836
O O14 0.422076 0.589715 0.092923
O O15 0.500000 0.500000 0.000000
#
# Coordination Sequence:
#
# PCOD9300627 Si02
#       7
#     8   8   8   8   8   8   8
#     4  11  20  27  44  67  95 130 168 200 233 269
#     4  11  19  32  45  69  97 135 163 190 238 285
#     4   9  19  36  48  59  93 134 171 199 238 281
#     4  11  19  29  46  71  95 126 169 201 229 280
#     4   9  20  35  47  61  89 137 174 196 236 282
#     4  12  19  28  42  69 106 133 157 193 231 278
#     4  11  19  31  45  69  96 134 165 194 245 282
#
# _framework density 18.203764
#
# number of rings (size 3 to 8) (size 9 to 14) (size 15 to 20)
#    0.000    1.429    7.143    2.143    0.000    0.571 
#    0.000    0.000    0.000    0.000    0.000    0.000 
#    0.000    1.143    0.000    0.286    0.286    0.000 
#
# Total GULP energy -155882.592932 kJ/mol
# GULP energy per Si atom -5567.235462 kJ/mol
# Density = 1.816233 g / cm^3
# Si number density = 18.203764 Si / 1000 Ang^3
#
#
#
# Elastic Constant Matrix: (Units=GPa)
#
#
# Indices 1 2 3 4 5 6 
#
# 1 73.0366 10.6483 40.2490 0.0000 -30.1308 0.0000
# 2 10.6483 7.3924 8.8441 0.0000 -4.7764 0.0000
# 3 40.2490 8.8441 131.0720 0.0000 -34.5519 0.0000
# 4 0.0000 0.0000 0.0000 9.3068 0.0000 -5.8937
# 5 -30.1308 -4.7764 -34.5519 0.0000 27.0464 0.0000
# 6 0.0000 0.0000 0.0000 -5.8937 0.0000 17.1890
#
#
#
# Elastic Compliance Matrix: (Units=1/GPa)
#
#
# Indices 1 2 3 4 5 6 
#
# 1 0.028463 -0.023219 0.000157 0.000000 0.027809 0.000000
# 2 -0.023219 0.173682 -0.005009 0.000000 -0.001594 0.000000
# 3 0.000157 -0.005009 0.011658 0.000000 0.014184 0.000000
# 4 0.000000 0.000000 0.000000 0.137249 0.000000 0.047059
# 5 0.027809 -0.001594 0.014184 0.000000 0.085792 0.000000
# 6 0.000000 0.000000 0.000000 0.047059 0.000000 0.074312
#
#
# Mechanical properties :
#
#
# Convention : Reuss Voigt Hill
#
# Bulk Modulus (GPa) = 6.34273 36.77600 21.55937
# Shear Modulus (GPa) = 8.06645 20.82574 14.44609
#
# Velocity S-wave (km/s) = 2.10732 3.38603 2.82011
# Velocity P-wave (km/s) = 3.06805 5.96097 4.74058
#
# Compressibility (1/GPa) = 0.15766075
#
# Stress axis : x y z
#
# Youngs Moduli (GPa) = 35.13366 5.75766 85.77715
#
# Poissons Ratio (x) = 0.13368 -0.01349
# Poissons Ratio (y) = 0.81576 0.42970
# Poissons Ratio (z) = -0.00552 0.02884
#
# Static dielectric constant tensor:
#      x y z
#    x 1.731640 0.000000 -0.054640 
#    y 0.000000 1.629750 0.000000 
#    z -0.054640 0.000000 1.743410 
# 
# From -- ./inp_files/49804.got.cif
#   From: 2010.05.17/outbox.cif.g08.bks.cpg/sg15_25_cif.got.tgz:49804.got - 2010.06.03 18:47:42.
