data_PCOD9300633
_publ_section_title
;
Structure prediction by ZEFSAII (Michael W. Deem and Ramdas Pophale) SiO2 
 PCOD9300633
Probable space group: C 2/C
;
_chemical_formula_sum "Si O2"
_cell_formula_units_Z 64
_cell_length_a 17.136020
_cell_length_b 23.087689
_cell_length_c 18.366660
_cell_angle_alpha 90.000000
_cell_angle_beta 147.123087
_cell_angle_gamma 90.000000
_cell_volume 3944.476027
_symmetry_space_group_name_H-M "C 2/C"
_symmetry_group_IT_number 15
_symmetry_cell_setting 'monoclinic'
loop_
_space_group_symop_operation_xyz
x,y,z
-x,y,1/2-z
-x,-y,-z
x,-y,1/2+z
1/2+x,1/2+y,z
1/2-x,1/2+y,1/2-z
1/2-x,1/2-y,-z
1/2+x,1/2-y,1/2+z
loop_
_atom_site_type_symbol
_atom_site_label
_atom_site_fract_x
_atom_site_fract_y
_atom_site_fract_z
Si Si1 0.370579 0.317881 0.537269
Si Si2 0.160873 0.385072 0.274551
Si Si3 0.660202 0.489085 0.843081
Si Si4 0.164748 0.502706 0.372577
Si Si5 0.655182 0.445835 0.193672
Si Si6 0.654243 0.433218 0.602890
Si Si7 0.184271 0.127328 0.270045
Si Si8 0.364422 0.181989 0.523725
O O1 0.273982 0.338182 0.393538
O O2 0.521296 0.351000 0.654808
O O3 0.400576 0.249420 0.562274
O O4 0.268112 0.331601 0.525728
O O5 0.170497 0.440264 0.336362
O O6 0.215512 0.409350 0.239866
O O7 0.002718 0.357492 0.148420
O O8 0.500000 0.483869 0.750000
O O9 0.665452 0.539963 0.786872
O O10 0.700011 0.431169 0.829968
O O11 0.763826 0.497566 0.992592
O O12 0.247572 0.548984 0.387699
O O13 0.000000 0.519138 0.250000
O O14 0.648833 0.507935 0.147245
O O15 0.503170 0.418373 0.051205
O O16 0.704179 0.386124 0.700519
O O17 0.300559 0.170798 0.393974
#
# Coordination Sequence:
#
# PCOD9300633 Si02
#       8
#     8   8   8   8   8   8   8   8
#     4  11  21  35  50  70 102 137 174 211 243 281
#     4  11  20  35  51  69 105 140 166 203 256 291
#     4  11  19  30  52  75  98 129 175 204 234 306
#     4  11  21  32  50  76 106 134 163 207 255 298
#     4   9  18  32  50  72  96 131 169 208 242 296
#     4   9  18  33  49  71  99 130 168 205 247 301
#     4  11  20  33  52  71  98 140 171 200 250 300
#     4  11  23  33  48  75 102 132 176 216 239 284
#
# _framework density 16.225221999999999
#
# number of rings (size 3 to 8) (size 9 to 14) (size 15 to 20)
#    0.000    1.500    2.500    5.250    0.000    3.000 
#    0.000    3.750    0.000    0.000    0.000    0.000 
#    0.000   20.000    0.000    0.000    0.000    0.000 
#
# Total GULP energy -178589.330287 kJ/mol
# GULP energy per Si atom -5580.916571 kJ/mol
# Density = 1.618829 g / cm^3
# Si number density = 16.225222 Si / 1000 Ang^3
#
#
#
# Elastic Constant Matrix: (Units=GPa)
#
#
# Indices 1 2 3 4 5 6 
#
# 1 74.8878 25.8535 40.2450 -0.0002 -13.8545 -0.0001
# 2 25.8535 40.6631 22.1601 -0.0001 -5.1721 0.0000
# 3 40.2450 22.1601 114.9591 -0.0004 -6.9384 -0.0001
# 4 -0.0002 -0.0001 -0.0004 19.9934 -0.0003 -0.3952
# 5 -13.8545 -5.1721 -6.9384 -0.0003 22.0680 -0.0001
# 6 -0.0001 0.0000 -0.0001 -0.3952 -0.0001 23.5388
#
#
#
# Elastic Compliance Matrix: (Units=1/GPa)
#
#
# Indices 1 2 3 4 5 6 
#
# 1 0.021037 -0.009467 -0.004971 0.000000 0.009425 0.000000
# 2 -0.009467 0.032262 -0.002861 0.000000 0.000718 0.000000
# 3 -0.004971 -0.002861 0.010970 0.000000 -0.000342 0.000000
# 4 0.000000 0.000000 0.000000 0.050033 0.000001 0.000840
# 5 0.009425 0.000718 -0.000342 0.000001 0.051293 0.000000
# 6 0.000000 0.000000 0.000000 0.000840 0.000000 0.042497
#
#
# Mechanical properties :
#
#
# Convention : Reuss Voigt Hill
#
# Bulk Modulus (GPa) = 33.70411 45.22522 39.46467
# Shear Modulus (GPa) = 19.79568 22.60348 21.19958
#
# Velocity S-wave (km/s) = 3.49672 3.73648 3.61859
# Velocity P-wave (km/s) = 6.09266 6.82268 6.46798
#
# Compressibility (1/GPa) = 0.02966997
#
# Stress axis : x y z
#
# Youngs Moduli (GPa) = 47.53594 30.99594 91.15932
#
# Poissons Ratio (x) = 0.29345 0.45313
# Poissons Ratio (y) = 0.45004 0.26084
# Poissons Ratio (z) = 0.23629 0.08869
#
# Static dielectric constant tensor:
#      x y z
#    x 1.540120 0.000000 -0.004140 
#    y 0.000000 1.549980 0.000000 
#    z -0.004140 0.000000 1.543100 
# 
# From -- ./inp_files/51284.got.cif
#   From: 2010.05.17/outbox.cif.g08.bks.cpg/sg15_26_cif.got.tgz:51284.got - 2010.06.03 18:47:42.
