data_PCOD9300665
_publ_section_title
;
Structure prediction by ZEFSAII (Michael W. Deem and Ramdas Pophale) SiO2 
 PCOD9300665
Probable space group: C 2/C
;
_chemical_formula_sum "Si O2"
_cell_formula_units_Z 64
_cell_length_a 8.275960
_cell_length_b 27.435934
_cell_length_c 12.252043
_cell_angle_alpha 90.000000
_cell_angle_beta 83.371284
_cell_angle_gamma 90.000000
_cell_volume 2763.335740
_symmetry_space_group_name_H-M "C 2/C"
_symmetry_group_IT_number 15
_symmetry_cell_setting 'monoclinic'
loop_
_space_group_symop_operation_xyz
x,y,z
-x,y,1/2-z
-x,-y,-z
x,-y,1/2+z
1/2+x,1/2+y,z
1/2-x,1/2+y,1/2-z
1/2-x,1/2-y,-z
1/2+x,1/2-y,1/2+z
loop_
_atom_site_type_symbol
_atom_site_label
_atom_site_fract_x
_atom_site_fract_y
_atom_site_fract_z
Si Si1 0.013421 0.890863 0.009986
Si Si2 0.114294 0.024036 0.635609
Si Si3 0.338146 0.750429 0.189606
Si Si4 0.011894 0.680270 0.515952
Si Si5 0.826638 0.084027 0.327043
Si Si6 0.804299 0.646709 0.345967
Si Si7 0.377675 0.100009 0.681683
Si Si8 0.697967 0.321785 0.351386
O O1 0.965406 0.850023 0.102275
O O2 0.013558 0.947425 0.049217
O O3 0.870753 0.885850 0.931259
O O4 0.186707 0.878926 0.944206
O O5 0.250981 0.063741 0.643573
O O6 0.000000 0.023290 0.750000
O O7 0.197720 0.971089 0.629180
O O8 0.500000 0.756566 0.250000
O O9 0.387752 0.778657 0.074236
O O10 0.296257 0.694464 0.180118
O O11 0.195550 0.775832 0.271174
O O12 0.964066 0.668095 0.394984
O O13 0.967491 0.630400 0.582301
O O14 0.190488 0.692286 0.551352
O O15 0.698617 0.108457 0.254677
O O16 0.000000 0.083606 0.250000
O O17 0.500000 0.071368 0.750000
O O18 0.294575 0.139199 0.768692
#
# Coordination Sequence:
#
# PCOD9300665 Si02
#       8
#     8   8   8   8   8   8   8   8
#     4  11  20  35  59  85 110 145 198 241 277 335
#     4  11  19  34  57  85 113 144 192 247 286 331
#     4   9  18  35  58  82 115 150 188 234 291 350
#     4   9  18  34  57  82 112 154 187 228 291 349
#     4   9  22  36  52  79 118 156 183 235 300 336
#     4  11  20  37  59  83 114 157 198 227 283 361
#     4   9  17  33  54  82 114 142 182 235 292 334
#     4   9  19  35  57  85 114 145 186 249 288 324
#
# _framework density 23.160415
#
# number of rings (size 3 to 8) (size 9 to 14) (size 15 to 20)
#    0.000    2.250    2.500    3.375    0.000    0.000 
#    0.000    7.500    0.000    7.500    0.000    0.000 
#    0.000    0.000    0.000    0.000    0.000    0.000 
#
# Total GULP energy -178438.091904 kJ/mol
# GULP energy per Si atom -5576.190372 kJ/mol
# Density = 2.310770 g / cm^3
# Si number density = 23.160415 Si / 1000 Ang^3
#
#
#
# Elastic Constant Matrix: (Units=GPa)
#
#
# Indices 1 2 3 4 5 6 
#
# 1 33.8196 9.5098 18.4636 0.0000 14.3033 0.0000
# 2 9.5098 120.1034 40.1738 0.0000 2.2967 0.0000
# 3 18.4636 40.1738 67.6862 0.0000 24.4860 0.0000
# 4 0.0000 0.0000 0.0000 21.9927 0.0000 14.7483
# 5 14.3033 2.2967 24.4860 0.0000 34.6103 0.0000
# 6 0.0000 0.0000 0.0000 14.7483 0.0000 21.8131
#
#
#
# Elastic Compliance Matrix: (Units=1/GPa)
#
#
# Indices 1 2 3 4 5 6 
#
# 1 0.037773 -0.000908 -0.005564 0.000000 -0.011614 0.000000
# 2 -0.000908 0.011078 -0.008329 0.000000 0.005533 0.000000
# 3 -0.005564 -0.008329 0.027153 0.000000 -0.016358 0.000000
# 4 0.000000 0.000000 0.000000 0.083187 0.000000 -0.056244
# 5 -0.011614 0.005533 -0.016358 0.000000 0.044899 0.000000
# 6 0.000000 0.000000 0.000000 -0.056244 0.000000 0.083872
#
#
# Mechanical properties :
#
#
# Convention : Reuss Voigt Hill
#
# Bulk Modulus (GPa) = 21.55007 39.76705 30.65856
# Shear Modulus (GPa) = 15.01361 25.91402 20.46381
#
# Velocity S-wave (km/s) = 2.54883 3.34861 2.97571
# Velocity P-wave (km/s) = 4.24110 5.67085 5.00727
#
# Compressibility (1/GPa) = 0.04640356
#
# Stress axis : x y z
#
# Youngs Moduli (GPa) = 26.47369 90.26654 36.82829
#
# Poissons Ratio (x) = 0.08195 0.20490
# Poissons Ratio (y) = 0.02403 0.30675
# Poissons Ratio (z) = 0.14729 0.75185
#
# Static dielectric constant tensor:
#      x y z
#    x 1.879590 0.000000 0.046850 
#    y 0.000000 1.835960 0.000000 
#    z 0.046850 0.000000 1.942720 
# 
# From -- ./inp_files/82616.got.cif
#   From: 2010.05.17/outbox.cif.g08.bks.cpg/sg15_42_cif.got.tgz:82616.got - 2010.06.03 18:47:42.
