data_PCOD9300297
_publ_section_title
;
Structure prediction by ZEFSAII (Michael W. Deem and Ramdas Pophale) SiO2 
 PCOD9300297
Probable space group: C 2/C
;
_chemical_formula_sum "Si O2"
_cell_formula_units_Z 60
_cell_length_a 26.696706
_cell_length_b 8.442204
_cell_length_c 24.166937
_cell_angle_alpha 90.000000
_cell_angle_beta 150.743764
_cell_angle_gamma 90.000000
_cell_volume 2661.900798
_symmetry_space_group_name_H-M "C 2/C"
_symmetry_group_IT_number 15
_symmetry_cell_setting 'monoclinic'
loop_
_space_group_symop_operation_xyz
x,y,z
-x,y,1/2-z
-x,-y,-z
x,-y,1/2+z
1/2+x,1/2+y,z
1/2-x,1/2+y,1/2-z
1/2-x,1/2-y,-z
1/2+x,1/2-y,1/2+z
loop_
_atom_site_type_symbol
_atom_site_label
_atom_site_fract_x
_atom_site_fract_y
_atom_site_fract_z
Si Si1 0.605363 0.333826 0.140047
Si Si2 0.703158 0.515413 0.561125
Si Si3 0.500000 0.943695 0.250000
Si Si4 0.153360 0.309968 0.873576
Si Si5 0.114519 0.725666 0.760527
Si Si6 0.706503 0.618793 0.183834
Si Si7 0.954159 0.657817 0.928544
Si Si8 0.525526 0.430592 0.178970
O O1 0.670278 0.494825 0.195366
O O2 0.678605 0.181155 0.209289
O O3 0.540565 0.344448 0.134033
O O4 0.532273 0.302188 0.017131
O O5 0.791733 0.398877 0.624399
O O6 0.764910 0.681238 0.615764
O O7 0.683985 0.472296 0.605834
O O8 0.593236 0.483560 0.426354
O O9 0.455945 0.844111 0.258250
O O10 0.407016 0.063208 0.147125
O O11 0.075459 0.182097 0.773351
O O12 0.250000 0.250000 0.000000
O O13 0.075173 0.653777 0.664149
O O14 0.093215 0.911290 0.740823
O O15 0.644701 0.780600 0.133953
O O16 0.000000 0.500000 0.000000
#
# Coordination Sequence:
#
# PCOD9300297 Si02
#       8
#     8   8   4   8   8   8   8   8
#     4  12  24  43  67 106 148 196 248 300 384 457
#     4  11  24  44  71 101 148 189 244 301 371 451
#     4  10  26  48  74 100 150 188 254 306 376 446
#     4  11  25  47  74 106 136 191 252 312 370 441
#     4  11  26  48  70 111 147 201 251 315 373 455
#     4  12  23  42  65 103 145 194 242 306 367 464
#     4  12  25  42  70 108 152 198 251 310 385 451
#     4  12  25  47  76 106 150 196 248 312 380 451
#
# _framework density 22.540285999999998
#
# number of rings (size 3 to 8) (size 9 to 14) (size 15 to 20)
#    0.000    0.533    4.000    4.400    1.867    3.733 
#    4.800    2.667    0.000    0.000    0.000    0.000 
#    0.000    0.000    0.000    0.000    0.000    0.000 
#
# Total GULP energy -167592.931142 kJ/mol
# GULP energy per Si atom -5586.431038 kJ/mol
# Density = 2.248898 g / cm^3
# Si number density = 22.540286 Si / 1000 Ang^3
#
#
#
# Elastic Constant Matrix: (Units=GPa)
#
#
# Indices 1 2 3 4 5 6 
#
# 1 107.3766 28.0931 25.7314 0.0000 12.3674 0.0000
# 2 28.0931 84.0430 36.8058 0.0000 9.7493 0.0000
# 3 25.7314 36.8058 113.4293 0.0000 23.8728 0.0000
# 4 0.0000 0.0000 0.0000 42.1315 0.0000 8.6819
# 5 12.3674 9.7493 23.8728 0.0000 31.0846 0.0000
# 6 0.0000 0.0000 0.0000 8.6819 0.0000 28.4981
#
#
#
# Elastic Compliance Matrix: (Units=1/GPa)
#
#
# Indices 1 2 3 4 5 6 
#
# 1 0.010576 -0.002824 -0.000935 0.000000 -0.002604 0.000000
# 2 -0.002824 0.014653 -0.004036 0.000000 -0.000373 0.000000
# 3 -0.000935 -0.004036 0.011920 0.000000 -0.007517 0.000000
# 4 0.000000 0.000000 0.000000 0.025325 0.000000 -0.007715
# 5 -0.002604 -0.000373 -0.007517 0.000000 0.039096 0.000000
# 6 0.000000 0.000000 0.000000 -0.007715 0.000000 0.037440
#
#
# Mechanical properties :
#
#
# Convention : Reuss Voigt Hill
#
# Bulk Modulus (GPa) = 46.38157 54.01216 50.19687
# Shear Modulus (GPa) = 30.90520 34.62409 32.76464
#
# Velocity S-wave (km/s) = 3.70687 3.92356 3.81675
# Velocity P-wave (km/s) = 6.24043 6.67385 6.46078
#
# Compressibility (1/GPa) = 0.02156029
#
# Stress axis : x y z
#
# Youngs Moduli (GPa) = 94.55615 68.24456 83.89561
#
# Poissons Ratio (x) = 0.19270 0.07842
# Poissons Ratio (y) = 0.26700 0.33857
# Poissons Ratio (z) = 0.08839 0.27541
#
# Static dielectric constant tensor:
#      x y z
#    x 2.059200 0.000000 0.068350 
#    y 0.000000 1.883900 0.000000 
#    z 0.068350 0.000000 1.904780 
# 
# From -- ./inp_files/283403.got.cif
#   From: 2010.05.17/outbox.cif.g08.bks.cpg/sg15_142_cif.got.tgz:283403.got - 2010.06.03 18:47:42.
