data_PCOD9300205
_publ_section_title
;
Structure prediction by ZEFSAII (Michael W. Deem and Ramdas Pophale) SiO2 
 PCOD9300205
Probable space group: C 2/C
;
_chemical_formula_sum "Si O2"
_cell_formula_units_Z 40
_cell_length_a 16.913873
_cell_length_b 11.360359
_cell_length_c 8.729258
_cell_angle_alpha 90.000000
_cell_angle_beta 106.955483
_cell_angle_gamma 90.000000
_cell_volume 1604.396798
_symmetry_space_group_name_H-M "C 2/C"
_symmetry_group_IT_number 15
_symmetry_cell_setting 'monoclinic'
loop_
_space_group_symop_operation_xyz
x,y,z
-x,y,1/2-z
-x,-y,-z
x,-y,1/2+z
1/2+x,1/2+y,z
1/2-x,1/2+y,1/2-z
1/2-x,1/2-y,-z
1/2+x,1/2-y,1/2+z
loop_
_atom_site_type_symbol
_atom_site_label
_atom_site_fract_x
_atom_site_fract_y
_atom_site_fract_z
Si Si1 0.667629 0.329465 0.448171
Si Si2 0.933875 0.375355 0.552087
Si Si3 0.348729 0.079766 0.683127
Si Si4 0.439000 0.266289 0.570293
Si Si5 0.161208 0.029319 0.640771
O O1 0.750000 0.250000 0.500000
O O2 0.597297 0.236554 0.371846
O O3 0.643671 0.393441 0.593322
O O4 0.668183 0.428798 0.318985
O O5 0.913413 0.485254 0.649474
O O6 0.874886 0.398319 0.372503
O O7 0.017111 0.328558 0.518829
O O8 0.360349 0.197791 0.593352
O O9 0.254134 0.041399 0.626109
O O10 0.500000 0.286055 0.750000
O O11 0.406527 0.385123 0.474231
#
# Coordination Sequence:
#
# PCOD9300205 Si02
#       5
#     8   8   8   8   8
#     4  12  27  48  76 114 147 190 256 313 371 452
#     4  11  25  48  72 110 156 189 256 309 373 441
#     4  11  22  44  77 105 146 199 251 306 367 443
#     4  10  26  46  71 111 155 196 252 307 378 443
#     4  12  26  46  79 105 149 199 248 308 379 443
#
# _framework density 24.93149
#
# number of rings (size 3 to 8) (size 9 to 14) (size 15 to 20)
#    0.000    0.800    4.000    1.200    8.400    3.200 
#    0.000    0.000    0.000    0.000    0.000    0.000 
#    0.000    0.000    0.000    0.000    0.000    0.000 
#
# Total GULP energy -111888.920999 kJ/mol
# GULP energy per Si atom -5594.446050 kJ/mol
# Density = 2.487474 g / cm^3
# Si number density = 24.931490 Si / 1000 Ang^3
#
#
#
# Elastic Constant Matrix: (Units=GPa)
#
#
# Indices 1 2 3 4 5 6 
#
# 1 82.3552 6.6365 23.3939 0.0000 -2.6797 0.0000
# 2 6.6365 110.8997 39.3942 0.0000 -10.0626 0.0000
# 3 23.3939 39.3942 113.8343 0.0000 -0.1181 0.0000
# 4 0.0000 0.0000 0.0000 38.7434 0.0000 -14.7103
# 5 -2.6797 -10.0626 -0.1181 0.0000 31.6761 0.0000
# 6 0.0000 0.0000 0.0000 -14.7103 0.0000 44.1747
#
#
#
# Elastic Compliance Matrix: (Units=1/GPa)
#
#
# Indices 1 2 3 4 5 6 
#
# 1 0.012942 0.000316 -0.002768 0.000000 0.001185 0.000000
# 2 0.000316 0.010635 -0.003742 0.000000 0.003391 0.000000
# 3 -0.002768 -0.003742 0.010647 0.000000 -0.001383 0.000000
# 4 0.000000 0.000000 0.000000 0.029547 0.000000 0.009839
# 5 0.001185 0.003391 -0.001383 0.000000 0.032742 0.000000
# 6 0.000000 0.000000 0.000000 0.009839 0.000000 0.025914
#
#
# Mechanical properties :
#
#
# Convention : Reuss Voigt Hill
#
# Bulk Modulus (GPa) = 45.79394 49.54871 47.67132
# Shear Modulus (GPa) = 35.18833 38.76315 36.97574
#
# Velocity S-wave (km/s) = 3.76094 3.94736 3.85527
# Velocity P-wave (km/s) = 6.10470 6.37907 6.24339
#
# Compressibility (1/GPa) = 0.02183695
#
# Stress axis : x y z
#
# Youngs Moduli (GPa) = 77.26871 94.02758 93.92272
#
# Poissons Ratio (x) = -0.02974 0.25997
# Poissons Ratio (y) = -0.02444 0.35145
# Poissons Ratio (z) = 0.21387 0.35185
#
# Static dielectric constant tensor:
#      x y z
#    x 1.969620 0.000000 -0.033450 
#    y 0.000000 1.934650 0.000000 
#    z -0.033450 0.000000 1.977960 
# 
# From -- ./inp_files/46281.got.cif
#   From: 2010.05.17/outbox.cif.g08.bks.cpg/sg15_24_cif.got.tgz:46281.got - 2010.06.03 18:47:42.
