data_PCOD9300950
_publ_section_title
;
Structure prediction by ZEFSAII (Michael W. Deem and Ramdas Pophale) SiO2 
 PCOD9300950
Probable space group: C 2/C
;
_chemical_formula_sum "Si O2"
_cell_formula_units_Z 64
_cell_length_a 24.832475
_cell_length_b 11.946358
_cell_length_c 12.657324
_cell_angle_alpha 90.000000
_cell_angle_beta 119.336636
_cell_angle_gamma 90.000000
_cell_volume 3273.350127
_symmetry_space_group_name_H-M "C 2/C"
_symmetry_group_IT_number 15
_symmetry_cell_setting 'monoclinic'
loop_
_space_group_symop_operation_xyz
x,y,z
-x,y,1/2-z
-x,-y,-z
x,-y,1/2+z
1/2+x,1/2+y,z
1/2-x,1/2+y,1/2-z
1/2-x,1/2-y,-z
1/2+x,1/2-y,1/2+z
loop_
_atom_site_type_symbol
_atom_site_label
_atom_site_fract_x
_atom_site_fract_y
_atom_site_fract_z
Si Si1 0.850953 0.711550 0.976582
Si Si2 0.432587 0.124781 0.875190
Si Si3 0.767092 0.052735 0.641777
Si Si4 0.778797 0.094217 0.966211
Si Si5 0.765832 0.907203 0.813956
Si Si6 0.149426 0.735103 0.275843
Si Si7 0.647412 0.195096 0.903331
Si Si8 0.576750 0.119831 0.041269
O O1 0.908444 0.687452 0.956664
O O2 0.798995 0.614386 0.912843
O O3 0.818355 0.823728 0.902368
O O4 0.865177 0.719559 0.114590
O O5 0.398915 0.174371 0.739330
O O6 0.415847 0.995773 0.886369
O O7 0.506235 0.129257 0.935909
O O8 0.819181 0.145442 0.712154
O O9 0.780049 0.020867 0.532424
O O10 0.766378 0.926305 0.688859
O O11 0.834606 0.178485 0.043213
O O12 0.712897 0.148952 0.925709
O O13 0.775471 0.039392 0.847454
O O14 0.701858 0.855982 0.792889
O O15 0.093918 0.714720 0.142443
O O16 0.620250 0.132219 0.980250
#
# Coordination Sequence:
#
# PCOD9300950 Si02
#       8
#     8   8   8   8   8   8   8   8
#     4  11  21  38  59  91 127 155 199 249 295 360
#     4  11  25  41  62  86 115 164 203 246 300 346
#     4  11  20  34  58  91 125 155 191 239 306 363
#     4  11  20  35  60  93 116 157 184 232 325 347
#     4  11  20  34  58  91 125 155 191 239 306 363
#     4  11  21  38  59  91 127 155 199 249 295 360
#     4  11  23  40  60  91 125 149 200 254 295 366
#     4  11  25  41  62  86 115 164 203 246 300 346
#
# _framework density 19.551835000000001
#
# number of rings (size 3 to 8) (size 9 to 14) (size 15 to 20)
#    0.000    1.000    2.500    6.375    1.750    4.500 
#    0.000    0.000    0.000    8.250    0.000    0.000 
#    0.000    0.000    0.000    0.000    0.000    0.000 
#
# Total GULP energy -178537.138765 kJ/mol
# GULP energy per Si atom -5579.285586 kJ/mol
# Density = 1.950733 g / cm^3
# Si number density = 19.551835 Si / 1000 Ang^3
#
#
#
# Elastic Constant Matrix: (Units=GPa)
#
#
# Indices 1 2 3 4 5 6 
#
# 1 51.3790 6.5237 -1.2767 0.0000 3.8354 0.0000
# 2 6.5237 56.2450 -4.1599 0.0000 12.4573 0.0000
# 3 -1.2767 -4.1599 50.1655 0.0000 8.8407 0.0000
# 4 0.0000 0.0000 0.0000 38.8196 0.0000 -5.2522
# 5 3.8354 12.4573 8.8407 0.0000 25.8699 0.0000
# 6 0.0000 0.0000 0.0000 -5.2522 0.0000 24.7708
#
#
#
# Elastic Compliance Matrix: (Units=1/GPa)
#
#
# Indices 1 2 3 4 5 6 
#
# 1 0.019879 -0.001719 0.000784 0.000000 -0.002387 0.000000
# 2 -0.001719 0.020664 0.003595 0.000000 -0.010924 0.000000
# 3 0.000784 0.003595 0.021896 0.000000 -0.009330 0.000000
# 4 0.000000 0.000000 0.000000 0.026521 0.000000 0.005623
# 5 -0.002387 -0.010924 -0.009330 0.000000 0.047458 0.000000
# 6 0.000000 0.000000 0.000000 0.005623 0.000000 0.041562
#
#
# Mechanical properties :
#
#
# Convention : Reuss Voigt Hill
#
# Bulk Modulus (GPa) = 14.75797 17.77373 16.26585
# Shear Modulus (GPa) = 25.60856 28.33889 26.97372
#
# Velocity S-wave (km/s) = 3.62301 3.81126 3.71833
# Velocity P-wave (km/s) = 5.00661 5.33647 5.17417
#
# Compressibility (1/GPa) = 0.06775998
#
# Stress axis : x y z
#
# Youngs Moduli (GPa) = 50.30390 48.39298 45.66970
#
# Poissons Ratio (x) = 0.08318 -0.03581
# Poissons Ratio (y) = 0.08647 -0.16418
# Poissons Ratio (z) = -0.03944 -0.17397
#
# Static dielectric constant tensor:
#      x y z
#    x 1.649430 0.000000 -0.018740 
#    y 0.000000 1.687410 0.000000 
#    z -0.018740 0.000000 1.718080 
# 
# From -- ./inp_files/118039.got.cif
#   From: 2010.05.17/outbox.cif.g08.bks.cpg/sg15_60_cif.got.tgz:118039.got - 2010.06.03 18:47:42.
