data_PCOD9300270
_publ_section_title
;
Structure prediction by ZEFSAII (Michael W. Deem and Ramdas Pophale) SiO2 
 PCOD9300270
Probable space group: C 2/C
;
_chemical_formula_sum "Si O2"
_cell_formula_units_Z 52
_cell_length_a 14.395208
_cell_length_b 11.422104
_cell_length_c 13.699495
_cell_angle_alpha 90.000000
_cell_angle_beta 107.865772
_cell_angle_gamma 90.000000
_cell_volume 2143.898422
_symmetry_space_group_name_H-M "C 2/C"
_symmetry_group_IT_number 15
_symmetry_cell_setting 'monoclinic'
loop_
_space_group_symop_operation_xyz
x,y,z
-x,y,1/2-z
-x,-y,-z
x,-y,1/2+z
1/2+x,1/2+y,z
1/2-x,1/2+y,1/2-z
1/2-x,1/2-y,-z
1/2+x,1/2-y,1/2+z
loop_
_atom_site_type_symbol
_atom_site_label
_atom_site_fract_x
_atom_site_fract_y
_atom_site_fract_z
Si Si1 0.902720 0.032901 0.566324
Si Si2 0.283210 0.137251 0.949653
Si Si3 0.966080 0.772241 0.348424
Si Si4 0.888810 0.333540 0.280589
Si Si5 0.782890 0.162596 0.917195
Si Si6 0.038896 0.483384 0.905036
Si Si7 0.500000 0.380129 0.750000
O O1 0.846331 0.948763 0.473763
O O2 0.978692 0.954746 0.648481
O O3 0.815597 0.070866 0.610094
O O4 0.961322 0.151186 0.558370
O O5 0.337562 0.170605 0.868946
O O6 0.250000 0.250000 0.000000
O O7 0.349160 0.052872 0.038809
O O8 0.858343 0.780114 0.361916
O O9 0.990857 0.635915 0.352916
O O10 0.000000 0.813288 0.250000
O O11 0.811466 0.378654 0.175333
O O12 0.988504 0.406175 0.336143
O O13 0.912252 0.205361 0.248574
O O14 0.750000 0.250000 0.000000
O O15 0.000000 0.500000 0.000000
#
# Coordination Sequence:
#
# PCOD9300270 Si02
#       7
#     8   8   8   8   8   8   4
#     4  12  27  50  80 116 162 209 267 335 406 490
#     4  11  25  50  81 119 153 204 270 335 403 486
#     4  12  27  52  80 117 159 216 272 334 407 489
#     4  11  28  50  78 113 161 210 266 332 407 488
#     4  12  29  50  80 119 166 214 272 336 412 498
#     4  10  26  47  80 114 159 201 272 338 408 480
#     4  12  28  50  76 112 156 206 262 326 406 482
#
# _framework density 24.254881000000001
#
# number of rings (size 3 to 8) (size 9 to 14) (size 15 to 20)
#    0.000    0.615    3.846    1.385   11.846    1.231 
#    0.000    0.000    0.000    0.000    0.000    0.000 
#    0.000    0.000    0.000    0.000    0.000    0.000 
#
# Total GULP energy -145051.655803 kJ/mol
# GULP energy per Si atom -5578.909839 kJ/mol
# Density = 2.419968 g / cm^3
# Si number density = 24.254881 Si / 1000 Ang^3
#
#
#
# Elastic Constant Matrix: (Units=GPa)
#
#
# Indices 1 2 3 4 5 6 
#
# 1 121.5698 -1.9519 27.4285 0.0000 -5.7787 0.0000
# 2 -1.9519 67.1954 14.7433 0.0000 0.4724 0.0000
# 3 27.4285 14.7433 121.4366 0.0000 -6.4829 0.0000
# 4 0.0000 0.0000 0.0000 27.4416 0.0000 23.8179
# 5 -5.7787 0.4724 -6.4829 0.0000 55.5064 0.0000
# 6 0.0000 0.0000 0.0000 23.8179 0.0000 25.3915
#
#
#
# Elastic Compliance Matrix: (Units=1/GPa)
#
#
# Indices 1 2 3 4 5 6 
#
# 1 0.008724 0.000692 -0.002019 0.000000 0.000667 0.000000
# 2 0.000692 0.015351 -0.002036 0.000000 -0.000296 0.000000
# 3 -0.002019 -0.002036 0.008984 0.000000 0.000856 0.000000
# 4 0.000000 0.000000 0.000000 0.196086 0.000000 -0.183934
# 5 0.000667 -0.000296 0.000856 0.000000 0.018188 0.000000
# 6 0.000000 0.000000 0.000000 -0.183934 0.000000 0.211918
#
#
# Mechanical properties :
#
#
# Convention : Reuss Voigt Hill
#
# Bulk Modulus (GPa) = 37.97574 43.40461 40.69017
# Shear Modulus (GPa) = 10.53176 39.66669 25.09923
#
# Velocity S-wave (km/s) = 2.08604 4.04841 3.22034
# Velocity P-wave (km/s) = 4.63605 6.30768 5.53533
#
# Compressibility (1/GPa) = 0.02633260
#
# Stress axis : x y z
#
# Youngs Moduli (GPa) = 114.62620 65.14315 111.31374
#
# Poissons Ratio (x) = -0.04506 0.22473
# Poissons Ratio (y) = -0.07929 0.22661
# Poissons Ratio (z) = 0.23141 0.13262
#
# Static dielectric constant tensor:
#      x y z
#    x 1.969790 0.000000 0.003170 
#    y 0.000000 1.949120 0.000000 
#    z 0.003170 0.000000 1.915980 
# 
# From -- ./inp_files/152701.got.cif
#   From: 2010.05.17/outbox.cif.g08.bks.cpg/sg15_77_cif.got.tgz:152701.got - 2010.06.03 18:47:42.
