data_PCOD9300179
_publ_section_title
;
Structure prediction by ZEFSAII (Michael W. Deem and Ramdas Pophale) SiO2 
 PCOD9300179
Probable space group: C 2/C
;
_chemical_formula_sum "Si O2"
_cell_formula_units_Z 28
_cell_length_a 10.577025
_cell_length_b 18.831991
_cell_length_c 13.010321
_cell_angle_alpha 90.000000
_cell_angle_beta 30.124659
_cell_angle_gamma 90.000000
_cell_volume 1300.619606
_symmetry_space_group_name_H-M "C 2/C"
_symmetry_group_IT_number 15
_symmetry_cell_setting 'monoclinic'
loop_
_space_group_symop_operation_xyz
x,y,z
-x,y,1/2-z
-x,-y,-z
x,-y,1/2+z
1/2+x,1/2+y,z
1/2-x,1/2+y,1/2-z
1/2-x,1/2-y,-z
1/2+x,1/2-y,1/2+z
loop_
_atom_site_type_symbol
_atom_site_label
_atom_site_fract_x
_atom_site_fract_y
_atom_site_fract_z
Si Si1 0.641931 0.189411 0.251412
Si Si2 0.553415 0.418722 0.485855
Si Si3 0.552667 0.826665 0.402894
Si Si4 0.000000 0.859499 0.750000
O O1 0.500000 0.214663 0.250000
O O2 0.844906 0.130820 0.077876
O O3 0.468110 0.154758 0.461323
O O4 0.786052 0.254466 0.205683
O O5 0.500000 0.500000 0.500000
O O6 0.813595 0.386621 0.259297
O O7 0.518409 0.404079 0.631856
O O8 0.265053 0.817844 0.567252
#
# Coordination Sequence:
#
# PCOD9300179 Si02
#       4
#     8   8   8   4
#     4  11  24  42  70 105 138 183 238 286 344 411
#     4  11  26  45  69 102 141 185 227 289 353 412
#     4  11  23  43  70 100 138 181 230 288 344 404
#     4  10  26  46  68 102 142 178 238 280 350 418
#
# _framework density 21.528200999999999
#
# number of rings (size 3 to 8) (size 9 to 14) (size 15 to 20)
#    0.000    1.143    2.857    1.714    0.000   13.714 
#    0.000    0.000    0.000    0.000    0.000    0.000 
#    0.000    0.000    0.000    0.000    0.000    0.000 
#
# Total GULP energy -78172.713336 kJ/mol
# GULP energy per Si atom -5583.765238 kJ/mol
# Density = 2.147920 g / cm^3
# Si number density = 21.528201 Si / 1000 Ang^3
#
#
#
# Elastic Constant Matrix: (Units=GPa)
#
#
# Indices 1 2 3 4 5 6 
#
# 1 135.2379 65.5591 56.1857 -0.0034 -0.6209 -0.0012
# 2 65.5591 141.5762 57.3540 0.0101 -18.4029 0.0010
# 3 56.1857 57.3540 142.7096 0.0259 5.4633 -0.0007
# 4 -0.0034 0.0101 0.0259 19.4465 0.0126 3.8153
# 5 -0.6209 -18.4029 5.4633 0.0126 26.3773 0.0018
# 6 -0.0012 0.0010 -0.0007 3.8153 0.0018 28.0053
#
#
#
# Elastic Compliance Matrix: (Units=1/GPa)
#
#
# Indices 1 2 3 4 5 6 
#
# 1 0.010357 -0.004130 -0.002335 0.000009 -0.002154 -0.000001
# 2 -0.004130 0.011421 -0.003291 -0.000008 0.008553 0.000000
# 3 -0.002335 -0.003291 0.009414 -0.000009 -0.004301 0.000002
# 4 0.000009 -0.000008 -0.000009 0.052835 -0.000028 -0.007198
# 5 -0.002154 0.008553 -0.004301 -0.000028 0.044719 0.000001
# 6 -0.000001 0.000000 0.000002 -0.007198 0.000001 0.036688
#
#
# Mechanical properties :
#
#
# Convention : Reuss Voigt Hill
#
# Bulk Modulus (GPa) = 85.62666 86.41346 86.02006
# Shear Modulus (GPa) = 26.47749 30.79413 28.63581
#
# Velocity S-wave (km/s) = 3.51079 3.78618 3.65108
# Velocity P-wave (km/s) = 7.50298 7.70327 7.60378
#
# Compressibility (1/GPa) = 0.01167861
#
# Stress axis : x y z
#
# Youngs Moduli (GPa) = 96.55598 87.55969 106.22314
#
# Poissons Ratio (x) = 0.36160 0.24807
# Poissons Ratio (y) = 0.39875 0.34963
# Poissons Ratio (z) = 0.22549 0.28820
#
# Static dielectric constant tensor:
#      x y z
#    x 1.784980 0.000000 -0.016520 
#    y 0.000000 1.730080 0.000010 
#    z -0.016520 0.000010 1.888070 
# 
# From -- ./inp_files/145347.got.cif
#   From: 2010.05.17/outbox.cif.g08.bks.cpg/sg15_73_cif.got.tgz:145347.got - 2010.06.03 18:47:42.
