data_PCOD9300802
_publ_section_title
;
Structure prediction by ZEFSAII (Michael W. Deem and Ramdas Pophale) SiO2 
 PCOD9300802
Probable space group: C 2/C
;
_chemical_formula_sum "Si O2"
_cell_formula_units_Z 60
_cell_length_a 21.324168
_cell_length_b 15.434705
_cell_length_c 9.678269
_cell_angle_alpha 90.000000
_cell_angle_beta 73.801441
_cell_angle_gamma 90.000000
_cell_volume 3058.971029
_symmetry_space_group_name_H-M "C 2/C"
_symmetry_group_IT_number 15
_symmetry_cell_setting 'monoclinic'
loop_
_space_group_symop_operation_xyz
x,y,z
-x,y,1/2-z
-x,-y,-z
x,-y,1/2+z
1/2+x,1/2+y,z
1/2-x,1/2+y,1/2-z
1/2-x,1/2-y,-z
1/2+x,1/2-y,1/2+z
loop_
_atom_site_type_symbol
_atom_site_label
_atom_site_fract_x
_atom_site_fract_y
_atom_site_fract_z
Si Si1 0.566073 0.457814 0.403336
Si Si2 0.328330 0.899759 0.750880
Si Si3 0.274188 0.844076 0.521027
Si Si4 0.321156 0.099828 0.698041
Si Si5 0.887792 0.708260 0.439474
Si Si6 0.000000 0.818536 0.250000
Si Si7 0.712810 0.634640 0.536133
Si Si8 0.854731 0.042121 0.378127
O O1 0.500000 0.500000 0.500000
O O2 0.545572 0.379880 0.315365
O O3 0.604714 0.529540 0.287784
O O4 0.606293 0.425028 0.511613
O O5 0.321982 0.840540 0.621163
O O6 0.382051 0.864725 0.823616
O O7 0.334326 0.997041 0.689172
O O8 0.262033 0.886974 0.880778
O O9 0.250000 0.750000 0.500000
O O10 0.308803 0.880432 0.364543
O O11 0.211990 0.904392 0.597078
O O12 0.375889 0.158521 0.590570
O O13 0.256254 0.124233 0.648737
O O14 0.826968 0.776135 0.455651
O O15 0.953647 0.760915 0.375848
O O16 0.662729 0.556149 0.571505
#
# Coordination Sequence:
#
# PCOD9300802 Si02
#       8
#     8   8   8   8   8   4   8   8
#     4  12  23  41  62  89 124 174 214 258 301 369
#     4  11  21  38  62  92 125 157 197 255 320 382
#     4  12  23  34  56  97 130 155 190 251 322 374
#     4  11  21  39  60  93 125 157 199 254 321 383
#     4  11  24  41  66  87 121 172 216 255 304 384
#     4  12  26  44  64  86 120 170 236 254 300 374
#     4  11  19  39  62  93 129 162 196 242 316 399
#     4  12  22  37  64  92 133 163 204 251 315 383
#
# _framework density 19.614439000000001
#
# number of rings (size 3 to 8) (size 9 to 14) (size 15 to 20)
#    0.000    0.533    5.333    5.600    1.867    1.067 
#    0.000    0.667    0.000    0.000    0.000    0.000 
#    0.000    0.000    0.000    0.000    0.000    0.000 
#
# Total GULP energy -167599.750411 kJ/mol
# GULP energy per Si atom -5586.658347 kJ/mol
# Density = 1.956980 g / cm^3
# Si number density = 19.614439 Si / 1000 Ang^3
#
#
#
# Elastic Constant Matrix: (Units=GPa)
#
#
# Indices 1 2 3 4 5 6 
#
# 1 40.3032 -1.2073 24.5955 0.0000 -9.3474 0.0000
# 2 -1.2073 83.4182 4.6569 0.0000 -25.9370 0.0000
# 3 24.5955 4.6569 115.7005 0.0000 -10.0130 0.0000
# 4 0.0000 0.0000 0.0000 37.1331 0.0000 -6.7203
# 5 -9.3474 -25.9370 -10.0130 0.0000 27.0458 0.0000
# 6 0.0000 0.0000 0.0000 -6.7203 0.0000 30.8254
#
#
#
# Elastic Compliance Matrix: (Units=1/GPa)
#
#
# Indices 1 2 3 4 5 6 
#
# 1 0.031625 0.005009 -0.005747 0.000000 0.013606 0.000000
# 2 0.005009 0.017938 -0.000153 0.000000 0.018877 0.000000
# 3 -0.005747 -0.000153 0.010007 0.000000 0.001572 0.000000
# 4 0.000000 0.000000 0.000000 0.028036 0.000000 0.006112
# 5 0.013606 0.018877 0.001572 0.000000 0.060362 0.000000
# 6 0.000000 0.000000 0.000000 0.006112 0.000000 0.033773
#
#
# Mechanical properties :
#
#
# Convention : Reuss Voigt Hill
#
# Bulk Modulus (GPa) = 17.30472 32.83467 25.06969
# Shear Modulus (GPa) = 24.65654 33.09265 28.87460
#
# Velocity S-wave (km/s) = 3.54935 4.11196 3.84097
# Velocity P-wave (km/s) = 5.06348 6.27062 5.69910
#
# Compressibility (1/GPa) = 0.05778772
#
# Stress axis : x y z
#
# Youngs Moduli (GPa) = 31.62090 55.74663 99.93155
#
# Poissons Ratio (x) = -0.27923 0.57429
# Poissons Ratio (y) = -0.15839 0.01530
# Poissons Ratio (z) = 0.18172 0.00854
#
# Static dielectric constant tensor:
#      x y z
#    x 1.707110 0.000000 0.029370 
#    y 0.000000 1.676520 0.000000 
#    z 0.029370 0.000000 1.798820 
# 
# From -- ./inp_files/61908.got.cif
#   From: 2010.05.17/outbox.cif.g08.bks.cpg/sg15_31_cif.got.tgz:61908.got - 2010.06.03 18:47:42.
