data_PCOD9300351
_publ_section_title
;
Structure prediction by ZEFSAII (Michael W. Deem and Ramdas Pophale) SiO2 
 PCOD9300351
Probable space group: C 2/C
;
_chemical_formula_sum "Si O2"
_cell_formula_units_Z 52
_cell_length_a 8.248191
_cell_length_b 14.601493
_cell_length_c 28.705997
_cell_angle_alpha 90.000000
_cell_angle_beta 135.280287
_cell_angle_gamma 90.000000
_cell_volume 2432.644490
_symmetry_space_group_name_H-M "C 2/C"
_symmetry_group_IT_number 15
_symmetry_cell_setting 'monoclinic'
loop_
_space_group_symop_operation_xyz
x,y,z
-x,y,1/2-z
-x,-y,-z
x,-y,1/2+z
1/2+x,1/2+y,z
1/2-x,1/2+y,1/2-z
1/2-x,1/2-y,-z
1/2+x,1/2-y,1/2+z
loop_
_atom_site_type_symbol
_atom_site_label
_atom_site_fract_x
_atom_site_fract_y
_atom_site_fract_z
Si Si1 0.000000 0.410803 0.750000
Si Si2 0.418257 0.216648 0.396876
Si Si3 0.939565 0.560454 0.134608
Si Si4 0.749628 0.885012 0.038225
Si Si5 0.545805 0.889433 0.100086
Si Si6 0.583070 0.418489 0.963496
Si Si7 0.443272 0.707842 0.348490
O O1 0.956337 0.462691 0.692637
O O2 0.774574 0.349609 0.712570
O O3 0.467559 0.160648 0.359644
O O4 0.556907 0.158979 0.464945
O O5 0.533510 0.316373 0.419186
O O6 0.150810 0.217926 0.354742
O O7 0.071255 0.485948 0.130926
O O8 0.668145 0.562990 0.066573
O O9 0.654705 0.888533 0.071275
O O10 0.815062 0.986892 0.035662
O O11 0.634449 0.806549 0.149071
O O12 0.269842 0.876700 0.036599
O O13 0.541592 0.347429 0.913251
#
# Coordination Sequence:
#
# PCOD9300351 Si02
#       7
#     4   8   8   8   8   8   8
#     4  10  26  50  62  86 120 180 228 272 300 376
#     4  11  23  38  63  99 132 175 198 264 318 392
#     4  11  24  42  67  92 131 171 219 261 320 376
#     4  11  22  36  62 104 145 156 203 250 339 398
#     4  12  22  39  66 101 128 169 204 270 328 386
#     4  11  21  38  63 100 137 164 203 263 325 392
#     4  11  24  42  67  91 132 171 217 259 318 376
#
# _framework density 21.375914999999999
#
# number of rings (size 3 to 8) (size 9 to 14) (size 15 to 20)
#    0.000    0.923    3.077    5.077    4.308    0.615 
#    0.000    9.231    0.000    0.000    0.000    0.000 
#    0.000    0.000    0.000    0.000    0.000    0.000 
#
# Total GULP energy -145520.703307 kJ/mol
# GULP energy per Si atom -5596.950127 kJ/mol
# Density = 2.132726 g / cm^3
# Si number density = 21.375915 Si / 1000 Ang^3
#
#
#
# Elastic Constant Matrix: (Units=GPa)
#
#
# Indices 1 2 3 4 5 6 
#
# 1 111.9301 3.2883 5.3866 0.0000 -0.3763 0.0000
# 2 3.2883 65.2429 -14.6238 0.0000 5.6854 0.0000
# 3 5.3866 -14.6238 42.3348 0.0000 -2.3923 0.0000
# 4 0.0000 0.0000 0.0000 11.5723 0.0000 -3.1933
# 5 -0.3763 5.6854 -2.3923 0.0000 26.6465 0.0000
# 6 0.0000 0.0000 0.0000 -3.1933 0.0000 33.3922
#
#
#
# Elastic Compliance Matrix: (Units=1/GPa)
#
#
# Indices 1 2 3 4 5 6 
#
# 1 0.009026 -0.000786 -0.001410 0.000000 0.000168 0.000000
# 2 -0.000786 0.016932 0.005773 0.000000 -0.003105 0.000000
# 3 -0.001410 0.005773 0.025855 0.000000 0.001070 0.000000
# 4 0.000000 0.000000 0.000000 0.088755 0.000000 0.008488
# 5 0.000168 -0.003105 0.001070 0.000000 0.038289 0.000000
# 6 0.000000 0.000000 0.000000 0.008488 0.000000 0.030759
#
#
# Mechanical properties :
#
#
# Convention : Reuss Voigt Hill
#
# Bulk Modulus (GPa) = 16.95861 23.06777 20.01319
# Shear Modulus (GPa) = 22.51061 29.35263 25.93162
#
# Velocity S-wave (km/s) = 3.24864 3.70964 3.48677
# Velocity P-wave (km/s) = 4.69279 5.40032 5.05894
#
# Compressibility (1/GPa) = 0.05896708
#
# Stress axis : x y z
#
# Youngs Moduli (GPa) = 110.79510 59.06122 38.67669
#
# Poissons Ratio (x) = 0.04640 0.05455
# Poissons Ratio (y) = 0.08705 -0.22329
# Poissons Ratio (z) = 0.15625 -0.34097
#
# Static dielectric constant tensor:
#      x y z
#    x 1.785600 0.000000 -0.024970 
#    y 0.000000 1.745890 0.000000 
#    z -0.024970 0.000000 1.796000 
# 
# From -- ./inp_files/231230.got.cif
#   From: 2010.05.17/outbox.cif.g08.bks.cpg/sg15_116_cif.got.tgz:231230.got - 2010.06.03 18:47:42.
