data_PCOD9300990
_publ_section_title
;
Structure prediction by ZEFSAII (Michael W. Deem and Ramdas Pophale) SiO2 
 PCOD9300990
Probable space group: C 2/C
;
_chemical_formula_sum "Si O2"
_cell_formula_units_Z 60
_cell_length_a 21.116970
_cell_length_b 17.821231
_cell_length_c 9.177417
_cell_angle_alpha 90.000000
_cell_angle_beta 65.091968
_cell_angle_gamma 90.000000
_cell_volume 3132.491233
_symmetry_space_group_name_H-M "C 2/C"
_symmetry_group_IT_number 15
_symmetry_cell_setting 'monoclinic'
loop_
_space_group_symop_operation_xyz
x,y,z
-x,y,1/2-z
-x,-y,-z
x,-y,1/2+z
1/2+x,1/2+y,z
1/2-x,1/2+y,1/2-z
1/2-x,1/2-y,-z
1/2+x,1/2-y,1/2+z
loop_
_atom_site_type_symbol
_atom_site_label
_atom_site_fract_x
_atom_site_fract_y
_atom_site_fract_z
Si Si1 0.880955 0.992911 0.076099
Si Si2 0.500000 0.126532 0.750000
Si Si3 0.656920 0.087366 0.135351
Si Si4 0.984477 0.256106 0.011018
Si Si5 0.313962 0.578857 0.887561
Si Si6 0.115446 0.756039 0.165173
Si Si7 0.422134 0.015139 0.010683
Si Si8 0.514716 0.406187 0.893377
O O1 0.818123 0.952755 0.219495
O O2 0.911648 0.067965 0.117570
O O3 0.946823 0.937311 0.042149
O O4 0.861617 0.021294 0.935120
O O5 0.481166 0.175332 0.626005
O O6 0.436398 0.075307 0.868012
O O7 0.655779 0.177838 0.145262
O O8 0.624529 0.050147 0.313777
O O9 0.611578 0.055594 0.041701
O O10 0.737379 0.069478 0.027583
O O11 0.922256 0.250044 0.955137
O O12 0.054594 0.250925 0.845876
O O13 0.985145 0.181959 0.106168
O O14 0.343032 0.664787 0.865065
O O15 0.500000 0.000000 0.000000
O O16 0.500000 0.438574 0.750000
#
# Coordination Sequence:
#
# PCOD9300990 Si02
#       8
#     8   4   8   8   8   8   8   8
#     4  11  23  37  61  92 123 169 213 259 297 369
#     4  12  22  38  68  96 124 148 204 276 320 364
#     4  12  26  43  66  92 128 168 207 260 327 380
#     4  11  22  36  65  95 124 160 208 266 310 358
#     4  12  24  43  61  91 134 172 209 250 315 393
#     4  11  24  40  63  93 122 169 214 254 309 372
#     4  12  24  44  69  96 119 156 213 273 321 369
#     4  11  20  35  62  90 125 163 213 254 311 352
#
# _framework density 19.154084000000001
#
# number of rings (size 3 to 8) (size 9 to 14) (size 15 to 20)
#    0.000    0.533    7.333    2.000    1.867    0.000 
#    0.000    0.000    0.000    0.800    0.000    0.000 
#    0.000    0.000    0.000    0.000    0.000    0.000 
#
# Total GULP energy -167187.763980 kJ/mol
# GULP energy per Si atom -5572.925466 kJ/mol
# Density = 1.911049 g / cm^3
# Si number density = 19.154084 Si / 1000 Ang^3
#
#
#
# Elastic Constant Matrix: (Units=GPa)
#
#
# Indices 1 2 3 4 5 6 
#
# 1 41.6895 13.8558 20.2790 0.0000 -7.5854 0.0000
# 2 13.8558 101.2104 30.7435 0.0000 -4.3602 0.0000
# 3 20.2790 30.7435 105.2312 0.0000 -8.1927 0.0000
# 4 0.0000 0.0000 0.0000 33.2196 0.0000 6.5004
# 5 -7.5854 -4.3602 -8.1927 0.0000 33.1117 0.0000
# 6 0.0000 0.0000 0.0000 6.5004 0.0000 19.3660
#
#
#
# Elastic Compliance Matrix: (Units=1/GPa)
#
#
# Indices 1 2 3 4 5 6 
#
# 1 0.027740 -0.002279 -0.004291 0.000000 0.004993 0.000000
# 2 -0.002279 0.011044 -0.002768 0.000000 0.000247 0.000000
# 3 -0.004291 -0.002768 0.011250 0.000000 0.001436 0.000000
# 4 0.000000 0.000000 0.000000 0.032219 0.000000 -0.010815
# 5 0.004993 0.000247 0.001436 0.000000 0.031733 0.000000
# 6 0.000000 0.000000 0.000000 -0.010815 0.000000 0.055267
#
#
# Mechanical properties :
#
#
# Convention : Reuss Voigt Hill
#
# Bulk Modulus (GPa) = 31.89007 41.98754 36.93880
# Shear Modulus (GPa) = 25.20391 29.35632 27.28011
#
# Velocity S-wave (km/s) = 3.63140 3.91914 3.77801
# Velocity P-wave (km/s) = 5.85390 6.51522 6.19339
#
# Compressibility (1/GPa) = 0.03135773
#
# Stress axis : x y z
#
# Youngs Moduli (GPa) = 36.04882 90.54783 88.88620
#
# Poissons Ratio (x) = 0.20636 0.38143
# Poissons Ratio (y) = 0.08216 0.24604
# Poissons Ratio (z) = 0.15469 0.25064
#
# Static dielectric constant tensor:
#      x y z
#    x 1.683960 0.000000 -0.028750 
#    y 0.000000 1.690480 0.000000 
#    z -0.028750 0.000000 1.743510 
# 
# From -- ./inp_files/56556.got.cif
#   From: 2010.05.17/outbox.cif.g08.bks.cpg/sg15_29_cif.got.tgz:56556.got - 2010.06.03 18:47:42.
