data_PCOD9300827
_publ_section_title
;
Structure prediction by ZEFSAII (Michael W. Deem and Ramdas Pophale) SiO2 
 PCOD9300827
Probable space group: C 2/C
;
_chemical_formula_sum "Si O2"
_cell_formula_units_Z 52
_cell_length_a 11.740638
_cell_length_b 14.217210
_cell_length_c 17.664675
_cell_angle_alpha 90.000000
_cell_angle_beta 129.331786
_cell_angle_gamma 90.000000
_cell_volume 2280.687102
_symmetry_space_group_name_H-M "C 2/C"
_symmetry_group_IT_number 15
_symmetry_cell_setting 'monoclinic'
loop_
_space_group_symop_operation_xyz
x,y,z
-x,y,1/2-z
-x,-y,-z
x,-y,1/2+z
1/2+x,1/2+y,z
1/2-x,1/2+y,1/2-z
1/2-x,1/2-y,-z
1/2+x,1/2-y,1/2+z
loop_
_atom_site_type_symbol
_atom_site_label
_atom_site_fract_x
_atom_site_fract_y
_atom_site_fract_z
Si Si1 0.678768 0.840716 0.827886
Si Si2 0.839720 0.829311 0.581316
Si Si3 0.418636 0.073418 0.835147
Si Si4 0.000000 0.695966 0.750000
Si Si5 0.343094 0.137365 0.343857
Si Si6 0.250472 0.501727 0.469066
Si Si7 0.164173 0.334812 0.041875
O O1 0.500000 0.851015 0.750000
O O2 0.717249 0.815533 0.757643
O O3 0.737197 0.757460 0.906256
O O4 0.748022 0.936301 0.891833
O O5 0.750000 0.750000 0.500000
O O6 0.969644 0.767208 0.669243
O O7 0.751217 0.858415 0.619875
O O8 0.865578 0.919952 0.539443
O O9 0.383807 0.125511 0.741470
O O10 0.377053 0.130979 0.891538
O O11 0.354487 0.970422 0.821421
O O12 0.594771 0.054110 0.907852
O O13 0.506495 0.175330 0.433174
O O14 0.246342 0.580525 0.533202
#
# Coordination Sequence:
#
# PCOD9300827 Si02
#       7
#     8   8   8   4   8   8   8
#     4  12  24  38  65 101 128 168 223 277 320 389
#     4  12  24  42  68  97 135 174 217 274 325 390
#     4  11  19  40  68  91 121 174 226 266 302 395
#     4  12  24  38  66 102 134 166 222 272 336 376
#     4  11  22  40  67  94 125 174 226 264 317 389
#     4  11  21  41  64  91 123 175 219 261 314 391
#     4  11  21  39  64  92 129 163 219 269 325 374
#
# _framework density 22.800146000000002
#
# number of rings (size 3 to 8) (size 9 to 14) (size 15 to 20)
#    0.000    0.615    7.692    3.231    0.000    0.000 
#    1.385    0.000    0.000    2.769    0.000    0.000 
#    0.000    0.000    0.000    0.000    0.000    0.000 
#
# Total GULP energy -145124.930098 kJ/mol
# GULP energy per Si atom -5581.728081 kJ/mol
# Density = 2.274825 g / cm^3
# Si number density = 22.800146 Si / 1000 Ang^3
#
#
#
# Elastic Constant Matrix: (Units=GPa)
#
#
# Indices 1 2 3 4 5 6 
#
# 1 46.9253 23.1256 22.9598 0.0000 -16.9514 0.0000
# 2 23.1256 139.3036 67.7706 0.0000 1.6498 0.0000
# 3 22.9598 67.7706 132.5862 0.0000 -26.4648 0.0000
# 4 0.0000 0.0000 0.0000 53.0470 0.0000 -7.4378
# 5 -16.9514 1.6498 -26.4648 0.0000 26.3212 0.0000
# 6 0.0000 0.0000 0.0000 -7.4378 0.0000 31.5562
#
#
#
# Elastic Compliance Matrix: (Units=1/GPa)
#
#
# Indices 1 2 3 4 5 6 
#
# 1 0.031974 -0.006930 0.002755 0.000000 0.023797 0.000000
# 2 -0.006930 0.012173 -0.007588 0.000000 -0.012856 0.000000
# 3 0.002755 -0.007588 0.014253 0.000000 0.016581 0.000000
# 4 0.000000 0.000000 0.000000 0.019496 0.000000 0.004595
# 5 0.023797 -0.012856 0.016581 0.000000 0.070795 0.000000
# 6 0.000000 0.000000 0.000000 0.004595 0.000000 0.032773
#
#
# Mechanical properties :
#
#
# Convention : Reuss Voigt Hill
#
# Bulk Modulus (GPa) = 28.67424 60.72523 44.69974
# Shear Modulus (GPa) = 23.08248 35.84880 29.46564
#
# Velocity S-wave (km/s) = 3.18525 3.96953 3.59882
# Velocity P-wave (km/s) = 5.11189 6.90660 6.07587
#
# Compressibility (1/GPa) = 0.03487451
#
# Stress axis : x y z
#
# Youngs Moduli (GPa) = 31.27530 82.15006 70.15886
#
# Poissons Ratio (x) = 0.56933 -0.19332
# Poissons Ratio (y) = 0.21675 0.53237
# Poissons Ratio (z) = -0.08618 0.62335
#
# Static dielectric constant tensor:
#      x y z
#    x 1.854230 0.000000 0.012250 
#    y 0.000000 1.876580 0.000000 
#    z 0.012250 0.000000 1.938780 
# 
# From -- ./inp_files/204175.got.cif
#   From: 2010.05.17/outbox.cif.g08.bks.cpg/sg15_103_cif.got.tgz:204175.got - 2010.06.03 18:47:42.
