data_PCOD9300308
_publ_section_title
;
Structure prediction by ZEFSAII (Michael W. Deem and Ramdas Pophale) SiO2 
 PCOD9300308
Probable space group: C 2/C
;
_chemical_formula_sum "Si O2"
_cell_formula_units_Z 48
_cell_length_a 24.709699
_cell_length_b 8.192432
_cell_length_c 9.639976
_cell_angle_alpha 90.000000
_cell_angle_beta 108.003181
_cell_angle_gamma 90.000000
_cell_volume 1855.900734
_symmetry_space_group_name_H-M "C 2/C"
_symmetry_group_IT_number 15
_symmetry_cell_setting 'monoclinic'
loop_
_space_group_symop_operation_xyz
x,y,z
-x,y,1/2-z
-x,-y,-z
x,-y,1/2+z
1/2+x,1/2+y,z
1/2-x,1/2+y,1/2-z
1/2-x,1/2-y,-z
1/2+x,1/2-y,1/2+z
loop_
_atom_site_type_symbol
_atom_site_label
_atom_site_fract_x
_atom_site_fract_y
_atom_site_fract_z
Si Si1 0.643181 0.896928 0.422838
Si Si2 0.000000 0.741303 0.750000
Si Si3 0.070625 0.486134 0.630763
Si Si4 0.500000 0.749056 0.750000
Si Si5 0.833602 0.886468 0.758250
Si Si6 0.940156 0.994603 0.032112
Si Si7 0.763706 0.371503 0.386693
O O1 0.594022 0.948004 0.496849
O O2 0.654698 0.711376 0.377758
O O3 0.625401 0.000649 0.273078
O O4 0.699347 0.975136 0.531655
O O5 0.965039 0.642439 0.840305
O O6 0.951958 0.848017 0.636669
O O7 0.027624 0.349213 0.648456
O O8 0.552896 0.650250 0.852524
O O9 0.793696 0.044667 0.713411
O O10 0.800289 0.743790 0.814503
O O11 0.888723 0.951045 0.888659
O O12 0.000000 0.000000 0.000000
O O13 0.750000 0.250000 0.500000
#
# Coordination Sequence:
#
# PCOD9300308 Si02
#       7
#     8   4   8   4   8   8   8
#     4  12  26  52  83 122 170 225 293 362 443 520
#     4  10  26  48  80 128 174 232 290 354 438 528
#     4  11  26  47  85 119 173 227 284 355 438 528
#     4  10  26  48  74 122 170 228 282 350 438 520
#     4  12  28  56  87 125 173 228 300 364 447 526
#     4  11  26  50  81 121 172 228 290 357 438 523
#     4  12  29  54  84 125 169 228 290 369 442 519
#
# _framework density 25.863454000000001
#
# number of rings (size 3 to 8) (size 9 to 14) (size 15 to 20)
#    0.000    0.667    1.667    3.500    4.667    8.000 
#    0.000    0.000    0.000    0.000    0.000    0.000 
#    0.000    0.000    0.000    0.000    0.000    0.000 
#
# Total GULP energy -134214.900208 kJ/mol
# GULP energy per Si atom -5592.287509 kJ/mol
# Density = 2.580459 g / cm^3
# Si number density = 25.863454 Si / 1000 Ang^3
#
#
#
# Elastic Constant Matrix: (Units=GPa)
#
#
# Indices 1 2 3 4 5 6 
#
# 1 170.9958 76.6044 89.5619 0.0000 2.7893 0.0000
# 2 76.6044 153.5737 87.5383 0.0000 11.0838 0.0000
# 3 89.5619 87.5383 168.4838 0.0000 13.7702 0.0000
# 4 0.0000 0.0000 0.0000 30.8749 0.0000 14.3715
# 5 2.7893 11.0838 13.7702 0.0000 74.3552 0.0000
# 6 0.0000 0.0000 0.0000 14.3715 0.0000 17.1608
#
#
#
# Elastic Compliance Matrix: (Units=1/GPa)
#
#
# Indices 1 2 3 4 5 6 
#
# 1 0.008727 -0.002452 -0.003420 0.000000 0.000671 0.000000
# 2 -0.002452 0.009959 -0.003814 0.000000 -0.000686 0.000000
# 3 -0.003420 -0.003814 0.009827 0.000000 -0.001123 0.000000
# 4 0.000000 0.000000 0.000000 0.053081 0.000000 -0.044453
# 5 0.000671 -0.000686 -0.001123 0.000000 0.013734 0.000000
# 6 0.000000 0.000000 0.000000 -0.044453 0.000000 0.095500
#
#
# Mechanical properties :
#
#
# Convention : Reuss Voigt Hill
#
# Bulk Modulus (GPa) = 109.41843 111.16249 110.29046
# Shear Modulus (GPa) = 23.44703 40.43476 31.94089
#
# Velocity S-wave (km/s) = 3.01420 3.95827 3.51804
# Velocity P-wave (km/s) = 7.38322 7.99777 7.69663
#
# Compressibility (1/GPa) = 0.00913923
#
# Stress axis : x y z
#
# Youngs Moduli (GPa) = 114.58832 100.41634 101.76228
#
# Poissons Ratio (x) = 0.24624 0.34801
# Poissons Ratio (y) = 0.28100 0.38817
# Poissons Ratio (z) = 0.39187 0.38304
#
# Static dielectric constant tensor:
#      x y z
#    x 2.274360 0.000000 -0.126830 
#    y 0.000000 2.154740 0.000000 
#    z -0.126830 0.000000 2.120340 
# 
# From -- ./inp_files/116823.got.cif
#   From: 2010.05.17/outbox.cif.g08.bks.cpg/sg15_59_cif.got.tgz:116823.got - 2010.06.03 18:47:42.
