data_PCOD9300984
_publ_section_title
;
Structure prediction by ZEFSAII (Michael W. Deem and Ramdas Pophale) SiO2 
 PCOD9300984
Probable space group: C 2/C
;
_chemical_formula_sum "Si O2"
_cell_formula_units_Z 64
_cell_length_a 9.331134
_cell_length_b 18.982403
_cell_length_c 21.910063
_cell_angle_alpha 90.000000
_cell_angle_beta 53.811897
_cell_angle_gamma 90.000000
_cell_volume 3132.184985
_symmetry_space_group_name_H-M "C 2/C"
_symmetry_group_IT_number 15
_symmetry_cell_setting 'monoclinic'
loop_
_space_group_symop_operation_xyz
x,y,z
-x,y,1/2-z
-x,-y,-z
x,-y,1/2+z
1/2+x,1/2+y,z
1/2-x,1/2+y,1/2-z
1/2-x,1/2-y,-z
1/2+x,1/2-y,1/2+z
loop_
_atom_site_type_symbol
_atom_site_label
_atom_site_fract_x
_atom_site_fract_y
_atom_site_fract_z
Si Si1 0.011109 0.790238 0.424899
Si Si2 0.679571 0.332875 0.811525
Si Si3 0.083126 0.055714 0.160384
Si Si4 0.608237 0.912838 0.847286
Si Si5 0.296015 0.831735 0.916011
Si Si6 0.985253 0.102631 0.682597
Si Si7 0.589304 0.939434 0.290272
Si Si8 0.431261 0.797589 0.336533
O O1 0.219868 0.784853 0.387544
O O2 0.900532 0.820322 0.509476
O O3 0.924536 0.717698 0.424251
O O4 0.963295 0.840298 0.379698
O O5 0.546050 0.399782 0.850324
O O6 0.807564 0.356752 0.722875
O O7 0.789118 0.319970 0.845341
O O8 0.552521 0.265352 0.832551
O O9 0.276631 0.090182 0.119881
O O10 0.000000 0.063979 0.250000
O O11 0.079459 0.972687 0.148736
O O12 0.396888 0.904597 0.902044
O O13 0.634850 0.992549 0.817941
O O14 0.000000 0.123606 0.750000
O O15 0.777189 0.092466 0.724575
O O16 0.500000 0.964017 0.250000
O O17 0.478361 0.876074 0.349311
O O18 0.500000 0.801740 0.250000
#
# Coordination Sequence:
#
# PCOD9300984 Si02
#       8
#     8   8   8   8   8   8   8   8
#     4  11  25  45  57  88 132 160 206 253 312 364
#     4  11  21  37  63  94 116 160 217 250 303 363
#     4   9  18  35  60  90 123 152 187 264 308 343
#     4  11  21  39  62  94 128 158 206 253 306 363
#     4  11  26  40  61  85 126 175 198 256 305 364
#     4  11  20  38  65  91 120 158 200 259 309 358
#     4  11  20  35  61  96 123 152 197 261 313 345
#     4  11  22  37  63  91 118 158 206 263 308 356
#
# _framework density 20.433021
#
# number of rings (size 3 to 8) (size 9 to 14) (size 15 to 20)
#    0.000    1.250    6.250    3.750    1.750    0.500 
#    0.000    3.125    0.000    0.000    0.000    0.000 
#    0.000    0.000    0.000    0.000    0.000    0.000 
#
# Total GULP energy -178384.433852 kJ/mol
# GULP energy per Si atom -5574.513558 kJ/mol
# Density = 2.038651 g / cm^3
# Si number density = 20.433021 Si / 1000 Ang^3
#
#
#
# Elastic Constant Matrix: (Units=GPa)
#
#
# Indices 1 2 3 4 5 6 
#
# 1 89.1521 2.4778 4.3966 0.0004 -20.8803 -0.0002
# 2 2.4778 57.1033 8.1222 0.0001 -4.0799 -0.0001
# 3 4.3966 8.1222 33.6820 0.0002 -16.2382 -0.0001
# 4 0.0004 0.0001 0.0002 -30.0597 -0.0003 3.5194
# 5 -20.8803 -4.0799 -16.2382 -0.0003 29.8757 0.0002
# 6 -0.0002 -0.0001 -0.0001 3.5194 0.0002 37.1541
#
#
#
# Elastic Compliance Matrix: (Units=1/GPa)
#
#
# Indices 1 2 3 4 5 6 
#
# 1 0.013777 -0.000319 0.003929 0.000000 0.011721 0.000000
# 2 -0.000319 0.018142 -0.004399 0.000000 -0.000137 0.000000
# 3 0.003929 -0.004399 0.042376 0.000000 0.025178 0.000000
# 4 0.000000 0.000000 0.000000 -0.032902 0.000000 0.003117
# 5 0.011721 -0.000137 0.025178 0.000000 0.055330 0.000000
# 6 0.000000 0.000000 0.000000 0.003117 0.000000 0.026620
#
#
# Mechanical properties :
#
#
# Convention : Reuss Voigt Hill
#
# Bulk Modulus (GPa) = 13.75201 23.32562 18.53882
# Shear Modulus (GPa) = 33.52139 18.39007 25.95573
#
# Velocity S-wave (km/s) = 4.05476 3.00328 3.56797
# Velocity P-wave (km/s) = 5.35410 4.84425 5.10554
#
# Compressibility (1/GPa) = 0.07271663
#
# Stress axis : x y z
#
# Youngs Moduli (GPa) = 72.58456 55.12102 23.59852
#
# Poissons Ratio (x) = 0.01760 -0.09273
# Poissons Ratio (y) = 0.02317 0.10381
# Poissons Ratio (z) = -0.28521 0.24248
#
# Static dielectric constant tensor:
#      x y z
#    x 1.683130 0.000000 -0.049080 
#    y 0.000000 1.785740 0.000000 
#    z -0.049080 0.000000 1.759980 
# 
# From -- ./inp_files/266096.got.cif
#   From: 2010.05.17/outbox.cif.g08.bks.cpg/sg15_134_cif.got.tgz:266096.got - 2010.06.03 18:47:42.
