data_PCOD9300136
_publ_section_title
;
Structure prediction by ZEFSAII (Michael W. Deem and Ramdas Pophale) SiO2 
 PCOD9300136
Probable space group: C 2/C
;
_chemical_formula_sum "Si O2"
_cell_formula_units_Z 40
_cell_length_a 15.651403
_cell_length_b 11.755824
_cell_length_c 8.944310
_cell_angle_alpha 90.000000
_cell_angle_beta 91.851074
_cell_angle_gamma 90.000000
_cell_volume 1644.850770
_symmetry_space_group_name_H-M "C 2/C"
_symmetry_group_IT_number 15
_symmetry_cell_setting 'monoclinic'
loop_
_space_group_symop_operation_xyz
x,y,z
-x,y,1/2-z
-x,-y,-z
x,-y,1/2+z
1/2+x,1/2+y,z
1/2-x,1/2+y,1/2-z
1/2-x,1/2-y,-z
1/2+x,1/2-y,1/2+z
loop_
_atom_site_type_symbol
_atom_site_label
_atom_site_fract_x
_atom_site_fract_y
_atom_site_fract_z
Si Si1 0.902773 0.931817 0.266586
Si Si2 0.000000 0.421842 0.750000
Si Si3 0.097121 0.262189 0.520245
Si Si4 0.334464 0.053470 0.669400
Si Si5 0.755416 0.117594 0.536584
Si Si6 0.500000 0.349526 0.750000
O O1 0.869243 0.851594 0.396689
O O2 0.845286 0.912429 0.118920
O O3 0.000000 0.888350 0.250000
O O4 0.922419 0.065150 0.290511
O O5 0.947422 0.343357 0.861284
O O6 0.928979 0.499805 0.667185
O O7 0.166208 0.337041 0.436876
O O8 0.029250 0.222718 0.391913
O O9 0.312651 0.087201 0.836946
O O10 0.269085 0.958482 0.606615
O O11 0.750000 0.250000 0.500000
#
# Coordination Sequence:
#
# PCOD9300136 Si02
#       6
#     8   4   8   8   8   4
#     4  10  26  49  75 107 159 202 268 316 393 471
#     4  12  24  50  76 114 156 202 262 320 406 478
#     4  12  24  46  80 111 152 209 262 330 393 477
#     4  12  29  49  79 117 158 204 268 328 399 479
#     4  12  30  52  80 118 161 207 262 334 396 469
#     4  10  26  44  80 116 150 204 270 318 394 474
#
# _framework density 24.318314999999998
#
# number of rings (size 3 to 8) (size 9 to 14) (size 15 to 20)
#    0.600    0.000    3.000    3.000    5.600    2.400 
#    0.000    0.000    0.000    0.000    0.000    0.000 
#    0.000    0.000    0.000    0.000    0.000    0.000 
#
# Total GULP energy -112087.984342 kJ/mol
# GULP energy per Si atom -5604.399217 kJ/mol
# Density = 2.426297 g / cm^3
# Si number density = 24.318315 Si / 1000 Ang^3
#
#
#
# Elastic Constant Matrix: (Units=GPa)
#
#
# Indices 1 2 3 4 5 6 
#
# 1 90.0184 12.6848 0.2931 0.0000 23.2265 0.0000
# 2 12.6848 138.8514 44.9998 0.0000 11.3875 0.0000
# 3 0.2931 44.9998 97.8232 0.0000 7.7215 0.0000
# 4 0.0000 0.0000 0.0000 49.8855 0.0000 24.9986
# 5 23.2265 11.3875 7.7215 0.0000 53.5790 0.0000
# 6 0.0000 0.0000 0.0000 24.9986 0.0000 -9.0787
#
#
#
# Elastic Compliance Matrix: (Units=1/GPa)
#
#
# Indices 1 2 3 4 5 6 
#
# 1 0.012635 -0.000985 0.000841 0.000000 -0.005389 0.000000
# 2 -0.000985 0.008624 -0.003898 0.000000 -0.000844 0.000000
# 3 0.000841 -0.003898 0.012114 0.000000 -0.001282 0.000000
# 4 0.000000 0.000000 0.000000 0.008423 0.000000 0.023194
# 5 -0.005389 -0.000844 -0.001282 0.000000 0.021364 0.000000
# 6 0.000000 0.000000 0.000000 0.023194 0.000000 -0.046283
#
#
# Mechanical properties :
#
#
# Convention : Reuss Voigt Hill
#
# Bulk Modulus (GPa) = 39.54113 49.18316 44.36214
# Shear Modulus (GPa) = 149.73640 36.79151 93.26395
#
# Velocity S-wave (km/s) = 7.85539 3.89384 6.19956
# Velocity P-wave (km/s) = 9.92831 6.36275 8.33834
#
# Compressibility (1/GPa) = 0.02529012
#
# Stress axis : x y z
#
# Youngs Moduli (GPa) = 79.14268 115.95086 82.54797
#
# Poissons Ratio (x) = 0.11418 -0.06938
# Poissons Ratio (y) = 0.07793 0.32175
# Poissons Ratio (z) = -0.06652 0.45194
#
# Static dielectric constant tensor:
#      x y z
#    x 1.950820 0.000000 -0.007360 
#    y 0.000000 1.886600 0.000000 
#    z -0.007360 0.000000 1.820490 
# 
# From -- ./inp_files/46300.got.cif
#   From: 2010.05.17/outbox.cif.g08.bks.cpg/sg15_24_cif.got.tgz:46300.got - 2010.06.03 18:47:42.
