data_PCOD9300873
_publ_section_title
;
Structure prediction by ZEFSAII (Michael W. Deem and Ramdas Pophale) SiO2 
 PCOD9300873
Probable space group: C 2/C
;
_chemical_formula_sum "Si O2"
_cell_formula_units_Z 40
_cell_length_a 6.730566
_cell_length_b 16.033487
_cell_length_c 17.152767
_cell_angle_alpha 90.000000
_cell_angle_beta 91.095211
_cell_angle_gamma 90.000000
_cell_volume 1850.693129
_symmetry_space_group_name_H-M "C 2/C"
_symmetry_group_IT_number 15
_symmetry_cell_setting 'monoclinic'
loop_
_space_group_symop_operation_xyz
x,y,z
-x,y,1/2-z
-x,-y,-z
x,-y,1/2+z
1/2+x,1/2+y,z
1/2-x,1/2+y,1/2-z
1/2-x,1/2-y,-z
1/2+x,1/2-y,1/2+z
loop_
_atom_site_type_symbol
_atom_site_label
_atom_site_fract_x
_atom_site_fract_y
_atom_site_fract_z
Si Si1 0.031607 0.200007 0.844104
Si Si2 0.877774 0.189110 0.325279
Si Si3 0.230696 0.349528 0.586954
Si Si4 0.366005 0.560461 0.944237
Si Si5 0.576794 0.039057 0.329060
O O1 0.882164 0.266611 0.883979
O O2 0.001240 0.112536 0.885628
O O3 0.000000 0.197688 0.750000
O O4 0.251763 0.235475 0.858350
O O5 0.716735 0.117378 0.304334
O O6 0.000000 0.213974 0.250000
O O7 0.041559 0.155400 0.385031
O O8 0.243889 0.374162 0.496980
O O9 0.112218 0.423565 0.628131
O O10 0.208962 0.511786 0.890033
O O11 0.500000 0.500000 0.000000
O O12 0.500000 0.995022 0.250000
#
# Coordination Sequence:
#
# PCOD9300873 Si02
#       5
#     8   8   8   8   8
#     4  11  25  45  71 104 135 183 244 282 348 431
#     4  11  19  42  78 102 132 186 239 296 344 412
#     4  11  22  46  72 100 140 184 234 293 354 409
#     4  12  27  46  67 105 148 184 224 297 363 416
#     4  11  23  43  74 103 140 192 240 283 352 432
#
# _framework density 21.613524000000002
#
# number of rings (size 3 to 8) (size 9 to 14) (size 15 to 20)
#    0.000    0.800    6.000    2.400    0.000    3.200 
#   10.800    0.000    0.000    0.000    0.000    0.000 
#    0.000    0.000    0.000    0.000    0.000    0.000 
#
# Total GULP energy -111811.732222 kJ/mol
# GULP energy per Si atom -5590.586611 kJ/mol
# Density = 2.156433 g / cm^3
# Si number density = 21.613524 Si / 1000 Ang^3
#
#
#
# Elastic Constant Matrix: (Units=GPa)
#
#
# Indices 1 2 3 4 5 6 
#
# 1 131.7124 43.5796 61.1097 0.0000 8.0895 0.0000
# 2 43.5796 84.0326 75.5763 0.0000 6.9374 0.0000
# 3 61.1097 75.5763 138.5236 0.0000 2.5017 0.0000
# 4 0.0000 0.0000 0.0000 34.7130 0.0000 -8.9632
# 5 8.0895 6.9374 2.5017 0.0000 41.0866 0.0000
# 6 0.0000 0.0000 0.0000 -8.9632 0.0000 16.3894
#
#
#
# Elastic Compliance Matrix: (Units=1/GPa)
#
#
# Indices 1 2 3 4 5 6 
#
# 1 0.009851 -0.002177 -0.003133 0.000000 -0.001381 0.000000
# 2 -0.002177 0.024266 -0.012226 0.000000 -0.002924 0.000000
# 3 -0.003133 -0.012226 0.015240 0.000000 0.001753 0.000000
# 4 0.000000 0.000000 0.000000 0.033545 0.000000 0.018345
# 5 -0.001381 -0.002924 0.001753 0.000000 0.024998 0.000000
# 6 0.000000 0.000000 0.000000 0.018345 0.000000 0.071048
#
#
# Mechanical properties :
#
#
# Convention : Reuss Voigt Hill
#
# Bulk Modulus (GPa) = 70.00427 79.42221 74.71324
# Shear Modulus (GPa) = 22.85381 30.03799 26.44590
#
# Velocity S-wave (km/s) = 3.25527 3.73202 3.50177
# Velocity P-wave (km/s) = 6.82558 7.44291 7.14092
#
# Compressibility (1/GPa) = 0.01428484
#
# Stress axis : x y z
#
# Youngs Moduli (GPa) = 101.51170 41.20932 65.61700
#
# Poissons Ratio (x) = 0.08971 0.20559
# Poissons Ratio (y) = 0.22098 0.80225
# Poissons Ratio (z) = 0.31806 0.50383
#
# Static dielectric constant tensor:
#      x y z
#    x 1.762910 0.000000 0.015630 
#    y 0.000000 1.819180 0.000000 
#    z 0.015630 0.000000 1.803190 
# 
# From -- ./inp_files/184339.got.cif
#   From: 2010.05.17/outbox.cif.g08.bks.cpg/sg15_93_cif.got.tgz:184339.got - 2010.06.03 18:47:42.
