data_PCOD9300100
_publ_section_title
;
Structure prediction by ZEFSAII (Michael W. Deem and Ramdas Pophale) SiO2 
 PCOD9300100
Probable space group: C 2/C
;
_chemical_formula_sum "Si O2"
_cell_formula_units_Z 60
_cell_length_a 21.485767
_cell_length_b 22.147684
_cell_length_c 9.350610
_cell_angle_alpha 90.000000
_cell_angle_beta 37.382089
_cell_angle_gamma 90.000000
_cell_volume 2701.462903
_symmetry_space_group_name_H-M "C 2/C"
_symmetry_group_IT_number 15
_symmetry_cell_setting 'monoclinic'
loop_
_space_group_symop_operation_xyz
x,y,z
-x,y,1/2-z
-x,-y,-z
x,-y,1/2+z
1/2+x,1/2+y,z
1/2-x,1/2+y,1/2-z
1/2-x,1/2-y,-z
1/2+x,1/2-y,1/2+z
loop_
_atom_site_type_symbol
_atom_site_label
_atom_site_fract_x
_atom_site_fract_y
_atom_site_fract_z
Si Si1 0.000000 0.015350 0.750000
Si Si2 0.393049 0.252456 0.371845
Si Si3 0.926121 0.081839 0.169731
Si Si4 0.925462 0.494770 0.268847
Si Si5 0.662896 0.122442 0.972625
Si Si6 0.803485 0.382315 0.418162
Si Si7 0.202057 0.734337 0.432994
Si Si8 0.385923 0.669165 0.601471
O O1 0.052690 0.055136 0.528404
O O2 0.926614 0.971841 0.787907
O O3 0.500000 0.269588 0.250000
O O4 0.389730 0.180109 0.358100
O O5 0.296596 0.266976 0.649610
O O6 0.380992 0.287521 0.247374
O O7 0.819434 0.116828 0.363083
O O8 0.017376 0.126067 0.052339
O O9 0.884133 0.559517 0.393673
O O10 0.834528 0.449392 0.404091
O O11 0.000000 0.467144 0.250000
O O12 0.000000 0.500000 0.000000
O O13 0.653050 0.130020 0.819427
O O14 0.783892 0.127847 0.783753
O O15 0.841888 0.332157 0.459368
O O16 0.250000 0.750000 0.500000
O O17 0.125345 0.784993 0.512281
#
# Coordination Sequence:
#
# PCOD9300100 Si02
#       8
#     4   8   8   8   8   8   8   8
#     4  10  26  44  70 108 150 200 246 290 390 444
#     4  11  24  45  73 103 146 198 244 301 370 444
#     4  11  26  47  73 110 152 194 248 309 376 454
#     4  12  28  49  75 105 139 193 248 305 367 435
#     4  11  24  48  73 102 148 189 244 306 368 437
#     4  12  26  46  77 107 148 188 246 311 371 446
#     4  11  23  46  71 108 142 190 246 303 372 438
#     4  11  25  47  74 110 150 196 245 305 377 449
#
# _framework density 22.210187999999999
#
# number of rings (size 3 to 8) (size 9 to 14) (size 15 to 20)
#    0.000    0.800    4.000    3.600    8.400    2.133 
#    2.400    0.000    2.933    0.000    0.000    0.000 
#    0.000    0.000    0.000    0.000    0.000    0.000 
#
# Total GULP energy -167889.552766 kJ/mol
# GULP energy per Si atom -5596.318426 kJ/mol
# Density = 2.215964 g / cm^3
# Si number density = 22.210188 Si / 1000 Ang^3
#
#
#
# Elastic Constant Matrix: (Units=GPa)
#
#
# Indices 1 2 3 4 5 6 
#
# 1 116.1469 41.7272 49.9861 0.0000 6.8062 0.0000
# 2 41.7272 134.6837 58.1000 0.0000 8.1064 0.0000
# 3 49.9861 58.1000 78.5982 0.0000 5.3538 0.0000
# 4 0.0000 0.0000 0.0000 33.2943 0.0000 12.0475
# 5 6.8062 8.1064 5.3538 0.0000 41.8534 0.0000
# 6 0.0000 0.0000 0.0000 12.0475 0.0000 24.9850
#
#
#
# Elastic Compliance Matrix: (Units=1/GPa)
#
#
# Indices 1 2 3 4 5 6 
#
# 1 0.011924 -0.000579 -0.007093 0.000000 -0.000920 0.000000
# 2 -0.000579 0.010979 -0.007675 0.000000 -0.001050 0.000000
# 3 -0.007093 -0.007675 0.022927 0.000000 -0.000293 0.000000
# 4 0.000000 0.000000 0.000000 0.036383 0.000000 -0.017544
# 5 -0.000920 -0.001050 -0.000293 0.000000 0.024283 0.000000
# 6 0.000000 0.000000 0.000000 -0.017544 0.000000 0.048483
#
#
# Mechanical properties :
#
#
# Convention : Reuss Voigt Hill
#
# Bulk Modulus (GPa) = 66.07028 69.89505 67.98266
# Shear Modulus (GPa) = 26.21648 32.00090 29.10869
#
# Velocity S-wave (km/s) = 3.43939 3.79993 3.62415
# Velocity P-wave (km/s) = 6.75166 7.12677 6.94175
#
# Compressibility (1/GPa) = 0.01513540
#
# Stress axis : x y z
#
# Youngs Moduli (GPa) = 83.86280 91.08695 43.61642
#
# Poissons Ratio (x) = 0.05277 0.30935
# Poissons Ratio (y) = 0.04859 0.33477
# Poissons Ratio (z) = 0.59480 0.69912
#
# Static dielectric constant tensor:
#      x y z
#    x 1.816730 0.000000 -0.002360 
#    y 0.000000 1.844530 0.000000 
#    z -0.002360 0.000000 1.795910 
# 
# From -- ./inp_files/58733.got.cif
#   From: 2010.05.17/outbox.cif.g08.bks.cpg/sg15_30_cif.got.tgz:58733.got - 2010.06.03 18:47:42.
