data_PCOD9300887
_publ_section_title
;
Structure prediction by ZEFSAII (Michael W. Deem and Ramdas Pophale) SiO2 
 PCOD9300887
Probable space group: C 2/C
;
_chemical_formula_sum "Si O2"
_cell_formula_units_Z 64
_cell_length_a 30.220541
_cell_length_b 14.396720
_cell_length_c 9.882770
_cell_angle_alpha 90.000000
_cell_angle_beta 79.925748
_cell_angle_gamma 90.000000
_cell_volume 4233.468411
_symmetry_space_group_name_H-M "C 2/C"
_symmetry_group_IT_number 15
_symmetry_cell_setting 'monoclinic'
loop_
_space_group_symop_operation_xyz
x,y,z
-x,y,1/2-z
-x,-y,-z
x,-y,1/2+z
1/2+x,1/2+y,z
1/2-x,1/2+y,1/2-z
1/2-x,1/2-y,-z
1/2+x,1/2-y,1/2+z
loop_
_atom_site_type_symbol
_atom_site_label
_atom_site_fract_x
_atom_site_fract_y
_atom_site_fract_z
Si Si1 0.221956 0.209924 0.390069
Si Si2 0.690946 0.990087 0.863294
Si Si3 0.723982 0.297706 0.389417
Si Si4 0.249943 0.489723 0.582409
Si Si5 0.552526 0.907758 0.062727
Si Si6 0.051057 0.591775 0.883732
Si Si7 0.142341 0.688408 0.514705
Si Si8 0.140244 0.320354 0.339905
O O1 0.250000 0.250000 0.500000
O O2 0.251329 0.249344 0.249588
O O3 0.219683 0.098892 0.402552
O O4 0.171804 0.249077 0.401347
O O5 0.707167 0.971249 0.702652
O O6 0.659829 0.079423 0.869995
O O7 0.666501 0.904382 0.946679
O O8 0.733704 0.010754 0.936056
O O9 0.750000 0.250000 0.500000
O O10 0.731805 0.408222 0.390853
O O11 0.671603 0.270255 0.432202
O O12 0.500712 0.879138 0.068974
O O13 0.557470 0.930889 0.220331
O O14 0.589868 0.829659 0.011545
O O15 0.559460 0.999888 0.968842
O O16 0.087372 0.671154 0.897155
O O17 0.146869 0.694375 0.675077
#
# Coordination Sequence:
#
# PCOD9300887 Si02
#       8
#     8   8   8   8   8   8   8   8
#     4  12  22  33  47  72  99 127 167 204 241 281
#     4  12  18  30  47  68  92 129 159 197 229 280
#     4  12  20  35  49  68  93 134 168 193 238 294
#     4  12  22  32  48  66  98 128 168 197 233 280
#     4   9  18  31  48  73  95 126 161 204 243 291
#     4   9  18  31  49  70  99 124 162 202 244 293
#     4  11  20  31  50  70  96 132 167 191 239 296
#     4  11  20  32  47  72  98 131 163 194 244 288
#
# _framework density 15.117628
#
# number of rings (size 3 to 8) (size 9 to 14) (size 15 to 20)
#    0.000    1.000    8.750    0.000    0.000    0.000 
#    2.250    0.000    0.000    0.000    0.000    0.875 
#    0.000    0.000    0.000    0.000    0.000    0.000 
#
# Total GULP energy -178356.921116 kJ/mol
# GULP energy per Si atom -5573.653785 kJ/mol
# Density = 1.508322 g / cm^3
# Si number density = 15.117628 Si / 1000 Ang^3
#
#
#
# Elastic Constant Matrix: (Units=GPa)
#
#
# Indices 1 2 3 4 5 6 
#
# 1 103.4496 35.2891 22.7691 0.0000 -6.1579 0.0000
# 2 35.2891 71.9573 11.3501 0.0000 1.9898 0.0000
# 3 22.7691 11.3501 59.6024 0.0000 3.3734 0.0000
# 4 0.0000 0.0000 0.0000 14.6631 0.0000 -0.4053
# 5 -6.1579 1.9898 3.3734 0.0000 19.0507 0.0000
# 6 0.0000 0.0000 0.0000 -0.4053 0.0000 26.4508
#
#
#
# Elastic Compliance Matrix: (Units=1/GPa)
#
#
# Indices 1 2 3 4 5 6 
#
# 1 0.012889 -0.005822 -0.004126 0.000000 0.005505 0.000000
# 2 -0.005822 0.016977 -0.000810 0.000000 -0.003512 0.000000
# 3 -0.004126 -0.000810 0.018767 0.000000 -0.004572 0.000000
# 4 0.000000 0.000000 0.000000 0.068227 0.000000 0.001045
# 5 0.005505 -0.003512 -0.004572 0.000000 0.055447 0.000000
# 6 0.000000 0.000000 0.000000 0.001045 0.000000 0.037822
#
#
# Mechanical properties :
#
#
# Convention : Reuss Voigt Hill
#
# Bulk Modulus (GPa) = 36.87896 41.53621 39.20758
# Shear Modulus (GPa) = 20.77398 23.07298 21.92348
#
# Velocity S-wave (km/s) = 3.71098 3.91094 3.81227
# Velocity P-wave (km/s) = 6.54290 6.92307 6.73567
#
# Compressibility (1/GPa) = 0.02711574
#
# Stress axis : x y z
#
# Youngs Moduli (GPa) = 77.58844 58.90222 53.28422
#
# Poissons Ratio (x) = 0.34293 0.21988
# Poissons Ratio (y) = 0.45173 0.04316
# Poissons Ratio (z) = 0.32017 0.04772
#
# Static dielectric constant tensor:
#      x y z
#    x 1.544340 0.000000 0.025160 
#    y 0.000000 1.499910 0.000000 
#    z 0.025160 0.000000 1.611610 
# 
# From -- ./inp_files/69732.got.cif
#   From: 2010.05.17/outbox.cif.g08.bks.cpg/sg15_35_cif.got.tgz:69732.got - 2010.06.03 18:47:42.
