data_PCOD9300387
_publ_section_title
;
Structure prediction by ZEFSAII (Michael W. Deem and Ramdas Pophale) SiO2 
 PCOD9300387
Probable space group: C 2/C
;
_chemical_formula_sum "Si O2"
_cell_formula_units_Z 44
_cell_length_a 28.861960
_cell_length_b 7.308732
_cell_length_c 8.868193
_cell_angle_alpha 90.000000
_cell_angle_beta 106.673193
_cell_angle_gamma 90.000000
_cell_volume 1792.045101
_symmetry_space_group_name_H-M "C 2/C"
_symmetry_group_IT_number 15
_symmetry_cell_setting 'monoclinic'
loop_
_space_group_symop_operation_xyz
x,y,z
-x,y,1/2-z
-x,-y,-z
x,-y,1/2+z
1/2+x,1/2+y,z
1/2-x,1/2+y,1/2-z
1/2-x,1/2-y,-z
1/2+x,1/2-y,1/2+z
loop_
_atom_site_type_symbol
_atom_site_label
_atom_site_fract_x
_atom_site_fract_y
_atom_site_fract_z
Si Si1 0.369556 0.018288 0.238130
Si Si2 0.640792 0.346416 0.947602
Si Si3 0.440597 0.326444 0.417808
Si Si4 0.303699 0.158143 0.928913
Si Si5 0.800006 0.035040 0.753230
Si Si6 0.500000 0.583298 0.250000
O O1 0.379777 0.840176 0.143401
O O2 0.342917 0.931532 0.355215
O O3 0.414495 0.146249 0.326304
O O4 0.329008 0.137074 0.113114
O O5 0.660730 0.473476 0.834619
O O6 0.600587 0.429649 0.021253
O O7 0.684176 0.314235 0.107755
O O8 0.462621 0.448757 0.304362
O O9 0.479548 0.299645 0.589439
O O10 0.295753 0.358265 0.856164
O O11 0.251136 0.068932 0.871870
#
# Coordination Sequence:
#
# PCOD9300387 Si02
#       6
#     8   8   8   8   8   4
#     4  11  24  45  69 102 149 189 241 286 355 417
#     4  11  24  45  72 104 143 196 238 299 338 428
#     4  11  24  51  76 109 140 182 230 300 366 443
#     4  11  24  41  65 104 149 200 240 297 328 412
#     4  11  25  40  68 105 148 198 252 278 347 390
#     4  10  26  50  84 108 140 168 236 300 378 440
#
# _framework density 24.552954
#
# number of rings (size 3 to 8) (size 9 to 14) (size 15 to 20)
#    0.000    1.091    1.818    3.273    5.091    4.364 
#    3.273    2.727    0.000    0.000    0.000    0.000 
#    0.000    0.000    0.000    0.000    0.000    0.000 
#
# Total GULP energy -123010.476918 kJ/mol
# GULP energy per Si atom -5591.385314 kJ/mol
# Density = 2.449707 g / cm^3
# Si number density = 24.552954 Si / 1000 Ang^3
#
#
#
# Elastic Constant Matrix: (Units=GPa)
#
#
# Indices 1 2 3 4 5 6 
#
# 1 107.2400 33.0622 40.3471 0.0000 -11.9823 0.0000
# 2 33.0622 113.3316 65.8886 0.0000 12.0540 0.0000
# 3 40.3471 65.8886 208.3519 0.0000 7.7103 0.0000
# 4 0.0000 0.0000 0.0000 50.3592 0.0000 10.8064
# 5 -11.9823 12.0540 7.7103 0.0000 48.5101 0.0000
# 6 0.0000 0.0000 0.0000 10.8064 0.0000 37.1426
#
#
#
# Elastic Compliance Matrix: (Units=1/GPa)
#
#
# Indices 1 2 3 4 5 6 
#
# 1 0.011133 -0.002826 -0.001398 0.000000 0.003674 0.000000
# 2 -0.002826 0.011757 -0.003055 0.000000 -0.003134 0.000000
# 3 -0.001398 -0.003055 0.006057 0.000000 -0.000549 0.000000
# 4 0.000000 0.000000 0.000000 0.021180 0.000000 -0.006162
# 5 0.003674 -0.003134 -0.000549 0.000000 0.022388 0.000000
# 6 0.000000 0.000000 0.000000 -0.006162 0.000000 0.028716
#
#
# Mechanical properties :
#
#
# Convention : Reuss Voigt Hill
#
# Bulk Modulus (GPa) = 69.49686 78.61327 74.05507
# Shear Modulus (GPa) = 41.46479 46.51075 43.98777
#
# Velocity S-wave (km/s) = 4.11395 4.35708 4.23726
# Velocity P-wave (km/s) = 7.13670 7.57625 7.35975
#
# Compressibility (1/GPa) = 0.01438914
#
# Stress axis : x y z
#
# Youngs Moduli (GPa) = 89.82630 85.05282 165.10515
#
# Poissons Ratio (x) = 0.24033 0.23085
# Poissons Ratio (y) = 0.25381 0.50439
# Poissons Ratio (z) = 0.12560 0.25983
#
# Static dielectric constant tensor:
#      x y z
#    x 1.978580 0.000000 0.055270 
#    y 0.000000 2.010890 0.000000 
#    z 0.055270 0.000000 2.022410 
# 
# From -- ./inp_files/68660.got.cif
#   From: 2010.05.17/outbox.cif.g08.bks.cpg/sg15_35_cif.got.tgz:68660.got - 2010.06.03 18:47:42.
