data_PCOD9300489
_publ_section_title
;
Structure prediction by ZEFSAII (Michael W. Deem and Ramdas Pophale) SiO2 
 PCOD9300489
Probable space group: C 2/C
;
_chemical_formula_sum "Si O2"
_cell_formula_units_Z 40
_cell_length_a 13.489158
_cell_length_b 6.740764
_cell_length_c 17.233528
_cell_angle_alpha 90.000000
_cell_angle_beta 101.798328
_cell_angle_gamma 90.000000
_cell_volume 1533.891588
_symmetry_space_group_name_H-M "C 2/C"
_symmetry_group_IT_number 15
_symmetry_cell_setting 'monoclinic'
loop_
_space_group_symop_operation_xyz
x,y,z
-x,y,1/2-z
-x,-y,-z
x,-y,1/2+z
1/2+x,1/2+y,z
1/2-x,1/2+y,1/2-z
1/2-x,1/2-y,-z
1/2+x,1/2-y,1/2+z
loop_
_atom_site_type_symbol
_atom_site_label
_atom_site_fract_x
_atom_site_fract_y
_atom_site_fract_z
Si Si1 0.155152 0.221170 0.802812
Si Si2 0.181926 0.201779 0.638846
Si Si3 0.597308 0.839620 0.312119
Si Si4 0.974167 0.641070 0.082619
Si Si5 0.326097 0.709213 0.441729
O O1 0.347431 0.618770 0.780319
O O2 0.132705 0.453896 0.776706
O O3 0.266394 0.208776 0.857552
O O4 0.072490 0.203157 0.859015
O O5 0.298002 0.277460 0.661045
O O6 0.172456 0.023559 0.576367
O O7 0.093819 0.349834 0.602350
O O8 0.500000 0.760238 0.250000
O O9 0.564855 0.931925 0.389737
O O10 0.929053 0.708080 0.993696
O O11 0.250000 0.750000 0.500000
#
# Coordination Sequence:
#
# PCOD9300489 Si02
#       5
#     8   8   8   8   8
#     4   8  16  29  47  74 108 137 187 219 265 329
#     4  11  16  26  55  76 105 156 175 220 285 314
#     4   9  17  30  48  76 110 134 187 225 257 327
#     4   9  16  31  48  79 112 137 187 227 266 330
#     4   9  17  29  46  82 113 137 185 232 262 329
#
# _framework density 26.077463000000002
#
# number of rings (size 3 to 8) (size 9 to 14) (size 15 to 20)
#    1.200    1.600    4.000    1.200    0.000    0.000 
#    0.000    0.000    0.000   10.800    0.000   23.800 
#    0.000    0.000    0.000    0.000    0.000    0.000 
#
# Total GULP energy -111611.171169 kJ/mol
# GULP energy per Si atom -5580.558558 kJ/mol
# Density = 2.601811 g / cm^3
# Si number density = 26.077463 Si / 1000 Ang^3
#
#
#
# Elastic Constant Matrix: (Units=GPa)
#
#
# Indices 1 2 3 4 5 6 
#
# 1 183.4343 36.7859 67.8836 0.0000 47.9433 0.0000
# 2 36.7859 39.4145 12.5439 0.0000 -3.5425 0.0000
# 3 67.8836 12.5439 114.1246 0.0000 20.6662 0.0000
# 4 0.0000 0.0000 0.0000 27.0294 0.0000 -11.7067
# 5 47.9433 -3.5425 20.6662 0.0000 70.4317 0.0000
# 6 0.0000 0.0000 0.0000 -11.7067 0.0000 24.4583
#
#
#
# Elastic Compliance Matrix: (Units=1/GPa)
#
#
# Indices 1 2 3 4 5 6 
#
# 1 0.010420 -0.009005 -0.004057 0.000000 -0.006355 0.000000
# 2 -0.009005 0.034428 0.000157 0.000000 0.007815 0.000000
# 3 -0.004057 0.000157 0.011255 0.000000 -0.000533 0.000000
# 4 0.000000 0.000000 0.000000 0.046672 0.000000 0.022339
# 5 -0.006355 0.007815 -0.000533 0.000000 0.019074 0.000000
# 6 0.000000 0.000000 0.000000 0.022339 0.000000 0.051578
#
#
# Mechanical properties :
#
#
# Convention : Reuss Voigt Hill
#
# Bulk Modulus (GPa) = 33.01158 63.48892 48.25025
# Shear Modulus (GPa) = 23.88509 39.03454 31.45982
#
# Velocity S-wave (km/s) = 3.02971 3.87314 3.47709
# Velocity P-wave (km/s) = 4.99254 6.66339 5.88753
#
# Compressibility (1/GPa) = 0.03029240
#
# Stress axis : x y z
#
# Youngs Moduli (GPa) = 95.96940 29.04589 88.84955
#
# Poissons Ratio (x) = 0.26156 0.36050
# Poissons Ratio (y) = 0.86420 -0.01395
# Poissons Ratio (z) = 0.38939 -0.00456
#
# Static dielectric constant tensor:
#      x y z
#    x 2.085060 0.000000 0.014860 
#    y 0.000000 2.114440 0.000000 
#    z 0.014860 0.000000 2.053920 
# 
# From -- ./inp_files/236356.got.cif
#   From: 2010.05.17/outbox.cif.g08.bks.cpg/sg15_119_cif.got.tgz:236356.got - 2010.06.03 18:47:42.
