data_PCOD9300846
_publ_section_title
;
Structure prediction by ZEFSAII (Michael W. Deem and Ramdas Pophale) SiO2 
 PCOD9300846
Probable space group: C 2/C
;
_chemical_formula_sum "Si O2"
_cell_formula_units_Z 60
_cell_length_a 21.095722
_cell_length_b 9.515866
_cell_length_c 16.386262
_cell_angle_alpha 90.000000
_cell_angle_beta 73.606820
_cell_angle_gamma 90.000000
_cell_volume 3155.720915
_symmetry_space_group_name_H-M "C 2/C"
_symmetry_group_IT_number 15
_symmetry_cell_setting 'monoclinic'
loop_
_space_group_symop_operation_xyz
x,y,z
-x,y,1/2-z
-x,-y,-z
x,-y,1/2+z
1/2+x,1/2+y,z
1/2-x,1/2+y,1/2-z
1/2-x,1/2-y,-z
1/2+x,1/2-y,1/2+z
loop_
_atom_site_type_symbol
_atom_site_label
_atom_site_fract_x
_atom_site_fract_y
_atom_site_fract_z
Si Si1 0.586604 0.216731 0.848597
Si Si2 0.021394 0.847218 0.029502
Si Si3 0.700622 0.578837 0.316219
Si Si4 0.180644 0.478936 0.839690
Si Si5 0.884594 0.188486 0.648667
Si Si6 0.095217 0.095031 0.672835
Si Si7 0.500000 0.343445 0.750000
Si Si8 0.743725 0.320106 0.088798
O O1 0.646947 0.316141 0.796456
O O2 0.615873 0.061456 0.833371
O O3 0.524876 0.248742 0.814541
O O4 0.565827 0.266901 0.946799
O O5 0.058506 0.852069 0.103686
O O6 0.950094 0.780658 0.073443
O O7 0.000000 0.000000 0.000000
O O8 0.754782 0.503898 0.240430
O O9 0.653299 0.453731 0.365646
O O10 0.741118 0.687474 0.357643
O O11 0.165033 0.316102 0.846049
O O12 0.201874 0.560286 0.913644
O O13 0.907170 0.168038 0.735733
O O14 0.172653 0.107878 0.625570
O O15 0.059159 0.946384 0.700616
O O16 0.750000 0.250000 0.000000
#
# Coordination Sequence:
#
# PCOD9300846 Si02
#       8
#     8   8   8   8   8   8   4   8
#     4  11  23  40  63  93 122 167 211 264 312 375
#     4  12  22  39  66  90 123 165 216 262 310 376
#     4  11  19  41  66  90 122 169 210 251 321 388
#     4  11  23  42  60  93 131 161 207 263 323 379
#     4  12  22  39  67  93 120 171 209 258 319 386
#     4  12  19  37  65  93 119 158 220 254 303 385
#     4  12  20  38  64  92 118 170 218 250 308 390
#     4  11  24  39  67  94 126 166 212 267 318 377
#
# _framework density 19.013088
#
# number of rings (size 3 to 8) (size 9 to 14) (size 15 to 20)
#    0.000    0.533    8.000    2.400    0.000    0.533 
#    2.400    2.000    0.000    0.000    0.000    0.000 
#    0.000    0.000    0.000    0.000    0.000    0.000 
#
# Total GULP energy -167122.033444 kJ/mol
# GULP energy per Si atom -5570.734448 kJ/mol
# Density = 1.896981 g / cm^3
# Si number density = 19.013088 Si / 1000 Ang^3
#
#
#
# Elastic Constant Matrix: (Units=GPa)
#
#
# Indices 1 2 3 4 5 6 
#
# 1 101.2478 22.2903 28.2432 0.0000 0.1971 0.0000
# 2 22.2903 69.3456 -6.9424 0.0000 5.9248 0.0000
# 3 28.2432 -6.9424 54.7380 0.0000 1.5267 0.0000
# 4 0.0000 0.0000 0.0000 16.0046 0.0000 -1.7415
# 5 0.1971 5.9248 1.5267 0.0000 27.7322 0.0000
# 6 0.0000 0.0000 0.0000 -1.7415 0.0000 37.5934
#
#
#
# Elastic Compliance Matrix: (Units=1/GPa)
#
#
# Indices 1 2 3 4 5 6 
#
# 1 0.013057 -0.005059 -0.007418 0.000000 0.001396 0.000000
# 2 -0.005059 0.016860 0.004856 0.000000 -0.003833 0.000000
# 3 -0.007418 0.004856 0.022774 0.000000 -0.002238 0.000000
# 4 0.000000 0.000000 0.000000 0.062798 0.000000 0.002909
# 5 0.001396 -0.003833 -0.002238 0.000000 0.036992 0.000000
# 6 0.000000 0.000000 0.000000 0.002909 0.000000 0.026735
#
#
# Mechanical properties :
#
#
# Convention : Reuss Voigt Hill
#
# Bulk Modulus (GPa) = 26.70246 34.72373 30.71309
# Shear Modulus (GPa) = 24.16141 28.38207 26.27174
#
# Velocity S-wave (km/s) = 3.56866 3.86782 3.72125
# Velocity P-wave (km/s) = 5.57272 6.18461 5.88662
#
# Compressibility (1/GPa) = 0.03744973
#
# Stress axis : x y z
#
# Youngs Moduli (GPa) = 76.58786 59.31110 43.90910
#
# Poissons Ratio (x) = 0.30005 0.32570
# Poissons Ratio (y) = 0.38745 -0.21320
# Poissons Ratio (z) = 0.56809 -0.28799
#
# Static dielectric constant tensor:
#      x y z
#    x 1.705220 0.000000 0.010920 
#    y 0.000000 1.674340 0.000000 
#    z 0.010920 0.000000 1.703290 
# 
# From -- ./inp_files/213874.got.cif
#   From: 2010.05.17/outbox.cif.g08.bks.cpg/sg15_107_cif.got.tgz:213874.got - 2010.06.03 18:47:42.
