data_PCOD9300516
_publ_section_title
;
Structure prediction by ZEFSAII (Michael W. Deem and Ramdas Pophale) SiO2 
 PCOD9300516
Probable space group: C 2/C
;
_chemical_formula_sum "Si O2"
_cell_formula_units_Z 64
_cell_length_a 27.937817
_cell_length_b 15.006214
_cell_length_c 13.099442
_cell_angle_alpha 90.000000
_cell_angle_beta 142.537190
_cell_angle_gamma 90.000000
_cell_volume 3340.380254
_symmetry_space_group_name_H-M "C 2/C"
_symmetry_group_IT_number 15
_symmetry_cell_setting 'monoclinic'
loop_
_space_group_symop_operation_xyz
x,y,z
-x,y,1/2-z
-x,-y,-z
x,-y,1/2+z
1/2+x,1/2+y,z
1/2-x,1/2+y,1/2-z
1/2-x,1/2-y,-z
1/2+x,1/2-y,1/2+z
loop_
_atom_site_type_symbol
_atom_site_label
_atom_site_fract_x
_atom_site_fract_y
_atom_site_fract_z
Si Si1 0.275470 0.989296 0.858676
Si Si2 0.294782 0.572129 0.072585
Si Si3 0.092022 0.014947 0.989083
Si Si4 0.827859 0.702758 0.421526
Si Si5 0.943032 0.176566 0.992597
Si Si6 0.571208 0.429462 0.227146
Si Si7 0.798474 0.349460 0.268904
Si Si8 0.881306 0.751573 0.740338
O O1 0.272093 0.975741 0.974690
O O2 0.181914 0.985067 0.675424
O O3 0.313252 0.900723 0.875851
O O4 0.314065 0.080030 0.884635
O O5 0.371852 0.511779 0.201058
O O6 0.321603 0.666965 0.162596
O O7 0.261724 0.595630 0.905939
O O8 0.085756 0.071636 0.873795
O O9 0.022465 0.054927 0.941022
O O10 0.066671 0.910051 0.949134
O O11 0.893187 0.745863 0.459909
O O12 0.750091 0.763720 0.275199
O O13 0.854721 0.713283 0.585467
O O14 0.910653 0.145151 0.826659
O O15 0.031954 0.209316 0.127740
O O16 0.867633 0.316447 0.310692
#
# Coordination Sequence:
#
# PCOD9300516 Si02
#       8
#     8   8   8   8   8   8   8   8
#     4  12  21  35  60  84 118 157 199 241 297 349
#     4  11  17  34  57  85 120 148 189 247 299 349
#     4  11  21  33  55  88 120 153 189 241 307 362
#     4  11  22  37  58  89 118 154 203 244 291 353
#     4  12  22  36  58  86 122 151 198 250 298 346
#     4  11  21  32  54  89 122 150 182 237 312 362
#     4  11  21  36  57  87 121 153 196 248 292 348
#     4  11  21  36  58  87 118 151 195 253 294 337
#
# _framework density 19.159496000000001
#
# number of rings (size 3 to 8) (size 9 to 14) (size 15 to 20)
#    0.000    0.750    7.500    3.000    1.750    0.000 
#    0.000    1.250    0.000    0.000    0.000    0.000 
#    0.000    0.000    0.000    0.000    0.000    0.000 
#
# Total GULP energy -178405.696745 kJ/mol
# GULP energy per Si atom -5575.178023 kJ/mol
# Density = 1.911589 g / cm^3
# Si number density = 19.159496 Si / 1000 Ang^3
#
#
#
# Elastic Constant Matrix: (Units=GPa)
#
#
# Indices 1 2 3 4 5 6 
#
# 1 97.3157 29.9374 1.1811 0.0000 5.0320 0.0000
# 2 29.9374 63.9184 -2.5838 0.0000 7.2382 0.0000
# 3 1.1811 -2.5838 23.8468 0.0000 9.2084 0.0000
# 4 0.0000 0.0000 0.0000 23.1160 0.0000 5.7582
# 5 5.0320 7.2382 9.2084 0.0000 22.0851 0.0000
# 6 0.0000 0.0000 0.0000 5.7582 0.0000 48.0217
#
#
#
# Elastic Compliance Matrix: (Units=1/GPa)
#
#
# Indices 1 2 3 4 5 6 
#
# 1 0.012044 -0.005629 -0.001024 0.000000 -0.000472 0.000000
# 2 -0.005629 0.019304 0.005147 0.000000 -0.007190 0.000000
# 3 -0.001024 0.005147 0.051376 0.000000 -0.022875 0.000000
# 4 0.000000 0.000000 0.000000 0.044592 0.000000 -0.005347
# 5 -0.000472 -0.007190 -0.022875 0.000000 0.057281 0.000000
# 6 0.000000 0.000000 0.000000 -0.005347 0.000000 0.021465
#
#
# Mechanical properties :
#
#
# Convention : Reuss Voigt Hill
#
# Bulk Modulus (GPa) = 12.54527 26.90559 19.72543
# Shear Modulus (GPa) = 21.21830 29.08096 25.14963
#
# Velocity S-wave (km/s) = 3.33146 3.90017 3.62698
# Velocity P-wave (km/s) = 4.62171 5.86133 5.27804
#
# Compressibility (1/GPa) = 0.07971130
#
# Stress axis : x y z
#
# Youngs Moduli (GPa) = 83.02630 51.80352 19.46437
#
# Poissons Ratio (x) = 0.29161 0.01993
# Poissons Ratio (y) = 0.46736 -0.10018
# Poissons Ratio (z) = 0.08502 -0.26662
#
# Static dielectric constant tensor:
#      x y z
#    x 1.742440 0.000000 -0.047220 
#    y 0.000000 1.685830 0.000000 
#    z -0.047220 0.000000 1.692470 
# 
# From -- ./inp_files/178181.got.cif
#   From: 2010.05.17/outbox.cif.g08.bks.cpg/sg15_90_cif.got.tgz:178181.got - 2010.06.03 18:47:42.
