data_PCOD9300641
_publ_section_title
;
Structure prediction by ZEFSAII (Michael W. Deem and Ramdas Pophale) SiO2 
 PCOD9300641
Probable space group: C 2/C
;
_chemical_formula_sum "Si O2"
_cell_formula_units_Z 60
_cell_length_a 6.763687
_cell_length_b 16.919909
_cell_length_c 22.339452
_cell_angle_alpha 90.000000
_cell_angle_beta 79.520973
_cell_angle_gamma 90.000000
_cell_volume 2513.909253
_symmetry_space_group_name_H-M "C 2/C"
_symmetry_group_IT_number 15
_symmetry_cell_setting 'monoclinic'
loop_
_space_group_symop_operation_xyz
x,y,z
-x,y,1/2-z
-x,-y,-z
x,-y,1/2+z
1/2+x,1/2+y,z
1/2-x,1/2+y,1/2-z
1/2-x,1/2-y,-z
1/2+x,1/2-y,1/2+z
loop_
_atom_site_type_symbol
_atom_site_label
_atom_site_fract_x
_atom_site_fract_y
_atom_site_fract_z
Si Si1 0.368190 0.350240 0.641873
Si Si2 0.728025 0.490090 0.417123
Si Si3 0.223270 0.789308 0.066463
Si Si4 0.238924 0.468384 0.449671
Si Si5 0.692782 0.212201 0.271440
Si Si6 0.500000 0.539868 0.750000
Si Si7 0.823344 0.850858 0.153721
Si Si8 0.771176 0.426695 0.655422
O O1 0.258446 0.427589 0.620007
O O2 0.324713 0.272576 0.605824
O O3 0.318933 0.329064 0.712970
O O4 0.599269 0.376451 0.630927
O O5 0.483614 0.473915 0.430079
O O6 0.792826 0.498743 0.482197
O O7 0.803103 0.411390 0.379462
O O8 0.998166 0.807054 0.105042
O O9 0.314254 0.876809 0.054814
O O10 0.250000 0.750000 0.000000
O O11 0.143478 0.518687 0.401168
O O12 0.500000 0.250043 0.250000
O O13 0.790561 0.280470 0.305767
O O14 0.609754 0.141114 0.316919
O O15 0.584044 0.592717 0.799581
O O16 0.667969 0.484048 0.710100
#
# Coordination Sequence:
#
# PCOD9300641 Si02
#       8
#     8   8   8   8   8   4   8   8
#     4  11  19  35  60  88 115 150 195 242 285 342
#     4   9  17  33  58  85 108 150 200 239 266 339
#     4  11  19  31  59  90 115 144 196 247 283 334
#     4   9  18  33  56  85 115 147 196 239 279 331
#     4  12  23  37  57  86 121 151 188 240 300 353
#     4  12  16  36  60  84 108 150 200 242 274 342
#     4  11  21  34  57  86 114 154 200 238 290 343
#     4  11  22  37  62  86 113 154 199 241 287 346
#
# _framework density 23.86721
#
# number of rings (size 3 to 8) (size 9 to 14) (size 15 to 20)
#    0.000    1.333    8.667    0.000    1.867    0.000 
#    0.000    0.667    5.867    1.600    0.000    0.000 
#    0.000    0.000    0.000    0.000    0.000    0.000 
#
# Total GULP energy -167716.637792 kJ/mol
# GULP energy per Si atom -5590.554593 kJ/mol
# Density = 2.381289 g / cm^3
# Si number density = 23.867210 Si / 1000 Ang^3
#
#
#
# Elastic Constant Matrix: (Units=GPa)
#
#
# Indices 1 2 3 4 5 6 
#
# 1 40.7487 31.2383 28.8245 0.0000 13.5036 0.0000
# 2 31.2383 218.1200 109.2188 0.0000 20.4461 0.0000
# 3 28.8245 109.2188 181.7447 0.0000 19.4676 0.0000
# 4 0.0000 0.0000 0.0000 59.2802 0.0000 14.9752
# 5 13.5036 20.4461 19.4676 0.0000 28.5840 0.0000
# 6 0.0000 0.0000 0.0000 14.9752 0.0000 41.1144
#
#
#
# Elastic Compliance Matrix: (Units=1/GPa)
#
#
# Indices 1 2 3 4 5 6 
#
# 1 0.031899 -0.002234 -0.002452 0.000000 -0.011801 0.000000
# 2 -0.002234 0.006841 -0.003609 0.000000 -0.001380 0.000000
# 3 -0.002452 -0.003609 0.008262 0.000000 -0.001887 0.000000
# 4 0.000000 0.000000 0.000000 0.018578 0.000000 -0.006767
# 5 -0.011801 -0.001380 -0.001887 0.000000 0.042832 0.000000
# 6 0.000000 0.000000 0.000000 -0.006767 0.000000 0.026787
#
#
# Mechanical properties :
#
#
# Convention : Reuss Voigt Hill
#
# Bulk Modulus (GPa) = 32.88286 86.57518 59.72902
# Shear Modulus (GPa) = 30.87794 43.88450 37.38122
#
# Velocity S-wave (km/s) = 3.60076 4.29265 3.96184
# Velocity P-wave (km/s) = 5.57626 7.80523 6.78293
#
# Compressibility (1/GPa) = 0.03041098
#
# Stress axis : x y z
#
# Youngs Moduli (GPa) = 31.34896 146.17587 121.03484
#
# Poissons Ratio (x) = 0.32659 0.29682
# Poissons Ratio (y) = 0.07004 0.43681
# Poissons Ratio (z) = 0.07688 0.52754
#
# Static dielectric constant tensor:
#      x y z
#    x 2.023860 0.000000 -0.035850 
#    y 0.000000 1.882680 0.000000 
#    z -0.035850 0.000000 1.906930 
# 
# From -- ./inp_files/264679.got.cif
#   From: 2010.05.17/outbox.cif.g08.bks.cpg/sg15_133_cif.got.tgz:264679.got - 2010.06.03 18:47:42.
