data_PCOD9300521
_publ_section_title
;
Structure prediction by ZEFSAII (Michael W. Deem and Ramdas Pophale) SiO2 
 PCOD9300521
Probable space group: C 2/C
;
_chemical_formula_sum "Si O2"
_cell_formula_units_Z 48
_cell_length_a 17.788393
_cell_length_b 16.570727
_cell_length_c 9.769529
_cell_angle_alpha 90.000000
_cell_angle_beta 126.500918
_cell_angle_gamma 90.000000
_cell_volume 2314.863986
_symmetry_space_group_name_H-M "C 2/C"
_symmetry_group_IT_number 15
_symmetry_cell_setting 'monoclinic'
loop_
_space_group_symop_operation_xyz
x,y,z
-x,y,1/2-z
-x,-y,-z
x,-y,1/2+z
1/2+x,1/2+y,z
1/2-x,1/2+y,1/2-z
1/2-x,1/2-y,-z
1/2+x,1/2-y,1/2+z
loop_
_atom_site_type_symbol
_atom_site_label
_atom_site_fract_x
_atom_site_fract_y
_atom_site_fract_z
Si Si1 0.704650 0.388771 0.000562
Si Si2 0.565502 0.513054 0.940334
Si Si3 0.395617 0.301526 0.104305
Si Si4 0.911941 0.212288 0.329921
Si Si5 0.127546 0.233172 0.619574
Si Si6 0.599006 0.134850 0.885190
O O1 0.657986 0.459858 0.036380
O O2 0.643036 0.360296 0.802769
O O3 0.698115 0.311649 0.093847
O O4 0.807504 0.409272 0.060004
O O5 0.500000 0.480466 0.750000
O O6 0.592849 0.603830 0.923894
O O7 0.500000 0.500000 0.000000
O O8 0.500000 0.270167 0.250000
O O9 0.346198 0.283130 0.194382
O O10 0.366840 0.265850 0.927381
O O11 0.908553 0.287211 0.223502
O O12 0.022705 0.195352 0.477946
O O13 0.115284 0.325064 0.552695
O O14 0.500000 0.091864 0.750000
#
# Coordination Sequence:
#
# PCOD9300521 Si02
#       6
#     8   8   8   8   8   8
#     4  11  18  29  46  68  99 132 163 201 243 291
#     4  11  20  30  47  76 107 130 155 194 246 308
#     4   9  17  28  44  72 103 128 152 188 246 303
#     4   9  16  28  47  71  99 127 157 197 245 294
#     4   9  16  28  46  69  98 126 157 199 246 298
#     4   9  19  33  48  66  91 129 172 209 241 278
#
# _framework density 20.73556
#
# number of rings (size 3 to 8) (size 9 to 14) (size 15 to 20)
#    0.000    2.333    0.000    8.500    0.000    0.000 
#    0.000    3.333    0.000    0.000    0.000   10.500 
#    0.000    0.000    0.000    0.000    0.000    0.000 
#
# Total GULP energy -133730.945302 kJ/mol
# GULP energy per Si atom -5572.122721 kJ/mol
# Density = 2.068836 g / cm^3
# Si number density = 20.735560 Si / 1000 Ang^3
#
#
#
# Elastic Constant Matrix: (Units=GPa)
#
#
# Indices 1 2 3 4 5 6 
#
# 1 145.5317 14.3037 46.6371 0.0000 -7.4335 0.0000
# 2 14.3037 15.4315 10.2318 0.0000 1.9337 0.0000
# 3 46.6371 10.2318 101.8887 0.0000 -36.0774 0.0000
# 4 0.0000 0.0000 0.0000 8.7512 0.0000 -1.0948
# 5 -7.4335 1.9337 -36.0774 0.0000 46.5905 0.0000
# 6 0.0000 0.0000 0.0000 -1.0948 0.0000 23.0608
#
#
#
# Elastic Compliance Matrix: (Units=1/GPa)
#
#
# Indices 1 2 3 4 5 6 
#
# 1 0.008558 -0.005156 -0.003913 0.000000 -0.001451 0.000000
# 2 -0.005156 0.077231 -0.009399 0.000000 -0.011306 0.000000
# 3 -0.003913 -0.009399 0.017176 0.000000 0.013066 0.000000
# 4 0.000000 0.000000 0.000000 0.114952 0.000000 0.005457
# 5 -0.001451 -0.011306 0.013066 0.000000 0.031819 0.000000
# 6 0.000000 0.000000 0.000000 0.005457 0.000000 0.043623
#
#
# Mechanical properties :
#
#
# Convention : Reuss Voigt Hill
#
# Bulk Modulus (GPa) = 15.14497 45.02190 30.08343
# Shear Modulus (GPa) = 14.19225 28.45912 21.32568
#
# Velocity S-wave (km/s) = 2.61902 3.70872 3.21044
# Velocity P-wave (km/s) = 4.05776 6.33238 5.31810
#
# Compressibility (1/GPa) = 0.06602852
#
# Stress axis : x y z
#
# Youngs Moduli (GPa) = 116.84939 12.94823 58.22024
#
# Poissons Ratio (x) = 0.06676 0.22782
# Poissons Ratio (y) = 0.60250 0.54720
# Poissons Ratio (z) = 0.45724 0.12170
#
# Static dielectric constant tensor:
#      x y z
#    x 1.901990 0.000000 0.021340 
#    y 0.000000 1.776110 0.000000 
#    z 0.021340 0.000000 1.810210 
# 
# From -- ./inp_files/48729.got.cif
#   From: 2010.05.17/outbox.cif.g08.bks.cpg/sg15_25_cif.got.tgz:48729.got - 2010.06.03 18:47:42.
