data_PCOD9300744
_publ_section_title
;
Structure prediction by ZEFSAII (Michael W. Deem and Ramdas Pophale) SiO2 
 PCOD9300744
Probable space group: C 2/C
;
_chemical_formula_sum "Si O2"
_cell_formula_units_Z 56
_cell_length_a 25.949411
_cell_length_b 13.987025
_cell_length_c 14.520190
_cell_angle_alpha 90.000000
_cell_angle_beta 147.207538
_cell_angle_gamma 90.000000
_cell_volume 2854.315007
_symmetry_space_group_name_H-M "C 2/C"
_symmetry_group_IT_number 15
_symmetry_cell_setting 'monoclinic'
loop_
_space_group_symop_operation_xyz
x,y,z
-x,y,1/2-z
-x,-y,-z
x,-y,1/2+z
1/2+x,1/2+y,z
1/2-x,1/2+y,1/2-z
1/2-x,1/2-y,-z
1/2+x,1/2-y,1/2+z
loop_
_atom_site_type_symbol
_atom_site_label
_atom_site_fract_x
_atom_site_fract_y
_atom_site_fract_z
Si Si1 0.359669 0.267609 0.685278
Si Si2 0.144617 0.742922 0.612153
Si Si3 0.604210 0.464919 0.516181
Si Si4 0.000000 0.264644 0.750000
Si Si5 0.851142 0.163290 0.875593
Si Si6 0.890258 0.007980 0.192430
Si Si7 0.500000 0.262723 0.750000
Si Si8 0.656016 0.688393 0.839532
O O1 0.250000 0.250000 0.500000
O O2 0.382402 0.233331 0.821924
O O3 0.373825 0.382872 0.696343
O O4 0.424537 0.216184 0.705816
O O5 0.137237 0.856828 0.579684
O O6 0.073113 0.690598 0.433523
O O7 0.251841 0.708440 0.757720
O O8 0.660475 0.549041 0.650768
O O9 0.494973 0.476369 0.383258
O O10 0.609453 0.494714 0.417174
O O11 0.926181 0.210026 0.708337
O O12 0.878020 0.205249 0.816244
O O13 0.932065 0.182374 0.074163
O O14 0.820066 0.924262 0.118575
O O15 0.750000 0.750000 0.000000
#
# Coordination Sequence:
#
# PCOD9300744 Si02
#       8
#     8   8   8   4   8   8   4   8
#     4  12  23  39  62  93 127 162 201 255 311 366
#     4  12  23  39  62  93 127 162 201 255 311 366
#     4  11  19  37  61  91 121 156 205 260 306 357
#     4  12  22  41  62  89 130 156 208 251 314 357
#     4  12  23  39  62  93 127 162 201 255 311 366
#     4  11  19  37  61  91 121 156 205 260 306 357
#     4  12  22  41  62  89 130 156 208 251 314 357
#     4  12  23  39  62  93 127 162 201 255 311 366
#
# _framework density 19.619419000000001
#
# number of rings (size 3 to 8) (size 9 to 14) (size 15 to 20)
#    0.000    0.286    8.571    1.714    0.000    1.143 
#    0.000    0.000    0.000    3.429    0.000    6.000 
#    0.000    0.000    0.000    0.000    0.000    0.000 
#
# Total GULP energy -156120.050590 kJ/mol
# GULP energy per Si atom -5575.716093 kJ/mol
# Density = 1.957476 g / cm^3
# Si number density = 19.619419 Si / 1000 Ang^3
#
#
#
# Elastic Constant Matrix: (Units=GPa)
#
#
# Indices 1 2 3 4 5 6 
#
# 1 148.2345 10.5224 51.0666 0.0000 -15.8590 0.0000
# 2 10.5224 62.5594 30.6054 0.0000 19.6031 0.0000
# 3 51.0666 30.6054 120.2844 0.0000 -3.3508 0.0000
# 4 0.0000 0.0000 0.0000 26.9813 0.0000 5.4710
# 5 -15.8590 19.6031 -3.3508 0.0000 50.7640 0.0000
# 6 0.0000 0.0000 0.0000 5.4710 0.0000 22.7840
#
#
#
# Elastic Compliance Matrix: (Units=1/GPa)
#
#
# Indices 1 2 3 4 5 6 
#
# 1 0.008183 -0.000591 -0.003252 0.000000 0.002570 0.000000
# 2 -0.000591 0.021541 -0.005477 0.000000 -0.008865 0.000000
# 3 -0.003252 -0.005477 0.011139 0.000000 0.001834 0.000000
# 4 0.000000 0.000000 0.000000 0.038960 0.000000 -0.009355
# 5 0.002570 -0.008865 0.001834 0.000000 0.024046 0.000000
# 6 0.000000 0.000000 0.000000 -0.009355 0.000000 0.046137
#
#
# Mechanical properties :
#
#
# Convention : Reuss Voigt Hill
#
# Bulk Modulus (GPa) = 44.99731 57.27413 51.13572
# Shear Modulus (GPa) = 28.40022 36.03146 32.21584
#
# Velocity S-wave (km/s) = 3.80880 4.29011 4.05660
# Velocity P-wave (km/s) = 6.50596 7.33458 6.93266
#
# Compressibility (1/GPa) = 0.02222355
#
# Stress axis : x y z
#
# Youngs Moduli (GPa) = 122.19897 46.42205 89.77327
#
# Poissons Ratio (x) = 0.02742 0.29198
# Poissons Ratio (y) = 0.07217 0.49171
# Poissons Ratio (z) = 0.39744 0.25427
#
# Static dielectric constant tensor:
#      x y z
#    x 1.754510 0.000000 -0.038200 
#    y 0.000000 1.685080 0.000000 
#    z -0.038200 0.000000 1.717160 
# 
# From -- ./inp_files/178455.got.cif
#   From: 2010.05.17/outbox.cif.g08.bks.cpg/sg15_90_cif.got.tgz:178455.got - 2010.06.03 18:47:42.
