data_PCOD9300015
_publ_section_title
;
Structure prediction by ZEFSAII (Michael W. Deem and Ramdas Pophale) SiO2 
 PCOD9300015
Probable space group: C 2/C
;
_chemical_formula_sum "Si O2"
_cell_formula_units_Z 60
_cell_length_a 16.717043
_cell_length_b 5.520762
_cell_length_c 29.826192
_cell_angle_alpha 90.000000
_cell_angle_beta 83.307879
_cell_angle_gamma 90.000000
_cell_volume 2733.928687
_symmetry_space_group_name_H-M "C 2/C"
_symmetry_group_IT_number 15
_symmetry_cell_setting 'monoclinic'
loop_
_space_group_symop_operation_xyz
x,y,z
-x,y,1/2-z
-x,-y,-z
x,-y,1/2+z
1/2+x,1/2+y,z
1/2-x,1/2+y,1/2-z
1/2-x,1/2-y,-z
1/2+x,1/2-y,1/2+z
loop_
_atom_site_type_symbol
_atom_site_label
_atom_site_fract_x
_atom_site_fract_y
_atom_site_fract_z
Si Si1 0.000000 0.533765 0.750000
Si Si2 0.418699 0.271152 0.178371
Si Si3 0.178384 0.171783 0.624818
Si Si4 0.775878 0.826956 0.125525
Si Si5 0.903939 0.944306 0.556072
Si Si6 0.574718 0.277734 0.041567
Si Si7 0.494340 0.921753 0.100446
Si Si8 0.051823 0.125083 0.174497
O O1 0.944086 0.378544 0.720370
O O2 0.941566 0.699265 0.784238
O O3 0.328285 0.302311 0.167616
O O4 0.460661 0.528866 0.181923
O O5 0.464371 0.139869 0.133723
O O6 0.220758 0.430112 0.630750
O O7 0.133455 0.183068 0.579692
O O8 0.233604 0.931579 0.621417
O O9 0.111305 0.101023 0.666644
O O10 0.837200 0.879309 0.080312
O O11 0.885821 0.837081 0.508431
O O12 0.916902 0.728898 0.590665
O O13 0.992781 0.064156 0.549233
O O14 0.540215 0.008706 0.052894
O O15 0.554652 0.771653 0.127845
#
# Coordination Sequence:
#
# PCOD9300015 Si02
#       8
#     4   8   8   8   8   8   8   8
#     4  10  26  40  86 102 130 160 246 304 342 406
#     4  11  22  44  74 103 130 178 238 286 350 422
#     4  12  26  44  71 102 148 193 224 279 359 430
#     4  12  26  44  71 102 148 193 224 279 359 430
#     4  11  23  40  66 100 137 189 251 298 331 395
#     4  11  23  40  66 100 137 189 251 298 331 395
#     4  11  17  39  71  98 134 178 237 303 333 395
#     4  11  22  44  74 103 130 178 238 286 350 422
#
# _framework density 21.946439999999999
#
# number of rings (size 3 to 8) (size 9 to 14) (size 15 to 20)
#    0.000    0.800    5.333    2.400    3.733    1.067 
#    0.000    0.000    5.867    0.000    0.000    0.000 
#    0.000    0.000    0.000    0.000    0.000    0.000 
#
# Total GULP energy -167589.588339 kJ/mol
# GULP energy per Si atom -5586.319611 kJ/mol
# Density = 2.189649 g / cm^3
# Si number density = 21.946440 Si / 1000 Ang^3
#
#
#
# Elastic Constant Matrix: (Units=GPa)
#
#
# Indices 1 2 3 4 5 6 
#
# 1 95.7849 40.5531 24.3521 0.0000 21.4844 0.0000
# 2 40.5531 90.1356 17.1823 0.0000 9.1571 0.0000
# 3 24.3521 17.1823 96.6404 0.0000 15.6584 0.0000
# 4 0.0000 0.0000 0.0000 32.5072 0.0000 -2.5456
# 5 21.4844 9.1571 15.6584 0.0000 16.4069 0.0000
# 6 0.0000 0.0000 0.0000 -2.5456 0.0000 48.9208
#
#
#
# Elastic Compliance Matrix: (Units=1/GPa)
#
#
# Indices 1 2 3 4 5 6 
#
# 1 0.017228 -0.005766 -0.000216 0.000000 -0.019136 0.000000
# 2 -0.005766 0.013813 -0.001156 0.000000 0.000944 0.000000
# 3 -0.000216 -0.001156 0.012370 0.000000 -0.010878 0.000000
# 4 0.000000 0.000000 0.000000 0.030888 0.000000 0.001607
# 5 -0.019136 0.000944 -0.010878 0.000000 0.095863 0.000000
# 6 0.000000 0.000000 0.000000 0.001607 0.000000 0.020525
#
#
# Mechanical properties :
#
#
# Convention : Reuss Voigt Hill
#
# Bulk Modulus (GPa) = 34.32148 49.63731 41.97939
# Shear Modulus (GPa) = 23.29106 32.93188 28.11147
#
# Velocity S-wave (km/s) = 3.26125 3.87790 3.58287
# Velocity P-wave (km/s) = 5.46385 6.53586 6.02375
#
# Compressibility (1/GPa) = 0.02913627
#
# Stress axis : x y z
#
# Youngs Moduli (GPa) = 58.04407 72.39538 80.84039
#
# Poissons Ratio (x) = 0.41744 0.01742
# Poissons Ratio (y) = 0.33469 0.09345
# Poissons Ratio (z) = 0.01251 0.08369
#
# Static dielectric constant tensor:
#      x y z
#    x 1.836840 0.000000 -0.016500 
#    y 0.000000 1.876690 0.000000 
#    z -0.016500 0.000000 1.798480 
# 
# From -- ./inp_files/314887.got.cif
#   From: 2010.05.17/outbox.cif.g08.bks.cpg/sg15_158_cif.got.tgz:314887.got - 2010.06.03 18:47:42.
