data_PCOD9300099
_publ_section_title
;
Structure prediction by ZEFSAII (Michael W. Deem and Ramdas Pophale) SiO2 
 PCOD9300099
Probable space group: C 2/C
;
_chemical_formula_sum "Si O2"
_cell_formula_units_Z 36
_cell_length_a 14.566918
_cell_length_b 17.873819
_cell_length_c 8.892235
_cell_angle_alpha 90.000000
_cell_angle_beta 136.425853
_cell_angle_gamma 90.000000
_cell_volume 1595.877861
_symmetry_space_group_name_H-M "C 2/C"
_symmetry_group_IT_number 15
_symmetry_cell_setting 'monoclinic'
loop_
_space_group_symop_operation_xyz
x,y,z
-x,y,1/2-z
-x,-y,-z
x,-y,1/2+z
1/2+x,1/2+y,z
1/2-x,1/2+y,1/2-z
1/2-x,1/2-y,-z
1/2+x,1/2-y,1/2+z
loop_
_atom_site_type_symbol
_atom_site_label
_atom_site_fract_x
_atom_site_fract_y
_atom_site_fract_z
Si Si1 0.687191 0.546935 0.226229
Si Si2 0.921645 0.561910 0.999824
Si Si3 0.500000 0.511203 0.750000
Si Si4 0.260001 0.795029 0.855707
Si Si5 0.493701 0.772520 0.562244
O O1 0.772879 0.470481 0.331644
O O2 0.573172 0.539242 0.214419
O O3 0.781255 0.615641 0.385921
O O4 0.614983 0.554748 0.978771
O O5 0.932600 0.645619 0.949633
O O6 0.000000 0.565231 0.250000
O O7 0.000000 0.500000 0.000000
O O8 0.369483 0.764212 0.868075
O O9 0.112592 0.787764 0.614586
O O10 0.250000 0.750000 0.000000
O O11 0.500000 0.768945 0.750000
#
# Coordination Sequence:
#
# PCOD9300099 Si02
#       5
#     8   8   4   8   8
#     4  11  25  45  73 104 147 191 242 300 365 440
#     4  11  23  42  74 103 137 181 247 298 354 421
#     4  10  26  44  70 106 142 194 240 300 366 434
#     4  12  28  45  73 109 153 193 239 306 377 440
#     4  11  27  48  73 106 143 198 246 305 366 446
#
# _framework density 22.558116999999999
#
# number of rings (size 3 to 8) (size 9 to 14) (size 15 to 20)
#    0.000    0.889    2.222    2.667   14.000    1.778 
#    0.000    0.000    0.000    0.000    0.000    0.000 
#    0.000    0.000    0.000    0.000    0.000    0.000 
#
# Total GULP energy -100580.116663 kJ/mol
# GULP energy per Si atom -5587.784259 kJ/mol
# Density = 2.250677 g / cm^3
# Si number density = 22.558117 Si / 1000 Ang^3
#
#
#
# Elastic Constant Matrix: (Units=GPa)
#
#
# Indices 1 2 3 4 5 6 
#
# 1 145.7296 -6.0471 22.7072 0.0000 -4.9866 0.0000
# 2 -6.0471 49.6297 6.5045 0.0000 -17.3887 0.0000
# 3 22.7072 6.5045 92.1355 0.0000 -14.3492 0.0000
# 4 0.0000 0.0000 0.0000 17.6877 0.0000 -10.5228
# 5 -4.9866 -17.3887 -14.3492 0.0000 38.4004 0.0000
# 6 0.0000 0.0000 0.0000 -10.5228 0.0000 2.9945
#
#
#
# Elastic Compliance Matrix: (Units=1/GPa)
#
#
# Indices 1 2 3 4 5 6 
#
# 1 0.007224 0.001437 -0.001735 0.000000 0.000940 0.000000
# 2 0.001437 0.024235 -0.000347 0.000000 0.011031 0.000000
# 3 -0.001735 -0.000347 0.011941 0.000000 0.004080 0.000000
# 4 0.000000 0.000000 0.000000 -0.051841 0.000000 -0.182170
# 5 0.000940 0.011031 0.004080 0.000000 0.032683 0.000000
# 6 0.000000 0.000000 0.000000 -0.182170 0.000000 -0.306207
#
#
# Mechanical properties :
#
#
# Convention : Reuss Voigt Hill
#
# Bulk Modulus (GPa) = 23.74769 37.09155 30.41962
# Shear Modulus (GPa) = -18.75207 29.43855 5.34324
#
# Velocity S-wave (km/s) = -2.88632 3.61641 1.54071
# Velocity P-wave (km/s) = 0.74671 5.82377 4.08403
#
# Compressibility (1/GPa) = 0.04210936
#
# Stress axis : x y z
#
# Youngs Moduli (GPa) = 138.42262 41.26303 83.74408
#
# Poissons Ratio (x) = -0.05930 0.14533
# Poissons Ratio (y) = -0.19894 0.02907
# Poissons Ratio (z) = 0.24022 0.01432
#
# Static dielectric constant tensor:
#      x y z
#    x 1.848450 0.000000 -0.048170 
#    y 0.000000 1.872190 0.000000 
#    z -0.048170 0.000000 1.895660 
# 
# From -- ./inp_files/41317.got.cif
#   From: 2010.05.17/outbox.cif.g08.bks.cpg/sg15_21_cif.got.tgz:41317.got - 2010.06.03 18:47:42.
