data_PCOD9300010
_publ_section_title
;
Structure prediction by ZEFSAII (Michael W. Deem and Ramdas Pophale) SiO2 
 PCOD9300010
Probable space group: C 2/C
;
_chemical_formula_sum "Si O2"
_cell_formula_units_Z 44
_cell_length_a 23.710080
_cell_length_b 4.881562
_cell_length_c 16.641336
_cell_angle_alpha 90.000000
_cell_angle_beta 111.347853
_cell_angle_gamma 90.000000
_cell_volume 1793.950402
_symmetry_space_group_name_H-M "C 2/C"
_symmetry_group_IT_number 15
_symmetry_cell_setting 'monoclinic'
loop_
_space_group_symop_operation_xyz
x,y,z
-x,y,1/2-z
-x,-y,-z
x,-y,1/2+z
1/2+x,1/2+y,z
1/2-x,1/2+y,1/2-z
1/2-x,1/2-y,-z
1/2+x,1/2-y,1/2+z
loop_
_atom_site_type_symbol
_atom_site_label
_atom_site_fract_x
_atom_site_fract_y
_atom_site_fract_z
Si Si1 0.653856 0.955627 0.688998
Si Si2 0.754720 0.231286 0.634331
Si Si3 0.019481 0.515652 0.171258
Si Si4 0.250000 0.750000 0.000000
Si Si5 0.469420 0.477181 0.569458
Si Si6 0.656452 0.619405 0.530742
O O1 0.689902 0.830962 0.782895
O O2 0.588308 0.055989 0.683101
O O3 0.643762 0.736704 0.611811
O O4 0.699954 0.165419 0.668943
O O5 0.724687 0.478289 0.564847
O O6 0.769339 0.972657 0.587834
O O7 0.000000 0.443900 0.250000
O O8 0.974823 0.341015 0.092668
O O9 0.006505 0.834203 0.149036
O O10 0.323290 0.843209 0.022880
O O11 0.500000 0.500000 0.500000
O O12 0.399331 0.555773 0.526336
#
# Coordination Sequence:
#
# PCOD9300010 Si02
#       6
#     8   8   8   4   8   8
#     4  11  24  43  72 101 147 188 247 295 372 445
#     4  11  23  45  68 108 138 197 238 313 368 443
#     4  12  29  49  74 112 149 199 246 315 377 447
#     4  10  26  40  70 104 142 184 242 306 370 432
#     4  12  26  49  77 104 145 199 251 305 371 456
#     4  11  24  44  69 103 140 187 244 297 371 438
#
# _framework density 24.526876999999999
#
# number of rings (size 3 to 8) (size 9 to 14) (size 15 to 20)
#    0.000    0.727    3.636    2.727    7.636    1.455 
#    0.000    0.000    0.000    0.000    0.000    0.000 
#    0.000    0.000    0.000    0.000    0.000    0.000 
#
# Total GULP energy -122740.303938 kJ/mol
# GULP energy per Si atom -5579.104724 kJ/mol
# Density = 2.447105 g / cm^3
# Si number density = 24.526877 Si / 1000 Ang^3
#
#
#
# Elastic Constant Matrix: (Units=GPa)
#
#
# Indices 1 2 3 4 5 6 
#
# 1 148.6717 29.2745 81.3201 0.0000 -11.3058 0.0000
# 2 29.2745 78.9342 24.2912 0.0003 2.7052 -0.0002
# 3 81.3201 24.2912 84.1056 0.0000 -13.0905 0.0000
# 4 0.0000 0.0003 0.0000 31.8929 0.0000 -1.2781
# 5 -11.3058 2.7052 -13.0905 0.0000 45.1415 0.0000
# 6 0.0000 -0.0002 0.0000 -1.2781 0.0000 36.3790
#
#
#
# Elastic Compliance Matrix: (Units=1/GPa)
#
#
# Indices 1 2 3 4 5 6 
#
# 1 0.014375 -0.001132 -0.013616 0.000000 -0.000280 0.000000
# 2 -0.001132 0.014185 -0.003329 0.000000 -0.002099 0.000000
# 3 -0.013616 -0.003329 0.026723 0.000000 0.004539 0.000000
# 4 0.000000 0.000000 0.000000 0.031399 0.000000 0.001103
# 5 -0.000280 -0.002099 0.004539 0.000000 0.023524 0.000000
# 6 0.000000 0.000000 0.000000 0.001103 0.000000 0.027527
#
#
# Mechanical properties :
#
#
# Convention : Reuss Voigt Hill
#
# Bulk Modulus (GPa) = 52.27643 64.60923 58.44283
# Shear Modulus (GPa) = 27.73693 34.47105 31.10399
#
# Velocity S-wave (km/s) = 3.36650 3.75299 3.56499
# Velocity P-wave (km/s) = 6.03915 6.72155 6.38947
#
# Compressibility (1/GPa) = 0.01912908
#
# Stress axis : x y z
#
# Youngs Moduli (GPa) = 69.56289 70.49700 37.42084
#
# Poissons Ratio (x) = 0.07978 0.50953
# Poissons Ratio (y) = 0.07872 0.12459
# Poissons Ratio (z) = 0.94718 0.23472
#
# Static dielectric constant tensor:
#      x y z
#    x 1.953040 0.000000 -0.014580 
#    y 0.000000 2.127810 0.000000 
#    z -0.014580 0.000000 2.014410 
# 
# From -- ./inp_files/217848.got.cif
#   From: 2010.05.17/outbox.cif.g08.bks.cpg/sg15_109_cif.got.tgz:217848.got - 2010.06.03 18:47:42.
