data_PCOD9300017
_publ_section_title
;
Structure prediction by ZEFSAII (Michael W. Deem and Ramdas Pophale) SiO2 
 PCOD9300017
Probable space group: C 2/C
;
_chemical_formula_sum "Si O2"
_cell_formula_units_Z 56
_cell_length_a 9.705659
_cell_length_b 15.548098
_cell_length_c 22.108546
_cell_angle_alpha 90.000000
_cell_angle_beta 58.850962
_cell_angle_gamma 90.000000
_cell_volume 2855.270692
_symmetry_space_group_name_H-M "C 2/C"
_symmetry_group_IT_number 15
_symmetry_cell_setting 'monoclinic'
loop_
_space_group_symop_operation_xyz
x,y,z
-x,y,1/2-z
-x,-y,-z
x,-y,1/2+z
1/2+x,1/2+y,z
1/2-x,1/2+y,1/2-z
1/2-x,1/2-y,-z
1/2+x,1/2-y,1/2+z
loop_
_atom_site_type_symbol
_atom_site_label
_atom_site_fract_x
_atom_site_fract_y
_atom_site_fract_z
Si Si1 0.390897 0.456776 0.832717
Si Si2 0.122381 0.117882 0.377443
Si Si3 0.818959 0.234280 0.766173
Si Si4 0.426897 0.235493 0.988212
Si Si5 0.852862 0.691246 0.140311
Si Si6 0.882395 0.411091 0.123377
Si Si7 0.446950 0.952077 0.832686
O O1 0.500000 0.483199 0.750000
O O2 0.501763 0.438594 0.864996
O O3 0.304113 0.366790 0.836021
O O4 0.245679 0.523390 0.877707
O O5 0.223821 0.180399 0.309340
O O6 0.255982 0.059396 0.378463
O O7 0.031980 0.183135 0.442695
O O8 0.817295 0.232321 0.694433
O O9 0.726376 0.154725 0.814691
O O10 0.000000 0.236493 0.750000
O O11 0.507957 0.147830 0.944501
O O12 0.250000 0.250000 0.000000
O O13 0.416745 0.224548 0.062309
O O14 0.974272 0.629520 0.150304
O O15 0.989358 0.466357 0.145119
O O16 0.500000 0.955455 0.750000
#
# Coordination Sequence:
#
# PCOD9300017 Si02
#       7
#     8   8   8   8   8   8   8
#     4  11  20  38  68  99 122 173 209 265 332 386
#     4  11  20  40  70  90 130 165 222 259 320 395
#     4  11  20  41  68 100 124 166 218 277 317 384
#     4  11  25  44  63  98 126 180 223 262 317 399
#     4  11  21  39  70  89 138 169 216 260 335 381
#     4  10  26  41  67  94 134 163 221 273 321 383
#     4  11  21  42  66  99 125 169 214 276 331 387
#
# _framework density 19.612850999999999
#
# number of rings (size 3 to 8) (size 9 to 14) (size 15 to 20)
#    0.000    1.143    5.714    1.286    0.000    4.000 
#    0.000    0.714    3.143    0.000    0.000    0.000 
#    0.000    0.000    0.000    0.000    0.000    0.000 
#
# Total GULP energy -156449.392417 kJ/mol
# GULP energy per Si atom -5587.478301 kJ/mol
# Density = 1.956821 g / cm^3
# Si number density = 19.612851 Si / 1000 Ang^3
#
#
#
# Elastic Constant Matrix: (Units=GPa)
#
#
# Indices 1 2 3 4 5 6 
#
# 1 138.9770 39.7672 38.3902 0.0000 -11.7074 0.0000
# 2 39.7672 65.4597 31.9010 0.0000 -4.3214 0.0000
# 3 38.3902 31.9010 128.4346 0.0000 5.0519 0.0000
# 4 0.0000 0.0000 0.0000 18.5801 0.0000 -5.3468
# 5 -11.7074 -4.3214 5.0519 0.0000 29.9230 0.0000
# 6 0.0000 0.0000 0.0000 -5.3468 0.0000 21.6178
#
#
#
# Elastic Compliance Matrix: (Units=1/GPa)
#
#
# Indices 1 2 3 4 5 6 
#
# 1 0.009260 -0.004549 -0.001766 0.000000 0.003264 0.000000
# 2 -0.004549 0.019937 -0.003660 0.000000 0.001717 0.000000
# 3 -0.001766 -0.003660 0.009333 0.000000 -0.002795 0.000000
# 4 0.000000 0.000000 0.000000 0.057945 0.000000 0.014332
# 5 0.003264 0.001717 -0.002795 0.000000 0.035416 0.000000
# 6 0.000000 0.000000 0.000000 0.014332 0.000000 0.049803
#
#
# Mechanical properties :
#
#
# Convention : Reuss Voigt Hill
#
# Bulk Modulus (GPa) = 53.82283 61.44314 57.63298
# Shear Modulus (GPa) = 24.05710 28.87836 26.46773
#
# Velocity S-wave (km/s) = 3.50608 3.84138 3.67755
# Velocity P-wave (km/s) = 6.62513 7.14639 6.89069
#
# Compressibility (1/GPa) = 0.01857948
#
# Stress axis : x y z
#
# Youngs Moduli (GPa) = 107.99044 50.15750 107.14632
#
# Poissons Ratio (x) = 0.22818 0.18926
# Poissons Ratio (y) = 0.49128 0.39213
# Poissons Ratio (z) = 0.19075 0.18357
#
# Static dielectric constant tensor:
#      x y z
#    x 1.686080 0.000000 -0.018650 
#    y 0.000000 1.692440 0.000000 
#    z -0.018650 0.000000 1.686890 
# 
# From -- ./inp_files/232592.got.cif
#   From: 2010.05.17/outbox.cif.g08.bks.cpg/sg15_117_cif.got.tgz:232592.got - 2010.06.03 18:47:42.
