data_PCOD9300576
_publ_section_title
;
Structure prediction by ZEFSAII (Michael W. Deem and Ramdas Pophale) SiO2 
 PCOD9300576
Probable space group: C 2/C
;
_chemical_formula_sum "Si O2"
_cell_formula_units_Z 64
_cell_length_a 9.506079
_cell_length_b 31.886894
_cell_length_c 19.417696
_cell_angle_alpha 90.000000
_cell_angle_beta 145.221258
_cell_angle_gamma 90.000000
_cell_volume 3357.357592
_symmetry_space_group_name_H-M "C 2/C"
_symmetry_group_IT_number 15
_symmetry_cell_setting 'monoclinic'
loop_
_space_group_symop_operation_xyz
x,y,z
-x,y,1/2-z
-x,-y,-z
x,-y,1/2+z
1/2+x,1/2+y,z
1/2-x,1/2+y,1/2-z
1/2-x,1/2-y,-z
1/2+x,1/2-y,1/2+z
loop_
_atom_site_type_symbol
_atom_site_label
_atom_site_fract_x
_atom_site_fract_y
_atom_site_fract_z
Si Si1 0.109817 0.193413 0.010417
Si Si2 0.440248 0.728813 0.651162
Si Si3 0.481737 0.118799 0.165807
Si Si4 0.375314 0.520527 0.346289
Si Si5 0.249517 0.318372 0.490638
Si Si6 0.490932 0.609990 0.164086
Si Si7 0.830949 0.529981 0.080692
Si Si8 0.058689 0.748389 0.693086
O O1 0.203852 0.240772 0.063003
O O2 0.314043 0.158872 0.104227
O O3 0.893192 0.181297 0.975278
O O4 0.069303 0.194638 0.912351
O O5 0.500000 0.712204 0.750000
O O6 0.660700 0.758594 0.712203
O O7 0.500000 0.100956 0.250000
O O8 0.374287 0.079262 0.080889
O O9 0.750931 0.132231 0.250511
O O10 0.479414 0.564401 0.358378
O O11 0.283812 0.525282 0.388556
O O12 0.616289 0.490076 0.446286
O O13 0.114915 0.511536 0.200097
O O14 0.277344 0.362077 0.542500
O O15 0.386291 0.284332 0.593502
O O16 0.996294 0.295713 0.367813
O O17 0.500000 0.606824 0.250000
O O18 0.000000 0.744313 0.750000
#
# Coordination Sequence:
#
# PCOD9300576 Si02
#       8
#     8   8   8   8   8   8   8   8
#     4  11  21  34  59  79 102 146 194 229 277 335
#     4  11  22  36  52  76 107 142 184 232 283 335
#     4  11  18  35  59  81 107 143 191 238 272 331
#     4   9  17  33  56  85 117 147 186 234 283 341
#     4  11  21  35  56  79 105 147 191 232 278 337
#     4  11  22  36  56  86 115 143 185 242 285 325
#     4   9  16  32  59  86 112 147 189 234 280 338
#     4  11  22  35  51  75 111 143 180 233 286 330
#
# _framework density 19.062611
#
# number of rings (size 3 to 8) (size 9 to 14) (size 15 to 20)
#    0.000    1.500    6.250    1.500    0.000    1.000 
#    0.000    3.750    2.750    0.750    0.000    0.000 
#    0.000    0.000    0.000    0.000    0.000    0.000 
#
# Total GULP energy -178141.505776 kJ/mol
# GULP energy per Si atom -5566.922055 kJ/mol
# Density = 1.901922 g / cm^3
# Si number density = 19.062611 Si / 1000 Ang^3
#
#
#
# Elastic Constant Matrix: (Units=GPa)
#
#
# Indices 1 2 3 4 5 6 
#
# 1 54.0978 7.4280 17.6457 0.0000 -13.3938 0.0000
# 2 7.4280 64.6618 31.7943 0.0000 -2.1800 0.0000
# 3 17.6457 31.7943 55.0663 0.0000 -3.0121 0.0000
# 4 0.0000 0.0000 0.0000 12.2320 0.0000 13.5774
# 5 -13.3938 -2.1800 -3.0121 0.0000 28.8199 0.0000
# 6 0.0000 0.0000 0.0000 13.5774 0.0000 15.0586
#
#
#
# Elastic Compliance Matrix: (Units=1/GPa)
#
#
# Indices 1 2 3 4 5 6 
#
# 1 0.023329 0.001487 -0.007780 0.000001 0.010141 -0.000001
# 2 0.001487 0.021694 -0.012949 0.000017 0.000979 -0.000015
# 3 -0.007780 -0.012949 0.028038 -0.000037 -0.001665 0.000033
# 4 0.000001 0.000017 -0.000037********** -0.000021 90.616206
# 5 0.010141 0.000979 -0.001665 -0.000021 0.039311 0.000019
# 6 -0.000001 -0.000015 0.000033 90.616206 0.000019-81.636699
#
#
# Mechanical properties :
#
#
# Convention : Reuss Voigt Hill
#
# Bulk Modulus (GPa) = 28.91921 31.95133 30.43527
# Shear Modulus (GPa) = -0.02748 19.01930 9.49591
#
# Velocity S-wave (km/s) = -0.12019 3.16211 2.23433
# Velocity P-wave (km/s) = 3.89671 5.48904 4.75993
#
# Compressibility (1/GPa) = 0.03457909
#
# Stress axis : x y z
#
# Youngs Moduli (GPa) = 42.86460 46.09516 35.66545
#
# Poissons Ratio (x) = -0.06856 0.27747
# Poissons Ratio (y) = -0.06375 0.46183
# Poissons Ratio (z) = 0.33347 0.59688
#
# Static dielectric constant tensor:
#      x y z
#    x 1.765170 0.000000 -0.015090 
#    y 0.000000 1.664200 0.000000 
#    z -0.015090 0.000000 1.781070 
# 
# From -- ./inp_files/194294.got.cif
#   From: 2010.05.17/outbox.cif.g08.bks.cpg/sg15_98_cif.got.tgz:194294.got - 2010.06.03 18:47:42.
