data_PCOD9300876
_publ_section_title
;
Structure prediction by ZEFSAII (Michael W. Deem and Ramdas Pophale) SiO2 
 PCOD9300876
Probable space group: C 2/C
;
_chemical_formula_sum "Si O2"
_cell_formula_units_Z 44
_cell_length_a 26.868859
_cell_length_b 16.547378
_cell_length_c 16.677303
_cell_angle_alpha 90.000000
_cell_angle_beta 17.251986
_cell_angle_gamma 90.000000
_cell_volume 2199.066177
_symmetry_space_group_name_H-M "C 2/C"
_symmetry_group_IT_number 15
_symmetry_cell_setting 'monoclinic'
loop_
_space_group_symop_operation_xyz
x,y,z
-x,y,1/2-z
-x,-y,-z
x,-y,1/2+z
1/2+x,1/2+y,z
1/2-x,1/2+y,1/2-z
1/2-x,1/2-y,-z
1/2+x,1/2-y,1/2+z
loop_
_atom_site_type_symbol
_atom_site_label
_atom_site_fract_x
_atom_site_fract_y
_atom_site_fract_z
Si Si1 0.500000 0.512994 0.750000
Si Si2 0.585455 0.156393 0.879701
Si Si3 0.706186 0.554737 0.055528
Si Si4 0.704962 0.819128 0.941842
Si Si5 0.695942 0.902700 0.794623
Si Si6 0.476995 0.057252 0.191868
O O1 0.472130 0.461812 0.711071
O O2 0.660504 0.567783 0.485529
O O3 0.688457 0.081477 0.684602
O O4 0.706184 0.232905 0.688000
O O5 0.426366 0.158113 0.065082
O O6 0.526419 0.131207 0.058758
O O7 0.735994 0.624661 0.074990
O O8 0.788460 0.474304 0.965349
O O9 0.764981 0.859840 0.767281
O O10 0.500000 0.815090 0.250000
O O11 0.589433 0.979557 0.991803
O O12 0.500000 0.072770 0.250000
#
# Coordination Sequence:
#
# PCOD9300876 Si02
#       6
#     4   8   8   8   8   8
#     4  12  24  38  70  94 132 178 226 276 320 402
#     4  11  23  39  65  99 138 171 214 282 344 389
#     4  11  21  40  68  97 128 169 227 276 330 390
#     4  12  24  41  69 101 133 172 224 282 338 396
#     4  11  22  43  63  95 135 177 223 276 329 394
#     4  11  19  43  70  93 129 174 224 279 333 392
#
# _framework density 20.008493000000001
#
# number of rings (size 3 to 8) (size 9 to 14) (size 15 to 20)
#    0.000    0.727    9.091    1.636    1.273    0.727 
#    1.636    0.909    0.000    0.000    0.000    0.000 
#    0.000    0.000    0.000    0.000    0.000    0.000 
#
# Total GULP energy -122759.170836 kJ/mol
# GULP energy per Si atom -5579.962311 kJ/mol
# Density = 1.996295 g / cm^3
# Si number density = 20.008493 Si / 1000 Ang^3
#
#
#
# Elastic Constant Matrix: (Units=GPa)
#
#
# Indices 1 2 3 4 5 6 
#
# 1 158.8350 51.5739 29.5276 -0.0005 2.8418 0.0002
# 2 51.5739 58.8284 26.4802 -0.0003 -3.4927 -0.0001
# 3 29.5276 26.4802 31.8628 -0.0009 -5.3038 0.0002
# 4 -0.0005 -0.0003 -0.0009 19.7696 0.0002 4.4368
# 5 2.8418 -3.4927 -5.3038 0.0002 36.0880 -0.0002
# 6 0.0002 -0.0001 0.0002 4.4368 -0.0002 23.4284
#
#
#
# Elastic Compliance Matrix: (Units=1/GPa)
#
#
# Indices 1 2 3 4 5 6 
#
# 1 0.009075 -0.006617 -0.003214 0.000000 -0.001827 0.000000
# 2 -0.006617 0.032001 -0.020358 -0.000001 0.000626 0.000001
# 3 -0.003214 -0.020358 0.052276 0.000002 0.005966 -0.000001
# 4 0.000000 -0.000001 0.000002 0.052828 0.000000 -0.010004
# 5 -0.001827 0.000626 0.005966 0.000000 0.028791 0.000000
# 6 0.000000 0.000001 -0.000001 -0.010004 0.000000 0.044578
#
#
# Mechanical properties :
#
#
# Convention : Reuss Voigt Hill
#
# Bulk Modulus (GPa) = 30.32966 51.63217 40.98091
# Shear Modulus (GPa) = 17.18691 25.32016 21.25354
#
# Velocity S-wave (km/s) = 2.93402 3.56120 3.26272
# Velocity P-wave (km/s) = 5.16423 6.53993 5.89237
#
# Compressibility (1/GPa) = 0.03297103
#
# Stress axis : x y z
#
# Youngs Moduli (GPa) = 110.19596 31.24911 19.12937
#
# Poissons Ratio (x) = 0.20678 0.06149
# Poissons Ratio (y) = 0.72920 0.38944
# Poissons Ratio (z) = 0.35422 0.63618
#
# Static dielectric constant tensor:
#      x y z
#    x 1.754140 0.000000 -0.063670 
#    y 0.000000 1.701390 0.000000 
#    z -0.063670 0.000000 1.768810 
# 
# From -- ./inp_files/123390.got.cif
#   From: 2010.05.17/outbox.cif.g08.bks.cpg/sg15_62_cif.got.tgz:123390.got - 2010.06.03 18:47:42.
