data_PCOD9300669
_publ_section_title
;
Structure prediction by ZEFSAII (Michael W. Deem and Ramdas Pophale) SiO2 
 PCOD9300669
Probable space group: C 2/C
;
_chemical_formula_sum "Si O2"
_cell_formula_units_Z 36
_cell_length_a 17.171987
_cell_length_b 16.204157
_cell_length_c 8.962423
_cell_angle_alpha 90.000000
_cell_angle_beta 47.543269
_cell_angle_gamma 90.000000
_cell_volume 1839.939825
_symmetry_space_group_name_H-M "C 2/C"
_symmetry_group_IT_number 15
_symmetry_cell_setting 'monoclinic'
loop_
_space_group_symop_operation_xyz
x,y,z
-x,y,1/2-z
-x,-y,-z
x,-y,1/2+z
1/2+x,1/2+y,z
1/2-x,1/2+y,1/2-z
1/2-x,1/2-y,-z
1/2+x,1/2-y,1/2+z
loop_
_atom_site_type_symbol
_atom_site_label
_atom_site_fract_x
_atom_site_fract_y
_atom_site_fract_z
Si Si1 0.567177 0.176609 0.395931
Si Si2 0.500000 0.699330 0.250000
Si Si3 0.845074 0.354643 0.018626
Si Si4 0.624493 0.044982 0.552820
Si Si5 0.774072 0.162661 0.544483
O O1 0.537756 0.241987 0.563924
O O2 0.453744 0.154207 0.471852
O O3 0.623020 0.098756 0.403581
O O4 0.637500 0.193992 0.158374
O O5 0.396247 0.646075 0.351014
O O6 0.751316 0.327773 0.248051
O O7 0.834000 0.452408 0.007054
O O8 0.500000 0.040880 0.750000
O O9 0.693949 0.096071 0.580447
O O10 0.750000 0.250000 0.500000
#
# Coordination Sequence:
#
# PCOD9300669 Si02
#       5
#     8   4   8   8   8
#     4  11  19  34  59  92 125 145 189 259 306 356
#     4  12  24  42  58  86 126 170 202 230 300 376
#     4  11  22  33  63  98 120 145 199 260 311 342
#     4  12  19  37  63  94 123 149 198 256 312 348
#     4  12  23  41  61  87 126 167 195 243 302 366
#
# _framework density 19.565857000000001
#
# number of rings (size 3 to 8) (size 9 to 14) (size 15 to 20)
#    0.000    0.444   10.000    2.000    0.000    0.889 
#    0.000    1.111    0.000    0.000    0.000    0.000 
#    0.000    0.000    0.000    0.000    0.000    0.000 
#
# Total GULP energy -100468.933840 kJ/mol
# GULP energy per Si atom -5581.607436 kJ/mol
# Density = 1.952132 g / cm^3
# Si number density = 19.565857 Si / 1000 Ang^3
#
#
#
# Elastic Constant Matrix: (Units=GPa)
#
#
# Indices 1 2 3 4 5 6 
#
# 1 67.1224 18.0622 55.5715 0.0000 -0.1547 0.0000
# 2 18.0622 61.8512 45.2561 0.0000 2.0006 0.0000
# 3 55.5715 45.2561 165.2360 0.0000 3.0935 0.0000
# 4 0.0000 0.0000 0.0000 6.1792 0.0000 -3.2869
# 5 -0.1547 2.0006 3.0935 0.0000 41.5399 0.0000
# 6 0.0000 0.0000 0.0000 -3.2869 0.0000 13.0125
#
#
#
# Elastic Compliance Matrix: (Units=1/GPa)
#
#
# Indices 1 2 3 4 5 6 
#
# 1 0.020733 -0.001206 -0.006654 0.000000 0.000631 0.000000
# 2 -0.001206 0.020303 -0.005144 0.000000 -0.000599 0.000000
# 3 -0.006654 -0.005144 0.009708 0.000000 -0.000500 0.000000
# 4 0.000000 0.000000 0.000000 0.186954 0.000000 0.047224
# 5 0.000631 -0.000599 -0.000500 0.000000 0.024142 0.000000
# 6 0.000000 0.000000 0.000000 0.047224 0.000000 0.088778
#
#
# Mechanical properties :
#
#
# Convention : Reuss Voigt Hill
#
# Bulk Modulus (GPa) = 40.42719 59.10992 49.76855
# Shear Modulus (GPa) = 12.99132 23.83432 18.41282
#
# Velocity S-wave (km/s) = 2.57957 3.49400 3.07101
# Velocity P-wave (km/s) = 5.43868 6.82303 6.16980
#
# Compressibility (1/GPa) = 0.02473583
#
# Stress axis : x y z
#
# Youngs Moduli (GPa) = 48.23115 49.25327 103.00596
#
# Poissons Ratio (x) = 0.05940 0.68545
# Poissons Ratio (y) = 0.05817 0.52986
# Poissons Ratio (z) = 0.32095 0.25336
#
# Static dielectric constant tensor:
#      x y z
#    x 1.721640 0.000000 0.026050 
#    y 0.000000 1.674350 0.000000 
#    z 0.026050 0.000000 1.742500 
# 
# From -- ./inp_files/37432.got.cif
#   From: 2010.05.17/outbox.cif.g08.bks.cpg/sg15_19_cif.got.tgz:37432.got - 2010.06.03 18:47:42.
