data_PCOD9300371
_publ_section_title
;
Structure prediction by ZEFSAII (Michael W. Deem and Ramdas Pophale) SiO2 
 PCOD9300371
Probable space group: C 2/C
;
_chemical_formula_sum "Si O2"
_cell_formula_units_Z 56
_cell_length_a 21.720695
_cell_length_b 5.141880
_cell_length_c 21.099702
_cell_angle_alpha 90.000000
_cell_angle_beta 112.040419
_cell_angle_gamma 90.000000
_cell_volume 2184.308264
_symmetry_space_group_name_H-M "C 2/C"
_symmetry_group_IT_number 15
_symmetry_cell_setting 'monoclinic'
loop_
_space_group_symop_operation_xyz
x,y,z
-x,y,1/2-z
-x,-y,-z
x,-y,1/2+z
1/2+x,1/2+y,z
1/2-x,1/2+y,1/2-z
1/2-x,1/2-y,-z
1/2+x,1/2-y,1/2+z
loop_
_atom_site_type_symbol
_atom_site_label
_atom_site_fract_x
_atom_site_fract_y
_atom_site_fract_z
Si Si1 0.215091 0.061342 0.718213
Si Si2 0.366890 0.250307 0.007249
Si Si3 0.000000 0.500000 0.000000
Si Si4 0.848970 0.434371 0.116698
Si Si5 0.795616 0.750778 0.429451
Si Si6 0.000000 0.041622 0.750000
Si Si7 0.001672 0.322032 0.365246
Si Si8 0.104256 0.656421 0.246528
O O1 0.268630 0.257316 0.771286
O O2 0.204338 0.167432 0.643866
O O3 0.150014 0.134495 0.731865
O O4 0.345406 0.538744 0.980050
O O5 0.323876 0.036597 0.951257
O O6 0.345687 0.191949 0.071557
O O7 0.442911 0.167018 0.020724
O O8 0.009080 0.301367 0.064282
O O9 0.780265 0.285081 0.077151
O O10 0.919654 0.324290 0.120745
O O11 0.852188 0.461210 0.194332
O O12 0.019523 0.888117 0.695426
O O13 0.938149 0.222500 0.712699
O O14 0.949961 0.547873 0.323298
#
# Coordination Sequence:
#
# PCOD9300371 Si02
#       8
#     8   8   4   8   8   4   8   8
#     4  12  28  46  73 106 146 197 246 306 380 441
#     4  11  27  48  74 108 141 195 241 305 366 448
#     4  10  26  50  76 100 150 194 246 306 378 444
#     4  11  23  47  71 102 148 188 243 302 372 436
#     4  12  26  48  71 107 146 190 245 303 368 443
#     4  12  24  38  80 102 146 190 252 318 364 444
#     4  11  24  48  68 110 143 193 251 308 371 444
#     4  12  25  46  69 109 146 191 249 314 367 447
#
# _framework density 25.637405999999999
#
# number of rings (size 3 to 8) (size 9 to 14) (size 15 to 20)
#    0.000    0.571    4.286    2.571    6.000    2.857 
#    0.000    0.000    0.000    0.000    0.000    0.000 
#    0.000    0.000    0.000    0.000    0.000    0.000 
#
# Total GULP energy -156016.783527 kJ/mol
# GULP energy per Si atom -5572.027983 kJ/mol
# Density = 2.557905 g / cm^3
# Si number density = 25.637406 Si / 1000 Ang^3
#
#
#
# Elastic Constant Matrix: (Units=GPa)
#
#
# Indices 1 2 3 4 5 6 
#
# 1 118.9098 10.9406 11.6588 -0.0001 -3.8552 0.0001
# 2 10.9406 57.9826 6.3120 0.0001 4.2835 -0.0001
# 3 11.6588 6.3120 119.5664 0.0001 -11.8391 0.0000
# 4 -0.0001 0.0001 0.0001 -1.3661 0.0000 -3.7758
# 5 -3.8552 4.2835 -11.8391 0.0000 42.5849 0.0000
# 6 0.0001 -0.0001 0.0000 -3.7758 0.0000 28.6846
#
#
#
# Elastic Compliance Matrix: (Units=1/GPa)
#
#
# Indices 1 2 3 4 5 6 
#
# 1 0.008650 -0.001613 -0.000683 0.000000 0.000755 0.000000
# 2 -0.001613 0.017824 -0.001003 0.000001 -0.002218 0.000000
# 3 -0.000683 -0.001003 0.008727 0.000000 0.002465 0.000000
# 4 0.000000 0.000001 0.000000 -0.536728 0.000000 -0.070651
# 5 0.000755 -0.002218 0.002465 0.000000 0.024459 0.000000
# 6 0.000000 0.000000 0.000000 -0.070651 0.000000 0.025562
#
#
# Mechanical properties :
#
#
# Convention : Reuss Voigt Hill
#
# Bulk Modulus (GPa) = 34.96421 39.36462 37.16441
# Shear Modulus (GPa) = -11.48443 31.81718 10.16637
#
# Velocity S-wave (km/s) = -2.11879 3.52667 1.99350
# Velocity P-wave (km/s) = 2.77162 5.65428 4.45268
#
# Compressibility (1/GPa) = 0.02860068
#
# Stress axis : x y z
#
# Youngs Moduli (GPa) = 115.61106 56.10400 114.58346
#
# Poissons Ratio (x) = 0.09052 0.07831
# Poissons Ratio (y) = 0.18654 0.11495
# Poissons Ratio (z) = 0.07901 0.05628
#
# Static dielectric constant tensor:
#      x y z
#    x 2.000760 0.000000 0.072930 
#    y 0.000000 1.694040 0.000000 
#    z 0.072930 0.000000 2.124970 
# 
# From -- ./inp_files/254402.got.cif
#   From: 2010.05.17/outbox.cif.g08.bks.cpg/sg15_128_cif.got.tgz:254402.got - 2010.06.03 18:47:42.
