data_PCOD9300943
_publ_section_title
;
Structure prediction by ZEFSAII (Michael W. Deem and Ramdas Pophale) SiO2 
 PCOD9300943
Probable space group: C 2/C
;
_chemical_formula_sum "Si O2"
_cell_formula_units_Z 48
_cell_length_a 12.079269
_cell_length_b 22.247469
_cell_length_c 10.926489
_cell_angle_alpha 90.000000
_cell_angle_beta 51.485878
_cell_angle_gamma 90.000000
_cell_volume 2297.529513
_symmetry_space_group_name_H-M "C 2/C"
_symmetry_group_IT_number 15
_symmetry_cell_setting 'monoclinic'
loop_
_space_group_symop_operation_xyz
x,y,z
-x,y,1/2-z
-x,-y,-z
x,-y,1/2+z
1/2+x,1/2+y,z
1/2-x,1/2+y,1/2-z
1/2-x,1/2-y,-z
1/2+x,1/2-y,1/2+z
loop_
_atom_site_type_symbol
_atom_site_label
_atom_site_fract_x
_atom_site_fract_y
_atom_site_fract_z
Si Si1 0.418429 0.900767 0.590810
Si Si2 0.831614 0.184046 0.221723
Si Si3 0.603577 0.815467 0.291996
Si Si4 0.633702 0.359071 0.527739
Si Si5 0.887357 0.503023 0.417803
Si Si6 0.419838 0.497569 0.925767
O O1 0.291612 0.861256 0.735786
O O2 0.508683 0.853109 0.450184
O O3 0.529094 0.938158 0.595361
O O4 0.358932 0.954939 0.545409
O O5 0.824782 0.255051 0.204184
O O6 0.831809 0.175336 0.369872
O O7 0.988457 0.165525 0.071357
O O8 0.500000 0.798636 0.250000
O O9 0.732069 0.854601 0.151354
O O10 0.602508 0.427140 0.581449
O O11 0.740430 0.521317 0.457303
O O12 0.000000 0.471606 0.250000
O O13 0.500000 0.522612 0.750000
O O14 0.500000 0.500000 0.000000
#
# Coordination Sequence:
#
# PCOD9300943 Si02
#       6
#     8   8   8   8   8   8
#     4  11  23  39  63  92 131 165 221 267 342 399
#     4  11  20  35  56  91 129 167 211 273 335 383
#     4  12  20  33  58  93 130 167 213 277 333 391
#     4  11  20  34  56  89 131 163 211 267 331 388
#     4  11  25  42  64  92 131 179 218 271 338 408
#     4  12  26  43  68  97 135 175 222 275 333 405
#
# _framework density 20.892005999999999
#
# number of rings (size 3 to 8) (size 9 to 14) (size 15 to 20)
#    0.000    0.667    6.667    3.000    9.333    0.000 
#    0.000    0.000    0.000    1.000    0.000    0.000 
#    0.000    0.000    0.000    0.000    0.000    0.000 
#
# Total GULP energy -134016.047534 kJ/mol
# GULP energy per Si atom -5584.001981 kJ/mol
# Density = 2.084445 g / cm^3
# Si number density = 20.892006 Si / 1000 Ang^3
#
#
#
# Elastic Constant Matrix: (Units=GPa)
#
#
# Indices 1 2 3 4 5 6 
#
# 1 135.3617 30.1846 46.6955 0.0000 -21.1247 0.0000
# 2 30.1846 97.6683 7.4563 0.0000 -6.0483 0.0000
# 3 46.6955 7.4563 74.8079 0.0000 -27.2560 0.0000
# 4 0.0000 0.0000 0.0000 0.9121 0.0000 0.2368
# 5 -21.1247 -6.0483 -27.2560 0.0000 33.8888 0.0000
# 6 0.0000 0.0000 0.0000 0.2368 0.0000 17.0636
#
#
#
# Elastic Compliance Matrix: (Units=1/GPa)
#
#
# Indices 1 2 3 4 5 6 
#
# 1 0.010096 -0.002612 -0.005543 0.000000 0.001369 0.000000
# 2 -0.002612 0.011043 0.000926 0.000000 0.001087 0.000000
# 3 -0.005543 0.000926 0.021976 0.000000 0.014385 0.000000
# 4 0.000000 0.000000 0.000000 1.100303 0.000000 -0.015268
# 5 0.001369 0.001087 0.014385 0.000000 0.042126 0.000000
# 6 0.000000 0.000000 0.000000 -0.015268 0.000000 0.058816
#
#
# Mechanical properties :
#
#
# Convention : Reuss Voigt Hill
#
# Bulk Modulus (GPa) = 34.89526 52.94565 43.92045
# Shear Modulus (GPa) = 3.94207 25.27299 14.60753
#
# Velocity S-wave (km/s) = 1.37513 3.48184 2.64709
# Velocity P-wave (km/s) = 4.38865 6.44685 5.51462
#
# Compressibility (1/GPa) = 0.02865719
#
# Stress axis : x y z
#
# Youngs Moduli (GPa) = 99.05082 90.55771 45.50374
#
# Poissons Ratio (x) = 0.23656 0.25221
# Poissons Ratio (y) = 0.25874 -0.04214
# Poissons Ratio (z) = 0.54900 -0.08386
#
# Static dielectric constant tensor:
#      x y z
#    x 1.817300 0.000000 0.000220 
#    y 0.000000 1.761000 0.000000 
#    z 0.000220 0.000000 1.970350 
# 
# From -- ./inp_files/89389.got.cif
#   From: 2010.05.17/outbox.cif.g08.bks.cpg/sg15_45_cif.got.tgz:89389.got - 2010.06.03 18:47:42.
