data_PCOD9300732
_publ_section_title
;
Structure prediction by ZEFSAII (Michael W. Deem and Ramdas Pophale) SiO2 
 PCOD9300732
Probable space group: C 2/C
;
_chemical_formula_sum "Si O2"
_cell_formula_units_Z 60
_cell_length_a 7.767813
_cell_length_b 26.586922
_cell_length_c 21.277691
_cell_angle_alpha 90.000000
_cell_angle_beta 40.051049
_cell_angle_gamma 90.000000
_cell_volume 2827.610226
_symmetry_space_group_name_H-M "C 2/C"
_symmetry_group_IT_number 15
_symmetry_cell_setting 'monoclinic'
loop_
_space_group_symop_operation_xyz
x,y,z
-x,y,1/2-z
-x,-y,-z
x,-y,1/2+z
1/2+x,1/2+y,z
1/2-x,1/2+y,1/2-z
1/2-x,1/2-y,-z
1/2+x,1/2-y,1/2+z
loop_
_atom_site_type_symbol
_atom_site_label
_atom_site_fract_x
_atom_site_fract_y
_atom_site_fract_z
Si Si1 0.786323 0.975323 0.432597
Si Si2 0.288913 0.849234 0.750438
Si Si3 0.231076 0.737660 0.780154
Si Si4 0.535136 0.418169 0.581609
Si Si5 0.500000 0.578151 0.750000
Si Si6 0.883524 0.798079 0.429445
Si Si7 0.766877 0.614782 0.455655
Si Si8 0.957542 0.347288 0.088967
O O1 0.934613 0.022341 0.421896
O O2 0.500000 0.000000 0.500000
O O3 0.734774 0.927920 0.491646
O O4 0.938707 0.955532 0.328118
O O5 0.500000 0.847078 0.750000
O O6 0.146718 0.795186 0.793511
O O7 0.452904 0.859097 0.641139
O O8 0.095670 0.895197 0.819299
O O9 0.500000 0.737576 0.750000
O O10 0.350101 0.716851 0.682036
O O11 0.017255 0.701723 0.873497
O O12 0.340453 0.408842 0.577941
O O13 0.795398 0.383359 0.496346
O O14 0.249489 0.616067 0.816732
O O15 0.750000 0.750000 0.500000
O O16 0.927962 0.840685 0.468563
O O17 0.683045 0.824892 0.434824
#
# Coordination Sequence:
#
# PCOD9300732 Si02
#       8
#     8   8   8   8   4   8   8   8
#     4  12  25  44  68  92 123 170 217 261 322 383
#     4   9  20  37  59  92 128 165 199 255 320 373
#     4   9  17  34  62  88 122 165 206 245 314 379
#     4  11  25  41  62  96 128 163 215 273 316 371
#     4  12  22  42  68  92 120 168 216 262 318 382
#     4  11  19  36  65  93 122 171 211 249 311 392
#     4  11  22  42  66  93 130 165 213 264 326 378
#     4  11  21  41  66  92 127 170 214 255 316 387
#
# _framework density 21.219332000000001
#
# number of rings (size 3 to 8) (size 9 to 14) (size 15 to 20)
#    0.000    1.333    6.000    0.400    3.733    0.533 
#    0.000    2.667    0.000    0.000    0.000    0.000 
#    0.000    0.000    0.000    0.000    0.000    0.000 
#
# Total GULP energy -167489.258076 kJ/mol
# GULP energy per Si atom -5582.975269 kJ/mol
# Density = 2.117104 g / cm^3
# Si number density = 21.219332 Si / 1000 Ang^3
#
#
#
# Elastic Constant Matrix: (Units=GPa)
#
#
# Indices 1 2 3 4 5 6 
#
# 1 16.5128 15.9586 6.3262 0.0001 10.5090 0.0001
# 2 15.9586 165.0965 42.1658 0.0000 19.8182 -0.0001
# 3 6.3262 42.1658 100.4146 -0.0003 21.3631 0.0000
# 4 0.0001 0.0000 -0.0003 51.7973 0.0001 4.6654
# 5 10.5090 19.8182 21.3631 0.0001 25.2243 -0.0001
# 6 0.0001 -0.0001 0.0000 4.6654 -0.0001 8.2067
#
#
#
# Elastic Compliance Matrix: (Units=1/GPa)
#
#
# Indices 1 2 3 4 5 6 
#
# 1 0.086620 -0.005193 0.004310 0.000000 -0.035657 -0.000002
# 2 -0.005193 0.007369 -0.002434 0.000000 -0.001564 0.000000
# 3 0.004310 -0.002434 0.013033 0.000000 -0.010921 0.000000
# 4 0.000000 0.000000 0.000000 0.020348 0.000000 -0.011568
# 5 -0.035657 -0.001564 -0.010921 0.000000 0.064978 0.000002
# 6 -0.000002 0.000000 0.000000 -0.011568 0.000002 0.128428
#
#
# Mechanical properties :
#
#
# Convention : Reuss Voigt Hill
#
# Bulk Modulus (GPa) = 9.96162 45.65833 27.80998
# Shear Modulus (GPa) = 13.85535 31.55055 22.70295
#
# Velocity S-wave (km/s) = 2.55808 3.86019 3.27451
# Velocity P-wave (km/s) = 3.66467 6.43678 5.23746
#
# Compressibility (1/GPa) = 0.10038523
#
# Stress axis : x y z
#
# Youngs Moduli (GPa) = 11.54473 135.71262 76.72990
#
# Poissons Ratio (x) = 0.70479 -0.33068
# Poissons Ratio (y) = 0.05995 0.18678
# Poissons Ratio (z) = -0.04975 0.33036
#
# Static dielectric constant tensor:
#      x y z
#    x 1.817070 0.000000 -0.008650 
#    y 0.000000 1.927950 0.000000 
#    z -0.008650 0.000000 1.815470 
# 
# From -- ./inp_files/234533.got.cif
#   From: 2010.05.17/outbox.cif.g08.bks.cpg/sg15_118_cif.got.tgz:234533.got - 2010.06.03 18:47:42.
