data_PCOD9300532
_publ_section_title
;
Structure prediction by ZEFSAII (Michael W. Deem and Ramdas Pophale) SiO2 
 PCOD9300532
Probable space group: C 2/C
;
_chemical_formula_sum "Si O2"
_cell_formula_units_Z 32
_cell_length_a 10.005386
_cell_length_b 14.385187
_cell_length_c 14.330058
_cell_angle_alpha 90.000000
_cell_angle_beta 138.209177
_cell_angle_gamma 90.000000
_cell_volume 1374.487541
_symmetry_space_group_name_H-M "C 2/C"
_symmetry_group_IT_number 15
_symmetry_cell_setting 'monoclinic'
loop_
_space_group_symop_operation_xyz
x,y,z
-x,y,1/2-z
-x,-y,-z
x,-y,1/2+z
1/2+x,1/2+y,z
1/2-x,1/2+y,1/2-z
1/2-x,1/2-y,-z
1/2+x,1/2-y,1/2+z
loop_
_atom_site_type_symbol
_atom_site_label
_atom_site_fract_x
_atom_site_fract_y
_atom_site_fract_z
Si Si1 0.262076 0.959373 0.609867
Si Si2 0.377284 0.663274 0.313340
Si Si3 0.346988 0.865082 0.256792
Si Si4 0.268414 0.083123 0.444802
O O1 0.500000 0.946309 0.750000
O O2 0.159453 0.871075 0.601832
O O3 0.213594 0.049850 0.650336
O O4 0.227402 0.991156 0.485510
O O5 0.274032 0.762357 0.241816
O O6 0.613829 0.658583 0.410702
O O7 0.284087 0.590063 0.190695
O O8 0.500000 0.851382 0.250000
O O9 0.498734 0.894705 0.418059
#
# Coordination Sequence:
#
# PCOD9300532 Si02
#       4
#     8   8   8   8
#     4   9  21  34  50  77 107 133 169 206 252 308
#     4  11  18  31  58  76 102 136 166 212 257 291
#     4   9  18  32  52  79 101 127 174 213 249 294
#     4   9  19  32  54  81  99 127 176 213 252 293
#
# _framework density 23.281404999999999
#
# number of rings (size 3 to 8) (size 9 to 14) (size 15 to 20)
#    0.000    3.000    2.500    1.500    3.500    4.000 
#    0.000    0.000    5.500    3.000    0.000    0.000 
#    0.000    0.000    0.000    0.000    0.000    0.000 
#
# Total GULP energy -89178.505010 kJ/mol
# GULP energy per Si atom -5573.656563 kJ/mol
# Density = 2.322842 g / cm^3
# Si number density = 23.281405 Si / 1000 Ang^3
#
#
#
# Elastic Constant Matrix: (Units=GPa)
#
#
# Indices 1 2 3 4 5 6 
#
# 1 28.1415 11.5638 -11.2970 0.0000 -11.4799 0.0000
# 2 11.5638 75.4704 -18.3016 0.0000 -21.2221 0.0000
# 3 -11.2970 -18.3016 67.6200 -0.0001 -10.3872 -0.0001
# 4 0.0000 0.0000 -0.0001 14.2072 0.0000 -3.6591
# 5 -11.4799 -21.2221 -10.3872 0.0000 23.7000 0.0000
# 6 0.0000 0.0000 -0.0001 -3.6591 0.0000 19.0341
#
#
#
# Elastic Compliance Matrix: (Units=1/GPa)
#
#
# Indices 1 2 3 4 5 6 
#
# 1 0.056886 0.007513 0.018016 0.000001 0.042178 0.000000
# 2 0.007513 0.023522 0.012240 0.000000 0.030066 0.000000
# 3 0.018016 0.012240 0.025878 0.000000 0.031028 0.000000
# 4 0.000001 0.000000 0.000000 0.074054 0.000001 0.014236
# 5 0.042178 0.030066 0.031028 0.000001 0.103146 0.000000
# 6 0.000000 0.000000 0.000000 0.014236 0.000000 0.055274
#
#
# Mechanical properties :
#
#
# Convention : Reuss Voigt Hill
#
# Bulk Modulus (GPa) = 5.49984 15.01802 10.25893
# Shear Modulus (GPa) = 15.44028 24.00603 19.72316
#
# Velocity S-wave (km/s) = 2.57807 3.21460 2.91377
# Velocity P-wave (km/s) = 3.35102 4.49920 3.96687
#
# Compressibility (1/GPa) = 0.18182345
#
# Stress axis : x y z
#
# Youngs Moduli (GPa) = 17.57911 42.51378 38.64354
#
# Poissons Ratio (x) = -0.31941 -0.69621
# Poissons Ratio (y) = -0.13207 -0.47299
# Poissons Ratio (z) = -0.31671 -0.52037
#
# Static dielectric constant tensor:
#      x y z
#    x 1.880170 0.000000 0.060280 
#    y 0.000000 1.918670 0.000000 
#    z 0.060280 0.000000 1.981080 
# 
# From -- ./inp_files/75946.got.cif
#   From: 2010.05.17/outbox.cif.g08.bks.cpg/sg15_38_cif.got.tgz:75946.got - 2010.06.03 18:47:42.
