data_PCOD9300811
_publ_section_title
;
Structure prediction by ZEFSAII (Michael W. Deem and Ramdas Pophale) SiO2 
 PCOD9300811
Probable space group: C 2/C
;
_chemical_formula_sum "Si O2"
_cell_formula_units_Z 64
_cell_length_a 10.258926
_cell_length_b 15.369555
_cell_length_c 21.114730
_cell_angle_alpha 90.000000
_cell_angle_beta 110.848076
_cell_angle_gamma 90.000000
_cell_volume 3111.291870
_symmetry_space_group_name_H-M "C 2/C"
_symmetry_group_IT_number 15
_symmetry_cell_setting 'monoclinic'
loop_
_space_group_symop_operation_xyz
x,y,z
-x,y,1/2-z
-x,-y,-z
x,-y,1/2+z
1/2+x,1/2+y,z
1/2-x,1/2+y,1/2-z
1/2-x,1/2-y,-z
1/2+x,1/2-y,1/2+z
loop_
_atom_site_type_symbol
_atom_site_label
_atom_site_fract_x
_atom_site_fract_y
_atom_site_fract_z
Si Si1 0.061575 0.491719 0.197090
Si Si2 0.320901 0.071710 0.461565
Si Si3 0.088731 0.171835 0.351022
Si Si4 0.900005 0.776913 0.180056
Si Si5 0.492283 0.153448 0.597235
Si Si6 0.782249 0.635632 0.953513
Si Si7 0.282453 0.354867 0.763289
Si Si8 0.941312 0.370491 0.597034
O O1 0.184536 0.560138 0.234622
O O2 0.000000 0.452881 0.250000
O O3 0.088062 0.412575 0.154393
O O4 0.937656 0.547803 0.143183
O O5 0.180775 0.118381 0.416366
O O6 0.372302 0.101604 0.539302
O O7 0.438561 0.102574 0.431628
O O8 0.307928 0.968124 0.455709
O O9 0.064242 0.269209 0.370952
O O10 0.172928 0.176359 0.299409
O O11 0.936556 0.127734 0.318215
O O12 0.841230 0.840263 0.115576
O O13 0.791956 0.716492 0.203129
O O14 0.981597 0.707258 0.150536
O O15 0.000000 0.818607 0.250000
O O16 0.591349 0.187229 0.558421
O O17 0.803984 0.653570 0.032380
#
# Coordination Sequence:
#
# PCOD9300811 Si02
#       8
#     8   8   8   8   8   8   8   8
#     4  12  21  38  68  89 121 161 209 256 300 360
#     4  11  21  42  65  89 123 161 205 253 311 358
#     4  11  23  39  60  90 128 160 198 254 312 365
#     4  12  22  39  62  91 125 160 209 256 307 367
#     4  11  22  38  66  95 116 161 213 253 292 380
#     4  11  22  38  63  96 123 157 210 256 307 363
#     4  11  22  39  58  88 126 163 196 250 311 363
#     4  11  19  39  66  90 117 162 206 254 300 364
#
# _framework density 20.570233000000002
#
# number of rings (size 3 to 8) (size 9 to 14) (size 15 to 20)
#    0.000    0.750    7.500    1.500    1.750    0.000 
#    4.500    0.000    0.000    1.500    0.000    0.000 
#    0.000    0.000    0.000    0.000    0.000    0.000 
#
# Total GULP energy -178304.566025 kJ/mol
# GULP energy per Si atom -5572.017688 kJ/mol
# Density = 2.052341 g / cm^3
# Si number density = 20.570233 Si / 1000 Ang^3
#
#
#
# Elastic Constant Matrix: (Units=GPa)
#
#
# Indices 1 2 3 4 5 6 
#
# 1 50.2780 22.5806 21.9893 0.0000 10.2410 0.0000
# 2 22.5806 55.9991 30.6196 0.0000 4.8844 0.0000
# 3 21.9893 30.6196 122.2037 0.0000 23.6825 0.0000
# 4 0.0000 0.0000 0.0000 38.7303 0.0000 2.5771
# 5 10.2410 4.8844 23.6825 0.0000 35.7693 0.0000
# 6 0.0000 0.0000 0.0000 2.5771 0.0000 22.1051
#
#
#
# Elastic Compliance Matrix: (Units=1/GPa)
#
#
# Indices 1 2 3 4 5 6 
#
# 1 0.025643 -0.009172 -0.001303 0.000000 -0.005227 0.000000
# 2 -0.009172 0.023988 -0.004857 0.000000 0.002566 0.000000
# 3 -0.001303 -0.004857 0.010822 0.000000 -0.006129 0.000000
# 4 0.000000 0.000000 0.000000 0.026021 0.000000 -0.003034
# 5 -0.005227 0.002566 -0.006129 0.000000 0.033161 0.000000
# 6 0.000000 0.000000 0.000000 -0.003034 0.000000 0.045592
#
#
# Mechanical properties :
#
#
# Convention : Reuss Voigt Hill
#
# Bulk Modulus (GPa) = 33.56977 42.09551 37.83264
# Shear Modulus (GPa) = 24.29284 29.54036 26.91660
#
# Velocity S-wave (km/s) = 3.44025 3.79367 3.62127
# Velocity P-wave (km/s) = 5.66882 6.30063 5.99305
#
# Compressibility (1/GPa) = 0.02978871
#
# Stress axis : x y z
#
# Youngs Moduli (GPa) = 38.99683 41.68772 92.40071
#
# Poissons Ratio (x) = 0.38234 0.12042
# Poissons Ratio (y) = 0.35766 0.44883
# Poissons Ratio (z) = 0.05082 0.20250
#
# Static dielectric constant tensor:
#      x y z
#    x 1.767990 0.000000 0.042520 
#    y 0.000000 1.739190 0.000000 
#    z 0.042520 0.000000 1.798780 
# 
# From -- ./inp_files/238783.got.cif
#   From: 2010.05.17/outbox.cif.g08.bks.cpg/sg15_120_cif.got.tgz:238783.got - 2010.06.03 18:47:42.
