data_PCOD9300697
_publ_section_title
;
Structure prediction by ZEFSAII (Michael W. Deem and Ramdas Pophale) SiO2 
 PCOD9300697
Probable space group: C 2/C
;
_chemical_formula_sum "Si O2"
_cell_formula_units_Z 56
_cell_length_a 12.182928
_cell_length_b 11.851135
_cell_length_c 16.914411
_cell_angle_alpha 90.000000
_cell_angle_beta 77.251136
_cell_angle_gamma 90.000000
_cell_volume 2381.921910
_symmetry_space_group_name_H-M "C 2/C"
_symmetry_group_IT_number 15
_symmetry_cell_setting 'monoclinic'
loop_
_space_group_symop_operation_xyz
x,y,z
-x,y,1/2-z
-x,-y,-z
x,-y,1/2+z
1/2+x,1/2+y,z
1/2-x,1/2+y,1/2-z
1/2-x,1/2-y,-z
1/2+x,1/2-y,1/2+z
loop_
_atom_site_type_symbol
_atom_site_label
_atom_site_fract_x
_atom_site_fract_y
_atom_site_fract_z
Si Si1 0.224987 0.036258 0.390953
Si Si2 0.822642 0.216062 0.222329
Si Si3 0.152450 0.177702 0.972425
Si Si4 0.421427 0.369828 0.846990
Si Si5 0.876065 0.455168 0.008354
Si Si6 0.196289 0.914049 0.154150
Si Si7 0.410123 0.294613 0.474988
O O1 0.240260 0.110416 0.310304
O O2 0.334582 0.015677 0.427312
O O3 0.139097 0.110035 0.458881
O O4 0.177038 0.910816 0.398721
O O5 0.833190 0.210824 0.315306
O O6 0.765124 0.331254 0.201648
O O7 0.955056 0.188695 0.178712
O O8 0.103345 0.111810 0.057295
O O9 0.250000 0.250000 0.000000
O O10 0.041127 0.238455 0.959651
O O11 0.394204 0.489592 0.808677
O O12 0.857071 0.320986 0.012726
O O13 0.790715 0.487938 0.091568
O O14 0.000000 0.500000 0.000000
O O15 0.127248 0.832678 0.105619
#
# Coordination Sequence:
#
# PCOD9300697 Si02
#       7
#     8   8   8   8   8   8   8
#     4  11  19  37  61  87 118 169 216 261 319 396
#     4  11  23  42  67  93 129 179 226 264 337 408
#     4  12  23  36  61  98 133 158 215 289 330 379
#     4  11  24  41  65  95 132 176 216 274 337 403
#     4  11  20  33  61  96 125 156 209 276 336 382
#     4  11  21  42  67  90 125 172 222 274 319 402
#     4  11  19  35  64  90 117 166 217 260 327 388
#
# _framework density 23.510428000000001
#
# number of rings (size 3 to 8) (size 9 to 14) (size 15 to 20)
#    0.000    0.857    7.143    3.000    0.000    1.143 
#    0.000    1.429    0.000    1.714    0.000    0.000 
#    0.000    0.000    0.000    0.000    0.000    0.000 
#
# Total GULP energy -155976.604860 kJ/mol
# GULP energy per Si atom -5570.593031 kJ/mol
# Density = 2.345692 g / cm^3
# Si number density = 23.510428 Si / 1000 Ang^3
#
#
#
# Elastic Constant Matrix: (Units=GPa)
#
#
# Indices 1 2 3 4 5 6 
#
# 1 133.5197 19.9264 14.6477 0.0000 17.5429 0.0000
# 2 19.9264 81.2188 1.1937 0.0000 -6.9275 0.0000
# 3 14.6477 1.1937 52.2311 0.0000 17.4628 0.0000
# 4 0.0000 0.0000 0.0000 22.2863 0.0000 6.8032
# 5 17.5429 -6.9275 17.4628 0.0000 38.2312 0.0000
# 6 0.0000 0.0000 0.0000 6.8032 0.0000 31.5271
#
#
#
# Elastic Compliance Matrix: (Units=1/GPa)
#
#
# Indices 1 2 3 4 5 6 
#
# 1 0.008465 -0.002390 -0.001034 0.000000 -0.003845 0.000000
# 2 -0.002390 0.013248 -0.000946 0.000000 0.003929 0.000000
# 3 -0.001034 -0.000946 0.022845 0.000000 -0.010132 0.000000
# 4 0.000000 0.000000 0.000000 0.048035 0.000000 -0.010365
# 5 -0.003845 0.003929 -0.010132 0.000000 0.033261 0.000000
# 6 0.000000 0.000000 0.000000 -0.010365 0.000000 0.033956
#
#
# Mechanical properties :
#
#
# Convention : Reuss Voigt Hill
#
# Bulk Modulus (GPa) = 27.91895 37.61168 32.76532
# Shear Modulus (GPa) = 27.70288 33.82237 30.76263
#
# Velocity S-wave (km/s) = 3.43640 3.79702 3.62120
# Velocity P-wave (km/s) = 5.25795 5.93765 5.60811
#
# Compressibility (1/GPa) = 0.03581796
#
# Stress axis : x y z
#
# Youngs Moduli (GPa) = 118.13726 75.48470 43.77393
#
# Poissons Ratio (x) = 0.18037 0.04525
# Poissons Ratio (y) = 0.28229 0.04142
# Poissons Ratio (z) = 0.12212 0.07143
#
# Static dielectric constant tensor:
#      x y z
#    x 0.445090 0.000000 0.261580 
#    y 0.000000 2.951830 0.000000 
#    z 0.261580 0.000000 1.913810 
# 
# From -- ./inp_files/236964.got.cif
#   From: 2010.05.17/outbox.cif.g08.bks.cpg/sg15_119_cif.got.tgz:236964.got - 2010.06.03 18:47:42.
