data_PCOD9300130
_publ_section_title
;
Structure prediction by ZEFSAII (Michael W. Deem and Ramdas Pophale) SiO2 
 PCOD9300130
Probable space group: C 2/C
;
_chemical_formula_sum "Si O2"
_cell_formula_units_Z 52
_cell_length_a 5.555882
_cell_length_b 28.016203
_cell_length_c 15.378693
_cell_angle_alpha 90.000000
_cell_angle_beta 75.356227
_cell_angle_gamma 90.000000
_cell_volume 2316.007768
_symmetry_space_group_name_H-M "C 2/C"
_symmetry_group_IT_number 15
_symmetry_cell_setting 'monoclinic'
loop_
_space_group_symop_operation_xyz
x,y,z
-x,y,1/2-z
-x,-y,-z
x,-y,1/2+z
1/2+x,1/2+y,z
1/2-x,1/2+y,1/2-z
1/2-x,1/2-y,-z
1/2+x,1/2-y,1/2+z
loop_
_atom_site_type_symbol
_atom_site_label
_atom_site_fract_x
_atom_site_fract_y
_atom_site_fract_z
Si Si1 0.330008 0.648253 0.985066
Si Si2 0.345363 0.410496 0.146673
Si Si3 0.000000 0.330479 0.250000
Si Si4 0.359691 0.797848 0.446816
Si Si5 0.619902 0.485400 0.825182
Si Si6 0.816689 0.454406 0.520108
Si Si7 0.440059 0.097180 0.349629
O O1 0.380518 0.606051 0.910272
O O2 0.601753 0.672451 0.962279
O O3 0.091390 0.680153 0.980606
O O4 0.276469 0.626593 0.084137
O O5 0.225195 0.368159 0.214062
O O6 0.328887 0.459899 0.198675
O O7 0.209976 0.426730 0.068683
O O8 0.021035 0.298118 0.161572
O O9 0.250000 0.750000 0.500000
O O10 0.500000 0.462891 0.750000
O O11 0.431950 0.478881 0.921406
O O12 0.853148 0.455905 0.834367
O O13 0.000000 0.500000 0.500000
O O14 0.876342 0.413708 0.587122
O O15 0.500000 0.119234 0.250000
#
# Coordination Sequence:
#
# PCOD9300130 Si02
#       7
#     8   8   4   8   8   8   8
#     4  11  25  47  75 105 144 188 230 305 363 449
#     4  11  24  41  65 103 143 192 252 296 363 423
#     4  10  26  44  76 110 138 184 236 306 366 452
#     4  11  26  53  80 111 144 176 233 307 396 461
#     4  12  25  36  59  96 138 198 248 303 340 411
#     4  12  23  39  60  86 142 198 248 297 353 404
#     4  12  24  42  60  96 140 194 251 292 349 421
#
# _framework density 22.452428000000001
#
# number of rings (size 3 to 8) (size 9 to 14) (size 15 to 20)
#    0.000    0.615    4.615    3.692    5.385    1.846 
#    2.769    0.000    0.000    0.000    0.000    0.000 
#    0.000    0.000    0.000    0.000    0.000    0.000 
#
# Total GULP energy -144983.370654 kJ/mol
# GULP energy per Si atom -5576.283487 kJ/mol
# Density = 2.240133 g / cm^3
# Si number density = 22.452428 Si / 1000 Ang^3
#
#
#
# Elastic Constant Matrix: (Units=GPa)
#
#
# Indices 1 2 3 4 5 6 
#
# 1 91.2299 27.2606 37.6657 0.0000 -1.0274 0.0000
# 2 27.2606 88.8908 40.5299 0.0000 -6.0254 0.0000
# 3 37.6657 40.5299 176.7823 0.0000 -7.0849 0.0000
# 4 0.0000 0.0000 0.0000 33.9869 0.0000 -13.0170
# 5 -1.0274 -6.0254 -7.0849 0.0000 51.6950 0.0000
# 6 0.0000 0.0000 0.0000 -13.0170 0.0000 35.8726
#
#
#
# Elastic Compliance Matrix: (Units=1/GPa)
#
#
# Indices 1 2 3 4 5 6 
#
# 1 0.012690 -0.002990 -0.002033 0.000000 -0.000375 0.000000
# 2 -0.002990 0.013327 -0.002372 0.000000 0.001169 0.000000
# 3 -0.002033 -0.002372 0.006657 0.000000 0.000596 0.000000
# 4 0.000000 0.000000 0.000000 0.034172 0.000000 0.012400
# 5 -0.000375 0.001169 0.000596 0.000000 0.019555 0.000000
# 6 0.000000 0.000000 0.000000 0.012400 0.000000 0.032376
#
#
# Mechanical properties :
#
#
# Convention : Reuss Voigt Hill
#
# Bulk Modulus (GPa) = 55.91279 63.09061 59.50170
# Shear Modulus (GPa) = 35.83479 41.07401 38.45440
#
# Velocity S-wave (km/s) = 3.99937 4.28176 4.14297
# Velocity P-wave (km/s) = 6.80320 7.25296 7.03167
#
# Compressibility (1/GPa) = 0.01788500
#
# Stress axis : x y z
#
# Youngs Moduli (GPa) = 78.80200 75.03401 150.20706
#
# Poissons Ratio (x) = 0.22436 0.30541
# Poissons Ratio (y) = 0.23562 0.35623
# Poissons Ratio (z) = 0.16023 0.17795
#
# Static dielectric constant tensor:
#      x y z
#    x 1.881960 0.000000 0.043710 
#    y 0.000000 1.902850 0.000000 
#    z 0.043710 0.000000 1.933010 
# 
# From -- ./inp_files/130695.got.cif
#   From: 2010.05.17/outbox.cif.g08.bks.cpg/sg15_66_cif.got.tgz:130695.got - 2010.06.03 18:47:42.
