data_PCOD9300497
_publ_section_title
;
Structure prediction by ZEFSAII (Michael W. Deem and Ramdas Pophale) SiO2 
 PCOD9300497
Probable space group: C 2/C
;
_chemical_formula_sum "Si O2"
_cell_formula_units_Z 56
_cell_length_a 19.376597
_cell_length_b 17.771847
_cell_length_c 16.171587
_cell_angle_alpha 90.000000
_cell_angle_beta 28.904090
_cell_angle_gamma 90.000000
_cell_volume 2691.657722
_symmetry_space_group_name_H-M "C 2/C"
_symmetry_group_IT_number 15
_symmetry_cell_setting 'monoclinic'
loop_
_space_group_symop_operation_xyz
x,y,z
-x,y,1/2-z
-x,-y,-z
x,-y,1/2+z
1/2+x,1/2+y,z
1/2-x,1/2+y,1/2-z
1/2-x,1/2-y,-z
1/2+x,1/2-y,1/2+z
loop_
_atom_site_type_symbol
_atom_site_label
_atom_site_fract_x
_atom_site_fract_y
_atom_site_fract_z
Si Si1 0.739438 0.423715 0.311469
Si Si2 0.157773 0.040387 0.706752
Si Si3 0.305997 0.227772 0.253619
Si Si4 0.850105 0.815803 0.361385
Si Si5 0.912935 0.880619 0.686335
Si Si6 0.329958 0.581198 0.084689
Si Si7 0.080602 0.717083 0.865538
O O1 0.724884 0.439226 0.226874
O O2 0.583011 0.394604 0.503298
O O3 0.761512 0.506029 0.325725
O O4 0.853479 0.363635 0.224025
O O5 0.214070 0.100185 0.580757
O O6 0.158573 0.950346 0.688699
O O7 0.987954 0.060957 0.887622
O O8 0.376826 0.288071 0.239219
O O9 0.255481 0.153733 0.355282
O O10 0.167383 0.264214 0.358425
O O11 0.416360 0.210875 0.064185
O O12 0.750000 0.750000 0.500000
O O13 0.000000 0.816032 0.250000
O O14 0.856866 0.898249 0.652773
O O15 0.893779 0.790730 0.719178
#
# Coordination Sequence:
#
# PCOD9300497 Si02
#       7
#     8   8   8   8   8   8   8
#     4   9  15  27  47  67  94 125 157 185 230 295
#     4   9  16  32  47  61  92 127 161 197 230 274
#     4  11  20  31  44  65  99 128 157 198 235 277
#     4  12  23  33  48  68  90 127 172 202 232 266
#     4   8  15  27  45  67  88 126 159 181 233 290
#     4   8  16  28  46  67  90 129 156 184 236 291
#     4  11  17  28  48  70  97 126 154 186 243 289
#
# _framework density 20.805022999999998
#
# number of rings (size 3 to 8) (size 9 to 14) (size 15 to 20)
#    0.000    2.286    2.857    5.143    0.000    0.571 
#    0.000    0.000    0.000    0.000    0.000    0.000 
#    0.000   11.429    0.000    0.143    0.000    0.000 
#
# Total GULP energy -155910.307337 kJ/mol
# GULP energy per Si atom -5568.225262 kJ/mol
# Density = 2.075767 g / cm^3
# Si number density = 20.805023 Si / 1000 Ang^3
#
#
#
# Elastic Constant Matrix: (Units=GPa)
#
#
# Indices 1 2 3 4 5 6 
#
# 1 18.6551 3.8480 -2.2808 0.0005 -7.7289 -0.0001
# 2 3.8480 121.0445 12.2829 0.0007 2.5425 -0.0004
# 3 -2.2808 12.2829 34.6684 0.0017 -4.6401 -0.0008
# 4 0.0005 0.0007 0.0017 35.0349 -0.0009 -0.9199
# 5 -7.7289 2.5425 -4.6401 -0.0009 13.1924 0.0004
# 6 -0.0001 -0.0004 -0.0008 -0.9199 0.0004 32.2280
#
#
#
# Elastic Compliance Matrix: (Units=1/GPa)
#
#
# Indices 1 2 3 4 5 6 
#
# 1 0.077493 -0.004928 0.013692 0.000000 0.051166 0.000000
# 2 -0.004928 0.008986 -0.004330 0.000000 -0.006142 0.000000
# 3 0.013692 -0.004330 0.034069 -0.000001 0.020839 0.000001
# 4 0.000000 0.000000 -0.000001 0.028564 0.000001 0.000815
# 5 0.051166 -0.006142 0.020839 0.000001 0.114291 -0.000001
# 6 0.000000 0.000000 0.000001 0.000815 -0.000001 0.031052
#
#
# Mechanical properties :
#
#
# Convention : Reuss Voigt Hill
#
# Bulk Modulus (GPa) = 7.72692 22.45201 15.08947
# Shear Modulus (GPa) = 15.21023 26.79224 21.00123
#
# Velocity S-wave (km/s) = 2.70679 3.59245 3.18060
# Velocity P-wave (km/s) = 3.67301 5.29365 4.55597
#
# Compressibility (1/GPa) = 0.12941769
#
# Stress axis : x y z
#
# Youngs Moduli (GPa) = 12.90435 111.27826 29.35234
#
# Poissons Ratio (x) = 0.54834 -0.40190
# Poissons Ratio (y) = 0.06359 0.12710
# Poissons Ratio (z) = -0.17669 0.48185
#
# Static dielectric constant tensor:
#      x y z
#    x 1.800930 0.000000 0.053280 
#    y 0.000000 1.865380 0.000000 
#    z 0.053280 0.000000 1.760330 
# 
# From -- ./inp_files/62554.got.cif
#   From: 2010.05.17/outbox.cif.g08.bks.cpg/sg15_32_cif.got.tgz:62554.got - 2010.06.03 18:47:42.
