data_PCOD9300157
_publ_section_title
;
Structure prediction by ZEFSAII (Michael W. Deem and Ramdas Pophale) SiO2 
 PCOD9300157
Probable space group: C 2/C
;
_chemical_formula_sum "Si O2"
_cell_formula_units_Z 32
_cell_length_a 13.806356
_cell_length_b 16.052168
_cell_length_c 10.555175
_cell_angle_alpha 90.000000
_cell_angle_beta 147.889850
_cell_angle_gamma 90.000000
_cell_volume 1243.429633
_symmetry_space_group_name_H-M "C 2/C"
_symmetry_group_IT_number 15
_symmetry_cell_setting 'monoclinic'
loop_
_space_group_symop_operation_xyz
x,y,z
-x,y,1/2-z
-x,-y,-z
x,-y,1/2+z
1/2+x,1/2+y,z
1/2-x,1/2+y,1/2-z
1/2-x,1/2-y,-z
1/2+x,1/2-y,1/2+z
loop_
_atom_site_type_symbol
_atom_site_label
_atom_site_fract_x
_atom_site_fract_y
_atom_site_fract_z
Si Si1 0.302008 0.455521 0.585403
Si Si2 0.179111 0.657734 0.725551
Si Si3 0.129400 0.379859 0.797520
Si Si4 0.076767 0.157052 0.062009
O O1 0.500000 0.476974 0.750000
O O2 0.225566 0.382399 0.411359
O O3 0.182337 0.536098 0.428513
O O4 0.337403 0.419699 0.763609
O O5 0.127426 0.754460 0.680578
O O6 0.006578 0.611975 0.472432
O O7 0.359087 0.649283 0.835819
O O8 0.316973 0.343134 0.952664
O O9 0.000000 0.328455 0.750000
#
# Coordination Sequence:
#
# PCOD9300157 Si02
#       4
#     8   8   8   8
#     4  10  26  45  76 108 142 182 243 299 353 416
#     4  11  24  48  74 106 141 189 237 295 356 419
#     4  12  29  43  71 106 147 192 235 287 361 426
#     4  11  25  48  73 105 143 185 242 298 346 423
#
# _framework density 25.735271999999998
#
# number of rings (size 3 to 8) (size 9 to 14) (size 15 to 20)
#    0.000    1.000    2.500    1.500   10.500    3.000 
#    0.000    0.000    0.000    0.000    0.000    0.000 
#    0.000    0.000    0.000    0.000    0.000    0.000 
#
# Total GULP energy -89630.927894 kJ/mol
# GULP energy per Si atom -5601.932993 kJ/mol
# Density = 2.567670 g / cm^3
# Si number density = 25.735272 Si / 1000 Ang^3
#
#
#
# Elastic Constant Matrix: (Units=GPa)
#
#
# Indices 1 2 3 4 5 6 
#
# 1 97.3393 8.1144 21.6205 0.0000 35.7640 0.0000
# 2 8.1144 130.0003 51.6102 0.0000 4.2233 0.0000
# 3 21.6205 51.6102 145.6029 0.0000 29.0592 0.0000
# 4 0.0000 0.0000 0.0000 47.0378 0.0000 3.9746
# 5 35.7640 4.2233 29.0592 0.0000 33.5876 0.0000
# 6 0.0000 0.0000 0.0000 3.9746 0.0000 0.5853
#
#
#
# Elastic Compliance Matrix: (Units=1/GPa)
#
#
# Indices 1 2 3 4 5 6 
#
# 1 0.017227 -0.001144 0.001788 0.000000 -0.019746 0.000000
# 2 -0.001144 0.009136 -0.003725 0.000000 0.003292 0.000000
# 3 0.001788 -0.003725 0.009923 0.000000 -0.010021 0.000000
# 4 0.000000 0.000000 0.000000 0.049880 0.000000 -0.338708
# 5 -0.019746 0.003292 -0.010021 0.000000 0.059054 0.000000
# 6 0.000000 0.000000 0.000000 -0.338708 0.000000 4.008470
#
#
# Mechanical properties :
#
#
# Convention : Reuss Voigt Hill
#
# Bulk Modulus (GPa) = 33.19670 59.51473 46.35572
# Shear Modulus (GPa) = 1.19907 35.68198 18.44052
#
# Velocity S-wave (km/s) = 0.68333 3.72761 2.67974
# Velocity P-wave (km/s) = 3.68102 6.45777 5.25607
#
# Compressibility (1/GPa) = 0.03012348
#
# Stress axis : x y z
#
# Youngs Moduli (GPa) = 58.04997 109.46018 100.77674
#
# Poissons Ratio (x) = 0.12519 -0.18023
# Poissons Ratio (y) = 0.06639 0.37544
# Poissons Ratio (z) = -0.10381 0.40779
#
# Static dielectric constant tensor:
#      x y z
#    x 2.058680 0.000000 -0.027700 
#    y 0.000000 1.976960 0.000000 
#    z -0.027700 0.000000 1.995300 
# 
# From -- ./inp_files/87014.got.cif
#   From: 2010.05.17/outbox.cif.g08.bks.cpg/sg15_44_cif.got.tgz:87014.got - 2010.06.03 18:47:42.
