data_PCOD9300193
_publ_section_title
;
Structure prediction by ZEFSAII (Michael W. Deem and Ramdas Pophale) SiO2 
 PCOD9300193
Probable space group: C 2/C
;
_chemical_formula_sum "Si O2"
_cell_formula_units_Z 44
_cell_length_a 11.965435
_cell_length_b 8.891887
_cell_length_c 17.355946
_cell_angle_alpha 90.000000
_cell_angle_beta 108.878188
_cell_angle_gamma 90.000000
_cell_volume 1747.260300
_symmetry_space_group_name_H-M "C 2/C"
_symmetry_group_IT_number 15
_symmetry_cell_setting 'monoclinic'
loop_
_space_group_symop_operation_xyz
x,y,z
-x,y,1/2-z
-x,-y,-z
x,-y,1/2+z
1/2+x,1/2+y,z
1/2-x,1/2+y,1/2-z
1/2-x,1/2-y,-z
1/2+x,1/2-y,1/2+z
loop_
_atom_site_type_symbol
_atom_site_label
_atom_site_fract_x
_atom_site_fract_y
_atom_site_fract_z
Si Si1 0.629641 0.052395 0.551385
Si Si2 0.649025 0.166393 0.199792
Si Si3 0.000000 0.545624 0.750000
Si Si4 0.880008 0.761386 0.821856
Si Si5 0.310719 0.586502 0.996776
Si Si6 0.038106 0.939692 0.124027
O O1 0.633264 0.216086 0.591764
O O2 0.500000 0.000000 0.500000
O O3 0.669950 0.938384 0.629543
O O4 0.708216 0.030912 0.493913
O O5 0.760483 0.266553 0.248023
O O6 0.537270 0.275558 0.160114
O O7 0.612439 0.059079 0.262171
O O8 0.989290 0.658770 0.818964
O O9 0.903068 0.934325 0.810190
O O10 0.373091 0.585451 0.928156
O O11 0.250000 0.750000 0.000000
O O12 0.417891 0.522834 0.073483
#
# Coordination Sequence:
#
# PCOD9300193 Si02
#       6
#     8   8   4   8   8   8
#     4  11  25  45  74 105 149 192 245 309 377 432
#     4  11  25  47  71 108 144 194 249 290 371 450
#     4  10  26  46  70 100 156 184 234 304 364 426
#     4  11  26  45  72 108 143 195 242 301 371 438
#     4  11  24  45  72 102 149 184 240 316 363 431
#     4  11  25  43  75 108 136 194 253 288 374 444
#
# _framework density 25.182279999999999
#
# number of rings (size 3 to 8) (size 9 to 14) (size 15 to 20)
#    0.000    1.091    1.818    3.273    7.636    8.727 
#    0.000    0.000    0.000    0.000    0.000    0.000 
#    0.000    0.000    0.000    0.000    0.000    0.000 
#
# Total GULP energy -122887.511642 kJ/mol
# GULP energy per Si atom -5585.795984 kJ/mol
# Density = 2.512496 g / cm^3
# Si number density = 25.182280 Si / 1000 Ang^3
#
#
#
# Elastic Constant Matrix: (Units=GPa)
#
#
# Indices 1 2 3 4 5 6 
#
# 1 128.8891 28.9424 26.7365 0.0000 -4.5298 0.0000
# 2 28.9424 109.7311 -0.3646 0.0000 -6.9294 0.0000
# 3 26.7365 -0.3646 49.1408 0.0000 19.8596 0.0000
# 4 0.0000 0.0000 0.0000 24.2485 0.0000 2.9555
# 5 -4.5298 -6.9294 19.8596 0.0000 24.5831 0.0000
# 6 0.0000 0.0000 0.0000 2.9555 0.0000 44.0286
#
#
#
# Elastic Compliance Matrix: (Units=1/GPa)
#
#
# Indices 1 2 3 4 5 6 
#
# 1 0.010498 -0.002244 -0.009287 0.000000 0.008804 0.000000
# 2 -0.002244 0.009830 0.000506 0.000000 0.001948 0.000000
# 3 -0.009287 0.000506 0.038663 0.000000 -0.032803 0.000000
# 4 0.000000 0.000000 0.000000 0.041580 0.000000 -0.002791
# 5 0.008804 0.001948 -0.032803 0.000000 0.069350 0.000000
# 6 0.000000 0.000000 0.000000 -0.002791 0.000000 0.022900
#
#
# Mechanical properties :
#
#
# Convention : Reuss Voigt Hill
#
# Bulk Modulus (GPa) = 27.06902 44.26551 35.66726
# Shear Modulus (GPa) = 22.00872 34.06849 28.03861
#
# Velocity S-wave (km/s) = 2.95952 3.68214 3.34042
# Velocity P-wave (km/s) = 4.73824 5.97442 5.39187
#
# Compressibility (1/GPa) = 0.03694261
#
# Stress axis : x y z
#
# Youngs Moduli (GPa) = 95.25339 101.73218 25.86464
#
# Poissons Ratio (x) = 0.22827 0.24020
# Poissons Ratio (y) = 0.21374 -0.01310
# Poissons Ratio (z) = 0.88459 -0.05152
#
# Static dielectric constant tensor:
#      x y z
#    x 2.030620 0.000000 0.008270 
#    y 0.000000 2.033040 0.000000 
#    z 0.008270 0.000000 2.016350 
# 
# From -- ./inp_files/236207.got.cif
#   From: 2010.05.17/outbox.cif.g08.bks.cpg/sg15_119_cif.got.tgz:236207.got - 2010.06.03 18:47:42.
