data_PCOD9300699
_publ_section_title
;
Structure prediction by ZEFSAII (Michael W. Deem and Ramdas Pophale) SiO2 
 PCOD9300699
Probable space group: C 2/C
;
_chemical_formula_sum "Si O2"
_cell_formula_units_Z 48
_cell_length_a 22.944679
_cell_length_b 6.391560
_cell_length_c 14.235286
_cell_angle_alpha 90.000000
_cell_angle_beta 85.909393
_cell_angle_gamma 90.000000
_cell_volume 2082.319051
_symmetry_space_group_name_H-M "C 2/C"
_symmetry_group_IT_number 15
_symmetry_cell_setting 'monoclinic'
loop_
_space_group_symop_operation_xyz
x,y,z
-x,y,1/2-z
-x,-y,-z
x,-y,1/2+z
1/2+x,1/2+y,z
1/2-x,1/2+y,1/2-z
1/2-x,1/2-y,-z
1/2+x,1/2-y,1/2+z
loop_
_atom_site_type_symbol
_atom_site_label
_atom_site_fract_x
_atom_site_fract_y
_atom_site_fract_z
Si Si1 0.109226 0.064550 0.866585
Si Si2 0.761116 0.772506 0.138821
Si Si3 0.437223 0.111915 0.276464
Si Si4 0.603696 0.390078 0.063123
Si Si5 0.856452 0.226138 0.288933
Si Si6 0.202545 0.427510 0.495207
O O1 0.179296 0.100901 0.860051
O O2 0.082465 0.257877 0.812929
O O3 0.105318 0.862077 0.801490
O O4 0.085895 0.021855 0.973513
O O5 0.712786 0.745437 0.224782
O O6 0.719705 0.893273 0.068441
O O7 0.786112 0.550056 0.102068
O O8 0.500000 0.013519 0.250000
O O9 0.441629 0.277843 0.362033
O O10 0.387586 0.944767 0.307309
O O11 0.637860 0.551526 0.128560
O O12 0.643188 0.199235 0.018224
O O13 0.250000 0.250000 0.500000
#
# Coordination Sequence:
#
# PCOD9300699 Si02
#       6
#     8   8   8   8   8   8
#     4  11  27  40  70 107 132 179 238 286 345 423
#     4  11  22  35  64 106 146 181 220 268 350 415
#     4  11  28  50  69  94 137 186 237 295 348 404
#     4  11  23  45  71 101 140 181 230 285 349 409
#     4  11  25  42  66 104 143 183 222 287 347 416
#     4  11  19  35  66 103 143 182 214 271 345 418
#
# _framework density 23.051223
#
# number of rings (size 3 to 8) (size 9 to 14) (size 15 to 20)
#    0.000    1.000    5.000    1.000    4.667    3.333 
#    0.000    1.667    0.000    0.000    0.000    0.000 
#    0.000    0.000    0.000    0.000    0.000    0.000 
#
# Total GULP energy -133944.060943 kJ/mol
# GULP energy per Si atom -5581.002539 kJ/mol
# Density = 2.299876 g / cm^3
# Si number density = 23.051223 Si / 1000 Ang^3
#
#
#
# Elastic Constant Matrix: (Units=GPa)
#
#
# Indices 1 2 3 4 5 6 
#
# 1 78.5659 14.6422 13.4265 0.0000 -16.9126 0.0000
# 2 14.6422 96.4213 31.3602 0.0000 -5.3247 0.0000
# 3 13.4265 31.3602 95.8251 0.0000 0.1434 0.0000
# 4 0.0000 0.0000 0.0000 17.8247 0.0000 -7.6493
# 5 -16.9126 -5.3247 0.1434 0.0000 13.9491 0.0000
# 6 0.0000 0.0000 0.0000 -7.6493 0.0000 20.5176
#
#
#
# Elastic Compliance Matrix: (Units=1/GPa)
#
#
# Indices 1 2 3 4 5 6 
#
# 1 0.017868 -0.000792 -0.002276 0.000000 0.021386 0.000000
# 2 -0.000792 0.011927 -0.003798 0.000000 0.003632 0.000000
# 3 -0.002276 -0.003798 0.012004 0.000000 -0.004333 0.000000
# 4 0.000000 0.000000 0.000000 0.066787 0.000000 0.024899
# 5 0.021386 0.003632 -0.004333 0.000000 0.099049 0.000000
# 6 0.000000 0.000000 0.000000 0.024899 0.000000 0.058021
#
#
# Mechanical properties :
#
#
# Convention : Reuss Voigt Hill
#
# Bulk Modulus (GPa) = 35.62897 43.29667 39.46282
# Shear Modulus (GPa) = 17.31627 24.55050 20.93339
#
# Velocity S-wave (km/s) = 2.74379 3.26704 3.01678
# Velocity P-wave (km/s) = 5.05251 5.74934 5.41215
#
# Compressibility (1/GPa) = 0.02806705
#
# Stress axis : x y z
#
# Youngs Moduli (GPa) = 55.96464 83.84207 83.30542
#
# Poissons Ratio (x) = 0.06641 0.18964
# Poissons Ratio (y) = 0.04433 0.31638
# Poissons Ratio (z) = 0.12740 0.31842
#
# Static dielectric constant tensor:
#      x y z
#    x 1.848470 0.000000 -0.010720 
#    y 0.000000 1.903360 0.000000 
#    z -0.010720 0.000000 2.088450 
# 
# From -- ./inp_files/175701.got.cif
#   From: 2010.05.17/outbox.cif.g08.bks.cpg/sg15_88_cif.got.tgz:175701.got - 2010.06.03 18:47:42.
