data_PCOD9300949
_publ_section_title
;
Structure prediction by ZEFSAII (Michael W. Deem and Ramdas Pophale) SiO2 
 PCOD9300949
Probable space group: C 2/C
;
_chemical_formula_sum "Si O2"
_cell_formula_units_Z 36
_cell_length_a 24.174016
_cell_length_b 7.334194
_cell_length_c 23.429546
_cell_angle_alpha 90.000000
_cell_angle_beta 162.641336
_cell_angle_gamma 90.000000
_cell_volume 1239.351312
_symmetry_space_group_name_H-M "C 2/C"
_symmetry_group_IT_number 15
_symmetry_cell_setting 'monoclinic'
loop_
_space_group_symop_operation_xyz
x,y,z
-x,y,1/2-z
-x,-y,-z
x,-y,1/2+z
1/2+x,1/2+y,z
1/2-x,1/2+y,1/2-z
1/2-x,1/2-y,-z
1/2+x,1/2-y,1/2+z
loop_
_atom_site_type_symbol
_atom_site_label
_atom_site_fract_x
_atom_site_fract_y
_atom_site_fract_z
Si Si1 0.000000 0.882571 0.250000
Si Si2 0.247375 0.896363 0.395185
Si Si3 0.550212 0.555934 0.484470
Si Si4 0.975861 0.516411 0.908672
Si Si5 0.120299 0.752467 0.910426
O O1 0.142768 0.793827 0.344794
O O2 0.097561 0.026893 0.389920
O O3 0.413784 0.855149 0.514648
O O4 0.352797 0.062678 0.531234
O O5 0.102331 0.977591 0.207652
O O6 0.500000 0.500000 0.500000
O O7 0.540894 0.774164 0.464077
O O8 0.761763 0.503133 0.681768
O O9 0.872432 0.726687 0.653998
O O10 0.000000 0.500000 0.000000
#
# Coordination Sequence:
#
# PCOD9300949 Si02
#       5
#     4   8   8   8   8
#     4   8  18  30  50  84 116 164 184 242 308 370
#     4  11  20  34  58  80 127 158 199 244 312 365
#     4  12  24  40  61  88 123 165 208 251 304 362
#     4  12  24  39  59  88 123 162 208 252 301 358
#     4   8  16  26  43  71 113 147 185 219 295 350
#
# _framework density 29.047452
#
# number of rings (size 3 to 8) (size 9 to 14) (size 15 to 20)
#    0.667    0.889    4.444    1.333    0.000    1.778 
#    0.000    0.000    0.000    0.000    0.000    1.556 
#    3.333    0.222    0.000    0.000    0.000    0.000 
#
# Total GULP energy -100288.872879 kJ/mol
# GULP energy per Si atom -5571.604049 kJ/mol
# Density = 2.898134 g / cm^3
# Si number density = 29.047452 Si / 1000 Ang^3
#
#
#
# Elastic Constant Matrix: (Units=GPa)
#
#
# Indices 1 2 3 4 5 6 
#
# 1 183.5967 11.7031 45.8606 0.0007 22.4965 -0.0002
# 2 11.7031 108.8392 49.6340 0.0015 11.9906 0.0008
# 3 45.8606 49.6340 226.1917 0.0031 14.7912 0.0012
# 4 0.0007 0.0015 0.0031 23.1569 0.0017 -35.2008
# 5 22.4965 11.9906 14.7912 0.0017 67.6403 0.0004
# 6 -0.0002 0.0008 0.0012 -35.2008 0.0004 1.8775
#
#
#
# Elastic Compliance Matrix: (Units=1/GPa)
#
#
# Indices 1 2 3 4 5 6 
#
# 1 0.005932 0.000056 -0.001101 0.000000 -0.001742 0.000000
# 2 0.000056 0.010331 -0.002189 0.000000 -0.001371 0.000000
# 3 -0.001101 -0.002189 0.005149 0.000000 -0.000372 0.000000
# 4 0.000000 0.000000 0.000000 -0.001570 0.000000 -0.029441
# 5 -0.001742 -0.001371 -0.000372 0.000000 0.015688 0.000001
# 6 0.000000 0.000000 0.000000 -0.029441 0.000001 -0.019368
#
#
# Mechanical properties :
#
#
# Convention : Reuss Voigt Hill
#
# Bulk Modulus (GPa) = 66.91454 81.44700 74.18077
# Shear Modulus (GPa) = 181.09770 45.96362 113.53066
#
# Velocity S-wave (km/s) = 7.90448 3.98221 6.25855
# Velocity P-wave (km/s) = 10.31475 7.01742 8.82151
#
# Compressibility (1/GPa) = 0.01494444
#
# Stress axis : x y z
#
# Youngs Moduli (GPa) = 168.58795 96.79588 194.21810
#
# Poissons Ratio (x) = -0.00544 0.21385
# Poissons Ratio (y) = -0.00948 0.42508
# Poissons Ratio (z) = 0.18563 0.21186
#
# Static dielectric constant tensor:
#      x y z
#    x 3.684760 -0.000050 0.033120 
#    y -0.000050 1.767070 0.000030 
#    z 0.033120 0.000030 3.005550 
# 
# From -- ./inp_files/214717.got.cif
#   From: 2010.05.17/outbox.cif.g08.bks.cpg/sg15_108_cif.got.tgz:214717.got - 2010.06.03 18:47:42.
