data_PCOD9300131
_publ_section_title
;
Structure prediction by ZEFSAII (Michael W. Deem and Ramdas Pophale) SiO2 
 PCOD9300131
Probable space group: C 2/C
;
_chemical_formula_sum "Si O2"
_cell_formula_units_Z 44
_cell_length_a 12.893692
_cell_length_b 8.224179
_cell_length_c 17.572270
_cell_angle_alpha 90.000000
_cell_angle_beta 67.549340
_cell_angle_gamma 90.000000
_cell_volume 1722.137338
_symmetry_space_group_name_H-M "C 2/C"
_symmetry_group_IT_number 15
_symmetry_cell_setting 'monoclinic'
loop_
_space_group_symop_operation_xyz
x,y,z
-x,y,1/2-z
-x,-y,-z
x,-y,1/2+z
1/2+x,1/2+y,z
1/2-x,1/2+y,1/2-z
1/2-x,1/2-y,-z
1/2+x,1/2-y,1/2+z
loop_
_atom_site_type_symbol
_atom_site_label
_atom_site_fract_x
_atom_site_fract_y
_atom_site_fract_z
Si Si1 0.014567 0.620493 0.085693
Si Si2 0.092213 0.122364 0.442599
Si Si3 0.754508 0.518335 0.144221
Si Si4 0.850703 0.712990 0.724808
Si Si5 0.500000 0.923783 0.750000
Si Si6 0.728365 0.937745 0.023431
O O1 0.021509 0.685239 0.169878
O O2 0.095991 0.464723 0.068575
O O3 0.885541 0.579227 0.104059
O O4 0.071975 0.727115 0.004876
O O5 0.083326 0.184165 0.358529
O O6 0.207748 0.024552 0.425294
O O7 0.000000 0.000000 0.500000
O O8 0.751557 0.364845 0.201206
O O9 0.686258 0.665521 0.199409
O O10 0.724084 0.478019 0.066649
O O11 0.907874 0.554440 0.745747
O O12 0.750000 0.750000 0.000000
#
# Coordination Sequence:
#
# PCOD9300131 Si02
#       6
#     8   8   8   8   4   8
#     4  11  25  49  73 106 144 195 242 306 362 437
#     4  12  29  47  74 108 150 191 250 299 368 441
#     4  11  26  44  74 102 149 183 246 297 372 433
#     4  11  27  48  70 109 144 191 240 308 362 440
#     4  10  26  44  78 100 148 190 252 294 376 420
#     4  12  26  44  76 102 143 192 241 297 368 435
#
# _framework density 25.549645999999999
#
# number of rings (size 3 to 8) (size 9 to 14) (size 15 to 20)
#    0.000    0.727    1.818    3.273   20.364    0.000 
#    0.000    0.000    0.000    0.000    0.000    0.000 
#    0.000    0.000    0.000    0.000    0.000    0.000 
#
# Total GULP energy -123093.043445 kJ/mol
# GULP energy per Si atom -5595.138338 kJ/mol
# Density = 2.549149 g / cm^3
# Si number density = 25.549646 Si / 1000 Ang^3
#
#
#
# Elastic Constant Matrix: (Units=GPa)
#
#
# Indices 1 2 3 4 5 6 
#
# 1 63.4646 6.0427 19.4603 0.0000 -5.0658 0.0000
# 2 6.0427 57.0395 -3.2173 0.0000 -19.0690 0.0000
# 3 19.4603 -3.2173 118.0007 0.0000 4.2251 0.0000
# 4 0.0000 0.0000 0.0000 55.2896 0.0000 -5.1860
# 5 -5.0658 -19.0690 4.2251 0.0000 37.3907 0.0000
# 6 0.0000 0.0000 0.0000 -5.1860 0.0000 34.6758
#
#
#
# Elastic Compliance Matrix: (Units=1/GPa)
#
#
# Indices 1 2 3 4 5 6 
#
# 1 0.016925 -0.001302 -0.002897 0.000000 0.001956 0.000000
# 2 -0.001302 0.021240 0.000414 0.000000 0.010609 0.000000
# 3 -0.002897 0.000414 0.009006 0.000000 -0.001199 0.000000
# 4 0.000000 0.000000 0.000000 0.018344 0.000000 0.002743
# 5 0.001956 0.010609 -0.001199 0.000000 0.032556 0.000000
# 6 0.000000 0.000000 0.000000 0.002743 0.000000 0.029249
#
#
# Mechanical properties :
#
#
# Convention : Reuss Voigt Hill
#
# Bulk Modulus (GPa) = 25.25190 31.45289 28.35240
# Shear Modulus (GPa) = 33.76313 39.88583 36.82448
#
# Velocity S-wave (km/s) = 3.63915 3.95538 3.80055
# Velocity P-wave (km/s) = 5.25003 5.76170 5.51181
#
# Compressibility (1/GPa) = 0.03960098
#
# Stress axis : x y z
#
# Youngs Moduli (GPa) = 59.08342 47.08157 111.03121
#
# Poissons Ratio (x) = 0.06132 0.32164
# Poissons Ratio (y) = 0.07695 -0.04597
# Poissons Ratio (z) = 0.17115 -0.01949
#
# Static dielectric constant tensor:
#      x y z
#    x 2.076490 0.000000 0.029980 
#    y 0.000000 2.121050 0.000000 
#    z 0.029980 0.000000 2.099460 
# 
# From -- ./inp_files/202787.got.cif
#   From: 2010.05.17/outbox.cif.g08.bks.cpg/sg15_102_cif.got.tgz:202787.got - 2010.06.03 18:47:42.
