data_PCOD9300484
_publ_section_title
;
Structure prediction by ZEFSAII (Michael W. Deem and Ramdas Pophale) SiO2 
 PCOD9300484
Probable space group: C 2/C
;
_chemical_formula_sum "Si O2"
_cell_formula_units_Z 36
_cell_length_a 13.004444
_cell_length_b 14.619507
_cell_length_c 10.451023
_cell_angle_alpha 90.000000
_cell_angle_beta 142.263834
_cell_angle_gamma 90.000000
_cell_volume 1216.055626
_symmetry_space_group_name_H-M "C 2/C"
_symmetry_group_IT_number 15
_symmetry_cell_setting 'monoclinic'
loop_
_space_group_symop_operation_xyz
x,y,z
-x,y,1/2-z
-x,-y,-z
x,-y,1/2+z
1/2+x,1/2+y,z
1/2-x,1/2+y,1/2-z
1/2-x,1/2-y,-z
1/2+x,1/2-y,1/2+z
loop_
_atom_site_type_symbol
_atom_site_label
_atom_site_fract_x
_atom_site_fract_y
_atom_site_fract_z
Si Si1 0.792422 0.057187 0.768979
Si Si2 0.790821 0.894663 0.968763
Si Si3 0.571199 0.334858 0.685855
Si Si4 0.000000 0.276139 0.750000
Si Si5 0.527782 0.873281 0.416559
O O1 0.600107 0.077109 0.613791
O O2 0.808448 0.061914 0.629440
O O3 0.920542 0.133273 0.944887
O O4 0.832319 0.971177 0.903930
O O5 0.729923 0.860612 0.629799
O O6 0.608477 0.297365 0.435432
O O7 0.557474 0.226142 0.676449
O O8 0.500000 0.371305 0.750000
O O9 0.110313 0.346706 0.778139
O O10 0.500000 0.919356 0.250000
#
# Coordination Sequence:
#
# PCOD9300484 Si02
#       5
#     8   8   8   4   8
#     4  12  28  53  88 132 175 237 303 382 434 555
#     4  11  30  58  90 130 185 233 310 367 468 531
#     4  11  21  41  73 126 177 225 291 375 452 528
#     4  10  28  62  88 128 178 254 284 380 460 562
#     4  11  21  41  73 126 177 225 291 375 452 528
#
# _framework density 29.603909000000002
#
# number of rings (size 3 to 8) (size 9 to 14) (size 15 to 20)
#    0.000    0.889    4.444    1.333    6.222    1.778 
#    8.000    4.444    0.000    0.000    0.000    0.000 
#    0.000    0.000    0.000    0.000    0.000    0.000 
#
# Total GULP energy -100744.874649 kJ/mol
# GULP energy per Si atom -5596.937480 kJ/mol
# Density = 2.953653 g / cm^3
# Si number density = 29.603909 Si / 1000 Ang^3
#
#
#
# Elastic Constant Matrix: (Units=GPa)
#
#
# Indices 1 2 3 4 5 6 
#
# 1 195.1271 9.6077 60.1980 0.0000 -8.6610 0.0000
# 2 9.6077 80.8815 29.5492 0.0000 -20.4916 0.0000
# 3 60.1980 29.5492 168.4378 0.0000 -7.1331 0.0000
# 4 0.0000 0.0000 0.0000 76.4090 0.0000 12.4330
# 5 -8.6610 -20.4916 -7.1331 0.0000 74.1544 0.0000
# 6 0.0000 0.0000 0.0000 12.4330 0.0000 69.8161
#
#
#
# Elastic Compliance Matrix: (Units=1/GPa)
#
#
# Indices 1 2 3 4 5 6 
#
# 1 0.005780 0.000208 -0.002080 0.000000 0.000533 0.000000
# 2 0.000208 0.014155 -0.002401 0.000000 0.003705 0.000000
# 3 -0.002080 -0.002401 0.007092 0.000000 -0.000224 0.000000
# 4 0.000000 0.000000 0.000000 0.013478 0.000000 -0.002400
# 5 0.000533 0.003705 -0.000224 0.000000 0.014550 0.000000
# 6 0.000000 0.000000 0.000000 -0.002400 0.000000 0.014751
#
#
# Mechanical properties :
#
#
# Convention : Reuss Voigt Hill
#
# Bulk Modulus (GPa) = 54.10655 71.46178 62.78417
# Shear Modulus (GPa) = 59.16462 67.08199 63.12331
#
# Velocity S-wave (km/s) = 4.47535 4.76540 4.62265
# Velocity P-wave (km/s) = 6.70981 7.38041 7.05308
#
# Compressibility (1/GPa) = 0.01848205
#
# Stress axis : x y z
#
# Youngs Moduli (GPa) = 173.01555 70.64774 141.00789
#
# Poissons Ratio (x) = -0.01470 0.29324
# Poissons Ratio (y) = -0.03601 0.33851
# Poissons Ratio (z) = 0.35980 0.16960
#
# Static dielectric constant tensor:
#      x y z
#    x 2.395600 0.000000 -0.067670 
#    y 0.000000 2.293750 0.000000 
#    z -0.067670 0.000000 2.407550 
# 
# From -- ./inp_files/49936.got.cif
#   From: 2010.05.17/outbox.cif.g08.bks.cpg/sg15_25_cif.got.tgz:49936.got - 2010.06.03 18:47:42.
