data_PCOD9301034
_publ_section_title
;
Structure prediction by ZEFSAII (Michael W. Deem and Ramdas Pophale) SiO2 
 PCOD9301034
Probable space group: C 2/C
;
_chemical_formula_sum "Si O2"
_cell_formula_units_Z 64
_cell_length_a 32.163213
_cell_length_b 11.279592
_cell_length_c 18.894518
_cell_angle_alpha 90.000000
_cell_angle_beta 26.073506
_cell_angle_gamma 90.000000
_cell_volume 3012.805527
_symmetry_space_group_name_H-M "C 2/C"
_symmetry_group_IT_number 15
_symmetry_cell_setting 'monoclinic'
loop_
_space_group_symop_operation_xyz
x,y,z
-x,y,1/2-z
-x,-y,-z
x,-y,1/2+z
1/2+x,1/2+y,z
1/2-x,1/2+y,1/2-z
1/2-x,1/2-y,-z
1/2+x,1/2-y,1/2+z
loop_
_atom_site_type_symbol
_atom_site_label
_atom_site_fract_x
_atom_site_fract_y
_atom_site_fract_z
Si Si1 0.937873 0.759300 0.278329
Si Si2 0.260580 0.146697 0.370795
Si Si3 0.711118 0.076580 0.569919
Si Si4 0.056907 0.188908 0.890221
Si Si5 0.812661 0.489719 0.168761
Si Si6 0.514237 0.020347 0.808509
Si Si7 0.187845 0.986150 0.731026
Si Si8 0.649746 0.771824 0.284883
O O1 0.829449 0.777711 0.467117
O O2 0.954214 0.822929 0.178080
O O3 0.000000 0.802088 0.250000
O O4 0.963833 0.621234 0.226244
O O5 0.354544 0.224513 0.232451
O O6 0.274297 0.037686 0.403191
O O7 0.253217 0.082779 0.306178
O O8 0.774731 0.044421 0.404865
O O9 0.714058 0.188582 0.619294
O O10 0.604116 0.079951 0.705623
O O11 0.094642 0.066697 0.866964
O O12 0.960850 0.249787 0.065006
O O13 0.763640 0.457942 0.169123
O O14 0.833199 0.373603 0.183942
O O15 0.916087 0.543155 0.997211
O O16 0.500000 0.059332 0.750000
O O17 0.174432 0.854136 0.780245
#
# Coordination Sequence:
#
# PCOD9301034 Si02
#       8
#     8   8   8   8   8   8   8   8
#     4  11  23  36  65  97 137 162 212 286 336 386
#     4  11  23  41  66 100 127 168 221 277 342 388
#     4  11  21  43  67  92 131 176 217 271 330 404
#     4  12  23  41  69  96 131 172 224 276 329 397
#     4  11  25  41  68  95 133 168 217 281 329 399
#     4  11  20  36  64 100 123 160 216 278 328 377
#     4  12  26  41  68  94 131 180 224 261 336 408
#     4  11  26  45  61  96 136 176 218 270 335 394
#
# _framework density 21.242657999999999
#
# number of rings (size 3 to 8) (size 9 to 14) (size 15 to 20)
#    0.000    0.750    5.000    2.625    5.250    2.000 
#    0.000    0.000    0.000    0.750    0.000    0.000 
#    0.000    0.000    0.000    0.000    0.000    0.000 
#
# Total GULP energy -178703.084606 kJ/mol
# GULP energy per Si atom -5584.471394 kJ/mol
# Density = 2.119431 g / cm^3
# Si number density = 21.242658 Si / 1000 Ang^3
#
#
#
# Elastic Constant Matrix: (Units=GPa)
#
#
# Indices 1 2 3 4 5 6 
#
# 1 83.8037 36.0645 -4.6961 0.0000 2.3694 0.0000
# 2 36.0645 -65.6457 14.9820 0.0000 5.1646 0.0000
# 3 -4.6961 14.9820 73.4099 0.0000 5.7680 0.0000
# 4 0.0000 0.0000 0.0000 46.6995 0.0000 21.1147
# 5 2.3694 5.1646 5.7680 0.0000 32.4460 0.0000
# 6 0.0000 0.0000 0.0000 21.1147 0.0000 40.2357
#
#
#
# Elastic Compliance Matrix: (Units=1/GPa)
#
#
# Indices 1 2 3 4 5 6 
#
# 1 0.009736 0.005161 -0.000314 0.000000 -0.001477 0.000000
# 2 0.005161 -0.011715 0.002641 0.000000 0.001018 0.000000
# 3 -0.000314 0.002641 0.013280 0.000000 -0.002758 0.000000
# 4 0.000000 0.000000 0.000000 0.028075 0.000000 -0.014733
# 5 -0.001477 0.001018 -0.002758 0.000000 0.031256 0.000000
# 6 0.000000 0.000000 0.000000 -0.014733 0.000000 0.032585
#
#
# Mechanical properties :
#
#
# Convention : Reuss Voigt Hill
#
# Bulk Modulus (GPa) = 38.05865 20.47431 29.26648
# Shear Modulus (GPa) = 51.54617 26.89074 39.21846
#
# Velocity S-wave (km/s) = 4.93134 3.56179 4.30142
# Velocity P-wave (km/s) = 7.09783 5.15503 6.20296
#
# Compressibility (1/GPa) = 0.02627523
#
# Stress axis : x y z
#
# Youngs Moduli (GPa) = 102.71312 -85.35930 75.30267
#
# Poissons Ratio (x) = 0.44052 0.02368
# Poissons Ratio (y) = -0.53008 -0.19888
# Poissons Ratio (z) = 0.03229 0.22544
#
# Static dielectric constant tensor:
#      x y z
#    x 1.646430 0.000000 0.098000 
#    y 0.000000 1.783030 0.000000 
#    z 0.098000 0.000000 1.734180 
# 
# From -- ./inp_files/225149.got.cif
#   From: 2010.05.17/outbox.cif.g08.bks.cpg/sg15_113_cif.got.tgz:225149.got - 2010.06.03 18:47:42.
