data_PCOD9301586
_publ_section_title
;
Structure prediction by ZEFSAII (Michael W. Deem and Ramdas Pophale) SiO2 
 PCOD9301586
Probable space group: C 2/C
;
_chemical_formula_sum "Si O2"
_cell_formula_units_Z 48
_cell_length_a 19.870035
_cell_length_b 22.110538
_cell_length_c 14.561614
_cell_angle_alpha 90.000000
_cell_angle_beta 163.040508
_cell_angle_gamma 90.000000
_cell_volume 1866.109935
_symmetry_space_group_name_H-M "C 2/C"
_symmetry_group_IT_number 15
_symmetry_cell_setting 'monoclinic'
loop_
_space_group_symop_operation_xyz
x,y,z
-x,y,1/2-z
-x,-y,-z
x,-y,1/2+z
1/2+x,1/2+y,z
1/2-x,1/2+y,1/2-z
1/2-x,1/2-y,-z
1/2+x,1/2-y,1/2+z
loop_
_atom_site_type_symbol
_atom_site_label
_atom_site_fract_x
_atom_site_fract_y
_atom_site_fract_z
Si Si1 0.078443 0.120751 0.449254
Si Si2 0.552178 0.744537 0.635361
Si Si3 0.921052 0.432172 0.876454
Si Si4 0.286620 0.858715 0.537520
Si Si5 0.322541 0.890371 0.943540
Si Si6 0.096032 0.255047 0.509099
O O1 0.342562 0.107247 0.816512
O O2 0.017419 0.191799 0.366191
O O3 0.000000 0.093286 0.250000
O O4 0.920103 0.099879 0.324924
O O5 0.661498 0.800692 0.830466
O O6 0.276244 0.751433 0.333274
O O7 0.391276 0.754547 0.332613
O O8 0.600889 0.675203 0.729630
O O9 0.000000 0.500000 0.000000
O O10 0.774851 0.413593 0.595429
O O11 0.799589 0.415627 0.812294
O O12 0.500000 0.873211 0.750000
O O13 0.422073 0.822285 0.053964
O O14 0.500000 0.917569 0.250000
#
# Coordination Sequence:
#
# PCOD9301586 Si02
#       6
#     8   8   8   8   8   8
#     4  12  25  45  74 106 147 192 244 306 374 448
#     4  11  21  36  65 102 146 178 226 292 375 452
#     4  12  28  52  73 103 148 200 260 306 363 454
#     4  11  22  40  65 101 142 190 232 296 373 429
#     4  12  26  45  75 108 145 195 241 308 380 442
#     4  12  21  40  69 109 149 184 230 298 383 457
#
# _framework density 25.721957
#
# number of rings (size 3 to 8) (size 9 to 14) (size 15 to 20)
#    0.000    0.333    8.333    0.500    0.000    2.667 
#    0.000    1.667    0.000    0.000    0.000    0.000 
#    0.000    0.000    0.000    0.000    0.000    0.000 
#
# Total GULP energy -133843.844084 kJ/mol
# GULP energy per Si atom -5576.826837 kJ/mol
# Density = 2.566341 g / cm^3
# Si number density = 25.721957 Si / 1000 Ang^3
#
#
#
# Elastic Constant Matrix: (Units=GPa)
#
#
# Indices 1 2 3 4 5 6 
#
# 1 213.4872 45.1300 39.2804 0.0001 -5.0232 0.0000
# 2 45.1300 96.4914 -6.7530 0.0000 -12.0810 0.0000
# 3 39.2804 -6.7530 51.1951 0.0001 4.1194 0.0001
# 4 0.0001 0.0000 0.0001 16.0361 0.0002 -0.9485
# 5 -5.0232 -12.0810 4.1194 0.0002 34.4627 0.0000
# 6 0.0000 0.0000 0.0001 -0.9485 0.0000 10.0848
#
#
#
# Elastic Compliance Matrix: (Units=1/GPa)
#
#
# Indices 1 2 3 4 5 6 
#
# 1 0.006380 -0.003308 -0.005365 0.000000 0.000412 0.000000
# 2 -0.003308 0.012620 0.003923 0.000000 0.003473 0.000000
# 3 -0.005365 0.003923 0.024353 0.000000 -0.002318 0.000000
# 4 0.000000 0.000000 0.000000 0.062708 0.000000 0.005898
# 5 0.000412 0.003473 -0.002318 0.000000 0.030571 0.000000
# 6 0.000000 0.000000 0.000000 0.005898 0.000000 0.099714
#
#
# Mechanical properties :
#
#
# Convention : Reuss Voigt Hill
#
# Bulk Modulus (GPa) = 29.53782 57.38760 43.46271
# Shear Modulus (GPa) = 19.44532 31.01781 25.23157
#
# Velocity S-wave (km/s) = 2.75249 3.47636 3.13539
# Velocity P-wave (km/s) = 4.64866 6.20263 5.48100
#
# Compressibility (1/GPa) = 0.03385490
#
# Stress axis : x y z
#
# Youngs Moduli (GPa) = 156.73522 79.23811 41.06210
#
# Poissons Ratio (x) = 0.26212 0.22029
# Poissons Ratio (y) = 0.51848 -0.16110
# Poissons Ratio (z) = 0.84085 -0.31088
#
# Static dielectric constant tensor:
#      x y z
#    x 3.285580 0.000000 0.790070 
#    y 0.000000 1.947390 0.000000 
#    z 0.790070 0.000000 2.616150 
# 
# From -- ./inp_files/169722.got.cif
#   From: 2010.05.17/outbox.cif.g08.bks.cpg/sg15_85_cif.got.tgz:169722.got - 2010.06.03 18:47:42.
