data_PCOD9301424
_publ_section_title
;
Structure prediction by ZEFSAII (Michael W. Deem and Ramdas Pophale) SiO2 
 PCOD9301424
Probable space group: C 2/C
;
_chemical_formula_sum "Si O2"
_cell_formula_units_Z 60
_cell_length_a 20.993729
_cell_length_b 17.735282
_cell_length_c 7.961569
_cell_angle_alpha 90.000000
_cell_angle_beta 73.752512
_cell_angle_gamma 90.000000
_cell_volume 2845.939634
_symmetry_space_group_name_H-M "C 2/C"
_symmetry_group_IT_number 15
_symmetry_cell_setting 'monoclinic'
loop_
_space_group_symop_operation_xyz
x,y,z
-x,y,1/2-z
-x,-y,-z
x,-y,1/2+z
1/2+x,1/2+y,z
1/2-x,1/2+y,1/2-z
1/2-x,1/2-y,-z
1/2+x,1/2-y,1/2+z
loop_
_atom_site_type_symbol
_atom_site_label
_atom_site_fract_x
_atom_site_fract_y
_atom_site_fract_z
Si Si1 0.467858 0.575160 0.954963
Si Si2 0.356093 0.077301 0.866603
Si Si3 0.500000 0.851000 0.250000
Si Si4 0.017052 0.236627 0.936934
Si Si5 0.649392 0.760634 0.678738
Si Si6 0.683410 0.912632 0.488000
Si Si7 0.240416 0.313425 0.870878
Si Si8 0.175589 0.117347 0.441871
O O1 0.500000 0.584761 0.750000
O O2 0.488466 0.656013 0.019080
O O3 0.500000 0.500000 0.000000
O O4 0.388670 0.565128 0.008866
O O5 0.432884 0.100546 0.807559
O O6 0.322954 0.089881 0.708194
O O7 0.316938 0.129967 0.027406
O O8 0.346864 0.990896 0.925827
O O9 0.504734 0.799151 0.413604
O O10 0.096642 0.240686 0.862042
O O11 0.000000 0.250572 0.750000
O O12 0.643239 0.841627 0.594468
O O13 0.719530 0.768058 0.719401
O O14 0.649044 0.693890 0.546932
O O15 0.759282 0.908836 0.502576
O O16 0.301688 0.363682 0.764181
O O17 0.250000 0.250000 0.000000
#
# Coordination Sequence:
#
# PCOD9301424 Si02
#       8
#     8   8   4   8   8   8   8   8
#     4  11  26  46  68 102 141 181 238 291 363 429
#     4  12  26  47  65 105 142 188 232 297 352 425
#     4  12  28  46  76 106 144 188 246 284 364 426
#     4  11  23  46  74  99 141 186 232 296 351 426
#     4  11  20  44  70  98 132 179 235 291 351 415
#     4  11  25  44  70  98 144 180 239 292 358 420
#     4  11  23  40  67 103 135 176 241 284 345 425
#     4  11  23  45  73 100 135 190 229 294 360 414
#
# _framework density 21.082668000000002
#
# number of rings (size 3 to 8) (size 9 to 14) (size 15 to 20)
#    0.000    0.800    4.000    5.600    2.800    2.667 
#    3.600    0.000    0.000    0.000    0.000    0.000 
#    0.000    0.000    0.000    0.000    0.000    0.000 
#
# Total GULP energy -167564.323362 kJ/mol
# GULP energy per Si atom -5585.477445 kJ/mol
# Density = 2.103468 g / cm^3
# Si number density = 21.082668 Si / 1000 Ang^3
#
#
#
# Elastic Constant Matrix: (Units=GPa)
#
#
# Indices 1 2 3 4 5 6 
#
# 1 109.8150 64.9896 35.3520 0.0000 -24.1546 0.0000
# 2 64.9896 131.3678 31.0044 0.0000 -3.2792 0.0000
# 3 35.3520 31.0044 87.5571 0.0000 -9.2408 0.0000
# 4 0.0000 0.0000 0.0000 4.4708 0.0000 0.6993
# 5 -24.1546 -3.2792 -9.2408 0.0000 44.3754 0.0000
# 6 0.0000 0.0000 0.0000 0.6993 0.0000 32.0369
#
#
#
# Elastic Compliance Matrix: (Units=1/GPa)
#
#
# Indices 1 2 3 4 5 6 
#
# 1 0.015857 -0.006911 -0.003168 0.000000 0.007461 0.000000
# 2 -0.006911 0.011318 -0.001561 0.000000 -0.003250 0.000000
# 3 -0.003168 -0.001561 0.013352 0.000000 0.000941 0.000000
# 4 0.000000 0.000000 0.000000 0.224439 0.000000 -0.004899
# 5 0.007461 -0.003250 0.000941 0.000000 0.026552 0.000000
# 6 0.000000 0.000000 0.000000 -0.004899 0.000000 0.031321
#
#
# Mechanical properties :
#
#
# Convention : Reuss Voigt Hill
#
# Bulk Modulus (GPa) = 57.97475 65.71465 61.84470
# Shear Modulus (GPa) = 14.20990 29.33622 21.77306
#
# Velocity S-wave (km/s) = 2.59898 3.73431 3.21712
# Velocity P-wave (km/s) = 6.04688 7.05911 6.57251
#
# Compressibility (1/GPa) = 0.01724889
#
# Stress axis : x y z
#
# Youngs Moduli (GPa) = 63.06368 88.35268 74.89477
#
# Poissons Ratio (x) = 0.61059 0.23725
# Poissons Ratio (y) = 0.43582 0.11688
# Poissons Ratio (z) = 0.19977 0.13788
#
# Static dielectric constant tensor:
#      x y z
#    x 1.856800 0.000000 -0.005440 
#    y 0.000000 1.797500 0.000000 
#    z -0.005440 0.000000 1.780810 
# 
# From -- ./inp_files/56567.got.cif
#   From: 2010.05.17/outbox.cif.g08.bks.cpg/sg15_29_cif.got.tgz:56567.got - 2010.06.03 18:47:42.
