data_PCOD9301069
_publ_section_title
;
Structure prediction by ZEFSAII (Michael W. Deem and Ramdas Pophale) SiO2 
 PCOD9301069
Probable space group: C 2/C
;
_chemical_formula_sum "Si O2"
_cell_formula_units_Z 48
_cell_length_a 19.315248
_cell_length_b 13.755530
_cell_length_c 20.119771
_cell_angle_alpha 90.000000
_cell_angle_beta 28.407691
_cell_angle_gamma 90.000000
_cell_volume 2543.152496
_symmetry_space_group_name_H-M "C 2/C"
_symmetry_group_IT_number 15
_symmetry_cell_setting 'monoclinic'
loop_
_space_group_symop_operation_xyz
x,y,z
-x,y,1/2-z
-x,-y,-z
x,-y,1/2+z
1/2+x,1/2+y,z
1/2-x,1/2+y,1/2-z
1/2-x,1/2-y,-z
1/2+x,1/2-y,1/2+z
loop_
_atom_site_type_symbol
_atom_site_label
_atom_site_fract_x
_atom_site_fract_y
_atom_site_fract_z
Si Si1 0.201717 0.229058 0.348858
Si Si2 0.435950 0.482441 0.369036
Si Si3 0.616506 0.921060 0.596733
Si Si4 0.576379 0.443855 0.874127
Si Si5 0.517126 0.721591 0.628193
Si Si6 0.633735 0.047930 0.925074
O O1 0.134660 0.160405 0.349396
O O2 0.375742 0.233176 0.211135
O O3 0.134768 0.190230 0.474189
O O4 0.148298 0.339669 0.391477
O O5 0.500000 0.533015 0.250000
O O6 0.272333 0.450460 0.493229
O O7 0.461313 0.548755 0.411520
O O8 0.524163 0.379635 0.302581
O O9 0.500000 0.955848 0.750000
O O10 0.589346 0.804769 0.611891
O O11 0.609853 0.956905 0.525315
O O12 0.718858 0.497364 0.724789
O O13 0.500000 0.500000 0.000000
O O14 0.500000 0.000000 0.000000
#
# Coordination Sequence:
#
# PCOD9301069 Si02
#       6
#     8   8   8   8   8   8
#     4  11  21  39  61  94 123 164 214 257 311 373
#     4  12  21  38  57  91 129 165 208 263 325 379
#     4  11  23  37  60  95 130 165 205 262 332 388
#     4  12  23  39  63  89 127 172 213 259 312 381
#     4  11  20  37  60  92 126 161 206 258 330 385
#     4  11  24  42  65  93 129 169 215 262 310 378
#
# _framework density 18.874212
#
# number of rings (size 3 to 8) (size 9 to 14) (size 15 to 20)
#    0.000    0.667    5.000    5.000    2.333    0.000 
#    0.000    0.000    0.000    2.000    0.000    0.000 
#    0.000    0.000    0.000    0.000    0.000    0.000 
#
# Total GULP energy -133983.629383 kJ/mol
# GULP energy per Si atom -5582.651224 kJ/mol
# Density = 1.883125 g / cm^3
# Si number density = 18.874212 Si / 1000 Ang^3
#
#
#
# Elastic Constant Matrix: (Units=GPa)
#
#
# Indices 1 2 3 4 5 6 
#
# 1 158.1331 56.1872 59.9385 0.0001 -3.9126 -0.0001
# 2 56.1872 69.8380 23.5176 0.0004 -1.2057 -0.0003
# 3 59.9385 23.5176 119.4427 0.0000 5.5717 -0.0001
# 4 0.0001 0.0004 0.0000 18.0691 0.0000 -0.6558
# 5 -3.9126 -1.2057 5.5717 0.0000 45.5337 0.0001
# 6 -0.0001 -0.0003 -0.0001 -0.6558 0.0001 41.7175
#
#
#
# Elastic Compliance Matrix: (Units=1/GPa)
#
#
# Indices 1 2 3 4 5 6 
#
# 1 0.010282 -0.006957 -0.003844 0.000000 0.001170 0.000000
# 2 -0.006957 0.020071 -0.000460 0.000000 -0.000010 0.000000
# 3 -0.003844 -0.000460 0.010468 0.000000 -0.001623 0.000000
# 4 0.000000 0.000000 0.000000 0.055375 0.000000 0.000870
# 5 0.001170 -0.000010 -0.001623 0.000000 0.022261 0.000000
# 6 0.000000 0.000000 0.000000 0.000870 0.000000 0.023984
#
#
# Mechanical properties :
#
#
# Convention : Reuss Voigt Hill
#
# Bulk Modulus (GPa) = 54.65359 69.63338 62.14348
# Shear Modulus (GPa) = 29.22892 34.91541 32.07217
#
# Velocity S-wave (km/s) = 3.93952 4.30571 4.12668
# Velocity P-wave (km/s) = 7.05072 7.85445 7.46341
#
# Compressibility (1/GPa) = 0.01829706
#
# Stress axis : x y z
#
# Youngs Moduli (GPa) = 97.25746 49.82280 95.53206
#
# Poissons Ratio (x) = 0.34664 0.36726
# Poissons Ratio (y) = 0.67667 0.04395
# Poissons Ratio (z) = 0.37389 0.02292
#
# Static dielectric constant tensor:
#      x y z
#    x 1.704440 0.000000 0.006240 
#    y 0.000000 1.655410 0.000000 
#    z 0.006240 0.000000 1.709760 
# 
# From -- ./inp_files/69848.got.cif
#   From: 2010.05.17/outbox.cif.g08.bks.cpg/sg15_35_cif.got.tgz:69848.got - 2010.06.03 18:47:42.
