data_PCOD9301379
_publ_section_title
;
Structure prediction by ZEFSAII (Michael W. Deem and Ramdas Pophale) SiO2 
 PCOD9301379
Probable space group: C 2/C
;
_chemical_formula_sum "Si O2"
_cell_formula_units_Z 32
_cell_length_a 5.689568
_cell_length_b 19.105427
_cell_length_c 12.515251
_cell_angle_alpha 90.000000
_cell_angle_beta 87.283092
_cell_angle_gamma 90.000000
_cell_volume 1358.898919
_symmetry_space_group_name_H-M "C 2/C"
_symmetry_group_IT_number 15
_symmetry_cell_setting 'monoclinic'
loop_
_space_group_symop_operation_xyz
x,y,z
-x,y,1/2-z
-x,-y,-z
x,-y,1/2+z
1/2+x,1/2+y,z
1/2-x,1/2+y,1/2-z
1/2-x,1/2-y,-z
1/2+x,1/2-y,1/2+z
loop_
_atom_site_type_symbol
_atom_site_label
_atom_site_fract_x
_atom_site_fract_y
_atom_site_fract_z
Si Si1 0.705326 0.170525 0.157827
Si Si2 0.500000 0.205056 0.750000
Si Si3 0.742243 0.525672 0.048397
Si Si4 0.500000 0.450526 0.750000
Si Si5 0.125673 0.324538 0.023613
O O1 0.500000 0.164846 0.250000
O O2 0.834015 0.241586 0.188800
O O3 0.857158 0.101811 0.175944
O O4 0.615343 0.175785 0.039095
O O5 0.385559 0.163180 0.849313
O O6 0.690805 0.509238 0.174259
O O7 0.500000 0.500000 0.000000
O O8 0.748609 0.609247 0.031239
O O9 0.000000 0.500000 0.000000
O O10 0.250000 0.250000 0.000000
#
# Coordination Sequence:
#
# PCOD9301379 Si02
#       5
#     8   4   8   4   8
#     4  11  20  42  73 106 146 203 255 300 379 471
#     4  11  24  38  68 112 152 185 242 344 384 411
#     4  12  29  49  75 111 150 200 253 312 383 457
#     4  11  24  48  76 100 152 211 256 298 376 479
#     4  12  24  45  74 109 145 196 256 309 381 454
#
# _framework density 23.548477999999999
#
# number of rings (size 3 to 8) (size 9 to 14) (size 15 to 20)
#    0.000    0.500    5.000    3.750    0.000    4.000 
#    0.000    0.000    0.000    0.000    0.000    0.000 
#    0.000    0.000    0.000    0.000    0.000    0.000 
#
# Total GULP energy -89376.715699 kJ/mol
# GULP energy per Si atom -5586.044731 kJ/mol
# Density = 2.349488 g / cm^3
# Si number density = 23.548478 Si / 1000 Ang^3
#
#
#
# Elastic Constant Matrix: (Units=GPa)
#
#
# Indices 1 2 3 4 5 6 
#
# 1 121.2761 31.9465 43.7331 0.0000 -10.6943 0.0000
# 2 31.9465 58.3195 9.5001 0.0000 0.1936 0.0000
# 3 43.7331 9.5001 159.7582 0.0000 -14.5286 0.0000
# 4 0.0000 0.0000 0.0000 28.6888 0.0000 -9.6918
# 5 -10.6943 0.1936 -14.5286 0.0000 68.8795 0.0000
# 6 0.0000 0.0000 0.0000 -9.6918 0.0000 0.2195
#
#
#
# Elastic Compliance Matrix: (Units=1/GPa)
#
#
# Indices 1 2 3 4 5 6 
#
# 1 0.010682 -0.005449 -0.002496 0.000000 0.001147 0.000000
# 2 -0.005449 0.020099 0.000219 0.000000 -0.000856 0.000000
# 3 -0.002496 0.000219 0.007029 0.000000 0.001095 0.000000
# 4 0.000000 0.000000 0.000000 -0.002504 0.000000 -0.110592
# 5 0.001147 -0.000856 0.001095 0.000000 0.014930 0.000000
# 6 0.000000 0.000000 0.000000 -0.110592 0.000000 -0.327364
#
#
# Mechanical properties :
#
#
# Convention : Reuss Voigt Hill
#
# Bulk Modulus (GPa) = 44.72649 56.63481 50.68065
# Shear Modulus (GPa) = -19.66772 36.50249 8.41738
#
# Velocity S-wave (km/s) = -2.89312 3.94140 1.89268
# Velocity P-wave (km/s) = 2.80614 6.69443 5.13273
#
# Compressibility (1/GPa) = 0.02235811
#
# Stress axis : x y z
#
# Youngs Moduli (GPa) = 93.61403 49.75392 142.26307
#
# Poissons Ratio (x) = 0.27110 0.35507
# Poissons Ratio (y) = 0.51008 -0.03109
# Poissons Ratio (z) = 0.23365 -0.01087
#
# Static dielectric constant tensor:
#      x y z
#    x 1.986410 0.000000 -0.072630 
#    y 0.000000 1.898030 0.000000 
#    z -0.072630 0.000000 1.986870 
# 
# From -- ./inp_files/71924.got.cif
#   From: 2010.05.17/outbox.cif.g08.bks.cpg/sg15_36_cif.got.tgz:71924.got - 2010.06.03 18:47:42.
