data_PCOD9301199
_publ_section_title
;
Structure prediction by ZEFSAII (Michael W. Deem and Ramdas Pophale) SiO2 
 PCOD9301199
Probable space group: C 2/C
;
_chemical_formula_sum "Si O2"
_cell_formula_units_Z 48
_cell_length_a 17.192682
_cell_length_b 24.833439
_cell_length_c 9.918663
_cell_angle_alpha 90.000000
_cell_angle_beta 145.474944
_cell_angle_gamma 90.000000
_cell_volume 2400.147134
_symmetry_space_group_name_H-M "C 2/C"
_symmetry_group_IT_number 15
_symmetry_cell_setting 'monoclinic'
loop_
_space_group_symop_operation_xyz
x,y,z
-x,y,1/2-z
-x,-y,-z
x,-y,1/2+z
1/2+x,1/2+y,z
1/2-x,1/2+y,1/2-z
1/2-x,1/2-y,-z
1/2+x,1/2-y,1/2+z
loop_
_atom_site_type_symbol
_atom_site_label
_atom_site_fract_x
_atom_site_fract_y
_atom_site_fract_z
Si Si1 0.216081 0.017405 0.517544
Si Si2 0.875524 0.470276 0.979489
Si Si3 0.589503 0.233107 0.247371
Si Si4 0.000000 0.107279 0.250000
Si Si5 0.000000 0.075524 0.750000
Si Si6 0.609024 0.843510 0.521272
Si Si7 0.574456 0.338108 0.581896
O O1 0.253963 0.029656 0.417243
O O2 0.128863 0.067193 0.449340
O O3 0.338545 0.005471 0.796969
O O4 0.124358 0.963777 0.389977
O O5 0.901216 0.408265 0.975517
O O6 0.000000 0.490620 0.250000
O O7 0.500000 0.215469 0.250000
O O8 0.750000 0.250000 0.500000
O O9 0.585243 0.187781 0.126138
O O10 0.509478 0.286042 0.082911
O O11 0.973704 0.143456 0.341191
O O12 0.958673 0.113804 0.568788
O O13 0.762428 0.829501 0.691314
O O14 0.500000 0.828483 0.250000
#
# Coordination Sequence:
#
# PCOD9301199 Si02
#       7
#     8   8   8   4   4   8   8
#     4  11  21  40  67  98 134 181 230 270 347 415
#     4  11  23  42  64  96 143 178 222 280 340 416
#     4  12  26  48  76 102 133 183 237 290 361 417
#     4  11  24  38  68 108 132 182 230 279 346 420
#     4  11  20  38  70  96 134 176 226 293 342 406
#     4  11  25  46  69  99 142 182 231 290 352 412
#     4  12  23  45  68 100 144 174 233 299 344 406
#
# _framework density 19.998774000000001
#
# number of rings (size 3 to 8) (size 9 to 14) (size 15 to 20)
#    0.000    0.667    5.833    1.500    1.167    4.667 
#    0.000    0.833    0.000    0.000    0.000    0.000 
#    0.000    0.000    0.000    0.000    0.000    0.000 
#
# Total GULP energy -134203.455372 kJ/mol
# GULP energy per Si atom -5591.810641 kJ/mol
# Density = 1.995326 g / cm^3
# Si number density = 19.998774 Si / 1000 Ang^3
#
#
#
# Elastic Constant Matrix: (Units=GPa)
#
#
# Indices 1 2 3 4 5 6 
#
# 1 151.9557 44.1126 36.9441 0.0000 -28.8073 0.0000
# 2 44.1126 70.4346 24.2636 0.0000 -24.5811 0.0000
# 3 36.9441 24.2636 113.6436 0.0000 -12.8865 0.0000
# 4 0.0000 0.0000 0.0000 15.9353 0.0000 -9.7266
# 5 -28.8073 -24.5811 -12.8865 0.0000 32.6128 0.0000
# 6 0.0000 0.0000 0.0000 -9.7266 0.0000 22.8615
#
#
#
# Elastic Compliance Matrix: (Units=1/GPa)
#
#
# Indices 1 2 3 4 5 6 
#
# 1 0.008827 -0.003353 -0.001629 0.000000 0.004627 0.000000
# 2 -0.003353 0.021291 -0.002064 0.000000 0.012270 0.000000
# 3 -0.001629 -0.002064 0.009873 0.000000 0.000906 0.000000
# 4 0.000000 0.000000 0.000000 0.084767 0.000000 0.036064
# 5 0.004627 0.012270 0.000906 0.000000 0.044356 0.000000
# 6 0.000000 0.000000 0.000000 0.036064 0.000000 0.059085
#
#
# Mechanical properties :
#
#
# Convention : Reuss Voigt Hill
#
# Bulk Modulus (GPa) = 38.61306 60.74163 49.67734
# Shear Modulus (GPa) = 19.92640 29.66284 24.79462
#
# Velocity S-wave (km/s) = 3.15998 3.85545 3.52491
# Velocity P-wave (km/s) = 5.71520 7.08929 6.43900
#
# Compressibility (1/GPa) = 0.02589798
#
# Stress axis : x y z
#
# Youngs Moduli (GPa) = 113.28474 46.96905 101.29079
#
# Poissons Ratio (x) = 0.15747 0.16502
# Poissons Ratio (y) = 0.37980 0.20911
# Poissons Ratio (z) = 0.18457 0.09696
#
# Static dielectric constant tensor:
#      x y z
#    x 1.727660 0.000000 0.037360 
#    y 0.000000 1.663160 0.000000 
#    z 0.037360 0.000000 1.724130 
# 
# From -- ./inp_files/32568.got.cif
#   From: 2010.05.17/outbox.cif.g08.bks.cpg/sg15_17_cif.got.tgz:32568.got - 2010.06.03 18:47:42.
