data_PCOD9301878
_publ_section_title
;
Structure prediction by ZEFSAII (Michael W. Deem and Ramdas Pophale) SiO2 
 PCOD9301878
Probable space group: C 2/C
;
_chemical_formula_sum "Si O2"
_cell_formula_units_Z 36
_cell_length_a 13.988718
_cell_length_b 21.778578
_cell_length_c 5.913189
_cell_angle_alpha 90.000000
_cell_angle_beta 97.003857
_cell_angle_gamma 90.000000
_cell_volume 1788.036230
_symmetry_space_group_name_H-M "C 2/C"
_symmetry_group_IT_number 15
_symmetry_cell_setting 'monoclinic'
loop_
_space_group_symop_operation_xyz
x,y,z
-x,y,1/2-z
-x,-y,-z
x,-y,1/2+z
1/2+x,1/2+y,z
1/2-x,1/2+y,1/2-z
1/2-x,1/2-y,-z
1/2+x,1/2-y,1/2+z
loop_
_atom_site_type_symbol
_atom_site_label
_atom_site_fract_x
_atom_site_fract_y
_atom_site_fract_z
Si Si1 0.591658 0.845208 0.420151
Si Si2 0.730232 0.848027 0.089797
Si Si3 0.884782 0.248353 0.724680
Si Si4 0.500000 0.939635 0.750000
Si Si5 0.291523 0.025015 0.109640
O O1 0.500000 0.824990 0.250000
O O2 0.673192 0.874698 0.288338
O O3 0.636069 0.785752 0.552438
O O4 0.547006 0.893589 0.581213
O O5 0.829154 0.815322 0.183784
O O6 0.660157 0.794358 0.975306
O O7 0.737867 0.903086 0.916127
O O8 0.000000 0.242986 0.750000
O O9 0.591041 0.977365 0.865546
O O10 0.260150 0.002388 0.353011
#
# Coordination Sequence:
#
# PCOD9301878 Si02
#       5
#     8   8   8   4   8
#     4  12  18  36  59  87 132 157 191 251 306 374
#     4  11  24  37  62  88 120 165 200 253 315 361
#     4  11  21  40  61  90 121 153 208 256 310 373
#     4  12  22  36  58  88 130 162 204 240 304 384
#     4  12  25  40  59  88 128 168 212 251 302 372
#
# _framework density 20.133821000000001
#
# number of rings (size 3 to 8) (size 9 to 14) (size 15 to 20)
#    0.000    0.444    7.778    2.667    0.000    0.000 
#    0.000    0.000    0.000    1.333    0.000    0.000 
#    0.000    0.000    0.000    0.000    0.000    0.000 
#
# Total GULP energy -100497.913443 kJ/mol
# GULP energy per Si atom -5583.217414 kJ/mol
# Density = 2.008800 g / cm^3
# Si number density = 20.133821 Si / 1000 Ang^3
#
#
#
# Elastic Constant Matrix: (Units=GPa)
#
#
# Indices 1 2 3 4 5 6 
#
# 1 61.0148 21.9878 22.7780 0.0000 15.2355 0.0000
# 2 21.9878 67.3780 31.0695 0.0000 5.2745 0.0000
# 3 22.7780 31.0695 105.8204 0.0000 -0.5766 0.0000
# 4 0.0000 0.0000 0.0000 39.0425 0.0000 12.4857
# 5 15.2355 5.2745 -0.5766 0.0000 21.4722 0.0000
# 6 0.0000 0.0000 0.0000 12.4857 0.0000 28.3772
#
#
#
# Elastic Compliance Matrix: (Units=1/GPa)
#
#
# Indices 1 2 3 4 5 6 
#
# 1 0.023345 -0.004681 -0.003735 0.000000 -0.015515 0.000000
# 2 -0.004681 0.018521 -0.004438 0.000000 -0.001347 0.000000
# 3 -0.003735 -0.004438 0.011579 0.000000 0.004051 0.000000
# 4 0.000000 0.000000 0.000000 0.029807 0.000000 -0.013115
# 5 -0.015515 -0.001347 0.004051 0.000000 0.058020 0.000000
# 6 0.000000 0.000000 0.000000 -0.013115 0.000000 0.041010
#
#
# Mechanical properties :
#
#
# Convention : Reuss Voigt Hill
#
# Bulk Modulus (GPa) = 36.05320 42.87597 39.46458
# Shear Modulus (GPa) = 23.01648 28.33690 25.67669
#
# Velocity S-wave (km/s) = 3.38476 3.75564 3.57501
# Velocity P-wave (km/s) = 5.76377 6.33626 6.05678
#
# Compressibility (1/GPa) = 0.02773679
#
# Stress axis : x y z
#
# Youngs Moduli (GPa) = 42.83594 53.99258 86.36379
#
# Poissons Ratio (x) = 0.25276 0.32258
# Poissons Ratio (y) = 0.20053 0.38324
# Poissons Ratio (z) = 0.16000 0.23959
#
# Static dielectric constant tensor:
#      x y z
#    x 1.666670 0.000000 -0.016700 
#    y 0.000000 1.746970 0.000000 
#    z -0.016700 0.000000 1.837400 
# 
# From -- ./inp_files/4358.got.cif
#   From: 2010.05.17/outbox.cif.g08.bks.cpg/sg15_3_cif.got.tgz:4358.got - 2010.06.03 18:47:42.
