data_PCOD9301500
_publ_section_title
;
Structure prediction by ZEFSAII (Michael W. Deem and Ramdas Pophale) SiO2 
 PCOD9301500
Probable space group: C 2/C
;
_chemical_formula_sum "Si O2"
_cell_formula_units_Z 40
_cell_length_a 22.170417
_cell_length_b 12.240421
_cell_length_c 19.385766
_cell_angle_alpha 90.000000
_cell_angle_beta 26.799494
_cell_angle_gamma 90.000000
_cell_volume 2371.942697
_symmetry_space_group_name_H-M "C 2/C"
_symmetry_group_IT_number 15
_symmetry_cell_setting 'monoclinic'
loop_
_space_group_symop_operation_xyz
x,y,z
-x,y,1/2-z
-x,-y,-z
x,-y,1/2+z
1/2+x,1/2+y,z
1/2-x,1/2+y,1/2-z
1/2-x,1/2-y,-z
1/2+x,1/2-y,1/2+z
loop_
_atom_site_type_symbol
_atom_site_label
_atom_site_fract_x
_atom_site_fract_y
_atom_site_fract_z
Si Si1 0.145020 0.393336 0.635304
Si Si2 0.161987 0.514808 0.255308
Si Si3 0.696898 0.339611 0.155049
Si Si4 0.411857 0.160248 0.560663
Si Si5 0.954217 0.095909 0.996176
O O1 0.144329 0.490462 0.691190
O O2 0.248405 0.404358 0.467110
O O3 0.177358 0.283241 0.645915
O O4 0.000000 0.378386 0.750000
O O5 0.146906 0.404124 0.314105
O O6 0.307293 0.564595 0.120726
O O7 0.045661 0.595989 0.401432
O O8 0.806954 0.341927 0.103925
O O9 0.560051 0.385845 0.326372
O O10 0.445673 0.285759 0.540979
O O11 0.000000 0.000000 0.000000
#
# Coordination Sequence:
#
# PCOD9301500 Si02
#       5
#     8   8   8   8   8
#     4  11  21  35  59  90 124 157 190 250 309 354
#     4  11  23  36  59  85 121 158 194 246 294 358
#     4  11  21  35  57  89 123 150 195 247 303 350
#     4  11  21  40  57  87 119 157 202 238 300 355
#     4  12  22  37  60  90 119 155 198 252 295 348
#
# _framework density 16.863814000000001
#
# number of rings (size 3 to 8) (size 9 to 14) (size 15 to 20)
#    0.000    0.800    8.000    0.000    2.800    0.000 
#    0.000    0.000    0.000    1.200    0.000    0.000 
#    0.000    0.000    0.000    0.000    0.000    0.000 
#
# Total GULP energy -111639.701161 kJ/mol
# GULP energy per Si atom -5581.985058 kJ/mol
# Density = 1.682543 g / cm^3
# Si number density = 16.863814 Si / 1000 Ang^3
#
#
#
# Elastic Constant Matrix: (Units=GPa)
#
#
# Indices 1 2 3 4 5 6 
#
# 1 121.5567 54.0507 54.3512 0.0000 4.0924 0.0000
# 2 54.0507 96.4176 55.6576 0.0000 16.6702 -0.0001
# 3 54.3512 55.6576 146.2047 0.0000 7.6370 0.0000
# 4 0.0000 0.0000 0.0000 18.4794 0.0000 1.4256
# 5 4.0924 16.6702 7.6370 0.0000 41.7640 0.0000
# 6 0.0000 -0.0001 0.0000 1.4256 0.0000 30.6565
#
#
#
# Elastic Compliance Matrix: (Units=1/GPa)
#
#
# Indices 1 2 3 4 5 6 
#
# 1 0.011634 -0.005425 -0.002336 0.000000 0.001452 0.000000
# 2 -0.005425 0.016684 -0.004053 0.000000 -0.005387 0.000000
# 3 -0.002336 -0.004053 0.009243 0.000000 0.000157 0.000000
# 4 0.000000 0.000000 0.000000 0.054309 0.000000 -0.002525
# 5 0.001452 -0.005387 0.000157 0.000000 0.025923 0.000000
# 6 0.000000 0.000000 0.000000 -0.002525 0.000000 0.032737
#
#
# Mechanical properties :
#
#
# Convention : Reuss Voigt Hill
#
# Bulk Modulus (GPa) = 71.77050 76.92202 74.34626
# Shear Modulus (GPa) = 27.96390 31.52128 29.74259
#
# Velocity S-wave (km/s) = 4.07654 4.32808 4.20419
# Velocity P-wave (km/s) = 8.05039 8.40768 8.23097
#
# Compressibility (1/GPa) = 0.01393330
#
# Stress axis : x y z
#
# Youngs Moduli (GPa) = 85.95302 59.93883 108.19213
#
# Poissons Ratio (x) = 0.32516 0.25271
# Poissons Ratio (y) = 0.46628 0.43852
# Poissons Ratio (z) = 0.20076 0.24294
#
# Static dielectric constant tensor:
#      x y z
#    x 1.583920 0.000000 -0.000680 
#    y 0.000000 1.561860 0.000000 
#    z -0.000680 0.000000 1.595720 
# 
# From -- ./inp_files/54078.got.cif
#   From: 2010.05.17/outbox.cif.g08.bks.cpg/sg15_28_cif.got.tgz:54078.got - 2010.06.03 18:47:42.
