data_PCOD9301444
_publ_section_title
;
Structure prediction by ZEFSAII (Michael W. Deem and Ramdas Pophale) SiO2 
 PCOD9301444
Probable space group: C 2/C
;
_chemical_formula_sum "Si O2"
_cell_formula_units_Z 32
_cell_length_a 7.222089
_cell_length_b 13.443950
_cell_length_c 13.248895
_cell_angle_alpha 90.000000
_cell_angle_beta 70.437088
_cell_angle_gamma 90.000000
_cell_volume 1212.123227
_symmetry_space_group_name_H-M "C 2/C"
_symmetry_group_IT_number 15
_symmetry_cell_setting 'monoclinic'
loop_
_space_group_symop_operation_xyz
x,y,z
-x,y,1/2-z
-x,-y,-z
x,-y,1/2+z
1/2+x,1/2+y,z
1/2-x,1/2+y,1/2-z
1/2-x,1/2-y,-z
1/2+x,1/2-y,1/2+z
loop_
_atom_site_type_symbol
_atom_site_label
_atom_site_fract_x
_atom_site_fract_y
_atom_site_fract_z
Si Si1 0.834053 0.635474 0.708486
Si Si2 0.969081 0.208647 0.893127
Si Si3 0.485375 0.590784 0.081218
Si Si4 0.825934 0.585178 0.180747
O O1 0.730663 0.676220 0.626046
O O2 0.913566 0.525878 0.666832
O O3 0.641679 0.639653 0.814521
O O4 0.000000 0.686271 0.750000
O O5 0.030674 0.321320 0.856595
O O6 0.692994 0.408946 0.806260
O O7 0.973594 0.184356 0.009427
O O8 0.679096 0.590666 0.113564
O O9 0.500000 0.500000 0.000000
#
# Coordination Sequence:
#
# PCOD9301444 Si02
#       4
#     8   8   8   8
#     4  11  25  46  76 112 161 200 263 325 385 472
#     4  11  24  49  78 116 160 204 266 322 392 474
#     4  11  20  46  82 119 161 207 260 332 394 465
#     4  11  24  44  84 113 156 213 260 323 400 472
#
# _framework density 26.399956
#
# number of rings (size 3 to 8) (size 9 to 14) (size 15 to 20)
#    0.000    1.000    5.000    2.250    7.000    0.000 
#    0.000   10.000    5.500    0.000    0.000    0.000 
#    0.000    0.000    0.000    0.000    0.000    0.000 
#
# Total GULP energy -89629.614527 kJ/mol
# GULP energy per Si atom -5601.850908 kJ/mol
# Density = 2.633987 g / cm^3
# Si number density = 26.399956 Si / 1000 Ang^3
#
#
#
# Elastic Constant Matrix: (Units=GPa)
#
#
# Indices 1 2 3 4 5 6 
#
# 1 145.9615 54.0289 59.2524 0.0000 67.2741 0.0000
# 2 54.0289 170.2391 29.5932 0.0000 2.5047 0.0000
# 3 59.2524 29.5932 145.5189 0.0000 33.0370 0.0000
# 4 0.0000 0.0000 0.0000 8.1812 0.0000 -27.2153
# 5 67.2741 2.5047 33.0370 0.0000 50.9753 0.0000
# 6 0.0000 0.0000 0.0000 -27.2153 0.0000 -2.1549
#
#
#
# Elastic Compliance Matrix: (Units=1/GPa)
#
#
# Indices 1 2 3 4 5 6 
#
# 1 0.024035 -0.006925 -0.001471 0.000000 -0.030427 0.000000
# 2 -0.006925 0.008100 -0.000952 0.000000 0.009358 0.000000
# 3 -0.001471 -0.000952 0.008458 0.000000 -0.003494 0.000000
# 4 0.000000 0.000000 0.000000 0.002842 0.000000 -0.035890
# 5 -0.030427 0.009358 -0.003494 0.000000 0.061577 0.000000
# 6 0.000000 0.000000 0.000000 -0.035890 0.000000 -0.010789
#
#
# Mechanical properties :
#
#
# Convention : Reuss Voigt Hill
#
# Bulk Modulus (GPa) = 45.66738 83.05206 64.35972
# Shear Modulus (GPa) = 41.59163 32.65667 37.12415
#
# Velocity S-wave (km/s) = 3.97349 3.52091 3.75403
# Velocity P-wave (km/s) = 6.19575 6.93228 6.57434
#
# Compressibility (1/GPa) = 0.02189747
#
# Stress axis : x y z
#
# Youngs Moduli (GPa) = 41.60567 123.46261 118.23745
#
# Poissons Ratio (x) = 0.85495 0.17388
# Poissons Ratio (y) = 0.28811 0.11257
# Poissons Ratio (z) = 0.06119 0.11754
#
# Static dielectric constant tensor:
#      x y z
#    x 2.003920 0.000000 -0.014800 
#    y 0.000000 2.141200 0.000000 
#    z -0.014800 0.000000 2.037300 
# 
# From -- ./inp_files/132013.got.cif
#   From: 2010.05.17/outbox.cif.g08.bks.cpg/sg15_67_cif.got.tgz:132013.got - 2010.06.03 18:47:42.
