data_PCOD9301965
_publ_section_title
;
Structure prediction by ZEFSAII (Michael W. Deem and Ramdas Pophale) SiO2 
 PCOD9301965
Probable space group: C 2/C
;
_chemical_formula_sum "Si O2"
_cell_formula_units_Z 64
_cell_length_a 26.089819
_cell_length_b 9.613140
_cell_length_c 16.612048
_cell_angle_alpha 90.000000
_cell_angle_beta 38.986604
_cell_angle_gamma 90.000000
_cell_volume 2621.234607
_symmetry_space_group_name_H-M "C 2/C"
_symmetry_group_IT_number 15
_symmetry_cell_setting 'monoclinic'
loop_
_space_group_symop_operation_xyz
x,y,z
-x,y,1/2-z
-x,-y,-z
x,-y,1/2+z
1/2+x,1/2+y,z
1/2-x,1/2+y,1/2-z
1/2-x,1/2-y,-z
1/2+x,1/2-y,1/2+z
loop_
_atom_site_type_symbol
_atom_site_label
_atom_site_fract_x
_atom_site_fract_y
_atom_site_fract_z
Si Si1 0.164121 0.135532 0.710123
Si Si2 0.436016 0.141777 0.664356
Si Si3 0.208642 0.426884 0.690617
Si Si4 0.187830 0.165876 0.131647
Si Si5 0.059287 0.449822 0.602560
Si Si6 0.473452 0.693424 0.954596
Si Si7 0.360326 0.562238 0.576954
Si Si8 0.319499 0.848741 0.590832
O O1 0.209712 0.281268 0.642217
O O2 0.068917 0.176768 0.822109
O O3 0.181529 0.000950 0.634340
O O4 0.177740 0.091108 0.787663
O O5 0.400300 0.262381 0.765723
O O6 0.457552 0.224453 0.556887
O O7 0.360110 0.033990 0.753877
O O8 0.511555 0.046083 0.596433
O O9 0.296627 0.493195 0.594031
O O10 0.184015 0.394549 0.813114
O O11 0.229604 0.189965 0.168954
O O12 0.250000 0.250000 0.000000
O O13 0.067412 0.294120 0.561236
O O14 0.144454 0.528661 0.508106
O O15 0.000000 0.451675 0.750000
O O16 0.433748 0.541957 0.002278
O O17 0.376402 0.712797 0.519668
#
# Coordination Sequence:
#
# PCOD9301965 Si02
#       8
#     8   8   8   8   8   8   8   8
#     4  11  24  41  68 102 137 174 233 289 344 408
#     4  12  22  46  70  99 134 177 235 283 345 417
#     4  11  21  40  70 103 130 171 227 293 337 400
#     4  12  26  44  66  97 140 185 228 279 351 416
#     4  12  27  45  65  98 139 180 222 278 353 417
#     4  12  24  44  71 103 136 180 232 295 340 413
#     4  11  23  39  69 104 133 169 228 291 345 387
#     4  11  23  42  66  97 130 173 228 275 337 407
#
# _framework density 24.415976000000001
#
# number of rings (size 3 to 8) (size 9 to 14) (size 15 to 20)
#    0.000    0.500    6.250    3.000    5.250    0.000 
#    2.250    0.625    0.000    0.000    0.000    0.000 
#    0.000    0.000    0.000    0.000    0.000    0.000 
#
# Total GULP energy -179115.439348 kJ/mol
# GULP energy per Si atom -5597.357480 kJ/mol
# Density = 2.436040 g / cm^3
# Si number density = 24.415976 Si / 1000 Ang^3
#
#
#
# Elastic Constant Matrix: (Units=GPa)
#
#
# Indices 1 2 3 4 5 6 
#
# 1 39.4394 11.8405 -14.5204 0.0004 -15.2233 -0.0006
# 2 11.8405 152.6810 14.9401 0.0022 2.4688 -0.0019
# 3 -14.5204 14.9401 55.0789 0.0010 9.8632 -0.0009
# 4 0.0004 0.0022 0.0010 35.6668 -0.0005 -14.5703
# 5 -15.2233 2.4688 9.8632 -0.0005 25.9359 0.0003
# 6 -0.0006 -0.0019 -0.0009 -14.5703 0.0003 33.2024
#
#
#
# Elastic Compliance Matrix: (Units=1/GPa)
#
#
# Indices 1 2 3 4 5 6 
#
# 1 0.036541 -0.003853 0.007267 0.000000 0.019051 0.000000
# 2 -0.003853 0.007135 -0.002602 0.000000 -0.001951 0.000000
# 3 0.007267 -0.002602 0.021428 0.000000 -0.003636 0.000000
# 4 0.000000 0.000000 0.000000 0.034161 0.000001 0.014991
# 5 0.019051 -0.001951 -0.003636 0.000001 0.051307 0.000000
# 6 0.000000 0.000000 0.000000 0.014991 0.000000 0.036697
#
#
# Mechanical properties :
#
#
# Convention : Reuss Voigt Hill
#
# Bulk Modulus (GPa) = 14.98604 30.19108 22.58856
# Shear Modulus (GPa) = 24.05144 34.62365 29.33754
#
# Velocity S-wave (km/s) = 3.14199 3.76982 3.47013
# Velocity P-wave (km/s) = 4.39476 5.59829 5.03263
#
# Compressibility (1/GPa) = 0.06672875
#
# Stress axis : x y z
#
# Youngs Moduli (GPa) = 27.36637 140.16370 46.66728
#
# Poissons Ratio (x) = 0.54004 -0.33912
# Poissons Ratio (y) = 0.10544 0.12141
# Poissons Ratio (z) = -0.19887 0.36464
#
# Static dielectric constant tensor:
#      x y z
#    x 1.972510 0.000000 0.020880 
#    y 0.000000 1.961640 0.000000 
#    z 0.020880 0.000000 1.914260 
# 
# From -- ./inp_files/224604.got.cif
#   From: 2010.05.17/outbox.cif.g08.bks.cpg/sg15_113_cif.got.tgz:224604.got - 2010.06.03 18:47:42.
