data_PCOD9301971
_publ_section_title
;
Structure prediction by ZEFSAII (Michael W. Deem and Ramdas Pophale) SiO2 
 PCOD9301971
Probable space group: C 2/C
;
_chemical_formula_sum "Si O2"
_cell_formula_units_Z 40
_cell_length_a 14.143849
_cell_length_b 18.124571
_cell_length_c 15.388870
_cell_angle_alpha 90.000000
_cell_angle_beta 153.504830
_cell_angle_gamma 90.000000
_cell_volume 1759.932769
_symmetry_space_group_name_H-M "C 2/C"
_symmetry_group_IT_number 15
_symmetry_cell_setting 'monoclinic'
loop_
_space_group_symop_operation_xyz
x,y,z
-x,y,1/2-z
-x,-y,-z
x,-y,1/2+z
1/2+x,1/2+y,z
1/2-x,1/2+y,1/2-z
1/2-x,1/2-y,-z
1/2+x,1/2-y,1/2+z
loop_
_atom_site_type_symbol
_atom_site_label
_atom_site_fract_x
_atom_site_fract_y
_atom_site_fract_z
Si Si1 0.726353 0.846968 0.551924
Si Si2 0.258698 0.674559 0.893102
Si Si3 0.800500 0.658835 0.149404
Si Si4 0.651689 0.319804 0.227893
Si Si5 0.430262 0.919616 0.914292
O O1 0.764466 0.761668 0.606847
O O2 0.475643 0.854120 0.321708
O O3 0.835791 0.860336 0.548025
O O4 0.731512 0.891973 0.644813
O O5 0.382292 0.670868 0.904322
O O6 0.806413 0.735562 0.209329
O O7 0.000000 0.660703 0.250000
O O8 0.824959 0.589922 0.234060
O O9 0.572409 0.656813 0.915589
O O10 0.859747 0.367633 0.419016
O O11 0.500000 0.000000 0.000000
#
# Coordination Sequence:
#
# PCOD9301971 Si02
#       5
#     8   8   8   8   8
#     4   9  17  31  56  85 120 154 203 258 317 379
#     4   9  16  30  56  90 112 152 203 263 308 381
#     4  12  24  41  71 100 126 176 239 285 326 399
#     4  11  21  40  70  96 129 170 225 283 337 386
#     4  11  25  43  62  95 140 176 215 280 342 405
#
# _framework density 22.728141999999998
#
# number of rings (size 3 to 8) (size 9 to 14) (size 15 to 20)
#    0.000    1.600    4.000    1.800    0.000    0.800 
#    7.200    0.000    4.400    0.000    0.000    0.000 
#    0.000    0.000    0.000    0.000    0.000    0.000 
#
# Total GULP energy -111690.251431 kJ/mol
# GULP energy per Si atom -5584.512572 kJ/mol
# Density = 2.267641 g / cm^3
# Si number density = 22.728142 Si / 1000 Ang^3
#
#
#
# Elastic Constant Matrix: (Units=GPa)
#
#
# Indices 1 2 3 4 5 6 
#
# 1 120.1562 13.2510 22.6670 0.0032 18.2537 0.0024
# 2 13.2510 64.2960 0.4203 0.0006 2.2464 0.0010
# 3 22.6670 0.4203 59.6657 0.0095 9.5510 0.0085
# 4 0.0032 0.0006 0.0095 20.2445 0.0053 9.9427
# 5 18.2537 2.2464 9.5510 0.0053 47.7525 0.0045
# 6 0.0024 0.0010 0.0085 9.9427 0.0045 22.8915
#
#
#
# Elastic Compliance Matrix: (Units=1/GPa)
#
#
# Indices 1 2 3 4 5 6 
#
# 1 0.009567 -0.001848 -0.003151 0.000000 -0.002940 0.000001
# 2 -0.001848 0.015936 0.000617 0.000000 -0.000166 -0.000001
# 3 -0.003151 0.000617 0.018352 -0.000006 -0.002495 -0.000004
# 4 0.000000 0.000000 -0.000006 0.062790 -0.000003 -0.027272
# 5 -0.002940 -0.000166 -0.002495 -0.000003 0.022572 -0.000002
# 6 0.000001 -0.000001 -0.000004 -0.027272 -0.000002 0.055530
#
#
# Mechanical properties :
#
#
# Convention : Reuss Voigt Hill
#
# Bulk Modulus (GPa) = 28.49838 35.19936 31.84887
# Shear Modulus (GPa) = 24.36527 32.02965 28.19746
#
# Velocity S-wave (km/s) = 3.27774 3.75807 3.52609
# Velocity P-wave (km/s) = 5.18563 5.86102 5.53364
#
# Compressibility (1/GPa) = 0.03508971
#
# Stress axis : x y z
#
# Youngs Moduli (GPa) = 104.52142 62.75174 54.48939
#
# Poissons Ratio (x) = 0.11599 0.17170
# Poissons Ratio (y) = 0.19320 -0.03360
# Poissons Ratio (z) = 0.32935 -0.03869
#
# Static dielectric constant tensor:
#      x y z
#    x 1.937180 0.000000 0.007420 
#    y 0.000000 1.779610 0.000000 
#    z 0.007420 0.000000 1.933190 
# 
# From -- ./inp_files/155588.got.cif
#   From: 2010.05.17/outbox.cif.g08.bks.cpg/sg15_78_cif.got.tgz:155588.got - 2010.06.03 18:47:42.
