data_PCOD9301449
_publ_section_title
;
Structure prediction by ZEFSAII (Michael W. Deem and Ramdas Pophale) SiO2 
 PCOD9301449
Probable space group: C 2/C
;
_chemical_formula_sum "Si O2"
_cell_formula_units_Z 64
_cell_length_a 18.718704
_cell_length_b 16.302713
_cell_length_c 20.623027
_cell_angle_alpha 90.000000
_cell_angle_beta 146.630197
_cell_angle_gamma 90.000000
_cell_volume 3461.647735
_symmetry_space_group_name_H-M "C 2/C"
_symmetry_group_IT_number 15
_symmetry_cell_setting 'monoclinic'
loop_
_space_group_symop_operation_xyz
x,y,z
-x,y,1/2-z
-x,-y,-z
x,-y,1/2+z
1/2+x,1/2+y,z
1/2-x,1/2+y,1/2-z
1/2-x,1/2-y,-z
1/2+x,1/2-y,1/2+z
loop_
_atom_site_type_symbol
_atom_site_label
_atom_site_fract_x
_atom_site_fract_y
_atom_site_fract_z
Si Si1 0.572231 0.928016 0.367340
Si Si2 0.987184 0.273800 0.922116
Si Si3 0.043983 0.622495 0.983685
Si Si4 0.938639 0.117704 0.806480
Si Si5 0.729220 0.446160 0.512789
Si Si6 0.371377 0.925602 0.752981
Si Si7 0.746064 0.691854 0.933291
Si Si8 0.794905 0.513786 0.819044
O O1 0.500000 0.892510 0.250000
O O2 0.571464 0.869845 0.428814
O O3 0.712938 0.963210 0.453473
O O4 0.483237 0.007502 0.320554
O O5 0.944428 0.299394 0.961334
O O6 0.950057 0.183305 0.872750
O O7 0.928232 0.343108 0.828453
O O8 0.142170 0.279897 0.030342
O O9 0.138917 0.551942 0.083130
O O10 0.900113 0.585728 0.887010
O O11 0.884181 0.173349 0.705652
O O12 0.832102 0.051154 0.745474
O O13 0.076173 0.073546 0.898320
O O14 0.794023 0.411737 0.627864
O O15 0.780223 0.395600 0.489990
O O16 0.281952 0.968327 0.740049
O O17 0.750000 0.750000 0.000000
#
# Coordination Sequence:
#
# PCOD9301449 Si02
#       8
#     8   8   8   8   8   8   8   8
#     4   9  17  31  54  80 102 135 187 232 272 317
#     4  11  21  33  53  74 105 152 185 222 256 319
#     4   9  17  35  57  72  99 147 192 231 253 311
#     4  12  24  33  50  80 115 148 177 223 284 328
#     4  11  21  31  49  78 113 144 172 222 280 330
#     4   9  19  34  53  73 102 146 187 224 263 318
#     4  12  22  34  45  72 115 152 181 206 260 339
#     4   9  18  34  53  73 102 142 187 226 263 321
#
# _framework density 18.488306000000001
#
# number of rings (size 3 to 8) (size 9 to 14) (size 15 to 20)
#    0.000    1.750    3.750    2.625    0.000    1.500 
#    0.000    0.000    0.000    0.000    0.000    7.875 
#    0.000    8.000    0.000    2.875    0.000    0.000 
#
# Total GULP energy -178432.429721 kJ/mol
# GULP energy per Si atom -5576.013429 kJ/mol
# Density = 1.844623 g / cm^3
# Si number density = 18.488306 Si / 1000 Ang^3
#
#
#
# Elastic Constant Matrix: (Units=GPa)
#
#
# Indices 1 2 3 4 5 6 
#
# 1 95.8415 27.6844 48.5515 0.0000 -11.5729 0.0000
# 2 27.6844 25.4736 17.6589 -0.0003 4.5867 -0.0001
# 3 48.5515 17.6589 90.5813 -0.0003 1.6736 0.0000
# 4 0.0000 -0.0003 -0.0003 10.7390 -0.0002 -6.7369
# 5 -11.5729 4.5867 1.6736 -0.0002 38.0322 0.0000
# 6 0.0000 -0.0001 0.0000 -6.7369 0.0000 30.2003
#
#
#
# Elastic Compliance Matrix: (Units=1/GPa)
#
#
# Indices 1 2 3 4 5 6 
#
# 1 0.020890 -0.019013 -0.007656 -0.000001 0.008986 0.000000
# 2 -0.019013 0.063702 -0.001980 0.000002 -0.013381 0.000001
# 3 -0.007656 -0.001980 0.015581 0.000000 -0.002776 0.000000
# 4 -0.000001 0.000002 0.000000 0.108270 0.000000 0.024152
# 5 0.008986 -0.013381 -0.002776 0.000000 0.030764 0.000000
# 6 0.000000 0.000001 0.000000 0.024152 0.000000 0.038500
#
#
# Mechanical properties :
#
#
# Convention : Reuss Voigt Hill
#
# Bulk Modulus (GPa) = 23.32489 44.40958 33.86723
# Shear Modulus (GPa) = 14.31447 23.66108 18.98777
#
# Velocity S-wave (km/s) = 2.78554 3.58129 3.20818
# Velocity P-wave (km/s) = 4.79469 6.41665 5.66403
#
# Compressibility (1/GPa) = 0.04287266
#
# Stress axis : x y z
#
# Youngs Moduli (GPa) = 47.87084 15.69815 64.18109
#
# Poissons Ratio (x) = 0.29847 0.49138
# Poissons Ratio (y) = 0.91017 0.12711
# Poissons Ratio (z) = 0.36651 0.03109
#
# Static dielectric constant tensor:
#      x y z
#    x 1.654660 0.000000 -0.023650 
#    y 0.000000 1.623840 0.000000 
#    z -0.023650 0.000000 1.678200 
# 
# From -- ./inp_files/249664.got.cif
#   From: 2010.05.17/outbox.cif.g08.bks.cpg/sg15_125_cif.got.tgz:249664.got - 2010.06.03 18:47:42.
