data_PCOD9301826
_publ_section_title
;
Structure prediction by ZEFSAII (Michael W. Deem and Ramdas Pophale) SiO2 
 PCOD9301826
Probable space group: C 2/C
;
_chemical_formula_sum "Si O2"
_cell_formula_units_Z 44
_cell_length_a 15.766219
_cell_length_b 10.746181
_cell_length_c 13.046448
_cell_angle_alpha 90.000000
_cell_angle_beta 124.145083
_cell_angle_gamma 90.000000
_cell_volume 1829.382058
_symmetry_space_group_name_H-M "C 2/C"
_symmetry_group_IT_number 15
_symmetry_cell_setting 'monoclinic'
loop_
_space_group_symop_operation_xyz
x,y,z
-x,y,1/2-z
-x,-y,-z
x,-y,1/2+z
1/2+x,1/2+y,z
1/2-x,1/2+y,1/2-z
1/2-x,1/2-y,-z
1/2+x,1/2-y,1/2+z
loop_
_atom_site_type_symbol
_atom_site_label
_atom_site_fract_x
_atom_site_fract_y
_atom_site_fract_z
Si Si1 0.729676 0.989583 0.275556
Si Si2 0.142370 0.082430 0.305389
Si Si3 0.839727 0.800109 0.484719
Si Si4 0.500000 0.382906 0.250000
Si Si5 0.663427 0.292654 0.517697
Si Si6 0.057302 0.676324 0.634661
O O1 0.790785 0.862296 0.350684
O O2 0.610064 0.951496 0.210610
O O3 0.751469 0.045976 0.176800
O O4 0.783062 0.095078 0.381970
O O5 0.129643 0.086686 0.418916
O O6 0.096114 0.210878 0.233352
O O7 0.071945 0.968022 0.227460
O O8 0.750000 0.750000 0.500000
O O9 0.936073 0.706423 0.539504
O O10 0.569499 0.313291 0.377399
O O11 0.750000 0.250000 0.500000
O O12 0.618330 0.198532 0.570844
#
# Coordination Sequence:
#
# PCOD9301826 Si02
#       6
#     8   8   8   4   8   8
#     4  11  24  42  71 101 141 184 242 299 362 417
#     4  11  21  39  67 100 132 181 241 299 338 432
#     4  12  23  42  71 104 139 192 241 294 356 432
#     4  12  20  40  72  96 138 184 248 284 356 416
#     4  11  25  44  71 106 144 189 236 302 365 428
#     4  11  23  42  68 103 142 180 240 296 361 428
#
# _framework density 24.051838
#
# number of rings (size 3 to 8) (size 9 to 14) (size 15 to 20)
#    0.000    0.727    5.455    2.182    0.000    2.909 
#    0.000    2.727    0.000    0.000    0.000    0.000 
#    0.000    0.000    0.000    0.000    0.000    0.000 
#
# Total GULP energy -122577.853746 kJ/mol
# GULP energy per Si atom -5571.720625 kJ/mol
# Density = 2.399709 g / cm^3
# Si number density = 24.051838 Si / 1000 Ang^3
#
#
#
# Elastic Constant Matrix: (Units=GPa)
#
#
# Indices 1 2 3 4 5 6 
#
# 1 114.6115 10.7271 26.7024 0.0000 10.9029 0.0000
# 2 10.7271 20.3779 16.2706 0.0000 10.8006 0.0000
# 3 26.7024 16.2706 94.2927 0.0000 14.3964 0.0000
# 4 0.0000 0.0000 0.0000 20.3374 0.0000 10.1838
# 5 10.9029 10.8006 14.3964 0.0000 38.8767 0.0000
# 6 0.0000 0.0000 0.0000 10.1838 0.0000 48.0169
#
#
#
# Elastic Compliance Matrix: (Units=1/GPa)
#
#
# Indices 1 2 3 4 5 6 
#
# 1 0.009574 -0.002791 -0.002054 0.000000 -0.001149 0.000000
# 2 -0.002791 0.064570 -0.008196 0.000000 -0.014121 0.000000
# 3 -0.002054 -0.008196 0.012895 0.000000 -0.001922 0.000000
# 4 0.000000 0.000000 0.000000 0.055013 0.000000 -0.011668
# 5 -0.001149 -0.014121 -0.001922 0.000000 0.030679 0.000000
# 6 0.000000 0.000000 0.000000 -0.011668 0.000000 0.023301
#
#
# Mechanical properties :
#
#
# Convention : Reuss Voigt Hill
#
# Bulk Modulus (GPa) = 16.40479 37.40914 26.90697
# Shear Modulus (GPa) = 20.62433 33.15167 26.88800
#
# Velocity S-wave (km/s) = 2.93148 3.71663 3.34716
# Velocity P-wave (km/s) = 4.27709 5.83139 5.11364
#
# Compressibility (1/GPa) = 0.06095780
#
# Stress axis : x y z
#
# Youngs Moduli (GPa) = 104.44683 15.48707 77.55159
#
# Poissons Ratio (x) = 0.04322 0.15932
# Poissons Ratio (y) = 0.29148 0.63558
# Poissons Ratio (z) = 0.21457 0.12692
#
# Static dielectric constant tensor:
#      x y z
#    x 1.863360 0.000000 0.178770 
#    y 0.000000 -32.028970 0.000000 
#    z 0.178770 0.000000 2.214510 
# 
# From -- ./inp_files/152268.got.cif
#   From: 2010.05.17/outbox.cif.g08.bks.cpg/sg15_77_cif.got.tgz:152268.got - 2010.06.03 18:47:42.
