data_PCOD9301905
_publ_section_title
;
Structure prediction by ZEFSAII (Michael W. Deem and Ramdas Pophale) SiO2 
 PCOD9301905
Probable space group: C 2/C
;
_chemical_formula_sum "Si O2"
_cell_formula_units_Z 44
_cell_length_a 23.968779
_cell_length_b 11.661610
_cell_length_c 10.717786
_cell_angle_alpha 90.000000
_cell_angle_beta 130.320469
_cell_angle_gamma 90.000000
_cell_volume 2284.091994
_symmetry_space_group_name_H-M "C 2/C"
_symmetry_group_IT_number 15
_symmetry_cell_setting 'monoclinic'
loop_
_space_group_symop_operation_xyz
x,y,z
-x,y,1/2-z
-x,-y,-z
x,-y,1/2+z
1/2+x,1/2+y,z
1/2-x,1/2+y,1/2-z
1/2-x,1/2-y,-z
1/2+x,1/2-y,1/2+z
loop_
_atom_site_type_symbol
_atom_site_label
_atom_site_fract_x
_atom_site_fract_y
_atom_site_fract_z
Si Si1 0.924316 0.572382 0.686865
Si Si2 0.000000 0.356930 0.750000
Si Si3 0.212465 0.461170 0.118211
Si Si4 0.362102 0.721409 0.473583
Si Si5 0.805811 0.001375 0.003168
Si Si6 0.834468 0.778191 0.653617
O O1 0.955669 0.447240 0.775065
O O2 0.863188 0.533964 0.497183
O O3 0.882174 0.663018 0.709947
O O4 0.000000 0.628276 0.750000
O O5 0.941750 0.277670 0.598312
O O6 0.192555 0.327032 0.079944
O O7 0.254275 0.483749 0.307490
O O8 0.257822 0.491576 0.059629
O O9 0.350625 0.614947 0.548220
O O10 0.344719 0.681262 0.309185
O O11 0.853335 0.116845 0.089245
O O12 0.750000 0.750000 0.500000
#
# Coordination Sequence:
#
# PCOD9301905 Si02
#       6
#     8   4   8   8   8   8
#     4   9  20  41  63  94 125 172 208 258 323 385
#     4   8  22  42  62  88 132 164 212 260 318 388
#     4  11  21  40  65  95 127 166 213 264 321 377
#     4  11  22  42  62  92 130 168 217 265 319 379
#     4  12  23  39  65  96 130 167 211 274 322 368
#     4  12  21  39  67  94 132 166 214 270 319 381
#
# _framework density 19.263672
#
# number of rings (size 3 to 8) (size 9 to 14) (size 15 to 20)
#    0.545    0.727    5.455    0.545    0.000    0.727 
#    8.182    0.909    0.000    0.000    0.000    0.000 
#    0.000    0.000    0.000    0.000    0.000    0.000 
#
# Total GULP energy -122535.601778 kJ/mol
# GULP energy per Si atom -5569.800081 kJ/mol
# Density = 1.921983 g / cm^3
# Si number density = 19.263672 Si / 1000 Ang^3
#
#
#
# Elastic Constant Matrix: (Units=GPa)
#
#
# Indices 1 2 3 4 5 6 
#
# 1 72.7862 35.9705 47.2204 0.0000 7.8021 0.0000
# 2 35.9705 113.5312 38.9686 0.0000 4.2312 0.0000
# 3 47.2204 38.9686 97.7545 0.0000 -4.7836 0.0000
# 4 0.0000 0.0000 0.0000 26.8517 0.0000 -5.8643
# 5 7.8021 4.2312 -4.7836 0.0000 21.1522 0.0000
# 6 0.0000 0.0000 0.0000 -5.8643 0.0000 33.5858
#
#
#
# Elastic Compliance Matrix: (Units=1/GPa)
#
#
# Indices 1 2 3 4 5 6 
#
# 1 0.023257 -0.003428 -0.010369 0.000000 -0.010238 0.000000
# 2 -0.003428 0.010901 -0.002765 0.000000 -0.001541 0.000000
# 3 -0.010369 -0.002765 0.016740 0.000000 0.008163 0.000000
# 4 0.000000 0.000000 0.000000 0.038718 0.000000 0.006760
# 5 -0.010238 -0.001541 0.008163 0.000000 0.053207 0.000000
# 6 0.000000 0.000000 0.000000 0.006760 0.000000 0.030955
#
#
# Mechanical properties :
#
#
# Convention : Reuss Voigt Hill
#
# Bulk Modulus (GPa) = 56.26094 58.71011 57.48553
# Shear Modulus (GPa) = 23.49331 27.11212 25.30271
#
# Velocity S-wave (km/s) = 3.49602 3.75563 3.62815
# Velocity P-wave (km/s) = 6.75021 7.02493 6.88894
#
# Compressibility (1/GPa) = 0.01777432
#
# Stress axis : x y z
#
# Youngs Moduli (GPa) = 42.99734 91.73653 59.73684
#
# Poissons Ratio (x) = 0.31448 0.61940
# Poissons Ratio (y) = 0.14740 0.16517
# Poissons Ratio (z) = 0.44583 0.25365
#
# Static dielectric constant tensor:
#      x y z
#    x 1.701050 0.000000 0.008140 
#    y 0.000000 1.732780 0.000000 
#    z 0.008140 0.000000 1.651330 
# 
# From -- ./inp_files/60949.got.cif
#   From: 2010.05.17/outbox.cif.g08.bks.cpg/sg15_31_cif.got.tgz:60949.got - 2010.06.03 18:47:42.
