data_PCOD9301566
_publ_section_title
;
Structure prediction by ZEFSAII (Michael W. Deem and Ramdas Pophale) SiO2 
 PCOD9301566
Probable space group: C 2/C
;
_chemical_formula_sum "Si O2"
_cell_formula_units_Z 48
_cell_length_a 23.865950
_cell_length_b 11.175636
_cell_length_c 9.078473
_cell_angle_alpha 90.000000
_cell_angle_beta 87.824659
_cell_angle_gamma 90.000000
_cell_volume 2419.639644
_symmetry_space_group_name_H-M "C 2/C"
_symmetry_group_IT_number 15
_symmetry_cell_setting 'monoclinic'
loop_
_space_group_symop_operation_xyz
x,y,z
-x,y,1/2-z
-x,-y,-z
x,-y,1/2+z
1/2+x,1/2+y,z
1/2-x,1/2+y,1/2-z
1/2-x,1/2-y,-z
1/2+x,1/2-y,1/2+z
loop_
_atom_site_type_symbol
_atom_site_label
_atom_site_fract_x
_atom_site_fract_y
_atom_site_fract_z
Si Si1 0.948850 0.849775 0.183592
Si Si2 0.651049 0.516001 0.238882
Si Si3 0.905198 0.650889 0.401030
Si Si4 0.305615 0.670028 0.998704
Si Si5 0.444262 0.695488 0.352597
Si Si6 0.935828 0.554160 0.713522
O O1 0.941006 0.745612 0.303881
O O2 0.000000 0.923509 0.250000
O O3 0.891459 0.923530 0.178010
O O4 0.961863 0.804882 0.020144
O O5 0.684804 0.598108 0.349978
O O6 0.688044 0.433551 0.126845
O O7 0.605970 0.602173 0.163998
O O8 0.854941 0.733188 0.466153
O O9 0.931176 0.585384 0.541392
O O10 0.895026 0.548171 0.279884
O O11 0.250000 0.750000 0.000000
O O12 0.500000 0.676007 0.250000
O O13 0.423004 0.824608 0.302757
O O14 0.000000 0.520208 0.750000
#
# Coordination Sequence:
#
# PCOD9301566 Si02
#       6
#     8   8   8   8   8   8
#     4  11  22  36  63  99 138 178 213 255 327 397
#     4  11  23  44  68  95 132 167 216 277 323 400
#     4  11  23  40  62  94 134 176 225 269 320 387
#     4  11  26  48  70  95 126 168 225 284 339 383
#     4  11  22  36  63 100 141 180 213 255 325 399
#     4  11  21  36  61  93 139 177 216 259 315 393
#
# _framework density 19.837665000000001
#
# number of rings (size 3 to 8) (size 9 to 14) (size 15 to 20)
#    0.000    1.000    3.333    4.500    2.333    2.667 
#    0.000    0.833    0.000    0.000    0.000    0.000 
#    0.000    0.000    0.000    0.000    0.000    0.000 
#
# Total GULP energy -133901.572754 kJ/mol
# GULP energy per Si atom -5579.232198 kJ/mol
# Density = 1.979251 g / cm^3
# Si number density = 19.837665 Si / 1000 Ang^3
#
#
#
# Elastic Constant Matrix: (Units=GPa)
#
#
# Indices 1 2 3 4 5 6 
#
# 1 91.0877 47.2058 62.8807 0.0000 -0.4175 0.0000
# 2 47.2058 131.8277 48.6183 0.0000 1.4758 0.0000
# 3 62.8807 48.6183 145.2780 0.0000 15.8649 0.0000
# 4 0.0000 0.0000 0.0000 27.1640 0.0000 5.0999
# 5 -0.4175 1.4758 15.8649 0.0000 16.7269 0.0000
# 6 0.0000 0.0000 0.0000 5.0999 0.0000 29.6534
#
#
#
# Elastic Compliance Matrix: (Units=1/GPa)
#
#
# Indices 1 2 3 4 5 6 
#
# 1 0.018123 -0.003844 -0.007412 0.000000 0.007822 0.000000
# 2 -0.003844 0.009543 -0.001592 0.000000 0.000573 0.000000
# 3 -0.007412 -0.001592 0.011857 0.000000 -0.011291 0.000000
# 4 0.000000 0.000000 0.000000 0.038042 0.000000 -0.006543
# 5 0.007822 0.000573 -0.011291 0.000000 0.070638 0.000000
# 6 0.000000 0.000000 0.000000 -0.006543 0.000000 0.034848
#
#
# Mechanical properties :
#
#
# Convention : Reuss Voigt Hill
#
# Bulk Modulus (GPa) = 72.32176 76.17811 74.24994
# Shear Modulus (GPa) = 23.43501 28.67478 26.05489
#
# Velocity S-wave (km/s) = 3.44079 3.80606 3.62802
# Velocity P-wave (km/s) = 7.23335 7.60256 7.42025
#
# Compressibility (1/GPa) = 0.01382710
#
# Stress axis : x y z
#
# Youngs Moduli (GPa) = 55.17863 104.78989 84.33518
#
# Poissons Ratio (x) = 0.40277 0.62509
# Poissons Ratio (y) = 0.21208 0.13430
# Poissons Ratio (z) = 0.40898 0.16688
#
# Static dielectric constant tensor:
#      x y z
#    x 2.383740 0.000000 -0.204720 
#    y 0.000000 1.739320 0.000000 
#    z -0.204720 0.000000 1.776270 
# 
# From -- ./inp_files/60630.got.cif
#   From: 2010.05.17/outbox.cif.g08.bks.cpg/sg15_31_cif.got.tgz:60630.got - 2010.06.03 18:47:42.
