data_PCOD9301082
_publ_section_title
;
Structure prediction by ZEFSAII (Michael W. Deem and Ramdas Pophale) SiO2 
 PCOD9301082
Probable space group: C 2/C
;
_chemical_formula_sum "Si O2"
_cell_formula_units_Z 60
_cell_length_a 18.029747
_cell_length_b 22.310033
_cell_length_c 11.404712
_cell_angle_alpha 90.000000
_cell_angle_beta 43.968513
_cell_angle_gamma 90.000000
_cell_volume 3184.917286
_symmetry_space_group_name_H-M "C 2/C"
_symmetry_group_IT_number 15
_symmetry_cell_setting 'monoclinic'
loop_
_space_group_symop_operation_xyz
x,y,z
-x,y,1/2-z
-x,-y,-z
x,-y,1/2+z
1/2+x,1/2+y,z
1/2-x,1/2+y,1/2-z
1/2-x,1/2-y,-z
1/2+x,1/2-y,1/2+z
loop_
_atom_site_type_symbol
_atom_site_label
_atom_site_fract_x
_atom_site_fract_y
_atom_site_fract_z
Si Si1 0.472886 0.798876 0.647163
Si Si2 0.246735 0.670089 0.201575
Si Si3 0.844855 0.275742 0.241486
Si Si4 0.108523 0.169998 0.685477
Si Si5 0.673046 0.370918 0.503757
Si Si6 0.000000 0.214526 0.250000
Si Si7 0.871639 0.929271 0.694206
Si Si8 0.878236 0.933941 0.157681
O O1 0.500000 0.817355 0.750000
O O2 0.377345 0.833341 0.690809
O O3 0.579299 0.798824 0.448944
O O4 0.428888 0.730311 0.706886
O O5 0.273796 0.721929 0.266316
O O6 0.296972 0.608074 0.190905
O O7 0.309954 0.686325 0.010338
O O8 0.774331 0.328229 0.376724
O O9 0.921261 0.250607 0.256175
O O10 0.154131 0.119603 0.718858
O O11 0.000000 0.145106 0.750000
O O12 0.573584 0.327665 0.586093
O O13 0.646605 0.397080 0.660721
O O14 0.676270 0.422944 0.405221
O O15 0.993907 0.927422 0.509181
O O16 0.850192 0.999874 0.732473
#
# Coordination Sequence:
#
# PCOD9301082 Si02
#       8
#     8   8   8   8   8   4   8   8
#     4  11  24  39  61  94 128 163 208 256 317 380
#     4  12  22  40  62  92 133 166 209 257 316 381
#     4  12  24  38  62  93 129 171 201 257 316 377
#     4  11  20  37  62  93 126 161 206 253 316 376
#     4  12  24  40  62  92 129 162 209 252 312 381
#     4  12  22  40  60  94 134 168 200 252 314 390
#     4  11  24  39  61  92 124 166 203 255 316 371
#     4  11  23  40  62  89 128 161 207 259 308 372
#
# _framework density 18.838795000000001
#
# number of rings (size 3 to 8) (size 9 to 14) (size 15 to 20)
#    0.000    0.533    6.667    3.200    5.600    0.000 
#    0.000    0.000    0.000    0.800    5.200    0.000 
#    0.000    0.000    0.000    0.000    0.000    0.000 
#
# Total GULP energy -167660.853935 kJ/mol
# GULP energy per Si atom -5588.695131 kJ/mol
# Density = 1.879592 g / cm^3
# Si number density = 18.838795 Si / 1000 Ang^3
#
#
#
# Elastic Constant Matrix: (Units=GPa)
#
#
# Indices 1 2 3 4 5 6 
#
# 1 100.0079 40.8936 22.0815 0.0000 -4.5458 0.0000
# 2 40.8936 89.1245 36.3810 0.0000 -0.9595 0.0000
# 3 22.0815 36.3810 62.4195 0.0000 2.3426 0.0000
# 4 0.0000 0.0000 0.0000 20.0282 0.0000 2.2700
# 5 -4.5458 -0.9595 2.3426 0.0000 26.4360 0.0000
# 6 0.0000 0.0000 0.0000 2.2700 0.0000 17.4333
#
#
#
# Elastic Compliance Matrix: (Units=1/GPa)
#
#
# Indices 1 2 3 4 5 6 
#
# 1 0.012517 -0.005092 -0.001539 0.000000 0.002104 0.000000
# 2 -0.005092 0.016840 -0.008030 0.000000 0.000447 0.000000
# 3 -0.001539 -0.008030 0.021337 0.000000 -0.002447 0.000000
# 4 0.000000 0.000000 0.000000 0.050678 0.000000 -0.006599
# 5 0.002104 0.000447 -0.002447 0.000000 0.038422 0.000000
# 6 0.000000 0.000000 0.000000 -0.006599 0.000000 0.058221
#
#
# Mechanical properties :
#
#
# Convention : Reuss Voigt Hill
#
# Bulk Modulus (GPa) = 46.79272 50.02934 48.41103
# Shear Modulus (GPa) = 21.32554 22.92589 22.12572
#
# Velocity S-wave (km/s) = 3.36817 3.49227 3.43078
# Velocity P-wave (km/s) = 6.32602 6.54793 6.43793
#
# Compressibility (1/GPa) = 0.02137085
#
# Stress axis : x y z
#
# Youngs Moduli (GPa) = 79.89185 59.38371 46.86639
#
# Poissons Ratio (x) = 0.30241 0.07212
# Poissons Ratio (y) = 0.40684 0.37635
# Poissons Ratio (z) = 0.12294 0.47686
#
# Static dielectric constant tensor:
#      x y z
#    x 1.695330 0.000000 0.011560 
#    y 0.000000 1.654580 0.000000 
#    z 0.011560 0.000000 1.668810 
# 
# From -- ./inp_files/107603.got.cif
#   From: 2010.05.17/outbox.cif.g08.bks.cpg/sg15_54_cif.got.tgz:107603.got - 2010.06.03 18:47:42.
