data_PCOD9301262
_publ_section_title
;
Structure prediction by ZEFSAII (Michael W. Deem and Ramdas Pophale) SiO2 
 PCOD9301262
Probable space group: C 2/C
;
_chemical_formula_sum "Si O2"
_cell_formula_units_Z 56
_cell_length_a 11.416611
_cell_length_b 11.588753
_cell_length_c 23.109000
_cell_angle_alpha 90.000000
_cell_angle_beta 114.159168
_cell_angle_gamma 90.000000
_cell_volume 2789.626496
_symmetry_space_group_name_H-M "C 2/C"
_symmetry_group_IT_number 15
_symmetry_cell_setting 'monoclinic'
loop_
_space_group_symop_operation_xyz
x,y,z
-x,y,1/2-z
-x,-y,-z
x,-y,1/2+z
1/2+x,1/2+y,z
1/2-x,1/2+y,1/2-z
1/2-x,1/2-y,-z
1/2+x,1/2-y,1/2+z
loop_
_atom_site_type_symbol
_atom_site_label
_atom_site_fract_x
_atom_site_fract_y
_atom_site_fract_z
Si Si1 0.373734 0.478815 0.434926
Si Si2 0.948933 0.914013 0.827849
Si Si3 0.085902 0.328109 0.126397
Si Si4 0.660756 0.948699 0.477595
Si Si5 0.362083 0.190034 0.987880
Si Si6 0.350132 0.788920 0.920984
Si Si7 0.790632 0.029490 0.182258
O O1 0.500000 0.500000 0.500000
O O2 0.402603 0.532469 0.378803
O O3 0.256560 0.511774 0.452847
O O4 0.329877 0.346471 0.415601
O O5 0.952370 0.774543 0.837430
O O6 0.850342 0.944535 0.756897
O O7 0.086139 0.968356 0.836398
O O8 0.127156 0.264490 0.075056
O O9 0.202247 0.414598 0.166180
O O10 0.961309 0.403116 0.082847
O O11 0.700105 0.844502 0.528527
O O12 0.642858 0.051821 0.519820
O O13 0.250000 0.250000 0.000000
O O14 0.496232 0.204688 0.047091
O O15 0.293686 0.863699 0.857900
#
# Coordination Sequence:
#
# PCOD9301262 Si02
#       7
#     8   8   8   8   8   8   8
#     4  12  24  39  65 104 135 164 226 284 335 403
#     4  11  27  44  67 100 130 180 226 283 332 393
#     4  11  22  45  69  90 136 175 221 275 330 407
#     4  11  20  40  63  99 130 171 219 268 347 399
#     4  11  21  36  63 100 133 163 215 282 337 392
#     4  11  21  38  65  93 132 178 215 270 342 406
#     4  11  24  47  68  93 132 180 232 268 336 405
#
# _framework density 20.074372
#
# number of rings (size 3 to 8) (size 9 to 14) (size 15 to 20)
#    0.000    0.857    2.857    6.429    4.000    0.000 
#    0.000    0.000    0.000    0.000    0.000    0.000 
#    0.000    0.000    0.000    0.000    0.000    0.000 
#
# Total GULP energy -156171.862394 kJ/mol
# GULP energy per Si atom -5577.566514 kJ/mol
# Density = 2.002868 g / cm^3
# Si number density = 20.074372 Si / 1000 Ang^3
#
#
#
# Elastic Constant Matrix: (Units=GPa)
#
#
# Indices 1 2 3 4 5 6 
#
# 1 84.0182 16.4968 55.1738 0.0000 -13.2201 0.0000
# 2 16.4968 95.3436 21.7836 0.0000 -4.0383 0.0000
# 3 55.1738 21.7836 111.6957 0.0000 4.9920 0.0000
# 4 0.0000 0.0000 0.0000 22.0988 0.0000 -8.2486
# 5 -13.2201 -4.0383 4.9920 0.0000 28.6031 0.0000
# 6 0.0000 0.0000 0.0000 -8.2486 0.0000 22.4697
#
#
#
# Elastic Compliance Matrix: (Units=1/GPa)
#
#
# Indices 1 2 3 4 5 6 
#
# 1 0.020835 -0.000685 -0.010667 0.000000 0.011395 0.000000
# 2 -0.000685 0.011108 -0.001899 0.000000 0.001583 0.000000
# 3 -0.010667 -0.001899 0.014941 0.000000 -0.007806 0.000000
# 4 0.000000 0.000000 0.000000 0.052436 0.000000 0.019249
# 5 0.011395 0.001583 -0.007806 0.000000 0.041814 0.000000
# 6 0.000000 0.000000 0.000000 0.019249 0.000000 0.051571
#
#
# Mechanical properties :
#
#
# Convention : Reuss Voigt Hill
#
# Bulk Modulus (GPa) = 49.06345 53.10731 51.08538
# Shear Modulus (GPa) = 22.12388 27.80788 24.96588
#
# Velocity S-wave (km/s) = 3.32338 3.72592 3.53040
# Velocity P-wave (km/s) = 6.26262 6.70990 6.49011
#
# Compressibility (1/GPa) = 0.02038177
#
# Stress axis : x y z
#
# Youngs Moduli (GPa) = 47.99693 90.02719 66.92861
#
# Poissons Ratio (x) = 0.06168 0.71394
# Poissons Ratio (y) = 0.03288 0.12707
# Poissons Ratio (z) = 0.51199 0.17093
#
# Static dielectric constant tensor:
#      x y z
#    x 1.819740 0.000000 -0.026500 
#    y 0.000000 1.412700 0.000000 
#    z -0.026500 0.000000 1.681280 
# 
# From -- ./inp_files/236963.got.cif
#   From: 2010.05.17/outbox.cif.g08.bks.cpg/sg15_119_cif.got.tgz:236963.got - 2010.06.03 18:47:42.
