data_PCOD9301589
_publ_section_title
;
Structure prediction by ZEFSAII (Michael W. Deem and Ramdas Pophale) SiO2 
 PCOD9301589
Probable space group: C 2/C
;
_chemical_formula_sum "Si O2"
_cell_formula_units_Z 40
_cell_length_a 11.870769
_cell_length_b 11.428657
_cell_length_c 13.527900
_cell_angle_alpha 90.000000
_cell_angle_beta 123.401635
_cell_angle_gamma 90.000000
_cell_volume 1532.158182
_symmetry_space_group_name_H-M "C 2/C"
_symmetry_group_IT_number 15
_symmetry_cell_setting 'monoclinic'
loop_
_space_group_symop_operation_xyz
x,y,z
-x,y,1/2-z
-x,-y,-z
x,-y,1/2+z
1/2+x,1/2+y,z
1/2-x,1/2+y,1/2-z
1/2-x,1/2-y,-z
1/2+x,1/2-y,1/2+z
loop_
_atom_site_type_symbol
_atom_site_label
_atom_site_fract_x
_atom_site_fract_y
_atom_site_fract_z
Si Si1 0.651724 0.504878 0.835443
Si Si2 0.277714 0.760075 0.631445
Si Si3 0.987184 0.710280 0.863291
Si Si4 0.129868 0.080602 0.530192
Si Si5 0.851683 0.513982 0.271803
O O1 0.500000 0.459769 0.750000
O O2 0.646602 0.640807 0.807058
O O3 0.687446 0.488755 0.965228
O O4 0.766511 0.446385 0.825792
O O5 0.250000 0.750000 0.500000
O O6 0.142737 0.753793 0.634401
O O7 0.358704 0.873884 0.705419
O O8 0.976122 0.568005 0.863054
O O9 0.000000 0.727966 0.750000
O O10 0.096994 0.790120 0.973380
O O11 0.246485 0.074143 0.666629
O O12 0.000000 0.000000 0.500000
#
# Coordination Sequence:
#
# PCOD9301589 Si02
#       5
#     8   8   8   8   8
#     4  11  21  36  67  98 130 175 226 283 334 416
#     4  11  21  41  68  98 130 174 233 281 335 402
#     4  11  25  43  66  99 144 179 223 285 346 410
#     4  12  20  40  72  98 128 181 233 277 338 413
#     4  11  24  40  67 102 138 175 229 288 340 402
#
# _framework density 26.106964000000001
#
# number of rings (size 3 to 8) (size 9 to 14) (size 15 to 20)
#    0.000    0.800    6.000    1.800    0.000    1.600 
#    0.000    1.000    0.000    0.000    0.000    0.000 
#    0.000    0.000    0.000    0.000    0.000    0.000 
#
# Total GULP energy -111723.803011 kJ/mol
# GULP energy per Si atom -5586.190151 kJ/mol
# Density = 2.604754 g / cm^3
# Si number density = 26.106964 Si / 1000 Ang^3
#
#
#
# Elastic Constant Matrix: (Units=GPa)
#
#
# Indices 1 2 3 4 5 6 
#
# 1 151.9994 34.2104 58.2437 0.0000 -31.4096 0.0000
# 2 34.2104 181.2171 22.4556 0.0000 -8.4220 0.0000
# 3 58.2437 22.4556 89.3336 0.0000 -42.9200 0.0000
# 4 0.0000 0.0000 0.0000 40.9165 0.0000 -3.3893
# 5 -31.4096 -8.4220 -42.9200 0.0000 48.0125 0.0000
# 6 0.0000 0.0000 0.0000 -3.3893 0.0000 -17.1080
#
#
#
# Elastic Compliance Matrix: (Units=1/GPa)
#
#
# Indices 1 2 3 4 5 6 
#
# 1 0.008981 -0.001017 -0.005018 0.000000 0.001211 0.000000
# 2 -0.001017 0.005818 -0.001102 0.000000 -0.000630 0.000000
# 3 -0.005018 -0.001102 0.022913 0.000000 0.017007 0.000000
# 4 0.000000 0.000000 0.000000 0.024045 0.000000 -0.004764
# 5 0.001211 -0.000630 0.017007 0.000000 0.036713 0.000000
# 6 0.000000 0.000000 0.000000 -0.004764 0.000000 -0.057508
#
#
# Mechanical properties :
#
#
# Convention : Reuss Voigt Hill
#
# Bulk Modulus (GPa) = 42.66485 72.48551 57.57518
# Shear Modulus (GPa) = 79.30413 34.87356 57.08884
#
# Velocity S-wave (km/s) = 5.51748 3.65882 4.68132
# Velocity P-wave (km/s) = 7.54771 6.75828 7.16388
#
# Compressibility (1/GPa) = 0.02343850
#
# Stress axis : x y z
#
# Youngs Moduli (GPa) = 111.34661 171.89381 43.64260
#
# Poissons Ratio (x) = 0.17488 0.21898
# Poissons Ratio (y) = 0.11328 0.04808
# Poissons Ratio (z) = 0.55870 0.18937
#
# Static dielectric constant tensor:
#      x y z
#    x 2.154820 0.000000 0.022420 
#    y 0.000000 2.084320 0.000000 
#    z 0.022420 0.000000 2.197160 
# 
# From -- ./inp_files/142365.got.cif
#   From: 2010.05.17/outbox.cif.g08.bks.cpg/sg15_72_cif.got.tgz:142365.got - 2010.06.03 18:47:42.
