data_PCOD9301223
_publ_section_title
;
Structure prediction by ZEFSAII (Michael W. Deem and Ramdas Pophale) SiO2 
 PCOD9301223
Probable space group: C 2/C
;
_chemical_formula_sum "Si O2"
_cell_formula_units_Z 48
_cell_length_a 23.887307
_cell_length_b 8.709369
_cell_length_c 13.881337
_cell_angle_alpha 90.000000
_cell_angle_beta 40.759999
_cell_angle_gamma 90.000000
_cell_volume 1885.499813
_symmetry_space_group_name_H-M "C 2/C"
_symmetry_group_IT_number 15
_symmetry_cell_setting 'monoclinic'
loop_
_space_group_symop_operation_xyz
x,y,z
-x,y,1/2-z
-x,-y,-z
x,-y,1/2+z
1/2+x,1/2+y,z
1/2-x,1/2+y,1/2-z
1/2-x,1/2-y,-z
1/2+x,1/2-y,1/2+z
loop_
_atom_site_type_symbol
_atom_site_label
_atom_site_fract_x
_atom_site_fract_y
_atom_site_fract_z
Si Si1 0.820047 0.229587 0.176566
Si Si2 0.404689 0.927585 0.909411
Si Si3 0.598895 0.511743 0.117728
Si Si4 0.116733 0.720111 0.444465
Si Si5 0.713355 0.092702 0.599092
Si Si6 0.907718 0.956369 0.154516
O O1 0.718627 0.227257 0.310256
O O2 0.841824 0.342997 0.238317
O O3 0.847494 0.057173 0.165054
O O4 0.862516 0.285394 0.021719
O O5 0.500000 0.895600 0.750000
O O6 0.404360 0.723134 0.635434
O O7 0.413042 0.058389 0.979642
O O8 0.500000 0.438576 0.250000
O O9 0.609169 0.514791 0.218899
O O10 0.705220 0.496696 0.965389
O O11 0.583373 0.657940 0.068121
O O12 0.157526 0.502957 0.093487
O O13 0.750000 0.250000 0.500000
O O14 0.000000 0.000000 0.000000
#
# Coordination Sequence:
#
# PCOD9301223 Si02
#       6
#     8   8   8   8   8   8
#     4  11  24  45  70 105 143 184 240 307 363 425
#     4  12  26  46  72 106 147 192 240 302 374 442
#     4  11  20  39  65 103 131 181 237 291 342 430
#     4  11  22  42  74 101 136 191 240 289 366 441
#     4  11  21  42  74  99 140 191 240 288 365 447
#     4  12  24  40  70 101 138 181 245 293 353 436
#
# _framework density 25.457439999999998
#
# number of rings (size 3 to 8) (size 9 to 14) (size 15 to 20)
#    0.000    0.667    6.667    2.500    2.333    0.667 
#    3.000    0.000    0.000    6.000    0.000    0.000 
#    0.000    0.000    0.000    0.000    0.000    0.000 
#
# Total GULP energy -133860.940684 kJ/mol
# GULP energy per Si atom -5577.539195 kJ/mol
# Density = 2.539950 g / cm^3
# Si number density = 25.457440 Si / 1000 Ang^3
#
#
#
# Elastic Constant Matrix: (Units=GPa)
#
#
# Indices 1 2 3 4 5 6 
#
# 1 97.4996 41.8107 39.2300 0.0000 -4.6956 0.0000
# 2 41.8107 71.8566 35.1753 0.0008 -0.0033 -0.0006
# 3 39.2300 35.1753 141.4876 0.0001 -0.0283 -0.0001
# 4 0.0000 0.0008 0.0001 6.4828 -0.0002 -41.4373
# 5 -4.6956 -0.0033 -0.0283 -0.0002 37.5651 0.0002
# 6 0.0000 -0.0006 -0.0001 -41.4373 0.0002 -32.3376
#
#
#
# Elastic Compliance Matrix: (Units=1/GPa)
#
#
# Indices 1 2 3 4 5 6 
#
# 1 0.014336 -0.007282 -0.002164 0.000000 0.001790 0.000000
# 2 -0.007282 0.019544 -0.002840 0.000000 -0.000911 0.000000
# 3 -0.002164 -0.002840 0.008374 0.000000 -0.000264 0.000000
# 4 0.000000 0.000000 0.000000 0.016784 0.000000 -0.021507
# 5 0.001790 -0.000911 -0.000264 0.000000 0.026844 0.000000
# 6 0.000000 0.000000 0.000000 -0.021507 0.000000 -0.003365
#
#
# Mechanical properties :
#
#
# Convention : Reuss Voigt Hill
#
# Bulk Modulus (GPa) = 56.55655 60.36398 58.46026
# Shear Modulus (GPa) = 44.25412 15.31723 29.78568
#
# Velocity S-wave (km/s) = 4.17388 2.45558 3.42426
# Velocity P-wave (km/s) = 6.74483 5.63942 6.21674
#
# Compressibility (1/GPa) = 0.01768142
#
# Stress axis : x y z
#
# Youngs Moduli (GPa) = 69.75303 51.16653 119.42018
#
# Poissons Ratio (x) = 0.37261 0.25845
# Poissons Ratio (y) = 0.50796 0.33914
# Poissons Ratio (z) = 0.15096 0.14531
#
# Static dielectric constant tensor:
#      x y z
#    x 2.236040 0.000000 0.155450 
#    y 0.000000 2.136640 0.000000 
#    z 0.155450 0.000000 2.065900 
# 
# From -- ./inp_files/111441.got.cif
#   From: 2010.05.17/outbox.cif.g08.bks.cpg/sg15_56_cif.got.tgz:111441.got - 2010.06.03 18:47:42.
