data_PCOD9301934
_publ_section_title
;
Structure prediction by ZEFSAII (Michael W. Deem and Ramdas Pophale) SiO2 
 PCOD9301934
Probable space group: C 2/C
;
_chemical_formula_sum "Si O2"
_cell_formula_units_Z 36
_cell_length_a 12.220616
_cell_length_b 16.399536
_cell_length_c 8.367242
_cell_angle_alpha 90.000000
_cell_angle_beta 73.783803
_cell_angle_gamma 90.000000
_cell_volume 1610.183509
_symmetry_space_group_name_H-M "C 2/C"
_symmetry_group_IT_number 15
_symmetry_cell_setting 'monoclinic'
loop_
_space_group_symop_operation_xyz
x,y,z
-x,y,1/2-z
-x,-y,-z
x,-y,1/2+z
1/2+x,1/2+y,z
1/2-x,1/2+y,1/2-z
1/2-x,1/2-y,-z
1/2+x,1/2-y,1/2+z
loop_
_atom_site_type_symbol
_atom_site_label
_atom_site_fract_x
_atom_site_fract_y
_atom_site_fract_z
Si Si1 0.080232 0.053981 0.859226
Si Si2 0.926360 0.643420 0.616928
Si Si3 0.500000 0.137623 0.250000
Si Si4 0.818853 0.468907 0.653522
Si Si5 0.246784 0.163512 0.922227
O O1 0.122171 0.129938 0.944104
O O2 0.000000 0.081390 0.750000
O O3 0.194133 0.003679 0.756103
O O4 0.000000 0.000000 0.000000
O O5 0.899572 0.547658 0.597305
O O6 0.804843 0.674965 0.725911
O O7 0.000000 0.654447 0.750000
O O8 0.974295 0.679050 0.432312
O O9 0.613519 0.084672 0.243797
O O10 0.804414 0.408812 0.506524
O O11 0.250000 0.250000 0.000000
#
# Coordination Sequence:
#
# PCOD9301934 Si02
#       5
#     8   8   4   8   8
#     4  11  23  44  70 101 139 199 257 293 351 460
#     4  11  21  40  68 102 135 176 231 294 360 431
#     4  12  22  36  68 110 130 172 234 298 362 428
#     4  11  22  40  69 101 141 181 242 296 357 443
#     4  11  25  46  66 103 148 187 241 309 374 424
#
# _framework density 22.357702
#
# number of rings (size 3 to 8) (size 9 to 14) (size 15 to 20)
#    0.000    0.889    5.556    3.333    3.111    0.000 
#    6.000    1.111    0.000    0.000    0.000    0.000 
#    0.000    0.000    0.000    0.000    0.000    0.000 
#
# Total GULP energy -100409.634950 kJ/mol
# GULP energy per Si atom -5578.313053 kJ/mol
# Density = 2.230681 g / cm^3
# Si number density = 22.357702 Si / 1000 Ang^3
#
#
#
# Elastic Constant Matrix: (Units=GPa)
#
#
# Indices 1 2 3 4 5 6 
#
# 1 110.8086 12.5693 18.2871 0.0000 18.7029 0.0000
# 2 12.5693 74.6465 32.0967 0.0000 1.3162 0.0000
# 3 18.2871 32.0967 143.0392 0.0000 6.5352 0.0000
# 4 0.0000 0.0000 0.0000 14.7391 0.0000 12.9291
# 5 18.7029 1.3162 6.5352 0.0000 54.7381 0.0000
# 6 0.0000 0.0000 0.0000 12.9291 0.0000 15.0040
#
#
#
# Elastic Compliance Matrix: (Units=1/GPa)
#
#
# Indices 1 2 3 4 5 6 
#
# 1 0.009849 -0.001244 -0.000832 0.000000 -0.003236 0.000000
# 2 -0.001244 0.014984 -0.003224 0.000000 0.000449 0.000000
# 3 -0.000832 -0.003224 0.007847 0.000000 -0.000575 0.000000
# 4 0.000000 0.000000 0.000000 0.277936 0.000000 -0.239500
# 5 -0.003236 0.000449 -0.000575 0.000000 0.019432 0.000000
# 6 0.000000 0.000000 0.000000 -0.239500 0.000000 0.273029
#
#
# Mechanical properties :
#
#
# Convention : Reuss Voigt Hill
#
# Bulk Modulus (GPa) = 45.28754 50.48893 47.88824
# Shear Modulus (GPa) = 8.05105 34.59898 21.32502
#
# Velocity S-wave (km/s) = 1.89969 3.93812 3.09173
# Velocity P-wave (km/s) = 5.01115 6.58101 5.84899
#
# Compressibility (1/GPa) = 0.02208113
#
# Stress axis : x y z
#
# Youngs Moduli (GPa) = 101.53137 66.73725 127.43442
#
# Poissons Ratio (x) = 0.08299 0.10606
# Poissons Ratio (y) = 0.12626 0.41083
# Poissons Ratio (z) = 0.08450 0.21515
#
# Static dielectric constant tensor:
#      x y z
#    x 1.936670 0.000000 0.003340 
#    y 0.000000 1.753400 0.000000 
#    z 0.003340 0.000000 1.777220 
# 
# From -- ./inp_files/28713.got.cif
#   From: 2010.05.17/outbox.cif.g08.bks.cpg/sg15_15_cif.got.tgz:28713.got - 2010.06.03 18:47:42.
