data_PCOD9301391
_publ_section_title
;
Structure prediction by ZEFSAII (Michael W. Deem and Ramdas Pophale) SiO2 
 PCOD9301391
Probable space group: C 2/C
;
_chemical_formula_sum "Si O2"
_cell_formula_units_Z 64
_cell_length_a 30.007685
_cell_length_b 10.899367
_cell_length_c 8.341440
_cell_angle_alpha 90.000000
_cell_angle_beta 84.153629
_cell_angle_gamma 90.000000
_cell_volume 2714.000743
_symmetry_space_group_name_H-M "C 2/C"
_symmetry_group_IT_number 15
_symmetry_cell_setting 'monoclinic'
loop_
_space_group_symop_operation_xyz
x,y,z
-x,y,1/2-z
-x,-y,-z
x,-y,1/2+z
1/2+x,1/2+y,z
1/2-x,1/2+y,1/2-z
1/2-x,1/2-y,-z
1/2+x,1/2-y,1/2+z
loop_
_atom_site_type_symbol
_atom_site_label
_atom_site_fract_x
_atom_site_fract_y
_atom_site_fract_z
Si Si1 0.185426 0.848966 0.483464
Si Si2 0.845611 0.785379 0.523654
Si Si3 0.453505 0.362165 0.168135
Si Si4 0.772570 0.064578 0.205745
Si Si5 0.325764 0.121393 0.219051
Si Si6 0.947844 0.400470 0.805089
Si Si7 0.895492 0.413260 0.144520
Si Si8 0.405736 0.519566 0.430204
O O1 0.215084 0.884226 0.624529
O O2 0.187272 0.713500 0.417022
O O3 0.202935 0.935801 0.332799
O O4 0.134638 0.884927 0.544619
O O5 0.797107 0.843341 0.573223
O O6 0.843930 0.700139 0.365159
O O7 0.862151 0.700596 0.663811
O O8 0.881477 0.895288 0.504345
O O9 0.500000 0.367666 0.250000
O O10 0.436998 0.222351 0.203823
O O11 0.421052 0.464392 0.256232
O O12 0.449087 0.410280 0.988969
O O13 0.719619 0.056173 0.205623
O O14 0.361622 0.027460 0.134261
O O15 0.924956 0.530335 0.773874
O O16 0.000000 0.416621 0.750000
O O17 0.930707 0.377907 0.991290
#
# Coordination Sequence:
#
# PCOD9301391 Si02
#       8
#     8   8   8   8   8   8   8   8
#     4  11  24  42  65  99 130 184 235 282 355 414
#     4  11  24  44  66  95 138 180 229 283 352 419
#     4  11  23  42  68 100 131 169 221 283 346 414
#     4  11  26  41  69  97 139 180 230 300 351 404
#     4  12  26  43  70  98 140 185 239 289 351 420
#     4  11  25  47  70  99 141 182 231 290 352 423
#     4  12  24  44  71  99 136 185 234 281 355 419
#     4  11  20  43  66  91 131 171 216 278 340 415
#
# _framework density 23.581424999999999
#
# number of rings (size 3 to 8) (size 9 to 14) (size 15 to 20)
#    0.000    0.750    2.500    6.000    5.250    0.000 
#    2.250    0.625    0.000    0.000    0.000    0.000 
#    0.000    0.000    0.000    0.000    0.000    0.000 
#
# Total GULP energy -178661.545299 kJ/mol
# GULP energy per Si atom -5583.173291 kJ/mol
# Density = 2.352775 g / cm^3
# Si number density = 23.581425 Si / 1000 Ang^3
#
#
#
# Elastic Constant Matrix: (Units=GPa)
#
#
# Indices 1 2 3 4 5 6 
#
# 1 109.0772 5.4848 -5.7284 0.0000 -7.4968 0.0000
# 2 5.4848 40.4794 19.5154 0.0000 -9.0240 0.0000
# 3 -5.7284 19.5154 35.3596 0.0000 1.5264 0.0000
# 4 0.0000 0.0000 0.0000 30.3977 0.0000 7.6002
# 5 -7.4968 -9.0240 1.5264 0.0000 34.4336 0.0000
# 6 0.0000 0.0000 0.0000 7.6002 0.0000 14.4726
#
#
#
# Elastic Compliance Matrix: (Units=1/GPa)
#
#
# Indices 1 2 3 4 5 6 
#
# 1 0.009522 -0.002326 0.002769 0.000000 0.001341 0.000000
# 2 -0.002326 0.037776 -0.021673 0.000000 0.010354 0.000000
# 3 0.002769 -0.021673 0.040989 0.000000 -0.006894 0.000000
# 4 0.000000 0.000000 0.000000 0.037869 0.000000 -0.019887
# 5 0.001341 0.010354 -0.006894 0.000000 0.032352 0.000000
# 6 0.000000 0.000000 0.000000 -0.019887 0.000000 0.079539
#
#
# Mechanical properties :
#
#
# Convention : Reuss Voigt Hill
#
# Bulk Modulus (GPa) = 21.82163 24.82888 23.32526
# Shear Modulus (GPa) = 16.90422 26.90373 21.90398
#
# Velocity S-wave (km/s) = 2.68030 3.38137 3.05104
# Velocity P-wave (km/s) = 4.34195 5.07905 4.72489
#
# Compressibility (1/GPa) = 0.04582610
#
# Stress axis : x y z
#
# Youngs Moduli (GPa) = 105.01629 26.47184 24.39704
#
# Poissons Ratio (x) = 0.06158 -0.06754
# Poissons Ratio (y) = 0.24428 0.52875
# Poissons Ratio (z) = -0.29074 0.57372
#
# Static dielectric constant tensor:
#      x y z
#    x 1.925800 0.000000 0.037650 
#    y 0.000000 1.870960 0.000000 
#    z 0.037650 0.000000 1.942430 
# 
# From -- ./inp_files/69378.got.cif
#   From: 2010.05.17/outbox.cif.g08.bks.cpg/sg15_35_cif.got.tgz:69378.got - 2010.06.03 18:47:42.
