data_PCOD9301454
_publ_section_title
;
Structure prediction by ZEFSAII (Michael W. Deem and Ramdas Pophale) SiO2 
 PCOD9301454
Probable space group: C 2/C
;
_chemical_formula_sum "Si O2"
_cell_formula_units_Z 32
_cell_length_a 22.726121
_cell_length_b 9.379567
_cell_length_c 5.140816
_cell_angle_alpha 90.000000
_cell_angle_beta 75.073056
_cell_angle_gamma 90.000000
_cell_volume 1058.843909
_symmetry_space_group_name_H-M "C 2/C"
_symmetry_group_IT_number 15
_symmetry_cell_setting 'monoclinic'
loop_
_space_group_symop_operation_xyz
x,y,z
-x,y,1/2-z
-x,-y,-z
x,-y,1/2+z
1/2+x,1/2+y,z
1/2-x,1/2+y,1/2-z
1/2-x,1/2-y,-z
1/2+x,1/2-y,1/2+z
loop_
_atom_site_type_symbol
_atom_site_label
_atom_site_fract_x
_atom_site_fract_y
_atom_site_fract_z
Si Si1 0.075752 0.482721 0.605819
Si Si2 0.323572 0.669185 0.596713
Si Si3 0.299796 0.861573 0.125562
Si Si4 0.458696 0.312202 0.049245
O O1 0.052966 0.587945 0.861223
O O2 0.147182 0.476365 0.474948
O O3 0.063470 0.646646 0.350026
O O4 0.321061 0.747032 0.322017
O O5 0.263214 0.572224 0.694241
O O6 0.391780 0.617086 0.581591
O O7 0.303995 0.776705 0.849595
O O8 0.500000 0.353216 0.250000
O O9 0.500000 0.335776 0.750000
#
# Coordination Sequence:
#
# PCOD9301454 Si02
#       4
#     8   8   8   8
#     4  11  21  32  45  65  94 126 157 184 214 263
#     4   9  17  31  49  65  83 112 152 197 236 259
#     4   9  17  31  49  65  83 112 152 197 236 259
#     4  11  21  32  45  65  94 126 157 184 216 265
#
# _framework density 30.221637999999999
#
# number of rings (size 3 to 8) (size 9 to 14) (size 15 to 20)
#    0.000    2.000    0.000    7.500    0.000    3.000 
#    0.000    0.000    0.000    0.000    0.000    0.000 
#    0.000    6.000    0.000    0.000    0.000    0.000 
#
# Total GULP energy -89246.007916 kJ/mol
# GULP energy per Si atom -5577.875495 kJ/mol
# Density = 3.015285 g / cm^3
# Si number density = 30.221638 Si / 1000 Ang^3
#
#
#
# Elastic Constant Matrix: (Units=GPa)
#
#
# Indices 1 2 3 4 5 6 
#
# 1 221.5054 14.2861 85.9553 0.0000 -68.0485 0.0000
# 2 14.2861 98.9195 46.7845 0.0000 2.0778 0.0000
# 3 85.9553 46.7845 365.1326 0.0000 33.7394 0.0000
# 4 0.0000 0.0000 0.0000 20.4820 0.0000 16.5789
# 5 -68.0485 2.0778 33.7394 0.0000 106.9602 0.0000
# 6 0.0000 0.0000 0.0000 16.5789 0.0000 -28.0810
#
#
#
# Elastic Compliance Matrix: (Units=1/GPa)
#
#
# Indices 1 2 3 4 5 6 
#
# 1 0.006867 -0.000120 -0.002065 0.000000 0.005022 0.000000
# 2 -0.000120 0.010769 -0.001365 0.000000 0.000145 0.000000
# 3 -0.002065 -0.001365 0.003624 0.000000 -0.002431 0.000000
# 4 0.000000 0.000000 0.000000 0.033036 0.000000 0.019504
# 5 0.005022 0.000145 -0.002431 0.000000 0.013308 0.000000
# 6 0.000000 0.000000 0.000000 0.019504 0.000000 -0.024096
#
#
# Mechanical properties :
#
#
# Convention : Reuss Voigt Hill
#
# Bulk Modulus (GPa) = 70.62548 108.84547 89.73547
# Shear Modulus (GPa) = 90.36876 55.77435 73.07155
#
# Velocity S-wave (km/s) = 5.47421 4.30060 4.92250
# Velocity P-wave (km/s) = 7.96089 7.79449 7.87813
#
# Compressibility (1/GPa) = 0.01415920
#
# Stress axis : x y z
#
# Youngs Moduli (GPa) = 145.63264 92.85818 275.91204
#
# Poissons Ratio (x) = 0.01119 0.56978
# Poissons Ratio (y) = 0.01754 0.37658
# Poissons Ratio (z) = 0.30075 0.12674
#
# Static dielectric constant tensor:
#      x y z
#    x 2.243670 0.000000 -0.310210 
#    y 0.000000 3.431930 0.000000 
#    z -0.310210 0.000000 1.732260 
# 
# From -- ./inp_files/6821.got.cif
#   From: 2010.05.17/outbox.cif.g08.bks.cpg/sg15_4_cif.got.tgz:6821.got - 2010.06.03 18:47:42.
