data_PCOD9301292
_publ_section_title
;
Structure prediction by ZEFSAII (Michael W. Deem and Ramdas Pophale) SiO2 
 PCOD9301292
Probable space group: C 2/C
;
_chemical_formula_sum "Si O2"
_cell_formula_units_Z 64
_cell_length_a 18.106232
_cell_length_b 29.193758
_cell_length_c 9.192327
_cell_angle_alpha 90.000000
_cell_angle_beta 139.852380
_cell_angle_gamma 90.000000
_cell_volume 3132.860563
_symmetry_space_group_name_H-M "C 2/C"
_symmetry_group_IT_number 15
_symmetry_cell_setting 'monoclinic'
loop_
_space_group_symop_operation_xyz
x,y,z
-x,y,1/2-z
-x,-y,-z
x,-y,1/2+z
1/2+x,1/2+y,z
1/2-x,1/2+y,1/2-z
1/2-x,1/2-y,-z
1/2+x,1/2-y,1/2+z
loop_
_atom_site_type_symbol
_atom_site_label
_atom_site_fract_x
_atom_site_fract_y
_atom_site_fract_z
Si Si1 0.482270 0.804260 0.396950
Si Si2 0.840068 0.127981 0.794020
Si Si3 0.900079 0.375889 0.719135
Si Si4 0.249400 0.350835 0.473736
Si Si5 0.232426 0.555073 0.059785
Si Si6 0.493585 0.451359 0.915763
Si Si7 0.026695 0.199812 0.116145
Si Si8 0.374078 0.021754 0.299993
O O1 0.500000 0.805652 0.250000
O O2 0.563563 0.841010 0.598472
O O3 0.492707 0.751683 0.463152
O O4 0.350878 0.817494 0.226583
O O5 0.724503 0.135324 0.532184
O O6 0.808754 0.129717 0.917906
O O7 0.904606 0.079976 0.870152
O O8 0.934039 0.166588 0.905543
O O9 0.890206 0.429413 0.746280
O O10 0.000000 0.371398 0.750000
O O11 0.186825 0.394131 0.455435
O O12 0.346522 0.322397 0.706660
O O13 0.367442 0.565737 0.268329
O O14 0.180996 0.534244 0.128468
O O15 0.203638 0.516598 0.896095
O O16 0.500000 0.453208 0.750000
O O17 0.500000 0.500000 0.000000
O O18 0.000000 0.199682 0.250000
O O19 0.500000 0.000000 0.500000
#
# Coordination Sequence:
#
# PCOD9301292 Si02
#       8
#     8   8   8   8   8   8   8   8
#     4  11  23  41  70 100 132 175 232 286 343 416
#     4  11  22  43  67  96 140 176 223 284 346 413
#     4  12  25  44  68  99 139 183 226 282 352 414
#     4  11  20  40  69  98 134 176 231 278 340 410
#     4  12  24  41  68  94 136 179 231 278 340 399
#     4  12  23  40  66  98 133 180 232 280 341 406
#     4   9  20  40  68 102 131 175 226 286 344 409
#     4  12  27  44  63  99 137 181 231 285 336 405
#
# _framework density 20.428615000000001
#
# number of rings (size 3 to 8) (size 9 to 14) (size 15 to 20)
#    0.000    0.750    3.750    4.875    1.750    0.500 
#    0.000    0.000    2.750    0.000    0.000    0.000 
#    0.000    0.000    0.000    0.000    0.000    0.000 
#
# Total GULP energy -178806.980471 kJ/mol
# GULP energy per Si atom -5587.718140 kJ/mol
# Density = 2.038212 g / cm^3
# Si number density = 20.428615 Si / 1000 Ang^3
#
#
#
# Elastic Constant Matrix: (Units=GPa)
#
#
# Indices 1 2 3 4 5 6 
#
# 1 72.0279 17.7853 17.5601 0.0000 8.5288 0.0000
# 2 17.7853 143.8569 52.0859 0.0000 8.6391 0.0000
# 3 17.5601 52.0859 119.5249 0.0000 29.7932 0.0000
# 4 0.0000 0.0000 0.0000 28.1893 0.0000 4.8349
# 5 8.5288 8.6391 29.7932 0.0000 30.3226 0.0000
# 6 0.0000 0.0000 0.0000 4.8349 0.0000 26.3456
#
#
#
# Elastic Compliance Matrix: (Units=1/GPa)
#
#
# Indices 1 2 3 4 5 6 
#
# 1 0.014770 -0.001340 -0.000855 0.000000 -0.002933 0.000000
# 2 -0.001340 0.008432 -0.003937 0.000000 0.001843 0.000000
# 3 -0.000855 -0.003937 0.013069 0.000000 -0.011479 0.000000
# 4 0.000000 0.000000 0.000000 0.036627 0.000000 -0.006722
# 5 -0.002933 0.001843 -0.011479 0.000000 0.044557 0.000000
# 6 0.000000 0.000000 0.000000 -0.006722 0.000000 0.039191
#
#
# Mechanical properties :
#
#
# Convention : Reuss Voigt Hill
#
# Bulk Modulus (GPa) = 41.65523 56.69692 49.17608
# Shear Modulus (GPa) = 28.26270 33.50338 30.88304
#
# Velocity S-wave (km/s) = 3.72356 4.05411 3.89235
# Velocity P-wave (km/s) = 6.23870 7.05183 6.65769
#
# Compressibility (1/GPa) = 0.02400659
#
# Stress axis : x y z
#
# Youngs Moduli (GPa) = 67.70410 118.59887 76.51826
#
# Poissons Ratio (x) = 0.15897 0.06541
# Poissons Ratio (y) = 0.09075 0.30123
# Poissons Ratio (z) = 0.05788 0.46690
#
# Static dielectric constant tensor:
#      x y z
#    x 1.631970 0.000000 -0.141140 
#    y 0.000000 1.958150 0.000000 
#    z -0.141140 0.000000 1.591410 
# 
# From -- ./inp_files/52840.got.cif
#   From: 2010.05.17/outbox.cif.g08.bks.cpg/sg15_27_cif.got.tgz:52840.got - 2010.06.03 18:47:42.
