data_PCOD9301455
_publ_section_title
;
Structure prediction by ZEFSAII (Michael W. Deem and Ramdas Pophale) SiO2 
 PCOD9301455
Probable space group: C 2/C
;
_chemical_formula_sum "Si O2"
_cell_formula_units_Z 56
_cell_length_a 5.925493
_cell_length_b 19.194698
_cell_length_c 20.545544
_cell_angle_alpha 90.000000
_cell_angle_beta 87.986973
_cell_angle_gamma 90.000000
_cell_volume 2335.367958
_symmetry_space_group_name_H-M "C 2/C"
_symmetry_group_IT_number 15
_symmetry_cell_setting 'monoclinic'
loop_
_space_group_symop_operation_xyz
x,y,z
-x,y,1/2-z
-x,-y,-z
x,-y,1/2+z
1/2+x,1/2+y,z
1/2-x,1/2+y,1/2-z
1/2-x,1/2-y,-z
1/2+x,1/2-y,1/2+z
loop_
_atom_site_type_symbol
_atom_site_label
_atom_site_fract_x
_atom_site_fract_y
_atom_site_fract_z
Si Si1 0.253594 0.093061 0.005301
Si Si2 0.789132 0.316056 0.633778
Si Si3 0.000000 0.888534 0.750000
Si Si4 0.275015 0.571894 0.992029
Si Si5 0.325555 0.088270 0.359577
Si Si6 0.105217 0.460953 0.320987
Si Si7 0.873037 0.676584 0.816131
Si Si8 0.500000 0.414676 0.250000
O O1 0.240083 0.145579 0.066408
O O2 0.518917 0.099586 0.980060
O O3 0.019171 0.102357 0.965412
O O4 0.233723 0.010549 0.022677
O O5 0.649977 0.347907 0.695397
O O6 0.715410 0.235976 0.635543
O O7 0.048981 0.337141 0.645680
O O8 0.179620 0.923182 0.796936
O O9 0.294298 0.581766 0.070172
O O10 0.510575 0.026671 0.358913
O O11 0.368824 0.459669 0.304901
O O12 0.000000 0.465354 0.250000
O O13 0.031106 0.384007 0.344072
O O14 0.664426 0.634847 0.788158
O O15 0.000000 0.705442 0.750000
#
# Coordination Sequence:
#
# PCOD9301455 Si02
#       8
#     8   8   4   8   8   8   8   4
#     4   9  18  35  56  76 111 142 189 224 280 332
#     4  11  21  32  51  84 110 143 175 235 279 330
#     4  12  22  33  48  82 119 136 166 230 283 336
#     4   9  18  36  54  79 105 149 184 230 272 338
#     4  11  23  33  52  81 114 141 182 228 290 321
#     4   9  19  36  49  72 102 151 185 212 262 341
#     4   9  19  33  50  71 105 145 186 209 269 334
#     4   8  18  35  54  64  99 154 184 214 245 346
#
# _framework density 23.979091
#
# number of rings (size 3 to 8) (size 9 to 14) (size 15 to 20)
#    0.000    2.571    2.143    1.286    2.000    5.143 
#    0.000    0.000    0.000    0.857    0.000    1.000 
#    0.000    0.000    0.000    0.000    0.000    1.143 
#
# Total GULP energy -156123.478684 kJ/mol
# GULP energy per Si atom -5575.838524 kJ/mol
# Density = 2.392451 g / cm^3
# Si number density = 23.979091 Si / 1000 Ang^3
#
#
#
# Elastic Constant Matrix: (Units=GPa)
#
#
# Indices 1 2 3 4 5 6 
#
# 1 156.9863 18.8682 13.9059 0.0000 4.5171 0.0000
# 2 18.8682 48.8495 -4.5819 0.0000 -11.7915 0.0000
# 3 13.9059 -4.5819 66.4739 0.0000 6.9449 0.0000
# 4 0.0000 0.0000 0.0000 20.5702 0.0000 -15.5316
# 5 4.5171 -11.7915 6.9449 0.0000 20.7074 0.0000
# 6 0.0000 0.0000 0.0000 -15.5316 0.0000 16.3875
#
#
#
# Elastic Compliance Matrix: (Units=1/GPa)
#
#
# Indices 1 2 3 4 5 6 
#
# 1 0.007014 -0.003590 -0.001390 0.000000 -0.003108 0.000000
# 2 -0.003590 0.025574 0.000944 0.000000 0.015029 0.000000
# 3 -0.001390 0.000944 0.015867 0.000000 -0.004481 0.000000
# 4 0.000000 0.000000 0.000000 0.170948 0.000000 0.162020
# 5 -0.003108 0.015029 -0.004481 0.000000 0.059031 0.000000
# 6 0.000000 0.000000 0.000000 0.162020 0.000000 0.214580
#
#
# Mechanical properties :
#
#
# Convention : Reuss Voigt Hill
#
# Bulk Modulus (GPa) = 24.76298 36.52157 30.64227
# Shear Modulus (GPa) = 9.71726 27.80751 18.76238
#
# Velocity S-wave (km/s) = 2.01524 3.40907 2.80026
# Velocity P-wave (km/s) = 3.97042 5.54611 4.82305
#
# Compressibility (1/GPa) = 0.04038287
#
# Stress axis : x y z
#
# Youngs Moduli (GPa) = 142.57217 39.10236 63.02194
#
# Poissons Ratio (x) = 0.14037 0.08760
# Poissons Ratio (y) = 0.51180 -0.05946
# Poissons Ratio (z) = 0.19818 -0.03689
#
# Static dielectric constant tensor:
#      x y z
#    x 2.125090 0.000000 -0.026110 
#    y 0.000000 1.906120 0.000000 
#    z -0.026110 0.000000 1.909440 
# 
# From -- ./inp_files/261196.got.cif
#   From: 2010.05.17/outbox.cif.g08.bks.cpg/sg15_131_cif.got.tgz:261196.got - 2010.06.03 18:47:42.
