data_PCOD9301072
_publ_section_title
;
Structure prediction by ZEFSAII (Michael W. Deem and Ramdas Pophale) SiO2 
 PCOD9301072
Probable space group: C 2/C
;
_chemical_formula_sum "Si O2"
_cell_formula_units_Z 64
_cell_length_a 19.658911
_cell_length_b 18.984635
_cell_length_c 21.762352
_cell_angle_alpha 90.000000
_cell_angle_beta 152.490653
_cell_angle_gamma 90.000000
_cell_volume 3751.536804
_symmetry_space_group_name_H-M "C 2/C"
_symmetry_group_IT_number 15
_symmetry_cell_setting 'monoclinic'
loop_
_space_group_symop_operation_xyz
x,y,z
-x,y,1/2-z
-x,-y,-z
x,-y,1/2+z
1/2+x,1/2+y,z
1/2-x,1/2+y,1/2-z
1/2-x,1/2-y,-z
1/2+x,1/2-y,1/2+z
loop_
_atom_site_type_symbol
_atom_site_label
_atom_site_fract_x
_atom_site_fract_y
_atom_site_fract_z
Si Si1 0.595817 0.746721 0.505067
Si Si2 0.150601 0.612417 0.971093
Si Si3 0.141483 0.096569 0.479312
Si Si4 0.246307 0.246245 0.238793
Si Si5 0.884792 0.396581 0.838971
Si Si6 0.140582 0.536894 0.751099
Si Si7 0.314472 0.539360 0.213385
Si Si8 0.302646 0.896600 0.338415
O O1 0.621003 0.810911 0.477662
O O2 0.627092 0.672974 0.498321
O O3 0.698789 0.755420 0.646779
O O4 0.429986 0.743295 0.397799
O O5 0.996605 0.577510 0.829202
O O6 0.263525 0.608911 0.005647
O O7 0.217429 0.564862 0.078792
O O8 0.223795 0.046878 0.594475
O O9 0.980186 0.065398 0.337716
O O10 0.326783 0.179883 0.272337
O O11 0.274456 0.321119 0.229303
O O12 0.893654 0.456261 0.793923
O O13 0.761068 0.424398 0.787749
O O14 0.040245 0.392462 0.000120
O O15 0.167109 0.576244 0.706920
O O16 0.295398 0.456224 0.208088
#
# Coordination Sequence:
#
# PCOD9301072 Si02
#       8
#     8   8   8   8   8   8   8   8
#     4  12  21  36  50  84 120 154 191 222 270 348
#     4  12  21  40  57  74 118 168 194 209 283 352
#     4  12  25  34  53  88 118 148 196 243 269 320
#     4  12  20  34  59  84 113 150 184 230 294 346
#     4  11  20  37  61  79 113 151 187 233 295 348
#     4  11  21  37  57  81 108 154 195 235 277 335
#     4  11  21  37  57  81 108 154 195 235 277 335
#     4  11  20  37  61  79 113 151 187 233 295 348
#
# _framework density 17.059676
#
# number of rings (size 3 to 8) (size 9 to 14) (size 15 to 20)
#    0.000    0.500    8.750    1.875    0.000    3.000 
#    0.000    3.750    0.000    0.000    0.000    5.250 
#    0.000    0.000    0.000    0.000    0.000    0.000 
#
# Total GULP energy -178706.439591 kJ/mol
# GULP energy per Si atom -5584.576237 kJ/mol
# Density = 1.702085 g / cm^3
# Si number density = 17.059676 Si / 1000 Ang^3
#
#
#
# Elastic Constant Matrix: (Units=GPa)
#
#
# Indices 1 2 3 4 5 6 
#
# 1 25.3393 17.0556 -5.7020 -0.0009 4.1338 -0.0007
# 2 17.0556 135.9971 5.6910 -0.0038 -1.0995 -0.0029
# 3 -5.7020 5.6910 29.5906 -0.0042 3.8263 -0.0016
# 4 -0.0009 -0.0038 -0.0042 28.0638 -0.0023 3.3908
# 5 4.1338 -1.0995 3.8263 -0.0023 15.6375 -0.0035
# 6 -0.0007 -0.0029 -0.0016 3.3908 -0.0035 9.7232
#
#
#
# Elastic Compliance Matrix: (Units=1/GPa)
#
#
# Indices 1 2 3 4 5 6 
#
# 1 0.049837 -0.006936 0.013119 0.000002 -0.016872 -0.000003
# 2 -0.006936 0.008390 -0.003370 0.000000 0.003248 0.000002
# 3 0.013119 -0.003370 0.038673 0.000005 -0.013168 0.000000
# 4 0.000002 0.000000 0.000005 0.037201 0.000001 -0.012973
# 5 -0.016872 0.003248 -0.013168 0.000001 0.071860 0.000023
# 6 -0.000003 0.000002 0.000000 -0.012973 0.000023 0.107372
#
#
# Mechanical properties :
#
#
# Convention : Reuss Voigt Hill
#
# Bulk Modulus (GPa) = 9.75347 25.00180 17.37764
# Shear Modulus (GPa) = 14.62495 22.27706 18.45101
#
# Velocity S-wave (km/s) = 2.93111 3.61755 3.29227
# Velocity P-wave (km/s) = 4.14547 5.66888 4.96594
#
# Compressibility (1/GPa) = 0.10252761
#
# Stress axis : x y z
#
# Youngs Moduli (GPa) = 20.06531 119.18690 25.85758
#
# Poissons Ratio (x) = 0.82663 -0.33923
# Poissons Ratio (y) = 0.13916 0.08714
# Poissons Ratio (z) = -0.26324 0.40167
#
# Static dielectric constant tensor:
#      x y z
#    x 1.560110 0.000000 0.008210 
#    y 0.000000 1.606010 0.000000 
#    z 0.008210 0.000000 1.575220 
# 
# From -- ./inp_files/56632.got.cif
#   From: 2010.05.17/outbox.cif.g08.bks.cpg/sg15_29_cif.got.tgz:56632.got - 2010.06.03 18:47:42.
