data_PCOD9301969
_publ_section_title
;
Structure prediction by ZEFSAII (Michael W. Deem and Ramdas Pophale) SiO2 
 PCOD9301969
Probable space group: C 2/C
;
_chemical_formula_sum "Si O2"
_cell_formula_units_Z 40
_cell_length_a 12.602436
_cell_length_b 10.779501
_cell_length_c 14.677512
_cell_angle_alpha 90.000000
_cell_angle_beta 65.235593
_cell_angle_gamma 90.000000
_cell_volume 1810.546006
_symmetry_space_group_name_H-M "C 2/C"
_symmetry_group_IT_number 15
_symmetry_cell_setting 'monoclinic'
loop_
_space_group_symop_operation_xyz
x,y,z
-x,y,1/2-z
-x,-y,-z
x,-y,1/2+z
1/2+x,1/2+y,z
1/2-x,1/2+y,1/2-z
1/2-x,1/2-y,-z
1/2+x,1/2-y,1/2+z
loop_
_atom_site_type_symbol
_atom_site_label
_atom_site_fract_x
_atom_site_fract_y
_atom_site_fract_z
Si Si1 0.262491 0.950627 0.987238
Si Si2 0.083943 0.772486 0.981490
Si Si3 0.113114 0.458139 0.747807
Si Si4 0.178546 0.320577 0.906485
Si Si5 0.895691 0.737122 0.731357
O O1 0.134754 0.885550 0.024509
O O2 0.304358 0.964880 0.868600
O O3 0.347924 0.850097 0.006035
O O4 0.279329 0.080767 0.032985
O O5 0.338760 0.895862 0.680521
O O6 0.119683 0.792244 0.863143
O O7 0.055306 0.253029 0.969311
O O8 0.072334 0.593470 0.796370
O O9 0.000000 0.387153 0.750000
O O10 0.285255 0.234763 0.837910
O O11 0.000000 0.799604 0.750000
#
# Coordination Sequence:
#
# PCOD9301969 Si02
#       5
#     8   8   8   8   8
#     4  11  23  41  68 102 137 177 233 288 342 417
#     4  11  23  42  70 101 134 180 235 282 346 424
#     4  11  21  40  70  95 129 182 228 276 345 410
#     4  12  23  44  69 100 139 178 223 295 346 398
#     4  11  25  43  66  98 135 179 229 277 348 423
#
# _framework density 22.092784000000002
#
# number of rings (size 3 to 8) (size 9 to 14) (size 15 to 20)
#    0.000    0.800    6.000    3.000    0.000    3.200 
#    3.600    2.000    0.000    0.000    0.000    0.000 
#    0.000    0.000    0.000    0.000    0.000    0.000 
#
# Total GULP energy -111641.091345 kJ/mol
# GULP energy per Si atom -5582.054567 kJ/mol
# Density = 2.204250 g / cm^3
# Si number density = 22.092784 Si / 1000 Ang^3
#
#
#
# Elastic Constant Matrix: (Units=GPa)
#
#
# Indices 1 2 3 4 5 6 
#
# 1 122.7744 43.2137 53.5078 0.0000 -5.1604 0.0000
# 2 43.2137 32.0370 24.9262 0.0000 4.4801 0.0000
# 3 53.5078 24.9262 137.7749 0.0000 9.3507 0.0000
# 4 0.0000 0.0000 0.0000 43.6318 0.0000 20.0941
# 5 -5.1604 4.4801 9.3507 0.0000 46.6701 0.0000
# 6 0.0000 0.0000 0.0000 20.0941 0.0000 41.1728
#
#
#
# Elastic Compliance Matrix: (Units=1/GPa)
#
#
# Indices 1 2 3 4 5 6 
#
# 1 0.017272 -0.021506 -0.003129 0.000000 0.004601 0.000000
# 2 -0.021506 0.063330 -0.002566 0.000000 -0.007943 0.000000
# 3 -0.003129 -0.002566 0.009068 0.000000 -0.001916 0.000000
# 4 0.000000 0.000000 0.000000 0.029564 0.000000 -0.014428
# 5 0.004601 -0.007943 -0.001916 0.000000 0.023082 0.000000
# 6 0.000000 0.000000 0.000000 -0.014428 0.000000 0.031330
#
#
# Mechanical properties :
#
#
# Convention : Reuss Voigt Hill
#
# Bulk Modulus (GPa) = 28.35534 59.54241 43.94888
# Shear Modulus (GPa) = 20.85026 37.69084 29.27055
#
# Velocity S-wave (km/s) = 3.07540 4.13489 3.64386
# Velocity P-wave (km/s) = 5.04711 7.05733 6.13511
#
# Compressibility (1/GPa) = 0.03526672
#
# Stress axis : x y z
#
# Youngs Moduli (GPa) = 57.89747 15.79018 110.27916
#
# Poissons Ratio (x) = 0.33959 0.34509
# Poissons Ratio (y) = 1.24516 0.28300
# Poissons Ratio (z) = 0.18118 0.04052
#
# Static dielectric constant tensor:
#      x y z
#    x 1.925790 0.000000 -0.002770 
#    y 0.000000 1.813820 0.000000 
#    z -0.002770 0.000000 1.781640 
# 
# From -- ./inp_files/95577.got.cif
#   From: 2010.05.17/outbox.cif.g08.bks.cpg/sg15_48_cif.got.tgz:95577.got - 2010.06.03 18:47:42.
