data_PCOD9301888
_publ_section_title
;
Structure prediction by ZEFSAII (Michael W. Deem and Ramdas Pophale) SiO2 
 PCOD9301888
Probable space group: C 2/C
;
_chemical_formula_sum "Si O2"
_cell_formula_units_Z 56
_cell_length_a 30.682341
_cell_length_b 18.387257
_cell_length_c 8.812441
_cell_angle_alpha 90.000000
_cell_angle_beta 142.975180
_cell_angle_gamma 90.000000
_cell_volume 2993.741057
_symmetry_space_group_name_H-M "C 2/C"
_symmetry_group_IT_number 15
_symmetry_cell_setting 'monoclinic'
loop_
_space_group_symop_operation_xyz
x,y,z
-x,y,1/2-z
-x,-y,-z
x,-y,1/2+z
1/2+x,1/2+y,z
1/2-x,1/2+y,1/2-z
1/2-x,1/2-y,-z
1/2+x,1/2-y,1/2+z
loop_
_atom_site_type_symbol
_atom_site_label
_atom_site_fract_x
_atom_site_fract_y
_atom_site_fract_z
Si Si1 0.743582 0.592083 0.564275
Si Si2 0.457451 0.939330 0.291037
Si Si3 0.854507 0.715464 0.969712
Si Si4 0.879380 0.790079 0.725159
Si Si5 0.996784 0.281003 0.059655
Si Si6 0.767642 0.291299 0.702523
Si Si7 0.287874 0.948087 0.841150
O O1 0.806979 0.643410 0.809703
O O2 0.668951 0.638188 0.376110
O O3 0.744365 0.517331 0.660055
O O4 0.765298 0.573404 0.450418
O O5 0.500000 0.935901 0.250000
O O6 0.463917 0.857377 0.373146
O O7 0.500000 0.000000 0.500000
O O8 0.373650 0.961994 0.061036
O O9 0.882339 0.742960 0.886164
O O10 0.798407 0.776240 0.868799
O O11 0.917171 0.710008 0.268202
O O12 0.835863 0.745166 0.475075
O O13 0.961488 0.788493 0.893963
O O14 0.000000 0.274379 0.250000
O O15 0.750000 0.250000 0.500000
O O16 0.775940 0.376680 0.705352
#
# Coordination Sequence:
#
# PCOD9301888 Si02
#       7
#     8   8   8   8   8   8   8
#     4  11  24  39  63  94 126 167 213 261 312 379
#     4  11  23  37  56  87 131 163 198 240 306 389
#     4  11  21  40  63  88 125 167 206 258 312 376
#     4  11  21  43  61  90 125 166 217 258 309 381
#     4  11  23  38  63  95 124 162 210 259 322 375
#     4  11  22  37  63  90 123 164 213 262 303 371
#     4  12  23  41  60  92 130 166 210 255 319 372
#
# _framework density 18.705691999999999
#
# number of rings (size 3 to 8) (size 9 to 14) (size 15 to 20)
#    0.000    0.857    4.286    3.857    6.000    1.143 
#    0.000    0.000    0.000    0.857    0.000    0.000 
#    0.000    0.000    0.000    0.000    0.000    0.000 
#
# Total GULP energy -156287.605682 kJ/mol
# GULP energy per Si atom -5581.700203 kJ/mol
# Density = 1.866312 g / cm^3
# Si number density = 18.705692 Si / 1000 Ang^3
#
#
#
# Elastic Constant Matrix: (Units=GPa)
#
#
# Indices 1 2 3 4 5 6 
#
# 1 69.0600 36.1210 14.9421 0.0000 0.4397 0.0000
# 2 36.1210 115.7348 34.3147 0.0000 -3.3473 0.0000
# 3 14.9421 34.3147 63.1316 0.0000 -15.1317 0.0000
# 4 0.0000 0.0000 0.0000 28.1380 0.0000 -2.2623
# 5 0.4397 -3.3473 -15.1317 0.0000 26.4411 0.0000
# 6 0.0000 0.0000 0.0000 -2.2623 0.0000 20.9718
#
#
#
# Elastic Compliance Matrix: (Units=1/GPa)
#
#
# Indices 1 2 3 4 5 6 
#
# 1 0.017499 -0.004945 -0.001940 0.000000 -0.002027 0.000000
# 2 -0.004945 0.011810 -0.005645 0.000000 -0.001653 0.000000
# 3 -0.001940 -0.005645 0.022257 0.000000 0.012055 0.000000
# 4 0.000000 0.000000 0.000000 0.035850 0.000000 0.003867
# 5 -0.002027 -0.001653 0.012055 0.000000 0.044543 0.000000
# 6 0.000000 0.000000 0.000000 0.003867 0.000000 0.048100
#
#
# Mechanical properties :
#
#
# Convention : Reuss Voigt Hill
#
# Bulk Modulus (GPa) = 37.72723 46.52023 42.12373
# Shear Modulus (GPa) = 23.36958 25.94677 24.65817
#
# Velocity S-wave (km/s) = 3.53842 3.72843 3.63467
# Velocity P-wave (km/s) = 6.07507 6.59230 6.33897
#
# Compressibility (1/GPa) = 0.02650606
#
# Stress axis : x y z
#
# Youngs Moduli (GPa) = 57.14543 84.67646 44.93049
#
# Poissons Ratio (x) = 0.41873 0.08716
# Poissons Ratio (y) = 0.28259 0.25363
# Poissons Ratio (z) = 0.11085 0.47799
#
# Static dielectric constant tensor:
#      x y z
#    x 1.606890 0.000000 0.036710 
#    y 0.000000 1.652180 0.000000 
#    z 0.036710 0.000000 1.667770 
# 
# From -- ./inp_files/67191.got.cif
#   From: 2010.05.17/outbox.cif.g08.bks.cpg/sg15_34_cif.got.tgz:67191.got - 2010.06.03 18:47:42.
