data_PCOD9301265
_publ_section_title
;
Structure prediction by ZEFSAII (Michael W. Deem and Ramdas Pophale) SiO2 
 PCOD9301265
Probable space group: C 2/C
;
_chemical_formula_sum "Si O2"
_cell_formula_units_Z 56
_cell_length_a 11.919977
_cell_length_b 31.445301
_cell_length_c 14.317703
_cell_angle_alpha 90.000000
_cell_angle_beta 30.171374
_cell_angle_gamma 90.000000
_cell_volume 2697.222068
_symmetry_space_group_name_H-M "C 2/C"
_symmetry_group_IT_number 15
_symmetry_cell_setting 'monoclinic'
loop_
_space_group_symop_operation_xyz
x,y,z
-x,y,1/2-z
-x,-y,-z
x,-y,1/2+z
1/2+x,1/2+y,z
1/2-x,1/2+y,1/2-z
1/2-x,1/2-y,-z
1/2+x,1/2-y,1/2+z
loop_
_atom_site_type_symbol
_atom_site_label
_atom_site_fract_x
_atom_site_fract_y
_atom_site_fract_z
Si Si1 0.453001 0.362738 0.978308
Si Si2 0.536585 0.526873 0.614574
Si Si3 0.671544 0.713317 0.210878
Si Si4 0.909268 0.307594 0.207846
Si Si5 0.049482 0.450613 0.448644
Si Si6 0.356806 0.086588 0.273728
Si Si7 0.731082 0.062431 0.528342
O O1 0.253536 0.347186 0.188391
O O2 0.346904 0.394238 0.978027
O O3 0.551395 0.319415 0.865018
O O4 0.652572 0.386097 0.884695
O O5 0.500000 0.538673 0.750000
O O6 0.309906 0.545706 0.730874
O O7 0.743600 0.547219 0.410705
O O8 0.597637 0.476559 0.575307
O O9 0.500000 0.719649 0.250000
O O10 0.707095 0.761399 0.220317
O O11 0.889846 0.692881 0.009170
O O12 0.000000 0.311083 0.250000
O O13 0.000000 0.500000 0.500000
O O14 0.004424 0.427435 0.579148
O O15 0.865446 0.435013 0.507042
O O16 0.500000 0.109664 0.250000
O O17 0.500000 0.054871 0.750000
#
# Coordination Sequence:
#
# PCOD9301265 Si02
#       7
#     8   8   8   8   8   8   8
#     4  12  27  40  67 101 138 169 220 285 342 397
#     4  12  24  46  66  86 129 188 234 274 334 404
#     4  11  21  38  67  95 138 173 211 255 337 423
#     4  11  20  40  64  97 134 176 207 259 337 424
#     4  12  24  42  68  93 127 179 230 278 338 395
#     4  12  27  46  66  93 132 181 234 286 334 398
#     4  12  27  43  65 102 139 172 228 294 341 395
#
# _framework density 20.762101999999999
#
# number of rings (size 3 to 8) (size 9 to 14) (size 15 to 20)
#    0.000    0.286    5.714    4.286    2.000    2.857 
#    0.000    0.000    0.000    0.857    0.000    0.000 
#    0.000    0.000    0.000    0.000    0.000    0.000 
#
# Total GULP energy -156536.347710 kJ/mol
# GULP energy per Si atom -5590.583847 kJ/mol
# Density = 2.071485 g / cm^3
# Si number density = 20.762102 Si / 1000 Ang^3
#
#
#
# Elastic Constant Matrix: (Units=GPa)
#
#
# Indices 1 2 3 4 5 6 
#
# 1 103.0040 39.1866 23.4119 0.0000 -16.5337 0.0000
# 2 39.1866 85.0251 18.5478 0.0000 -16.9324 0.0000
# 3 23.4119 18.5478 118.3248 0.0000 -16.6542 0.0000
# 4 0.0000 0.0000 0.0000 44.6147 0.0000 -1.5014
# 5 -16.5337 -16.9324 -16.6542 0.0000 30.2210 0.0000
# 6 0.0000 0.0000 0.0000 -1.5014 0.0000 19.5430
#
#
#
# Elastic Compliance Matrix: (Units=1/GPa)
#
#
# Indices 1 2 3 4 5 6 
#
# 1 0.012337 -0.004739 -0.001216 0.000000 0.003424 0.000000
# 2 -0.004739 0.015196 -0.000662 0.000000 0.005557 0.000000
# 3 -0.001216 -0.000662 0.009377 0.000000 0.004131 0.000000
# 4 0.000000 0.000000 0.000000 0.022472 0.000000 0.001726
# 5 0.003424 0.005557 0.004131 0.000000 0.040353 0.000000
# 6 0.000000 0.000000 0.000000 0.001726 0.000000 0.051302
#
#
# Mechanical properties :
#
#
# Convention : Reuss Voigt Hill
#
# Bulk Modulus (GPa) = 42.23679 52.07183 47.15431
# Shear Modulus (GPa) = 29.04197 33.88958 31.46578
#
# Velocity S-wave (km/s) = 3.74411 4.04453 3.89722
# Velocity P-wave (km/s) = 6.25128 6.85169 6.55836
#
# Compressibility (1/GPa) = 0.02367604
#
# Stress axis : x y z
#
# Youngs Moduli (GPa) = 81.05527 65.80527 106.64120
#
# Poissons Ratio (x) = 0.31184 0.12971
# Poissons Ratio (y) = 0.38410 0.07063
# Poissons Ratio (z) = 0.09859 0.04359
#
# Static dielectric constant tensor:
#      x y z
#    x 1.774870 0.000000 -0.018470 
#    y 0.000000 1.749820 0.000000 
#    z -0.018470 0.000000 1.830180 
# 
# From -- ./inp_files/149256.got.cif
#   From: 2010.05.17/outbox.cif.g08.bks.cpg/sg15_75_cif.got.tgz:149256.got - 2010.06.03 18:47:42.
