data_PCOD9301696
_publ_section_title
;
Structure prediction by ZEFSAII (Michael W. Deem and Ramdas Pophale) SiO2 
 PCOD9301696
Probable space group: C 2/C
;
_chemical_formula_sum "Si O2"
_cell_formula_units_Z 56
_cell_length_a 10.935873
_cell_length_b 17.342824
_cell_length_c 18.731879
_cell_angle_alpha 90.000000
_cell_angle_beta 129.276904
_cell_angle_gamma 90.000000
_cell_volume 2750.104147
_symmetry_space_group_name_H-M "C 2/C"
_symmetry_group_IT_number 15
_symmetry_cell_setting 'monoclinic'
loop_
_space_group_symop_operation_xyz
x,y,z
-x,y,1/2-z
-x,-y,-z
x,-y,1/2+z
1/2+x,1/2+y,z
1/2-x,1/2+y,1/2-z
1/2-x,1/2-y,-z
1/2+x,1/2-y,1/2+z
loop_
_atom_site_type_symbol
_atom_site_label
_atom_site_fract_x
_atom_site_fract_y
_atom_site_fract_z
Si Si1 0.622993 0.852496 0.006673
Si Si2 0.188393 0.839698 0.162324
Si Si3 0.283024 0.705479 0.291500
Si Si4 0.858889 0.239528 0.109487
Si Si5 0.681841 0.422122 0.298482
Si Si6 0.636750 0.671138 0.020507
Si Si7 0.272024 0.904199 0.854760
O O1 0.705173 0.868705 0.112231
O O2 0.746471 0.871974 0.990131
O O3 0.602426 0.761032 0.989479
O O4 0.457276 0.895341 0.940257
O O5 0.167213 0.769652 0.213442
O O6 0.312039 0.803162 0.151730
O O7 0.220509 0.908967 0.229241
O O8 0.037608 0.861829 0.058132
O O9 0.458610 0.739889 0.343824
O O10 0.282000 0.678633 0.372626
O O11 0.258319 0.630367 0.234475
O O12 0.819125 0.155746 0.127753
O O13 0.750000 0.250000 0.000000
O O14 0.500000 0.403455 0.250000
O O15 0.714078 0.509025 0.335814
#
# Coordination Sequence:
#
# PCOD9301696 Si02
#       7
#     8   8   8   8   8   8   8
#     4  11  22  39  64  94 128 160 210 266 318 387
#     4  11  21  38  62  95 124 161 215 264 319 382
#     4  11  21  40  66  90 125 165 209 270 320 379
#     4  11  21  40  67  92 122 164 221 271 316 375
#     4  12  24  41  63  91 130 175 212 263 327 397
#     4  11  21  38  65  98 123 157 212 269 318 373
#     4  11  24  42  61  92 129 171 213 260 329 388
#
# _framework density 20.362864999999999
#
# number of rings (size 3 to 8) (size 9 to 14) (size 15 to 20)
#    0.000    0.857    7.143    3.000    0.000    0.571 
#    0.000    2.143    3.143    0.000    0.000    0.000 
#    0.000    0.000    0.000    0.000    0.000    0.000 
#
# Total GULP energy -156242.537445 kJ/mol
# GULP energy per Si atom -5580.090623 kJ/mol
# Density = 2.031652 g / cm^3
# Si number density = 20.362865 Si / 1000 Ang^3
#
#
#
# Elastic Constant Matrix: (Units=GPa)
#
#
# Indices 1 2 3 4 5 6 
#
# 1 44.3918 13.3725 6.5523 0.0000 1.7577 0.0000
# 2 13.3725 54.3365 3.4972 0.0000 2.6644 0.0000
# 3 6.5523 3.4972 117.8416 0.0000 1.6613 0.0000
# 4 0.0000 0.0000 0.0000 18.0511 0.0000 2.4884
# 5 1.7577 2.6644 1.6613 0.0000 36.4437 0.0000
# 6 0.0000 0.0000 0.0000 2.4884 0.0000 16.1497
#
#
#
# Elastic Compliance Matrix: (Units=1/GPa)
#
#
# Indices 1 2 3 4 5 6 
#
# 1 0.024512 -0.005923 -0.001177 0.000000 -0.000696 0.000000
# 2 -0.005923 0.019934 -0.000246 0.000000 -0.001161 0.000000
# 3 -0.001177 -0.000246 0.008563 0.000000 -0.000316 0.000000
# 4 0.000000 0.000000 0.000000 0.056601 0.000000 -0.008721
# 5 -0.000696 -0.001161 -0.000316 0.000000 0.027572 0.000000
# 6 0.000000 0.000000 0.000000 -0.008721 0.000000 0.063264
#
#
# Mechanical properties :
#
#
# Convention : Reuss Voigt Hill
#
# Bulk Modulus (GPa) = 26.09769 29.26821 27.68295
# Shear Modulus (GPa) = 21.93838 27.00544 24.47191
#
# Velocity S-wave (km/s) = 3.28590 3.64567 3.47045
# Velocity P-wave (km/s) = 5.21922 5.66796 5.44821
#
# Compressibility (1/GPa) = 0.03831757
#
# Stress axis : x y z
#
# Youngs Moduli (GPa) = 40.79608 50.16511 116.77905
#
# Poissons Ratio (x) = 0.29711 0.13749
# Poissons Ratio (y) = 0.24162 0.02872
# Poissons Ratio (z) = 0.04803 0.01234
#
# Static dielectric constant tensor:
#      x y z
#    x 1.764800 0.000000 0.008450 
#    y 0.000000 1.737630 0.000000 
#    z 0.008450 0.000000 1.748320 
# 
# From -- ./inp_files/199593.got.cif
#   From: 2010.05.17/outbox.cif.g08.bks.cpg/sg15_100_cif.got.tgz:199593.got - 2010.06.03 18:47:42.
