data_PCOD9301767
_publ_section_title
;
Structure prediction by ZEFSAII (Michael W. Deem and Ramdas Pophale) SiO2 
 PCOD9301767
Probable space group: C 2/C
;
_chemical_formula_sum "Si O2"
_cell_formula_units_Z 64
_cell_length_a 10.183799
_cell_length_b 19.833763
_cell_length_c 22.332199
_cell_angle_alpha 90.000000
_cell_angle_beta 47.755217
_cell_angle_gamma 90.000000
_cell_volume 3339.197143
_symmetry_space_group_name_H-M "C 2/C"
_symmetry_group_IT_number 15
_symmetry_cell_setting 'monoclinic'
loop_
_space_group_symop_operation_xyz
x,y,z
-x,y,1/2-z
-x,-y,-z
x,-y,1/2+z
1/2+x,1/2+y,z
1/2-x,1/2+y,1/2-z
1/2-x,1/2-y,-z
1/2+x,1/2-y,1/2+z
loop_
_atom_site_type_symbol
_atom_site_label
_atom_site_fract_x
_atom_site_fract_y
_atom_site_fract_z
Si Si1 0.335066 0.976834 0.509590
Si Si2 0.689007 0.266629 0.612963
Si Si3 0.997108 0.197913 0.577980
Si Si4 0.613063 0.562073 0.490794
Si Si5 0.253541 0.262701 0.396492
Si Si6 0.549122 0.835939 0.065416
Si Si7 0.989732 0.092576 0.319957
Si Si8 0.206215 0.374702 0.681021
O O1 0.398576 0.913686 0.449727
O O2 0.164329 0.948183 0.598062
O O3 0.500000 0.000000 0.500000
O O4 0.261057 0.036650 0.491669
O O5 0.580883 0.206210 0.615634
O O6 0.820515 0.299026 0.522440
O O7 0.573959 0.330094 0.666193
O O8 0.811136 0.234948 0.626508
O O9 0.996516 0.119514 0.559338
O O10 0.127370 0.230600 0.487291
O O11 0.076871 0.212533 0.618640
O O12 0.500000 0.500000 0.500000
O O13 0.709226 0.593425 0.404163
O O14 0.281661 0.205447 0.337604
O O15 0.146667 0.323781 0.399702
O O16 0.000000 0.064045 0.250000
O O17 0.172175 0.098946 0.301566
O O18 0.000000 0.392275 0.750000
#
# Coordination Sequence:
#
# PCOD9301767 Si02
#       8
#     8   8   8   8   8   8   8   8
#     4  11  23  37  62  92 119 162 211 253 295 357
#     4   9  17  31  56  82 108 141 181 232 302 344
#     4   9  18  29  55  86 111 142 178 244 291 339
#     4  11  21  39  61  89 123 161 216 251 289 360
#     4   9  17  33  53  83 114 138 185 234 298 349
#     4   9  16  31  55  81 111 141 182 236 288 340
#     4  11  24  40  60  87 121 154 200 258 314 373
#     4  11  24  39  62  86 118 160 198 255 317 369
#
# _framework density 19.166284000000001
#
# number of rings (size 3 to 8) (size 9 to 14) (size 15 to 20)
#    0.000    2.000    2.500    1.500    7.000    2.000 
#    0.000    0.000    0.000    9.000    0.000    0.000 
#    0.000    0.000    0.000    0.000    0.000    0.000 
#
# Total GULP energy -178467.126190 kJ/mol
# GULP energy per Si atom -5577.097693 kJ/mol
# Density = 1.912266 g / cm^3
# Si number density = 19.166284 Si / 1000 Ang^3
#
#
#
# Elastic Constant Matrix: (Units=GPa)
#
#
# Indices 1 2 3 4 5 6 
#
# 1 132.1676 5.7398 25.5143 -0.0005 -16.4847 0.0004
# 2 5.7398 54.3149 2.1953 -0.0004 -6.5462 0.0003
# 3 25.5143 2.1953 39.9983 -0.0005 -4.5915 0.0003
# 4 -0.0005 -0.0004 -0.0005 7.6962 0.0003 -4.4919
# 5 -16.4847 -6.5462 -4.5915 0.0003 24.2774 -0.0002
# 6 0.0004 0.0003 0.0003 -4.4919 -0.0002 34.0569
#
#
#
# Elastic Compliance Matrix: (Units=1/GPa)
#
#
# Indices 1 2 3 4 5 6 
#
# 1 0.009247 -0.000131 -0.005289 0.000000 0.005243 0.000000
# 2 -0.000131 0.019040 -0.000391 0.000001 0.004971 0.000000
# 3 -0.005289 -0.000391 0.028593 0.000001 0.001711 0.000000
# 4 0.000000 0.000001 0.000001 0.140771 -0.000001 0.018567
# 5 0.005243 0.004971 0.001711 -0.000001 0.046415 0.000000
# 6 0.000000 0.000000 0.000000 0.018567 0.000000 0.031812
#
#
# Mechanical properties :
#
#
# Convention : Reuss Voigt Hill
#
# Bulk Modulus (GPa) = 22.09608 32.59774 27.34691
# Shear Modulus (GPa) = 16.52425 26.07484 21.29954
#
# Velocity S-wave (km/s) = 2.93943 3.69243 3.33724
# Velocity P-wave (km/s) = 4.80354 5.93494 5.39896
#
# Compressibility (1/GPa) = 0.04525690
#
# Stress axis : x y z
#
# Youngs Moduli (GPa) = 108.14453 52.52116 34.97375
#
# Poissons Ratio (x) = 0.00691 0.18499
# Poissons Ratio (y) = 0.01422 0.01366
# Poissons Ratio (z) = 0.57202 0.02051
#
# Static dielectric constant tensor:
#      x y z
#    x 1.648830 0.000000 0.023130 
#    y 0.000000 1.672180 0.000000 
#    z 0.023130 0.000000 1.658650 
# 
# From -- ./inp_files/289982.got.cif
#   From: 2010.05.17/outbox.cif.g08.bks.cpg/sg15_145_cif.got.tgz:289982.got - 2010.06.03 18:47:42.
