data_PCOD9301195
_publ_section_title
;
Structure prediction by ZEFSAII (Michael W. Deem and Ramdas Pophale) SiO2 
 PCOD9301195
Probable space group: C 2/C
;
_chemical_formula_sum "Si O2"
_cell_formula_units_Z 40
_cell_length_a 8.096964
_cell_length_b 15.423795
_cell_length_c 15.468441
_cell_angle_alpha 90.000000
_cell_angle_beta 55.744499
_cell_angle_gamma 90.000000
_cell_volume 1596.693729
_symmetry_space_group_name_H-M "C 2/C"
_symmetry_group_IT_number 15
_symmetry_cell_setting 'monoclinic'
loop_
_space_group_symop_operation_xyz
x,y,z
-x,y,1/2-z
-x,-y,-z
x,-y,1/2+z
1/2+x,1/2+y,z
1/2-x,1/2+y,1/2-z
1/2-x,1/2-y,-z
1/2+x,1/2-y,1/2+z
loop_
_atom_site_type_symbol
_atom_site_label
_atom_site_fract_x
_atom_site_fract_y
_atom_site_fract_z
Si Si1 0.829311 0.333982 0.870961
Si Si2 0.223552 0.283720 0.160073
Si Si3 0.435215 0.888989 0.536615
Si Si4 0.798247 0.854452 0.326362
Si Si5 0.591364 0.418545 0.522915
O O1 0.813928 0.228730 0.887350
O O2 0.610397 0.362374 0.902628
O O3 0.000000 0.346866 0.750000
O O4 0.916748 0.392327 0.923734
O O5 0.342659 0.206254 0.080338
O O6 0.288359 0.310468 0.236124
O O7 0.000000 0.256764 0.250000
O O8 0.266929 0.364319 0.084414
O O9 0.595027 0.899805 0.412433
O O10 0.232799 0.937121 0.564020
O O11 0.000000 0.908749 0.250000
O O12 0.500000 0.500000 0.500000
#
# Coordination Sequence:
#
# PCOD9301195 Si02
#       5
#     8   8   8   8   8
#     4  11  23  42  71 103 138 174 237 305 358 416
#     4  12  22  40  73 105 137 180 245 301 358 418
#     4  12  23  43  75 104 139 182 237 306 360 414
#     4  11  20  38  70 111 136 173 231 312 358 412
#     4  12  28  45  65 100 147 194 238 287 362 452
#
# _framework density 25.051767999999999
#
# number of rings (size 3 to 8) (size 9 to 14) (size 15 to 20)
#    0.000    0.400    8.000    3.600    0.000    1.600 
#    0.000    0.000    4.400    0.000    0.000    0.000 
#    0.000    0.000    0.000    0.000    0.000    0.000 
#
# Total GULP energy -111474.272868 kJ/mol
# GULP energy per Si atom -5573.713643 kJ/mol
# Density = 2.499475 g / cm^3
# Si number density = 25.051768 Si / 1000 Ang^3
#
#
#
# Elastic Constant Matrix: (Units=GPa)
#
#
# Indices 1 2 3 4 5 6 
#
# 1 183.2382 9.2315 47.0422 0.0000 -28.0250 0.0000
# 2 9.2315 25.6948 -0.1893 0.0000 12.0420 0.0000
# 3 47.0422 -0.1893 129.9737 0.0000 -35.0146 0.0000
# 4 0.0000 0.0000 0.0000 16.9367 0.0000 -5.6588
# 5 -28.0250 12.0420 -35.0146 0.0000 57.1678 0.0000
# 6 0.0000 0.0000 0.0000 -5.6588 0.0000 50.9464
#
#
#
# Elastic Compliance Matrix: (Units=1/GPa)
#
#
# Indices 1 2 3 4 5 6 
#
# 1 0.006509 -0.003775 -0.001542 0.000000 0.003042 0.000000
# 2 -0.003775 0.046277 -0.002025 0.000000 -0.012839 0.000000
# 3 -0.001542 -0.002025 0.009773 0.000000 0.005656 0.000000
# 4 0.000000 0.000000 0.000000 0.061319 0.000000 0.006811
# 5 0.003042 -0.012839 0.005656 0.000000 0.025152 0.000000
# 6 0.000000 0.000000 0.000000 0.006811 0.000000 0.020385
#
#
# Mechanical properties :
#
#
# Convention : Reuss Voigt Hill
#
# Bulk Modulus (GPa) = 20.88805 50.11950 35.50377
# Shear Modulus (GPa) = 24.99295 43.86500 34.42898
#
# Velocity S-wave (km/s) = 3.16199 4.18900 3.71119
# Velocity P-wave (km/s) = 4.65693 6.59142 5.70674
#
# Compressibility (1/GPa) = 0.04787426
#
# Stress axis : x y z
#
# Youngs Moduli (GPa) = 153.64350 21.60911 102.32506
#
# Poissons Ratio (x) = 0.08158 0.15777
# Poissons Ratio (y) = 0.58003 0.20720
# Poissons Ratio (z) = 0.23689 0.04376
#
# Static dielectric constant tensor:
#      x y z
#    x 2.732050 0.000000 -0.727980 
#    y 0.000000 2.116600 0.000000 
#    z -0.727980 0.000000 2.833870 
# 
# From -- ./inp_files/190190.got.cif
#   From: 2010.05.17/outbox.cif.g08.bks.cpg/sg15_96_cif.got.tgz:190190.got - 2010.06.03 18:47:42.
