data_PCOD9301585
_publ_section_title
;
Structure prediction by ZEFSAII (Michael W. Deem and Ramdas Pophale) SiO2 
 PCOD9301585
Probable space group: C 2/C
;
_chemical_formula_sum "Si O2"
_cell_formula_units_Z 60
_cell_length_a 7.879795
_cell_length_b 17.256286
_cell_length_c 25.108538
_cell_angle_alpha 90.000000
_cell_angle_beta 121.988214
_cell_angle_gamma 90.000000
_cell_volume 2895.742692
_symmetry_space_group_name_H-M "C 2/C"
_symmetry_group_IT_number 15
_symmetry_cell_setting 'monoclinic'
loop_
_space_group_symop_operation_xyz
x,y,z
-x,y,1/2-z
-x,-y,-z
x,-y,1/2+z
1/2+x,1/2+y,z
1/2-x,1/2+y,1/2-z
1/2-x,1/2-y,-z
1/2+x,1/2-y,1/2+z
loop_
_atom_site_type_symbol
_atom_site_label
_atom_site_fract_x
_atom_site_fract_y
_atom_site_fract_z
Si Si1 0.268131 0.055452 0.076229
Si Si2 0.783171 0.713658 0.129660
Si Si3 0.647010 0.739755 0.624990
Si Si4 0.465518 0.574075 0.567386
Si Si5 0.731143 0.342833 0.292905
Si Si6 0.000000 0.702632 0.750000
Si Si7 0.935067 0.296686 0.005152
Si Si8 0.903811 0.445061 0.415851
O O1 0.274082 0.122212 0.121357
O O2 0.470201 0.017868 0.085129
O O3 0.157577 0.092061 0.006727
O O4 0.129061 0.988737 0.077601
O O5 0.749305 0.755857 0.179855
O O6 0.633545 0.755780 0.062423
O O7 0.005719 0.733944 0.148894
O O8 0.583445 0.650996 0.603748
O O9 0.592879 0.786678 0.562561
O O10 0.871843 0.746723 0.683727
O O11 0.297535 0.545457 0.581951
O O12 0.500000 0.362858 0.250000
O O13 0.840064 0.347787 0.255144
O O14 0.836944 0.397394 0.353056
O O15 0.951793 0.386123 0.026756
O O16 0.750000 0.250000 0.000000
#
# Coordination Sequence:
#
# PCOD9301585 Si02
#       8
#     8   8   8   8   8   4   8   8
#     4  11  24  38  63 101 142 167 206 269 342 395
#     4  11  22  42  67  96 134 168 213 283 331 383
#     4  12  21  41  68  94 130 175 225 274 328 392
#     4  11  21  40  62  96 138 171 208 263 334 399
#     4  11  22  44  71  94 127 171 233 277 320 395
#     4  12  24  40  68 100 122 168 232 280 322 390
#     4  11  21  36  65 101 130 166 221 268 329 392
#     4  11  23  41  66 100 132 175 220 269 333 402
#
# _framework density 20.720072999999999
#
# number of rings (size 3 to 8) (size 9 to 14) (size 15 to 20)
#    0.000    0.800    5.333    4.800    1.867    0.000 
#    2.400    0.000   10.267    0.000    0.000    0.000 
#    0.000    0.000    0.000    0.000    0.000    0.000 
#
# Total GULP energy -167593.094196 kJ/mol
# GULP energy per Si atom -5586.436473 kJ/mol
# Density = 2.067291 g / cm^3
# Si number density = 20.720073 Si / 1000 Ang^3
#
#
#
# Elastic Constant Matrix: (Units=GPa)
#
#
# Indices 1 2 3 4 5 6 
#
# 1 91.1541 -1.9885 21.2706 0.0000 -6.5389 0.0000
# 2 -1.9885 62.5854 20.4713 0.0000 3.9774 0.0000
# 3 21.2706 20.4713 85.0278 0.0000 7.0992 0.0000
# 4 0.0000 0.0000 0.0000 -35.5959 0.0000 62.6661
# 5 -6.5389 3.9774 7.0992 0.0000 41.4398 0.0000
# 6 0.0000 0.0000 0.0000 62.6661 0.0000 -67.9021
#
#
#
# Elastic Compliance Matrix: (Units=1/GPa)
#
#
# Indices 1 2 3 4 5 6 
#
# 1 0.011994 0.001386 -0.003532 0.000000 0.002365 0.000000
# 2 0.001386 0.017542 -0.004512 0.000000 -0.000692 0.000000
# 3 -0.003532 -0.004512 0.013941 0.000000 -0.002512 0.000000
# 4 0.000000 0.000000 0.000000 0.044968 0.000000 0.041501
# 5 0.002365 -0.000692 -0.002512 0.000000 0.025001 0.000000
# 6 0.000000 0.000000 0.000000 0.041501 0.000000 0.023573
#
#
# Mechanical properties :
#
#
# Convention : Reuss Voigt Hill
#
# Bulk Modulus (GPa) = 33.15544 35.36379 34.25962
# Shear Modulus (GPa) = 31.17413 0.85597 16.01505
#
# Velocity S-wave (km/s) = 3.88304 0.64344 2.78317
# Velocity P-wave (km/s) = 6.01169 4.20196 5.18637
#
# Compressibility (1/GPa) = 0.03016096
#
# Stress axis : x y z
#
# Youngs Moduli (GPa) = 83.37227 57.00555 71.73340
#
# Poissons Ratio (x) = -0.07901 0.25334
# Poissons Ratio (y) = -0.11555 0.32369
# Poissons Ratio (z) = 0.29444 0.25723
#
# Static dielectric constant tensor:
#      x y z
#    x 1.797720 0.000000 0.038630 
#    y 0.000000 1.783800 0.000000 
#    z 0.038630 0.000000 1.847820 
# 
# From -- ./inp_files/265565.got.cif
#   From: 2010.05.17/outbox.cif.g08.bks.cpg/sg15_133_cif.got.tgz:265565.got - 2010.06.03 18:47:42.
