data_PCOD9301153
_publ_section_title
;
Structure prediction by ZEFSAII (Michael W. Deem and Ramdas Pophale) SiO2 
 PCOD9301153
Probable space group: C 2/C
;
_chemical_formula_sum "Si O2"
_cell_formula_units_Z 40
_cell_length_a 18.483969
_cell_length_b 15.590598
_cell_length_c 12.771985
_cell_angle_alpha 90.000000
_cell_angle_beta 153.385558
_cell_angle_gamma 90.000000
_cell_volume 1648.843166
_symmetry_space_group_name_H-M "C 2/C"
_symmetry_group_IT_number 15
_symmetry_cell_setting 'monoclinic'
loop_
_space_group_symop_operation_xyz
x,y,z
-x,y,1/2-z
-x,-y,-z
x,-y,1/2+z
1/2+x,1/2+y,z
1/2-x,1/2+y,1/2-z
1/2-x,1/2-y,-z
1/2+x,1/2-y,1/2+z
loop_
_atom_site_type_symbol
_atom_site_label
_atom_site_fract_x
_atom_site_fract_y
_atom_site_fract_z
Si Si1 0.809239 0.087665 0.900255
Si Si2 0.500000 0.315209 0.250000
Si Si3 0.000000 0.471701 0.750000
Si Si4 0.768187 0.394851 0.733346
Si Si5 0.180935 0.088290 0.346123
Si Si6 0.468111 0.173611 0.043269
O O1 0.722878 0.161499 0.720820
O O2 0.717236 0.997662 0.760745
O O3 0.800169 0.119212 0.009112
O O4 0.991919 0.062839 0.105369
O O5 0.650465 0.369591 0.484825
O O6 0.529368 0.253933 0.188437
O O7 0.834528 0.525069 0.533631
O O8 0.014432 0.408393 0.671991
O O9 0.693874 0.366996 0.749203
O O10 0.935321 0.344030 0.937601
#
# Coordination Sequence:
#
# PCOD9301153 Si02
#       6
#     8   4   4   8   8   8
#     4  11  23  42  67 106 136 184 233 289 337 414
#     4  11  28  44  70 102 145 180 230 285 354 412
#     4  11  20  38  64 100 129 178 220 285 330 398
#     4  12  23  42  67 100 139 184 228 287 346 409
#     4  11  23  37  67 100 137 174 234 286 340 400
#     4  11  24  42  67  99 142 181 231 282 345 412
#
# _framework density 24.259433999999999
#
# number of rings (size 3 to 8) (size 9 to 14) (size 15 to 20)
#    0.000    0.800    4.000    4.200    0.000    3.200 
#    0.000    1.000    0.000    2.400    0.000    0.000 
#    0.000    0.000    0.000    0.000    0.000    0.000 
#
# Total GULP energy -111545.328027 kJ/mol
# GULP energy per Si atom -5577.266401 kJ/mol
# Density = 2.420422 g / cm^3
# Si number density = 24.259434 Si / 1000 Ang^3
#
#
#
# Elastic Constant Matrix: (Units=GPa)
#
#
# Indices 1 2 3 4 5 6 
#
# 1 133.4655 14.2436 27.1926 0.0000 0.2752 0.0000
# 2 14.2436 53.7178 38.1045 0.0000 -2.7901 0.0000
# 3 27.1926 38.1045 114.9119 0.0000 -6.6715 0.0000
# 4 0.0000 0.0000 0.0000 23.8864 0.0000 -7.9697
# 5 0.2752 -2.7901 -6.6715 0.0000 34.5154 0.0000
# 6 0.0000 0.0000 0.0000 -7.9697 0.0000 39.8192
#
#
#
# Elastic Compliance Matrix: (Units=1/GPa)
#
#
# Indices 1 2 3 4 5 6 
#
# 1 0.007920 -0.001014 -0.001564 0.000000 -0.000447 0.000000
# 2 -0.001014 0.024477 -0.007849 0.000000 0.000469 0.000000
# 3 -0.001564 -0.007849 0.011771 0.000000 0.001653 0.000000
# 4 0.000000 0.000000 0.000000 0.044860 0.000000 0.008979
# 5 -0.000447 0.000469 0.001653 0.000000 0.029334 0.000000
# 6 0.000000 0.000000 0.000000 0.008979 0.000000 0.026911
#
#
# Mechanical properties :
#
#
# Convention : Reuss Voigt Hill
#
# Bulk Modulus (GPa) = 42.89270 51.24185 47.06728
# Shear Modulus (GPa) = 28.75231 34.48116 31.61674
#
# Velocity S-wave (km/s) = 3.44641 3.77417 3.61401
# Velocity P-wave (km/s) = 5.79277 6.33725 6.07112
#
# Compressibility (1/GPa) = 0.02331399
#
# Stress axis : x y z
#
# Youngs Moduli (GPa) = 126.25686 40.85483 84.95304
#
# Poissons Ratio (x) = 0.04142 0.13287
# Poissons Ratio (y) = 0.12802 0.66682
# Poissons Ratio (z) = 0.19747 0.32068
#
# Static dielectric constant tensor:
#      x y z
#    x 2.018530 0.000000 0.049140 
#    y 0.000000 1.945620 0.000000 
#    z 0.049140 0.000000 1.996590 
# 
# From -- ./inp_files/29380.got.cif
#   From: 2010.05.17/outbox.cif.g08.bks.cpg/sg15_15_cif.got.tgz:29380.got - 2010.06.03 18:47:42.
