data_PCOD9301960
_publ_section_title
;
Structure prediction by ZEFSAII (Michael W. Deem and Ramdas Pophale) SiO2 
 PCOD9301960
Probable space group: C 2/C
;
_chemical_formula_sum "Si O2"
_cell_formula_units_Z 48
_cell_length_a 20.520050
_cell_length_b 9.454527
_cell_length_c 13.767128
_cell_angle_alpha 90.000000
_cell_angle_beta 43.076872
_cell_angle_gamma 90.000000
_cell_volume 1824.185123
_symmetry_space_group_name_H-M "C 2/C"
_symmetry_group_IT_number 15
_symmetry_cell_setting 'monoclinic'
loop_
_space_group_symop_operation_xyz
x,y,z
-x,y,1/2-z
-x,-y,-z
x,-y,1/2+z
1/2+x,1/2+y,z
1/2-x,1/2+y,1/2-z
1/2-x,1/2-y,-z
1/2+x,1/2-y,1/2+z
loop_
_atom_site_type_symbol
_atom_site_label
_atom_site_fract_x
_atom_site_fract_y
_atom_site_fract_z
Si Si1 0.349987 0.678494 0.692035
Si Si2 0.919086 0.625001 0.420796
Si Si3 0.712237 0.446120 0.060739
Si Si4 0.637089 0.264862 0.634287
Si Si5 0.519079 0.157334 0.574287
Si Si6 0.814438 0.882375 0.626129
O O1 0.335668 0.678795 0.823927
O O2 0.419608 0.776750 0.401084
O O3 0.446054 0.748808 0.551939
O O4 0.339752 0.518080 0.663527
O O5 0.892977 0.773374 0.498618
O O6 0.818810 0.558182 0.489536
O O7 0.000000 0.632647 0.250000
O O8 0.953482 0.505936 0.458568
O O9 0.634386 0.569635 0.160351
O O10 0.766342 0.719783 0.240933
O O11 0.724910 0.443031 0.932418
O O12 0.750000 0.250000 0.500000
O O13 0.589128 0.180462 0.774513
#
# Coordination Sequence:
#
# PCOD9301960 Si02
#       6
#     8   8   8   8   8   8
#     4  11  23  42  67 102 137 175 235 278 341 409
#     4  11  21  41  67  99 134 181 230 278 344 407
#     4  11  23  43  71  95 135 184 223 281 350 404
#     4  11  21  40  70 101 135 179 228 280 347 403
#     4  11  22  40  70 102 135 181 229 284 335 415
#     4  11  25  42  70  98 139 181 224 289 338 405
#
# _framework density 26.313116999999998
#
# number of rings (size 3 to 8) (size 9 to 14) (size 15 to 20)
#    0.000    1.000    5.000    4.000    0.000    2.000 
#    0.000    1.667    0.000   10.000    0.000    0.000 
#    0.000    0.000    0.000    0.000    0.000    0.000 
#
# Total GULP energy -134338.072776 kJ/mol
# GULP energy per Si atom -5597.419699 kJ/mol
# Density = 2.625323 g / cm^3
# Si number density = 26.313117 Si / 1000 Ang^3
#
#
#
# Elastic Constant Matrix: (Units=GPa)
#
#
# Indices 1 2 3 4 5 6 
#
# 1 109.4539 25.6283 34.6514 0.0000 0.3972 0.0000
# 2 25.6283 148.6425 3.3141 0.0000 -3.6021 -0.0001
# 3 34.6514 3.3141 112.9586 0.0000 -14.7700 0.0000
# 4 0.0000 0.0000 0.0000 46.8869 0.0000 -11.2305
# 5 0.3972 -3.6021 -14.7700 0.0000 36.0358 0.0000
# 6 0.0000 -0.0001 0.0000 -11.2305 0.0000 34.7192
#
#
#
# Elastic Compliance Matrix: (Units=1/GPa)
#
#
# Indices 1 2 3 4 5 6 
#
# 1 0.010653 -0.001801 -0.003438 0.000000 -0.001707 0.000000
# 2 -0.001801 0.007050 0.000465 0.000000 0.000915 0.000000
# 3 -0.003438 0.000465 0.010466 0.000000 0.004374 0.000000
# 4 0.000000 0.000000 0.000000 0.023119 0.000000 0.007478
# 5 -0.001707 0.000915 0.004374 0.000000 0.029653 0.000000
# 6 0.000000 0.000000 0.000000 0.007478 0.000000 0.031222
#
#
# Mechanical properties :
#
#
# Convention : Reuss Voigt Hill
#
# Bulk Modulus (GPa) = 53.70505 55.36029 54.53267
# Shear Modulus (GPa) = 39.08775 44.02578 41.55676
#
# Velocity S-wave (km/s) = 3.85838 4.09485 3.97837
# Velocity P-wave (km/s) = 6.34852 6.59104 6.47092
#
# Compressibility (1/GPa) = 0.01862022
#
# Stress axis : x y z
#
# Youngs Moduli (GPa) = 93.87274 141.84503 95.54963
#
# Poissons Ratio (x) = 0.25552 0.32851
# Poissons Ratio (y) = 0.16910 -0.04447
# Poissons Ratio (z) = 0.32275 -0.06602
#
# Static dielectric constant tensor:
#      x y z
#    x 2.107800 0.000000 0.023190 
#    y 0.000000 2.328910 0.000000 
#    z 0.023190 0.000000 2.029620 
# 
# From -- ./inp_files/110875.got.cif
#   From: 2010.05.17/outbox.cif.g08.bks.cpg/sg15_56_cif.got.tgz:110875.got - 2010.06.03 18:47:42.
