data_PCOD9301169
_publ_section_title
;
Structure prediction by ZEFSAII (Michael W. Deem and Ramdas Pophale) SiO2 
 PCOD9301169
Probable space group: C 2/C
;
_chemical_formula_sum "Si O2"
_cell_formula_units_Z 44
_cell_length_a 9.353835
_cell_length_b 20.888884
_cell_length_c 13.753032
_cell_angle_alpha 90.000000
_cell_angle_beta 128.660526
_cell_angle_gamma 90.000000
_cell_volume 2098.346090
_symmetry_space_group_name_H-M "C 2/C"
_symmetry_group_IT_number 15
_symmetry_cell_setting 'monoclinic'
loop_
_space_group_symop_operation_xyz
x,y,z
-x,y,1/2-z
-x,-y,-z
x,-y,1/2+z
1/2+x,1/2+y,z
1/2-x,1/2+y,1/2-z
1/2-x,1/2-y,-z
1/2+x,1/2-y,1/2+z
loop_
_atom_site_type_symbol
_atom_site_label
_atom_site_fract_x
_atom_site_fract_y
_atom_site_fract_z
Si Si1 0.118570 0.130554 0.442376
Si Si2 0.220003 0.492102 0.603013
Si Si3 0.000000 0.236195 0.250000
Si Si4 0.218245 0.349926 0.277772
Si Si5 0.500000 0.401222 0.250000
Si Si6 0.500000 0.964053 0.250000
Si Si7 0.337358 0.537893 0.375966
O O1 0.206036 0.069607 0.424475
O O2 0.222248 0.146382 0.584809
O O3 0.115920 0.189025 0.367133
O O4 0.916665 0.108715 0.394361
O O5 0.156544 0.512275 0.353680
O O6 0.346777 0.553994 0.632599
O O7 0.000000 0.500000 0.500000
O O8 0.887586 0.283448 0.273169
O O9 0.388156 0.359652 0.279674
O O10 0.089360 0.412830 0.213107
O O11 0.283060 0.519890 0.242033
O O12 0.500000 0.500000 0.500000
#
# Coordination Sequence:
#
# PCOD9301169 Si02
#       7
#     8   8   4   8   4   4   8
#     4  12  22  45  68 101 139 180 238 292 346 420
#     4  12  24  38  71 107 143 174 219 292 367 426
#     4  11  25  46  70  94 127 197 254 280 334 413
#     4  11  25  42  71  94 142 190 237 289 341 423
#     4  12  23  48  64 108 143 182 228 294 368 416
#     4  11  20  38  66 108 132 181 222 268 364 427
#     4  12  22  38  67 102 144 172 218 290 351 420
#
# _framework density 20.968895
#
# number of rings (size 3 to 8) (size 9 to 14) (size 15 to 20)
#    0.000    0.364    7.273    1.636    2.545    0.000 
#    0.000    1.818    0.000    0.000    0.000    0.000 
#    0.000    0.000    0.000    0.000    0.000    0.000 
#
# Total GULP energy -122750.452831 kJ/mol
# GULP energy per Si atom -5579.566038 kJ/mol
# Density = 2.092117 g / cm^3
# Si number density = 20.968895 Si / 1000 Ang^3
#
#
#
# Elastic Constant Matrix: (Units=GPa)
#
#
# Indices 1 2 3 4 5 6 
#
# 1 151.0925 51.2498 35.2203 0.0000 12.5945 0.0000
# 2 51.2498 103.7513 17.7869 0.0000 1.6850 0.0000
# 3 35.2203 17.7869 108.6910 0.0000 9.0380 0.0000
# 4 0.0000 0.0000 0.0000 30.7279 0.0000 -2.0048
# 5 12.5945 1.6850 9.0380 0.0000 46.6781 0.0000
# 6 0.0000 0.0000 0.0000 -2.0048 0.0000 32.7978
#
#
#
# Elastic Compliance Matrix: (Units=1/GPa)
#
#
# Indices 1 2 3 4 5 6 
#
# 1 0.008535 -0.003846 -0.001988 0.000000 -0.001779 0.000000
# 2 -0.003846 0.011650 -0.000723 0.000000 0.000757 0.000000
# 3 -0.001988 -0.000723 0.010079 0.000000 -0.001389 0.000000
# 4 0.000000 0.000000 0.000000 0.032674 0.000000 0.001997
# 5 -0.001779 0.000757 -0.001389 0.000000 0.022145 0.000000
# 6 0.000000 0.000000 0.000000 0.001997 0.000000 0.030612
#
#
# Mechanical properties :
#
#
# Convention : Reuss Voigt Hill
#
# Bulk Modulus (GPa) = 58.31534 63.56099 60.93816
# Shear Modulus (GPa) = 37.16770 39.32595 38.24682
#
# Velocity S-wave (km/s) = 4.21469 4.33534 4.27544
# Velocity P-wave (km/s) = 7.18022 7.44567 7.31415
#
# Compressibility (1/GPa) = 0.01714815
#
# Stress axis : x y z
#
# Youngs Moduli (GPa) = 117.16693 85.83695 99.22106
#
# Poissons Ratio (x) = 0.33014 0.19728
# Poissons Ratio (y) = 0.45064 0.07175
# Poissons Ratio (z) = 0.23296 0.06207
#
# Static dielectric constant tensor:
#      x y z
#    x 1.884490 0.000000 -0.034670 
#    y 0.000000 1.753260 0.000000 
#    z -0.034670 0.000000 1.840740 
# 
# From -- ./inp_files/135455.got.cif
#   From: 2010.05.17/outbox.cif.g08.bks.cpg/sg15_68_cif.got.tgz:135455.got - 2010.06.03 18:47:42.
