data_PCOD9301856
_publ_section_title
;
Structure prediction by ZEFSAII (Michael W. Deem and Ramdas Pophale) SiO2 
 PCOD9301856
Probable space group: C 2/C
;
_chemical_formula_sum "Si O2"
_cell_formula_units_Z 32
_cell_length_a 7.241287
_cell_length_b 11.359585
_cell_length_c 17.011309
_cell_angle_alpha 90.000000
_cell_angle_beta 111.083710
_cell_angle_gamma 90.000000
_cell_volume 1305.640458
_symmetry_space_group_name_H-M "C 2/C"
_symmetry_group_IT_number 15
_symmetry_cell_setting 'monoclinic'
loop_
_space_group_symop_operation_xyz
x,y,z
-x,y,1/2-z
-x,-y,-z
x,-y,1/2+z
1/2+x,1/2+y,z
1/2-x,1/2+y,1/2-z
1/2-x,1/2-y,-z
1/2+x,1/2-y,1/2+z
loop_
_atom_site_type_symbol
_atom_site_label
_atom_site_fract_x
_atom_site_fract_y
_atom_site_fract_z
Si Si1 0.308022 0.955493 0.076346
Si Si2 0.165728 0.691653 0.678306
Si Si3 0.500000 0.392035 0.750000
Si Si4 0.395657 0.567239 0.595819
Si Si5 0.000000 0.496524 0.750000
O O1 0.456994 0.843725 0.103673
O O2 0.404972 0.046488 0.154846
O O3 0.092807 0.917729 0.075169
O O4 0.271844 0.020330 0.989250
O O5 0.329502 0.678595 0.637236
O O6 0.171539 0.584637 0.742487
O O7 0.155984 0.806253 0.730194
O O8 0.418852 0.467193 0.665641
#
# Coordination Sequence:
#
# PCOD9301856 Si02
#       5
#     8   8   4   8   4
#     4   9  20  39  63  93 122 165 208 252 317 366
#     4   9  20  42  55  90 132 152 205 269 292 370
#     4  11  24  38  66  97 120 169 218 242 322 379
#     4  11  21  39  69  86 126 170 202 259 313 368
#     4   7  16  34  58  79 126 151 192 254 298 353
#
# _framework density 24.509042000000001
#
# number of rings (size 3 to 8) (size 9 to 14) (size 15 to 20)
#    1.500    1.000    0.000    2.250    0.000    1.000 
#    0.000   10.000    0.000    0.000    0.000    1.750 
#    0.000    0.000    0.000    0.000    0.000    0.000 
#
# Total GULP energy -89154.143947 kJ/mol
# GULP energy per Si atom -5572.133997 kJ/mol
# Density = 2.445326 g / cm^3
# Si number density = 24.509042 Si / 1000 Ang^3
#
#
#
# Elastic Constant Matrix: (Units=GPa)
#
#
# Indices 1 2 3 4 5 6 
#
# 1 80.4326 14.2597 -2.8454 0.0000 -20.3228 0.0000
# 2 14.2597 69.7154 30.4984 0.0000 -6.0732 0.0000
# 3 -2.8454 30.4984 175.0794 0.0000 14.2215 0.0000
# 4 0.0000 0.0000 0.0000 11.5085 0.0000 -13.9027
# 5 -20.3228 -6.0732 14.2215 0.0000 43.0335 0.0000
# 6 0.0000 0.0000 0.0000 -13.9027 0.0000 0.8980
#
#
#
# Elastic Compliance Matrix: (Units=1/GPa)
#
#
# Indices 1 2 3 4 5 6 
#
# 1 0.014506 -0.002466 0.000141 0.000000 0.006456 0.000000
# 2 -0.002466 0.016379 -0.003069 0.000000 0.002161 0.000000
# 3 0.000141 -0.003069 0.006452 0.000000 -0.002499 0.000000
# 4 0.000000 0.000000 0.000000 -0.004908 0.000000 -0.075992
# 5 0.006456 0.002161 -0.002499 0.000000 0.027417 0.000000
# 6 0.000000 0.000000 0.000000 -0.075992 0.000000 -0.062905
#
#
# Mechanical properties :
#
#
# Convention : Reuss Voigt Hill
#
# Bulk Modulus (GPa) = 37.66688 45.45031 41.55860
# Shear Modulus (GPa) = 301.59167 29.97564 165.78365
#
# Velocity S-wave (km/s) = 11.10497 3.50100 8.23339
# Velocity P-wave (km/s) = 13.41004 5.90993 10.36234
#
# Compressibility (1/GPa) = 0.02654852
#
# Stress axis : x y z
#
# Youngs Moduli (GPa) = 68.93588 61.05265 155.00195
#
# Poissons Ratio (x) = 0.15058 -0.02185
# Poissons Ratio (y) = 0.17002 0.47568
# Poissons Ratio (z) = -0.00972 0.18736
#
# Static dielectric constant tensor:
#      x y z
#    x 2.078610 0.000000 0.025980 
#    y 0.000000 1.995640 0.000000 
#    z 0.025980 0.000000 1.927040 
# 
# From -- ./inp_files/132087.got.cif
#   From: 2010.05.17/outbox.cif.g08.bks.cpg/sg15_67_cif.got.tgz:132087.got - 2010.06.03 18:47:42.
