data_PCOD9301102
_publ_section_title
;
Structure prediction by ZEFSAII (Michael W. Deem and Ramdas Pophale) SiO2 
 PCOD9301102
Probable space group: C 2/C
;
_chemical_formula_sum "Si O2"
_cell_formula_units_Z 60
_cell_length_a 26.825818
_cell_length_b 15.767292
_cell_length_c 11.892965
_cell_angle_alpha 90.000000
_cell_angle_beta 148.704187
_cell_angle_gamma 90.000000
_cell_volume 2613.061021
_symmetry_space_group_name_H-M "C 2/C"
_symmetry_group_IT_number 15
_symmetry_cell_setting 'monoclinic'
loop_
_space_group_symop_operation_xyz
x,y,z
-x,y,1/2-z
-x,-y,-z
x,-y,1/2+z
1/2+x,1/2+y,z
1/2-x,1/2+y,1/2-z
1/2-x,1/2-y,-z
1/2+x,1/2-y,1/2+z
loop_
_atom_site_type_symbol
_atom_site_label
_atom_site_fract_x
_atom_site_fract_y
_atom_site_fract_z
Si Si1 0.712926 0.417138 0.428768
Si Si2 0.297586 0.133948 0.736591
Si Si3 0.846053 0.698696 0.061844
Si Si4 0.002339 0.398823 0.000453
Si Si5 0.973802 0.867974 0.327785
Si Si6 0.791954 0.549751 0.314371
Si Si7 0.187452 0.891934 0.812882
Si Si8 0.500000 0.902319 0.250000
O O1 0.744582 0.334315 0.419464
O O2 0.603456 0.426505 0.259955
O O3 0.779604 0.412087 0.666537
O O4 0.724378 0.509300 0.395310
O O5 0.223620 0.154179 0.494747
O O6 0.261690 0.047859 0.731311
O O7 0.324756 0.196303 0.888784
O O8 0.395910 0.121577 0.858449
O O9 0.919248 0.629914 0.255158
O O10 0.909924 0.782286 0.206100
O O11 0.000000 0.500000 0.000000
O O12 0.996166 0.361158 0.116600
O O13 0.000000 0.890613 0.250000
O O14 0.075536 0.872123 0.585349
O O15 0.737568 0.617501 0.288424
O O16 0.901819 0.545516 0.563146
#
# Coordination Sequence:
#
# PCOD9301102 Si02
#       8
#     8   8   8   8   8   8   8   4
#     4  11  23  44  73  98 136 189 247 298 346 426
#     4  11  22  37  64 100 135 177 229 292 356 418
#     4  12  25  44  66 102 139 186 233 286 367 433
#     4  12  21  34  61  96 138 173 227 293 347 421
#     4  12  26  46  69  98 144 193 234 289 368 437
#     4  11  20  37  66 101 140 174 232 301 356 403
#     4  11  23  44  71 106 135 183 248 305 345 420
#     4  12  20  32  60 102 130 176 224 288 352 404
#
# _framework density 22.961576999999998
#
# number of rings (size 3 to 8) (size 9 to 14) (size 15 to 20)
#    0.000    0.533    6.667    3.600    0.000    0.000 
#    0.000    4.667    0.000    0.000    0.000    0.000 
#    0.000    0.000    0.000    0.000    0.000    0.000 
#
# Total GULP energy -167217.829398 kJ/mol
# GULP energy per Si atom -5573.927647 kJ/mol
# Density = 2.290932 g / cm^3
# Si number density = 22.961577 Si / 1000 Ang^3
#
#
#
# Elastic Constant Matrix: (Units=GPa)
#
#
# Indices 1 2 3 4 5 6 
#
# 1 91.4808 20.0689 46.6278 0.0000 -8.2426 0.0000
# 2 20.0689 40.3855 11.3199 0.0000 -17.9277 0.0000
# 3 46.6278 11.3199 159.7717 0.0000 0.1152 0.0000
# 4 0.0000 0.0000 0.0000 22.0089 0.0000 5.8461
# 5 -8.2426 -17.9277 0.1152 0.0000 38.5271 0.0000
# 6 0.0000 0.0000 0.0000 5.8461 0.0000 2.8793
#
#
#
# Elastic Compliance Matrix: (Units=1/GPa)
#
#
# Indices 1 2 3 4 5 6 
#
# 1 0.014133 -0.005843 -0.003711 0.000000 0.000316 0.000000
# 2 -0.005843 0.034432 -0.000745 0.000000 0.014775 0.000000
# 3 -0.003711 -0.000745 0.007396 0.000000 -0.001163 0.000000
# 4 0.000000 0.000000 0.000000 0.098629 0.000000 -0.200256
# 5 0.000316 0.014775 -0.001163 0.000000 0.032902 0.000000
# 6 0.000000 0.000000 0.000000 -0.200256 0.000000 0.753905
#
#
# Mechanical properties :
#
#
# Convention : Reuss Voigt Hill
#
# Bulk Modulus (GPa) = 28.27777 49.74126 39.00952
# Shear Modulus (GPa) = 5.13462 26.92448 16.02955
#
# Velocity S-wave (km/s) = 1.49701 3.42802 2.64503
# Velocity P-wave (km/s) = 3.91536 6.11378 5.13363
#
# Compressibility (1/GPa) = 0.03536346
#
# Stress axis : x y z
#
# Youngs Moduli (GPa) = 70.75695 29.04253 135.21702
#
# Poissons Ratio (x) = 0.16969 0.50176
# Poissons Ratio (y) = 0.41341 0.10074
# Poissons Ratio (z) = 0.26257 0.02164
#
# Static dielectric constant tensor:
#      x y z
#    x 1.956440 0.000000 -0.005010 
#    y 0.000000 1.931270 0.000000 
#    z -0.005010 0.000000 1.869870 
# 
# From -- ./inp_files/124022.got.cif
#   From: 2010.05.17/outbox.cif.g08.bks.cpg/sg15_63_cif.got.tgz:124022.got - 2010.06.03 18:47:42.
