data_PCOD9301407
_publ_section_title
;
Structure prediction by ZEFSAII (Michael W. Deem and Ramdas Pophale) SiO2 
 PCOD9301407
Probable space group: C 2/C
;
_chemical_formula_sum "Si O2"
_cell_formula_units_Z 48
_cell_length_a 10.042374
_cell_length_b 23.817724
_cell_length_c 22.748934
_cell_angle_alpha 90.000000
_cell_angle_beta 26.329168
_cell_angle_gamma 90.000000
_cell_volume 2413.338645
_symmetry_space_group_name_H-M "C 2/C"
_symmetry_group_IT_number 15
_symmetry_cell_setting 'monoclinic'
loop_
_space_group_symop_operation_xyz
x,y,z
-x,y,1/2-z
-x,-y,-z
x,-y,1/2+z
1/2+x,1/2+y,z
1/2-x,1/2+y,1/2-z
1/2-x,1/2-y,-z
1/2+x,1/2-y,1/2+z
loop_
_atom_site_type_symbol
_atom_site_label
_atom_site_fract_x
_atom_site_fract_y
_atom_site_fract_z
Si Si1 0.321075 0.591655 0.259156
Si Si2 0.339854 0.132099 0.972375
Si Si3 0.354017 0.374989 0.452925
Si Si4 0.174808 0.959340 0.242655
Si Si5 0.243258 0.709280 0.895960
Si Si6 0.209708 0.190865 0.902315
O O1 0.500000 0.598499 0.250000
O O2 0.282288 0.525104 0.264076
O O3 0.994622 0.618878 0.393666
O O4 0.525736 0.617768 0.127315
O O5 0.517828 0.075648 0.884243
O O6 0.545837 0.164041 0.938313
O O7 0.300208 0.171142 0.931385
O O8 0.474212 0.429781 0.371777
O O9 0.385977 0.323455 0.394403
O O10 0.554151 0.360688 0.429806
O O11 0.000000 0.953025 0.250000
O O12 0.500000 0.729754 0.750000
O O13 0.028684 0.759149 0.000482
O O14 0.500000 0.208138 0.750000
#
# Coordination Sequence:
#
# PCOD9301407 Si02
#       6
#     8   8   8   8   8   8
#     4  11  24  39  72 104 127 170 219 271 318 390
#     4  12  23  44  66  99 135 170 215 271 324 384
#     4  12  23  44  66  99 135 170 215 271 324 384
#     4  11  20  43  70  98 129 170 223 269 324 376
#     4  12  24  44  69  95 126 176 225 271 317 380
#     4  12  28  44  67  93 136 176 215 267 331 388
#
# _framework density 19.889458999999999
#
# number of rings (size 3 to 8) (size 9 to 14) (size 15 to 20)
#    0.000    0.333    6.667    2.000    4.667    2.667 
#    0.000    5.000    0.000    0.000    0.000    0.000 
#    0.000    0.000    0.000    0.000    0.000    0.000 
#
# Total GULP energy -134335.529020 kJ/mol
# GULP energy per Si atom -5597.313709 kJ/mol
# Density = 1.984419 g / cm^3
# Si number density = 19.889459 Si / 1000 Ang^3
#
#
#
# Elastic Constant Matrix: (Units=GPa)
#
#
# Indices 1 2 3 4 5 6 
#
# 1 37.9750 -6.7457 -9.6692 1.5296 6.8033 -1.6780
# 2 -6.7457 37.0984 10.4015 2.3336 12.1864 -2.6287
# 3 -9.6692 10.4015 158.1120 0.9759 18.9279 -1.1895
# 4 1.5296 2.3336 0.9759 -38.9412 -0.3470 81.0160
# 5 6.8033 12.1864 18.9279 -0.3470 27.2359 0.3945
# 6 -1.6780 -2.6287 -1.1895 81.0160 0.3945 -105.0473
#
#
#
# Elastic Compliance Matrix: (Units=1/GPa)
#
#
# Indices 1 2 3 4 5 6 
#
# 1 0.031250 0.009418 0.002970 -0.000468 -0.014073 -0.001182
# 2 0.009418 0.034395 0.000466 -0.000576 -0.018051 -0.001528
# 3 0.002970 0.000466 0.007186 -0.000064 -0.005942 -0.000212
# 4 -0.000468 -0.000576 -0.000064 0.042492 0.000486 0.032796
# 5 -0.014073 -0.018051 -0.005942 0.000486 0.052425 0.001315
# 6 -0.001182 -0.001528 -0.000212 0.032796 0.001315 0.015838
#
#
# Mechanical properties :
#
#
# Convention : Reuss Voigt Hill
#
# Bulk Modulus (GPa) = 10.14822 24.57319 17.36071
# Shear Modulus (GPa) = 26.21591 -7.40394 9.40599
#
# Velocity S-wave (km/s) = 3.63448 -1.93148 2.17702
# Velocity P-wave (km/s) = 4.76717 2.72168 3.88159
#
# Compressibility (1/GPa) = 0.09853941
#
# Stress axis : x y z
#
# Youngs Moduli (GPa) = 31.99989 29.07430 139.16450
#
# Poissons Ratio (x) = -0.27382 -0.41335
# Poissons Ratio (y) = -0.30137 -0.06489
# Poissons Ratio (z) = -0.09505 -0.01356
#
# Static dielectric constant tensor:
#      x y z
#    x 1.666610 -0.000060 0.007920 
#    y -0.000060 1.674480 0.000270 
#    z 0.007920 0.000270 1.688640 
# 
# From -- ./inp_files/293910.got.cif
#   From: 2010.05.17/outbox.cif.g08.bks.cpg/sg15_147_cif.got.tgz:293910.got - 2010.06.03 18:47:42.
