data_PCOD9301806
_publ_section_title
;
Structure prediction by ZEFSAII (Michael W. Deem and Ramdas Pophale) SiO2 
 PCOD9301806
Probable space group: C 2/C
;
_chemical_formula_sum "Si O2"
_cell_formula_units_Z 60
_cell_length_a 15.889962
_cell_length_b 18.426007
_cell_length_c 17.630575
_cell_angle_alpha 90.000000
_cell_angle_beta 36.156246
_cell_angle_gamma 90.000000
_cell_volume 3045.542555
_symmetry_space_group_name_H-M "C 2/C"
_symmetry_group_IT_number 15
_symmetry_cell_setting 'monoclinic'
loop_
_space_group_symop_operation_xyz
x,y,z
-x,y,1/2-z
-x,-y,-z
x,-y,1/2+z
1/2+x,1/2+y,z
1/2-x,1/2+y,1/2-z
1/2-x,1/2-y,-z
1/2+x,1/2-y,1/2+z
loop_
_atom_site_type_symbol
_atom_site_label
_atom_site_fract_x
_atom_site_fract_y
_atom_site_fract_z
Si Si1 0.444637 0.934631 0.875582
Si Si2 0.193507 0.526553 0.774697
Si Si3 0.500000 0.832725 0.250000
Si Si4 0.451465 0.142426 0.518705
Si Si5 0.859343 0.010941 0.388096
Si Si6 0.274773 0.604885 0.308469
Si Si7 0.805710 0.887422 0.056597
Si Si8 0.473193 0.264049 0.618070
O O1 0.500000 0.921413 0.750000
O O2 0.451561 0.865843 0.927911
O O3 0.553425 0.993911 0.834002
O O4 0.281750 0.963240 0.995327
O O5 0.281114 0.458635 0.741663
O O6 0.283503 0.576805 0.653890
O O7 0.144600 0.576632 0.879952
O O8 0.645491 0.878170 0.140853
O O9 0.507371 0.785983 0.321803
O O10 0.609381 0.124790 0.433171
O O11 0.419453 0.216909 0.585682
O O12 0.822875 0.072666 0.353067
O O13 0.888874 0.055869 0.443122
O O14 0.000000 0.973289 0.250000
O O15 0.359771 0.675054 0.222271
O O16 0.882801 0.809736 0.002864
#
# Coordination Sequence:
#
# PCOD9301806 Si02
#       8
#     8   8   4   8   8   8   8   8
#     4  11  21  40  69  94 119 167 226 270 307 374
#     4  11  21  39  65  91 120 168 218 268 302 376
#     4  12  22  38  58  88 134 168 210 242 304 402
#     4  11  22  40  64  88 127 171 216 264 308 377
#     4  12  21  37  60  95 136 161 198 265 329 376
#     4  11  22  40  60  88 125 167 211 254 318 377
#     4  12  23  36  59  92 126 169 207 251 321 386
#     4  12  24  38  57  92 135 169 198 257 328 389
#
# _framework density 19.700923
#
# number of rings (size 3 to 8) (size 9 to 14) (size 15 to 20)
#    0.000    0.533    6.667    4.400    0.000    0.533 
#    0.000    0.000    0.000    3.200    3.467    0.000 
#    0.000    0.000    0.000    0.000    0.000    0.000 
#
# Total GULP energy -167646.565274 kJ/mol
# GULP energy per Si atom -5588.218842 kJ/mol
# Density = 1.965608 g / cm^3
# Si number density = 19.700923 Si / 1000 Ang^3
#
#
#
# Elastic Constant Matrix: (Units=GPa)
#
#
# Indices 1 2 3 4 5 6 
#
# 1 49.7252 13.8749 33.0864 -0.0025 18.5238 0.0021
# 2 13.8749 39.1691 24.2776 -0.0027 9.3332 0.0027
# 3 33.0864 24.2776 114.6121 -0.0043 21.1247 0.0034
# 4 -0.0025 -0.0027 -0.0043 19.2909 0.0027 7.4548
# 5 18.5238 9.3332 21.1247 0.0027 30.0089 -0.0017
# 6 0.0021 0.0027 0.0034 7.4548 -0.0017 7.9214
#
#
#
# Elastic Compliance Matrix: (Units=1/GPa)
#
#
# Indices 1 2 3 4 5 6 
#
# 1 0.029731 -0.004088 -0.005250 0.000010 -0.013385 -0.000017
# 2 -0.004088 0.030753 -0.004638 0.000010 -0.003776 -0.000018
# 3 -0.005250 -0.004638 0.011904 0.000005 -0.003697 -0.000007
# 4 0.000010 0.000010 0.000005 0.081465 -0.000024 -0.076666
# 5 -0.013385 -0.003776 -0.003697 -0.000024 0.045363 0.000039
# 6 -0.000017 -0.000018 -0.000007 -0.076666 0.000039 0.198391
#
#
# Mechanical properties :
#
#
# Convention : Reuss Voigt Hill
#
# Bulk Modulus (GPa) = 22.50423 38.44268 30.47345
# Shear Modulus (GPa) = 11.35407 20.26206 15.80807
#
# Velocity S-wave (km/s) = 2.40328 3.21048 2.83574
# Velocity P-wave (km/s) = 4.37592 5.77047 5.12089
#
# Compressibility (1/GPa) = 0.04443609
#
# Stress axis : x y z
#
# Youngs Moduli (GPa) = 33.63546 32.51718 84.00231
#
# Poissons Ratio (x) = 0.13294 0.44098
# Poissons Ratio (y) = 0.13751 0.38960
# Poissons Ratio (z) = 0.17657 0.15082
#
# Static dielectric constant tensor:
#      x y z
#    x 1.695240 0.000000 -0.007290 
#    y 0.000000 1.686290 0.000000 
#    z -0.007290 0.000000 1.755960 
# 
# From -- ./inp_files/211734.got.cif
#   From: 2010.05.17/outbox.cif.g08.bks.cpg/sg15_106_cif.got.tgz:211734.got - 2010.06.03 18:47:42.
