data_PCOD9301680
_publ_section_title
;
Structure prediction by ZEFSAII (Michael W. Deem and Ramdas Pophale) SiO2 
 PCOD9301680
Probable space group: C 2/C
;
_chemical_formula_sum "Si O2"
_cell_formula_units_Z 64
_cell_length_a 21.958425
_cell_length_b 14.086487
_cell_length_c 30.742199
_cell_angle_alpha 90.000000
_cell_angle_beta 19.648059
_cell_angle_gamma 90.000000
_cell_volume 3197.350944
_symmetry_space_group_name_H-M "C 2/C"
_symmetry_group_IT_number 15
_symmetry_cell_setting 'monoclinic'
loop_
_space_group_symop_operation_xyz
x,y,z
-x,y,1/2-z
-x,-y,-z
x,-y,1/2+z
1/2+x,1/2+y,z
1/2-x,1/2+y,1/2-z
1/2-x,1/2-y,-z
1/2+x,1/2-y,1/2+z
loop_
_atom_site_type_symbol
_atom_site_label
_atom_site_fract_x
_atom_site_fract_y
_atom_site_fract_z
Si Si1 0.599838 0.027250 0.843085
Si Si2 0.710247 0.986417 0.102186
Si Si3 0.022934 0.880463 0.417085
Si Si4 0.837844 0.370161 0.586347
Si Si5 0.165093 0.331061 0.809722
Si Si6 0.450283 0.654334 0.497917
Si Si7 0.609955 0.869780 0.084537
Si Si8 0.031752 0.183534 0.184060
O O1 0.811503 0.050081 0.707796
O O2 0.553135 0.083780 0.830794
O O3 0.560825 0.918123 0.857582
O O4 0.480020 0.066842 0.963861
O O5 0.500000 0.013109 0.250000
O O6 0.693167 0.924800 0.069512
O O7 0.805480 0.916505 0.073427
O O8 0.842499 0.077517 0.016206
O O9 0.081951 0.773926 0.363353
O O10 0.006312 0.876651 0.481315
O O11 0.846947 0.367408 0.632332
O O12 0.869308 0.260018 0.552823
O O13 0.627909 0.389150 0.717244
O O14 0.366792 0.335519 0.653905
O O15 0.551665 0.762479 0.134065
O O16 0.777130 0.866171 0.939289
O O17 0.000000 0.238926 0.250000
#
# Coordination Sequence:
#
# PCOD9301680 Si02
#       8
#     8   8   8   8   8   8   8   8
#     4  12  23  42  65  92 131 168 215 263 319 386
#     4  12  24  40  66  97 129 165 211 264 325 379
#     4  11  25  43  65  98 125 165 218 271 322 371
#     4  11  22  38  64  95 128 166 207 259 323 387
#     4  11  24  42  66  92 123 169 218 265 315 374
#     4  11  22  41  68  97 127 158 211 274 320 375
#     4  11  24  37  62  95 129 169 205 256 320 385
#     4  11  21  38  59  93 137 162 198 253 328 390
#
# _framework density 20.016570000000002
#
# number of rings (size 3 to 8) (size 9 to 14) (size 15 to 20)
#    0.000    0.750    3.750    5.625    3.500    0.000 
#    0.000    0.625    2.750    0.000    0.000    0.000 
#    0.000    0.000    0.000    0.000    0.000    0.000 
#
# Total GULP energy -178556.001067 kJ/mol
# GULP energy per Si atom -5579.875033 kJ/mol
# Density = 1.997101 g / cm^3
# Si number density = 20.016570 Si / 1000 Ang^3
#
#
#
# Elastic Constant Matrix: (Units=GPa)
#
#
# Indices 1 2 3 4 5 6 
#
# 1 29.6934 -9.2488 35.7809 0.0015 -0.4102 -0.0015
# 2 -9.2488 77.5729 38.9746 0.0041 -6.2100 -0.0013
# 3 35.7809 38.9746 138.8165 0.0263 -6.3785 0.0085
# 4 0.0015 0.0041 0.0263 9.6946 0.0113 -6.0340
# 5 -0.4102 -6.2100 -6.3785 0.0113 28.8275 0.0012
# 6 -0.0015 -0.0013 0.0085 -6.0340 0.0012 27.7304
#
#
#
# Elastic Compliance Matrix: (Units=1/GPa)
#
#
# Indices 1 2 3 4 5 6 
#
# 1 0.067190 0.019464 -0.022779 0.000058 0.000109 0.000024
# 2 0.019464 0.020802 -0.010748 0.000021 0.002380 0.000010
# 3 -0.022779 -0.010748 0.016136 -0.000047 0.000931 -0.000017
# 4 0.000058 0.000021 -0.000047 0.119309 -0.000053 0.025961
# 5 0.000109 0.002380 0.000931 -0.000053 0.035409 -0.000013
# 6 0.000024 0.000010 -0.000017 0.025961 -0.000013 0.041710
#
#
# Mechanical properties :
#
#
# Convention : Reuss Voigt Hill
#
# Bulk Modulus (GPa) = 13.15737 41.89958 27.52847
# Shear Modulus (GPa) = 14.12365 25.28890 19.70627
#
# Velocity S-wave (km/s) = 2.65919 3.55829 3.14108
# Velocity P-wave (km/s) = 4.00199 6.15303 5.19017
#
# Compressibility (1/GPa) = 0.07600301
#
# Stress axis : x y z
#
# Youngs Moduli (GPa) = 14.88311 48.07117 61.97481
#
# Poissons Ratio (x) = -0.93567 1.41170
# Poissons Ratio (y) = -0.28969 0.66612
# Poissons Ratio (z) = 0.33902 0.51668
#
# Static dielectric constant tensor:
#      x y z
#    x 1.786040 0.000030 0.057480 
#    y 0.000030 1.730660 0.000030 
#    z 0.057480 0.000030 1.765280 
# 
# From -- ./inp_files/317999.got.cif
#   From: 2010.05.17/outbox.cif.g08.bks.cpg/sg15_159_cif.got.tgz:317999.got - 2010.06.03 18:47:42.
