data_PCOD9301491
_publ_section_title
;
Structure prediction by ZEFSAII (Michael W. Deem and Ramdas Pophale) SiO2 
 PCOD9301491
Probable space group: C 2/C
;
_chemical_formula_sum "Si O2"
_cell_formula_units_Z 64
_cell_length_a 14.024416
_cell_length_b 26.278578
_cell_length_c 16.820737
_cell_angle_alpha 90.000000
_cell_angle_beta 31.797419
_cell_angle_gamma 90.000000
_cell_volume 3266.437084
_symmetry_space_group_name_H-M "C 2/C"
_symmetry_group_IT_number 15
_symmetry_cell_setting 'monoclinic'
loop_
_space_group_symop_operation_xyz
x,y,z
-x,y,1/2-z
-x,-y,-z
x,-y,1/2+z
1/2+x,1/2+y,z
1/2-x,1/2+y,1/2-z
1/2-x,1/2-y,-z
1/2+x,1/2-y,1/2+z
loop_
_atom_site_type_symbol
_atom_site_label
_atom_site_fract_x
_atom_site_fract_y
_atom_site_fract_z
Si Si1 0.041306 0.477935 0.382811
Si Si2 0.133049 0.847616 0.298724
Si Si3 0.289189 0.074162 0.293251
Si Si4 0.957917 0.357319 0.966348
Si Si5 0.540367 0.759000 0.633644
Si Si6 0.308800 0.587195 0.967551
Si Si7 0.622510 0.423499 0.431096
Si Si8 0.171376 0.035254 0.071860
O O1 0.077493 0.526705 0.301832
O O2 0.227423 0.447444 0.235173
O O3 0.000000 0.500000 0.500000
O O4 0.859214 0.451648 0.482543
O O5 0.107191 0.865607 0.408394
O O6 0.060871 0.792595 0.321403
O O7 0.005271 0.887048 0.339966
O O8 0.344266 0.852414 0.127027
O O9 0.359647 0.110298 0.172948
O O10 0.289026 0.099043 0.379338
O O11 0.082824 0.055981 0.429853
O O12 0.992910 0.301889 0.907223
O O13 0.813628 0.386237 0.011588
O O14 0.500000 0.778703 0.750000
O O15 0.750000 0.750000 0.500000
O O16 0.330954 0.526423 0.940503
O O17 0.672456 0.436235 0.486218
O O18 0.000000 0.047018 0.250000
#
# Coordination Sequence:
#
# PCOD9301491 Si02
#       8
#     8   8   8   8   8   8   8   8
#     4  12  24  40  61  87 121 161 212 264 316 372
#     4  11  24  38  56  84 129 173 214 265 315 383
#     4  11  23  35  57  83 121 165 210 260 305 375
#     4  12  22  37  59  89 126 171 219 260 326 390
#     4  12  22  38  60  92 130 173 214 263 330 400
#     4  11  21  35  54  86 122 170 217 257 315 373
#     4  11  26  42  57  86 128 170 222 265 312 385
#     4  12  25  40  64  87 122 172 222 264 322 380
#
# _framework density 19.593214
#
# number of rings (size 3 to 8) (size 9 to 14) (size 15 to 20)
#    0.000    0.500    5.000    4.500    7.000    0.000 
#    0.000    0.000    0.000    0.000    0.000    0.000 
#    0.000   41.000    0.000    0.000    0.000    0.000 
#
# Total GULP energy -178531.142059 kJ/mol
# GULP energy per Si atom -5579.098189 kJ/mol
# Density = 1.954862 g / cm^3
# Si number density = 19.593214 Si / 1000 Ang^3
#
#
#
# Elastic Constant Matrix: (Units=GPa)
#
#
# Indices 1 2 3 4 5 6 
#
# 1 80.4866 8.8744 34.0236 -0.0021 3.1769 0.0023
# 2 8.8744 72.5195 18.7715 -0.0056 6.3674 -0.0001
# 3 34.0236 18.7715 153.0433 -0.0130 -7.8614 0.0008
# 4 -0.0021 -0.0056 -0.0130 18.9560 0.0002 6.4075
# 5 3.1769 6.3674 -7.8614 0.0002 34.9211 -0.0009
# 6 0.0023 -0.0001 0.0008 6.4075 -0.0009 23.3099
#
#
#
# Elastic Compliance Matrix: (Units=1/GPa)
#
#
# Indices 1 2 3 4 5 6 
#
# 1 0.013884 -0.000739 -0.003090 0.000000 -0.001824 -0.000001
# 2 -0.000739 0.014604 -0.001781 0.000003 -0.002997 -0.000001
# 3 -0.003090 -0.001781 0.007558 0.000005 0.002307 -0.000001
# 4 0.000000 0.000003 0.000005 0.058157 0.000000 -0.015987
# 5 -0.001824 -0.002997 0.002307 0.000000 0.029868 0.000001
# 6 -0.000001 -0.000001 -0.000001 -0.015987 0.000001 0.047295
#
#
# Mechanical properties :
#
#
# Convention : Reuss Voigt Hill
#
# Bulk Modulus (GPa) = 40.27940 47.70983 43.99462
# Shear Modulus (GPa) = 26.19716 31.72939 28.96327
#
# Velocity S-wave (km/s) = 3.66054 4.02855 3.84895
# Velocity P-wave (km/s) = 6.20230 6.78543 6.50041
#
# Compressibility (1/GPa) = 0.02482659
#
# Stress axis : x y z
#
# Youngs Moduli (GPa) = 72.02552 68.47479 132.31179
#
# Poissons Ratio (x) = 0.05061 0.40879
# Poissons Ratio (y) = 0.05324 0.23563
# Poissons Ratio (z) = 0.22253 0.12194
#
# Static dielectric constant tensor:
#      x y z
#    x 1.702970 0.000000 0.001450 
#    y 0.000000 1.705230 0.000000 
#    z 0.001450 0.000000 1.736210 
# 
# From -- ./inp_files/207331.got.cif
#   From: 2010.05.17/outbox.cif.g08.bks.cpg/sg15_104_cif.got.tgz:207331.got - 2010.06.03 18:47:42.
