data_PCOD9301475
_publ_section_title
;
Structure prediction by ZEFSAII (Michael W. Deem and Ramdas Pophale) SiO2 
 PCOD9301475
Probable space group: C 2/C
;
_chemical_formula_sum "Si O2"
_cell_formula_units_Z 48
_cell_length_a 16.803718
_cell_length_b 7.648048
_cell_length_c 13.719979
_cell_angle_alpha 90.000000
_cell_angle_beta 96.515017
_cell_angle_gamma 90.000000
_cell_volume 1751.845223
_symmetry_space_group_name_H-M "C 2/C"
_symmetry_group_IT_number 15
_symmetry_cell_setting 'monoclinic'
loop_
_space_group_symop_operation_xyz
x,y,z
-x,y,1/2-z
-x,-y,-z
x,-y,1/2+z
1/2+x,1/2+y,z
1/2-x,1/2+y,1/2-z
1/2-x,1/2-y,-z
1/2+x,1/2-y,1/2+z
loop_
_atom_site_type_symbol
_atom_site_label
_atom_site_fract_x
_atom_site_fract_y
_atom_site_fract_z
Si Si1 0.849133 0.150397 0.390242
Si Si2 0.038082 0.665754 0.160282
Si Si3 0.022740 0.051794 0.360349
Si Si4 0.636385 0.975929 0.509943
Si Si5 0.815532 0.323112 0.681985
Si Si6 0.195985 0.048607 0.427789
O O1 0.853216 0.346591 0.427245
O O2 0.777642 0.135014 0.300437
O O3 0.811271 0.031521 0.466608
O O4 0.941455 0.097187 0.403032
O O5 0.982754 0.839111 0.142456
O O6 0.058533 0.605270 0.053212
O O7 0.125647 0.693664 0.219044
O O8 0.000000 0.564181 0.250000
O O9 0.000000 0.113417 0.250000
O O10 0.108589 0.134443 0.398104
O O11 0.646790 0.046098 0.398287
O O12 0.715837 0.870217 0.555319
O O13 0.809124 0.127944 0.637631
#
# Coordination Sequence:
#
# PCOD9301475 Si02
#       6
#     8   8   8   8   8   8
#     4   9  20  35  61  80 108 146 188 228 273 331
#     4  11  22  36  58  83 116 149 184 231 283 329
#     4  11  21  34  57  85 113 142 185 228 285 325
#     4   9  21  38  63  80 109 152 189 225 277 330
#     4   9  18  38  58  82 110 151 189 221 278 344
#     4   9  17  39  58  79 107 151 183 223 277 346
#
# _framework density 27.399678999999999
#
# number of rings (size 3 to 8) (size 9 to 14) (size 15 to 20)
#    0.000    2.333    3.333    2.500    2.333    1.333 
#    0.000    3.333    7.333    0.000    0.000    0.000 
#    0.000    0.000    0.000    0.000    0.000    0.000 
#
# Total GULP energy -133635.555828 kJ/mol
# GULP energy per Si atom -5568.148160 kJ/mol
# Density = 2.733732 g / cm^3
# Si number density = 27.399679 Si / 1000 Ang^3
#
#
#
# Elastic Constant Matrix: (Units=GPa)
#
#
# Indices 1 2 3 4 5 6 
#
# 1 141.9269 5.7579 32.3922 0.0000 3.5634 0.0000
# 2 5.7579 69.5084 9.5435 0.0000 -19.4792 0.0000
# 3 32.3922 9.5435 53.0561 0.0000 -1.4666 0.0000
# 4 0.0000 0.0000 0.0000 5.6491 0.0000 -9.7961
# 5 3.5634 -19.4792 -1.4666 0.0000 66.1988 0.0000
# 6 0.0000 0.0000 0.0000 -9.7961 0.0000 54.2316
#
#
#
# Elastic Compliance Matrix: (Units=1/GPa)
#
#
# Indices 1 2 3 4 5 6 
#
# 1 0.008208 -0.000162 -0.004999 0.000000 -0.000600 0.000000
# 2 -0.000162 0.016078 -0.002664 0.000000 0.004681 0.000000
# 3 -0.004999 -0.002664 0.022379 0.000000 -0.000019 0.000000
# 4 0.000000 0.000000 0.000000 0.257757 0.000000 0.046560
# 5 -0.000600 0.004681 -0.000019 0.000000 0.016515 0.000000
# 6 0.000000 0.000000 0.000000 0.046560 0.000000 0.026850
#
#
# Mechanical properties :
#
#
# Convention : Reuss Voigt Hill
#
# Bulk Modulus (GPa) = 32.24196 39.98652 36.11424
# Shear Modulus (GPa) = 13.37705 39.66910 26.52307
#
# Velocity S-wave (km/s) = 2.21197 3.80912 3.11466
# Velocity P-wave (km/s) = 4.27978 5.82849 5.11311
#
# Compressibility (1/GPa) = 0.03101548
#
# Stress axis : x y z
#
# Youngs Moduli (GPa) = 121.82596 62.19840 44.68557
#
# Poissons Ratio (x) = 0.01006 0.22338
# Poissons Ratio (y) = 0.01971 0.11903
# Poissons Ratio (z) = 0.60900 0.16568
#
# Static dielectric constant tensor:
#      x y z
#    x 2.429960 0.000000 -0.120580 
#    y 0.000000 2.178640 0.000000 
#    z -0.120580 0.000000 2.199920 
# 
# From -- ./inp_files/152030.got.cif
#   From: 2010.05.17/outbox.cif.g08.bks.cpg/sg15_77_cif.got.tgz:152030.got - 2010.06.03 18:47:42.
