data_PCOD9301402
_publ_section_title
;
Structure prediction by ZEFSAII (Michael W. Deem and Ramdas Pophale) SiO2 
 PCOD9301402
Probable space group: C 2/C
;
_chemical_formula_sum "Si O2"
_cell_formula_units_Z 60
_cell_length_a 8.499249
_cell_length_b 22.289361
_cell_length_c 17.877903
_cell_angle_alpha 90.000000
_cell_angle_beta 63.952563
_cell_angle_gamma 90.000000
_cell_volume 3042.841831
_symmetry_space_group_name_H-M "C 2/C"
_symmetry_group_IT_number 15
_symmetry_cell_setting 'monoclinic'
loop_
_space_group_symop_operation_xyz
x,y,z
-x,y,1/2-z
-x,-y,-z
x,-y,1/2+z
1/2+x,1/2+y,z
1/2-x,1/2+y,1/2-z
1/2-x,1/2-y,-z
1/2+x,1/2-y,1/2+z
loop_
_atom_site_type_symbol
_atom_site_label
_atom_site_fract_x
_atom_site_fract_y
_atom_site_fract_z
Si Si1 0.245350 0.185447 0.329752
Si Si2 0.085724 0.664778 0.046102
Si Si3 0.970558 0.863865 0.404400
Si Si4 0.500000 0.711626 0.750000
Si Si5 0.075681 0.220585 0.003097
Si Si6 0.133020 0.454621 0.928857
Si Si7 0.309269 0.938679 0.753953
Si Si8 0.004104 0.002899 0.088301
O O1 0.369894 0.167976 0.374852
O O2 0.330922 0.245701 0.281640
O O3 0.253664 0.131583 0.268881
O O4 0.055786 0.199077 0.404045
O O5 0.272695 0.649290 0.971559
O O6 0.019133 0.727730 0.026947
O O7 0.953256 0.611360 0.053697
O O8 0.999868 0.828439 0.322865
O O9 0.094127 0.836272 0.443708
O O10 0.986000 0.934137 0.388456
O O11 0.250000 0.250000 0.000000
O O12 0.173041 0.466119 0.832484
O O13 0.321861 0.460589 0.927108
O O14 0.000000 0.500000 0.000000
O O15 0.500000 0.944151 0.750000
O O16 0.165146 0.969012 0.837214
O O17 0.000000 0.000000 0.000000
#
# Coordination Sequence:
#
# PCOD9301402 Si02
#       8
#     8   8   8   4   8   8   8   8
#     4  11  21  44  69  99 136 180 230 281 355 424
#     4  11  20  43  69  97 128 181 233 273 346 433
#     4  11  24  42  69  96 132 182 224 275 350 426
#     4  12  20  40  68  94 124 170 230 274 336 420
#     4  11  24  42  67 104 136 174 230 289 353 418
#     4  12  25  43  70 100 136 185 239 290 351 423
#     4  12  25  45  70 103 140 185 241 294 351 429
#     4  12  27  47  67 102 145 186 235 293 359 424
#
# _framework density 19.718409999999999
#
# number of rings (size 3 to 8) (size 9 to 14) (size 15 to 20)
#    0.000    0.533    6.000    3.600    5.600    0.000 
#    0.000    0.667    0.000    0.000    0.000    0.000 
#    0.000    0.000    0.000    0.000    0.000    0.000 
#
# Total GULP energy -167714.522150 kJ/mol
# GULP energy per Si atom -5590.484072 kJ/mol
# Density = 1.967353 g / cm^3
# Si number density = 19.718410 Si / 1000 Ang^3
#
#
#
# Elastic Constant Matrix: (Units=GPa)
#
#
# Indices 1 2 3 4 5 6 
#
# 1 107.1408 21.0864 33.7639 0.0000 -15.6170 0.0000
# 2 21.0864 99.8444 32.5690 0.0000 -10.8399 0.0000
# 3 33.7639 32.5690 143.4477 0.0000 -11.9752 0.0000
# 4 0.0000 0.0000 0.0000 39.9450 0.0000 -4.6273
# 5 -15.6170 -10.8399 -11.9752 0.0000 24.0631 0.0000
# 6 0.0000 0.0000 0.0000 -4.6273 0.0000 37.9135
#
#
#
# Elastic Compliance Matrix: (Units=1/GPa)
#
#
# Indices 1 2 3 4 5 6 
#
# 1 0.010964 -0.001091 -0.001857 0.000000 0.005700 0.000000
# 2 -0.001091 0.011270 -0.002021 0.000000 0.003363 0.000000
# 3 -0.001857 -0.002021 0.008024 0.000000 0.001877 0.000000
# 4 0.000000 0.000000 0.000000 0.025393 0.000000 0.003099
# 5 0.005700 0.003363 0.001877 0.000000 0.047706 0.000000
# 6 0.000000 0.000000 0.000000 0.003099 0.000000 0.026754
#
#
# Mechanical properties :
#
#
# Convention : Reuss Voigt Hill
#
# Bulk Modulus (GPa) = 49.21292 58.36351 53.78821
# Shear Modulus (GPa) = 34.05420 37.91855 35.98638
#
# Velocity S-wave (km/s) = 4.16026 4.38996 4.27665
# Velocity P-wave (km/s) = 6.93463 7.44033 7.19192
#
# Compressibility (1/GPa) = 0.02031987
#
# Stress axis : x y z
#
# Youngs Moduli (GPa) = 91.20466 88.72745 124.62650
#
# Poissons Ratio (x) = 0.09679 0.23145
# Poissons Ratio (y) = 0.09950 0.25192
# Poissons Ratio (z) = 0.16938 0.17935
#
# Static dielectric constant tensor:
#      x y z
#    x 1.687520 0.000000 0.008060 
#    y 0.000000 1.714870 0.000000 
#    z 0.008060 0.000000 1.694620 
# 
# From -- ./inp_files/192535.got.cif
#   From: 2010.05.17/outbox.cif.g08.bks.cpg/sg15_97_cif.got.tgz:192535.got - 2010.06.03 18:47:42.
