data_PCOD9301999
_publ_section_title
;
Structure prediction by ZEFSAII (Michael W. Deem and Ramdas Pophale) SiO2 
 PCOD9301999
Probable space group: C 2/C
;
_chemical_formula_sum "Si O2"
_cell_formula_units_Z 48
_cell_length_a 12.867147
_cell_length_b 24.298515
_cell_length_c 10.466483
_cell_angle_alpha 90.000000
_cell_angle_beta 130.937427
_cell_angle_gamma 90.000000
_cell_volume 2472.034198
_symmetry_space_group_name_H-M "C 2/C"
_symmetry_group_IT_number 15
_symmetry_cell_setting 'monoclinic'
loop_
_space_group_symop_operation_xyz
x,y,z
-x,y,1/2-z
-x,-y,-z
x,-y,1/2+z
1/2+x,1/2+y,z
1/2-x,1/2+y,1/2-z
1/2-x,1/2-y,-z
1/2+x,1/2-y,1/2+z
loop_
_atom_site_type_symbol
_atom_site_label
_atom_site_fract_x
_atom_site_fract_y
_atom_site_fract_z
Si Si1 0.143157 0.459620 0.801093
Si Si2 0.920751 0.388178 0.998188
Si Si3 0.892684 0.734752 0.547178
Si Si4 0.930998 0.159613 0.906839
Si Si5 0.786497 0.579670 0.652037
Si Si6 0.138568 0.886098 0.404100
O O1 0.110673 0.421208 0.654909
O O2 0.222679 0.514971 0.826904
O O3 0.000000 0.477307 0.750000
O O4 0.232137 0.423801 0.971319
O O5 0.890385 0.323288 0.972405
O O6 0.827355 0.412177 0.037406
O O7 0.080701 0.396976 0.164928
O O8 0.750000 0.750000 0.500000
O O9 0.928405 0.783708 0.479170
O O10 0.000000 0.729600 0.750000
O O11 0.848377 0.113912 0.920443
O O12 0.854188 0.157733 0.705863
O O13 0.085654 0.142027 0.991907
O O14 0.000000 0.919431 0.250000
#
# Coordination Sequence:
#
# PCOD9301999 Si02
#       6
#     8   8   8   8   8   8
#     4  12  24  39  69  93 127 169 216 260 314 383
#     4  11  23  38  61 103 124 162 215 258 325 364
#     4  12  23  40  68  92 126 165 209 266 314 371
#     4   9  21  42  64  84 134 165 209 257 319 374
#     4  11  21  41  64  95 128 168 203 275 312 371
#     4   8  23  43  61  88 131 171 203 257 322 380
#
# _framework density 19.417207000000001
#
# number of rings (size 3 to 8) (size 9 to 14) (size 15 to 20)
#    1.000    0.333    5.000    1.500    4.667    0.667 
#    3.000    1.667    0.000    0.000    0.000    0.000 
#    0.000    0.000    0.000    0.000    0.000    0.000 
#
# Total GULP energy -133823.724085 kJ/mol
# GULP energy per Si atom -5575.988504 kJ/mol
# Density = 1.937301 g / cm^3
# Si number density = 19.417207 Si / 1000 Ang^3
#
#
#
# Elastic Constant Matrix: (Units=GPa)
#
#
# Indices 1 2 3 4 5 6 
#
# 1 57.5723 21.7131 0.0819 0.0000 -13.1038 0.0000
# 2 21.7131 141.3530 21.1358 0.0000 -14.0679 0.0000
# 3 0.0819 21.1358 42.2133 0.0000 -9.0706 0.0000
# 4 0.0000 0.0000 0.0000 14.9449 0.0000 13.1630
# 5 -13.1038 -14.0679 -9.0706 0.0000 14.8298 0.0000
# 6 0.0000 0.0000 0.0000 13.1630 0.0000 -1.7064
#
#
#
# Elastic Compliance Matrix: (Units=1/GPa)
#
#
# Indices 1 2 3 4 5 6 
#
# 1 0.023194 -0.002248 0.005787 0.000000 0.021901 0.000000
# 2 -0.002248 0.008300 -0.003323 0.000000 0.003855 0.000000
# 3 0.005787 -0.003323 0.029662 0.000000 0.020103 0.000000
# 4 0.000000 0.000000 0.000000 0.008585 0.000000 0.066223
# 5 0.021901 0.003855 0.020103 0.000000 0.102736 0.000000
# 6 0.000000 0.000000 0.000000 0.066223 0.000000 -0.075188
#
#
# Mechanical properties :
#
#
# Convention : Reuss Voigt Hill
#
# Bulk Modulus (GPa) = 16.23745 36.33334 26.28539
# Shear Modulus (GPa) = 42.59395 18.82751 30.71073
#
# Velocity S-wave (km/s) = 4.68869 3.11727 3.98128
# Velocity P-wave (km/s) = 6.13941 5.63108 5.89073
#
# Compressibility (1/GPa) = 0.06158603
#
# Stress axis : x y z
#
# Youngs Moduli (GPa) = 43.11457 120.47613 33.71363
#
# Poissons Ratio (x) = 0.27088 -0.19509
# Poissons Ratio (y) = 0.09694 0.11204
# Poissons Ratio (z) = -0.24949 0.40038
#
# Static dielectric constant tensor:
#      x y z
#    x 1.695920 0.000000 -0.012050 
#    y 0.000000 1.669940 0.000000 
#    z -0.012050 0.000000 1.691150 
# 
# From -- ./inp_files/89161.got.cif
#   From: 2010.05.17/outbox.cif.g08.bks.cpg/sg15_45_cif.got.tgz:89161.got - 2010.06.03 18:47:42.
