data_PCOD9301196
_publ_section_title
;
Structure prediction by ZEFSAII (Michael W. Deem and Ramdas Pophale) SiO2 
 PCOD9301196
Probable space group: C 2/C
;
_chemical_formula_sum "Si O2"
_cell_formula_units_Z 52
_cell_length_a 20.082906
_cell_length_b 19.016411
_cell_length_c 13.271134
_cell_angle_alpha 90.000000
_cell_angle_beta 28.061685
_cell_angle_gamma 90.000000
_cell_volume 2384.243767
_symmetry_space_group_name_H-M "C 2/C"
_symmetry_group_IT_number 15
_symmetry_cell_setting 'monoclinic'
loop_
_space_group_symop_operation_xyz
x,y,z
-x,y,1/2-z
-x,-y,-z
x,-y,1/2+z
1/2+x,1/2+y,z
1/2-x,1/2+y,1/2-z
1/2-x,1/2-y,-z
1/2+x,1/2-y,1/2+z
loop_
_atom_site_type_symbol
_atom_site_label
_atom_site_fract_x
_atom_site_fract_y
_atom_site_fract_z
Si Si1 0.856236 0.958762 0.000244
Si Si2 0.773954 0.743359 0.206285
Si Si3 0.758539 0.489314 0.554276
Si Si4 0.816871 0.129970 0.757007
Si Si5 0.000000 0.597412 0.750000
Si Si6 0.374030 0.402747 0.606546
Si Si7 0.603072 0.221060 0.745227
O O1 0.745448 0.969034 0.056964
O O2 0.000000 0.936947 0.750000
O O3 0.819010 0.906023 0.141351
O O4 0.872840 0.036736 0.024699
O O5 0.758608 0.791691 0.324811
O O6 0.739562 0.660159 0.255224
O O7 0.655724 0.774738 0.288748
O O8 0.942238 0.753162 0.950144
O O9 0.755955 0.571755 0.576082
O O10 0.886524 0.455541 0.445797
O O11 0.633957 0.447455 0.778166
O O12 0.974948 0.133997 0.588528
O O13 0.077539 0.647407 0.724975
O O14 0.750000 0.250000 0.500000
#
# Coordination Sequence:
#
# PCOD9301196 Si02
#       7
#     8   8   8   8   4   8   8
#     4  11  20  38  70  94 117 166 220 261 321 385
#     4  12  24  40  62  95 132 169 216 263 327 388
#     4  11  22  43  61  92 128 167 213 273 317 383
#     4  11  23  39  66  94 129 166 217 268 325 385
#     4  12  24  40  62  94 134 166 212 270 328 388
#     4  11  21  41  65  94 130 170 211 274 321 385
#     4  12  22  39  62  93 132 171 207 262 331 389
#
# _framework density 21.809850000000001
#
# number of rings (size 3 to 8) (size 9 to 14) (size 15 to 20)
#    0.000    0.615    7.692    1.846    0.000    1.231 
#    2.769    3.077    1.692    0.000    0.000    0.000 
#    0.000    0.000    0.000    0.000    0.000    0.000 
#
# Total GULP energy -144792.522139 kJ/mol
# GULP energy per Si atom -5568.943159 kJ/mol
# Density = 2.176021 g / cm^3
# Si number density = 21.809850 Si / 1000 Ang^3
#
#
#
# Elastic Constant Matrix: (Units=GPa)
#
#
# Indices 1 2 3 4 5 6 
#
# 1 85.3290 30.0838 16.7796 0.0002 -16.6641 -0.0001
# 2 30.0838 99.9071 16.2039 0.0003 -21.5135 -0.0001
# 3 16.7796 16.2039 40.4518 0.0005 -23.2254 -0.0001
# 4 0.0002 0.0003 0.0005 22.0189 0.0000 -20.9082
# 5 -16.6641 -21.5135 -23.2254 0.0000 21.9488 0.0000
# 6 -0.0001 -0.0001 -0.0001 -20.9082 0.0000 26.1007
#
#
#
# Elastic Compliance Matrix: (Units=1/GPa)
#
#
# Indices 1 2 3 4 5 6 
#
# 1 0.014230 -0.002505 -0.000270 0.000000 0.008063 0.000000
# 2 -0.002505 0.013580 0.005478 -0.000001 0.017205 0.000000
# 3 -0.000270 0.005478 0.065239 -0.000005 0.074198 -0.000003
# 4 0.000000 -0.000001 -0.000005 0.189749 -0.000005 0.152001
# 5 0.008063 0.017205 0.074198 -0.000005 0.147060 -0.000003
# 6 0.000000 0.000000 -0.000003 0.152001 -0.000003 0.160075
#
#
# Mechanical properties :
#
#
# Convention : Reuss Voigt Hill
#
# Bulk Modulus (GPa) = 10.15691 39.09140 24.62416
# Shear Modulus (GPa) = 8.09916 24.85505 16.47711
#
# Velocity S-wave (km/s) = 1.92914 3.37950 2.75160
# Velocity P-wave (km/s) = 3.10311 5.76113 4.62709
#
# Compressibility (1/GPa) = 0.09845513
#
# Stress axis : x y z
#
# Youngs Moduli (GPa) = 70.27305 73.63745 15.32815
#
# Poissons Ratio (x) = 0.18446 0.00414
# Poissons Ratio (y) = 0.17603 -0.08396
# Poissons Ratio (z) = 0.01897 -0.40336
#
# Static dielectric constant tensor:
#      x y z
#    x 1.827200 0.000000 -0.008940 
#    y 0.000000 1.842250 0.000000 
#    z -0.008940 0.000000 1.987260 
# 
# From -- ./inp_files/168980.got.cif
#   From: 2010.05.17/outbox.cif.g08.bks.cpg/sg15_85_cif.got.tgz:168980.got - 2010.06.03 18:47:42.
