data_PCOD9301861
_publ_section_title
;
Structure prediction by ZEFSAII (Michael W. Deem and Ramdas Pophale) SiO2 
 PCOD9301861
Probable space group: C 2/C
;
_chemical_formula_sum "Si O2"
_cell_formula_units_Z 40
_cell_length_a 14.065195
_cell_length_b 13.025425
_cell_length_c 10.429703
_cell_angle_alpha 90.000000
_cell_angle_beta 72.700656
_cell_angle_gamma 90.000000
_cell_volume 1824.339787
_symmetry_space_group_name_H-M "C 2/C"
_symmetry_group_IT_number 15
_symmetry_cell_setting 'monoclinic'
loop_
_space_group_symop_operation_xyz
x,y,z
-x,y,1/2-z
-x,-y,-z
x,-y,1/2+z
1/2+x,1/2+y,z
1/2-x,1/2+y,1/2-z
1/2-x,1/2-y,-z
1/2+x,1/2-y,1/2+z
loop_
_atom_site_type_symbol
_atom_site_label
_atom_site_fract_x
_atom_site_fract_y
_atom_site_fract_z
Si Si1 0.878197 0.424784 0.814159
Si Si2 0.899495 0.566440 0.025361
Si Si3 0.068699 0.005560 0.097595
Si Si4 0.346845 0.288367 0.032810
Si Si5 0.879586 0.196763 0.814182
O O1 0.849032 0.514337 0.922818
O O2 0.841225 0.441098 0.683476
O O3 0.849627 0.310603 0.872277
O O4 0.000000 0.426160 0.750000
O O5 0.919041 0.687865 0.999873
O O6 0.000000 0.500000 0.000000
O O7 0.000000 0.011179 0.250000
O O8 0.121986 0.112647 0.057656
O O9 0.865608 0.902590 0.408731
O O10 0.000000 0.000000 0.000000
O O11 0.250000 0.250000 0.000000
O O12 0.336846 0.315901 0.187449
O O13 0.000000 0.202710 0.750000
#
# Coordination Sequence:
#
# PCOD9301861 Si02
#       5
#     8   8   8   8   8
#     4   8  15  29  52  79 109 147 192 249 292 345
#     4   9  18  33  56  83 116 156 202 243 304 373
#     4  11  21  39  70  94 122 175 230 262 310 401
#     4  11  23  41  61  96 135 166 204 279 336 373
#     4   9  17  37  62  85 122 169 210 250 322 378
#
# _framework density 21.925739
#
# number of rings (size 3 to 8) (size 9 to 14) (size 15 to 20)
#    0.000    2.400    4.000    1.200    0.000    2.400 
#    7.200    0.000    0.000    2.400    0.000    0.000 
#    0.000    0.000    0.000    0.000    0.000    0.000 
#
# Total GULP energy -111534.970200 kJ/mol
# GULP energy per Si atom -5576.748510 kJ/mol
# Density = 2.187584 g / cm^3
# Si number density = 21.925739 Si / 1000 Ang^3
#
#
#
# Elastic Constant Matrix: (Units=GPa)
#
#
# Indices 1 2 3 4 5 6 
#
# 1 56.3131 17.8532 22.8219 0.0000 15.7608 0.0000
# 2 17.8532 218.6173 83.2279 0.0000 7.1192 0.0000
# 3 22.8219 83.2279 113.2319 0.0000 39.5383 0.0000
# 4 0.0000 0.0000 0.0000 50.0068 0.0000 6.8547
# 5 15.7608 7.1192 39.5383 0.0000 26.9987 0.0000
# 6 0.0000 0.0000 0.0000 6.8547 0.0000 29.2571
#
#
#
# Elastic Compliance Matrix: (Units=1/GPa)
#
#
# Indices 1 2 3 4 5 6 
#
# 1 0.021987 -0.002552 0.003461 0.000000 -0.017230 0.000000
# 2 -0.002552 0.008564 -0.011281 0.000000 0.015751 0.000000
# 3 0.003461 -0.011281 0.032932 0.000000 -0.047274 0.000000
# 4 0.000000 0.000000 0.000000 0.020661 0.000000 -0.004841
# 5 -0.017230 0.015751 -0.047274 0.000000 0.112174 0.000000
# 6 0.000000 0.000000 0.000000 -0.004841 0.000000 0.035314
#
#
# Mechanical properties :
#
#
# Convention : Reuss Voigt Hill
#
# Bulk Modulus (GPa) = 23.39744 70.66316 47.03030
# Shear Modulus (GPa) = 18.75316 38.86981 28.81148
#
# Velocity S-wave (km/s) = 2.92773 4.21502 3.62891
# Velocity P-wave (km/s) = 4.70353 7.48244 6.24940
#
# Compressibility (1/GPa) = 0.04273972
#
# Stress axis : x y z
#
# Youngs Moduli (GPa) = 45.48203 116.76517 30.36522
#
# Poissons Ratio (x) = 0.29798 -0.10509
# Poissons Ratio (y) = 0.11607 0.34254
# Poissons Ratio (z) = -0.15740 1.31718
#
# Static dielectric constant tensor:
#      x y z
#    x 1.841460 0.000000 0.031300 
#    y 0.000000 1.453500 0.000000 
#    z 0.031300 0.000000 1.834460 
# 
# From -- ./inp_files/94524.got.cif
#   From: 2010.05.17/outbox.cif.g08.bks.cpg/sg15_48_cif.got.tgz:94524.got - 2010.06.03 18:47:42.
