data_PCOD9301693
_publ_section_title
;
Structure prediction by ZEFSAII (Michael W. Deem and Ramdas Pophale) SiO2 
 PCOD9301693
Probable space group: C 2/C
;
_chemical_formula_sum "Si O2"
_cell_formula_units_Z 60
_cell_length_a 13.310982
_cell_length_b 13.621666
_cell_length_c 19.730484
_cell_angle_alpha 90.000000
_cell_angle_beta 68.811427
_cell_angle_gamma 90.000000
_cell_volume 3335.634213
_symmetry_space_group_name_H-M "C 2/C"
_symmetry_group_IT_number 15
_symmetry_cell_setting 'monoclinic'
loop_
_space_group_symop_operation_xyz
x,y,z
-x,y,1/2-z
-x,-y,-z
x,-y,1/2+z
1/2+x,1/2+y,z
1/2-x,1/2+y,1/2-z
1/2-x,1/2-y,-z
1/2+x,1/2-y,1/2+z
loop_
_atom_site_type_symbol
_atom_site_label
_atom_site_fract_x
_atom_site_fract_y
_atom_site_fract_z
Si Si1 0.898553 0.304844 0.586203
Si Si2 0.802534 0.772282 0.697501
Si Si3 0.147841 0.132087 0.801004
Si Si4 0.681345 0.976871 0.701868
Si Si5 0.352591 0.677844 0.335940
Si Si6 0.016194 0.294488 0.082587
Si Si7 0.500000 0.506739 0.250000
Si Si8 0.498093 0.013955 0.137371
O O1 0.902048 0.214554 0.638165
O O2 0.772801 0.336519 0.615943
O O3 0.936805 0.274328 0.502739
O O4 0.969406 0.394967 0.596486
O O5 0.711139 0.689692 0.725957
O O6 0.854374 0.774199 0.760443
O O7 0.896708 0.748625 0.622552
O O8 0.747069 0.876834 0.698357
O O9 0.235117 0.066595 0.819914
O O10 0.062923 0.060027 0.787908
O O11 0.600236 0.993154 0.784747
O O12 0.606346 0.969273 0.654379
O O13 0.409227 0.745503 0.377820
O O14 0.417004 0.577008 0.310087
O O15 0.009366 0.411072 0.096427
#
# Coordination Sequence:
#
# PCOD9301693 Si02
#       8
#     8   8   8   8   8   8   4   8
#     4  11  25  41  58  93 133 160 202 246 320 373
#     4  11  21  38  62  87 123 150 214 253 302 360
#     4  11  22  39  63  92 119 163 201 261 308 365
#     4  11  21  38  63  93 115 157 213 261 299 357
#     4  11  21  41  63  93 118 159 207 261 293 366
#     4  12  23  40  64  90 125 167 200 255 309 372
#     4  12  22  38  70  92 118 152 220 256 308 362
#     4  11  22  37  63  90 122 160 207 256 305 359
#
# _framework density 17.987583999999998
#
# number of rings (size 3 to 8) (size 9 to 14) (size 15 to 20)
#    0.000    0.800    6.667    2.400    3.733    0.000 
#    0.000    4.667    0.000    0.000    0.000    0.000 
#    0.000    0.000    0.000    0.000    0.000    0.000 
#
# Total GULP energy -167651.315753 kJ/mol
# GULP energy per Si atom -5588.377192 kJ/mol
# Density = 1.794664 g / cm^3
# Si number density = 17.987584 Si / 1000 Ang^3
#
#
#
# Elastic Constant Matrix: (Units=GPa)
#
#
# Indices 1 2 3 4 5 6 
#
# 1 85.4801 62.1941 49.6524 0.0000 -1.6842 0.0000
# 2 62.1941 124.9287 32.7146 0.0000 1.5883 0.0000
# 3 49.6524 32.7146 86.2274 0.0000 -16.8399 0.0000
# 4 0.0000 0.0000 0.0000 13.8035 0.0000 1.0324
# 5 -1.6842 1.5883 -16.8399 0.0000 18.0749 0.0000
# 6 0.0000 0.0000 0.0000 1.0324 0.0000 35.0706
#
#
#
# Elastic Compliance Matrix: (Units=1/GPa)
#
#
# Indices 1 2 3 4 5 6 
#
# 1 0.025996 -0.009377 -0.013175 0.000000 -0.009029 0.000000
# 2 -0.009377 0.012623 0.000273 0.000000 -0.001729 0.000000
# 3 -0.013175 0.000273 0.023026 0.000000 0.020201 0.000000
# 4 0.000000 0.000000 0.000000 0.072605 0.000000 -0.002137
# 5 -0.009029 -0.001729 0.020201 0.000000 0.073456 0.000000
# 6 0.000000 0.000000 0.000000 -0.002137 0.000000 0.028577
#
#
# Mechanical properties :
#
#
# Convention : Reuss Voigt Hill
#
# Bulk Modulus (GPa) = 58.52660 65.08427 61.80544
# Shear Modulus (GPa) = 17.44970 23.52814 20.48892
#
# Velocity S-wave (km/s) = 3.11802 3.62058 3.37866
# Velocity P-wave (km/s) = 6.75060 7.33073 7.04664
#
# Compressibility (1/GPa) = 0.01708625
#
# Stress axis : x y z
#
# Youngs Moduli (GPa) = 38.46710 79.21818 43.42998
#
# Poissons Ratio (x) = 0.74283 0.57219
# Poissons Ratio (y) = 0.36071 -0.01184
# Poissons Ratio (z) = 0.50681 -0.02160
#
# Static dielectric constant tensor:
#      x y z
#    x 1.626880 0.000000 -0.004540 
#    y 0.000000 1.616480 0.000000 
#    z -0.004540 0.000000 1.589230 
# 
# From -- ./inp_files/204420.got.cif
#   From: 2010.05.17/outbox.cif.g08.bks.cpg/sg15_103_cif.got.tgz:204420.got - 2010.06.03 18:47:42.
