data_PCOD9301823
_publ_section_title
;
Structure prediction by ZEFSAII (Michael W. Deem and Ramdas Pophale) SiO2 
 PCOD9301823
Probable space group: C 2/C
;
_chemical_formula_sum "Si O2"
_cell_formula_units_Z 52
_cell_length_a 11.351458
_cell_length_b 14.988228
_cell_length_c 15.258179
_cell_angle_alpha 90.000000
_cell_angle_beta 112.740051
_cell_angle_gamma 90.000000
_cell_volume 2394.207758
_symmetry_space_group_name_H-M "C 2/C"
_symmetry_group_IT_number 15
_symmetry_cell_setting 'monoclinic'
loop_
_space_group_symop_operation_xyz
x,y,z
-x,y,1/2-z
-x,-y,-z
x,-y,1/2+z
1/2+x,1/2+y,z
1/2-x,1/2+y,1/2-z
1/2-x,1/2-y,-z
1/2+x,1/2-y,1/2+z
loop_
_atom_site_type_symbol
_atom_site_label
_atom_site_fract_x
_atom_site_fract_y
_atom_site_fract_z
Si Si1 0.286343 0.959389 0.812945
Si Si2 0.864833 0.206600 0.259764
Si Si3 0.608791 0.782400 0.941403
Si Si4 0.103018 0.369691 0.114327
Si Si5 0.668651 0.885727 0.479056
Si Si6 0.000000 0.377380 0.750000
Si Si7 0.146219 0.207352 0.574376
O O1 0.171502 0.897663 0.744404
O O2 0.405201 0.929257 0.787286
O O3 0.287508 0.066284 0.816324
O O4 0.304952 0.933507 0.921252
O O5 0.876361 0.269008 0.347489
O O6 0.749494 0.251585 0.171349
O O7 0.000000 0.214825 0.250000
O O8 0.587512 0.817403 0.838079
O O9 0.495587 0.710649 0.926956
O O10 0.750000 0.750000 0.000000
O O11 0.593692 0.863879 0.006519
O O12 0.965619 0.410656 0.103551
O O13 0.790391 0.880147 0.450181
O O14 0.639213 0.782682 0.496637
#
# Coordination Sequence:
#
# PCOD9301823 Si02
#       7
#     8   8   8   8   8   4   8
#     4  11  24  39  63  98 137 176 230 298 343 417
#     4  11  21  39  66  98 133 174 235 292 347 411
#     4  11  24  41  67  97 140 191 225 277 355 431
#     4  11  22  40  66  98 130 186 229 279 356 412
#     4   9  17  35  62  92 126 165 222 284 338 393
#     4  12  22  40  60  98 140 176 228 286 340 420
#     4   9  18  36  61  98 124 172 228 286 326 408
#
# _framework density 21.719085
#
# number of rings (size 3 to 8) (size 9 to 14) (size 15 to 20)
#    0.000    1.538    6.154    1.385    3.231    0.000 
#    0.000    1.538    0.000    0.923    0.000    3.231 
#    0.000    0.000    0.000    0.000    0.000    0.000 
#
# Total GULP energy -144922.285330 kJ/mol
# GULP energy per Si atom -5573.934051 kJ/mol
# Density = 2.166965 g / cm^3
# Si number density = 21.719085 Si / 1000 Ang^3
#
#
#
# Elastic Constant Matrix: (Units=GPa)
#
#
# Indices 1 2 3 4 5 6 
#
# 1 121.9723 17.2344 27.9639 0.0000 12.1215 0.0000
# 2 17.2344 64.9524 27.4368 0.0000 2.7759 0.0000
# 3 27.9639 27.4368 95.3082 0.0000 14.9353 0.0000
# 4 0.0000 0.0000 0.0000 19.4694 0.0000 13.6605
# 5 12.1215 2.7759 14.9353 0.0000 29.8724 0.0000
# 6 0.0000 0.0000 0.0000 13.6605 0.0000 10.8460
#
#
#
# Elastic Compliance Matrix: (Units=1/GPa)
#
#
# Indices 1 2 3 4 5 6 
#
# 1 0.009093 -0.001534 -0.001812 0.000000 -0.002641 0.000000
# 2 -0.001534 0.017812 -0.004899 0.000000 0.001417 0.000000
# 3 -0.001812 -0.004899 0.013289 0.000000 -0.005453 0.000000
# 4 0.000000 0.000000 0.000000 0.441676 0.000000 -0.556288
# 5 -0.002641 0.001417 -0.005453 0.000000 0.037142 0.000000
# 6 0.000000 0.000000 0.000000 -0.556288 0.000000 0.792840
#
#
# Mechanical properties :
#
#
# Convention : Reuss Voigt Hill
#
# Bulk Modulus (GPa) = 42.19068 47.50032 44.84550
# Shear Modulus (GPa) = 3.74183 26.01077 14.87630
#
# Velocity S-wave (km/s) = 1.31399 3.46439 2.61998
# Velocity P-wave (km/s) = 4.66582 6.15796 5.46307
#
# Compressibility (1/GPa) = 0.02370192
#
# Stress axis : x y z
#
# Youngs Moduli (GPa) = 109.96996 56.14170 75.24979
#
# Poissons Ratio (x) = 0.08614 0.13639
# Poissons Ratio (y) = 0.16873 0.36869
# Poissons Ratio (z) = 0.19932 0.27507
#
# Static dielectric constant tensor:
#      x y z
#    x 1.947220 0.000000 -0.020530 
#    y 0.000000 1.848640 0.000000 
#    z -0.020530 0.000000 1.811210 
# 
# From -- ./inp_files/144314.got.cif
#   From: 2010.05.17/outbox.cif.g08.bks.cpg/sg15_73_cif.got.tgz:144314.got - 2010.06.03 18:47:42.
