data_PCOD9301697
_publ_section_title
;
Structure prediction by ZEFSAII (Michael W. Deem and Ramdas Pophale) SiO2 
 PCOD9301697
Probable space group: C 2/C
;
_chemical_formula_sum "Si O2"
_cell_formula_units_Z 40
_cell_length_a 22.519211
_cell_length_b 5.423860
_cell_length_c 17.454323
_cell_angle_alpha 90.000000
_cell_angle_beta 108.125820
_cell_angle_gamma 90.000000
_cell_volume 2026.095637
_symmetry_space_group_name_H-M "C 2/C"
_symmetry_group_IT_number 15
_symmetry_cell_setting 'monoclinic'
loop_
_space_group_symop_operation_xyz
x,y,z
-x,y,1/2-z
-x,-y,-z
x,-y,1/2+z
1/2+x,1/2+y,z
1/2-x,1/2+y,1/2-z
1/2-x,1/2-y,-z
1/2+x,1/2-y,1/2+z
loop_
_atom_site_type_symbol
_atom_site_label
_atom_site_fract_x
_atom_site_fract_y
_atom_site_fract_z
Si Si1 0.843228 0.096980 0.334951
Si Si2 0.363725 0.054654 0.142480
Si Si3 0.298399 0.108293 0.964884
Si Si4 0.754340 0.721913 0.663794
Si Si5 0.926588 0.057749 0.231711
O O1 0.817406 0.828453 0.344801
O O2 0.906872 0.085010 0.313391
O O3 0.832197 0.252435 0.407485
O O4 0.792072 0.177923 0.250852
O O5 0.295673 0.011275 0.154349
O O6 0.403046 0.814478 0.184595
O O7 0.392352 0.314928 0.182278
O O8 0.352006 0.035628 0.047012
O O9 0.253340 0.902534 0.910199
O O10 0.250000 0.250000 0.000000
O O11 0.000000 0.029286 0.250000
#
# Coordination Sequence:
#
# PCOD9301697 Si02
#       5
#     8   8   8   8   8
#     4  11  22  36  65  93 130 172 212 260 320 396
#     4  11  24  42  68  97 129 169 216 273 330 381
#     4  12  23  37  60 104 140 165 200 269 341 396
#     4  11  21  38  62  98 134 164 209 258 335 397
#     4  11  26  48  68  89 126 180 232 268 310 381
#
# _framework density 19.742405999999999
#
# number of rings (size 3 to 8) (size 9 to 14) (size 15 to 20)
#    0.000    0.800    4.000    4.800    5.600    0.000 
#    0.000    2.000    0.000    0.000    0.000    0.000 
#    0.000    0.000    0.000    0.000    0.000    0.000 
#
# Total GULP energy -111475.857697 kJ/mol
# GULP energy per Si atom -5573.792885 kJ/mol
# Density = 1.969747 g / cm^3
# Si number density = 19.742406 Si / 1000 Ang^3
#
#
#
# Elastic Constant Matrix: (Units=GPa)
#
#
# Indices 1 2 3 4 5 6 
#
# 1 145.3044 40.8979 48.8985 0.0000 -18.8154 0.0000
# 2 40.8979 96.0562 47.7385 0.0000 -6.7250 0.0000
# 3 48.8985 47.7385 126.0396 0.0000 -21.1137 0.0000
# 4 0.0000 0.0000 0.0000 44.0824 0.0000 2.8166
# 5 -18.8154 -6.7250 -21.1137 0.0000 15.3302 0.0000
# 6 0.0000 0.0000 0.0000 2.8166 0.0000 24.4093
#
#
#
# Elastic Compliance Matrix: (Units=1/GPa)
#
#
# Indices 1 2 3 4 5 6 
#
# 1 0.009120 -0.002756 -0.001068 0.000000 0.008513 0.000000
# 2 -0.002756 0.013680 -0.004775 0.000000 -0.003958 0.000000
# 3 -0.001068 -0.004775 0.012462 0.000000 0.013757 0.000000
# 4 0.000000 0.000000 0.000000 0.022853 0.000000 -0.002637
# 5 0.008513 -0.003958 0.013757 0.000000 0.092890 0.000000
# 6 0.000000 0.000000 0.000000 -0.002637 0.000000 0.041272
#
#
# Mechanical properties :
#
#
# Convention : Reuss Voigt Hill
#
# Bulk Modulus (GPa) = 55.36357 71.38556 63.37457
# Shear Modulus (GPa) = 23.20225 32.08874 27.64550
#
# Velocity S-wave (km/s) = 3.43191 4.03596 3.74613
# Velocity P-wave (km/s) = 6.61875 7.61286 7.13314
#
# Compressibility (1/GPa) = 0.01806242
#
# Stress axis : x y z
#
# Youngs Moduli (GPa) = 109.65407 73.09875 80.24611
#
# Poissons Ratio (x) = 0.20146 0.08572
# Poissons Ratio (y) = 0.30221 0.38320
# Poissons Ratio (z) = 0.11713 0.34907
#
# Static dielectric constant tensor:
#      x y z
#    x 1.713740 0.000000 -0.030910 
#    y 0.000000 1.821850 0.000000 
#    z -0.030910 0.000000 1.775370 
# 
# From -- ./inp_files/170502.got.cif
#   From: 2010.05.17/outbox.cif.g08.bks.cpg/sg15_86_cif.got.tgz:170502.got - 2010.06.03 18:47:42.
