data_PCOD9301519
_publ_section_title
;
Structure prediction by ZEFSAII (Michael W. Deem and Ramdas Pophale) SiO2 
 PCOD9301519
Probable space group: C 2/C
;
_chemical_formula_sum "Si O2"
_cell_formula_units_Z 48
_cell_length_a 12.981321
_cell_length_b 23.771008
_cell_length_c 10.898913
_cell_angle_alpha 90.000000
_cell_angle_beta 129.793978
_cell_angle_gamma 90.000000
_cell_volume 2584.099426
_symmetry_space_group_name_H-M "C 2/C"
_symmetry_group_IT_number 15
_symmetry_cell_setting 'monoclinic'
loop_
_space_group_symop_operation_xyz
x,y,z
-x,y,1/2-z
-x,-y,-z
x,-y,1/2+z
1/2+x,1/2+y,z
1/2-x,1/2+y,1/2-z
1/2-x,1/2-y,-z
1/2+x,1/2-y,1/2+z
loop_
_atom_site_type_symbol
_atom_site_label
_atom_site_fract_x
_atom_site_fract_y
_atom_site_fract_z
Si Si1 0.850718 0.263947 0.189976
Si Si2 0.733065 0.445787 0.410119
Si Si3 0.971726 0.940455 0.042306
Si Si4 0.326465 0.928264 0.011302
Si Si5 0.100411 0.854335 0.712582
Si Si6 0.129094 0.386633 0.195119
O O1 0.851728 0.209014 0.277260
O O2 0.828408 0.322717 0.241763
O O3 0.000000 0.270925 0.250000
O O4 0.750000 0.250000 0.000000
O O5 0.596357 0.438753 0.229033
O O6 0.673490 0.438689 0.501281
O O7 0.802008 0.507047 0.457300
O O8 0.830065 0.403863 0.410947
O O9 0.970968 0.888300 0.949293
O O10 0.000000 0.000000 0.000000
O O11 0.221376 0.891756 0.855273
O O12 0.472207 0.902238 0.092929
O O13 0.304249 0.921795 0.141369
O O14 0.000000 0.849196 0.750000
#
# Coordination Sequence:
#
# PCOD9301519 Si02
#       6
#     8   8   8   8   8   8
#     4  11  21  38  62  93 122 157 211 257 303 358
#     4  11  23  37  59  86 121 163 193 251 320 367
#     4  11  22  38  59  88 119 152 210 254 303 378
#     4  11  21  37  58  87 123 156 199 251 308 369
#     4  11  21  35  62  90 115 156 205 259 307 348
#     4  11  22  40  58  89 124 159 203 250 306 374
#
# _framework density 18.575136000000001
#
# number of rings (size 3 to 8) (size 9 to 14) (size 15 to 20)
#    0.000    1.000    5.000    3.500    2.333    0.000 
#    0.000    0.833    0.000    0.000    0.000    0.000 
#    0.000    0.000    0.000    0.000    0.000    0.000 
#
# Total GULP energy -133780.215336 kJ/mol
# GULP energy per Si atom -5574.175639 kJ/mol
# Density = 1.853286 g / cm^3
# Si number density = 18.575136 Si / 1000 Ang^3
#
#
#
# Elastic Constant Matrix: (Units=GPa)
#
#
# Indices 1 2 3 4 5 6 
#
# 1 87.7695 32.1462 4.7667 0.0000 -7.9955 0.0000
# 2 32.1462 163.1372 37.5943 0.0000 -15.6435 0.0000
# 3 4.7667 37.5943 63.6103 0.0000 5.5267 0.0000
# 4 0.0000 0.0000 0.0000 33.6611 0.0000 -9.2831
# 5 -7.9955 -15.6435 5.5267 0.0000 24.2463 0.0000
# 6 0.0000 0.0000 0.0000 -9.2831 0.0000 13.4972
#
#
#
# Elastic Compliance Matrix: (Units=1/GPa)
#
#
# Indices 1 2 3 4 5 6 
#
# 1 0.012443 -0.002238 0.000162 0.000000 0.002622 0.000000
# 2 -0.002238 0.008347 -0.005274 0.000000 0.005850 0.000000
# 3 0.000162 -0.005274 0.019503 0.000000 -0.007794 0.000000
# 4 0.000000 0.000000 0.000000 0.036662 0.000000 0.025215
# 5 0.002622 0.005850 -0.007794 0.000000 0.047659 0.000000
# 6 0.000000 0.000000 0.000000 0.025215 0.000000 0.091432
#
#
# Mechanical properties :
#
#
# Convention : Reuss Voigt Hill
#
# Bulk Modulus (GPa) = 39.07123 51.50347 45.28735
# Shear Modulus (GPa) = 20.89643 30.28159 25.58901
#
# Velocity S-wave (km/s) = 3.35769 4.04198 3.71562
# Velocity P-wave (km/s) = 6.00932 7.04065 6.54533
#
# Compressibility (1/GPa) = 0.02559428
#
# Stress axis : x y z
#
# Youngs Moduli (GPa) = 80.36522 119.80359 51.27533
#
# Poissons Ratio (x) = 0.26810 -0.00832
# Poissons Ratio (y) = 0.17985 0.27041
# Poissons Ratio (z) = -0.01304 0.63181
#
# Static dielectric constant tensor:
#      x y z
#    x 1.575720 0.000000 -0.090910 
#    y 0.000000 1.668280 0.000000 
#    z -0.090910 0.000000 1.617680 
# 
# From -- ./inp_files/100058.got.cif
#   From: 2010.05.17/outbox.cif.g08.bks.cpg/sg15_51_cif.got.tgz:100058.got - 2010.06.03 18:47:42.
