data_PCOD9301708
_publ_section_title
;
Structure prediction by ZEFSAII (Michael W. Deem and Ramdas Pophale) SiO2 
 PCOD9301708
Probable space group: C 2/C
;
_chemical_formula_sum "Si O2"
_cell_formula_units_Z 32
_cell_length_a 15.529656
_cell_length_b 6.424122
_cell_length_c 11.959839
_cell_angle_alpha 90.000000
_cell_angle_beta 82.433283
_cell_angle_gamma 90.000000
_cell_volume 1182.776367
_symmetry_space_group_name_H-M "C 2/C"
_symmetry_group_IT_number 15
_symmetry_cell_setting 'monoclinic'
loop_
_space_group_symop_operation_xyz
x,y,z
-x,y,1/2-z
-x,-y,-z
x,-y,1/2+z
1/2+x,1/2+y,z
1/2-x,1/2+y,1/2-z
1/2-x,1/2-y,-z
1/2+x,1/2-y,1/2+z
loop_
_atom_site_type_symbol
_atom_site_label
_atom_site_fract_x
_atom_site_fract_y
_atom_site_fract_z
Si Si1 0.673602 0.020717 0.329998
Si Si2 0.533040 0.739233 0.001682
Si Si3 0.419254 0.820019 0.833914
Si Si4 0.633105 0.642494 0.200627
O O1 0.610305 0.178091 0.407217
O O2 0.669016 0.084352 0.198125
O O3 0.769553 0.076611 0.353898
O O4 0.643070 0.780513 0.312365
O O5 0.574555 0.757701 0.117297
O O6 0.500000 0.500000 0.000000
O O7 0.447585 0.841322 0.957353
O O8 0.500000 0.909000 0.750000
O O9 0.411380 0.582452 0.792368
#
# Coordination Sequence:
#
# PCOD9301708 Si02
#       4
#     8   8   8   8
#     4  11  21  38  64  94 131 169 217 265 325 380
#     4   9  21  41  65  92 131 177 214 262 326 387
#     4   9  20  39  61  89 126 169 213 263 316 379
#     4  11  21  38  63  94 129 170 218 269 323 379
#
# _framework density 27.054987000000001
#
# number of rings (size 3 to 8) (size 9 to 14) (size 15 to 20)
#    0.000    2.000    2.500    0.750    0.000    4.000 
#    0.000   11.250    0.000    0.000    0.000    0.000 
#    0.000    0.000    0.000    0.000    0.000    0.000 
#
# Total GULP energy -89078.303110 kJ/mol
# GULP energy per Si atom -5567.393944 kJ/mol
# Density = 2.699341 g / cm^3
# Si number density = 27.054987 Si / 1000 Ang^3
#
#
#
# Elastic Constant Matrix: (Units=GPa)
#
#
# Indices 1 2 3 4 5 6 
#
# 1 142.0337 60.8582 53.8899 0.0000 23.0890 0.0000
# 2 60.8582 102.8241 61.0212 0.0000 10.3518 0.0000
# 3 53.8899 61.0212 129.0647 0.0000 12.3545 0.0000
# 4 0.0000 0.0000 0.0000 37.3849 0.0000 7.0365
# 5 23.0890 10.3518 12.3545 0.0000 36.5833 0.0000
# 6 0.0000 0.0000 0.0000 7.0365 0.0000 34.6271
#
#
#
# Elastic Compliance Matrix: (Units=1/GPa)
#
#
# Indices 1 2 3 4 5 6 
#
# 1 0.010468 -0.004720 -0.001689 0.000000 -0.004701 0.000000
# 2 -0.004720 0.015752 -0.005514 0.000000 0.000384 0.000000
# 3 -0.001689 -0.005514 0.011170 0.000000 -0.001146 0.000000
# 4 0.000000 0.000000 0.000000 0.027813 0.000000 -0.005652
# 5 -0.004701 0.000384 -0.001146 0.000000 0.030580 0.000000
# 6 0.000000 0.000000 0.000000 -0.005652 0.000000 0.030028
#
#
# Mechanical properties :
#
#
# Convention : Reuss Voigt Hill
#
# Bulk Modulus (GPa) = 73.83000 80.60680 77.21840
# Shear Modulus (GPa) = 32.43150 34.92928 33.68039
#
# Velocity S-wave (km/s) = 3.46602 3.59701 3.53212
# Velocity P-wave (km/s) = 6.58527 6.86365 6.72590
#
# Compressibility (1/GPa) = 0.01354463
#
# Stress axis : x y z
#
# Youngs Moduli (GPa) = 95.52865 63.48254 89.52631
#
# Poissons Ratio (x) = 0.29963 0.15124
# Poissons Ratio (y) = 0.45089 0.49361
# Poissons Ratio (z) = 0.16138 0.35002
#
# Static dielectric constant tensor:
#      x y z
#    x 2.070040 0.000000 0.047180 
#    y 0.000000 2.396630 0.000000 
#    z 0.047180 0.000000 2.179730 
# 
# From -- ./inp_files/158267.got.cif
#   From: 2010.05.17/outbox.cif.g08.bks.cpg/sg15_80_cif.got.tgz:158267.got - 2010.06.03 18:47:42.
