data_PCOD9301637
_publ_section_title
;
Structure prediction by ZEFSAII (Michael W. Deem and Ramdas Pophale) SiO2 
 PCOD9301637
Probable space group: C 2/C
;
_chemical_formula_sum "Si O2"
_cell_formula_units_Z 48
_cell_length_a 12.312098
_cell_length_b 8.098925
_cell_length_c 24.040602
_cell_angle_alpha 90.000000
_cell_angle_beta 61.655826
_cell_angle_gamma 90.000000
_cell_volume 2109.805956
_symmetry_space_group_name_H-M "C 2/C"
_symmetry_group_IT_number 15
_symmetry_cell_setting 'monoclinic'
loop_
_space_group_symop_operation_xyz
x,y,z
-x,y,1/2-z
-x,-y,-z
x,-y,1/2+z
1/2+x,1/2+y,z
1/2-x,1/2+y,1/2-z
1/2-x,1/2-y,-z
1/2+x,1/2-y,1/2+z
loop_
_atom_site_type_symbol
_atom_site_label
_atom_site_fract_x
_atom_site_fract_y
_atom_site_fract_z
Si Si1 0.699802 0.090958 0.894750
Si Si2 0.033892 0.245474 0.094114
Si Si3 0.642520 0.459486 0.471971
Si Si4 0.366574 0.911547 0.962869
Si Si5 0.116557 0.248551 0.875345
Si Si6 0.479695 0.448250 0.320068
O O1 0.605342 0.229543 0.895553
O O2 0.844012 0.132472 0.861602
O O3 0.683527 0.925548 0.860734
O O4 0.651704 0.042957 0.968064
O O5 0.083209 0.431159 0.084506
O O6 0.027397 0.126590 0.148372
O O7 0.129153 0.159916 0.028332
O O8 0.500000 0.500000 0.500000
O O9 0.732071 0.608451 0.468022
O O10 0.679480 0.367605 0.406259
O O11 0.477219 0.783879 0.931104
O O12 0.087451 0.155992 0.824829
O O13 0.500000 0.461488 0.250000
#
# Coordination Sequence:
#
# PCOD9301637 Si02
#       6
#     8   8   8   8   8   8
#     4  11  22  41  66  93 129 156 200 261 314 371
#     4  11  21  39  64  94 124 159 199 253 316 371
#     4  12  20  31  61 100 127 150 195 249 321 370
#     4  11  21  37  65 100 128 151 192 261 333 370
#     4  11  23  39  63  95 124 158 202 256 315 367
#     4  12  28  44  60  86 126 175 215 248 293 362
#
# _framework density 22.750907000000002
#
# number of rings (size 3 to 8) (size 9 to 14) (size 15 to 20)
#    0.000    0.667    6.667    2.500    2.333    2.667 
#    0.000    3.333    0.000    0.000    0.000    0.000 
#    0.000    0.000    0.000    0.000    0.000    0.000 
#
# Total GULP energy -134150.229391 kJ/mol
# GULP energy per Si atom -5589.592891 kJ/mol
# Density = 2.269912 g / cm^3
# Si number density = 22.750907 Si / 1000 Ang^3
#
#
#
# Elastic Constant Matrix: (Units=GPa)
#
#
# Indices 1 2 3 4 5 6 
#
# 1 110.5422 15.2750 27.0575 0.0000 11.8226 0.0000
# 2 15.2750 69.6135 32.2226 0.0000 19.1088 0.0000
# 3 27.0575 32.2226 100.1718 0.0000 41.7855 0.0000
# 4 0.0000 0.0000 0.0000 12.0195 0.0000 1.1990
# 5 11.8226 19.1088 41.7855 0.0000 34.9235 0.0000
# 6 0.0000 0.0000 0.0000 1.1990 0.0000 52.9417
#
#
#
# Elastic Compliance Matrix: (Units=1/GPa)
#
#
# Indices 1 2 3 4 5 6 
#
# 1 0.009756 -0.001087 -0.002308 0.000000 0.000053 0.000000
# 2 -0.001087 0.017539 -0.002992 0.000000 -0.005649 0.000000
# 3 -0.002308 -0.002992 0.021082 0.000000 -0.022806 0.000000
# 4 0.000000 0.000000 0.000000 0.083386 0.000000 -0.001889
# 5 0.000053 -0.005649 -0.022806 0.000000 0.058994 0.000000
# 6 0.000000 0.000000 0.000000 -0.001889 0.000000 0.018931
#
#
# Mechanical properties :
#
#
# Convention : Reuss Voigt Hill
#
# Bulk Modulus (GPa) = 28.08725 47.71530 37.90128
# Shear Modulus (GPa) = 21.33752 33.69511 27.51632
#
# Velocity S-wave (km/s) = 3.06580 3.85261 3.48150
# Velocity P-wave (km/s) = 4.99044 6.38816 5.73206
#
# Compressibility (1/GPa) = 0.03560335
#
# Stress axis : x y z
#
# Youngs Moduli (GPa) = 102.50438 57.01562 47.43442
#
# Poissons Ratio (x) = 0.06198 0.10946
# Poissons Ratio (y) = 0.11144 0.14191
# Poissons Ratio (z) = 0.23655 0.17058
#
# Static dielectric constant tensor:
#      x y z
#    x 1.961410 0.000000 0.034090 
#    y 0.000000 1.947350 0.000000 
#    z 0.034090 0.000000 1.828030 
# 
# From -- ./inp_files/267774.got.cif
#   From: 2010.05.17/outbox.cif.g08.bks.cpg/sg15_134_cif.got.tgz:267774.got - 2010.06.03 18:47:42.
