data_PCOD9301774
_publ_section_title
;
Structure prediction by ZEFSAII (Michael W. Deem and Ramdas Pophale) SiO2 
 PCOD9301774
Probable space group: C 2/C
;
_chemical_formula_sum "Si O2"
_cell_formula_units_Z 40
_cell_length_a 18.635658
_cell_length_b 11.984199
_cell_length_c 29.789367
_cell_angle_alpha 90.000000
_cell_angle_beta 18.396825
_cell_angle_gamma 90.000000
_cell_volume 2099.651107
_symmetry_space_group_name_H-M "C 2/C"
_symmetry_group_IT_number 15
_symmetry_cell_setting 'monoclinic'
loop_
_space_group_symop_operation_xyz
x,y,z
-x,y,1/2-z
-x,-y,-z
x,-y,1/2+z
1/2+x,1/2+y,z
1/2-x,1/2+y,1/2-z
1/2-x,1/2-y,-z
1/2+x,1/2-y,1/2+z
loop_
_atom_site_type_symbol
_atom_site_label
_atom_site_fract_x
_atom_site_fract_y
_atom_site_fract_z
Si Si1 0.132458 0.212186 0.115436
Si Si2 0.239593 0.566414 0.609914
Si Si3 0.404254 0.835063 0.582739
Si Si4 0.483126 0.075371 0.577356
Si Si5 0.615812 0.604539 0.872692
O O1 0.196710 0.316360 0.109952
O O2 0.866473 0.185619 0.265982
O O3 0.250000 0.250000 0.000000
O O4 0.264423 0.103522 0.054865
O O5 0.291738 0.582589 0.631607
O O6 0.436843 0.493927 0.470506
O O7 0.000000 0.503511 0.750000
O O8 0.532218 0.851993 0.459287
O O9 0.488018 0.727756 0.560413
O O10 0.441037 0.948409 0.588214
O O11 0.308133 0.106219 0.720588
#
# Coordination Sequence:
#
# PCOD9301774 Si02
#       5
#     8   8   8   8   8
#     4  12  20  40  69  90 122 167 211 250 309 372
#     4  11  21  39  62  93 119 160 217 253 299 370
#     4  11  23  40  60  93 126 163 204 258 307 369
#     4  11  23  37  61  93 126 158 208 255 311 366
#     4  11  23  37  64  90 123 162 206 262 304 362
#
# _framework density 19.050784
#
# number of rings (size 3 to 8) (size 9 to 14) (size 15 to 20)
#    0.000    0.800    6.000    1.800    0.000    0.000 
#    0.000    4.000    0.000    4.800    0.000    0.000 
#    0.000    0.000    0.000    0.000    0.000    0.000 
#
# Total GULP energy -111544.886817 kJ/mol
# GULP energy per Si atom -5577.244341 kJ/mol
# Density = 1.900742 g / cm^3
# Si number density = 19.050784 Si / 1000 Ang^3
#
#
#
# Elastic Constant Matrix: (Units=GPa)
#
#
# Indices 1 2 3 4 5 6 
#
# 1 72.0221 40.5652 34.8844 0.0140 21.7069 0.0064
# 2 40.5652 120.0654 51.4796 -0.0088 -5.5314 0.0021
# 3 34.8844 51.4796 100.2295 -0.0696 12.4260 0.0043
# 4 0.0140 -0.0088 -0.0696 30.6371 -0.0133 -4.5548
# 5 21.7069 -5.5314 12.4260 -0.0133 47.1167 -0.0186
# 6 0.0064 0.0021 0.0043 -4.5548 -0.0186 27.0379
#
#
#
# Elastic Compliance Matrix: (Units=1/GPa)
#
#
# Indices 1 2 3 4 5 6 
#
# 1 0.022182 -0.006664 -0.003033 -0.000026 -0.010202 -0.000016
# 2 -0.006664 0.013050 -0.005122 -0.000001 0.005953 0.000005
# 3 -0.003033 -0.005122 0.014023 0.000031 -0.002902 0.000002
# 4 -0.000026 -0.000001 0.000031 0.033479 0.000015 0.005640
# 5 -0.010202 0.005953 -0.002902 0.000015 0.027388 0.000024
# 6 -0.000016 0.000005 0.000002 0.005640 0.000024 0.037935
#
#
# Mechanical properties :
#
#
# Convention : Reuss Voigt Hill
#
# Bulk Modulus (GPa) = 50.97224 60.68616 55.82920
# Shear Modulus (GPa) = 27.13952 31.98420 29.56186
#
# Velocity S-wave (km/s) = 3.77847 4.10187 3.94349
# Velocity P-wave (km/s) = 6.77125 7.37278 7.07841
#
# Compressibility (1/GPa) = 0.01961852
#
# Stress axis : x y z
#
# Youngs Moduli (GPa) = 45.08241 76.62567 71.31129
#
# Poissons Ratio (x) = 0.51063 0.21627
# Poissons Ratio (y) = 0.30042 0.36523
# Poissons Ratio (z) = 0.13672 0.39245
#
# Static dielectric constant tensor:
#      x y z
#    x 1.699390 0.000010 0.007090 
#    y 0.000010 1.681150 0.000050 
#    z 0.007090 0.000050 1.680060 
# 
# From -- ./inp_files/167096.got.cif
#   From: 2010.05.17/outbox.cif.g08.bks.cpg/sg15_84_cif.got.tgz:167096.got - 2010.06.03 18:47:42.
