data_PCOD9301290
_publ_section_title
;
Structure prediction by ZEFSAII (Michael W. Deem and Ramdas Pophale) SiO2 
 PCOD9301290
Probable space group: C 2/C
;
_chemical_formula_sum "Si O2"
_cell_formula_units_Z 40
_cell_length_a 17.315706
_cell_length_b 7.669955
_cell_length_c 12.580608
_cell_angle_alpha 90.000000
_cell_angle_beta 70.641731
_cell_angle_gamma 90.000000
_cell_volume 1576.377173
_symmetry_space_group_name_H-M "C 2/C"
_symmetry_group_IT_number 15
_symmetry_cell_setting 'monoclinic'
loop_
_space_group_symop_operation_xyz
x,y,z
-x,y,1/2-z
-x,-y,-z
x,-y,1/2+z
1/2+x,1/2+y,z
1/2-x,1/2+y,1/2-z
1/2-x,1/2-y,-z
1/2+x,1/2-y,1/2+z
loop_
_atom_site_type_symbol
_atom_site_label
_atom_site_fract_x
_atom_site_fract_y
_atom_site_fract_z
Si Si1 0.554171 0.753559 0.619816
Si Si2 0.990023 0.115823 0.385565
Si Si3 0.861633 0.600959 0.929887
Si Si4 0.656230 0.246507 0.788601
Si Si5 0.783248 0.062139 0.875929
O O1 0.500000 0.784348 0.750000
O O2 0.507873 0.588974 0.587102
O O3 0.575717 0.945967 0.570248
O O4 0.643003 0.667353 0.604776
O O5 0.068485 0.228314 0.381778
O O6 0.000000 0.116774 0.250000
O O7 0.905512 0.219035 0.444912
O O8 0.850399 0.614132 0.807640
O O9 0.775254 0.552817 0.021659
O O10 0.679386 0.430785 0.726816
O O11 0.723693 0.191540 0.841161
#
# Coordination Sequence:
#
# PCOD9301290 Si02
#       5
#     8   8   8   8   8
#     4  11  20  40  69  93 126 181 219 258 341 398
#     4   9  19  41  65  90 132 175 214 263 333 387
#     4  11  23  41  70  96 128 174 226 271 326 392
#     4  11  23  43  63 100 138 172 220 280 326 394
#     4  12  24  41  67  99 132 174 222 274 328 388
#
# _framework density 25.374638999999998
#
# number of rings (size 3 to 8) (size 9 to 14) (size 15 to 20)
#    0.000    1.200    6.000    4.200    0.000    0.800 
#    0.000    1.000    0.000    0.000    0.000    0.000 
#    0.000    0.000    0.000    0.000    0.000    0.000 
#
# Total GULP energy -112020.500355 kJ/mol
# GULP energy per Si atom -5601.025018 kJ/mol
# Density = 2.531689 g / cm^3
# Si number density = 25.374639 Si / 1000 Ang^3
#
#
#
# Elastic Constant Matrix: (Units=GPa)
#
#
# Indices 1 2 3 4 5 6 
#
# 1 100.0502 14.9812 10.2271 0.0000 -26.5186 0.0000
# 2 14.9812 91.5178 2.2511 0.0000 -1.9096 0.0000
# 3 10.2271 2.2511 67.7098 0.0000 -26.5028 0.0000
# 4 0.0000 0.0000 0.0000 42.3601 0.0000 -7.9161
# 5 -26.5186 -1.9096 -26.5028 0.0000 39.6228 0.0000
# 6 0.0000 0.0000 0.0000 -7.9161 0.0000 36.7516
#
#
#
# Elastic Compliance Matrix: (Units=1/GPa)
#
#
# Indices 1 2 3 4 5 6 
#
# 1 0.012646 -0.001916 0.001938 0.000000 0.009667 0.000000
# 2 -0.001916 0.011230 -0.000507 0.000000 -0.001080 0.000000
# 3 0.001938 -0.000507 0.020308 0.000000 0.014856 0.000000
# 4 0.000000 0.000000 0.000000 0.024597 0.000000 0.005298
# 5 0.009667 -0.001080 0.014856 0.000000 0.041593 0.000000
# 6 0.000000 0.000000 0.000000 0.005298 0.000000 0.028351
#
#
# Mechanical properties :
#
#
# Convention : Reuss Voigt Hill
#
# Bulk Modulus (GPa) = 23.14060 34.91074 29.02567
# Shear Modulus (GPa) = 32.44634 39.20148 35.82391
#
# Velocity S-wave (km/s) = 3.57976 3.93480 3.76147
# Velocity P-wave (km/s) = 5.12109 5.86783 5.50714
#
# Compressibility (1/GPa) = 0.04321409
#
# Stress axis : x y z
#
# Youngs Moduli (GPa) = 79.07501 89.04379 49.24189
#
# Poissons Ratio (x) = 0.17062 -0.09541
# Poissons Ratio (y) = 0.15152 0.02495
# Poissons Ratio (z) = -0.15321 0.04512
#
# Static dielectric constant tensor:
#      x y z
#    x 2.029980 0.000000 0.105550 
#    y 0.000000 1.960190 0.000000 
#    z 0.105550 0.000000 2.094980 
# 
# From -- ./inp_files/159116.got.cif
#   From: 2010.05.17/outbox.cif.g08.bks.cpg/sg15_80_cif.got.tgz:159116.got - 2010.06.03 18:47:42.
