data_PCOD9301024
_publ_section_title
;
Structure prediction by ZEFSAII (Michael W. Deem and Ramdas Pophale) SiO2 
 PCOD9301024
Probable space group: C 2/C
;
_chemical_formula_sum "Si O2"
_cell_formula_units_Z 48
_cell_length_a 16.412825
_cell_length_b 20.499700
_cell_length_c 9.186932
_cell_angle_alpha 90.000000
_cell_angle_beta 132.521629
_cell_angle_gamma 90.000000
_cell_volume 2278.148058
_symmetry_space_group_name_H-M "C 2/C"
_symmetry_group_IT_number 15
_symmetry_cell_setting 'monoclinic'
loop_
_space_group_symop_operation_xyz
x,y,z
-x,y,1/2-z
-x,-y,-z
x,-y,1/2+z
1/2+x,1/2+y,z
1/2-x,1/2+y,1/2-z
1/2-x,1/2-y,-z
1/2+x,1/2-y,1/2+z
loop_
_atom_site_type_symbol
_atom_site_label
_atom_site_fract_x
_atom_site_fract_y
_atom_site_fract_z
Si Si1 0.060532 0.690840 0.166273
Si Si2 0.091455 0.047899 0.178500
Si Si3 0.466993 0.662867 0.882688
Si Si4 0.566706 0.068029 0.566658
Si Si5 0.767383 0.384424 0.476889
Si Si6 0.281848 0.487958 0.409315
O O1 0.038088 0.761913 0.075032
O O2 0.185416 0.673822 0.365428
O O3 0.000000 0.693648 0.250000
O O4 0.013072 0.630456 0.014478
O O5 0.119067 0.045881 0.382364
O O6 0.196680 0.011880 0.229470
O O7 0.053413 0.118152 0.074423
O O8 0.000000 0.000000 0.000000
O O9 0.500000 0.658459 0.750000
O O10 0.340601 0.636854 0.743156
O O11 0.630510 0.086316 0.493188
O O12 0.673221 0.055964 0.796403
O O13 0.500000 0.000000 0.500000
O O14 0.730365 0.441820 0.534819
#
# Coordination Sequence:
#
# PCOD9301024 Si02
#       6
#     8   8   8   8   8   8
#     4   9  21  36  59  88 118 160 202 253 304 358
#     4  12  22  37  59  92 124 158 201 250 308 364
#     4  11  20  37  60  89 125 156 201 251 306 367
#     4  11  22  38  59  88 122 157 205 251 304 355
#     4  11  20  36  60  92 118 153 203 258 298 349
#     4  12  22  36  61  92 120 156 204 252 303 360
#
# _framework density 21.069745999999999
#
# number of rings (size 3 to 8) (size 9 to 14) (size 15 to 20)
#    0.000    1.000    6.667    1.000    0.000    0.000 
#    0.000    0.833    0.000    0.000   21.667    0.000 
#    0.000    0.000    0.000    0.000    0.000    0.000 
#
# Total GULP energy -133655.973719 kJ/mol
# GULP energy per Si atom -5568.998905 kJ/mol
# Density = 2.102179 g / cm^3
# Si number density = 21.069746 Si / 1000 Ang^3
#
#
#
# Elastic Constant Matrix: (Units=GPa)
#
#
# Indices 1 2 3 4 5 6 
#
# 1 40.8659 21.2085 11.8701 0.0000 13.1555 0.0000
# 2 21.2085 156.4917 44.0184 0.0000 3.9307 0.0000
# 3 11.8701 44.0184 94.4597 0.0000 19.0493 0.0000
# 4 0.0000 0.0000 0.0000 31.3799 0.0000 10.0885
# 5 13.1555 3.9307 19.0493 0.0000 26.6401 0.0000
# 6 0.0000 0.0000 0.0000 10.0885 0.0000 11.8806
#
#
#
# Elastic Compliance Matrix: (Units=1/GPa)
#
#
# Indices 1 2 3 4 5 6 
#
# 1 0.031358 -0.004187 0.001179 0.000000 -0.015711 0.000000
# 2 -0.004187 0.007972 -0.003936 0.000000 0.003706 0.000000
# 3 0.001179 -0.003936 0.014341 0.000000 -0.010256 0.000000
# 4 0.000000 0.000000 0.000000 0.043834 0.000000 -0.037222
# 5 -0.015711 0.003706 -0.010256 0.000000 0.052083 0.000000
# 6 0.000000 0.000000 0.000000 -0.037222 0.000000 0.115779
#
#
# Mechanical properties :
#
#
# Convention : Reuss Voigt Hill
#
# Bulk Modulus (GPa) = 25.13654 49.55682 37.34668
# Shear Modulus (GPa) = 17.09314 28.29481 22.69397
#
# Velocity S-wave (km/s) = 2.85136 3.66855 3.28546
# Velocity P-wave (km/s) = 4.77456 6.44327 5.67063
#
# Compressibility (1/GPa) = 0.03978272
#
# Stress axis : x y z
#
# Youngs Moduli (GPa) = 31.88945 125.44588 69.73095
#
# Poissons Ratio (x) = 0.52521 -0.08220
# Poissons Ratio (y) = 0.13351 0.27446
# Poissons Ratio (z) = -0.03759 0.49375
#
# Static dielectric constant tensor:
#      x y z
#    x 1.904750 0.000000 -0.032670 
#    y 0.000000 1.769240 0.000000 
#    z -0.032670 0.000000 1.895320 
# 
# From -- ./inp_files/50414.got.cif
#   From: 2010.05.17/outbox.cif.g08.bks.cpg/sg15_26_cif.got.tgz:50414.got - 2010.06.03 18:47:42.
