data_PCOD9301608
_publ_section_title
;
Structure prediction by ZEFSAII (Michael W. Deem and Ramdas Pophale) SiO2 
 PCOD9301608
Probable space group: C 2/C
;
_chemical_formula_sum "Si O2"
_cell_formula_units_Z 40
_cell_length_a 25.423637
_cell_length_b 11.859989
_cell_length_c 8.784054
_cell_angle_alpha 90.000000
_cell_angle_beta 52.255959
_cell_angle_gamma 90.000000
_cell_volume 2094.391872
_symmetry_space_group_name_H-M "C 2/C"
_symmetry_group_IT_number 15
_symmetry_cell_setting 'monoclinic'
loop_
_space_group_symop_operation_xyz
x,y,z
-x,y,1/2-z
-x,-y,-z
x,-y,1/2+z
1/2+x,1/2+y,z
1/2-x,1/2+y,1/2-z
1/2-x,1/2-y,-z
1/2+x,1/2-y,1/2+z
loop_
_atom_site_type_symbol
_atom_site_label
_atom_site_fract_x
_atom_site_fract_y
_atom_site_fract_z
Si Si1 0.588235 0.412218 0.946658
Si Si2 0.855242 0.218219 0.866030
Si Si3 0.966209 0.834445 0.965382
Si Si4 0.224581 0.877019 0.525268
Si Si5 0.258990 0.909351 0.118036
O O1 0.524401 0.353703 0.984803
O O2 0.650801 0.395023 0.723233
O O3 0.609257 0.356662 0.068268
O O4 0.568088 0.542945 0.002092
O O5 0.908707 0.241490 0.639510
O O6 0.795345 0.146234 0.898656
O O7 0.823177 0.329789 0.994062
O O8 0.000000 0.795365 0.750000
O O9 0.250000 0.750000 0.500000
O O10 0.229951 0.908032 0.338923
O O11 0.269397 0.964082 0.542221
#
# Coordination Sequence:
#
# PCOD9301608 Si02
#       5
#     8   8   8   8   8
#     4  11  21  37  61  96 131 171 212 275 337 395
#     4  11  22  40  60  92 137 168 216 269 329 401
#     4  11  22  36  63  96 133 170 214 279 341 390
#     4  12  24  42  66  95 137 175 221 271 331 397
#     4  11  25  39  62  96 131 180 216 268 329 394
#
# _framework density 19.098623
#
# number of rings (size 3 to 8) (size 9 to 14) (size 15 to 20)
#    0.000    0.800    4.000    5.400    2.800    0.000 
#    0.000    0.000    0.000    1.200    0.000    0.000 
#    0.000    0.000    0.000    0.000    0.000    0.000 
#
# Total GULP energy -111874.933391 kJ/mol
# GULP energy per Si atom -5593.746670 kJ/mol
# Density = 1.905515 g / cm^3
# Si number density = 19.098623 Si / 1000 Ang^3
#
#
#
# Elastic Constant Matrix: (Units=GPa)
#
#
# Indices 1 2 3 4 5 6 
#
# 1 82.6564 22.8530 28.7044 0.0000 11.3919 0.0000
# 2 22.8530 76.2660 35.2700 0.0000 7.9688 0.0000
# 3 28.7044 35.2700 152.4306 0.0000 -0.7125 0.0000
# 4 0.0000 0.0000 0.0000 25.2748 0.0000 -1.8406
# 5 11.3919 7.9688 -0.7125 0.0000 38.1944 0.0000
# 6 0.0000 0.0000 0.0000 -1.8406 0.0000 21.2740
#
#
#
# Elastic Compliance Matrix: (Units=1/GPa)
#
#
# Indices 1 2 3 4 5 6 
#
# 1 0.014100 -0.002922 -0.001996 0.000000 -0.003633 0.000000
# 2 -0.002922 0.015672 -0.003087 0.000000 -0.002456 0.000000
# 3 -0.001996 -0.003087 0.007657 0.000000 0.001382 0.000000
# 4 0.000000 0.000000 0.000000 0.039816 0.000000 0.003445
# 5 -0.003633 -0.002456 0.001382 0.000000 0.027804 0.000000
# 6 0.000000 0.000000 0.000000 0.003445 0.000000 0.047304
#
#
# Mechanical properties :
#
#
# Convention : Reuss Voigt Hill
#
# Bulk Modulus (GPa) = 46.69051 53.88978 50.29014
# Shear Modulus (GPa) = 28.48946 31.91701 30.20323
#
# Velocity S-wave (km/s) = 3.86645 4.09243 3.98104
# Velocity P-wave (km/s) = 6.66578 7.11396 6.89352
#
# Compressibility (1/GPa) = 0.02141763
#
# Stress axis : x y z
#
# Youngs Moduli (GPa) = 70.92122 63.80765 130.59811
#
# Poissons Ratio (x) = 0.18647 0.26067
# Poissons Ratio (y) = 0.20726 0.40321
# Poissons Ratio (z) = 0.14156 0.19700
#
# Static dielectric constant tensor:
#      x y z
#    x 1.666440 0.000000 0.007170 
#    y 0.000000 1.657040 0.000000 
#    z 0.007170 0.000000 1.691340 
# 
# From -- ./inp_files/46212.got.cif
#   From: 2010.05.17/outbox.cif.g08.bks.cpg/sg15_24_cif.got.tgz:46212.got - 2010.06.03 18:47:42.
