data_PCOD9301505
_publ_section_title
;
Structure prediction by ZEFSAII (Michael W. Deem and Ramdas Pophale) SiO2 
 PCOD9301505
Probable space group: C 2/C
;
_chemical_formula_sum "Si O2"
_cell_formula_units_Z 64
_cell_length_a 22.457892
_cell_length_b 9.602623
_cell_length_c 14.216234
_cell_angle_alpha 90.000000
_cell_angle_beta 65.918653
_cell_angle_gamma 90.000000
_cell_volume 2798.971917
_symmetry_space_group_name_H-M "C 2/C"
_symmetry_group_IT_number 15
_symmetry_cell_setting 'monoclinic'
loop_
_space_group_symop_operation_xyz
x,y,z
-x,y,1/2-z
-x,-y,-z
x,-y,1/2+z
1/2+x,1/2+y,z
1/2-x,1/2+y,1/2-z
1/2-x,1/2-y,-z
1/2+x,1/2-y,1/2+z
loop_
_atom_site_type_symbol
_atom_site_label
_atom_site_fract_x
_atom_site_fract_y
_atom_site_fract_z
Si Si1 0.282385 0.597447 0.977118
Si Si2 0.421883 0.312724 0.405332
Si Si3 0.180356 0.713830 0.773326
Si Si4 0.433588 0.690072 0.669748
Si Si5 0.576299 0.987787 0.095901
Si Si6 0.304120 0.530623 0.742352
Si Si7 0.693753 0.851744 0.064798
Si Si8 0.568122 0.984869 0.330801
O O1 0.355476 0.606682 0.971433
O O2 0.291292 0.543278 0.863850
O O3 0.250000 0.750000 0.000000
O O4 0.230697 0.497026 0.060534
O O5 0.492204 0.355023 0.401608
O O6 0.428595 0.318287 0.287215
O O7 0.412890 0.149377 0.433118
O O8 0.245732 0.624384 0.740765
O O9 0.163775 0.723613 0.673808
O O10 0.120185 0.617463 0.845043
O O11 0.194703 0.871275 0.793310
O O12 0.373935 0.597863 0.673100
O O13 0.423994 0.852383 0.649760
O O14 0.636617 0.890830 0.029977
O O15 0.574398 0.983456 0.212097
O O16 0.506477 0.942416 0.102495
O O17 0.750000 0.750000 0.000000
#
# Coordination Sequence:
#
# PCOD9301505 Si02
#       8
#     8   8   8   8   8   8   8   8
#     4  11  21  35  59  84 111 143 185 218 272 327
#     4   8  14  28  51  80 103 137 177 222 260 317
#     4  11  23  37  56  79 112 143 184 224 274 319
#     4   8  15  30  52  76 106 134 180 223 266 309
#     4   8  14  28  52  76 106 138 179 217 264 315
#     4  11  23  37  55  83 108 146 182 225 271 323
#     4  11  21  37  53  84 115 142 176 229 271 317
#     4   8  15  30  52  77 101 141 179 223 262 311
#
# _framework density 22.865538999999998
#
# number of rings (size 3 to 8) (size 9 to 14) (size 15 to 20)
#    0.000    2.500    2.500    2.250    3.500    0.000 
#    2.250    2.500    0.000    3.000    0.000    0.000 
#    0.000    0.000    0.000    0.000    0.000    0.000 
#
# Total GULP energy -178573.932232 kJ/mol
# GULP energy per Si atom -5580.435382 kJ/mol
# Density = 2.281350 g / cm^3
# Si number density = 22.865539 Si / 1000 Ang^3
#
#
#
# Elastic Constant Matrix: (Units=GPa)
#
#
# Indices 1 2 3 4 5 6 
#
# 1 134.5178 56.8732 4.5171 0.0000 -38.7916 0.0000
# 2 56.8732 120.7036 -11.0196 0.0000 -17.0374 0.0000
# 3 4.5171 -11.0196 42.4516 0.0000 9.7164 0.0000
# 4 0.0000 0.0000 0.0000 18.8926 0.0000 -12.9119
# 5 -38.7916 -17.0374 9.7164 0.0000 35.2910 0.0000
# 6 0.0000 0.0000 0.0000 -12.9119 0.0000 35.1735
#
#
#
# Elastic Compliance Matrix: (Units=1/GPa)
#
#
# Indices 1 2 3 4 5 6 
#
# 1 0.014023 -0.005103 -0.006170 0.000000 0.014649 0.000000
# 2 -0.005103 0.010828 0.003672 0.000000 -0.001393 0.000000
# 3 -0.006170 0.003672 0.028082 0.000000 -0.012740 0.000000
# 4 0.000000 0.000000 0.000000 0.070658 0.000000 0.025938
# 5 0.014649 -0.001393 -0.012740 0.000000 0.047273 0.000000
# 6 0.000000 0.000000 0.000000 0.025938 0.000000 0.037952
#
#
# Mechanical properties :
#
#
# Convention : Reuss Voigt Hill
#
# Bulk Modulus (GPa) = 26.50223 44.26829 35.38526
# Shear Modulus (GPa) = 21.13329 34.35825 27.74577
#
# Velocity S-wave (km/s) = 3.04343 3.88057 3.48721
# Velocity P-wave (km/s) = 4.89547 6.28337 5.63233
#
# Compressibility (1/GPa) = 0.03773267
#
# Stress axis : x y z
#
# Youngs Moduli (GPa) = 71.31117 92.35461 35.60998
#
# Poissons Ratio (x) = 0.47128 0.21970
# Poissons Ratio (y) = 0.36389 -0.13078
# Poissons Ratio (z) = 0.43997 -0.33917
#
# Static dielectric constant tensor:
#      x y z
#    x 2.119840 0.000000 0.406380 
#    y 0.000000 3.143430 0.000000 
#    z 0.406380 0.000000 2.644720 
# 
# From -- ./inp_files/254839.got.cif
#   From: 2010.05.17/outbox.cif.g08.bks.cpg/sg15_128_cif.got.tgz:254839.got - 2010.06.03 18:47:42.
