data_PCOD9301867
_publ_section_title
;
Structure prediction by ZEFSAII (Michael W. Deem and Ramdas Pophale) SiO2 
 PCOD9301867
Probable space group: C 2/C
;
_chemical_formula_sum "Si O2"
_cell_formula_units_Z 48
_cell_length_a 9.486357
_cell_length_b 16.226088
_cell_length_c 26.640432
_cell_angle_alpha 90.000000
_cell_angle_beta 37.243305
_cell_angle_gamma 90.000000
_cell_volume 2481.727944
_symmetry_space_group_name_H-M "C 2/C"
_symmetry_group_IT_number 15
_symmetry_cell_setting 'monoclinic'
loop_
_space_group_symop_operation_xyz
x,y,z
-x,y,1/2-z
-x,-y,-z
x,-y,1/2+z
1/2+x,1/2+y,z
1/2-x,1/2+y,1/2-z
1/2-x,1/2-y,-z
1/2+x,1/2-y,1/2+z
loop_
_atom_site_type_symbol
_atom_site_label
_atom_site_fract_x
_atom_site_fract_y
_atom_site_fract_z
Si Si1 0.540774 0.836279 0.794704
Si Si2 0.468498 0.921367 0.975165
Si Si3 0.637219 0.142807 0.659969
Si Si4 0.094294 0.201791 0.584295
Si Si5 0.277084 0.981588 0.921403
Si Si6 0.456383 0.672037 0.321864
O O1 0.500000 0.806028 0.750000
O O2 0.507253 0.764380 0.845783
O O3 0.809653 0.865757 0.721204
O O4 0.362419 0.909584 0.859391
O O5 0.712685 0.872678 0.901432
O O6 0.373438 0.950373 0.947676
O O7 0.271627 0.864314 0.056122
O O8 0.500000 0.000000 0.000000
O O9 0.500000 0.124285 0.750000
O O10 0.616117 0.068136 0.627512
O O11 0.560154 0.231121 0.659575
O O12 0.896451 0.157968 0.607624
O O13 0.250000 0.250000 0.500000
O O14 0.000000 0.000000 0.000000
O O15 0.500000 0.670112 0.250000
#
# Coordination Sequence:
#
# PCOD9301867 Si02
#       6
#     8   8   8   8   8   8
#     4  12  26  43  73 104 137 178 235 291 342 410
#     4  12  27  43  68 101 139 180 226 282 343 406
#     4  11  21  39  72  96 128 178 228 271 339 409
#     4  12  20  46  71  94 133 187 221 271 346 411
#     4  12  24  42  67 104 136 177 228 283 338 404
#     4  11  21  47  69  92 135 188 219 275 353 404
#
# _framework density 19.341362
#
# number of rings (size 3 to 8) (size 9 to 14) (size 15 to 20)
#    0.000    0.333   10.000    0.500    2.333    2.667 
#    0.000    1.667    0.000    0.000    0.000    0.000 
#    0.000    0.000    0.000    0.000    0.000    0.000 
#
# Total GULP energy -134019.132386 kJ/mol
# GULP energy per Si atom -5584.130516 kJ/mol
# Density = 1.929734 g / cm^3
# Si number density = 19.341362 Si / 1000 Ang^3
#
#
#
# Elastic Constant Matrix: (Units=GPa)
#
#
# Indices 1 2 3 4 5 6 
#
# 1 74.2053 14.6787 32.8155 -0.0001 -6.8415 -0.0004
# 2 14.6787 98.5301 35.1517 -0.0021 -3.0630 -0.0001
# 3 32.8155 35.1517 89.8687 -0.0005 -21.8591 -0.0021
# 4 -0.0001 -0.0021 -0.0005 33.0653 -0.0004 -0.1194
# 5 -6.8415 -3.0630 -21.8591 -0.0004 39.1062 0.0005
# 6 -0.0004 -0.0001 -0.0021 -0.1194 0.0005 37.2192
#
#
#
# Elastic Compliance Matrix: (Units=1/GPa)
#
#
# Indices 1 2 3 4 5 6 
#
# 1 0.016090 -0.000318 -0.005870 0.000000 -0.000491 0.000000
# 2 -0.000318 0.011927 -0.005017 0.000001 -0.001926 0.000000
# 3 -0.005870 -0.005017 0.017231 0.000000 0.008211 0.000001
# 4 0.000000 0.000001 0.000000 0.030244 0.000000 0.000097
# 5 -0.000491 -0.001926 0.008211 0.000000 0.029924 0.000000
# 6 0.000000 0.000000 0.000001 0.000097 0.000000 0.026868
#
#
# Mechanical properties :
#
#
# Convention : Reuss Voigt Hill
#
# Bulk Modulus (GPa) = 43.79104 47.54400 45.66752
# Shear Modulus (GPa) = 30.80587 33.87534 32.34060
#
# Velocity S-wave (km/s) = 3.99525 4.18957 4.09356
# Velocity P-wave (km/s) = 6.63121 6.93096 6.78274
#
# Compressibility (1/GPa) = 0.02283572
#
# Stress axis : x y z
#
# Youngs Moduli (GPa) = 62.15146 83.84547 58.03588
#
# Poissons Ratio (x) = 0.02666 0.34069
# Poissons Ratio (y) = 0.01976 0.29119
# Poissons Ratio (z) = 0.36485 0.42069
#
# Static dielectric constant tensor:
#      x y z
#    x 1.677270 -0.000020 -0.039490 
#    y -0.000020 1.800300 0.000060 
#    z -0.039490 0.000060 1.693760 
# 
# From -- ./inp_files/134798.got.cif
#   From: 2010.05.17/outbox.cif.g08.bks.cpg/sg15_68_cif.got.tgz:134798.got - 2010.06.03 18:47:42.
