data_PCOD9301450
_publ_section_title
;
Structure prediction by ZEFSAII (Michael W. Deem and Ramdas Pophale) SiO2 
 PCOD9301450
Probable space group: C 2/C
;
_chemical_formula_sum "Si O2"
_cell_formula_units_Z 52
_cell_length_a 19.049754
_cell_length_b 14.629341
_cell_length_c 11.505311
_cell_angle_alpha 90.000000
_cell_angle_beta 123.600743
_cell_angle_gamma 90.000000
_cell_volume 2670.623665
_symmetry_space_group_name_H-M "C 2/C"
_symmetry_group_IT_number 15
_symmetry_cell_setting 'monoclinic'
loop_
_space_group_symop_operation_xyz
x,y,z
-x,y,1/2-z
-x,-y,-z
x,-y,1/2+z
1/2+x,1/2+y,z
1/2-x,1/2+y,1/2-z
1/2-x,1/2-y,-z
1/2+x,1/2-y,1/2+z
loop_
_atom_site_type_symbol
_atom_site_label
_atom_site_fract_x
_atom_site_fract_y
_atom_site_fract_z
Si Si1 0.640751 0.833014 0.958522
Si Si2 0.439122 0.082574 0.912561
Si Si3 0.297075 0.776402 0.710150
Si Si4 0.744365 0.010599 0.293563
Si Si5 0.500000 0.198539 0.750000
Si Si6 0.232312 0.478484 0.530365
Si Si7 0.330729 0.222573 0.499854
O O1 0.633567 0.781920 0.828904
O O2 0.568188 0.847042 0.986021
O O3 0.719500 0.784181 0.094286
O O4 0.669007 0.936658 0.956716
O O5 0.473363 0.135783 0.833507
O O6 0.346505 0.040308 0.801825
O O7 0.500000 0.000000 0.000000
O O8 0.264572 0.880390 0.697448
O O9 0.326326 0.745416 0.863203
O O10 0.781891 0.001461 0.196813
O O11 0.779679 0.972682 0.449243
O O12 0.416929 0.252957 0.637788
O O13 0.177044 0.388164 0.503322
O O14 0.250000 0.250000 0.500000
#
# Coordination Sequence:
#
# PCOD9301450 Si02
#       7
#     8   8   8   8   4   8   8
#     4   9  18  34  52  76 113 150 194 231 284 343
#     4  11  21  31  50  74 113 156 185 230 288 359
#     4   9  18  32  52  76 108 150 192 235 274 345
#     4   9  17  30  45  71 104 140 183 218 278 331
#     4  12  22  36  50  82 114 154 192 228 298 358
#     4   9  17  31  49  72 105 144 183 220 279 342
#     4  11  22  36  54  81 117 149 194 240 294 351
#
# _framework density 19.471107
#
# number of rings (size 3 to 8) (size 9 to 14) (size 15 to 20)
#    0.000    2.154    1.538    3.692    4.308    0.000 
#    0.000    0.000    0.000    0.000    0.000    1.077 
#   13.846    0.000    0.000    0.000    0.000    0.000 
#
# Total GULP energy -144818.437064 kJ/mol
# GULP energy per Si atom -5569.939887 kJ/mol
# Density = 1.942679 g / cm^3
# Si number density = 19.471107 Si / 1000 Ang^3
#
#
#
# Elastic Constant Matrix: (Units=GPa)
#
#
# Indices 1 2 3 4 5 6 
#
# 1 108.5633 17.5141 74.4437 0.0000 -33.2366 0.0000
# 2 17.5141 22.4264 6.3532 0.0000 2.1024 0.0000
# 3 74.4437 6.3532 130.5634 0.0000 -39.5221 0.0000
# 4 0.0000 0.0000 0.0000 19.6776 0.0000 -5.2095
# 5 -33.2366 2.1024 -39.5221 0.0000 45.0456 0.0000
# 6 0.0000 0.0000 0.0000 -5.2095 0.0000 24.6189
#
#
#
# Elastic Compliance Matrix: (Units=1/GPa)
#
#
# Indices 1 2 3 4 5 6 
#
# 1 0.019238 -0.013515 -0.007929 0.000000 0.007868 0.000000
# 2 -0.013515 0.055732 0.001618 0.000000 -0.011154 0.000000
# 3 -0.007929 0.001618 0.014035 0.000000 0.006388 0.000000
# 4 0.000000 0.000000 0.000000 0.053835 0.000000 0.011392
# 5 0.007868 -0.011154 0.006388 0.000000 0.034130 0.000000
# 6 0.000000 0.000000 0.000000 0.011392 0.000000 0.043030
#
#
# Mechanical properties :
#
#
# Convention : Reuss Voigt Hill
#
# Bulk Modulus (GPa) = 20.26276 50.90833 35.58554
# Shear Modulus (GPa) = 18.10906 28.75125 23.43016
#
# Velocity S-wave (km/s) = 3.05298 3.84684 3.47267
# Velocity P-wave (km/s) = 4.78087 6.77741 5.86472
#
# Compressibility (1/GPa) = 0.04935162
#
# Stress axis : x y z
#
# Youngs Moduli (GPa) = 51.98117 17.94286 71.24913
#
# Poissons Ratio (x) = 0.24250 0.56497
# Poissons Ratio (y) = 0.70253 -0.11526
# Poissons Ratio (z) = 0.41218 -0.02903
#
# Static dielectric constant tensor:
#      x y z
#    x 1.701150 0.000000 -0.049940 
#    y 0.000000 1.735750 0.000000 
#    z -0.049940 0.000000 1.737600 
# 
# From -- ./inp_files/112792.got.cif
#   From: 2010.05.17/outbox.cif.g08.bks.cpg/sg15_57_cif.got.tgz:112792.got - 2010.06.03 18:47:42.
