data_PCOD9301155
_publ_section_title
;
Structure prediction by ZEFSAII (Michael W. Deem and Ramdas Pophale) SiO2 
 PCOD9301155
Probable space group: C 2/C
;
_chemical_formula_sum "Si O2"
_cell_formula_units_Z 44
_cell_length_a 7.149675
_cell_length_b 21.460960
_cell_length_c 14.313064
_cell_angle_alpha 90.000000
_cell_angle_beta 69.966669
_cell_angle_gamma 90.000000
_cell_volume 2063.297429
_symmetry_space_group_name_H-M "C 2/C"
_symmetry_group_IT_number 15
_symmetry_cell_setting 'monoclinic'
loop_
_space_group_symop_operation_xyz
x,y,z
-x,y,1/2-z
-x,-y,-z
x,-y,1/2+z
1/2+x,1/2+y,z
1/2-x,1/2+y,1/2-z
1/2-x,1/2-y,-z
1/2+x,1/2-y,1/2+z
loop_
_atom_site_type_symbol
_atom_site_label
_atom_site_fract_x
_atom_site_fract_y
_atom_site_fract_z
Si Si1 0.000000 0.262636 0.750000
Si Si2 0.500000 0.916611 0.250000
Si Si3 0.000000 0.053491 0.750000
Si Si4 0.745931 0.152075 0.870120
Si Si5 0.275452 0.976515 0.893659
Si Si6 0.525991 0.862102 0.901667
Si Si7 0.328413 0.539406 0.403410
O O1 0.169901 0.217898 0.678562
O O2 0.067770 0.305928 0.824385
O O3 0.390031 0.876378 0.189664
O O4 0.656419 0.962238 0.173086
O O5 0.062656 0.104460 0.659315
O O6 0.166204 0.001756 0.691475
O O7 0.621023 0.154681 0.986917
O O8 0.416393 0.917309 0.863691
O O9 0.054397 0.957171 0.901148
O O10 0.281162 0.998912 0.999756
O O11 0.724202 0.894926 0.906894
#
# Coordination Sequence:
#
# PCOD9301155 Si02
#       7
#     4   4   4   8   8   8   8
#     4  11  29  46  68  96 133 199 252 288 322 391
#     4  12  21  42  72 106 139 182 226 282 366 424
#     4  11  20  38  64 100 138 171 210 278 358 413
#     4  11  24  46  70  92 142 191 236 284 339 414
#     4  11  23  39  69 112 137 170 219 282 368 435
#     4  12  24  48  69 100 142 185 229 289 352 407
#     4  11  23  37  67 107 140 169 213 285 356 426
#
# _framework density 21.325087
#
# number of rings (size 3 to 8) (size 9 to 14) (size 15 to 20)
#    0.000    0.727    5.455    2.727    2.545    0.000 
#    3.273    0.909    0.000    0.000    0.000    0.000 
#    0.000    0.000    0.000    0.000    0.000    0.000 
#
# Total GULP energy -122753.136372 kJ/mol
# GULP energy per Si atom -5579.688017 kJ/mol
# Density = 2.127655 g / cm^3
# Si number density = 21.325087 Si / 1000 Ang^3
#
#
#
# Elastic Constant Matrix: (Units=GPa)
#
#
# Indices 1 2 3 4 5 6 
#
# 1 117.3172 49.2695 27.5100 0.0000 0.0294 0.0000
# 2 49.2695 141.7279 72.5449 0.0000 -2.5258 0.0000
# 3 27.5100 72.5449 166.8860 0.0000 -4.5720 0.0000
# 4 0.0000 0.0000 0.0000 34.5045 0.0000 -5.5348
# 5 0.0294 -2.5258 -4.5720 0.0000 22.6836 0.0000
# 6 0.0000 0.0000 0.0000 -5.5348 0.0000 14.4546
#
#
#
# Elastic Compliance Matrix: (Units=1/GPa)
#
#
# Indices 1 2 3 4 5 6 
#
# 1 0.009989 -0.003384 -0.000187 0.000000 -0.000428 0.000000
# 2 -0.003384 0.010223 -0.003876 0.000000 0.000361 0.000000
# 3 -0.000187 -0.003876 0.007739 0.000000 0.001128 0.000000
# 4 0.000000 0.000000 0.000000 0.030878 0.000000 0.011824
# 5 -0.000428 0.000361 0.001128 0.000000 0.044353 0.000000
# 6 0.000000 0.000000 0.000000 0.011824 0.000000 0.073709
#
#
# Mechanical properties :
#
#
# Convention : Reuss Voigt Hill
#
# Bulk Modulus (GPa) = 76.59567 80.50889 78.55228
# Shear Modulus (GPa) = 25.49218 32.76898 29.13058
#
# Velocity S-wave (km/s) = 3.46122 3.92425 3.69999
# Velocity P-wave (km/s) = 7.20898 7.63990 7.42757
#
# Compressibility (1/GPa) = 0.01305557
#
# Stress axis : x y z
#
# Youngs Moduli (GPa) = 100.10773 97.82139 129.21966
#
# Poissons Ratio (x) = 0.33107 0.02419
# Poissons Ratio (y) = 0.33881 0.50085
# Poissons Ratio (z) = 0.01874 0.37915
#
# Static dielectric constant tensor:
#      x y z
#    x 1.952250 0.000000 0.032260 
#    y 0.000000 1.735850 0.000000 
#    z 0.032260 0.000000 1.819730 
# 
# From -- ./inp_files/78341.got.cif
#   From: 2010.05.17/outbox.cif.g08.bks.cpg/sg15_40_cif.got.tgz:78341.got - 2010.06.03 18:47:42.
