data_PCOD9301606
_publ_section_title
;
Structure prediction by ZEFSAII (Michael W. Deem and Ramdas Pophale) SiO2 
 PCOD9301606
Probable space group: C 2/C
;
_chemical_formula_sum "Si O2"
_cell_formula_units_Z 40
_cell_length_a 16.329000
_cell_length_b 24.568173
_cell_length_c 15.544754
_cell_angle_alpha 90.000000
_cell_angle_beta 18.571216
_cell_angle_gamma 90.000000
_cell_volume 1986.107455
_symmetry_space_group_name_H-M "C 2/C"
_symmetry_group_IT_number 15
_symmetry_cell_setting 'monoclinic'
loop_
_space_group_symop_operation_xyz
x,y,z
-x,y,1/2-z
-x,-y,-z
x,-y,1/2+z
1/2+x,1/2+y,z
1/2-x,1/2+y,1/2-z
1/2-x,1/2-y,-z
1/2+x,1/2-y,1/2+z
loop_
_atom_site_type_symbol
_atom_site_label
_atom_site_fract_x
_atom_site_fract_y
_atom_site_fract_z
Si Si1 0.234194 0.785039 0.867158
Si Si2 0.466295 0.394359 0.524484
Si Si3 0.827943 0.076700 0.847849
Si Si4 0.000000 0.482427 0.250000
Si Si5 0.000000 0.338452 0.750000
Si Si6 0.974356 0.554978 0.587240
O O1 0.517364 0.760640 0.566921
O O2 0.129121 0.836312 0.916591
O O3 0.283104 0.803556 0.917571
O O4 0.495500 0.431234 0.409754
O O5 0.753683 0.403830 0.273771
O O6 0.252548 0.417642 0.800191
O O7 0.000000 0.101317 0.750000
O O8 0.717093 0.021542 0.994718
O O9 0.600956 0.121370 0.072561
O O10 0.911844 0.453900 0.250117
O O11 0.000000 0.500000 0.500000
#
# Coordination Sequence:
#
# PCOD9301606 Si02
#       6
#     8   8   8   4   4   8
#     4  12  25  41  63  92 128 177 226 273 330 390
#     4  12  25  44  62  93 135 175 217 274 322 382
#     4  11  21  37  61  90 137 181 217 250 325 388
#     4  11  26  38  66  98 130 182 224 260 325 398
#     4  11  22  36  58  96 132 178 220 274 305 394
#     4  12  25  43  66  98 133 175 220 269 323 398
#
# _framework density 20.139897999999999
#
# number of rings (size 3 to 8) (size 9 to 14) (size 15 to 20)
#    0.000    0.400    4.000    6.000    2.800    0.000 
#    0.000    0.000    0.000    0.000    0.000   14.000 
#    0.000    0.000    0.000    0.000    0.000    0.000 
#
# Total GULP energy -111446.409927 kJ/mol
# GULP energy per Si atom -5572.320496 kJ/mol
# Density = 2.009406 g / cm^3
# Si number density = 20.139898 Si / 1000 Ang^3
#
#
#
# Elastic Constant Matrix: (Units=GPa)
#
#
# Indices 1 2 3 4 5 6 
#
# 1 95.0937 33.5733 13.2610 -0.0283 3.3124 -0.0673
# 2 33.5733 70.6223 18.2877 0.1225 -6.2630 0.0553
# 3 13.2610 18.2877 83.6204 0.1900 -14.1972 0.0641
# 4 -0.0283 0.1225 0.1900 46.7367 0.0598 6.1711
# 5 3.3124 -6.2630 -14.1972 0.0598 32.9431 -0.2054
# 6 -0.0673 0.0553 0.0641 6.1711 -0.2054 65.2315
#
#
#
# Elastic Compliance Matrix: (Units=1/GPa)
#
#
# Indices 1 2 3 4 5 6 
#
# 1 0.012945 -0.006102 -0.001226 0.000032 -0.002990 0.000007
# 2 -0.006102 0.017960 -0.002456 -0.000044 0.002970 -0.000006
# 3 -0.001226 -0.002456 0.013629 -0.000058 0.005530 0.000010
# 4 0.000032 -0.000044 -0.000058 0.021668 -0.000089 -0.002050
# 5 -0.002990 0.002970 0.005530 -0.000089 0.033605 0.000103
# 6 0.000007 -0.000006 0.000010 -0.002050 0.000103 0.015524
#
#
# Mechanical properties :
#
#
# Convention : Reuss Voigt Hill
#
# Bulk Modulus (GPa) = 40.05298 42.17559 41.11428
# Shear Modulus (GPa) = 34.91090 41.26323 38.08707
#
# Velocity S-wave (km/s) = 4.16795 4.53131 4.35342
# Velocity P-wave (km/s) = 6.56453 6.95441 6.76228
#
# Compressibility (1/GPa) = 0.02496693
#
# Stress axis : x y z
#
# Youngs Moduli (GPa) = 77.24753 55.67927 73.37062
#
# Poissons Ratio (x) = 0.33975 0.08997
# Poissons Ratio (y) = 0.47135 0.18019
# Poissons Ratio (z) = 0.09472 0.13674
#
# Static dielectric constant tensor:
#      x y z
#    x 1.776970 0.000140 -0.043990 
#    y 0.000140 1.790380 0.000110 
#    z -0.043990 0.000110 1.730750 
# 
# From -- ./inp_files/157177.got.cif
#   From: 2010.05.17/outbox.cif.g08.bks.cpg/sg15_79_cif.got.tgz:157177.got - 2010.06.03 18:47:42.
