data_PCOD9301548
_publ_section_title
;
Structure prediction by ZEFSAII (Michael W. Deem and Ramdas Pophale) SiO2 
 PCOD9301548
Probable space group: C 2/C
;
_chemical_formula_sum "Si O2"
_cell_formula_units_Z 48
_cell_length_a 15.528918
_cell_length_b 9.064979
_cell_length_c 30.335942
_cell_angle_alpha 90.000000
_cell_angle_beta 153.716036
_cell_angle_gamma 90.000000
_cell_volume 1891.006279
_symmetry_space_group_name_H-M "C 2/C"
_symmetry_group_IT_number 15
_symmetry_cell_setting 'monoclinic'
loop_
_space_group_symop_operation_xyz
x,y,z
-x,y,1/2-z
-x,-y,-z
x,-y,1/2+z
1/2+x,1/2+y,z
1/2-x,1/2+y,1/2-z
1/2-x,1/2-y,-z
1/2+x,1/2-y,1/2+z
loop_
_atom_site_type_symbol
_atom_site_label
_atom_site_fract_x
_atom_site_fract_y
_atom_site_fract_z
Si Si1 0.000000 0.769159 0.250000
Si Si2 0.000000 0.693225 0.750000
Si Si3 0.461345 0.814441 0.876867
Si Si4 0.183353 0.551424 0.396392
Si Si5 0.728501 0.620487 0.772691
Si Si6 0.590757 0.156205 0.054556
Si Si7 0.084286 0.190649 0.457822
O O1 0.833871 0.663432 0.152656
O O2 0.909139 0.861716 0.247963
O O3 0.051929 0.585742 0.815615
O O4 0.189121 0.796073 0.829879
O O5 0.378391 0.660027 0.821408
O O6 0.533676 0.795636 0.959867
O O7 0.594893 0.866985 0.898007
O O8 0.326880 0.961901 0.819126
O O9 0.369747 0.471569 0.502808
O O10 0.881468 0.756868 0.844663
O O11 0.585578 0.226388 0.004513
O O12 0.500000 0.000000 0.000000
O O13 0.250000 0.250000 0.500000
#
# Coordination Sequence:
#
# PCOD9301548 Si02
#       7
#     4   4   8   8   8   8   8
#     4   9  22  39  58  88 132 164 200 270 340 380
#     4   9  20  33  62  90 116 176 216 256 316 392
#     4  11  22  40  64  95 127 167 212 266 324 381
#     4   9  18  39  61  85 124 168 217 258 318 395
#     4  11  23  42  64  94 129 171 213 265 327 389
#     4  11  21  36  59  96 127 157 214 275 314 365
#     4  11  21  39  64  92 124 169 224 266 312 388
#
# _framework density 25.383310000000002
#
# number of rings (size 3 to 8) (size 9 to 14) (size 15 to 20)
#    0.000    1.667    3.333    1.000    2.333    2.667 
#    0.000    0.000    0.000    4.000    0.000    0.000 
#    0.000    0.000    0.000    0.000    0.000    0.000 
#
# Total GULP energy -133921.678535 kJ/mol
# GULP energy per Si atom -5580.069939 kJ/mol
# Density = 2.532554 g / cm^3
# Si number density = 25.383310 Si / 1000 Ang^3
#
#
#
# Elastic Constant Matrix: (Units=GPa)
#
#
# Indices 1 2 3 4 5 6 
#
# 1 164.7939 34.4338 33.8234 0.0000 -27.3152 0.0000
# 2 34.4338 92.4882 35.6722 0.0000 -4.4434 0.0000
# 3 33.8234 35.6722 102.5738 0.0008 -22.3624 0.0000
# 4 0.0000 0.0000 0.0008 46.7664 -0.0001 -12.2945
# 5 -27.3152 -4.4434 -22.3624 -0.0001 47.3441 0.0000
# 6 0.0000 0.0000 0.0000 -12.2945 0.0000 16.6270
#
#
#
# Elastic Compliance Matrix: (Units=1/GPa)
#
#
# Indices 1 2 3 4 5 6 
#
# 1 0.007304 -0.002218 -0.000852 0.000000 0.003603 0.000000
# 2 -0.002218 0.013201 -0.004313 0.000000 -0.002078 0.000000
# 3 -0.000852 -0.004313 0.012636 0.000000 0.005072 0.000000
# 4 0.000000 0.000000 0.000000 0.026542 0.000000 0.019626
# 5 0.003603 -0.002078 0.005072 0.000000 0.025402 0.000000
# 6 0.000000 0.000000 0.000000 0.019626 0.000000 0.074656
#
#
# Mechanical properties :
#
#
# Convention : Reuss Voigt Hill
#
# Bulk Modulus (GPa) = 54.41650 63.07941 58.74795
# Shear Modulus (GPa) = 27.68093 39.20926 33.44510
#
# Velocity S-wave (km/s) = 3.30588 3.93451 3.63382
# Velocity P-wave (km/s) = 6.00468 6.74872 6.38755
#
# Compressibility (1/GPa) = 0.01837678
#
# Stress axis : x y z
#
# Youngs Moduli (GPa) = 136.91832 75.74950 79.14210
#
# Poissons Ratio (x) = 0.16798 0.06739
# Poissons Ratio (y) = 0.30363 0.34132
# Poissons Ratio (z) = 0.11659 0.32669
#
# Static dielectric constant tensor:
#      x y z
#    x 1.911900 0.000000 0.012760 
#    y 0.000000 0.348110 0.000000 
#    z 0.012760 0.000000 2.162670 
# 
# From -- ./inp_files/151881.got.cif
#   From: 2010.05.17/outbox.cif.g08.bks.cpg/sg15_76_cif.got.tgz:151881.got - 2010.06.03 18:47:42.
