data_PCOD9301052
_publ_section_title
;
Structure prediction by ZEFSAII (Michael W. Deem and Ramdas Pophale) SiO2 
 PCOD9301052
Probable space group: C 2/C
;
_chemical_formula_sum "Si O2"
_cell_formula_units_Z 32
_cell_length_a 26.002902
_cell_length_b 11.008286
_cell_length_c 13.396216
_cell_angle_alpha 90.000000
_cell_angle_beta 21.560011
_cell_angle_gamma 90.000000
_cell_volume 1409.133358
_symmetry_space_group_name_H-M "C 2/C"
_symmetry_group_IT_number 15
_symmetry_cell_setting 'monoclinic'
loop_
_space_group_symop_operation_xyz
x,y,z
-x,y,1/2-z
-x,-y,-z
x,-y,1/2+z
1/2+x,1/2+y,z
1/2-x,1/2+y,1/2-z
1/2-x,1/2-y,-z
1/2+x,1/2-y,1/2+z
loop_
_atom_site_type_symbol
_atom_site_label
_atom_site_fract_x
_atom_site_fract_y
_atom_site_fract_z
Si Si1 0.781523 0.810991 0.084515
Si Si2 0.307354 0.432326 0.837837
Si Si3 0.978729 0.235728 0.629175
Si Si4 0.211403 0.198893 0.705143
O O1 0.797711 0.675635 0.008297
O O2 0.611702 0.822791 0.403490
O O3 0.840769 0.813488 0.088324
O O4 0.827316 0.906743 0.919043
O O5 0.447632 0.393230 0.525548
O O6 0.263721 0.565107 0.885467
O O7 0.895797 0.263647 0.676227
O O8 0.861631 0.235473 0.925352
#
# Coordination Sequence:
#
# PCOD9301052 Si02
#       4
#     8   8   8   8
#     4   9  21  41  54  88 128 151 207 259 289 378
#     4   9  21  41  57  86 128 154 206 255 296 369
#     4   9  21  38  56  93 120 148 214 249 279 390
#     4  11  20  36  68  86 120 172 191 250 328 336
#
# _framework density 22.708994000000001
#
# number of rings (size 3 to 8) (size 9 to 14) (size 15 to 20)
#    1.500    1.000    0.000    1.500    0.000    6.000 
#    0.000    2.500    0.000    0.000    0.000    0.000 
#    0.000    0.000    0.000    0.000    0.000    0.000 
#
# Total GULP energy -89206.250684 kJ/mol
# GULP energy per Si atom -5575.390668 kJ/mol
# Density = 2.265731 g / cm^3
# Si number density = 22.708994 Si / 1000 Ang^3
#
#
#
# Elastic Constant Matrix: (Units=GPa)
#
#
# Indices 1 2 3 4 5 6 
#
# 1 99.3586 17.4843 1.8431 0.0000 40.8373 0.0000
# 2 17.4843 48.1264 23.4891 0.0000 11.7109 0.0000
# 3 1.8431 23.4891 62.7294 0.0000 13.3754 0.0000
# 4 0.0000 0.0000 0.0000 27.7589 0.0000 1.6327
# 5 40.8373 11.7109 13.3754 0.0000 47.1480 0.0000
# 6 0.0000 0.0000 0.0000 1.6327 0.0000 10.0464
#
#
#
# Elastic Compliance Matrix: (Units=1/GPa)
#
#
# Indices 1 2 3 4 5 6 
#
# 1 0.016834 -0.004690 0.004387 0.000000 -0.014661 0.000000
# 2 -0.004690 0.027405 -0.010153 0.000000 0.000135 0.000000
# 3 0.004387 -0.010153 0.021167 0.000000 -0.007283 0.000000
# 4 0.000000 0.000000 0.000000 0.036372 0.000000 -0.005911
# 5 -0.014661 0.000135 -0.007283 0.000000 0.035941 0.000000
# 6 0.000000 0.000000 0.000000 -0.005911 0.000000 0.100498
#
#
# Mechanical properties :
#
#
# Convention : Reuss Voigt Hill
#
# Bulk Modulus (GPa) = 22.47394 32.87192 27.67293
# Shear Modulus (GPa) = 18.25087 28.15053 23.20070
#
# Velocity S-wave (km/s) = 2.83801 3.52464 3.19980
# Velocity P-wave (km/s) = 4.54500 5.57412 5.08566
#
# Compressibility (1/GPa) = 0.04449598
#
# Stress axis : x y z
#
# Youngs Moduli (GPa) = 59.40322 36.48998 47.24272
#
# Poissons Ratio (x) = 0.17113 -0.20728
# Poissons Ratio (y) = 0.27859 0.47965
# Poissons Ratio (z) = -0.26063 0.37048
#
# Static dielectric constant tensor:
#      x y z
#    x 1.884990 0.000000 -0.046370 
#    y 0.000000 1.799970 0.000000 
#    z -0.046370 0.000000 1.908850 
# 
# From -- ./inp_files/83814.got.cif
#   From: 2010.05.17/outbox.cif.g08.bks.cpg/sg15_42_cif.got.tgz:83814.got - 2010.06.03 18:47:42.
