data_PCOD9301014
_publ_section_title
;
Structure prediction by ZEFSAII (Michael W. Deem and Ramdas Pophale) SiO2 
 PCOD9301014
Probable space group: C 2/C
;
_chemical_formula_sum "Si O2"
_cell_formula_units_Z 52
_cell_length_a 20.502587
_cell_length_b 19.824191
_cell_length_c 10.528239
_cell_angle_alpha 90.000000
_cell_angle_beta 41.498728
_cell_angle_gamma 90.000000
_cell_volume 2835.394847
_symmetry_space_group_name_H-M "C 2/C"
_symmetry_group_IT_number 15
_symmetry_cell_setting 'monoclinic'
loop_
_space_group_symop_operation_xyz
x,y,z
-x,y,1/2-z
-x,-y,-z
x,-y,1/2+z
1/2+x,1/2+y,z
1/2-x,1/2+y,1/2-z
1/2-x,1/2-y,-z
1/2+x,1/2-y,1/2+z
loop_
_atom_site_type_symbol
_atom_site_label
_atom_site_fract_x
_atom_site_fract_y
_atom_site_fract_z
Si Si1 0.578426 0.142925 0.543193
Si Si2 0.732463 0.720824 0.164239
Si Si3 0.500000 0.841019 0.750000
Si Si4 0.988181 0.244091 0.004998
Si Si5 0.705511 0.301739 0.173068
Si Si6 0.316143 0.937951 0.015050
Si Si7 0.616584 0.983625 0.835417
O O1 0.500000 0.106622 0.750000
O O2 0.682197 0.165110 0.449654
O O3 0.515392 0.206725 0.583401
O O4 0.612256 0.094524 0.381572
O O5 0.615482 0.705359 0.337436
O O6 0.756115 0.771457 0.247841
O O7 0.750000 0.750000 0.000000
O O8 0.519925 0.794238 0.601556
O O9 0.409895 0.890002 0.864414
O O10 0.087627 0.202642 0.840103
O O11 0.750000 0.250000 0.000000
O O12 0.732702 0.380720 0.123666
O O13 0.327103 0.989194 0.880749
O O14 0.329409 0.975165 0.130802
O O15 0.500000 0.000000 0.000000
#
# Coordination Sequence:
#
# PCOD9301014 Si02
#       7
#     8   8   4   8   8   8   8
#     4  11  21  35  54  83 120 150 188 233 290 360
#     4  11  22  34  57  88 120 154 187 240 301 344
#     4  12  18  34  60  82 118 150 190 234 292 358
#     4  11  20  36  58  84 119 154 190 238 297 352
#     4  11  22  37  59  84 116 158 197 240 294 355
#     4  12  22  37  55  86 117 153 195 238 295 359
#     4  12  23  35  56  82 116 155 191 239 300 352
#
# _framework density 18.339597999999999
#
# number of rings (size 3 to 8) (size 9 to 14) (size 15 to 20)
#    0.000    0.615    7.692    1.846    0.000    1.231 
#    0.000    0.000    0.000    0.923    0.000    2.154 
#    0.000    0.000    0.000    0.000    0.000    0.000 
#
# Total GULP energy -144885.400002 kJ/mol
# GULP energy per Si atom -5572.515385 kJ/mol
# Density = 1.829786 g / cm^3
# Si number density = 18.339598 Si / 1000 Ang^3
#
#
#
# Elastic Constant Matrix: (Units=GPa)
#
#
# Indices 1 2 3 4 5 6 
#
# 1 116.6080 37.3580 64.4532 0.0000 -3.6636 0.0000
# 2 37.3580 50.4376 24.6001 0.0000 2.8975 0.0000
# 3 64.4532 24.6001 99.5948 0.0000 0.7449 0.0000
# 4 0.0000 0.0000 0.0000 19.4090 0.0000 -1.5956
# 5 -3.6636 2.8975 0.7449 0.0000 55.1509 0.0000
# 6 0.0000 0.0000 0.0000 -1.5956 0.0000 44.1314
#
#
#
# Elastic Compliance Matrix: (Units=1/GPa)
#
#
# Indices 1 2 3 4 5 6 
#
# 1 0.015626 -0.007646 -0.008235 0.000000 0.001551 0.000000
# 2 -0.007646 0.026352 -0.001547 0.000000 -0.001872 0.000000
# 3 -0.008235 -0.001547 0.015757 0.000000 -0.000679 0.000000
# 4 0.000000 0.000000 0.000000 0.051676 0.000000 0.001868
# 5 0.001551 -0.001872 -0.000679 0.000000 0.018343 0.000000
# 6 0.000000 0.000000 0.000000 0.001868 0.000000 0.022727
#
#
# Mechanical properties :
#
#
# Convention : Reuss Voigt Hill
#
# Bulk Modulus (GPa) = 43.70908 57.71812 50.71360
# Shear Modulus (GPa) = 25.91153 33.08686 29.49919
#
# Velocity S-wave (km/s) = 3.76290 4.25210 4.01496
# Velocity P-wave (km/s) = 6.53943 7.45972 7.01468
#
# Compressibility (1/GPa) = 0.02287854
#
# Stress axis : x y z
#
# Youngs Moduli (GPa) = 63.99522 37.94810 63.46224
#
# Poissons Ratio (x) = 0.29016 0.52264
# Poissons Ratio (y) = 0.48933 0.09815
# Poissons Ratio (z) = 0.52703 0.05869
#
# Static dielectric constant tensor:
#      x y z
#    x 1.809230 0.000000 0.001070 
#    y 0.000000 1.682540 0.000000 
#    z 0.001070 0.000000 1.705950 
# 
# From -- ./inp_files/50584.got.cif
#   From: 2010.05.17/outbox.cif.g08.bks.cpg/sg15_26_cif.got.tgz:50584.got - 2010.06.03 18:47:42.
