data_PCOD9301952
_publ_section_title
;
Structure prediction by ZEFSAII (Michael W. Deem and Ramdas Pophale) SiO2 
 PCOD9301952
Probable space group: C 2/C
;
_chemical_formula_sum "Si O2"
_cell_formula_units_Z 60
_cell_length_a 20.842993
_cell_length_b 18.269405
_cell_length_c 12.157326
_cell_angle_alpha 90.000000
_cell_angle_beta 42.022779
_cell_angle_gamma 90.000000
_cell_volume 3099.025341
_symmetry_space_group_name_H-M "C 2/C"
_symmetry_group_IT_number 15
_symmetry_cell_setting 'monoclinic'
loop_
_space_group_symop_operation_xyz
x,y,z
-x,y,1/2-z
-x,-y,-z
x,-y,1/2+z
1/2+x,1/2+y,z
1/2-x,1/2+y,1/2-z
1/2-x,1/2-y,-z
1/2+x,1/2-y,1/2+z
loop_
_atom_site_type_symbol
_atom_site_label
_atom_site_fract_x
_atom_site_fract_y
_atom_site_fract_z
Si Si1 0.500000 0.655615 0.250000
Si Si2 0.260024 0.155754 0.203696
Si Si3 0.541003 0.231121 0.509823
Si Si4 0.701194 0.409028 0.547257
Si Si5 0.588900 0.304291 0.216386
Si Si6 0.614602 0.847597 0.591240
Si Si7 0.833438 0.684554 0.716298
Si Si8 0.768277 0.921259 0.530555
O O1 0.459036 0.708074 0.396411
O O2 0.411153 0.610234 0.316244
O O3 0.371228 0.176304 0.081619
O O4 0.240581 0.109843 0.118366
O O5 0.205980 0.233626 0.257191
O O6 0.225143 0.111878 0.355362
O O7 0.554395 0.272540 0.376505
O O8 0.437480 0.192925 0.639769
O O9 0.760114 0.358176 0.387261
O O10 0.714096 0.493202 0.498864
O O11 0.500000 0.321938 0.250000
O O12 0.641612 0.235122 0.093037
O O13 0.656631 0.374036 0.137167
O O14 0.500000 0.851966 0.750000
O O15 0.648864 0.855407 0.422620
O O16 0.665695 0.902470 0.608578
#
# Coordination Sequence:
#
# PCOD9301952 Si02
#       8
#     4   8   8   8   8   8   8   8
#     4  12  26  46  66  98 138 178 222 280 338 404
#     4  12  23  45  69  99 132 179 236 270 329 406
#     4  12  22  41  76  98 127 174 241 289 321 382
#     4  12  30  44  66 101 141 182 215 274 347 411
#     4  11  21  40  69 108 127 172 232 283 333 385
#     4  11  21  42  69 102 135 171 234 280 323 390
#     4  12  22  44  72 102 133 176 235 277 325 401
#     4  12  26  43  67 102 143 180 216 279 350 400
#
# _framework density 19.360925999999999
#
# number of rings (size 3 to 8) (size 9 to 14) (size 15 to 20)
#    0.000    0.267    8.000    2.400    2.800    0.000 
#    2.400    2.667    0.000    0.000    0.000    0.000 
#    0.000    0.000    0.000    0.000    0.000    0.000 
#
# Total GULP energy -167792.983895 kJ/mol
# GULP energy per Si atom -5593.099463 kJ/mol
# Density = 1.931686 g / cm^3
# Si number density = 19.360926 Si / 1000 Ang^3
#
#
#
# Elastic Constant Matrix: (Units=GPa)
#
#
# Indices 1 2 3 4 5 6 
#
# 1 96.7785 27.2865 23.2182 0.0000 -11.6851 0.0000
# 2 27.2865 100.3932 28.9965 0.0000 -2.5209 0.0000
# 3 23.2182 28.9965 61.8903 0.0000 -7.5488 0.0000
# 4 0.0000 0.0000 0.0000 -11.8546 0.0000 15.6398
# 5 -11.6851 -2.5209 -7.5488 0.0000 36.6698 0.0000
# 6 0.0000 0.0000 0.0000 15.6398 0.0000 4.0343
#
#
#
# Elastic Compliance Matrix: (Units=1/GPa)
#
#
# Indices 1 2 3 4 5 6 
#
# 1 0.012095 -0.002322 -0.003076 0.000000 0.003061 0.000000
# 2 -0.002322 0.011969 -0.004848 0.000000 -0.000915 0.000000
# 3 -0.003076 -0.004848 0.019923 0.000000 0.002788 0.000000
# 4 0.000000 0.000000 0.000000 -0.013796 0.000000 0.053483
# 5 0.003061 -0.000915 0.002788 0.000000 0.028757 0.000000
# 6 0.000000 0.000000 0.000000 0.053483 0.000000 0.040539
#
#
# Mechanical properties :
#
#
# Convention : Reuss Voigt Hill
#
# Bulk Modulus (GPa) = 42.56300 46.45159 44.50730
# Shear Modulus (GPa) = 39.11995 17.74062 28.43028
#
# Velocity S-wave (km/s) = 4.49994 3.03035 3.83618
# Velocity P-wave (km/s) = 7.00221 6.02400 6.53144
#
# Compressibility (1/GPa) = 0.02349458
#
# Stress axis : x y z
#
# Youngs Moduli (GPa) = 82.67735 83.54701 50.19278
#
# Poissons Ratio (x) = 0.19400 0.15440
# Poissons Ratio (y) = 0.19198 0.24335
# Poissons Ratio (z) = 0.25433 0.40506
#
# Static dielectric constant tensor:
#      x y z
#    x 1.732270 0.000000 -0.011820 
#    y 0.000000 1.636630 0.000000 
#    z -0.011820 0.000000 1.688180 
# 
# From -- ./inp_files/113777.got.cif
#   From: 2010.05.17/outbox.cif.g08.bks.cpg/sg15_57_cif.got.tgz:113777.got - 2010.06.03 18:47:42.
