data_PCOD9301942
_publ_section_title
;
Structure prediction by ZEFSAII (Michael W. Deem and Ramdas Pophale) SiO2 
 PCOD9301942
Probable space group: C 2/C
;
_chemical_formula_sum "Si O2"
_cell_formula_units_Z 60
_cell_length_a 12.107074
_cell_length_b 19.769881
_cell_length_c 24.371107
_cell_angle_alpha 90.000000
_cell_angle_beta 148.143783
_cell_angle_gamma 90.000000
_cell_volume 3078.783844
_symmetry_space_group_name_H-M "C 2/C"
_symmetry_group_IT_number 15
_symmetry_cell_setting 'monoclinic'
loop_
_space_group_symop_operation_xyz
x,y,z
-x,y,1/2-z
-x,-y,-z
x,-y,1/2+z
1/2+x,1/2+y,z
1/2-x,1/2+y,1/2-z
1/2-x,1/2-y,-z
1/2+x,1/2-y,1/2+z
loop_
_atom_site_type_symbol
_atom_site_label
_atom_site_fract_x
_atom_site_fract_y
_atom_site_fract_z
Si Si1 0.823633 0.682577 0.972165
Si Si2 0.905610 0.435515 0.802619
Si Si3 0.774020 0.674630 0.080243
Si Si4 0.500000 0.955249 0.250000
Si Si5 0.576909 0.590136 0.391784
Si Si6 0.342079 0.637905 0.951987
Si Si7 0.149629 0.534327 0.519194
Si Si8 0.717278 0.711988 0.374085
O O1 0.717047 0.746940 0.898492
O O2 0.747845 0.678565 0.003098
O O3 0.784810 0.608420 0.932256
O O4 0.074724 0.696599 0.074398
O O5 0.672492 0.412545 0.718418
O O6 0.026219 0.371853 0.827011
O O7 0.918009 0.496806 0.764630
O O8 0.027124 0.455031 0.909871
O O9 0.570897 0.640913 0.021086
O O10 0.315257 0.907467 0.149841
O O11 0.637108 0.605981 0.479546
O O12 0.662551 0.516997 0.411382
O O13 0.680916 0.648837 0.399034
O O14 0.262546 0.715567 0.921179
O O15 0.000000 0.500000 0.500000
O O16 0.500000 0.718808 0.250000
#
# Coordination Sequence:
#
# PCOD9301942 Si02
#       8
#     8   8   8   4   8   8   8   8
#     4   9  19  37  63  94 121 169 211 257 313 380
#     4  11  25  40  65  95 128 172 214 266 324 391
#     4   9  20  40  64  89 125 165 216 254 321 378
#     4  12  24  42  62  98 128 162 224 262 338 390
#     4  12  25  41  66  97 132 170 217 267 329 389
#     4  11  24  42  66  94 130 169 209 279 322 388
#     4  11  22  41  65  95 134 167 215 269 321 388
#     4  11  21  40  68  96 129 170 216 260 324 389
#
# _framework density 19.488216000000001
#
# number of rings (size 3 to 8) (size 9 to 14) (size 15 to 20)
#    0.000    1.333    3.333    2.800    3.733    1.067 
#    0.000    0.000    0.000    1.600    0.000    0.000 
#    0.000    0.000    0.000    0.000    0.000    0.000 
#
# Total GULP energy -167558.902370 kJ/mol
# GULP energy per Si atom -5585.296746 kJ/mol
# Density = 1.944386 g / cm^3
# Si number density = 19.488216 Si / 1000 Ang^3
#
#
#
# Elastic Constant Matrix: (Units=GPa)
#
#
# Indices 1 2 3 4 5 6 
#
# 1 72.8153 28.4010 16.6657 -0.0001 20.2739 0.0000
# 2 28.4010 152.3089 33.2353 0.0004 23.5678 0.0001
# 3 16.6657 33.2353 67.7109 0.0013 21.5238 -0.0008
# 4 -0.0001 0.0004 0.0013 29.8267 0.0005 5.5815
# 5 20.2739 23.5678 21.5238 0.0005 24.8932 0.0003
# 6 0.0000 0.0001 -0.0008 5.5815 0.0003 29.3470
#
#
#
# Elastic Compliance Matrix: (Units=1/GPa)
#
#
# Indices 1 2 3 4 5 6 
#
# 1 0.017990 -0.001340 0.000668 0.000000 -0.013960 0.000000
# 2 -0.001340 0.007997 -0.002118 0.000000 -0.004649 0.000000
# 3 0.000668 -0.002118 0.020933 -0.000001 -0.016638 0.000001
# 4 0.000000 0.000000 -0.000001 0.034764 0.000000 -0.006612
# 5 -0.013960 -0.004649 -0.016638 0.000000 0.070329 -0.000001
# 6 0.000000 0.000000 0.000001 -0.006612 -0.000001 0.035332
#
#
# Mechanical properties :
#
#
# Convention : Reuss Voigt Hill
#
# Bulk Modulus (GPa) = 24.18997 49.93767 37.06382
# Shear Modulus (GPa) = 24.18896 31.11558 27.65227
#
# Velocity S-wave (km/s) = 3.52690 4.00013 3.77095
# Velocity P-wave (km/s) = 5.38748 6.85674 6.16603
#
# Compressibility (1/GPa) = 0.04133944
#
# Stress axis : x y z
#
# Youngs Moduli (GPa) = 55.58561 125.04824 47.77205
#
# Poissons Ratio (x) = 0.16758 -0.03189
# Poissons Ratio (y) = 0.07449 0.10117
# Poissons Ratio (z) = -0.03711 0.26481
#
# Static dielectric constant tensor:
#      x y z
#    x 1.665780 0.000000 -0.006840 
#    y 0.000000 1.717820 0.000000 
#    z -0.006840 0.000000 1.658770 
# 
# From -- ./inp_files/271050.got.cif
#   From: 2010.05.17/outbox.cif.g08.bks.cpg/sg15_136_cif.got.tgz:271050.got - 2010.06.03 18:47:42.
