data_PCOD9301191
_publ_section_title
;
Structure prediction by ZEFSAII (Michael W. Deem and Ramdas Pophale) SiO2 
 PCOD9301191
Probable space group: C 2/C
;
_chemical_formula_sum "Si O2"
_cell_formula_units_Z 44
_cell_length_a 20.488380
_cell_length_b 11.095076
_cell_length_c 8.304736
_cell_angle_alpha 90.000000
_cell_angle_beta 69.499471
_cell_angle_gamma 90.000000
_cell_volume 1768.275215
_symmetry_space_group_name_H-M "C 2/C"
_symmetry_group_IT_number 15
_symmetry_cell_setting 'monoclinic'
loop_
_space_group_symop_operation_xyz
x,y,z
-x,y,1/2-z
-x,-y,-z
x,-y,1/2+z
1/2+x,1/2+y,z
1/2-x,1/2+y,1/2-z
1/2-x,1/2-y,-z
1/2+x,1/2-y,1/2+z
loop_
_atom_site_type_symbol
_atom_site_label
_atom_site_fract_x
_atom_site_fract_y
_atom_site_fract_z
Si Si1 0.162086 0.572289 0.943368
Si Si2 0.615281 0.689353 0.321116
Si Si3 0.500000 0.500000 0.500000
Si Si4 0.877567 0.813535 0.071168
Si Si5 0.734014 0.852889 0.695447
Si Si6 0.456175 0.910033 0.432373
O O1 0.123025 0.671888 0.869658
O O2 0.204069 0.472164 0.808902
O O3 0.209499 0.636946 0.033776
O O4 0.104508 0.493602 0.086423
O O5 0.543761 0.625178 0.434891
O O6 0.683676 0.637204 0.349791
O O7 0.624533 0.673387 0.121132
O O8 0.575415 0.423605 0.404839
O O9 0.801354 0.768388 0.196551
O O10 0.922013 0.693234 0.067491
O O11 0.500000 0.854245 0.250000
O O12 0.500000 0.000000 0.500000
#
# Coordination Sequence:
#
# PCOD9301191 Si02
#       6
#     8   8   4   8   8   8
#     4  11  24  44  70 110 137 191 249 307 368 443
#     4  12  27  46  73 102 152 195 248 308 377 451
#     4  12  28  44  74 110 154 192 248 306 382 448
#     4  11  25  47  69 107 142 198 241 310 373 446
#     4  11  26  45  78 103 146 193 253 309 370 453
#     4  11  20  38  69  99 137 178 232 296 364 427
#
# _framework density 24.883004
#
# number of rings (size 3 to 8) (size 9 to 14) (size 15 to 20)
#    0.000    0.727    0.000    9.273    5.091    2.909 
#    0.000    1.818    0.000    0.000    0.000    0.000 
#    0.000    0.000    0.000    0.000    0.000    0.000 
#
# Total GULP energy -122578.069330 kJ/mol
# GULP energy per Si atom -5571.730424 kJ/mol
# Density = 2.482637 g / cm^3
# Si number density = 24.883004 Si / 1000 Ang^3
#
#
#
# Elastic Constant Matrix: (Units=GPa)
#
#
# Indices 1 2 3 4 5 6 
#
# 1 131.8075 45.5705 38.3536 0.0000 -12.1729 0.0000
# 2 45.5705 108.8433 8.9110 0.0000 -2.6424 0.0000
# 3 38.3536 8.9110 65.3635 0.0000 -6.0900 0.0000
# 4 0.0000 0.0000 0.0000 21.6817 0.0000 -15.5542
# 5 -12.1729 -2.6424 -6.0900 0.0000 37.4885 0.0000
# 6 0.0000 0.0000 0.0000 -15.5542 0.0000 63.8183
#
#
#
# Elastic Compliance Matrix: (Units=1/GPa)
#
#
# Indices 1 2 3 4 5 6 
#
# 1 0.010813 -0.004014 -0.005581 0.000000 0.002322 0.000000
# 2 -0.004014 0.010789 0.000847 0.000000 -0.000405 0.000000
# 3 -0.005581 0.000847 0.018576 0.000000 0.001265 0.000000
# 4 0.000000 0.000000 0.000000 0.055895 0.000000 0.013623
# 5 0.002322 -0.000405 0.001265 0.000000 0.027606 0.000000
# 6 0.000000 0.000000 0.000000 0.013623 0.000000 0.018990
#
#
# Mechanical properties :
#
#
# Convention : Reuss Voigt Hill
#
# Bulk Modulus (GPa) = 44.08920 54.63161 49.36040
# Shear Modulus (GPa) = 29.81050 38.80964 34.31007
#
# Velocity S-wave (km/s) = 3.46501 3.95357 3.71732
# Velocity P-wave (km/s) = 5.81080 6.54553 6.18908
#
# Compressibility (1/GPa) = 0.02268129
#
# Stress axis : x y z
#
# Youngs Moduli (GPa) = 92.48107 92.68777 53.83156
#
# Poissons Ratio (x) = 0.37204 0.30045
# Poissons Ratio (y) = 0.37121 -0.04558
# Poissons Ratio (z) = 0.51616 -0.07847
#
# Static dielectric constant tensor:
#      x y z
#    x 2.031000 0.000000 -0.038870 
#    y 0.000000 2.009320 0.000000 
#    z -0.038870 0.000000 1.955060 
# 
# From -- ./inp_files/54436.got.cif
#   From: 2010.05.17/outbox.cif.g08.bks.cpg/sg15_28_cif.got.tgz:54436.got - 2010.06.03 18:47:42.
