data_PCOD9301957
_publ_section_title
;
Structure prediction by ZEFSAII (Michael W. Deem and Ramdas Pophale) SiO2 
 PCOD9301957
Probable space group: C 2/C
;
_chemical_formula_sum "Si O2"
_cell_formula_units_Z 56
_cell_length_a 19.702048
_cell_length_b 11.652712
_cell_length_c 12.031560
_cell_angle_alpha 90.000000
_cell_angle_beta 122.019080
_cell_angle_gamma 90.000000
_cell_volume 2342.018956
_symmetry_space_group_name_H-M "C 2/C"
_symmetry_group_IT_number 15
_symmetry_cell_setting 'monoclinic'
loop_
_space_group_symop_operation_xyz
x,y,z
-x,y,1/2-z
-x,-y,-z
x,-y,1/2+z
1/2+x,1/2+y,z
1/2-x,1/2+y,1/2-z
1/2-x,1/2-y,-z
1/2+x,1/2-y,1/2+z
loop_
_atom_site_type_symbol
_atom_site_label
_atom_site_fract_x
_atom_site_fract_y
_atom_site_fract_z
Si Si1 0.577480 0.880743 0.932867
Si Si2 0.000000 0.821641 0.750000
Si Si3 0.163238 0.633782 0.271324
Si Si4 0.500000 0.305724 0.250000
Si Si5 0.628597 0.502661 0.807896
Si Si6 0.256943 0.151763 0.798474
Si Si7 0.409048 0.868361 0.033879
Si Si8 0.235091 0.591038 0.919440
O O1 0.610392 0.871177 0.835867
O O2 0.520251 0.770649 0.877536
O O3 0.543767 0.009350 0.917747
O O4 0.653528 0.872164 0.080105
O O5 0.957628 0.737505 0.625280
O O6 0.937472 0.902289 0.763462
O O7 0.225839 0.736537 0.336504
O O8 0.206335 0.512077 0.315521
O O9 0.118804 0.645828 0.116169
O O10 0.424224 0.387713 0.203926
O O11 0.691847 0.552497 0.772858
O O12 0.685176 0.450384 0.952327
O O13 0.254704 0.186103 0.666136
O O14 0.332290 0.883510 0.048443
#
# Coordination Sequence:
#
# PCOD9301957 Si02
#       8
#     8   4   8   4   8   8   8   8
#     4  11  22  43  70 101 137 180 237 284 348 412
#     4  11  27  46  66 102 151 189 220 292 362 425
#     4  11  21  40  70 100 134 178 234 291 337 409
#     4  11  23  42  68 104 139 181 222 300 352 405
#     4  11  23  46  68 100 144 180 240 282 350 420
#     4  12  22  42  73 102 137 185 238 290 342 414
#     4  11  24  47  68 103 141 183 235 284 354 421
#     4  11  23  43  73 102 136 186 237 289 339 420
#
# _framework density 23.910992
#
# number of rings (size 3 to 8) (size 9 to 14) (size 15 to 20)
#    0.000    0.857    5.714    2.571    0.000    3.429 
#    5.143    4.286    0.000    0.000    0.000    0.000 
#    0.000    0.000    0.000    0.000    0.000    0.000 
#
# Total GULP energy -156549.824087 kJ/mol
# GULP energy per Si atom -5591.065146 kJ/mol
# Density = 2.385657 g / cm^3
# Si number density = 23.910992 Si / 1000 Ang^3
#
#
#
# Elastic Constant Matrix: (Units=GPa)
#
#
# Indices 1 2 3 4 5 6 
#
# 1 105.9574 32.9483 58.9407 0.0000 2.2357 0.0000
# 2 32.9483 131.0769 40.6080 0.0000 21.3955 0.0000
# 3 58.9407 40.6080 111.6513 0.0000 4.6261 0.0000
# 4 0.0000 0.0000 0.0000 18.4517 0.0000 -8.3931
# 5 2.2357 21.3955 4.6261 0.0000 40.8707 0.0000
# 6 0.0000 0.0000 0.0000 -8.3931 0.0000 -10.7184
#
#
#
# Elastic Compliance Matrix: (Units=1/GPa)
#
#
# Indices 1 2 3 4 5 6 
#
# 1 0.013591 -0.001478 -0.006670 0.000000 0.000785 0.000000
# 2 -0.001478 0.009528 -0.002493 0.000000 -0.004625 0.000000
# 3 -0.006670 -0.002493 0.013378 0.000000 0.000156 0.000000
# 4 0.000000 0.000000 0.000000 0.039962 0.000000 -0.031292
# 5 0.000785 -0.004625 0.000156 0.000000 0.026828 0.000000
# 6 0.000000 0.000000 0.000000 -0.031292 0.000000 -0.068794
#
#
# Mechanical properties :
#
#
# Convention : Reuss Voigt Hill
#
# Bulk Modulus (GPa) = 65.72761 68.18661 66.95711
# Shear Modulus (GPa) = 82.17457 24.13338 53.15397
#
# Velocity S-wave (km/s) = 5.86869 3.18040 4.71998
# Velocity P-wave (km/s) = 8.57147 6.48578 7.60051
#
# Compressibility (1/GPa) = 0.01521431
#
# Stress axis : x y z
#
# Youngs Moduli (GPa) = 73.57866 104.95340 74.75129
#
# Poissons Ratio (x) = 0.15515 0.49856
# Poissons Ratio (y) = 0.10877 0.18639
# Poissons Ratio (z) = 0.49073 0.26169
#
# Static dielectric constant tensor:
#      x y z
#    x 2.058350 0.000000 -0.010250 
#    y 0.000000 2.061990 0.000000 
#    z -0.010250 0.000000 1.879060 
# 
# From -- ./inp_files/117707.got.cif
#   From: 2010.05.17/outbox.cif.g08.bks.cpg/sg15_59_cif.got.tgz:117707.got - 2010.06.03 18:47:42.
