data_PCOD9301280
_publ_section_title
;
Structure prediction by ZEFSAII (Michael W. Deem and Ramdas Pophale) SiO2 
 PCOD9301280
Probable space group: C 2/C
;
_chemical_formula_sum "Si O2"
_cell_formula_units_Z 52
_cell_length_a 31.349164
_cell_length_b 13.957671
_cell_length_c 19.272359
_cell_angle_alpha 90.000000
_cell_angle_beta 17.133619
_cell_angle_gamma 90.000000
_cell_volume 2484.323565
_symmetry_space_group_name_H-M "C 2/C"
_symmetry_group_IT_number 15
_symmetry_cell_setting 'monoclinic'
loop_
_space_group_symop_operation_xyz
x,y,z
-x,y,1/2-z
-x,-y,-z
x,-y,1/2+z
1/2+x,1/2+y,z
1/2-x,1/2+y,1/2-z
1/2-x,1/2-y,-z
1/2+x,1/2-y,1/2+z
loop_
_atom_site_type_symbol
_atom_site_label
_atom_site_fract_x
_atom_site_fract_y
_atom_site_fract_z
Si Si1 0.394035 0.648886 0.474276
Si Si2 0.500000 0.009408 0.750000
Si Si3 0.642918 0.340307 0.984604
Si Si4 0.943765 0.609509 0.085872
Si Si5 0.091990 0.634756 0.994936
Si Si6 0.759223 0.147772 0.319514
Si Si7 0.098441 0.772830 0.771772
O O1 0.500000 0.609780 0.250000
O O2 0.244980 0.596901 0.725963
O O3 0.331482 0.752933 0.548145
O O4 0.493082 0.667979 0.386439
O O5 0.511660 0.943393 0.664873
O O6 0.643737 0.072260 0.525930
O O7 0.500000 0.366028 0.250000
O O8 0.778344 0.371575 0.821602
O O9 0.629466 0.226336 0.985300
O O10 0.671286 0.379891 0.862508
O O11 0.000000 0.500000 0.000000
O O12 0.989849 0.655749 0.087994
O O13 0.029797 0.669922 0.894705
O O14 0.874962 0.170130 0.198716
O O15 0.250000 0.750000 0.500000
#
# Coordination Sequence:
#
# PCOD9301280 Si02
#       7
#     8   4   8   8   8   8   8
#     4  11  20  40  67  98 136 184 229 281 345 431
#     4  12  24  46  68 100 138 182 240 296 362 422
#     4  11  24  48  72 101 143 192 236 297 367 439
#     4  12  25  43  73 106 144 183 244 297 361 422
#     4  11  24  41  69 104 137 184 231 294 361 426
#     4  11  22  40  70  96 137 186 234 288 352 429
#     4  12  21  38  69 104 137 188 237 281 364 429
#
# _framework density 20.931249999999999
#
# number of rings (size 3 to 8) (size 9 to 14) (size 15 to 20)
#    0.000    0.615    9.231    0.923    2.154    0.615 
#    2.769    6.923    0.000    0.000    0.000    0.000 
#    0.000    0.000    0.000    0.000    0.000    0.000 
#
# Total GULP energy -145245.339844 kJ/mol
# GULP energy per Si atom -5586.359225 kJ/mol
# Density = 2.088361 g / cm^3
# Si number density = 20.931250 Si / 1000 Ang^3
#
#
#
# Elastic Constant Matrix: (Units=GPa)
#
#
# Indices 1 2 3 4 5 6 
#
# 1 106.9855 4.5616 52.2589 -0.0003 -16.3823 0.0001
# 2 4.5616 69.1451 30.3746 -0.0002 4.5001 0.0000
# 3 52.2589 30.3746 183.7535 -0.0002 15.7030 0.0000
# 4 -0.0003 -0.0002 -0.0002 27.9884 0.0000 3.8717
# 5 -16.3823 4.5001 15.7030 0.0000 42.3585 0.0000
# 6 0.0001 0.0000 0.0000 3.8717 0.0000 14.8011
#
#
#
# Elastic Compliance Matrix: (Units=1/GPa)
#
#
# Indices 1 2 3 4 5 6 
#
# 1 0.012289 0.000597 -0.004125 0.000000 0.006218 0.000000
# 2 0.000597 0.015645 -0.002720 0.000000 -0.000423 0.000000
# 3 -0.004125 -0.002720 0.007411 0.000000 -0.004054 0.000000
# 4 0.000000 0.000000 0.000000 0.037071 0.000000 -0.009697
# 5 0.006218 -0.000423 -0.004054 0.000000 0.027561 0.000000
# 6 0.000000 0.000000 0.000000 -0.009697 0.000000 0.070099
#
#
# Mechanical properties :
#
#
# Convention : Reuss Voigt Hill
#
# Bulk Modulus (GPa) = 43.76523 59.36381 51.56452
# Shear Modulus (GPa) = 26.28975 35.20886 30.74930
#
# Velocity S-wave (km/s) = 3.54786 4.10581 3.83699
# Velocity P-wave (km/s) = 6.14309 7.13441 6.65723
#
# Compressibility (1/GPa) = 0.02284919
#
# Stress axis : x y z
#
# Youngs Moduli (GPa) = 81.37549 63.91715 134.93136
#
# Poissons Ratio (x) = -0.03813 0.55658
# Poissons Ratio (y) = -0.04855 0.36697
# Poissons Ratio (z) = 0.33567 0.17383
#
# Static dielectric constant tensor:
#      x y z
#    x 1.758430 0.000000 0.018680 
#    y 0.000000 1.814380 0.000000 
#    z 0.018680 0.000000 1.747690 
# 
# From -- ./inp_files/225480.got.cif
#   From: 2010.05.17/outbox.cif.g08.bks.cpg/sg15_113_cif.got.tgz:225480.got - 2010.06.03 18:47:42.
