data_PCOD9301641
_publ_section_title
;
Structure prediction by ZEFSAII (Michael W. Deem and Ramdas Pophale) SiO2 
 PCOD9301641
Probable space group: C 2/C
;
_chemical_formula_sum "Si O2"
_cell_formula_units_Z 48
_cell_length_a 8.110456
_cell_length_b 12.363616
_cell_length_c 22.680679
_cell_angle_alpha 90.000000
_cell_angle_beta 109.789464
_cell_angle_gamma 90.000000
_cell_volume 2139.982235
_symmetry_space_group_name_H-M "C 2/C"
_symmetry_group_IT_number 15
_symmetry_cell_setting 'monoclinic'
loop_
_space_group_symop_operation_xyz
x,y,z
-x,y,1/2-z
-x,-y,-z
x,-y,1/2+z
1/2+x,1/2+y,z
1/2-x,1/2+y,1/2-z
1/2-x,1/2-y,-z
1/2+x,1/2-y,1/2+z
loop_
_atom_site_type_symbol
_atom_site_label
_atom_site_fract_x
_atom_site_fract_y
_atom_site_fract_z
Si Si1 0.591142 0.127274 0.090006
Si Si2 0.058254 0.849409 0.394123
Si Si3 0.304640 0.580129 0.464643
Si Si4 0.384283 0.746424 0.376407
Si Si5 0.968545 0.940039 0.678655
Si Si6 0.317051 0.864689 0.030184
O O1 0.576381 0.255741 0.102479
O O2 0.397743 0.086248 0.081584
O O3 0.762509 0.081768 0.142089
O O4 0.610621 0.095638 0.023927
O O5 0.173272 0.875421 0.466445
O O6 0.194355 0.799846 0.362317
O O7 0.981814 0.958869 0.357263
O O8 0.401564 0.660622 0.432515
O O9 0.329178 0.450778 0.467336
O O10 0.427199 0.669494 0.326581
O O11 0.531005 0.837777 0.404880
O O12 0.000000 0.967120 0.750000
O O13 0.250000 0.750000 0.000000
#
# Coordination Sequence:
#
# PCOD9301641 Si02
#       6
#     8   8   8   8   8   8
#     4  11  21  39  64  94 127 159 200 255 319 375
#     4  11  22  41  68  96 126 159 201 263 322 375
#     4  11  21  37  65 102 130 149 197 261 337 379
#     4  11  23  39  64  96 126 158 205 260 318 377
#     4  12  28  44  60  86 126 177 220 249 295 372
#     4  12  20  31  61 100 129 156 190 254 326 375
#
# _framework density 22.430091999999998
#
# number of rings (size 3 to 8) (size 9 to 14) (size 15 to 20)
#    0.000    0.667    6.667    2.500    2.333    2.667 
#    0.000    2.500    0.000    0.000    0.000    0.000 
#    0.000    0.000    0.000    0.000    0.000    0.000 
#
# Total GULP energy -134132.666240 kJ/mol
# GULP energy per Si atom -5588.861093 kJ/mol
# Density = 2.237904 g / cm^3
# Si number density = 22.430092 Si / 1000 Ang^3
#
#
#
# Elastic Constant Matrix: (Units=GPa)
#
#
# Indices 1 2 3 4 5 6 
#
# 1 59.6436 14.7664 8.2321 0.0000 -1.4504 0.0000
# 2 14.7664 117.9528 37.1575 0.0000 4.9569 0.0000
# 3 8.2321 37.1575 62.6289 0.0000 -16.8816 0.0000
# 4 0.0000 0.0000 0.0000 20.9280 0.0000 -7.4829
# 5 -1.4504 4.9569 -16.8816 0.0000 11.7922 0.0000
# 6 0.0000 0.0000 0.0000 -7.4829 0.0000 46.5552
#
#
#
# Elastic Compliance Matrix: (Units=1/GPa)
#
#
# Indices 1 2 3 4 5 6 
#
# 1 0.017415 -0.002224 -0.000229 0.000000 0.002749 0.000000
# 2 -0.002224 0.015680 -0.017686 0.000000 -0.032183 0.000000
# 3 -0.000229 -0.017686 0.046386 0.000000 0.073812 0.000000
# 4 0.000000 0.000000 0.000000 0.050697 0.000000 0.008149
# 5 0.002749 -0.032183 0.073812 0.000000 0.204336 0.000000
# 6 0.000000 0.000000 0.000000 0.008149 0.000000 0.022790
#
#
# Mechanical properties :
#
#
# Convention : Reuss Voigt Hill
#
# Bulk Modulus (GPa) = 25.50692 40.05970 32.78331
# Shear Modulus (GPa) = 12.17588 27.85968 20.01778
#
# Velocity S-wave (km/s) = 2.33241 3.52812 2.99063
# Velocity P-wave (km/s) = 4.31856 5.87328 5.15487
#
# Compressibility (1/GPa) = 0.03920505
#
# Stress axis : x y z
#
# Youngs Moduli (GPa) = 57.42100 63.77480 21.55831
#
# Poissons Ratio (x) = 0.14182 0.00493
# Poissons Ratio (y) = 0.12769 0.38127
# Poissons Ratio (z) = 0.01313 1.12790
#
# Static dielectric constant tensor:
#      x y z
#    x 1.952750 0.000000 -0.066840 
#    y 0.000000 1.990100 0.000000 
#    z -0.066840 0.000000 1.808350 
# 
# From -- ./inp_files/263253.got.cif
#   From: 2010.05.17/outbox.cif.g08.bks.cpg/sg15_132_cif.got.tgz:263253.got - 2010.06.03 18:47:42.
