data_PCOD9301358
_publ_section_title
;
Structure prediction by ZEFSAII (Michael W. Deem and Ramdas Pophale) SiO2 
 PCOD9301358
Probable space group: C 2/C
;
_chemical_formula_sum "Si O2"
_cell_formula_units_Z 48
_cell_length_a 18.925077
_cell_length_b 7.618986
_cell_length_c 14.097426
_cell_angle_alpha 90.000000
_cell_angle_beta 109.328189
_cell_angle_gamma 90.000000
_cell_volume 1918.139463
_symmetry_space_group_name_H-M "C 2/C"
_symmetry_group_IT_number 15
_symmetry_cell_setting 'monoclinic'
loop_
_space_group_symop_operation_xyz
x,y,z
-x,y,1/2-z
-x,-y,-z
x,-y,1/2+z
1/2+x,1/2+y,z
1/2-x,1/2+y,1/2-z
1/2-x,1/2-y,-z
1/2+x,1/2-y,1/2+z
loop_
_atom_site_type_symbol
_atom_site_label
_atom_site_fract_x
_atom_site_fract_y
_atom_site_fract_z
Si Si1 0.822586 0.871120 0.420636
Si Si2 0.806523 0.454469 0.031161
Si Si3 0.570229 0.864003 0.036470
Si Si4 0.945631 0.018347 0.586508
Si Si5 0.898666 0.876960 0.263867
Si Si6 0.583081 0.045437 0.751219
O O1 0.787963 0.687966 0.440864
O O2 0.769068 0.011742 0.448447
O O3 0.834643 0.896015 0.314816
O O4 0.903311 0.869956 0.508389
O O5 0.857951 0.396766 0.143643
O O6 0.861430 0.581932 0.000319
O O7 0.596173 0.866250 0.156143
O O8 0.549342 0.677663 0.985202
O O9 0.500000 0.000000 0.000000
O O10 0.892602 0.059613 0.653516
O O11 0.028968 0.016733 0.665351
O O12 0.914255 0.666678 0.263330
O O13 0.500000 0.088831 0.750000
#
# Coordination Sequence:
#
# PCOD9301358 Si02
#       6
#     8   8   8   8   8   8
#     4  11  26  43  62  93 142 171 206 272 336 386
#     4  11  24  44  63  94 130 177 213 263 329 392
#     4  12  20  39  70  95 123 167 221 270 317 391
#     4  11  23  41  68  98 124 168 220 267 328 383
#     4  11  20  42  67  91 130 165 212 276 320 381
#     4  12  21  40  72  95 119 165 229 268 314 388
#
# _framework density 25.024248
#
# number of rings (size 3 to 8) (size 9 to 14) (size 15 to 20)
#    0.000    0.667    8.333    0.500    0.000    3.333 
#    6.000    0.000    0.000    0.000    0.000    0.000 
#    0.000    0.000    0.000    0.000    0.000    0.000 
#
# Total GULP energy -134191.638930 kJ/mol
# GULP energy per Si atom -5591.318289 kJ/mol
# Density = 2.496729 g / cm^3
# Si number density = 25.024248 Si / 1000 Ang^3
#
#
#
# Elastic Constant Matrix: (Units=GPa)
#
#
# Indices 1 2 3 4 5 6 
#
# 1 134.4382 7.1156 52.4221 0.0000 -37.7689 0.0000
# 2 7.1156 44.5790 3.2367 0.0000 -8.0436 0.0000
# 3 52.4221 3.2367 182.0871 0.0000 -37.1579 0.0000
# 4 0.0000 0.0000 0.0000 34.8675 0.0000 -5.0355
# 5 -37.7689 -8.0436 -37.1579 0.0000 57.7557 0.0000
# 6 0.0000 0.0000 0.0000 -5.0355 0.0000 18.6944
#
#
#
# Elastic Compliance Matrix: (Units=1/GPa)
#
#
# Indices 1 2 3 4 5 6 
#
# 1 0.009558 -0.000484 -0.001705 0.000000 0.005086 0.000000
# 2 -0.000484 0.023047 0.000368 0.000000 0.003130 0.000000
# 3 -0.001705 0.000368 0.006630 0.000000 0.003201 0.000000
# 4 0.000000 0.000000 0.000000 0.029841 0.000000 0.008038
# 5 0.005086 0.003130 0.003201 0.000000 0.023136 0.000000
# 6 0.000000 0.000000 0.000000 0.008038 0.000000 0.055657
#
#
# Mechanical properties :
#
#
# Convention : Reuss Voigt Hill
#
# Bulk Modulus (GPa) = 28.09546 54.07259 41.08403
# Shear Modulus (GPa) = 30.60461 42.15219 36.37840
#
# Velocity S-wave (km/s) = 3.50093 4.10866 3.81691
# Velocity P-wave (km/s) = 5.25297 6.64553 5.98986
#
# Compressibility (1/GPa) = 0.03559293
#
# Stress axis : x y z
#
# Youngs Moduli (GPa) = 104.62815 43.38883 150.83981
#
# Poissons Ratio (x) = 0.02101 0.25721
# Poissons Ratio (y) = 0.05065 -0.05558
# Poissons Ratio (z) = 0.17841 -0.01599
#
# Static dielectric constant tensor:
#      x y z
#    x 2.096350 0.000000 -0.009630 
#    y 0.000000 2.049540 0.000000 
#    z -0.009630 0.000000 1.943200 
# 
# From -- ./inp_files/159715.got.cif
#   From: 2010.05.17/outbox.cif.g08.bks.cpg/sg15_80_cif.got.tgz:159715.got - 2010.06.03 18:47:42.
