data_PCOD9301631
_publ_section_title
;
Structure prediction by ZEFSAII (Michael W. Deem and Ramdas Pophale) SiO2 
 PCOD9301631
Probable space group: C 2/C
;
_chemical_formula_sum "Si O2"
_cell_formula_units_Z 48
_cell_length_a 20.298972
_cell_length_b 8.827926
_cell_length_c 19.265154
_cell_angle_alpha 90.000000
_cell_angle_beta 47.655113
_cell_angle_gamma 90.000000
_cell_volume 2551.587927
_symmetry_space_group_name_H-M "C 2/C"
_symmetry_group_IT_number 15
_symmetry_cell_setting 'monoclinic'
loop_
_space_group_symop_operation_xyz
x,y,z
-x,y,1/2-z
-x,-y,-z
x,-y,1/2+z
1/2+x,1/2+y,z
1/2-x,1/2+y,1/2-z
1/2-x,1/2-y,-z
1/2+x,1/2-y,1/2+z
loop_
_atom_site_type_symbol
_atom_site_label
_atom_site_fract_x
_atom_site_fract_y
_atom_site_fract_z
Si Si1 0.263834 0.080882 0.308041
Si Si2 0.833661 0.146988 0.527596
Si Si3 0.850090 0.839706 0.855993
Si Si4 0.548868 0.060830 0.779787
Si Si5 0.242862 0.061158 0.671710
Si Si6 0.429042 0.927484 0.498438
O O1 0.262983 0.260867 0.312483
O O2 0.196370 0.003016 0.410760
O O3 0.362910 0.021940 0.255843
O O4 0.240557 0.023733 0.247401
O O5 0.868236 0.126905 0.424205
O O6 0.743408 0.246755 0.582722
O O7 0.899159 0.251820 0.527242
O O8 0.918355 0.725496 0.770535
O O9 0.832577 0.990892 0.824427
O O10 0.500000 0.982345 0.750000
O O11 0.475524 0.068726 0.891141
O O12 0.338474 0.022562 0.569568
O O13 0.500000 0.000000 0.500000
#
# Coordination Sequence:
#
# PCOD9301631 Si02
#       6
#     8   8   8   8   8   8
#     4  11  23  40  62  89 126 168 212 257 313 379
#     4   9  19  37  60  86 118 162 208 248 306 378
#     4   9  19  37  61  84 115 162 208 248 309 376
#     4  11  21  39  64  89 122 164 206 257 314 370
#     4  11  23  40  61  89 125 167 211 258 313 382
#     4  11  21  37  64  91 124 163 210 261 311 364
#
# _framework density 18.811814999999999
#
# number of rings (size 3 to 8) (size 9 to 14) (size 15 to 20)
#    0.000    1.667    3.333    3.000    2.333    0.667 
#    0.000    3.333    0.000    0.000    0.000    0.000 
#    0.000    0.000    0.000    0.000    0.000    0.000 
#
# Total GULP energy -133881.421692 kJ/mol
# GULP energy per Si atom -5578.392570 kJ/mol
# Density = 1.876900 g / cm^3
# Si number density = 18.811815 Si / 1000 Ang^3
#
#
#
# Elastic Constant Matrix: (Units=GPa)
#
#
# Indices 1 2 3 4 5 6 
#
# 1 69.3033 32.7460 19.2761 0.0000 9.2531 0.0000
# 2 32.7460 150.9081 51.5812 0.0000 11.5260 0.0000
# 3 19.2761 51.5812 122.8194 0.0000 17.0333 0.0000
# 4 0.0000 0.0000 0.0000 27.0804 0.0000 1.4875
# 5 9.2531 11.5260 17.0333 0.0000 23.4592 0.0000
# 6 0.0000 0.0000 0.0000 1.4875 0.0000 27.6125
#
#
#
# Elastic Compliance Matrix: (Units=1/GPa)
#
#
# Indices 1 2 3 4 5 6 
#
# 1 0.016667 -0.003024 -0.000712 0.000000 -0.004571 0.000000
# 2 -0.003024 0.008341 -0.002919 0.000000 -0.000785 0.000000
# 3 -0.000712 -0.002919 0.010277 0.000000 -0.005747 0.000000
# 4 0.000000 0.000000 0.000000 0.037037 0.000000 -0.001995
# 5 -0.004571 -0.000785 -0.005747 0.000000 0.048989 0.000000
# 6 0.000000 0.000000 0.000000 -0.001995 0.000000 0.036323
#
#
# Mechanical properties :
#
#
# Convention : Reuss Voigt Hill
#
# Bulk Modulus (GPa) = 45.50914 61.13749 53.32332
# Shear Modulus (GPa) = 28.04783 31.59227 29.82005
#
# Velocity S-wave (km/s) = 3.86550 4.10247 3.98575
# Velocity P-wave (km/s) = 6.64583 7.41690 7.04193
#
# Compressibility (1/GPa) = 0.02197361
#
# Stress axis : x y z
#
# Youngs Moduli (GPa) = 60.00052 119.89576 97.30691
#
# Poissons Ratio (x) = 0.36258 0.06926
# Poissons Ratio (y) = 0.18145 0.28407
# Poissons Ratio (z) = 0.04270 0.35001
#
# Static dielectric constant tensor:
#      x y z
#    x 1.677750 0.000000 -0.001430 
#    y 0.000000 1.631960 0.000000 
#    z -0.001430 0.000000 1.708230 
# 
# From -- ./inp_files/180705.got.cif
#   From: 2010.05.17/outbox.cif.g08.bks.cpg/sg15_91_cif.got.tgz:180705.got - 2010.06.03 18:47:42.
