data_PCOD9301547
_publ_section_title
;
Structure prediction by ZEFSAII (Michael W. Deem and Ramdas Pophale) SiO2 
 PCOD9301547
Probable space group: C 2/C
;
_chemical_formula_sum "Si O2"
_cell_formula_units_Z 52
_cell_length_a 15.157033
_cell_length_b 26.212321
_cell_length_c 9.398219
_cell_angle_alpha 90.000000
_cell_angle_beta 138.573457
_cell_angle_gamma 90.000000
_cell_volume 2470.584152
_symmetry_space_group_name_H-M "C 2/C"
_symmetry_group_IT_number 15
_symmetry_cell_setting 'monoclinic'
loop_
_space_group_symop_operation_xyz
x,y,z
-x,y,1/2-z
-x,-y,-z
x,-y,1/2+z
1/2+x,1/2+y,z
1/2-x,1/2+y,1/2-z
1/2-x,1/2-y,-z
1/2+x,1/2-y,1/2+z
loop_
_atom_site_type_symbol
_atom_site_label
_atom_site_fract_x
_atom_site_fract_y
_atom_site_fract_z
Si Si1 0.750862 0.528950 0.064220
Si Si2 0.934457 0.856852 0.815758
Si Si3 0.967915 0.695110 0.541902
Si Si4 0.313967 0.905417 0.883370
Si Si5 0.703633 0.743363 0.278527
Si Si6 0.106558 0.044099 0.595243
Si Si7 0.000000 0.511595 0.750000
O O1 0.726308 0.573744 0.147233
O O2 0.683376 0.478238 0.049768
O O3 0.909291 0.521393 0.244178
O O4 0.698573 0.543475 0.845969
O O5 0.788899 0.883023 0.625747
O O6 0.891232 0.806686 0.850505
O O7 0.000000 0.837427 0.750000
O O8 0.034891 0.901513 0.987444
O O9 0.913451 0.638478 0.452989
O O10 0.841276 0.732574 0.363076
O O11 0.000000 0.697792 0.750000
O O12 0.103623 0.710244 0.626780
O O13 0.395457 0.951979 0.045479
O O14 0.750000 0.750000 0.500000
O O15 0.000000 0.000000 0.500000
#
# Coordination Sequence:
#
# PCOD9301547 Si02
#       7
#     8   8   8   8   8   8   4
#     4  12  25  41  59  86 122 164 203 254 294 363
#     4  11  21  36  59  90 118 156 203 252 313 353
#     4   9  17  33  54  83 118 152 195 251 302 361
#     4  11  22  36  60  83 121 161 200 246 307 362
#     4   9  18  33  54  86 121 152 197 256 307 357
#     4  12  23  40  62  86 121 156 206 253 302 357
#     4  12  22  42  54  86 122 166 204 238 304 366
#
# _framework density 21.047653
#
# number of rings (size 3 to 8) (size 9 to 14) (size 15 to 20)
#    0.000    1.231    3.846    4.154    0.000    0.000 
#    2.769    0.000    0.000    0.923    0.000    4.308 
#    0.000    0.000    0.000    0.000    0.000    0.000 
#
# Total GULP energy -145023.625123 kJ/mol
# GULP energy per Si atom -5577.831735 kJ/mol
# Density = 2.099975 g / cm^3
# Si number density = 21.047653 Si / 1000 Ang^3
#
#
#
# Elastic Constant Matrix: (Units=GPa)
#
#
# Indices 1 2 3 4 5 6 
#
# 1 51.1846 4.6895 -0.1220 0.0000 19.2231 0.0000
# 2 4.6895 69.5405 20.0704 0.0000 8.6408 0.0000
# 3 -0.1220 20.0704 48.9100 0.0000 9.1459 0.0000
# 4 0.0000 0.0000 0.0000 42.8700 0.0000 19.5491
# 5 19.2231 8.6408 9.1459 0.0000 22.7810 0.0000
# 6 0.0000 0.0000 0.0000 19.5491 0.0000 25.1678
#
#
#
# Elastic Compliance Matrix: (Units=1/GPa)
#
#
# Indices 1 2 3 4 5 6 
#
# 1 0.029758 -0.000136 0.005207 0.000000 -0.027150 0.000000
# 2 -0.000136 0.016620 -0.006123 0.000000 -0.003731 0.000000
# 3 0.005207 -0.006123 0.025254 0.000000 -0.012210 0.000000
# 4 0.000000 0.000000 0.000000 0.036120 0.000000 -0.028057
# 5 -0.027150 -0.003731 -0.012210 0.000000 0.073123 0.000000
# 6 0.000000 0.000000 0.000000 -0.028057 0.000000 0.061526
#
#
# Mechanical properties :
#
#
# Convention : Reuss Voigt Hill
#
# Bulk Modulus (GPa) = 14.38246 24.32343 19.35295
# Shear Modulus (GPa) = 18.67883 27.83023 23.25453
#
# Velocity S-wave (km/s) = 2.98225 3.64022 3.32754
# Velocity P-wave (km/s) = 4.32510 5.40830 4.89675
#
# Compressibility (1/GPa) = 0.06952912
#
# Stress axis : x y z
#
# Youngs Moduli (GPa) = 33.60391 60.16847 39.59693
#
# Poissons Ratio (x) = 0.00819 -0.20618
# Poissons Ratio (y) = 0.00457 0.24244
# Poissons Ratio (z) = -0.17497 0.36840
#
# Static dielectric constant tensor:
#      x y z
#    x 1.847610 0.000000 -0.037680 
#    y 0.000000 1.781260 0.000000 
#    z -0.037680 0.000000 1.830290 
# 
# From -- ./inp_files/44931.got.cif
#   From: 2010.05.17/outbox.cif.g08.bks.cpg/sg15_23_cif.got.tgz:44931.got - 2010.06.03 18:47:42.
