data_PCOD9301301
_publ_section_title
;
Structure prediction by ZEFSAII (Michael W. Deem and Ramdas Pophale) SiO2 
 PCOD9301301
Probable space group: C 2/C
;
_chemical_formula_sum "Si O2"
_cell_formula_units_Z 48
_cell_length_a 15.070851
_cell_length_b 15.317831
_cell_length_c 13.879994
_cell_angle_alpha 90.000000
_cell_angle_beta 46.027496
_cell_angle_gamma 90.000000
_cell_volume 2306.001507
_symmetry_space_group_name_H-M "C 2/C"
_symmetry_group_IT_number 15
_symmetry_cell_setting 'monoclinic'
loop_
_space_group_symop_operation_xyz
x,y,z
-x,y,1/2-z
-x,-y,-z
x,-y,1/2+z
1/2+x,1/2+y,z
1/2-x,1/2+y,1/2-z
1/2-x,1/2-y,-z
1/2+x,1/2-y,1/2+z
loop_
_atom_site_type_symbol
_atom_site_label
_atom_site_fract_x
_atom_site_fract_y
_atom_site_fract_z
Si Si1 0.262100 0.847858 0.956600
Si Si2 0.235469 0.044313 0.665583
Si Si3 0.000000 0.562715 0.250000
Si Si4 0.309360 0.601354 0.435641
Si Si5 0.388411 0.092330 0.738729
Si Si6 0.965297 0.043258 0.925059
Si Si7 0.500000 0.751759 0.250000
O O1 0.387284 0.873251 0.809461
O O2 0.250000 0.750000 0.000000
O O3 0.282082 0.905108 0.037507
O O4 0.141390 0.883980 0.993212
O O5 0.309227 0.071414 0.704437
O O6 0.094058 0.075033 0.785711
O O7 0.233854 0.942890 0.632595
O O8 0.981540 0.489094 0.180356
O O9 0.204420 0.599205 0.598060
O O10 0.409372 0.533611 0.402552
O O11 0.382713 0.691089 0.364004
O O12 0.462351 0.183124 0.691035
O O13 0.000000 0.000000 0.000000
#
# Coordination Sequence:
#
# PCOD9301301 Si02
#       7
#     8   8   4   8   8   8   4
#     4  11  25  41  64  97 134 174 220 273 329 392
#     4  11  22  43  69  95 129 174 222 267 338 395
#     4  11  22  46  65  90 138 172 211 280 330 397
#     4  11  20  42  65  95 126 170 222 274 324 387
#     4  11  24  43  66  97 132 175 219 269 337 396
#     4  11  20  40  72  92 128 175 224 267 330 395
#     4  11  24  40  65  94 138 170 221 282 322 385
#
# _framework density 20.815251
#
# number of rings (size 3 to 8) (size 9 to 14) (size 15 to 20)
#    0.000    1.000    6.667    2.000    2.333    2.000 
#    3.000    0.000    0.000    0.000    0.000    0.000 
#    0.000    0.000    0.000    0.000    0.000    0.000 
#
# Total GULP energy -133770.642485 kJ/mol
# GULP energy per Si atom -5573.776770 kJ/mol
# Density = 2.076787 g / cm^3
# Si number density = 20.815251 Si / 1000 Ang^3
#
#
#
# Elastic Constant Matrix: (Units=GPa)
#
#
# Indices 1 2 3 4 5 6 
#
# 1 144.3378 50.7143 11.8828 0.0000 2.0038 0.0000
# 2 50.7143 141.7081 5.7943 0.0000 -6.8670 0.0000
# 3 11.8828 5.7943 25.3751 0.0000 1.0349 0.0000
# 4 0.0000 0.0000 0.0000 20.0145 0.0000 -9.3520
# 5 2.0038 -6.8670 1.0349 0.0000 23.3898 0.0000
# 6 0.0000 0.0000 0.0000 -9.3520 0.0000 36.1507
#
#
#
# Elastic Compliance Matrix: (Units=1/GPa)
#
#
# Indices 1 2 3 4 5 6 
#
# 1 0.008218 -0.002881 -0.003133 0.000000 -0.001411 0.000000
# 2 -0.002881 0.008245 -0.000643 0.000000 0.002696 0.000000
# 3 -0.003133 -0.000643 0.041094 0.000000 -0.001739 0.000000
# 4 0.000000 0.000000 0.000000 0.056834 0.000000 0.014703
# 5 -0.001411 0.002696 -0.001739 0.000000 0.043743 0.000000
# 6 0.000000 0.000000 0.000000 0.014703 0.000000 0.031465
#
#
# Mechanical properties :
#
#
# Convention : Reuss Voigt Hill
#
# Bulk Modulus (GPa) = 22.60331 49.80044 36.20187
# Shear Modulus (GPa) = 22.97147 32.11296 27.54222
#
# Velocity S-wave (km/s) = 3.32563 3.93206 3.64149
# Velocity P-wave (km/s) = 5.06251 6.67770 5.92540
#
# Compressibility (1/GPa) = 0.04424131
#
# Stress axis : x y z
#
# Youngs Moduli (GPa) = 121.68261 121.28723 24.33471
#
# Poissons Ratio (x) = 0.34947 0.07624
# Poissons Ratio (y) = 0.35061 0.01566
# Poissons Ratio (z) = 0.38122 0.07803
#
# Static dielectric constant tensor:
#      x y z
#    x 2.054420 0.000000 -0.921160 
#    y 0.000000 1.776800 0.000000 
#    z -0.921160 0.000000 4.824290 
# 
# From -- ./inp_files/153821.got.cif
#   From: 2010.05.17/outbox.cif.g08.bks.cpg/sg15_77_cif.got.tgz:153821.got - 2010.06.03 18:47:42.
