data_PCOD9301937
_publ_section_title
;
Structure prediction by ZEFSAII (Michael W. Deem and Ramdas Pophale) SiO2 
 PCOD9301937
Probable space group: C 2/C
;
_chemical_formula_sum "Si O2"
_cell_formula_units_Z 44
_cell_length_a 21.378474
_cell_length_b 12.295913
_cell_length_c 14.718224
_cell_angle_alpha 90.000000
_cell_angle_beta 26.626002
_cell_angle_gamma 90.000000
_cell_volume 1733.926409
_symmetry_space_group_name_H-M "C 2/C"
_symmetry_group_IT_number 15
_symmetry_cell_setting 'monoclinic'
loop_
_space_group_symop_operation_xyz
x,y,z
-x,y,1/2-z
-x,-y,-z
x,-y,1/2+z
1/2+x,1/2+y,z
1/2-x,1/2+y,1/2-z
1/2-x,1/2-y,-z
1/2+x,1/2-y,1/2+z
loop_
_atom_site_type_symbol
_atom_site_label
_atom_site_fract_x
_atom_site_fract_y
_atom_site_fract_z
Si Si1 0.000000 0.969652 0.750000
Si Si2 0.539949 0.390398 0.892971
Si Si3 0.727293 0.649955 0.461004
Si Si4 0.023754 0.343941 0.968568
Si Si5 0.361115 0.919611 0.489811
Si Si6 0.884640 0.339362 0.982880
O O1 0.016542 0.901587 0.636736
O O2 0.125897 0.051867 0.610500
O O3 0.708329 0.367748 0.671142
O O4 0.500000 0.500000 0.000000
O O5 0.468321 0.286265 0.032336
O O6 0.750000 0.750000 0.500000
O O7 0.878654 0.609026 0.238463
O O8 0.673898 0.716675 0.442956
O O9 0.883439 0.362088 0.094347
O O10 0.076901 0.394922 0.991246
O O11 0.500000 0.894248 0.250000
O O12 0.323113 0.047369 0.527668
O O13 0.000000 0.322991 0.750000
#
# Coordination Sequence:
#
# PCOD9301937 Si02
#       6
#     4   8   8   8   8   8
#     4  12  26  44  78 108 152 198 238 306 380 434
#     4  12  27  50  72 110 148 192 249 306 372 449
#     4  12  21  41  73 107 142 186 243 308 364 430
#     4  12  25  43  72 102 145 195 244 303 372 443
#     4  11  27  47  71 104 149 194 247 301 371 459
#     4  11  21  40  68 104 134 180 246 306 359 429
#
# _framework density 25.375931999999999
#
# number of rings (size 3 to 8) (size 9 to 14) (size 15 to 20)
#    0.000    0.364    2.727    7.091    3.818    0.727 
#    6.545    0.000    0.000    0.000    0.000    0.000 
#    0.000    0.000    0.000    0.000    0.000    0.000 
#
# Total GULP energy -122534.936109 kJ/mol
# GULP energy per Si atom -5569.769823 kJ/mol
# Density = 2.531817 g / cm^3
# Si number density = 25.375932 Si / 1000 Ang^3
#
#
#
# Elastic Constant Matrix: (Units=GPa)
#
#
# Indices 1 2 3 4 5 6 
#
# 1 153.2264 -6.8982 16.1600 0.0000 18.5495 0.0000
# 2 -6.8982 67.2692 6.1656 0.0000 -13.0375 0.0000
# 3 16.1600 6.1656 94.4857 0.0000 3.3759 0.0000
# 4 0.0000 0.0000 0.0000 58.7278 0.0000 -15.5493
# 5 18.5495 -13.0375 3.3759 0.0000 21.9302 0.0000
# 6 0.0000 0.0000 0.0000 -15.5493 0.0000 43.4052
#
#
#
# Elastic Compliance Matrix: (Units=1/GPa)
#
#
# Indices 1 2 3 4 5 6 
#
# 1 0.007380 -0.000373 -0.001012 0.000000 -0.006308 0.000000
# 2 -0.000373 0.017023 -0.001428 0.000000 0.010656 0.000000
# 3 -0.001012 -0.001428 0.010910 0.000000 -0.001672 0.000000
# 4 0.000000 0.000000 0.000000 0.018812 0.000000 0.006739
# 5 -0.006308 0.010656 -0.001672 0.000000 0.057527 0.000000
# 6 0.000000 0.000000 0.000000 0.006739 0.000000 0.025453
#
#
# Mechanical properties :
#
#
# Convention : Reuss Voigt Hill
#
# Bulk Modulus (GPa) = 33.68529 38.42625 36.05577
# Shear Modulus (GPa) = 32.75951 44.78288 38.77120
#
# Velocity S-wave (km/s) = 3.59690 4.20548 3.91304
# Velocity P-wave (km/s) = 5.52753 6.22552 5.88688
#
# Compressibility (1/GPa) = 0.02968655
#
# Stress axis : x y z
#
# Youngs Moduli (GPa) = 135.50237 58.74238 91.66170
#
# Poissons Ratio (x) = 0.02191 0.09281
# Poissons Ratio (y) = 0.05054 0.13087
# Poissons Ratio (z) = 0.13719 0.08387
#
# Static dielectric constant tensor:
#      x y z
#    x 6.260930 0.000000 -1.403800 
#    y 0.000000 2.057250 0.000000 
#    z -1.403800 0.000000 2.572740 
# 
# From -- ./inp_files/168396.got.cif
#   From: 2010.05.17/outbox.cif.g08.bks.cpg/sg15_85_cif.got.tgz:168396.got - 2010.06.03 18:47:42.
