data_PCOD9301436
_publ_section_title
;
Structure prediction by ZEFSAII (Michael W. Deem and Ramdas Pophale) SiO2 
 PCOD9301436
Probable space group: C 2/C
;
_chemical_formula_sum "Si O2"
_cell_formula_units_Z 60
_cell_length_a 21.217906
_cell_length_b 16.511338
_cell_length_c 8.344145
_cell_angle_alpha 90.000000
_cell_angle_beta 77.849292
_cell_angle_gamma 90.000000
_cell_volume 2857.765843
_symmetry_space_group_name_H-M "C 2/C"
_symmetry_group_IT_number 15
_symmetry_cell_setting 'monoclinic'
loop_
_space_group_symop_operation_xyz
x,y,z
-x,y,1/2-z
-x,-y,-z
x,-y,1/2+z
1/2+x,1/2+y,z
1/2-x,1/2+y,1/2-z
1/2-x,1/2-y,-z
1/2+x,1/2-y,1/2+z
loop_
_atom_site_type_symbol
_atom_site_label
_atom_site_fract_x
_atom_site_fract_y
_atom_site_fract_z
Si Si1 0.471725 0.580758 0.942739
Si Si2 0.361830 0.087529 0.748455
Si Si3 0.500000 0.867707 0.250000
Si Si4 0.023893 0.253349 0.925750
Si Si5 0.660203 0.761471 0.714553
Si Si6 0.692881 0.930302 0.572831
Si Si7 0.289668 0.249804 0.817524
Si Si8 0.166577 0.133052 0.444623
O O1 0.500000 0.584670 0.750000
O O2 0.493286 0.668165 0.998207
O O3 0.500000 0.500000 0.000000
O O4 0.394885 0.577359 0.999414
O O5 0.436029 0.079594 0.756020
O O6 0.345062 0.077721 0.571936
O O7 0.340885 0.178712 0.800492
O O8 0.319225 0.019797 0.857449
O O9 0.491237 0.816140 0.421682
O O10 0.100937 0.241765 0.862009
O O11 0.000000 0.272285 0.750000
O O12 0.664163 0.858351 0.698253
O O13 0.731760 0.732539 0.723419
O O14 0.649525 0.714938 0.553366
O O15 0.768708 0.909182 0.525714
O O16 0.320253 0.333904 0.741338
O O17 0.250000 0.250000 0.000000
#
# Coordination Sequence:
#
# PCOD9301436 Si02
#       8
#     8   8   4   8   8   8   8   8
#     4  11  25  44  66 102 142 182 234 286 357 425
#     4  12  26  46  63 103 137 176 228 284 355 413
#     4  12  28  46  70 102 140 182 240 294 338 430
#     4  11  23  44  74  99 137 187 234 279 354 418
#     4  11  20  45  70  95 129 183 228 284 336 412
#     4  11  26  42  70  97 138 174 229 287 350 409
#     4  11  23  41  71 103 132 171 237 289 341 417
#     4  11  21  47  72  93 134 189 228 286 345 413
#
# _framework density 20.995422999999999
#
# number of rings (size 3 to 8) (size 9 to 14) (size 15 to 20)
#    0.000    0.800    5.333    3.200    6.533    2.667 
#    1.200    0.000    0.000    0.000    0.000    0.000 
#    0.000    0.000    0.000    0.000    0.000    0.000 
#
# Total GULP energy -167456.663856 kJ/mol
# GULP energy per Si atom -5581.888795 kJ/mol
# Density = 2.094764 g / cm^3
# Si number density = 20.995423 Si / 1000 Ang^3
#
#
#
# Elastic Constant Matrix: (Units=GPa)
#
#
# Indices 1 2 3 4 5 6 
#
# 1 128.2811 42.9249 19.9670 0.0000 -19.5537 0.0000
# 2 42.9249 53.6960 18.5180 0.0000 6.5218 0.0000
# 3 19.9670 18.5180 74.5318 0.0000 -6.8591 0.0000
# 4 0.0000 0.0000 0.0000 16.8929 0.0000 0.8617
# 5 -19.5537 6.5218 -6.8591 0.0000 26.2607 0.0000
# 6 0.0000 0.0000 0.0000 0.8617 0.0000 28.6152
#
#
#
# Elastic Compliance Matrix: (Units=1/GPa)
#
#
# Indices 1 2 3 4 5 6 
#
# 1 0.014353 -0.013487 0.000817 0.000000 0.014250 0.000000
# 2 -0.013487 0.034199 -0.006752 0.000000 -0.020299 0.000000
# 3 0.000817 -0.006752 0.015458 0.000000 0.006323 0.000000
# 4 0.000000 0.000000 0.000000 0.059288 0.000000 -0.001785
# 5 0.014250 -0.020299 0.006323 0.000000 0.055383 0.000000
# 6 0.000000 0.000000 0.000000 -0.001785 0.000000 0.035000
#
#
# Mechanical properties :
#
#
# Convention : Reuss Voigt Hill
#
# Bulk Modulus (GPa) = 39.73536 46.59207 43.16372
# Shear Modulus (GPa) = 19.16358 26.02701 22.59529
#
# Velocity S-wave (km/s) = 3.02445 3.52469 3.28411
# Velocity P-wave (km/s) = 5.58240 6.22931 5.91471
#
# Compressibility (1/GPa) = 0.02516650
#
# Stress axis : x y z
#
# Youngs Moduli (GPa) = 69.67116 29.24101 64.69294
#
# Poissons Ratio (x) = 0.39436 -0.05286
# Poissons Ratio (y) = 0.93962 0.43680
# Poissons Ratio (z) = -0.05693 0.19743
#
# Static dielectric constant tensor:
#      x y z
#    x 1.778040 0.000000 0.064430 
#    y 0.000000 2.272590 0.000000 
#    z 0.064430 0.000000 1.703870 
# 
# From -- ./inp_files/56566.got.cif
#   From: 2010.05.17/outbox.cif.g08.bks.cpg/sg15_29_cif.got.tgz:56566.got - 2010.06.03 18:47:42.
