data_PCOD9301793
_publ_section_title
;
Structure prediction by ZEFSAII (Michael W. Deem and Ramdas Pophale) SiO2 
 PCOD9301793
Probable space group: C 2/C
;
_chemical_formula_sum "Si O2"
_cell_formula_units_Z 48
_cell_length_a 16.246615
_cell_length_b 30.490911
_cell_length_c 16.869727
_cell_angle_alpha 90.000000
_cell_angle_beta 162.502824
_cell_angle_gamma 90.000000
_cell_volume 2512.553121
_symmetry_space_group_name_H-M "C 2/C"
_symmetry_group_IT_number 15
_symmetry_cell_setting 'monoclinic'
loop_
_space_group_symop_operation_xyz
x,y,z
-x,y,1/2-z
-x,-y,-z
x,-y,1/2+z
1/2+x,1/2+y,z
1/2-x,1/2+y,1/2-z
1/2-x,1/2-y,-z
1/2+x,1/2-y,1/2+z
loop_
_atom_site_type_symbol
_atom_site_label
_atom_site_fract_x
_atom_site_fract_y
_atom_site_fract_z
Si Si1 0.431029 0.281839 0.453545
Si Si2 0.541453 0.909489 0.694337
Si Si3 0.117049 0.867129 0.186284
Si Si4 0.489965 0.350284 0.651865
Si Si5 0.436291 0.902162 0.324539
Si Si6 0.188460 0.498931 0.249456
O O1 0.427839 0.316246 0.377492
O O2 0.439895 0.313019 0.539855
O O3 0.175778 0.251207 0.198055
O O4 0.500000 0.908417 0.750000
O O5 0.295288 0.883951 0.424143
O O6 0.598974 0.959093 0.718361
O O7 0.816329 0.885464 0.920551
O O8 0.271816 0.888120 0.252931
O O9 0.500000 0.332024 0.750000
O O10 0.231774 0.381836 0.402447
O O11 0.764951 0.379728 0.892651
O O12 0.397911 0.954270 0.285568
O O13 0.500000 0.500000 0.500000
O O14 0.000000 0.500000 0.000000
#
# Coordination Sequence:
#
# PCOD9301793 Si02
#       6
#     8   8   8   8   8   8
#     4  11  23  41  68  95 118 160 217 260 312 389
#     4  12  24  40  64  98 128 165 210 262 317 363
#     4  11  22  42  66  88 126 164 210 261 310 380
#     4  11  24  39  60  94 135 169 204 259 319 365
#     4  11  21  39  64  88 125 178 221 245 297 373
#     4  12  22  39  64  93 128 172 218 259 296 362
#
# _framework density 19.104074000000001
#
# number of rings (size 3 to 8) (size 9 to 14) (size 15 to 20)
#    0.000    0.667    3.333    7.000    0.000    2.000 
#    0.000    0.000    0.000   10.000    0.000    0.000 
#    0.000    0.000    0.000    0.000    0.000    0.000 
#
# Total GULP energy -133853.282047 kJ/mol
# GULP energy per Si atom -5577.220085 kJ/mol
# Density = 1.906059 g / cm^3
# Si number density = 19.104074 Si / 1000 Ang^3
#
#
#
# Elastic Constant Matrix: (Units=GPa)
#
#
# Indices 1 2 3 4 5 6 
#
# 1 -346.6790 -69.6786 -418.1602 0.0691 -22.8074 -0.0811
# 2 -69.6786 158.7929 -43.3616 0.0136 -6.1525 -0.0249
# 3 -418.1602 -43.3616 -305.1847 0.0612 -12.7098 -0.0743
# 4 0.0691 0.0136 0.0612 34.6169 0.0003 9.4456
# 5 -22.8074 -6.1525 -12.7098 0.0003 37.9718 0.0003
# 6 -0.0811 -0.0249 -0.0743 9.4456 0.0003 2.1371
#
#
#
# Elastic Compliance Matrix: (Units=1/GPa)
#
#
# Indices 1 2 3 4 5 6 
#
# 1 0.004448 0.000294 -0.006164 -0.000065 0.000656 0.000246
# 2 0.000294 0.006100 -0.001300 0.000052 0.000730 -0.000194
# 3 -0.006164 -0.001300 0.005441 -0.000094 -0.002092 0.000358
# 4 -0.000065 0.000052 -0.000094 -0.140253 -0.000066 0.619882
# 5 0.000656 0.000730 -0.002092 -0.000066 0.026148 0.000249
# 6 0.000246 -0.000194 0.000358 0.619882 0.000249 -2.271802
#
#
# Mechanical properties :
#
#
# Convention : Reuss Voigt Hill
#
# Bulk Modulus (GPa) = 606.41260 -172.83019 216.79120
# Shear Modulus (GPa) = -2.12312 17.48713 7.68201
#
# Velocity S-wave (km/s) = -1.05535 3.02878 2.00745
# Velocity P-wave (km/s) = 17.79410 8.85623 10.91323
#
# Compressibility (1/GPa) = 0.00164904
#
# Stress axis : x y z
#
# Youngs Moduli (GPa) = 224.80597 163.93921 183.78660
#
# Poissons Ratio (x) = -0.04822 1.13289
# Poissons Ratio (y) = -0.06612 0.23893
# Poissons Ratio (z) = 1.38574 0.21313
#
# Static dielectric constant tensor:
#      x y z
#    x 1.620720 0.000020 -0.000050 
#    y 0.000020 1.552110 0.000070 
#    z -0.000050 0.000070 1.580710 
# 
# From -- ./inp_files/157699.got.cif
#   From: 2010.05.17/outbox.cif.g08.bks.cpg/sg15_79_cif.got.tgz:157699.got - 2010.06.03 18:47:42.
