data_PCOD9301029
_publ_section_title
;
Structure prediction by ZEFSAII (Michael W. Deem and Ramdas Pophale) SiO2 
 PCOD9301029
Probable space group: C 2/C
;
_chemical_formula_sum "Si O2"
_cell_formula_units_Z 64
_cell_length_a 21.400893
_cell_length_b 13.687709
_cell_length_c 11.929538
_cell_angle_alpha 90.000000
_cell_angle_beta 70.503044
_cell_angle_gamma 90.000000
_cell_volume 3294.132059
_symmetry_space_group_name_H-M "C 2/C"
_symmetry_group_IT_number 15
_symmetry_cell_setting 'monoclinic'
loop_
_space_group_symop_operation_xyz
x,y,z
-x,y,1/2-z
-x,-y,-z
x,-y,1/2+z
1/2+x,1/2+y,z
1/2-x,1/2+y,1/2-z
1/2-x,1/2-y,-z
1/2+x,1/2-y,1/2+z
loop_
_atom_site_type_symbol
_atom_site_label
_atom_site_fract_x
_atom_site_fract_y
_atom_site_fract_z
Si Si1 0.712068 0.638872 0.321102
Si Si2 0.444673 0.954902 0.207598
Si Si3 0.605699 0.206186 0.931193
Si Si4 0.478739 0.169005 0.136821
Si Si5 0.674658 0.076184 0.582249
Si Si6 0.728657 0.116662 0.969464
Si Si7 0.840375 0.717570 0.108936
Si Si8 0.214709 0.091378 0.802179
O O1 0.645780 0.704446 0.350900
O O2 0.737810 0.647160 0.434588
O O3 0.772526 0.676108 0.206528
O O4 0.699093 0.523616 0.309405
O O5 0.500000 0.902709 0.250000
O O6 0.409797 0.882729 0.143184
O O7 0.387234 0.982657 0.329563
O O8 0.478095 0.049882 0.132770
O O9 0.657882 0.167138 0.992009
O O10 0.533537 0.221864 0.027649
O O11 0.500000 0.193339 0.250000
O O12 0.404393 0.192941 0.144468
O O13 0.654314 0.165465 0.515193
O O14 0.719865 0.103938 0.660565
O O15 0.715520 0.999100 0.484995
O O16 0.771400 0.130084 0.831523
O O17 0.835797 0.834631 0.109112
#
# Coordination Sequence:
#
# PCOD9301029 Si02
#       8
#     8   8   8   8   8   8   8   8
#     4  11  24  39  62  95 122 159 211 259 307 362
#     4  11  21  38  58  90 127 161 198 242 307 380
#     4  12  22  39  62  89 123 165 202 252 310 370
#     4  11  24  38  59  94 127 158 205 249 311 369
#     4  11  21  37  60  91 126 156 200 252 310 369
#     4  11  20  36  62  88 123 152 203 252 313 357
#     4  12  22  40  63  89 128 164 206 253 310 373
#     4  11  23  39  59  92 118 162 204 261 301 362
#
# _framework density 19.428485999999999
#
# number of rings (size 3 to 8) (size 9 to 14) (size 15 to 20)
#    0.000    0.750    3.750    6.375    1.750    0.000 
#    0.000    0.625    0.000    0.750    0.000    0.000 
#    0.000    0.000    0.000    0.000    0.000    0.000 
#
# Total GULP energy -178598.790007 kJ/mol
# GULP energy per Si atom -5581.212188 kJ/mol
# Density = 1.938427 g / cm^3
# Si number density = 19.428486 Si / 1000 Ang^3
#
#
#
# Elastic Constant Matrix: (Units=GPa)
#
#
# Indices 1 2 3 4 5 6 
#
# 1 76.2265 33.9838 15.5832 0.0000 -13.4462 0.0000
# 2 33.9838 77.1538 11.1534 0.0000 -7.6811 0.0000
# 3 15.5832 11.1534 44.9941 0.0000 -12.9691 0.0000
# 4 0.0000 0.0000 0.0000 27.6548 0.0000 23.5716
# 5 -13.4462 -7.6811 -12.9691 0.0000 22.0587 0.0000
# 6 0.0000 0.0000 0.0000 23.5716 0.0000 127.1536
#
#
#
# Elastic Compliance Matrix: (Units=1/GPa)
#
#
# Indices 1 2 3 4 5 6 
#
# 1 0.017920 -0.006830 -0.002469 0.000000 0.007094 0.000000
# 2 -0.006830 0.016246 -0.001482 0.000000 0.000622 0.000000
# 3 -0.002469 -0.001482 0.027531 0.000000 0.014165 0.000000
# 4 0.000000 0.000000 0.000000 0.042946 0.000000 -0.007961
# 5 0.007094 0.000622 0.014165 0.000000 0.058202 0.000000
# 6 0.000000 0.000000 0.000000 -0.007961 0.000000 0.009340
#
#
# Mechanical properties :
#
#
# Convention : Reuss Voigt Hill
#
# Bulk Modulus (GPa) = 24.91634 35.53502 30.22568
# Shear Modulus (GPa) = 24.14008 44.55037 34.34522
#
# Velocity S-wave (km/s) = 3.52875 4.79377 4.20905
# Velocity P-wave (km/s) = 5.42727 6.99787 6.26200
#
# Compressibility (1/GPa) = 0.04013431
#
# Stress axis : x y z
#
# Youngs Moduli (GPa) = 55.80431 61.55455 36.32332
#
# Poissons Ratio (x) = 0.42042 0.08967
# Poissons Ratio (y) = 0.38115 0.05384
# Poissons Ratio (z) = 0.13776 0.09124
#
# Static dielectric constant tensor:
#      x y z
#    x 1.573370 0.000000 -0.016300 
#    y 0.000000 1.708790 0.000000 
#    z -0.016300 0.000000 1.743520 
# 
# From -- ./inp_files/112716.got.cif
#   From: 2010.05.17/outbox.cif.g08.bks.cpg/sg15_57_cif.got.tgz:112716.got - 2010.06.03 18:47:42.
