data_PCOD9301573
_publ_section_title
;
Structure prediction by ZEFSAII (Michael W. Deem and Ramdas Pophale) SiO2 
 PCOD9301573
Probable space group: C 2/C
;
_chemical_formula_sum "Si O2"
_cell_formula_units_Z 40
_cell_length_a 13.761552
_cell_length_b 15.924582
_cell_length_c 14.164941
_cell_angle_alpha 90.000000
_cell_angle_beta 39.242762
_cell_angle_gamma 90.000000
_cell_volume 1963.742599
_symmetry_space_group_name_H-M "C 2/C"
_symmetry_group_IT_number 15
_symmetry_cell_setting 'monoclinic'
loop_
_space_group_symop_operation_xyz
x,y,z
-x,y,1/2-z
-x,-y,-z
x,-y,1/2+z
1/2+x,1/2+y,z
1/2-x,1/2+y,1/2-z
1/2-x,1/2-y,-z
1/2+x,1/2-y,1/2+z
loop_
_atom_site_type_symbol
_atom_site_label
_atom_site_fract_x
_atom_site_fract_y
_atom_site_fract_z
Si Si1 0.172331 0.005760 0.600757
Si Si2 0.010646 0.745148 0.045867
Si Si3 0.387067 0.922562 0.567425
Si Si4 0.371503 0.569891 0.076342
Si Si5 0.827023 0.815052 0.337375
O O1 0.186599 0.046644 0.486026
O O2 0.192000 0.085069 0.656576
O O3 0.000000 0.973656 0.750000
O O4 0.297203 0.938317 0.537204
O O5 0.052588 0.837837 0.978896
O O6 0.159484 0.716264 0.996254
O O7 0.974195 0.666568 0.006565
O O8 0.856714 0.761120 0.221606
O O9 0.262744 0.928588 0.745724
O O10 0.500000 0.000000 0.500000
O O11 0.500000 0.500000 0.000000
O O12 0.000000 0.810471 0.250000
#
# Coordination Sequence:
#
# PCOD9301573 Si02
#       5
#     8   8   8   8   8
#     4  11  22  43  68  98 135 176 226 273 336 406
#     4  12  23  39  65  99 136 173 218 281 340 395
#     4  12  26  43  67 103 140 170 223 287 335 400
#     4  12  25  44  72  95 133 187 225 271 343 401
#     4  11  21  36  62  98 135 167 225 272 337 390
#
# _framework density 20.369268000000002
#
# number of rings (size 3 to 8) (size 9 to 14) (size 15 to 20)
#    0.000    0.400   10.000    0.600    0.000    0.800 
#    0.000    1.000    0.000    0.000    0.000    0.000 
#    0.000    0.000    0.000    0.000    0.000    0.000 
#
# Total GULP energy -111435.487367 kJ/mol
# GULP energy per Si atom -5571.774368 kJ/mol
# Density = 2.032291 g / cm^3
# Si number density = 20.369268 Si / 1000 Ang^3
#
#
#
# Elastic Constant Matrix: (Units=GPa)
#
#
# Indices 1 2 3 4 5 6 
#
# 1 82.5245 76.1614 20.4141 0.0001 -17.8369 0.0000
# 2 76.1614 154.0905 9.6334 0.0002 -11.9012 -0.0001
# 3 20.4141 9.6334 60.8003 0.0004 -6.3047 -0.0002
# 4 0.0001 0.0002 0.0004 24.5571 -0.0002 -14.5870
# 5 -17.8369 -11.9012 -6.3047 -0.0002 26.0639 0.0001
# 6 0.0000 -0.0001 -0.0002 -14.5870 0.0001 43.0182
#
#
#
# Elastic Compliance Matrix: (Units=1/GPa)
#
#
# Indices 1 2 3 4 5 6 
#
# 1 0.027528 -0.012319 -0.006073 0.000000 0.011745 0.000000
# 2 -0.012319 0.012275 0.001947 0.000000 -0.002355 0.000000
# 3 -0.006073 0.001947 0.018298 0.000000 0.001159 0.000000
# 4 0.000000 0.000000 0.000000 0.050992 0.000000 0.017291
# 5 0.011745 -0.002355 0.001159 0.000000 0.045610 0.000000
# 6 0.000000 0.000000 0.000000 0.017291 0.000000 0.029109
#
#
# Mechanical properties :
#
#
# Convention : Reuss Voigt Hill
#
# Bulk Modulus (GPa) = 39.66532 56.64813 48.15673
# Shear Modulus (GPa) = 22.21183 31.47494 26.84339
#
# Velocity S-wave (km/s) = 3.30579 3.93519 3.63414
# Velocity P-wave (km/s) = 5.83836 6.96553 6.42670
#
# Compressibility (1/GPa) = 0.02521094
#
# Stress axis : x y z
#
# Youngs Moduli (GPa) = 36.32716 81.46625 54.65089
#
# Poissons Ratio (x) = 1.00360 0.33189
# Poissons Ratio (y) = 0.44752 -0.10641
# Poissons Ratio (z) = 0.22061 -0.15863
#
# Static dielectric constant tensor:
#      x y z
#    x 1.833180 0.000000 0.068760 
#    y 0.000000 1.717400 0.000000 
#    z 0.068760 0.000000 1.793150 
# 
# From -- ./inp_files/29350.got.cif
#   From: 2010.05.17/outbox.cif.g08.bks.cpg/sg15_15_cif.got.tgz:29350.got - 2010.06.03 18:47:42.
