data_PCOD9301650
_publ_section_title
;
Structure prediction by ZEFSAII (Michael W. Deem and Ramdas Pophale) SiO2 
 PCOD9301650
Probable space group: C 2/C
;
_chemical_formula_sum "Si O2"
_cell_formula_units_Z 36
_cell_length_a 10.526963
_cell_length_b 18.143590
_cell_length_c 8.944028
_cell_angle_alpha 90.000000
_cell_angle_beta 63.569974
_cell_angle_gamma 90.000000
_cell_volume 1529.729683
_symmetry_space_group_name_H-M "C 2/C"
_symmetry_group_IT_number 15
_symmetry_cell_setting 'monoclinic'
loop_
_space_group_symop_operation_xyz
x,y,z
-x,y,1/2-z
-x,-y,-z
x,-y,1/2+z
1/2+x,1/2+y,z
1/2-x,1/2+y,1/2-z
1/2-x,1/2-y,-z
1/2+x,1/2-y,1/2+z
loop_
_atom_site_type_symbol
_atom_site_label
_atom_site_fract_x
_atom_site_fract_y
_atom_site_fract_z
Si Si1 0.773507 0.449984 0.530894
Si Si2 0.338979 0.798928 0.340409
Si Si3 0.000000 0.980731 0.250000
Si Si4 0.346691 0.662008 0.828505
Si Si5 0.342941 0.904269 0.832847
O O1 0.830228 0.381899 0.406918
O O2 0.605264 0.468353 0.600576
O O3 0.797070 0.429629 0.692227
O O4 0.851639 0.523510 0.434643
O O5 0.500000 0.773479 0.250000
O O6 0.250000 0.750000 0.500000
O O7 0.264526 0.799550 0.219326
O O8 0.109651 0.919912 0.260092
O O9 0.500000 0.699883 0.750000
O O10 0.275387 0.646009 0.025273
O O11 0.500000 0.871074 0.750000
#
# Coordination Sequence:
#
# PCOD9301650 Si02
#       5
#     8   8   4   8   8
#     4  11  22  37  68  99 141 171 232 276 355 400
#     4  12  28  48  67  97 138 190 237 282 333 411
#     4   8  20  36  70 104 132 166 214 288 348 392
#     4   9  22  44  70 100 136 171 231 283 349 402
#     4  11  21  37  66 105 138 176 212 291 359 406
#
# _framework density 23.533570999999998
#
# number of rings (size 3 to 8) (size 9 to 14) (size 15 to 20)
#    0.667    0.889    0.000    5.333    4.667    2.667 
#    0.000    5.556    0.000    0.000    0.000    0.000 
#    0.000    0.000    0.000    0.000    0.000    0.000 
#
# Total GULP energy -100594.902179 kJ/mol
# GULP energy per Si atom -5588.605677 kJ/mol
# Density = 2.348001 g / cm^3
# Si number density = 23.533571 Si / 1000 Ang^3
#
#
#
# Elastic Constant Matrix: (Units=GPa)
#
#
# Indices 1 2 3 4 5 6 
#
# 1 130.7823 20.8524 69.3048 0.0000 -20.6084 0.0000
# 2 20.8524 69.8151 31.6804 0.0000 -6.6811 0.0000
# 3 69.3048 31.6804 125.3444 0.0000 -7.2790 0.0000
# 4 0.0000 0.0000 0.0000 27.9673 0.0000 -42.1727
# 5 -20.6084 -6.6811 -7.2790 0.0000 62.3505 0.0000
# 6 0.0000 0.0000 0.0000 -42.1727 0.0000 183.6317
#
#
#
# Elastic Compliance Matrix: (Units=1/GPa)
#
#
# Indices 1 2 3 4 5 6 
#
# 1 0.011370 -0.000377 -0.006016 0.000000 0.003015 0.000000
# 2 -0.000377 0.016291 -0.003841 0.000000 0.001173 0.000000
# 3 -0.006016 -0.003841 0.012219 0.000000 -0.000974 0.000000
# 4 0.000000 0.000000 0.000000 0.054699 0.000000 0.012562
# 5 0.003015 0.001173 -0.000974 0.000000 0.017047 0.000000
# 6 0.000000 0.000000 0.000000 0.012562 0.000000 0.008331
#
#
# Mechanical properties :
#
#
# Convention : Reuss Voigt Hill
#
# Bulk Modulus (GPa) = 51.51683 63.29078 57.40381
# Shear Modulus (GPa) = 34.03806 68.39687 51.21746
#
# Velocity S-wave (km/s) = 3.80723 5.39691 4.67021
# Velocity P-wave (km/s) = 6.42378 8.11096 7.31617
#
# Compressibility (1/GPa) = 0.01941113
#
# Stress axis : x y z
#
# Youngs Moduli (GPa) = 87.95392 61.38226 81.84299
#
# Poissons Ratio (x) = 0.02317 0.49236
# Poissons Ratio (y) = 0.03320 0.31434
# Poissons Ratio (z) = 0.52912 0.23576
#
# Static dielectric constant tensor:
#      x y z
#    x 1.911280 0.000000 -0.009320 
#    y 0.000000 1.901030 0.000000 
#    z -0.009320 0.000000 1.910650 
# 
# From -- ./inp_files/30089.got.cif
#   From: 2010.05.17/outbox.cif.g08.bks.cpg/sg15_16_cif.got.tgz:30089.got - 2010.06.03 18:47:42.
