data_PCOD9301996
_publ_section_title
;
Structure prediction by ZEFSAII (Michael W. Deem and Ramdas Pophale) SiO2 
 PCOD9301996
Probable space group: C 2/C
;
_chemical_formula_sum "Si O2"
_cell_formula_units_Z 48
_cell_length_a 28.758660
_cell_length_b 14.048221
_cell_length_c 8.681183
_cell_angle_alpha 90.000000
_cell_angle_beta 37.559148
_cell_angle_gamma 90.000000
_cell_volume 2137.960478
_symmetry_space_group_name_H-M "C 2/C"
_symmetry_group_IT_number 15
_symmetry_cell_setting 'monoclinic'
loop_
_space_group_symop_operation_xyz
x,y,z
-x,y,1/2-z
-x,-y,-z
x,-y,1/2+z
1/2+x,1/2+y,z
1/2-x,1/2+y,1/2-z
1/2-x,1/2-y,-z
1/2+x,1/2-y,1/2+z
loop_
_atom_site_type_symbol
_atom_site_label
_atom_site_fract_x
_atom_site_fract_y
_atom_site_fract_z
Si Si1 0.003614 0.106605 0.423629
Si Si2 0.263834 0.919415 0.525956
Si Si3 0.900508 0.266249 0.201265
Si Si4 0.141410 0.194020 0.524004
Si Si5 0.474145 0.094740 0.144232
Si Si6 0.795006 0.383918 0.091716
O O1 0.000000 0.103980 0.250000
O O2 0.081238 0.163868 0.269100
O O3 0.926756 0.156721 0.692119
O O4 0.000000 0.000000 0.500000
O O5 0.331918 0.844580 0.400689
O O6 0.191978 0.887785 0.814914
O O7 0.258182 0.900094 0.357465
O O8 0.271575 0.032575 0.536103
O O9 0.895881 0.242952 0.030968
O O10 0.976193 0.321304 0.056590
O O11 0.200034 0.269961 0.449121
O O12 0.500000 0.090532 0.250000
O O13 0.384922 0.097989 0.367829
O O14 0.500000 0.000000 0.000000
#
# Coordination Sequence:
#
# PCOD9301996 Si02
#       6
#     8   8   8   8   8   8
#     4  12  27  45  70  97 126 171 225 279 331 393
#     4  11  25  40  67  97 135 180 217 272 337 398
#     4  11  21  43  68  96 129 173 220 268 330 395
#     4  11  24  45  67  95 133 179 221 274 334 393
#     4  12  19  34  63  97 131 166 211 270 326 388
#     4  11  21  41  63  98 134 172 222 270 334 390
#
# _framework density 22.451305000000001
#
# number of rings (size 3 to 8) (size 9 to 14) (size 15 to 20)
#    0.000    0.667    6.667    3.500    0.000    6.000 
#    0.000    1.667    0.000    0.000    0.000    0.000 
#    0.000    0.000    0.000    0.000    0.000    0.000 
#
# Total GULP energy -133784.701948 kJ/mol
# GULP energy per Si atom -5574.362581 kJ/mol
# Density = 2.240020 g / cm^3
# Si number density = 22.451305 Si / 1000 Ang^3
#
#
#
# Elastic Constant Matrix: (Units=GPa)
#
#
# Indices 1 2 3 4 5 6 
#
# 1 29.9056 21.9132 18.1873 0.0000 7.3632 0.0000
# 2 21.9132 122.1141 8.3079 0.0000 3.0417 0.0000
# 3 18.1873 8.3079 83.4646 0.0000 -8.1265 0.0000
# 4 0.0000 0.0000 0.0000 41.8955 0.0000 4.9174
# 5 7.3632 3.0417 -8.1265 0.0000 16.2791 0.0000
# 6 0.0000 0.0000 0.0000 4.9174 0.0000 32.9635
#
#
#
# Elastic Compliance Matrix: (Units=1/GPa)
#
#
# Indices 1 2 3 4 5 6 
#
# 1 0.055825 -0.008273 -0.014346 0.000000 -0.030866 0.000000
# 2 -0.008273 0.009536 0.001098 0.000000 0.002508 0.000000
# 3 -0.014346 0.001098 0.016407 0.000000 0.014474 0.000000
# 4 0.000000 0.000000 0.000000 0.024294 0.000000 -0.003624
# 5 -0.030866 0.002508 0.014474 0.000000 0.082147 0.000000
# 6 0.000000 0.000000 0.000000 -0.003624 0.000000 0.030877
#
#
# Mechanical properties :
#
#
# Convention : Reuss Voigt Hill
#
# Bulk Modulus (GPa) = 25.82264 36.92234 31.37249
# Shear Modulus (GPa) = 18.17931 30.69933 24.43932
#
# Velocity S-wave (km/s) = 2.84865 3.70181 3.30289
# Velocity P-wave (km/s) = 4.72719 5.89512 5.34316
#
# Compressibility (1/GPa) = 0.03872571
#
# Stress axis : x y z
#
# Youngs Moduli (GPa) = 17.91317 104.86064 60.94871
#
# Poissons Ratio (x) = 0.86749 0.87438
# Poissons Ratio (y) = 0.14819 -0.06690
# Poissons Ratio (z) = 0.25699 -0.11510
#
# Static dielectric constant tensor:
#      x y z
#    x 1.837180 0.000000 -0.018360 
#    y 0.000000 1.999120 0.000000 
#    z -0.018360 0.000000 1.798100 
# 
# From -- ./inp_files/69835.got.cif
#   From: 2010.05.17/outbox.cif.g08.bks.cpg/sg15_35_cif.got.tgz:69835.got - 2010.06.03 18:47:42.
