data_PCOD9301447
_publ_section_title
;
Structure prediction by ZEFSAII (Michael W. Deem and Ramdas Pophale) SiO2 
 PCOD9301447
Probable space group: C 2/C
;
_chemical_formula_sum "Si O2"
_cell_formula_units_Z 44
_cell_length_a 15.321748
_cell_length_b 36.820546
_cell_length_c 5.253035
_cell_angle_alpha 90.000000
_cell_angle_beta 105.867709
_cell_angle_gamma 90.000000
_cell_volume 2850.603093
_symmetry_space_group_name_H-M "C 2/C"
_symmetry_group_IT_number 15
_symmetry_cell_setting 'monoclinic'
loop_
_space_group_symop_operation_xyz
x,y,z
-x,y,1/2-z
-x,-y,-z
x,-y,1/2+z
1/2+x,1/2+y,z
1/2-x,1/2+y,1/2-z
1/2-x,1/2-y,-z
1/2+x,1/2-y,1/2+z
loop_
_atom_site_type_symbol
_atom_site_label
_atom_site_fract_x
_atom_site_fract_y
_atom_site_fract_z
Si Si1 0.245705 0.715781 0.685268
Si Si2 0.890378 0.519524 0.636222
Si Si3 0.347896 0.146068 0.029158
Si Si4 0.607360 0.896457 0.411743
Si Si5 0.596822 0.751559 0.442822
Si Si6 0.500000 0.196094 0.250000
O O1 0.250000 0.750000 0.500000
O O2 0.228465 0.677402 0.536062
O O3 0.162636 0.725771 0.808217
O O4 0.340677 0.718726 0.910953
O O5 0.857224 0.492747 0.387394
O O6 0.871698 0.560893 0.543190
O O7 0.000000 0.516589 0.750000
O O8 0.338053 0.118941 0.786717
O O9 0.367221 0.125909 0.312200
O O10 0.438455 0.169362 0.037701
O O11 0.500000 0.894357 0.250000
O O12 0.500000 0.740316 0.250000
O O13 0.433325 0.778755 0.857242
#
# Coordination Sequence:
#
# PCOD9301447 Si02
#       6
#     8   8   8   8   8   4
#     4  11  23  33  49  70  92 130 168 214 265 299
#     4   9  17  30  46  63  90 119 157 198 232 285
#     4  12  22  32  48  69  99 122 166 213 258 289
#     4  11  21  31  47  71  91 127 161 200 256 294
#     4  11  21  35  51  66  92 122 176 216 260 305
#     4  12  20  32  50  68  90 130 162 224 254 290
#
# _framework density 15.43533
#
# number of rings (size 3 to 8) (size 9 to 14) (size 15 to 20)
#    0.000    1.091    5.455    2.182    2.545    2.909 
#    0.000    0.000    0.000    0.000    0.000    0.000 
#    0.000    0.000    0.000    0.000    0.000   18.182 
#
# Total GULP energy -122598.198020 kJ/mol
# GULP energy per Si atom -5572.645365 kJ/mol
# Density = 1.540020 g / cm^3
# Si number density = 15.435330 Si / 1000 Ang^3
#
#
#
# Elastic Constant Matrix: (Units=GPa)
#
#
# Indices 1 2 3 4 5 6 
#
# 1 58.2761 21.7741 31.9938 0.0000 -1.4700 0.0000
# 2 21.7741 96.2457 52.6056 0.0000 0.2785 0.0000
# 3 31.9938 52.6056 93.2823 0.0000 -3.2404 0.0000
# 4 0.0000 0.0000 0.0000 27.4378 0.0000 0.1463
# 5 -1.4700 0.2785 -3.2404 0.0000 35.5931 0.0000
# 6 0.0000 0.0000 0.0000 0.1463 0.0000 15.9619
#
#
#
# Elastic Compliance Matrix: (Units=1/GPa)
#
#
# Indices 1 2 3 4 5 6 
#
# 1 0.021237 -0.001199 -0.006598 0.000000 0.000286 0.000000
# 2 -0.001199 0.015116 -0.008145 0.000000 -0.000909 0.000000
# 3 -0.006598 -0.008145 0.017625 0.000000 0.001396 0.000000
# 4 0.000000 0.000000 0.000000 0.036448 0.000000 -0.000334
# 5 0.000286 -0.000909 0.001396 0.000000 0.028241 0.000000
# 6 0.000000 0.000000 0.000000 -0.000334 0.000000 0.062652
#
#
# Mechanical properties :
#
#
# Convention : Reuss Voigt Hill
#
# Bulk Modulus (GPa) = 45.26047 51.17234 48.21641
# Shear Modulus (GPa) = 22.66892 25.22727 23.94810
#
# Velocity S-wave (km/s) = 3.83644 4.04714 3.94320
# Velocity P-wave (km/s) = 7.00076 7.42050 7.21368
#
# Compressibility (1/GPa) = 0.02209433
#
# Stress axis : x y z
#
# Youngs Moduli (GPa) = 47.08735 66.15657 56.73916
#
# Poissons Ratio (x) = 0.07934 0.37434
# Poissons Ratio (y) = 0.05647 0.46212
# Poissons Ratio (z) = 0.31066 0.53882
#
# Static dielectric constant tensor:
#      x y z
#    x 1.476120 0.000000 -0.033450 
#    y 0.000000 1.528180 0.000000 
#    z -0.033450 0.000000 1.578280 
# 
# From -- ./inp_files/11889.got.cif
#   From: 2010.05.17/outbox.cif.g08.bks.cpg/sg15_6_cif.got.tgz:11889.got - 2010.06.03 18:47:42.
