data_PCOD9301880
_publ_section_title
;
Structure prediction by ZEFSAII (Michael W. Deem and Ramdas Pophale) SiO2 
 PCOD9301880
Probable space group: C 2/C
;
_chemical_formula_sum "Si O2"
_cell_formula_units_Z 60
_cell_length_a 28.308492
_cell_length_b 13.672620
_cell_length_c 7.812922
_cell_angle_alpha 90.000000
_cell_angle_beta 109.627907
_cell_angle_gamma 90.000000
_cell_volume 2848.288497
_symmetry_space_group_name_H-M "C 2/C"
_symmetry_group_IT_number 15
_symmetry_cell_setting 'monoclinic'
loop_
_space_group_symop_operation_xyz
x,y,z
-x,y,1/2-z
-x,-y,-z
x,-y,1/2+z
1/2+x,1/2+y,z
1/2-x,1/2+y,1/2-z
1/2-x,1/2-y,-z
1/2+x,1/2-y,1/2+z
loop_
_atom_site_type_symbol
_atom_site_label
_atom_site_fract_x
_atom_site_fract_y
_atom_site_fract_z
Si Si1 0.169972 0.899568 0.404869
Si Si2 0.309736 0.879129 0.311223
Si Si3 0.779237 0.406959 0.666395
Si Si4 0.974447 0.099733 0.037393
Si Si5 0.399201 0.254742 0.966485
Si Si6 0.791020 0.212122 0.880232
Si Si7 0.500000 0.736254 0.750000
Si Si8 0.380505 0.607307 0.147692
O O1 0.218650 0.917448 0.585138
O O2 0.133868 0.818136 0.441167
O O3 0.193112 0.855987 0.261701
O O4 0.140850 0.000281 0.339679
O O5 0.297222 0.875483 0.499102
O O6 0.364084 0.831911 0.355658
O O7 0.266642 0.817795 0.160072
O O8 0.303600 0.990284 0.244669
O O9 0.793440 0.322543 0.816575
O O10 0.916492 0.095281 0.027278
O O11 0.000000 0.125804 0.250000
O O12 0.980176 0.172200 0.885472
O O13 0.000000 0.000000 0.000000
O O14 0.409897 0.336841 0.834739
O O15 0.450097 0.214544 0.112753
O O16 0.832321 0.176321 0.062728
#
# Coordination Sequence:
#
# PCOD9301880 Si02
#       8
#     8   8   8   8   8   8   4   8
#     4  11  21  40  61  95 139 182 215 267 345 412
#     4  11  24  42  66  96 133 178 226 283 348 413
#     4  11  23  41  64  95 135 178 227 275 340 420
#     4  12  25  43  64 100 136 183 231 275 340 420
#     4  12  25  43  65  96 135 179 233 282 347 402
#     4  11  22  41  61  97 140 176 220 280 343 420
#     4  12  26  46  68  88 142 184 230 298 338 394
#     4  12  26  37  67 102 138 180 226 279 336 424
#
# _framework density 21.065280999999999
#
# number of rings (size 3 to 8) (size 9 to 14) (size 15 to 20)
#    0.000    0.533    6.000    3.200    5.600    0.533 
#    0.000    0.000    0.000    0.800    1.733    0.000 
#    0.000    0.000    0.000    0.000    0.000    0.000 
#
# Total GULP energy -167814.028575 kJ/mol
# GULP energy per Si atom -5593.800952 kJ/mol
# Density = 2.101734 g / cm^3
# Si number density = 21.065281 Si / 1000 Ang^3
#
#
#
# Elastic Constant Matrix: (Units=GPa)
#
#
# Indices 1 2 3 4 5 6 
#
# 1 124.3885 27.8978 26.5282 0.0000 17.0184 0.0000
# 2 27.8978 97.6662 16.3115 0.0000 27.4321 0.0000
# 3 26.5282 16.3115 77.8213 0.0000 17.4990 0.0000
# 4 0.0000 0.0000 0.0000 24.4475 0.0000 1.8543
# 5 17.0184 27.4321 17.4990 0.0000 48.2455 0.0000
# 6 0.0000 0.0000 0.0000 1.8543 0.0000 25.3969
#
#
#
# Elastic Compliance Matrix: (Units=1/GPa)
#
#
# Indices 1 2 3 4 5 6 
#
# 1 0.009150 -0.001842 -0.002442 0.000000 -0.001294 0.000000
# 2 -0.001842 0.012641 -0.000600 0.000000 -0.006320 0.000000
# 3 -0.002442 -0.000600 0.014740 0.000000 -0.004143 0.000000
# 4 0.000000 0.000000 0.000000 0.041132 0.000000 -0.003003
# 5 -0.001294 -0.006320 -0.004143 0.000000 0.026280 0.000000
# 6 0.000000 0.000000 0.000000 -0.003003 0.000000 0.039594
#
#
# Mechanical properties :
#
#
# Convention : Reuss Voigt Hill
#
# Bulk Modulus (GPa) = 37.36725 49.03901 43.20313
# Shear Modulus (GPa) = 30.82099 34.89386 32.85743
#
# Velocity S-wave (km/s) = 3.82922 4.07438 3.95370
# Velocity P-wave (km/s) = 6.10966 6.74271 6.43398
#
# Compressibility (1/GPa) = 0.02676140
#
# Stress axis : x y z
#
# Youngs Moduli (GPa) = 109.28431 79.11066 67.84280
#
# Poissons Ratio (x) = 0.14575 0.16567
# Poissons Ratio (y) = 0.20134 0.04073
# Poissons Ratio (z) = 0.26688 0.04750
#
# Static dielectric constant tensor:
#      x y z
#    x 1.815530 0.000000 0.021230 
#    y 0.000000 1.747390 0.000000 
#    z 0.021230 0.000000 1.841320 
# 
# From -- ./inp_files/69413.got.cif
#   From: 2010.05.17/outbox.cif.g08.bks.cpg/sg15_35_cif.got.tgz:69413.got - 2010.06.03 18:47:42.
