data_PCOD9301626
_publ_section_title
;
Structure prediction by ZEFSAII (Michael W. Deem and Ramdas Pophale) SiO2 
 PCOD9301626
Probable space group: C 2/C
;
_chemical_formula_sum "Si O2"
_cell_formula_units_Z 64
_cell_length_a 23.119618
_cell_length_b 17.758822
_cell_length_c 14.244460
_cell_angle_alpha 90.000000
_cell_angle_beta 31.362728
_cell_angle_gamma 90.000000
_cell_volume 3043.850897
_symmetry_space_group_name_H-M "C 2/C"
_symmetry_group_IT_number 15
_symmetry_cell_setting 'monoclinic'
loop_
_space_group_symop_operation_xyz
x,y,z
-x,y,1/2-z
-x,-y,-z
x,-y,1/2+z
1/2+x,1/2+y,z
1/2-x,1/2+y,1/2-z
1/2-x,1/2-y,-z
1/2+x,1/2-y,1/2+z
loop_
_atom_site_type_symbol
_atom_site_label
_atom_site_fract_x
_atom_site_fract_y
_atom_site_fract_z
Si Si1 0.680550 0.871095 0.595718
Si Si2 0.745676 0.749352 0.253423
Si Si3 0.370702 0.983256 0.670725
Si Si4 0.379661 0.711180 0.883035
Si Si5 0.347684 0.147724 0.758231
Si Si6 0.869285 0.516746 0.953066
Si Si7 0.003682 0.236994 0.131031
Si Si8 0.707065 0.351481 0.625536
O O1 0.658819 0.912394 0.724680
O O2 0.613747 0.793354 0.674440
O O3 0.809600 0.845392 0.415054
O O4 0.647287 0.932851 0.564598
O O5 0.697000 0.722279 0.418635
O O6 0.668475 0.815993 0.320926
O O7 0.739474 0.688427 0.178211
O O8 0.872892 0.774804 0.078080
O O9 0.500000 0.000000 0.500000
O O10 0.324340 0.060200 0.777916
O O11 0.348063 0.977251 0.592869
O O12 0.500000 0.685272 0.750000
O O13 0.458653 0.183453 0.650138
O O14 0.256910 0.177510 0.957622
O O15 0.000000 0.538048 0.750000
O O16 0.773103 0.569569 0.042623
O O17 0.922516 0.169807 0.208096
O O18 0.000000 0.241290 0.250000
#
# Coordination Sequence:
#
# PCOD9301626 Si02
#       8
#     8   8   8   8   8   8   8   8
#     4  11  25  45  70 102 132 185 237 287 358 414
#     4  11  23  39  68  98 135 190 228 283 351 418
#     4  12  25  40  69 101 134 178 226 291 357 408
#     4  11  27  48  71  96 142 183 246 297 339 423
#     4  11  22  37  61 100 137 174 225 286 354 414
#     4  12  24  42  67 100 143 180 234 299 351 415
#     4  11  21  37  63  98 144 177 224 278 350 421
#     4  11  22  38  62 102 140 177 225 285 354 417
#
# _framework density 21.025998000000001
#
# number of rings (size 3 to 8) (size 9 to 14) (size 15 to 20)
#    0.000    0.750    5.000    2.625    7.000    3.000 
#    0.000    1.875    0.000    3.000    0.000    0.000 
#    0.000    0.000    0.000    0.000    0.000    0.000 
#
# Total GULP energy -178581.912213 kJ/mol
# GULP energy per Si atom -5580.684757 kJ/mol
# Density = 2.097814 g / cm^3
# Si number density = 21.025998 Si / 1000 Ang^3
#
#
#
# Elastic Constant Matrix: (Units=GPa)
#
#
# Indices 1 2 3 4 5 6 
#
# 1 97.7666 17.3591 35.2648 0.0000 -2.1577 0.0000
# 2 17.3591 69.8792 28.3258 0.0000 0.6605 0.0000
# 3 35.2648 28.3258 73.8162 0.0000 0.9012 0.0000
# 4 0.0000 0.0000 0.0000 13.7010 0.0000 1.5891
# 5 -2.1577 0.6605 0.9012 0.0000 48.3393 0.0000
# 6 0.0000 0.0000 0.0000 1.5891 0.0000 41.3119
#
#
#
# Elastic Compliance Matrix: (Units=1/GPa)
#
#
# Indices 1 2 3 4 5 6 
#
# 1 0.012418 -0.000809 -0.005630 0.000000 0.000670 0.000000
# 2 -0.000809 0.017000 -0.006135 0.000000 -0.000154 0.000000
# 3 -0.005630 -0.006135 0.018597 0.000000 -0.000514 0.000000
# 4 0.000000 0.000000 0.000000 0.073315 0.000000 -0.002820
# 5 0.000670 -0.000154 -0.000514 0.000000 0.020729 0.000000
# 6 0.000000 0.000000 0.000000 -0.002820 0.000000 0.024315
#
#
# Mechanical properties :
#
#
# Convention : Reuss Voigt Hill
#
# Bulk Modulus (GPa) = 43.73199 44.81795 44.27497
# Shear Modulus (GPa) = 25.10758 31.37126 28.23942
#
# Velocity S-wave (km/s) = 3.45935 3.86686 3.66877
# Velocity P-wave (km/s) = 6.06633 6.42640 6.24896
#
# Compressibility (1/GPa) = 0.02286655
#
# Stress axis : x y z
#
# Youngs Moduli (GPa) = 80.53026 58.82468 53.77092
#
# Poissons Ratio (x) = 0.04758 0.30274
# Poissons Ratio (y) = 0.06514 0.32989
# Poissons Ratio (z) = 0.45340 0.36089
#
# Static dielectric constant tensor:
#      x y z
#    x 1.689960 0.000000 -0.106590 
#    y 0.000000 1.753760 0.000000 
#    z -0.106590 0.000000 1.649510 
# 
# From -- ./inp_files/174235.got.cif
#   From: 2010.05.17/outbox.cif.g08.bks.cpg/sg15_88_cif.got.tgz:174235.got - 2010.06.03 18:47:42.
