data_PCOD9301120
_publ_section_title
;
Structure prediction by ZEFSAII (Michael W. Deem and Ramdas Pophale) SiO2 
 PCOD9301120
Probable space group: C 2/C
;
_chemical_formula_sum "Si O2"
_cell_formula_units_Z 64
_cell_length_a 30.929546
_cell_length_b 11.701762
_cell_length_c 23.342886
_cell_angle_alpha 90.000000
_cell_angle_beta 156.454072
_cell_angle_gamma 90.000000
_cell_volume 3375.039040
_symmetry_space_group_name_H-M "C 2/C"
_symmetry_group_IT_number 15
_symmetry_cell_setting 'monoclinic'
loop_
_space_group_symop_operation_xyz
x,y,z
-x,y,1/2-z
-x,-y,-z
x,-y,1/2+z
1/2+x,1/2+y,z
1/2-x,1/2+y,1/2-z
1/2-x,1/2-y,-z
1/2+x,1/2-y,1/2+z
loop_
_atom_site_type_symbol
_atom_site_label
_atom_site_fract_x
_atom_site_fract_y
_atom_site_fract_z
Si Si1 0.954226 0.891016 0.102234
Si Si2 0.412731 0.089159 0.368377
Si Si3 0.748738 0.379872 0.572699
Si Si4 0.812814 0.267477 0.845635
Si Si5 0.712239 0.388634 0.400545
Si Si6 0.705752 0.026872 0.108094
Si Si7 0.405099 0.177573 0.975066
Si Si8 0.407924 0.465676 0.433079
O O1 0.084143 0.900229 0.259583
O O2 0.873457 0.915374 0.056954
O O3 0.922335 0.761850 0.048213
O O4 0.917456 0.962987 0.002455
O O5 0.331208 0.059945 0.217445
O O6 0.341207 0.139547 0.331888
O O7 0.489256 0.186628 0.435251
O O8 0.500000 0.000000 0.500000
O O9 0.769723 0.405853 0.531643
O O10 0.766188 0.241012 0.596306
O O11 0.814412 0.338488 0.906682
O O12 0.696941 0.214220 0.687574
O O13 0.898301 0.165653 0.941203
O O14 0.754678 0.478262 0.404832
O O15 0.608956 0.947861 0.014755
O O16 0.801623 0.996559 0.268442
O O17 0.500000 0.500000 0.500000
#
# Coordination Sequence:
#
# PCOD9301120 Si02
#       8
#     8   8   8   8   8   8   8   8
#     4  12  20  38  60  87 122 161 199 251 304 367
#     4  12  22  38  59  87 121 153 197 251 305 359
#     4  11  23  38  56  93 120 159 206 245 315 371
#     4  11  23  36  58  91 122 159 200 247 307 364
#     4  11  23  37  60  85 128 159 197 253 308 375
#     4  11  20  38  53  87 124 160 196 247 307 359
#     4  11  21  34  57  88 123 156 193 252 305 363
#     4  11  21  35  60  90 122 155 196 251 301 357
#
# _framework density 18.962744000000001
#
# number of rings (size 3 to 8) (size 9 to 14) (size 15 to 20)
#    0.000    0.750    7.500    1.875    1.750    0.000 
#    0.000    0.625    0.000    0.750    3.250    0.000 
#    0.000    0.000    0.000    0.000    0.000    0.000 
#
# Total GULP energy -178368.532909 kJ/mol
# GULP energy per Si atom -5574.016653 kJ/mol
# Density = 1.891958 g / cm^3
# Si number density = 18.962744 Si / 1000 Ang^3
#
#
#
# Elastic Constant Matrix: (Units=GPa)
#
#
# Indices 1 2 3 4 5 6 
#
# 1 128.0754 32.9406 39.2260 0.0000 8.3979 0.0000
# 2 32.9406 64.5798 17.9843 0.0000 4.5272 0.0000
# 3 39.2260 17.9843 56.1289 0.0000 -0.0687 0.0000
# 4 0.0000 0.0000 0.0000 113.9349 0.0000 122.7362
# 5 8.3979 4.5272 -0.0687 0.0000 23.1790 0.0000
# 6 0.0000 0.0000 0.0000 122.7362 0.0000 182.0470
#
#
#
# Elastic Compliance Matrix: (Units=1/GPa)
#
#
# Indices 1 2 3 4 5 6 
#
# 1 0.010924 -0.003530 -0.006508 0.000000 -0.003288 0.000000
# 2 -0.003530 0.018404 -0.003433 0.000000 -0.002326 0.000000
# 3 -0.006508 -0.003433 0.023468 0.000000 0.003098 0.000000
# 4 0.000000 0.000000 0.000000 0.032066 0.000000 -0.021619
# 5 -0.003288 -0.002326 0.003098 0.000000 0.044797 0.000000
# 6 0.000000 0.000000 0.000000 -0.021619 0.000000 0.020068
#
#
# Mechanical properties :
#
#
# Convention : Reuss Voigt Hill
#
# Bulk Modulus (GPa) = 38.67609 47.67622 43.17615
# Shear Modulus (GPa) = 26.98515 74.40771 50.69643
#
# Velocity S-wave (km/s) = 3.77644 6.27089 5.17618
# Velocity P-wave (km/s) = 6.28136 8.81072 7.65128
#
# Compressibility (1/GPa) = 0.02585577
#
# Stress axis : x y z
#
# Youngs Moduli (GPa) = 91.53816 54.33552 42.61144
#
# Poissons Ratio (x) = 0.19178 0.27730
# Poissons Ratio (y) = 0.32308 0.14629
# Poissons Ratio (z) = 0.59570 0.18654
#
# Static dielectric constant tensor:
#      x y z
#    x 1.796740 0.000000 0.026570 
#    y 0.000000 1.740920 0.000000 
#    z 0.026570 0.000000 1.688850 
# 
# From -- ./inp_files/257541.got.cif
#   From: 2010.05.17/outbox.cif.g08.bks.cpg/sg15_129_cif.got.tgz:257541.got - 2010.06.03 18:47:42.
