data_PCOD9301197
_publ_section_title
;
Structure prediction by ZEFSAII (Michael W. Deem and Ramdas Pophale) SiO2 
 PCOD9301197
Probable space group: C 2/C
;
_chemical_formula_sum "Si O2"
_cell_formula_units_Z 64
_cell_length_a 29.864088
_cell_length_b 19.197254
_cell_length_c 8.553857
_cell_angle_alpha 90.000000
_cell_angle_beta 142.481403
_cell_angle_gamma 90.000000
_cell_volume 2986.627955
_symmetry_space_group_name_H-M "C 2/C"
_symmetry_group_IT_number 15
_symmetry_cell_setting 'monoclinic'
loop_
_space_group_symop_operation_xyz
x,y,z
-x,y,1/2-z
-x,-y,-z
x,-y,1/2+z
1/2+x,1/2+y,z
1/2-x,1/2+y,1/2-z
1/2-x,1/2-y,-z
1/2+x,1/2-y,1/2+z
loop_
_atom_site_type_symbol
_atom_site_label
_atom_site_fract_x
_atom_site_fract_y
_atom_site_fract_z
Si Si1 0.776197 0.420822 0.472571
Si Si2 0.950352 0.651927 0.814167
Si Si3 0.533950 0.277660 0.167179
Si Si4 0.037623 0.064884 0.685683
Si Si5 0.798014 0.721391 0.866347
Si Si6 0.706060 0.157092 0.985583
Si Si7 0.062250 0.437054 0.519246
Si Si8 0.791214 0.038861 0.382764
O O1 0.786722 0.339205 0.462870
O O2 0.857017 0.457478 0.708815
O O3 0.732791 0.459776 0.214659
O O4 0.732873 0.435243 0.512845
O O5 0.880026 0.647264 0.726037
O O6 0.925133 0.625719 0.572855
O O7 0.985650 0.727122 0.926258
O O8 0.016031 0.597272 0.031322
O O9 0.500000 0.272310 0.250000
O O10 0.528075 0.357072 0.093963
O O11 0.619091 0.252601 0.401824
O O12 0.000000 0.068219 0.750000
O O13 0.123922 0.049694 0.919455
O O14 0.000000 0.000000 0.500000
O O15 0.740210 0.785141 0.699153
O O16 0.784636 0.683457 0.663655
O O17 0.747457 0.086375 0.138533
O O18 0.000000 0.480258 0.250000
#
# Coordination Sequence:
#
# PCOD9301197 Si02
#       8
#     8   8   8   8   8   8   8   8
#     4  12  24  43  67  96 138 184 226 276 343 404
#     4   9  18  37  62  91 134 162 218 276 327 389
#     4  11  20  38  70  95 133 176 219 282 341 395
#     4  11  26  48  69  96 133 178 229 274 340 414
#     4  11  23  39  66 100 132 176 231 278 344 404
#     4  11  22  40  65  99 131 175 224 283 339 402
#     4   8  18  37  60  88 130 167 211 275 318 393
#     4  12  25  45  67 101 140 180 223 285 338 406
#
# _framework density 21.428850000000001
#
# number of rings (size 3 to 8) (size 9 to 14) (size 15 to 20)
#    0.750    0.500    5.000    1.500    0.000    1.500 
#    6.750    2.500    0.000    0.000    0.000    0.000 
#    0.000    0.000    0.000    0.000    0.000    0.000 
#
# Total GULP energy -178504.942502 kJ/mol
# GULP energy per Si atom -5578.279453 kJ/mol
# Density = 2.138008 g / cm^3
# Si number density = 21.428850 Si / 1000 Ang^3
#
#
#
# Elastic Constant Matrix: (Units=GPa)
#
#
# Indices 1 2 3 4 5 6 
#
# 1 98.8795 29.2949 32.3191 0.0000 23.8293 0.0000
# 2 29.2949 106.1548 38.2005 0.0000 4.1473 0.0000
# 3 32.3191 38.2005 63.3541 0.0000 16.0168 0.0000
# 4 0.0000 0.0000 0.0000 46.8257 0.0000 -1.8069
# 5 23.8293 4.1473 16.0168 0.0000 35.7773 0.0000
# 6 0.0000 0.0000 0.0000 -1.8069 0.0000 18.8682
#
#
#
# Elastic Compliance Matrix: (Units=1/GPa)
#
#
# Indices 1 2 3 4 5 6 
#
# 1 0.013745 -0.002096 -0.003941 0.000000 -0.007147 0.000000
# 2 -0.002096 0.012490 -0.007272 0.000000 0.003203 0.000000
# 3 -0.003941 -0.007272 0.024022 0.000000 -0.007286 0.000000
# 4 0.000000 0.000000 0.000000 0.021435 0.000000 0.002053
# 5 -0.007147 0.003203 -0.007286 0.000000 0.035602 0.000000
# 6 0.000000 0.000000 0.000000 0.002053 0.000000 0.053196
#
#
# Mechanical properties :
#
#
# Convention : Reuss Voigt Hill
#
# Bulk Modulus (GPa) = 42.30281 52.00191 47.15236
# Shear Modulus (GPa) = 25.64281 31.53251 28.58766
#
# Velocity S-wave (km/s) = 3.46301 3.84017 3.65646
# Velocity P-wave (km/s) = 5.98113 6.63193 6.31492
#
# Compressibility (1/GPa) = 0.02363909
#
# Stress axis : x y z
#
# Youngs Moduli (GPa) = 72.75465 80.06245 41.62912
#
# Poissons Ratio (x) = 0.16778 0.16407
# Poissons Ratio (y) = 0.15246 0.30273
# Poissons Ratio (z) = 0.28674 0.58222
#
# Static dielectric constant tensor:
#      x y z
#    x 1.779710 0.000000 -0.018680 
#    y 0.000000 1.813170 0.000000 
#    z -0.018680 0.000000 1.738220 
# 
# From -- ./inp_files/70632.got.cif
#   From: 2010.05.17/outbox.cif.g08.bks.cpg/sg15_36_cif.got.tgz:70632.got - 2010.06.03 18:47:42.
