data_PCOD9301958
_publ_section_title
;
Structure prediction by ZEFSAII (Michael W. Deem and Ramdas Pophale) SiO2 
 PCOD9301958
Probable space group: C 2/C
;
_chemical_formula_sum "Si O2"
_cell_formula_units_Z 40
_cell_length_a 16.891002
_cell_length_b 14.882832
_cell_length_c 15.867951
_cell_angle_alpha 90.000000
_cell_angle_beta 154.905432
_cell_angle_gamma 90.000000
_cell_volume 1691.780477
_symmetry_space_group_name_H-M "C 2/C"
_symmetry_group_IT_number 15
_symmetry_cell_setting 'monoclinic'
loop_
_space_group_symop_operation_xyz
x,y,z
-x,y,1/2-z
-x,-y,-z
x,-y,1/2+z
1/2+x,1/2+y,z
1/2-x,1/2+y,1/2-z
1/2-x,1/2-y,-z
1/2+x,1/2-y,1/2+z
loop_
_atom_site_type_symbol
_atom_site_label
_atom_site_fract_x
_atom_site_fract_y
_atom_site_fract_z
Si Si1 0.196632 0.322564 0.668956
Si Si2 0.716424 0.882729 0.273754
Si Si3 0.831182 0.233334 0.483907
Si Si4 0.016838 0.083386 0.178183
Si Si5 0.325087 0.402455 0.199575
O O1 0.204420 0.219029 0.646256
O O2 0.234104 0.309650 0.805745
O O3 0.362661 0.369963 0.778399
O O4 0.004560 0.370812 0.454805
O O5 0.808283 0.928630 0.280787
O O6 0.808041 0.932587 0.441230
O O7 0.750000 0.250000 0.500000
O O8 0.855299 0.339435 0.486149
O O9 0.010011 0.168975 0.659071
O O10 0.000000 0.135529 0.250000
O O11 0.130275 0.991798 0.306828
#
# Coordination Sequence:
#
# PCOD9301958 Si02
#       5
#     8   8   8   8   8
#     4  11  23  44  71 102 138 186 236 286 364 424
#     4  11  22  45  71  99 138 185 233 290 363 424
#     4  11  21  40  70 100 139 181 228 287 357 428
#     4  12  26  45  69 101 141 185 243 298 349 428
#     4  11  23  44  69 103 141 183 231 298 361 429
#
# _framework density 23.643729
#
# number of rings (size 3 to 8) (size 9 to 14) (size 15 to 20)
#    0.000    0.800    4.000    6.000    0.000    2.400 
#    3.600    0.000    0.000    0.000    0.000    0.000 
#    0.000    0.000    0.000    0.000    0.000    0.000 
#
# Total GULP energy -111335.757946 kJ/mol
# GULP energy per Si atom -5566.787897 kJ/mol
# Density = 2.358991 g / cm^3
# Si number density = 23.643729 Si / 1000 Ang^3
#
#
#
# Elastic Constant Matrix: (Units=GPa)
#
#
# Indices 1 2 3 4 5 6 
#
# 1 129.8022 26.1518 58.0764 0.0156 -15.6426 0.0441
# 2 26.1518 57.9107 22.6542 0.0023 11.6099 -0.0247
# 3 58.0764 22.6542 113.8208 0.0161 4.2863 0.0123
# 4 0.0156 0.0023 0.0161 11.0470 0.0065 -15.2779
# 5 -15.6426 11.6099 4.2863 0.0065 38.8759 0.0016
# 6 0.0441 -0.0247 0.0123 -15.2779 0.0016 -16.1078
#
#
#
# Elastic Compliance Matrix: (Units=1/GPa)
#
#
# Indices 1 2 3 4 5 6 
#
# 1 0.011851 -0.004595 -0.005386 0.000016 0.006735 0.000020
# 2 -0.004595 0.021618 -0.001652 -0.000025 -0.008123 -0.000024
# 3 -0.005386 -0.001652 0.011976 -0.000005 -0.002994 0.000002
# 4 0.000016 -0.000025 -0.000005 0.039158 0.000010 -0.037140
# 5 0.006735 -0.008123 -0.002994 0.000010 0.031189 0.000023
# 6 0.000020 -0.000024 0.000002 -0.037140 0.000023 -0.026855
#
#
# Mechanical properties :
#
#
# Convention : Reuss Voigt Hill
#
# Bulk Modulus (GPa) = 45.08983 57.25539 51.17261
# Shear Modulus (GPa) = 41.80763 19.73977 30.77370
#
# Velocity S-wave (km/s) = 4.20960 2.89257 3.61163
# Velocity P-wave (km/s) = 6.53755 5.95184 6.25156
#
# Compressibility (1/GPa) = 0.02217795
#
# Stress axis : x y z
#
# Youngs Moduli (GPa) = 84.37918 46.25821 83.50341
#
# Poissons Ratio (x) = 0.21256 0.44976
# Poissons Ratio (y) = 0.38773 0.13796
# Poissons Ratio (z) = 0.45447 0.07643
#
# Static dielectric constant tensor:
#      x y z
#    x 2.029980 0.000000 0.038800 
#    y 0.000000 1.924350 0.000000 
#    z 0.038800 0.000000 2.089480 
# 
# From -- ./inp_files/155585.got.cif
#   From: 2010.05.17/outbox.cif.g08.bks.cpg/sg15_78_cif.got.tgz:155585.got - 2010.06.03 18:47:42.
