data_PCOD9301036
_publ_section_title
;
Structure prediction by ZEFSAII (Michael W. Deem and Ramdas Pophale) SiO2 
 PCOD9301036
Probable space group: C 2/C
;
_chemical_formula_sum "Si O2"
_cell_formula_units_Z 48
_cell_length_a 21.399656
_cell_length_b 6.409012
_cell_length_c 23.448524
_cell_angle_alpha 90.000000
_cell_angle_beta 123.549313
_cell_angle_gamma 90.000000
_cell_volume 2680.231718
_symmetry_space_group_name_H-M "C 2/C"
_symmetry_group_IT_number 15
_symmetry_cell_setting 'monoclinic'
loop_
_space_group_symop_operation_xyz
x,y,z
-x,y,1/2-z
-x,-y,-z
x,-y,1/2+z
1/2+x,1/2+y,z
1/2-x,1/2+y,1/2-z
1/2-x,1/2-y,-z
1/2+x,1/2-y,1/2+z
loop_
_atom_site_type_symbol
_atom_site_label
_atom_site_fract_x
_atom_site_fract_y
_atom_site_fract_z
Si Si1 0.625147 0.018500 0.589467
Si Si2 0.520478 0.618904 0.069522
Si Si3 0.764590 0.317985 0.670394
Si Si4 0.726243 0.054999 0.448096
Si Si5 0.838197 0.866132 0.314212
Si Si6 0.133285 0.253872 0.479083
O O1 0.553206 0.155027 0.569150
O O2 0.692605 0.181108 0.616919
O O3 0.646483 0.855780 0.649078
O O4 0.619877 0.885597 0.529619
O O5 0.587334 0.500781 0.136126
O O6 0.445900 0.640396 0.069739
O O7 0.500000 0.500000 0.000000
O O8 0.800106 0.381387 0.628267
O O9 0.815786 0.180815 0.738057
O O10 0.730226 0.513370 0.688573
O O11 0.750000 0.250000 0.500000
O O12 0.800870 0.913827 0.478221
O O13 0.664008 0.912901 0.447418
#
# Coordination Sequence:
#
# PCOD9301036 Si02
#       6
#     8   8   8   8   8   8
#     4  11  20  36  64  91 119 152 196 261 301 352
#     4  11  23  36  60  95 122 154 202 253 310 358
#     4  11  21  38  58  94 120 152 210 243 312 370
#     4  11  23  37  63  90 120 164 199 252 298 367
#     4  11  22  35  62  92 120 157 194 263 308 353
#     4  11  22  38  59  93 123 156 205 247 306 363
#
# _framework density 17.908899999999999
#
# number of rings (size 3 to 8) (size 9 to 14) (size 15 to 20)
#    0.000    1.000    6.667    1.500    0.000    0.000 
#    0.000    0.000    0.000    6.000    0.000    0.000 
#    0.000    0.000    0.000    0.000    0.000    0.000 
#
# Total GULP energy -133987.843873 kJ/mol
# GULP energy per Si atom -5582.826828 kJ/mol
# Density = 1.786814 g / cm^3
# Si number density = 17.908900 Si / 1000 Ang^3
#
#
#
# Elastic Constant Matrix: (Units=GPa)
#
#
# Indices 1 2 3 4 5 6 
#
# 1 85.5963 17.1732 35.7628 -0.0001 3.6308 0.0002
# 2 17.1732 71.8887 20.5300 -0.0002 -4.6337 0.0006
# 3 35.7628 20.5300 105.0672 0.0000 -12.7672 0.0000
# 4 -0.0001 -0.0002 0.0000 39.3168 0.0000 -1.9124
# 5 3.6308 -4.6337 -12.7672 0.0000 25.1755 -0.0001
# 6 0.0002 0.0006 0.0000 -1.9124 -0.0001 25.6130
#
#
#
# Elastic Compliance Matrix: (Units=1/GPa)
#
#
# Indices 1 2 3 4 5 6 
#
# 1 0.014499 -0.002336 -0.005099 0.000000 -0.005107 0.000000
# 2 -0.002336 0.015151 -0.001903 0.000000 0.002161 0.000000
# 3 -0.005099 -0.001903 0.012438 0.000000 0.006693 0.000000
# 4 0.000000 0.000000 0.000000 0.025527 0.000000 0.001906
# 5 -0.005107 0.002161 0.006693 0.000000 0.044250 0.000000
# 6 0.000000 0.000000 0.000000 0.001906 0.000000 0.039185
#
#
# Mechanical properties :
#
#
# Convention : Reuss Voigt Hill
#
# Bulk Modulus (GPa) = 42.71355 45.49824 44.10590
# Shear Modulus (GPa) = 28.16424 30.62681 29.39552
#
# Velocity S-wave (km/s) = 3.96995 4.13988 4.05580
# Velocity P-wave (km/s) = 6.70196 6.95068 6.82745
#
# Compressibility (1/GPa) = 0.02341177
#
# Stress axis : x y z
#
# Youngs Moduli (GPa) = 68.97244 66.00148 80.39619
#
# Poissons Ratio (x) = 0.15421 0.40994
# Poissons Ratio (y) = 0.16115 0.15297
# Poissons Ratio (z) = 0.35169 0.12558
#
# Static dielectric constant tensor:
#      x y z
#    x 1.613750 0.000000 0.006250 
#    y 0.000000 1.638340 0.000000 
#    z 0.006250 0.000000 1.608640 
# 
# From -- ./inp_files/278598.got.cif
#   From: 2010.05.17/outbox.cif.g08.bks.cpg/sg15_140_cif.got.tgz:278598.got - 2010.06.03 18:47:42.
