data_PCOD9301802
_publ_section_title
;
Structure prediction by ZEFSAII (Michael W. Deem and Ramdas Pophale) SiO2 
 PCOD9301802
Probable space group: C 2/C
;
_chemical_formula_sum "Si O2"
_cell_formula_units_Z 48
_cell_length_a 8.601024
_cell_length_b 11.303734
_cell_length_c 23.195528
_cell_angle_alpha 90.000000
_cell_angle_beta 75.441873
_cell_angle_gamma 90.000000
_cell_volume 2182.748803
_symmetry_space_group_name_H-M "C 2/C"
_symmetry_group_IT_number 15
_symmetry_cell_setting 'monoclinic'
loop_
_space_group_symop_operation_xyz
x,y,z
-x,y,1/2-z
-x,-y,-z
x,-y,1/2+z
1/2+x,1/2+y,z
1/2-x,1/2+y,1/2-z
1/2-x,1/2-y,-z
1/2+x,1/2-y,1/2+z
loop_
_atom_site_type_symbol
_atom_site_label
_atom_site_fract_x
_atom_site_fract_y
_atom_site_fract_z
Si Si1 0.829654 0.452479 0.992678
Si Si2 0.012518 0.714263 0.108705
Si Si3 0.143107 0.647338 0.782271
Si Si4 0.100015 0.166057 0.998491
Si Si5 0.333380 0.785399 0.098462
Si Si6 0.166172 0.382372 0.771021
O O1 0.879522 0.387370 0.930362
O O2 0.681647 0.538737 0.996467
O O3 0.790931 0.362091 0.046515
O O4 0.000000 0.500000 0.000000
O O5 0.149418 0.767622 0.137128
O O6 0.951168 0.795046 0.061441
O O7 0.874627 0.656839 0.159632
O O8 0.084061 0.653359 0.854444
O O9 0.230216 0.518738 0.765601
O O10 0.227774 0.773799 0.762233
O O11 0.000000 0.644010 0.750000
O O12 0.250000 0.250000 0.000000
O O13 0.958462 0.191870 0.058185
O O14 0.000000 0.386037 0.750000
#
# Coordination Sequence:
#
# PCOD9301802 Si02
#       6
#     8   8   8   8   8   8
#     4  11  21  39  65 100 136 177 220 286 346 418
#     4  11  24  42  69  95 141 180 230 290 355 422
#     4  11  27  46  73 101 137 184 247 294 352 420
#     4  11  23  38  66 104 135 178 228 273 358 419
#     4  11  24  43  64  99 139 181 230 293 349 427
#     4  11  25  49  71 100 137 188 237 298 356 414
#
# _framework density 21.990621999999998
#
# number of rings (size 3 to 8) (size 9 to 14) (size 15 to 20)
#    0.000    1.000    5.000    3.000    2.333    4.667 
#    3.000    0.000    0.000    0.000    0.000    0.000 
#    0.000    0.000    0.000    0.000    0.000    0.000 
#
# Total GULP energy -133661.082716 kJ/mol
# GULP energy per Si atom -5569.211780 kJ/mol
# Density = 2.194057 g / cm^3
# Si number density = 21.990622 Si / 1000 Ang^3
#
#
#
# Elastic Constant Matrix: (Units=GPa)
#
#
# Indices 1 2 3 4 5 6 
#
# 1 87.7276 11.9746 -1.1268 0.0000 12.4020 0.0000
# 2 11.9746 104.3929 14.9397 0.0000 -10.0049 0.0000
# 3 -1.1268 14.9397 84.4716 0.0000 16.7256 0.0000
# 4 0.0000 0.0000 0.0000 13.3791 0.0000 -8.6083
# 5 12.4020 -10.0049 16.7256 0.0000 26.2639 0.0000
# 6 0.0000 0.0000 0.0000 -8.6083 0.0000 49.6933
#
#
#
# Elastic Compliance Matrix: (Units=1/GPa)
#
#
# Indices 1 2 3 4 5 6 
#
# 1 0.013017 -0.002661 0.002360 0.000000 -0.008663 0.000000
# 2 -0.002661 0.011134 -0.003540 0.000000 0.007752 0.000000
# 3 0.002360 -0.003540 0.014857 0.000000 -0.011924 0.000000
# 4 0.000000 0.000000 0.000000 0.084119 0.000000 0.014572
# 5 -0.008663 0.007752 -0.011924 0.000000 0.052712 0.000000
# 6 0.000000 0.000000 0.000000 0.014572 0.000000 0.022648
#
#
# Mechanical properties :
#
#
# Convention : Reuss Voigt Hill
#
# Bulk Modulus (GPa) = 31.92264 36.46300 34.19282
# Shear Modulus (GPa) = 23.08279 34.58756 28.83518
#
# Velocity S-wave (km/s) = 3.24337 3.97020 3.62505
# Velocity P-wave (km/s) = 5.34546 6.13464 5.75359
#
# Compressibility (1/GPa) = 0.03132573
#
# Stress axis : x y z
#
# Youngs Moduli (GPa) = 76.82159 89.81539 67.30945
#
# Poissons Ratio (x) = 0.23901 -0.15883
# Poissons Ratio (y) = 0.20443 0.23825
# Poissons Ratio (z) = -0.18127 0.31791
#
# Static dielectric constant tensor:
#      x y z
#    x 2.435640 0.000000 -0.350250 
#    y 0.000000 2.074580 0.000000 
#    z -0.350250 0.000000 1.916360 
# 
# From -- ./inp_files/263207.got.cif
#   From: 2010.05.17/outbox.cif.g08.bks.cpg/sg15_132_cif.got.tgz:263207.got - 2010.06.03 18:47:42.
