data_PCOD9301112
_publ_section_title
;
Structure prediction by ZEFSAII (Michael W. Deem and Ramdas Pophale) SiO2 
 PCOD9301112
Probable space group: C 2/C
;
_chemical_formula_sum "Si O2"
_cell_formula_units_Z 56
_cell_length_a 16.404610
_cell_length_b 8.108892
_cell_length_c 20.982295
_cell_angle_alpha 90.000000
_cell_angle_beta 114.223953
_cell_angle_gamma 90.000000
_cell_volume 2545.369329
_symmetry_space_group_name_H-M "C 2/C"
_symmetry_group_IT_number 15
_symmetry_cell_setting 'monoclinic'
loop_
_space_group_symop_operation_xyz
x,y,z
-x,y,1/2-z
-x,-y,-z
x,-y,1/2+z
1/2+x,1/2+y,z
1/2-x,1/2+y,1/2-z
1/2-x,1/2-y,-z
1/2+x,1/2-y,1/2+z
loop_
_atom_site_type_symbol
_atom_site_label
_atom_site_fract_x
_atom_site_fract_y
_atom_site_fract_z
Si Si1 0.491241 0.812569 0.585786
Si Si2 0.655498 0.960172 0.474365
Si Si3 0.695970 0.925901 0.336903
Si Si4 0.106396 0.090276 0.288209
Si Si5 0.094485 0.726492 0.242253
Si Si6 0.871410 0.143606 0.953039
Si Si7 0.658502 0.571149 0.936187
O O1 0.567689 0.831245 0.662988
O O2 0.535661 0.700093 0.546514
O O3 0.404930 0.728063 0.591594
O O4 0.444580 0.976585 0.546096
O O5 0.665803 0.927165 0.402135
O O6 0.668686 0.799678 0.521678
O O7 0.734460 0.082504 0.523534
O O8 0.656153 0.762450 0.290065
O O9 0.802547 0.911775 0.376523
O O10 0.661537 0.094060 0.294099
O O11 0.000000 0.119234 0.250000
O O12 0.125003 0.918649 0.256068
O O13 0.133990 0.044056 0.369098
O O14 0.000000 0.720157 0.250000
O O15 0.872957 0.006670 0.007548
#
# Coordination Sequence:
#
# PCOD9301112 Si02
#       7
#     8   8   8   8   8   8   8
#     4  12  24  41  61  98 134 161 211 272 322 384
#     4  11  21  40  68  91 122 167 219 260 317 384
#     4  11  21  42  67  92 126 171 220 263 313 386
#     4  11  20  37  68  95 122 162 229 264 304 379
#     4  11  22  40  65  95 125 171 222 265 308 384
#     4  11  24  41  61  97 137 159 207 270 334 379
#     4  11  20  41  65  91 121 172 214 265 315 381
#
# _framework density 22.000737000000001
#
# number of rings (size 3 to 8) (size 9 to 14) (size 15 to 20)
#    0.000    0.857    7.143    2.571    0.000    1.143 
#    2.571    0.000    0.000    0.000    0.000    0.000 
#    0.000    0.000    0.000    0.000    0.000    0.000 
#
# Total GULP energy -156338.959709 kJ/mol
# GULP energy per Si atom -5583.534275 kJ/mol
# Density = 2.195066 g / cm^3
# Si number density = 22.000737 Si / 1000 Ang^3
#
#
#
# Elastic Constant Matrix: (Units=GPa)
#
#
# Indices 1 2 3 4 5 6 
#
# 1 62.3500 13.8870 25.8638 0.0000 9.5367 0.0000
# 2 13.8870 93.3232 26.2929 0.0000 20.2682 0.0000
# 3 25.8638 26.2929 112.0873 0.0000 29.9928 0.0000
# 4 0.0000 0.0000 0.0000 37.4203 0.0000 14.4065
# 5 9.5367 20.2682 29.9928 0.0000 23.6720 0.0000
# 6 0.0000 0.0000 0.0000 14.4065 0.0000 31.8447
#
#
#
# Elastic Compliance Matrix: (Units=1/GPa)
#
#
# Indices 1 2 3 4 5 6 
#
# 1 0.018008 -0.001329 -0.003339 0.000000 -0.001887 0.000000
# 2 -0.001329 0.013262 0.000138 0.000000 -0.010994 0.000000
# 3 -0.003339 0.000138 0.014118 0.000000 -0.016660 0.000000
# 4 0.000000 0.000000 0.000000 0.032360 0.000000 -0.014639
# 5 -0.001887 -0.010994 -0.016660 0.000000 0.073526 0.000000
# 6 0.000000 0.000000 0.000000 -0.014639 0.000000 0.038025
#
#
# Mechanical properties :
#
#
# Convention : Reuss Voigt Hill
#
# Bulk Modulus (GPa) = 27.52763 44.42756 35.97759
# Shear Modulus (GPa) = 23.75651 32.03517 27.89584
#
# Velocity S-wave (km/s) = 3.28960 3.82002 3.56469
# Velocity P-wave (km/s) = 5.19307 6.30034 5.77331
#
# Compressibility (1/GPa) = 0.03632714
#
# Stress axis : x y z
#
# Youngs Moduli (GPa) = 55.53064 75.40224 70.83289
#
# Poissons Ratio (x) = 0.10023 0.23649
# Poissons Ratio (y) = 0.07382 -0.00974
# Poissons Ratio (z) = 0.18540 -0.01037
#
# Static dielectric constant tensor:
#      x y z
#    x 1.799830 0.000000 0.002200 
#    y 0.000000 1.902790 0.000000 
#    z 0.002200 0.000000 1.803650 
# 
# From -- ./inp_files/247581.got.cif
#   From: 2010.05.17/outbox.cif.g08.bks.cpg/sg15_124_cif.got.tgz:247581.got - 2010.06.03 18:47:42.
