data_PCOD9301441
_publ_section_title
;
Structure prediction by ZEFSAII (Michael W. Deem and Ramdas Pophale) SiO2 
 PCOD9301441
Probable space group: C 2/C
;
_chemical_formula_sum "Si O2"
_cell_formula_units_Z 52
_cell_length_a 16.476913
_cell_length_b 9.384849
_cell_length_c 22.087999
_cell_angle_alpha 90.000000
_cell_angle_beta 140.262970
_cell_angle_gamma 90.000000
_cell_volume 2183.435669
_symmetry_space_group_name_H-M "C 2/C"
_symmetry_group_IT_number 15
_symmetry_cell_setting 'monoclinic'
loop_
_space_group_symop_operation_xyz
x,y,z
-x,y,1/2-z
-x,-y,-z
x,-y,1/2+z
1/2+x,1/2+y,z
1/2-x,1/2+y,1/2-z
1/2-x,1/2-y,-z
1/2+x,1/2-y,1/2+z
loop_
_atom_site_type_symbol
_atom_site_label
_atom_site_fract_x
_atom_site_fract_y
_atom_site_fract_z
Si Si1 0.390087 0.083127 0.471734
Si Si2 0.646234 0.075134 0.783972
Si Si3 0.395817 0.610561 0.243095
Si Si4 0.428428 0.632497 0.932071
Si Si5 0.206710 0.590760 0.958746
Si Si6 0.500000 0.818668 0.750000
Si Si7 0.559247 0.378237 0.391848
O O1 0.245914 0.072146 0.361668
O O2 0.417429 0.249236 0.477422
O O3 0.385506 0.046034 0.539720
O O4 0.500000 0.000000 0.500000
O O5 0.594412 0.225905 0.728918
O O6 0.786851 0.076508 0.837528
O O7 0.653962 0.101069 0.861187
O O8 0.580427 0.920896 0.750674
O O9 0.500000 0.600139 0.250000
O O10 0.445691 0.491664 0.316765
O O11 0.508671 0.699125 0.922870
O O12 0.500000 0.500000 0.000000
O O13 0.250000 0.750000 0.000000
O O14 0.317626 0.473014 0.023768
O O15 0.425404 0.717625 0.659561
#
# Coordination Sequence:
#
# PCOD9301441 Si02
#       7
#     8   8   8   8   8   4   8
#     4  11  25  42  70 107 140 176 240 292 353 425
#     4  11  25  43  71 101 139 186 243 281 352 440
#     4  11  20  46  72  96 136 191 242 276 346 439
#     4  11  24  46  67 102 140 178 232 293 354 410
#     4  12  21  45  77  99 130 200 244 277 345 443
#     4  12  28  42  64 110 144 178 230 296 372 410
#     4  12  25  45  73 101 144 183 231 303 360 413
#
# _framework density 23.815677999999998
#
# number of rings (size 3 to 8) (size 9 to 14) (size 15 to 20)
#    0.000    0.615    7.692    0.000    2.154    5.538 
#    0.000    0.000    0.000    0.000    0.000    0.000 
#    0.000    0.000    0.000    0.000    0.000    0.000 
#
# Total GULP energy -145305.919441 kJ/mol
# GULP energy per Si atom -5588.689209 kJ/mol
# Density = 2.376147 g / cm^3
# Si number density = 23.815678 Si / 1000 Ang^3
#
#
#
# Elastic Constant Matrix: (Units=GPa)
#
#
# Indices 1 2 3 4 5 6 
#
# 1 142.9319 14.8046 8.0244 0.0000 20.1457 0.0000
# 2 14.8046 98.8582 27.4290 0.0000 16.3830 0.0000
# 3 8.0244 27.4290 55.8020 0.0000 8.8004 0.0000
# 4 0.0000 0.0000 0.0000 36.5342 0.0000 4.3341
# 5 20.1457 16.3830 8.8004 0.0000 39.9063 0.0000
# 6 0.0000 0.0000 0.0000 4.3341 0.0000 40.4837
#
#
#
# Elastic Compliance Matrix: (Units=1/GPa)
#
#
# Indices 1 2 3 4 5 6 
#
# 1 0.007563 -0.000459 -0.000300 0.000000 -0.003563 0.000000
# 2 -0.000459 0.012283 -0.005401 0.000000 -0.003620 0.000000
# 3 -0.000300 -0.005401 0.020974 0.000000 -0.002257 0.000000
# 4 0.000000 0.000000 0.000000 0.027724 0.000000 -0.002968
# 5 -0.003563 -0.003620 -0.002257 0.000000 0.028841 0.000000
# 6 0.000000 0.000000 0.000000 -0.002968 0.000000 0.025019
#
#
# Mechanical properties :
#
#
# Convention : Reuss Voigt Hill
#
# Bulk Modulus (GPa) = 35.08666 44.23424 39.66045
# Shear Modulus (GPa) = 34.66859 39.87378 37.27119
#
# Velocity S-wave (km/s) = 3.81951 4.09622 3.96028
# Velocity P-wave (km/s) = 5.84945 6.40202 6.13197
#
# Compressibility (1/GPa) = 0.02850086
#
# Stress axis : x y z
#
# Youngs Moduli (GPa) = 132.22335 81.41655 47.67776
#
# Poissons Ratio (x) = 0.03735 0.01431
# Poissons Ratio (y) = 0.06066 0.25748
# Poissons Ratio (z) = 0.03967 0.43969
#
# Static dielectric constant tensor:
#      x y z
#    x 1.872950 0.000000 0.142570 
#    y 0.000000 1.965060 0.000000 
#    z 0.142570 0.000000 1.837240 
# 
# From -- ./inp_files/298447.got.cif
#   From: 2010.05.17/outbox.cif.g08.bks.cpg/sg15_150_cif.got.tgz:298447.got - 2010.06.03 18:47:42.
