data_PCOD9301770
_publ_section_title
;
Structure prediction by ZEFSAII (Michael W. Deem and Ramdas Pophale) SiO2 
 PCOD9301770
Probable space group: C 2/C
;
_chemical_formula_sum "Si O2"
_cell_formula_units_Z 52
_cell_length_a 14.694568
_cell_length_b 15.669843
_cell_length_c 13.630853
_cell_angle_alpha 90.000000
_cell_angle_beta 139.433651
_cell_angle_gamma 90.000000
_cell_volume 2041.160091
_symmetry_space_group_name_H-M "C 2/C"
_symmetry_group_IT_number 15
_symmetry_cell_setting 'monoclinic'
loop_
_space_group_symop_operation_xyz
x,y,z
-x,y,1/2-z
-x,-y,-z
x,-y,1/2+z
1/2+x,1/2+y,z
1/2-x,1/2+y,1/2-z
1/2-x,1/2-y,-z
1/2+x,1/2-y,1/2+z
loop_
_atom_site_type_symbol
_atom_site_label
_atom_site_fract_x
_atom_site_fract_y
_atom_site_fract_z
Si Si1 0.500000 0.249095 0.750000
Si Si2 0.288392 0.938282 0.456027
Si Si3 0.214513 0.634004 0.279204
Si Si4 0.500000 0.829290 0.750000
Si Si5 0.500000 0.530776 0.750000
Si Si6 0.297162 0.065513 0.729868
Si Si7 0.994733 0.114230 0.408483
Si Si8 0.611809 0.125165 0.972691
O O1 0.541033 0.310416 0.695252
O O2 0.625532 0.195590 0.901144
O O3 0.411935 0.882764 0.599125
O O4 0.285785 0.931803 0.337731
O O5 0.138539 0.914540 0.376782
O O6 0.313639 0.038301 0.498418
O O7 0.132149 0.697614 0.285959
O O8 0.186551 0.534528 0.285312
O O9 0.383256 0.630327 0.403891
O O10 0.156011 0.646107 0.119914
O O11 0.525450 0.471013 0.675001
O O12 0.155076 0.107077 0.573281
O O13 0.445358 0.108847 0.831565
#
# Coordination Sequence:
#
# PCOD9301770 Si02
#       8
#     4   8   8   4   4   8   8   8
#     4  11  29  44  70 100 138 199 223 274 342 419
#     4  11  22  37  62 101 132 178 224 287 351 404
#     4  11  22  40  63  95 134 175 225 292 343 399
#     4  12  21  36  67  94 123 169 222 284 354 398
#     4  11  22  36  57  94 137 178 219 264 356 413
#     4  11  21  39  61  93 136 176 220 289 346 400
#     4  11  25  41  58  95 141 180 227 274 344 413
#     4  11  22  42  62  93 139 172 235 278 331 413
#
# _framework density 25.475708999999998
#
# number of rings (size 3 to 8) (size 9 to 14) (size 15 to 20)
#    0.000    0.923    6.154    2.769    4.308    2.462 
#    0.000    0.000    0.000    0.923    0.000    0.000 
#    0.000    0.000    0.000    0.000    0.000    0.000 
#
# Total GULP energy -145371.455105 kJ/mol
# GULP energy per Si atom -5591.209812 kJ/mol
# Density = 2.541773 g / cm^3
# Si number density = 25.475709 Si / 1000 Ang^3
#
#
#
# Elastic Constant Matrix: (Units=GPa)
#
#
# Indices 1 2 3 4 5 6 
#
# 1 130.6774 6.5328 55.3614 0.0000 21.8935 0.0000
# 2 6.5328 22.7038 26.9641 0.0000 -7.3253 0.0000
# 3 55.3614 26.9641 137.1592 0.0000 29.2065 0.0000
# 4 0.0000 0.0000 0.0000 23.8726 0.0000 28.6811
# 5 21.8935 -7.3253 29.2065 0.0000 60.6473 0.0000
# 6 0.0000 0.0000 0.0000 28.6811 0.0000 55.3272
#
#
#
# Elastic Compliance Matrix: (Units=1/GPa)
#
#
# Indices 1 2 3 4 5 6 
#
# 1 0.009417 0.001270 -0.003743 0.000000 -0.001443 0.000000
# 2 0.001270 0.070269 -0.017869 0.000000 0.016634 0.000000
# 3 -0.003743 -0.017869 0.013913 0.000000 -0.007507 0.000000
# 4 0.000000 0.000000 0.000000 0.111054 0.000000 -0.057569
# 5 -0.001443 0.016634 -0.007507 0.000000 0.022634 0.000000
# 6 0.000000 0.000000 0.000000 -0.057569 0.000000 0.047918
#
#
# Mechanical properties :
#
#
# Convention : Reuss Voigt Hill
#
# Bulk Modulus (GPa) = 18.89822 52.02857 35.46340
# Shear Modulus (GPa) = 14.99130 41.41491 28.20310
#
# Velocity S-wave (km/s) = 2.42844 4.03632 3.33086
# Velocity P-wave (km/s) = 3.91118 6.49536 5.36130
#
# Compressibility (1/GPa) = 0.05291503
#
# Stress axis : x y z
#
# Youngs Moduli (GPa) = 106.19627 14.23104 71.87455
#
# Poissons Ratio (x) = -0.01808 0.26904
# Poissons Ratio (y) = -0.13492 1.28433
# Poissons Ratio (z) = 0.39752 0.25429
#
# Static dielectric constant tensor:
#      x y z
#    x 2.167510 0.000000 0.094020 
#    y 0.000000 2.106200 0.000000 
#    z 0.094020 0.000000 2.059860 
# 
# From -- ./inp_files/155581.got.cif
#   From: 2010.05.17/outbox.cif.g08.bks.cpg/sg15_78_cif.got.tgz:155581.got - 2010.06.03 18:47:42.
