data_PCOD9301502
_publ_section_title
;
Structure prediction by ZEFSAII (Michael W. Deem and Ramdas Pophale) SiO2 
 PCOD9301502
Probable space group: C 2/C
;
_chemical_formula_sum "Si O2"
_cell_formula_units_Z 32
_cell_length_a 13.059732
_cell_length_b 9.403166
_cell_length_c 16.344402
_cell_angle_alpha 90.000000
_cell_angle_beta 33.789436
_cell_angle_gamma 90.000000
_cell_volume 1116.254966
_symmetry_space_group_name_H-M "C 2/C"
_symmetry_group_IT_number 15
_symmetry_cell_setting 'monoclinic'
loop_
_space_group_symop_operation_xyz
x,y,z
-x,y,1/2-z
-x,-y,-z
x,-y,1/2+z
1/2+x,1/2+y,z
1/2-x,1/2+y,1/2-z
1/2-x,1/2-y,-z
1/2+x,1/2-y,1/2+z
loop_
_atom_site_type_symbol
_atom_site_label
_atom_site_fract_x
_atom_site_fract_y
_atom_site_fract_z
Si Si1 0.862480 0.301714 0.779293
Si Si2 0.069107 0.026256 0.546484
Si Si3 0.921711 0.596495 0.900956
Si Si4 0.779478 0.167350 0.302222
O O1 0.801237 0.266390 0.728249
O O2 0.000000 0.220681 0.750000
O O3 0.967626 0.450392 0.687533
O O4 0.682936 0.329215 0.955089
O O5 0.229281 0.926874 0.480223
O O6 0.888072 0.980724 0.715872
O O7 0.000000 0.000000 0.500000
O O8 0.064031 0.718429 0.781793
O O9 0.866034 0.633655 0.030982
#
# Coordination Sequence:
#
# PCOD9301502 Si02
#       4
#     8   8   8   8
#     4   9  20  39  59  82 117 158 198 247 303 355
#     4   9  19  35  55  81 116 151 188 238 296 350
#     4  11  21  35  58  89 119 157 201 247 297 355
#     4  11  21  35  58  90 120 154 201 250 296 356
#
# _framework density 28.667287000000002
#
# number of rings (size 3 to 8) (size 9 to 14) (size 15 to 20)
#    0.000    2.000    0.000    3.750    0.000    4.000 
#    0.000    1.250    0.000    6.000    0.000    0.000 
#    0.000    0.000    0.000    0.000    0.000    0.000 
#
# Total GULP energy -89477.926054 kJ/mol
# GULP energy per Si atom -5592.370378 kJ/mol
# Density = 2.860204 g / cm^3
# Si number density = 28.667287 Si / 1000 Ang^3
#
#
#
# Elastic Constant Matrix: (Units=GPa)
#
#
# Indices 1 2 3 4 5 6 
#
# 1 248.7900 45.8628 29.8239 -0.0001 7.1219 0.0000
# 2 45.8628 94.5262 37.3682 0.0000 2.7911 0.0000
# 3 29.8239 37.3682 183.5014 -0.0004 24.4195 0.0002
# 4 -0.0001 0.0000 -0.0004 34.8115 0.0002 -2.2078
# 5 7.1219 2.7911 24.4195 0.0002 56.6206 0.0000
# 6 0.0000 0.0000 0.0002 -2.2078 0.0000 38.3445
#
#
#
# Elastic Compliance Matrix: (Units=1/GPa)
#
#
# Indices 1 2 3 4 5 6 
#
# 1 0.004436 -0.002040 -0.000260 0.000000 -0.000345 0.000000
# 2 -0.002040 0.012455 -0.002289 0.000000 0.000630 0.000000
# 3 -0.000260 -0.002289 0.006300 0.000000 -0.002572 0.000000
# 4 0.000000 0.000000 0.000000 0.028831 0.000000 0.001660
# 5 -0.000345 0.000630 -0.002572 0.000000 0.018783 0.000000
# 6 0.000000 0.000000 0.000000 0.001660 0.000000 0.026175
#
#
# Mechanical properties :
#
#
# Convention : Reuss Voigt Hill
#
# Bulk Modulus (GPa) = 71.34999 83.65859 77.50429
# Shear Modulus (GPa) = 45.11485 53.53951 49.32718
#
# Velocity S-wave (km/s) = 3.97134 4.32628 4.15261
# Velocity P-wave (km/s) = 6.78025 7.36217 7.07719
#
# Compressibility (1/GPa) = 0.01401542
#
# Stress axis : x y z
#
# Youngs Moduli (GPa) = 225.40430 80.29020 158.72952
#
# Poissons Ratio (x) = 0.16376 0.04122
# Poissons Ratio (y) = 0.45974 0.36327
# Poissons Ratio (z) = 0.05854 0.18375
#
# Static dielectric constant tensor:
#      x y z
#    x 2.256570 0.000000 -0.019570 
#    y 0.000000 2.338650 0.000000 
#    z -0.019570 0.000000 2.257370 
# 
# From -- ./inp_files/54828.got.cif
#   From: 2010.05.17/outbox.cif.g08.bks.cpg/sg15_28_cif.got.tgz:54828.got - 2010.06.03 18:47:42.
