data_PCOD9301134
_publ_section_title
;
Structure prediction by ZEFSAII (Michael W. Deem and Ramdas Pophale) SiO2 
 PCOD9301134
Probable space group: C 2/C
;
_chemical_formula_sum "Si O2"
_cell_formula_units_Z 56
_cell_length_a 17.385157
_cell_length_b 16.388987
_cell_length_c 10.045975
_cell_angle_alpha 90.000000
_cell_angle_beta 113.936998
_cell_angle_gamma 90.000000
_cell_volume 2616.165935
_symmetry_space_group_name_H-M "C 2/C"
_symmetry_group_IT_number 15
_symmetry_cell_setting 'monoclinic'
loop_
_space_group_symop_operation_xyz
x,y,z
-x,y,1/2-z
-x,-y,-z
x,-y,1/2+z
1/2+x,1/2+y,z
1/2-x,1/2+y,1/2-z
1/2-x,1/2-y,-z
1/2+x,1/2-y,1/2+z
loop_
_atom_site_type_symbol
_atom_site_label
_atom_site_fract_x
_atom_site_fract_y
_atom_site_fract_z
Si Si1 0.946189 0.527676 0.585994
Si Si2 0.739879 0.960468 0.511578
Si Si3 0.756446 0.328888 0.755622
Si Si4 0.182589 0.126540 0.924474
Si Si5 0.995336 0.294074 0.389435
Si Si6 0.197581 0.657958 0.738661
Si Si7 0.929271 0.744191 0.293118
O O1 0.851269 0.497744 0.527347
O O2 0.944192 0.626685 0.582032
O O3 0.000000 0.502765 0.750000
O O4 0.000000 0.500000 0.500000
O O5 0.751932 0.901596 0.646169
O O6 0.726184 0.910792 0.364097
O O7 0.811903 0.028810 0.557516
O O8 0.700052 0.339742 0.584228
O O9 0.730771 0.245665 0.811003
O O10 0.850391 0.314741 0.765082
O O11 0.256785 0.146920 0.870856
O O12 0.104675 0.174678 0.804181
O O13 0.027392 0.241233 0.534118
O O14 0.000000 0.250908 0.250000
O O15 0.902570 0.331717 0.346258
O O16 0.000000 0.704845 0.250000
#
# Coordination Sequence:
#
# PCOD9301134 Si02
#       7
#     8   8   8   8   8   8   8
#     4  11  23  37  57  94 134 171 209 261 342 400
#     4  12  23  40  63  94 137 172 213 276 332 399
#     4  11  23  41  63  95 125 176 227 267 334 395
#     4  11  25  40  62  96 135 174 221 269 339 401
#     4  11  20  38  60  92 129 160 221 267 325 391
#     4  11  21  41  64  92 128 175 220 274 325 401
#     4  11  22  41  67  93 125 174 224 276 325 391
#
# _framework density 21.405370000000001
#
# number of rings (size 3 to 8) (size 9 to 14) (size 15 to 20)
#    0.000    0.857    4.286    5.571    2.000    1.714 
#    0.000    0.000    0.000   14.571    0.000    0.000 
#    0.000    0.000    0.000    0.000    0.000    0.000 
#
# Total GULP energy -156493.155482 kJ/mol
# GULP energy per Si atom -5589.041267 kJ/mol
# Density = 2.135665 g / cm^3
# Si number density = 21.405370 Si / 1000 Ang^3
#
#
#
# Elastic Constant Matrix: (Units=GPa)
#
#
# Indices 1 2 3 4 5 6 
#
# 1 30.4788 -3.4529 -7.5503 0.0000 9.5327 0.0000
# 2 -3.4529 82.6903 21.7621 0.0000 12.7923 0.0000
# 3 -7.5503 21.7621 140.5279 0.0000 10.9025 0.0000
# 4 0.0000 0.0000 0.0000 -7.8336 0.0000 -13.7888
# 5 9.5327 12.7923 10.9025 0.0000 21.6815 0.0000
# 6 0.0000 0.0000 0.0000 -13.7888 0.0000 7.4704
#
#
#
# Elastic Compliance Matrix: (Units=1/GPa)
#
#
# Indices 1 2 3 4 5 6 
#
# 1 0.041057 0.004294 0.003265 0.000000 -0.022227 0.000000
# 2 0.004294 0.014072 -0.001205 0.000000 -0.009585 0.000000
# 3 0.003265 -0.001205 0.007840 0.000000 -0.004667 0.000000
# 4 0.000000 0.000000 0.000000 -0.030044 0.000000 -0.055454
# 5 -0.022227 -0.009585 -0.004667 0.000000 0.063897 0.000000
# 6 0.000000 0.000000 0.000000 -0.055454 0.000000 0.031504
#
#
# Mechanical properties :
#
#
# Convention : Reuss Voigt Hill
#
# Bulk Modulus (GPa) = 13.21398 30.57941 21.89670
# Shear Modulus (GPa) = 35.50012 20.45954 27.97983
#
# Velocity S-wave (km/s) = 4.07685 3.09498 3.61936
# Velocity P-wave (km/s) = 5.32424 5.20468 5.26480
#
# Compressibility (1/GPa) = 0.07567740
#
# Stress axis : x y z
#
# Youngs Moduli (GPa) = 24.35651 71.06067 127.54833
#
# Poissons Ratio (x) = -0.30510 -0.41650
# Poissons Ratio (y) = -0.10458 0.15369
# Poissons Ratio (z) = -0.07953 0.08563
#
# Static dielectric constant tensor:
#      x y z
#    x 1.775960 0.000000 0.001060 
#    y 0.000000 1.831300 0.000000 
#    z 0.001060 0.000000 1.804530 
# 
# From -- ./inp_files/49164.got.cif
#   From: 2010.05.17/outbox.cif.g08.bks.cpg/sg15_25_cif.got.tgz:49164.got - 2010.06.03 18:47:42.
