data_PCOD9301066
_publ_section_title
;
Structure prediction by ZEFSAII (Michael W. Deem and Ramdas Pophale) SiO2 
 PCOD9301066
Probable space group: C 2/C
;
_chemical_formula_sum "Si O2"
_cell_formula_units_Z 32
_cell_length_a 7.317596
_cell_length_b 12.770156
_cell_length_c 24.981456
_cell_angle_alpha 90.000000
_cell_angle_beta 39.131945
_cell_angle_gamma 90.000000
_cell_volume 1473.283525
_symmetry_space_group_name_H-M "C 2/C"
_symmetry_group_IT_number 15
_symmetry_cell_setting 'monoclinic'
loop_
_space_group_symop_operation_xyz
x,y,z
-x,y,1/2-z
-x,-y,-z
x,-y,1/2+z
1/2+x,1/2+y,z
1/2-x,1/2+y,1/2-z
1/2-x,1/2-y,-z
1/2+x,1/2-y,1/2+z
loop_
_atom_site_type_symbol
_atom_site_label
_atom_site_fract_x
_atom_site_fract_y
_atom_site_fract_z
Si Si1 0.054986 0.880593 0.931219
Si Si2 0.032447 0.458967 0.115296
Si Si3 0.425012 0.748847 0.181301
Si Si4 0.578180 0.184117 0.364454
O O1 0.070250 0.826006 0.870887
O O2 0.234607 0.808690 0.933046
O O3 0.243984 0.987395 0.892947
O O4 0.735600 0.906724 0.024026
O O5 0.848460 0.366574 0.182109
O O6 0.866761 0.561983 0.132876
O O7 0.218389 0.705740 0.274550
O O8 0.746658 0.752742 0.133775
#
# Coordination Sequence:
#
# PCOD9301066 Si02
#       4
#     8   8   8   8
#     4   9  20  42  56  82 117 145 189 232 274 334
#     4   9  21  41  56  84 116 143 191 233 270 339
#     4  11  20  37  60  80 117 147 182 236 278 328
#     4   9  22  38  53  91 109 142 201 216 276 352
#
# _framework density 21.720189999999999
#
# number of rings (size 3 to 8) (size 9 to 14) (size 15 to 20)
#    1.500    1.000    0.000    1.500    0.000    6.000 
#   13.500    0.000    0.000    0.000    0.000    0.000 
#    0.000    0.000    0.000    0.000    0.000    0.000 
#
# Total GULP energy -89133.091969 kJ/mol
# GULP energy per Si atom -5570.818248 kJ/mol
# Density = 2.167075 g / cm^3
# Si number density = 21.720190 Si / 1000 Ang^3
#
#
#
# Elastic Constant Matrix: (Units=GPa)
#
#
# Indices 1 2 3 4 5 6 
#
# 1 50.6645 3.5026 10.0220 -0.0017 11.1310 0.0004
# 2 3.5026 43.5097 9.0951 -0.0049 -2.8657 0.0038
# 3 10.0220 9.0951 50.9763 -0.0011 -9.7081 0.0066
# 4 -0.0017 -0.0049 -0.0011 -19.0301 -0.0018 29.6123
# 5 11.1310 -2.8657 -9.7081 -0.0018 20.0881 0.0018
# 6 0.0004 0.0038 0.0066 29.6123 0.0018 -14.3045
#
#
#
# Elastic Compliance Matrix: (Units=1/GPa)
#
#
# Indices 1 2 3 4 5 6 
#
# 1 0.025498 -0.001540 -0.008228 0.000004 -0.018324 0.000002
# 2 -0.001540 0.024007 -0.003487 -0.000001 0.002593 0.000003
# 3 -0.008228 -0.003487 0.024924 -0.000008 0.016107 -0.000004
# 4 0.000004 -0.000001 -0.000008 0.023657 -0.000009 0.048972
# 5 -0.018324 0.002593 0.016107 -0.000009 0.068089 -0.000001
# 6 0.000002 0.000003 -0.000004 0.048972 -0.000001 0.031472
#
#
# Mechanical properties :
#
#
# Convention : Reuss Voigt Hill
#
# Bulk Modulus (GPa) = 20.86809 21.15443 21.01126
# Shear Modulus (GPa) = 20.82226 5.51941 13.17084
#
# Velocity S-wave (km/s) = 3.09958 1.59583 2.46516
# Velocity P-wave (km/s) = 4.73692 3.62715 4.21869
#
# Compressibility (1/GPa) = 0.04792005
#
# Stress axis : x y z
#
# Youngs Moduli (GPa) = 39.21939 41.65463 40.12158
#
# Poissons Ratio (x) = 0.06413 0.33012
# Poissons Ratio (y) = 0.06038 0.13990
# Poissons Ratio (z) = 0.32270 0.14524
#
# Static dielectric constant tensor:
#      x y z
#    x 1.809560 0.000000 -0.047340 
#    y 0.000000 1.793750 0.000000 
#    z -0.047340 0.000000 1.786310 
# 
# From -- ./inp_files/187363.got.cif
#   From: 2010.05.17/outbox.cif.g08.bks.cpg/sg15_94_cif.got.tgz:187363.got - 2010.06.03 18:47:42.
