data_PCOD9301429
_publ_section_title
;
Structure prediction by ZEFSAII (Michael W. Deem and Ramdas Pophale) SiO2 
 PCOD9301429
Probable space group: C 2/C
;
_chemical_formula_sum "Si O2"
_cell_formula_units_Z 48
_cell_length_a 7.267710
_cell_length_b 29.664452
_cell_length_c 15.040554
_cell_angle_alpha 90.000000
_cell_angle_beta 37.866902
_cell_angle_gamma 90.000000
_cell_volume 1990.422833
_symmetry_space_group_name_H-M "C 2/C"
_symmetry_group_IT_number 15
_symmetry_cell_setting 'monoclinic'
loop_
_space_group_symop_operation_xyz
x,y,z
-x,y,1/2-z
-x,-y,-z
x,-y,1/2+z
1/2+x,1/2+y,z
1/2-x,1/2+y,1/2-z
1/2-x,1/2-y,-z
1/2+x,1/2-y,1/2+z
loop_
_atom_site_type_symbol
_atom_site_label
_atom_site_fract_x
_atom_site_fract_y
_atom_site_fract_z
Si Si1 0.559374 0.756070 0.331241
Si Si2 0.500000 0.520598 0.250000
Si Si3 0.238869 0.589434 0.485622
Si Si4 0.800350 0.154821 0.234248
Si Si5 0.747511 0.606836 0.521112
Si Si6 0.204016 0.459458 0.236068
Si Si7 0.000000 0.175439 0.750000
O O1 0.500000 0.767433 0.250000
O O2 0.732233 0.707911 0.267384
O O3 0.729293 0.792990 0.324199
O O4 0.250000 0.750000 0.500000
O O5 0.427862 0.550714 0.363443
O O6 0.247618 0.487469 0.310013
O O7 0.466194 0.629873 0.419470
O O8 0.979485 0.597101 0.512602
O O9 0.056432 0.576174 0.641358
O O10 0.484350 0.128593 0.361291
O O11 0.000000 0.150498 0.250000
O O12 0.523201 0.564283 0.590709
O O13 0.553111 0.645447 0.642336
O O14 0.000000 0.490742 0.250000
#
# Coordination Sequence:
#
# PCOD9301429 Si02
#       7
#     8   4   8   8   8   8   4
#     4  11  25  44  70 103 145 184 237 305 353 416
#     4  12  23  44  78  96 138 180 232 286 353 408
#     4  11  20  44  73  95 131 189 221 282 350 412
#     4   9  20  40  69  97 132 179 238 274 348 417
#     4  11  21  44  69  96 138 187 231 280 347 423
#     4  12  27  43  68 105 139 177 235 284 346 420
#     4  12  23  42  74 100 140 186 242 284 351 420
#
# _framework density 24.115479000000001
#
# number of rings (size 3 to 8) (size 9 to 14) (size 15 to 20)
#    0.000    1.000    5.833    3.500    0.000    4.000 
#    3.000    0.000    0.000    0.000    0.000    0.000 
#    0.000    0.000    0.000    0.000    0.000    0.000 
#
# Total GULP energy -133895.954956 kJ/mol
# GULP energy per Si atom -5578.998123 kJ/mol
# Density = 2.406059 g / cm^3
# Si number density = 24.115479 Si / 1000 Ang^3
#
#
#
# Elastic Constant Matrix: (Units=GPa)
#
#
# Indices 1 2 3 4 5 6 
#
# 1 106.9261 3.0401 4.3083 0.0000 -15.2708 0.0000
# 2 3.0401 53.9052 -0.9587 0.0000 -11.3537 0.0000
# 3 4.3083 -0.9587 92.2730 0.0000 0.1862 0.0000
# 4 0.0000 0.0000 0.0000 24.7989 0.0000 -7.0930
# 5 -15.2708 -11.3537 0.1862 0.0000 35.7998 0.0000
# 6 0.0000 0.0000 0.0000 -7.0930 0.0000 -28.7089
#
#
#
# Elastic Compliance Matrix: (Units=1/GPa)
#
#
# Indices 1 2 3 4 5 6 
#
# 1 0.009986 0.000349 -0.000471 0.000000 0.004373 0.000000
# 2 0.000349 0.019895 0.000177 0.000000 0.006458 0.000000
# 3 -0.000471 0.000177 0.010862 0.000000 -0.000201 0.000000
# 4 0.000000 0.000000 0.000000 0.037663 0.000000 -0.009305
# 5 0.004373 0.006458 -0.000201 0.000000 0.031847 0.000000
# 6 0.000000 0.000000 0.000000 -0.009305 0.000000 -0.032533
#
#
# Mechanical properties :
#
#
# Convention : Reuss Voigt Hill
#
# Bulk Modulus (GPa) = 24.47807 29.54265 27.01036
# Shear Modulus (GPa) = 54.80897 22.82560 38.81729
#
# Velocity S-wave (km/s) = 4.77253 3.07988 4.01639
# Velocity P-wave (km/s) = 6.36724 4.99246 5.72130
#
# Compressibility (1/GPa) = 0.04085289
#
# Stress axis : x y z
#
# Youngs Moduli (GPa) = 100.14193 50.26477 92.06691
#
# Poissons Ratio (x) = -0.01757 0.04340
# Poissons Ratio (y) = -0.03500 -0.01633
# Poissons Ratio (z) = 0.04721 -0.00891
#
# Static dielectric constant tensor:
#      x y z
#    x 19.606750 0.000000 3.291440 
#    y 0.000000 2.050800 0.000000 
#    z 3.291440 0.000000 2.113740 
# 
# From -- ./inp_files/194200.got.cif
#   From: 2010.05.17/outbox.cif.g08.bks.cpg/sg15_98_cif.got.tgz:194200.got - 2010.06.03 18:47:42.
