data_PCOD9301260
_publ_section_title
;
Structure prediction by ZEFSAII (Michael W. Deem and Ramdas Pophale) SiO2 
 PCOD9301260
Probable space group: C 2/C
;
_chemical_formula_sum "Si O2"
_cell_formula_units_Z 56
_cell_length_a 11.326815
_cell_length_b 32.165706
_cell_length_c 13.142809
_cell_angle_alpha 90.000000
_cell_angle_beta 33.135542
_cell_angle_gamma 90.000000
_cell_volume 2617.434439
_symmetry_space_group_name_H-M "C 2/C"
_symmetry_group_IT_number 15
_symmetry_cell_setting 'monoclinic'
loop_
_space_group_symop_operation_xyz
x,y,z
-x,y,1/2-z
-x,-y,-z
x,-y,1/2+z
1/2+x,1/2+y,z
1/2-x,1/2+y,1/2-z
1/2-x,1/2-y,-z
1/2+x,1/2-y,1/2+z
loop_
_atom_site_type_symbol
_atom_site_label
_atom_site_fract_x
_atom_site_fract_y
_atom_site_fract_z
Si Si1 0.425716 0.360243 0.027370
Si Si2 0.520252 0.525119 0.613990
Si Si3 0.646828 0.712481 0.241579
Si Si4 0.929513 0.305294 0.179888
Si Si5 0.041160 0.452848 0.435401
Si Si6 0.336764 0.086427 0.283206
Si Si7 0.824704 0.066072 0.459561
O O1 0.237748 0.340898 0.230891
O O2 0.517219 0.319861 0.903057
O O3 0.637030 0.382636 0.915988
O O4 0.307805 0.394742 0.044016
O O5 0.500000 0.532367 0.750000
O O6 0.299053 0.546030 0.733348
O O7 0.727342 0.545529 0.412267
O O8 0.560722 0.475415 0.576664
O O9 0.500000 0.719802 0.250000
O O10 0.672340 0.759358 0.263518
O O11 0.864247 0.693059 0.041175
O O12 0.000000 0.310048 0.250000
O O13 0.000000 0.500000 0.500000
O O14 0.953381 0.424619 0.592312
O O15 0.895093 0.444946 0.441353
O O16 0.500000 0.102719 0.250000
O O17 0.000000 0.080322 0.250000
#
# Coordination Sequence:
#
# PCOD9301260 Si02
#       7
#     8   8   8   8   8   8   8
#     4  12  25  39  63  98 135 160 214 272 323 384
#     4  11  23  45  63  86 127 180 230 258 317 388
#     4  11  20  40  63  92 134 166 202 249 321 408
#     4  11  21  37  65  94 127 172 201 246 328 407
#     4  12  22  41  66  89 126 171 219 274 317 374
#     4  12  26  43  66  90 125 177 221 271 322 375
#     4  11  22  41  62  96 133 167 215 283 320 362
#
# _framework density 21.394995999999999
#
# number of rings (size 3 to 8) (size 9 to 14) (size 15 to 20)
#    0.000    0.571    8.571    1.286    0.000    4.571 
#    0.000    3.571    0.000    0.857    0.000    0.000 
#    0.000    0.000    0.000    0.000    0.000    0.000 
#
# Total GULP energy -156563.858984 kJ/mol
# GULP energy per Si atom -5591.566392 kJ/mol
# Density = 2.134630 g / cm^3
# Si number density = 21.394996 Si / 1000 Ang^3
#
#
#
# Elastic Constant Matrix: (Units=GPa)
#
#
# Indices 1 2 3 4 5 6 
#
# 1 93.3068 38.9791 34.6279 0.0000 -26.6015 0.0000
# 2 38.9791 100.8894 25.5313 0.0000 -14.2287 0.0000
# 3 34.6279 25.5313 120.8250 0.0000 -16.1288 0.0000
# 4 0.0000 0.0000 0.0000 52.0241 0.0000 -6.9766
# 5 -26.6015 -14.2287 -16.1288 0.0000 35.4255 0.0000
# 6 0.0000 0.0000 0.0000 -6.9766 0.0000 16.3635
#
#
#
# Elastic Compliance Matrix: (Units=1/GPa)
#
#
# Indices 1 2 3 4 5 6 
#
# 1 0.016044 -0.004276 -0.002465 0.000000 0.009207 0.000000
# 2 -0.004276 0.012012 -0.001168 0.000000 0.001082 0.000000
# 3 -0.002465 -0.001168 0.009497 0.000000 0.002003 0.000000
# 4 0.000000 0.000000 0.000000 0.020388 0.000000 0.008692
# 5 0.009207 0.001082 0.002003 0.000000 0.036489 0.000000
# 6 0.000000 0.000000 0.000000 0.008692 0.000000 0.064817
#
#
# Mechanical properties :
#
#
# Convention : Reuss Voigt Hill
#
# Bulk Modulus (GPa) = 46.01194 57.03309 51.52252
# Shear Modulus (GPa) = 27.42565 35.15483 31.29024
#
# Velocity S-wave (km/s) = 3.58421 4.05796 3.82842
# Velocity P-wave (km/s) = 6.21943 6.97647 6.60880
#
# Compressibility (1/GPa) = 0.02173349
#
# Stress axis : x y z
#
# Youngs Moduli (GPa) = 62.33000 83.24897 105.29292
#
# Poissons Ratio (x) = 0.35598 0.25959
# Poissons Ratio (y) = 0.26653 0.12302
# Poissons Ratio (z) = 0.15367 0.09726
#
# Static dielectric constant tensor:
#      x y z
#    x 1.817130 0.000000 0.002620 
#    y 0.000000 1.810450 0.000000 
#    z 0.002620 0.000000 1.803970 
# 
# From -- ./inp_files/149257.got.cif
#   From: 2010.05.17/outbox.cif.g08.bks.cpg/sg15_75_cif.got.tgz:149257.got - 2010.06.03 18:47:42.
