data_PCOD9301776
_publ_section_title
;
Structure prediction by ZEFSAII (Michael W. Deem and Ramdas Pophale) SiO2 
 PCOD9301776
Probable space group: C 2/C
;
_chemical_formula_sum "Si O2"
_cell_formula_units_Z 56
_cell_length_a 15.527073
_cell_length_b 22.356865
_cell_length_c 13.162186
_cell_angle_alpha 90.000000
_cell_angle_beta 141.686125
_cell_angle_gamma 90.000000
_cell_volume 2832.686665
_symmetry_space_group_name_H-M "C 2/C"
_symmetry_group_IT_number 15
_symmetry_cell_setting 'monoclinic'
loop_
_space_group_symop_operation_xyz
x,y,z
-x,y,1/2-z
-x,-y,-z
x,-y,1/2+z
1/2+x,1/2+y,z
1/2-x,1/2+y,1/2-z
1/2-x,1/2-y,-z
1/2+x,1/2-y,1/2+z
loop_
_atom_site_type_symbol
_atom_site_label
_atom_site_fract_x
_atom_site_fract_y
_atom_site_fract_z
Si Si1 0.772332 0.825567 0.331964
Si Si2 0.389894 0.387570 0.735850
Si Si3 0.637408 0.449921 0.584988
Si Si4 0.529682 0.744821 0.162841
Si Si5 0.157537 0.583981 0.889185
Si Si6 0.841939 0.935584 0.259060
Si Si7 0.657972 0.944165 0.885731
O O1 0.627307 0.789484 0.190243
O O2 0.744105 0.872628 0.396751
O O3 0.816381 0.869047 0.280849
O O4 0.891683 0.779064 0.478071
O O5 0.500000 0.405458 0.750000
O O6 0.423645 0.412512 0.877239
O O7 0.386500 0.316377 0.737821
O O8 0.238878 0.412284 0.569844
O O9 0.503768 0.451798 0.386764
O O10 0.685436 0.512404 0.681328
O O11 0.758695 0.418652 0.633598
O O12 0.500000 0.767836 0.250000
O O13 0.154120 0.514880 0.856374
O O14 0.000000 0.603655 0.750000
O O15 0.744569 0.939630 0.070190
O O16 0.500000 0.922593 0.750000
#
# Coordination Sequence:
#
# PCOD9301776 Si02
#       7
#     8   8   8   8   8   8   8
#     4  12  23  41  58  96 128 172 212 263 318 387
#     4  11  21  39  62  96 131 163 214 259 316 390
#     4  11  22  39  68  93 127 171 211 268 325 377
#     4  11  23  38  61  90 134 166 213 267 319 386
#     4  11  22  35  58  90 136 169 201 255 321 388
#     4  11  23  39  66  93 128 168 216 264 320 390
#     4  11  25  41  59  97 135 167 212 261 326 389
#
# _framework density 19.769219
#
# number of rings (size 3 to 8) (size 9 to 14) (size 15 to 20)
#    0.000    0.857    7.143    1.286    4.000    1.714 
#    0.000    0.000    0.000    0.857    0.000    0.000 
#    0.000    0.000    0.000    0.000    0.000    0.000 
#
# Total GULP energy -156105.936107 kJ/mol
# GULP energy per Si atom -5575.212004 kJ/mol
# Density = 1.972422 g / cm^3
# Si number density = 19.769219 Si / 1000 Ang^3
#
#
#
# Elastic Constant Matrix: (Units=GPa)
#
#
# Indices 1 2 3 4 5 6 
#
# 1 110.6881 28.3926 55.6335 0.0000 5.3914 0.0000
# 2 28.3926 72.8162 8.5397 0.0000 -3.6459 0.0000
# 3 55.6335 8.5397 98.6931 0.0000 10.3916 0.0000
# 4 0.0000 0.0000 0.0000 35.5460 0.0000 20.3845
# 5 5.3914 -3.6459 10.3916 0.0000 20.3525 0.0000
# 6 0.0000 0.0000 0.0000 20.3845 0.0000 39.3476
#
#
#
# Elastic Compliance Matrix: (Units=1/GPa)
#
#
# Indices 1 2 3 4 5 6 
#
# 1 0.013974 -0.004619 -0.007399 0.000000 -0.000752 0.000000
# 2 -0.004619 0.015610 0.000877 0.000000 0.003572 0.000000
# 3 -0.007399 0.000877 0.014800 0.000000 -0.005440 0.000000
# 4 0.000000 0.000000 0.000000 0.040023 0.000000 -0.020735
# 5 -0.000752 0.003572 -0.005440 0.000000 0.052750 0.000000
# 6 0.000000 0.000000 0.000000 -0.020735 0.000000 0.036156
#
#
# Mechanical properties :
#
#
# Convention : Reuss Voigt Hill
#
# Bulk Modulus (GPa) = 45.24224 51.92545 48.58384
# Shear Modulus (GPa) = 24.63496 31.69132 28.16314
#
# Velocity S-wave (km/s) = 3.53388 4.00817 3.77848
# Velocity P-wave (km/s) = 6.29174 6.90966 6.60793
#
# Compressibility (1/GPa) = 0.02210324
#
# Stress axis : x y z
#
# Youngs Moduli (GPa) = 71.55919 64.06054 67.56800
#
# Poissons Ratio (x) = 0.29589 0.49991
# Poissons Ratio (y) = 0.33052 -0.05924
# Poissons Ratio (z) = 0.52944 -0.05617
#
# Static dielectric constant tensor:
#      x y z
#    x 1.874950 0.000000 -0.156770 
#    y 0.000000 1.711640 0.000000 
#    z -0.156770 0.000000 2.146130 
# 
# From -- ./inp_files/101131.got.cif
#   From: 2010.05.17/outbox.cif.g08.bks.cpg/sg15_51_cif.got.tgz:101131.got - 2010.06.03 18:47:42.
