data_PCOD9301843
_publ_section_title
;
Structure prediction by ZEFSAII (Michael W. Deem and Ramdas Pophale) SiO2 
 PCOD9301843
Probable space group: C 2/C
;
_chemical_formula_sum "Si O2"
_cell_formula_units_Z 56
_cell_length_a 19.063038
_cell_length_b 11.313380
_cell_length_c 14.704187
_cell_angle_alpha 90.000000
_cell_angle_beta 123.839289
_cell_angle_gamma 90.000000
_cell_volume 2634.018988
_symmetry_space_group_name_H-M "C 2/C"
_symmetry_group_IT_number 15
_symmetry_cell_setting 'monoclinic'
loop_
_space_group_symop_operation_xyz
x,y,z
-x,y,1/2-z
-x,-y,-z
x,-y,1/2+z
1/2+x,1/2+y,z
1/2-x,1/2+y,1/2-z
1/2-x,1/2-y,-z
1/2+x,1/2-y,1/2+z
loop_
_atom_site_type_symbol
_atom_site_label
_atom_site_fract_x
_atom_site_fract_y
_atom_site_fract_z
Si Si1 0.633153 0.286848 0.444774
Si Si2 0.506914 0.639511 0.515184
Si Si3 0.372547 0.006581 0.018705
Si Si4 0.354522 0.737522 0.750106
Si Si5 0.202552 0.404678 0.212895
Si Si6 0.280402 0.047479 0.118337
Si Si7 0.979550 0.327360 0.342563
O O1 0.570208 0.334104 0.473744
O O2 0.621446 0.145862 0.451313
O O3 0.617423 0.315274 0.327406
O O4 0.720590 0.353508 0.531200
O O5 0.500000 0.500000 0.500000
O O6 0.585597 0.693879 0.627281
O O7 0.500540 0.710531 0.416022
O O8 0.316137 0.965923 0.063650
O O9 0.459015 0.934237 0.079883
O O10 0.325496 0.007977 0.888642
O O11 0.260372 0.695336 0.709051
O O12 0.351278 0.876944 0.724573
O O13 0.258109 0.468777 0.330054
O O14 0.117278 0.358376 0.200267
O O15 0.000000 0.313850 0.250000
#
# Coordination Sequence:
#
# PCOD9301843 Si02
#       7
#     8   8   8   8   8   8   8
#     4  11  22  43  69 100 137 174 232 287 340 417
#     4  12  27  46  65  93 137 188 237 281 350 426
#     4  11  21  40  69 103 137 175 220 290 351 412
#     4  11  23  41  67  98 126 182 234 277 341 412
#     4  12  22  41  69  98 144 179 226 290 347 409
#     4  11  21  39  68 105 139 172 228 282 353 415
#     4  12  26  44  69 106 141 178 228 300 359 408
#
# _framework density 21.260287000000002
#
# number of rings (size 3 to 8) (size 9 to 14) (size 15 to 20)
#    0.000    0.571    5.714    3.429    2.000    1.143 
#    0.000    0.714    0.000    0.000    0.000    0.000 
#    0.000    0.000    0.000    0.000    0.000    0.000 
#
# Total GULP energy -156216.096123 kJ/mol
# GULP energy per Si atom -5579.146290 kJ/mol
# Density = 2.121190 g / cm^3
# Si number density = 21.260287 Si / 1000 Ang^3
#
#
#
# Elastic Constant Matrix: (Units=GPa)
#
#
# Indices 1 2 3 4 5 6 
#
# 1 93.9748 24.8263 20.3898 0.0000 -20.4311 0.0000
# 2 24.8263 64.5832 27.8398 0.0000 -6.8506 0.0000
# 3 20.3898 27.8398 115.7365 0.0000 -29.7786 0.0000
# 4 0.0000 0.0000 0.0000 34.5984 0.0000 -8.6737
# 5 -20.4311 -6.8506 -29.7786 0.0000 41.6849 0.0000
# 6 0.0000 0.0000 0.0000 -8.6737 0.0000 27.5763
#
#
#
# Elastic Compliance Matrix: (Units=1/GPa)
#
#
# Indices 1 2 3 4 5 6 
#
# 1 0.013046 -0.004521 0.000298 0.000000 0.005864 0.000000
# 2 -0.004521 0.018843 -0.004300 0.000000 -0.002191 0.000000
# 3 0.000298 -0.004300 0.011612 0.000000 0.007735 0.000000
# 4 0.000000 0.000000 0.000000 0.031377 0.000000 0.009869
# 5 0.005864 -0.002191 0.007735 0.000000 0.032029 0.000000
# 6 0.000000 0.000000 0.000000 0.009869 0.000000 0.039367
#
#
# Mechanical properties :
#
#
# Convention : Reuss Voigt Hill
#
# Bulk Modulus (GPa) = 37.80014 46.71181 42.25598
# Shear Modulus (GPa) = 29.04623 34.18783 31.61703
#
# Velocity S-wave (km/s) = 3.70025 4.01441 3.86053
# Velocity P-wave (km/s) = 6.00617 6.59594 6.30795
#
# Compressibility (1/GPa) = 0.02645493
#
# Stress axis : x y z
#
# Youngs Moduli (GPa) = 76.65273 53.06991 86.11583
#
# Poissons Ratio (x) = 0.23995 -0.02567
# Poissons Ratio (y) = 0.34658 0.37028
# Poissons Ratio (z) = -0.02285 0.22819
#
# Static dielectric constant tensor:
#      x y z
#    x 1.883330 0.000000 -0.019780 
#    y 0.000000 1.778110 0.000000 
#    z -0.019780 0.000000 1.870630 
# 
# From -- ./inp_files/160988.got.cif
#   From: 2010.05.17/outbox.cif.g08.bks.cpg/sg15_81_cif.got.tgz:160988.got - 2010.06.03 18:47:42.
