data_PCOD9301129
_publ_section_title
;
Structure prediction by ZEFSAII (Michael W. Deem and Ramdas Pophale) SiO2 
 PCOD9301129
Probable space group: C 2/C
;
_chemical_formula_sum "Si O2"
_cell_formula_units_Z 48
_cell_length_a 13.593237
_cell_length_b 23.200190
_cell_length_c 8.433221
_cell_angle_alpha 90.000000
_cell_angle_beta 107.421027
_cell_angle_gamma 90.000000
_cell_volume 2537.556376
_symmetry_space_group_name_H-M "C 2/C"
_symmetry_group_IT_number 15
_symmetry_cell_setting 'monoclinic'
loop_
_space_group_symop_operation_xyz
x,y,z
-x,y,1/2-z
-x,-y,-z
x,-y,1/2+z
1/2+x,1/2+y,z
1/2-x,1/2+y,1/2-z
1/2-x,1/2-y,-z
1/2+x,1/2-y,1/2+z
loop_
_atom_site_type_symbol
_atom_site_label
_atom_site_fract_x
_atom_site_fract_y
_atom_site_fract_z
Si Si1 0.113622 0.057372 0.235964
Si Si2 0.767594 0.177553 0.720136
Si Si3 0.916737 0.274048 0.822757
Si Si4 0.114598 0.928438 0.358632
Si Si5 0.427311 0.755683 0.350823
Si Si6 0.226991 0.833360 0.896433
O O1 0.195331 0.101100 0.350440
O O2 0.000000 0.071747 0.250000
O O3 0.133251 0.991141 0.291184
O O4 0.114596 0.065315 0.047790
O O5 0.844842 0.227694 0.700478
O O6 0.804291 0.118077 0.664366
O O7 0.652581 0.197192 0.624498
O O8 0.773753 0.178324 0.915776
O O9 0.837287 0.314936 0.877313
O O10 0.000000 0.304092 0.750000
O O11 0.990269 0.238052 0.977672
O O12 0.000000 0.909730 0.250000
O O13 0.500000 0.781639 0.250000
O O14 0.358604 0.705408 0.237888
#
# Coordination Sequence:
#
# PCOD9301129 Si02
#       6
#     8   8   8   8   8   8
#     4  11  23  39  61  85 117 151 189 240 291 341
#     4  11  22  37  60  86 117 153 198 234 285 345
#     4  11  24  36  56  87 123 153 194 237 282 344
#     4  11  23  39  60  87 115 150 192 239 291 342
#     4  11  20  38  59  84 119 160 190 230 292 337
#     4  11  22  37  59  86 116 157 192 237 287 341
#
# _framework density 18.915835000000001
#
# number of rings (size 3 to 8) (size 9 to 14) (size 15 to 20)
#    0.000    1.000    3.333    6.000    7.000    1.333 
#    0.000    0.000    0.000    2.000    0.000    0.000 
#    0.000    0.000    0.000    0.000    0.000    0.000 
#
# Total GULP energy -134098.152330 kJ/mol
# GULP energy per Si atom -5587.423014 kJ/mol
# Density = 1.887278 g / cm^3
# Si number density = 18.915835 Si / 1000 Ang^3
#
#
#
# Elastic Constant Matrix: (Units=GPa)
#
#
# Indices 1 2 3 4 5 6 
#
# 1 157.2124 59.4919 33.9736 0.0000 -11.9812 0.0000
# 2 59.4919 71.3893 5.1024 0.0000 -9.1867 0.0000
# 3 33.9736 5.1024 50.4102 0.0000 -3.1721 0.0000
# 4 0.0000 0.0000 0.0000 28.2944 0.0000 -4.0795
# 5 -11.9812 -9.1867 -3.1721 0.0000 34.0664 0.0000
# 6 0.0000 0.0000 0.0000 -4.0795 0.0000 29.8189
#
#
#
# Elastic Compliance Matrix: (Units=1/GPa)
#
#
# Indices 1 2 3 4 5 6 
#
# 1 0.011143 -0.008693 -0.006570 0.000000 0.000963 0.000000
# 2 -0.008693 0.021369 0.003889 0.000000 0.003067 0.000000
# 3 -0.006570 0.003889 0.023932 0.000000 0.000967 0.000000
# 4 0.000000 0.000000 0.000000 0.036054 0.000000 0.004932
# 5 0.000963 0.003067 0.000967 0.000000 0.030610 0.000000
# 6 0.000000 0.000000 0.000000 0.004932 0.000000 0.034211
#
#
# Mechanical properties :
#
#
# Convention : Reuss Voigt Hill
#
# Bulk Modulus (GPa) = 29.67666 52.90531 41.29098
# Shear Modulus (GPa) = 26.13715 30.46554 28.30134
#
# Velocity S-wave (km/s) = 3.72124 4.01756 3.87223
# Velocity P-wave (km/s) = 5.84691 7.03922 6.47058
#
# Compressibility (1/GPa) = 0.03369651
#
# Stress axis : x y z
#
# Youngs Moduli (GPa) = 89.73886 46.79760 41.78499
#
# Poissons Ratio (x) = 0.40680 0.27451
# Poissons Ratio (y) = 0.78009 -0.16249
# Poissons Ratio (z) = 0.58955 -0.18198
#
# Static dielectric constant tensor:
#      x y z
#    x 1.652410 0.000000 -0.035130 
#    y 0.000000 1.632590 0.000000 
#    z -0.035130 0.000000 1.726460 
# 
# From -- ./inp_files/31897.got.cif
#   From: 2010.05.17/outbox.cif.g08.bks.cpg/sg15_16_cif.got.tgz:31897.got - 2010.06.03 18:47:42.
