data_PCOD9301748
_publ_section_title
;
Structure prediction by ZEFSAII (Michael W. Deem and Ramdas Pophale) SiO2 
 PCOD9301748
Probable space group: C 2/C
;
_chemical_formula_sum "Si O2"
_cell_formula_units_Z 60
_cell_length_a 25.649526
_cell_length_b 7.822993
_cell_length_c 23.003806
_cell_angle_alpha 90.000000
_cell_angle_beta 149.943238
_cell_angle_gamma 90.000000
_cell_volume 2311.885637
_symmetry_space_group_name_H-M "C 2/C"
_symmetry_group_IT_number 15
_symmetry_cell_setting 'monoclinic'
loop_
_space_group_symop_operation_xyz
x,y,z
-x,y,1/2-z
-x,-y,-z
x,-y,1/2+z
1/2+x,1/2+y,z
1/2-x,1/2+y,1/2-z
1/2-x,1/2-y,-z
1/2+x,1/2-y,1/2+z
loop_
_atom_site_type_symbol
_atom_site_label
_atom_site_fract_x
_atom_site_fract_y
_atom_site_fract_z
Si Si1 0.783046 0.467871 0.753892
Si Si2 0.719410 0.037308 0.611360
Si Si3 0.198652 0.321922 0.327244
Si Si4 0.500000 0.672241 0.750000
Si Si5 0.411591 0.241658 0.286008
Si Si6 0.537449 0.159476 0.899338
Si Si7 0.335986 0.617556 0.057040
Si Si8 0.558167 0.500107 0.495383
O O1 0.782609 0.505002 0.821440
O O2 0.788100 0.653658 0.728444
O O3 0.878293 0.369223 0.813265
O O4 0.669305 0.415394 0.619403
O O5 0.776059 0.872911 0.637416
O O6 0.601086 0.010575 0.476726
O O7 0.794174 0.186018 0.662847
O O8 0.274262 0.437613 0.438710
O O9 0.082047 0.370813 0.226220
O O10 0.537673 0.781525 0.729927
O O11 0.599708 0.543701 0.856970
O O12 0.488510 0.388408 0.384890
O O13 0.577700 0.249736 0.880892
O O14 0.558011 0.305071 0.969197
O O15 0.250000 0.750000 0.000000
O O16 0.500000 0.500000 0.500000
#
# Coordination Sequence:
#
# PCOD9301748 Si02
#       8
#     8   8   8   4   8   8   8   8
#     4  12  24  40  65 100 136 172 226 278 346 413
#     4  11  21  39  66  98 127 174 228 284 331 395
#     4  11  22  41  62  95 129 166 225 282 324 402
#     4  12  22  44  62  98 146 188 222 264 356 422
#     4  12  25  41  68  99 139 186 221 274 352 416
#     4  11  21  39  65  95 126 164 227 275 334 381
#     4  11  21  38  68  94 121 173 234 285 318 382
#     4  12  21  42  69  92 130 179 217 273 344 402
#
# _framework density 25.952839999999998
#
# number of rings (size 3 to 8) (size 9 to 14) (size 15 to 20)
#    0.000    0.533    6.667    4.000    0.000    1.600 
#    0.000    4.000    0.000    0.000    0.000    0.000 
#    0.000    0.000    0.000    0.000    0.000    0.000 
#
# Total GULP energy -167254.370509 kJ/mol
# GULP energy per Si atom -5575.145684 kJ/mol
# Density = 2.589377 g / cm^3
# Si number density = 25.952840 Si / 1000 Ang^3
#
#
#
# Elastic Constant Matrix: (Units=GPa)
#
#
# Indices 1 2 3 4 5 6 
#
# 1 176.1760 22.9528 39.0947 0.0000 0.9715 0.0000
# 2 22.9528 55.1114 5.5411 0.0000 -12.4467 0.0000
# 3 39.0947 5.5411 149.7381 0.0000 9.7714 0.0000
# 4 0.0000 0.0000 0.0000 29.3112 0.0000 -11.9760
# 5 0.9715 -12.4467 9.7714 0.0000 41.6026 0.0000
# 6 0.0000 0.0000 0.0000 -11.9760 0.0000 30.1519
#
#
#
# Elastic Compliance Matrix: (Units=1/GPa)
#
#
# Indices 1 2 3 4 5 6 
#
# 1 0.006360 -0.002625 -0.001526 0.000000 -0.000576 0.000000
# 2 -0.002625 0.020730 -0.000498 0.000000 0.006380 0.000000
# 3 -0.001526 -0.000498 0.007213 0.000000 -0.001808 0.000000
# 4 0.000000 0.000000 0.000000 0.040726 0.000000 0.016176
# 5 -0.000576 0.006380 -0.001808 0.000000 0.026384 0.000000
# 6 0.000000 0.000000 0.000000 0.016176 0.000000 0.039590
#
#
# Mechanical properties :
#
#
# Convention : Reuss Voigt Hill
#
# Bulk Modulus (GPa) = 39.99332 57.35587 48.67460
# Shear Modulus (GPa) = 31.51883 41.10895 36.31389
#
# Velocity S-wave (km/s) = 3.48870 3.98425 3.74468
# Velocity P-wave (km/s) = 5.62774 6.58131 6.12312
#
# Compressibility (1/GPa) = 0.02500417
#
# Stress axis : x y z
#
# Youngs Moduli (GPa) = 157.23411 48.24043 138.63718
#
# Poissons Ratio (x) = 0.12665 0.21153
# Poissons Ratio (y) = 0.41280 0.06904
# Poissons Ratio (z) = 0.23991 0.02402
#
# Static dielectric constant tensor:
#      x y z
#    x 2.132450 0.000000 -0.008430 
#    y 0.000000 2.227050 0.000000 
#    z -0.008430 0.000000 2.054440 
# 
# From -- ./inp_files/283389.got.cif
#   From: 2010.05.17/outbox.cif.g08.bks.cpg/sg15_142_cif.got.tgz:283389.got - 2010.06.03 18:47:42.
