data_PCOD9301929
_publ_section_title
;
Structure prediction by ZEFSAII (Michael W. Deem and Ramdas Pophale) SiO2 
 PCOD9301929
Probable space group: C 2/C
;
_chemical_formula_sum "Si O2"
_cell_formula_units_Z 48
_cell_length_a 20.783102
_cell_length_b 9.650787
_cell_length_c 14.913966
_cell_angle_alpha 90.000000
_cell_angle_beta 36.302285
_cell_angle_gamma 90.000000
_cell_volume 1771.010762
_symmetry_space_group_name_H-M "C 2/C"
_symmetry_group_IT_number 15
_symmetry_cell_setting 'monoclinic'
loop_
_space_group_symop_operation_xyz
x,y,z
-x,y,1/2-z
-x,-y,-z
x,-y,1/2+z
1/2+x,1/2+y,z
1/2-x,1/2+y,1/2-z
1/2-x,1/2-y,-z
1/2+x,1/2-y,1/2+z
loop_
_atom_site_type_symbol
_atom_site_label
_atom_site_fract_x
_atom_site_fract_y
_atom_site_fract_z
Si Si1 0.173199 0.138237 0.764372
Si Si2 0.106550 0.234060 0.198158
Si Si3 0.797094 0.860692 0.721028
Si Si4 0.051117 0.436363 0.034882
Si Si5 0.753428 0.004919 0.500003
Si Si6 0.055228 0.688982 0.273075
O O1 0.274141 0.232641 0.682204
O O2 0.148858 0.010463 0.859132
O O3 0.209654 0.073049 0.629750
O O4 0.066611 0.222141 0.851721
O O5 0.155365 0.197863 0.241137
O O6 0.135496 0.097601 0.105711
O O7 0.994545 0.302688 0.359222
O O8 0.171811 0.365684 0.087083
O O9 0.673632 0.907132 0.875386
O O10 0.029941 0.565178 0.122838
O O11 0.000000 0.500000 0.000000
O O12 0.675286 0.887940 0.634523
O O13 0.000000 0.768236 0.250000
#
# Coordination Sequence:
#
# PCOD9301929 Si02
#       6
#     8   8   8   8   8   8
#     4  11  23  41  67 101 132 181 220 279 341 395
#     4   9  20  39  66  95 130 174 223 279 329 400
#     4  11  23  42  70 100 138 179 224 277 343 404
#     4  11  21  40  67  98 135 182 229 270 335 419
#     4   9  20  40  63  93 128 170 220 272 335 384
#     4  11  22  39  66  97 133 178 231 275 331 409
#
# _framework density 27.103168
#
# number of rings (size 3 to 8) (size 9 to 14) (size 15 to 20)
#    0.000    1.667    1.667    3.500    2.333    0.000 
#    0.000    6.667    0.000    1.000    0.000    0.000 
#    0.000    0.000    0.000    0.000    0.000    0.000 
#
# Total GULP energy -133663.491380 kJ/mol
# GULP energy per Si atom -5569.312141 kJ/mol
# Density = 2.704148 g / cm^3
# Si number density = 27.103168 Si / 1000 Ang^3
#
#
#
# Elastic Constant Matrix: (Units=GPa)
#
#
# Indices 1 2 3 4 5 6 
#
# 1 64.0379 36.5576 -9.5800 0.0000 -20.8086 0.0000
# 2 36.5576 164.7698 19.4742 0.0000 -9.6953 0.0000
# 3 -9.5800 19.4742 54.7972 0.0000 -4.1836 0.0000
# 4 0.0000 0.0000 0.0000 33.0736 0.0000 -2.7333
# 5 -20.8086 -9.6953 -4.1836 0.0000 36.9516 0.0000
# 6 0.0000 0.0000 0.0000 -2.7333 0.0000 57.8243
#
#
#
# Elastic Compliance Matrix: (Units=1/GPa)
#
#
# Indices 1 2 3 4 5 6 
#
# 1 0.023932 -0.005390 0.007082 0.000000 0.012865 0.000000
# 2 -0.005390 0.007624 -0.003763 0.000000 -0.001461 0.000000
# 3 0.007082 -0.003763 0.021237 0.000000 0.005405 0.000000
# 4 0.000000 0.000000 0.000000 0.030354 0.000000 0.001435
# 5 0.012865 -0.001461 0.005405 0.000000 0.034536 0.000000
# 6 0.000000 0.000000 0.000000 0.001435 0.000000 0.017362
#
#
# Mechanical properties :
#
#
# Convention : Reuss Voigt Hill
#
# Bulk Modulus (GPa) = 20.55476 41.83428 31.19452
# Shear Modulus (GPa) = 32.17410 41.38008 36.77709
#
# Velocity S-wave (km/s) = 3.44917 3.91162 3.68765
# Velocity P-wave (km/s) = 4.84383 5.98913 5.44667
#
# Compressibility (1/GPa) = 0.04865052
#
# Stress axis : x y z
#
# Youngs Moduli (GPa) = 41.78436 131.16910 47.08710
#
# Poissons Ratio (x) = 0.70699 -0.33346
# Poissons Ratio (y) = 0.22521 0.17720
# Poissons Ratio (z) = -0.29590 0.49362
#
# Static dielectric constant tensor:
#      x y z
#    x 2.275760 0.000000 -0.016090 
#    y 0.000000 2.379810 0.000000 
#    z -0.016090 0.000000 2.148650 
# 
# From -- ./inp_files/257731.got.cif
#   From: 2010.05.17/outbox.cif.g08.bks.cpg/sg15_129_cif.got.tgz:257731.got - 2010.06.03 18:47:42.
