data_PCOD9301314
_publ_section_title
;
Structure prediction by ZEFSAII (Michael W. Deem and Ramdas Pophale) SiO2 
 PCOD9301314
Probable space group: C 2/C
;
_chemical_formula_sum "Si O2"
_cell_formula_units_Z 40
_cell_length_a 9.334523
_cell_length_b 17.297899
_cell_length_c 10.722031
_cell_angle_alpha 90.000000
_cell_angle_beta 78.683974
_cell_angle_gamma 90.000000
_cell_volume 1697.604961
_symmetry_space_group_name_H-M "C 2/C"
_symmetry_group_IT_number 15
_symmetry_cell_setting 'monoclinic'
loop_
_space_group_symop_operation_xyz
x,y,z
-x,y,1/2-z
-x,-y,-z
x,-y,1/2+z
1/2+x,1/2+y,z
1/2-x,1/2+y,1/2-z
1/2-x,1/2-y,-z
1/2+x,1/2-y,1/2+z
loop_
_atom_site_type_symbol
_atom_site_label
_atom_site_fract_x
_atom_site_fract_y
_atom_site_fract_z
Si Si1 0.476332 0.729076 0.894722
Si Si2 0.236050 0.660066 0.636606
Si Si3 0.903516 0.000170 0.642870
Si Si4 0.551249 0.104383 0.865325
Si Si5 0.725559 0.124022 0.056329
O O1 0.500000 0.700977 0.750000
O O2 0.639800 0.719897 0.920483
O O3 0.398042 0.811951 0.897590
O O4 0.365220 0.672090 0.983472
O O5 0.319965 0.580862 0.652491
O O6 0.103864 0.638698 0.566492
O O7 0.146886 0.673409 0.782464
O O8 0.000000 0.993137 0.750000
O O9 0.213919 0.068895 0.347652
O O10 0.000000 0.000000 0.500000
O O11 0.500000 0.056855 0.750000
O O12 0.651641 0.073183 0.957309
#
# Coordination Sequence:
#
# PCOD9301314 Si02
#       5
#     8   8   8   8   8
#     4  11  20  41  63  91 134 184 224 275 358 402
#     4   9  19  39  68  91 127 183 224 276 345 426
#     4  12  24  43  71 102 134 181 236 290 350 412
#     4   8  19  39  63  95 126 175 230 275 344 424
#     4  11  23  38  65  99 132 172 232 292 333 419
#
# _framework density 23.562609999999999
#
# number of rings (size 3 to 8) (size 9 to 14) (size 15 to 20)
#    1.200    0.400    4.000    1.800    0.000    1.600 
#    7.200    8.000    0.000    0.000    0.000    0.000 
#    0.000    0.000    0.000    0.000    0.000    0.000 
#
# Total GULP energy -111421.938398 kJ/mol
# GULP energy per Si atom -5571.096920 kJ/mol
# Density = 2.350898 g / cm^3
# Si number density = 23.562610 Si / 1000 Ang^3
#
#
#
# Elastic Constant Matrix: (Units=GPa)
#
#
# Indices 1 2 3 4 5 6 
#
# 1 210.4754 57.4966 58.7662 0.0000 -2.2917 0.0000
# 2 57.4966 110.0140 26.1393 0.0000 1.5032 0.0000
# 3 58.7662 26.1393 59.6301 0.0000 8.3073 0.0000
# 4 0.0000 0.0000 0.0000 -13.4127 0.0000 29.6753
# 5 -2.2917 1.5032 8.3073 0.0000 37.7594 0.0000
# 6 0.0000 0.0000 0.0000 29.6753 0.0000 14.3342
#
#
#
# Elastic Compliance Matrix: (Units=1/GPa)
#
#
# Indices 1 2 3 4 5 6 
#
# 1 0.007157 -0.002263 -0.006329 0.000000 0.001917 0.000000
# 2 -0.002263 0.010875 -0.002535 0.000000 -0.000013 0.000000
# 3 -0.006329 -0.002535 0.024921 0.000000 -0.005766 0.000000
# 4 0.000000 0.000000 0.000000 -0.013360 0.000000 0.027659
# 5 0.001917 -0.000013 -0.005766 0.000000 0.027869 0.000000
# 6 0.000000 0.000000 0.000000 0.027659 0.000000 0.012501
#
#
# Mechanical properties :
#
#
# Convention : Reuss Voigt Hill
#
# Bulk Modulus (GPa) = 48.30848 73.88040 61.09444
# Shear Modulus (GPa) = 50.44540 23.58401 37.01471
#
# Velocity S-wave (km/s) = 4.63202 3.16715 3.96777
# Velocity P-wave (km/s) = 7.01100 6.69309 6.85389
#
# Compressibility (1/GPa) = 0.02070030
#
# Stress axis : x y z
#
# Youngs Moduli (GPa) = 139.71925 91.95387 40.12609
#
# Poissons Ratio (x) = 0.20810 0.25394
# Poissons Ratio (y) = 0.31620 0.10172
# Poissons Ratio (z) = 0.88421 0.23311
#
# Static dielectric constant tensor:
#      x y z
#    x 2.032340 0.000000 0.028100 
#    y 0.000000 1.897280 0.000000 
#    z 0.028100 0.000000 2.069490 
# 
# From -- ./inp_files/78631.got.cif
#   From: 2010.05.17/outbox.cif.g08.bks.cpg/sg15_40_cif.got.tgz:78631.got - 2010.06.03 18:47:42.
