data_PCOD9301232
_publ_section_title
;
Structure prediction by ZEFSAII (Michael W. Deem and Ramdas Pophale) SiO2 
 PCOD9301232
Probable space group: C 2/C
;
_chemical_formula_sum "Si O2"
_cell_formula_units_Z 48
_cell_length_a 9.257614
_cell_length_b 13.857631
_cell_length_c 16.882548
_cell_angle_alpha 90.000000
_cell_angle_beta 84.873406
_cell_angle_gamma 90.000000
_cell_volume 2157.174418
_symmetry_space_group_name_H-M "C 2/C"
_symmetry_group_IT_number 15
_symmetry_cell_setting 'monoclinic'
loop_
_space_group_symop_operation_xyz
x,y,z
-x,y,1/2-z
-x,-y,-z
x,-y,1/2+z
1/2+x,1/2+y,z
1/2-x,1/2+y,1/2-z
1/2-x,1/2-y,-z
1/2+x,1/2-y,1/2+z
loop_
_atom_site_type_symbol
_atom_site_label
_atom_site_fract_x
_atom_site_fract_y
_atom_site_fract_z
Si Si1 0.587047 0.343813 0.560206
Si Si2 0.458776 0.160617 0.480815
Si Si3 0.192616 0.494587 0.915759
Si Si4 0.825989 0.464191 0.263404
Si Si5 0.169708 0.249291 0.215662
Si Si6 0.237143 0.863385 0.863566
O O1 0.552043 0.253248 0.503889
O O2 0.675690 0.443545 0.541276
O O3 0.673743 0.296912 0.629595
O O4 0.426650 0.367725 0.598913
O O5 0.562990 0.081092 0.436245
O O6 0.338142 0.187440 0.422514
O O7 0.369954 0.098910 0.552258
O O8 0.230506 0.504405 0.820764
O O9 0.774917 0.357295 0.285218
O O10 0.785623 0.530003 0.339106
O O11 0.000000 0.465108 0.250000
O O12 0.248820 0.190363 0.279470
O O13 0.000000 0.250810 0.250000
#
# Coordination Sequence:
#
# PCOD9301232 Si02
#       6
#     8   8   8   8   8   8
#     4  11  23  42  67  94 132 172 217 278 335 398
#     4  11  24  41  65  98 130 177 220 269 334 398
#     4  11  23  40  68  94 130 175 225 267 331 406
#     4  11  20  39  67  95 125 170 221 270 325 398
#     4   9  20  37  65  91 121 169 209 261 329 387
#     4  11  22  40  68  95 132 165 217 278 329 388
#
# _framework density 22.251331
#
# number of rings (size 3 to 8) (size 9 to 14) (size 15 to 20)
#    0.000    1.333    3.333    4.000    2.333    0.667 
#    0.000    0.000   11.000    0.000    0.000    0.000 
#    0.000    0.000    0.000    0.000    0.000    0.000 
#
# Total GULP energy -134029.744348 kJ/mol
# GULP energy per Si atom -5584.572681 kJ/mol
# Density = 2.220069 g / cm^3
# Si number density = 22.251331 Si / 1000 Ang^3
#
#
#
# Elastic Constant Matrix: (Units=GPa)
#
#
# Indices 1 2 3 4 5 6 
#
# 1 69.0154 18.5107 24.3119 0.0000 19.6634 0.0000
# 2 18.5107 55.6979 0.4763 0.0000 5.1980 0.0000
# 3 24.3119 0.4763 70.5017 0.0000 18.9571 0.0000
# 4 0.0000 0.0000 0.0000 19.3136 0.0000 -1.0669
# 5 19.6634 5.1980 18.9571 0.0000 33.3701 0.0000
# 6 0.0000 0.0000 0.0000 -1.0669 0.0000 23.5068
#
#
#
# Elastic Compliance Matrix: (Units=1/GPa)
#
#
# Indices 1 2 3 4 5 6 
#
# 1 0.020052 -0.005854 -0.004654 0.000000 -0.008260 0.000000
# 2 -0.005854 0.019962 0.002115 0.000000 -0.000862 0.000000
# 3 -0.004654 0.002115 0.017853 0.000000 -0.007729 0.000000
# 4 0.000000 0.000000 0.000000 0.051907 0.000000 0.002356
# 5 -0.008260 -0.000862 -0.007729 0.000000 0.039359 0.000000
# 6 0.000000 0.000000 0.000000 0.002356 0.000000 0.042648
#
#
# Mechanical properties :
#
#
# Convention : Reuss Voigt Hill
#
# Bulk Modulus (GPa) = 24.34138 31.31254 27.82696
# Shear Modulus (GPa) = 22.49611 25.36583 23.93097
#
# Velocity S-wave (km/s) = 3.18307 3.38001 3.28302
# Velocity P-wave (km/s) = 4.94695 5.41621 5.18689
#
# Compressibility (1/GPa) = 0.04108230
#
# Stress axis : x y z
#
# Youngs Moduli (GPa) = 49.86911 50.09583 56.01297
#
# Poissons Ratio (x) = 0.29324 0.26070
# Poissons Ratio (y) = 0.29191 -0.11849
# Poissons Ratio (z) = 0.23211 -0.10598
#
# Static dielectric constant tensor:
#      x y z
#    x 1.831720 0.000000 -0.001300 
#    y 0.000000 1.861210 0.000000 
#    z -0.001300 0.000000 1.830260 
# 
# From -- ./inp_files/189273.got.cif
#   From: 2010.05.17/outbox.cif.g08.bks.cpg/sg15_95_cif.got.tgz:189273.got - 2010.06.03 18:47:42.
