data_PCOD9301133
_publ_section_title
;
Structure prediction by ZEFSAII (Michael W. Deem and Ramdas Pophale) SiO2 
 PCOD9301133
Probable space group: C 2/C
;
_chemical_formula_sum "Si O2"
_cell_formula_units_Z 28
_cell_length_a 12.242407
_cell_length_b 8.032934
_cell_length_c 25.375963
_cell_angle_alpha 90.000000
_cell_angle_beta 154.035694
_cell_angle_gamma 90.000000
_cell_volume 1092.572703
_symmetry_space_group_name_H-M "C 2/C"
_symmetry_group_IT_number 15
_symmetry_cell_setting 'monoclinic'
loop_
_space_group_symop_operation_xyz
x,y,z
-x,y,1/2-z
-x,-y,-z
x,-y,1/2+z
1/2+x,1/2+y,z
1/2-x,1/2+y,1/2-z
1/2-x,1/2-y,-z
1/2+x,1/2-y,1/2+z
loop_
_atom_site_type_symbol
_atom_site_label
_atom_site_fract_x
_atom_site_fract_y
_atom_site_fract_z
Si Si1 0.863899 0.321425 0.494797
Si Si2 0.500000 0.366270 0.250000
Si Si3 0.485514 0.596968 0.149792
Si Si4 0.813150 0.595806 0.712371
O O1 0.750000 0.250000 0.500000
O O2 0.707742 0.275547 0.374843
O O3 0.793932 0.518617 0.470040
O O4 0.125061 0.229693 0.604655
O O5 0.605010 0.489085 0.250052
O O6 0.646756 0.539716 0.169771
O O7 0.524290 0.789800 0.177276
O O8 0.000000 0.532303 0.750000
#
# Coordination Sequence:
#
# PCOD9301133 Si02
#       4
#     8   4   8   8
#     4   8  17  35  58  80 118 155 187 239 294 346
#     4   8  16  36  58  80 102 164 190 216 294 354
#     4   9  20  36  59  84 116 154 192 235 296 345
#     4  11  20  38  60  87 117 151 198 244 287 350
#
# _framework density 25.627583999999999
#
# number of rings (size 3 to 8) (size 9 to 14) (size 15 to 20)
#    1.714    1.143    1.429    0.000    0.000    4.571 
#    2.571    5.714    0.000    8.571    0.000    0.000 
#    0.000    0.000    0.000    0.000    0.000    0.000 
#
# Total GULP energy -78031.834708 kJ/mol
# GULP energy per Si atom -5573.702479 kJ/mol
# Density = 2.556925 g / cm^3
# Si number density = 25.627584 Si / 1000 Ang^3
#
#
#
# Elastic Constant Matrix: (Units=GPa)
#
#
# Indices 1 2 3 4 5 6 
#
# 1 139.8691 18.6596 38.8054 0.0006 2.9663 0.0002
# 2 18.6596 67.1058 7.9473 0.0001 -0.9477 0.0000
# 3 38.8054 7.9473 78.1486 0.0016 -14.5191 0.0004
# 4 0.0006 0.0001 0.0016 23.3342 0.0004 -8.2794
# 5 2.9663 -0.9477 -14.5191 0.0004 38.1556 -0.0003
# 6 0.0002 0.0000 0.0004 -8.2794 -0.0003 -14.2946
#
#
#
# Elastic Compliance Matrix: (Units=1/GPa)
#
#
# Indices 1 2 3 4 5 6 
#
# 1 0.008735 -0.001919 -0.004603 0.000000 -0.002478 0.000000
# 2 -0.001919 0.015507 -0.000565 0.000000 0.000319 0.000000
# 3 -0.004603 -0.000565 0.016360 -0.000001 0.006569 0.000001
# 4 0.000000 0.000000 -0.000001 0.035550 -0.000001 -0.020590
# 5 -0.002478 0.000319 0.006569 -0.000001 0.028909 0.000000
# 6 0.000000 0.000000 0.000001 -0.020590 0.000000 -0.058031
#
#
# Mechanical properties :
#
#
# Convention : Reuss Voigt Hill
#
# Bulk Modulus (GPa) = 37.83774 46.21645 42.02709
# Shear Modulus (GPa) = 71.41678 24.08646 47.75162
#
# Velocity S-wave (km/s) = 5.28466 3.06905 4.32127
# Velocity P-wave (km/s) = 7.21342 5.53460 6.42904
#
# Compressibility (1/GPa) = 0.02642864
#
# Stress axis : x y z
#
# Youngs Moduli (GPa) = 114.48102 64.48794 61.12634
#
# Poissons Ratio (x) = 0.12374 0.28135
# Poissons Ratio (y) = 0.21966 0.03453
# Poissons Ratio (z) = 0.52693 0.03642
#
# Static dielectric constant tensor:
#      x y z
#    x 2.003760 0.000000 0.069340 
#    y 0.000000 2.073680 0.000000 
#    z 0.069340 0.000000 2.304490 
# 
# From -- ./inp_files/83849.got.cif
#   From: 2010.05.17/outbox.cif.g08.bks.cpg/sg15_42_cif.got.tgz:83849.got - 2010.06.03 18:47:42.
