data_PCOD9301824
_publ_section_title
;
Structure prediction by ZEFSAII (Michael W. Deem and Ramdas Pophale) SiO2 
 PCOD9301824
Probable space group: C 2/C
;
_chemical_formula_sum "Si O2"
_cell_formula_units_Z 52
_cell_length_a 9.598628
_cell_length_b 21.054185
_cell_length_c 18.991996
_cell_angle_alpha 90.000000
_cell_angle_beta 137.692253
_cell_angle_gamma 90.000000
_cell_volume 2583.484557
_symmetry_space_group_name_H-M "C 2/C"
_symmetry_group_IT_number 15
_symmetry_cell_setting 'monoclinic'
loop_
_space_group_symop_operation_xyz
x,y,z
-x,y,1/2-z
-x,-y,-z
x,-y,1/2+z
1/2+x,1/2+y,z
1/2-x,1/2+y,1/2-z
1/2-x,1/2-y,-z
1/2+x,1/2-y,1/2+z
loop_
_atom_site_type_symbol
_atom_site_label
_atom_site_fract_x
_atom_site_fract_y
_atom_site_fract_z
Si Si1 0.345855 0.599240 0.250101
Si Si2 0.676864 0.970755 0.116062
Si Si3 0.929301 0.135469 0.623668
Si Si4 0.111550 0.651427 0.390652
Si Si5 0.351216 0.543768 0.396809
Si Si6 0.500000 0.257111 0.250000
Si Si7 0.336310 0.924293 0.239324
O O1 0.500000 0.630317 0.250000
O O2 0.285503 0.532629 0.189733
O O3 0.442762 0.582586 0.363472
O O4 0.130726 0.637134 0.184463
O O5 0.829140 0.922642 0.131290
O O6 0.600099 0.930645 0.155292
O O7 0.500000 0.000000 0.000000
O O8 0.739271 0.163653 0.509112
O O9 0.052243 0.191092 0.710273
O O10 0.110981 0.105625 0.646386
O O11 0.217991 0.589887 0.396072
O O12 0.140715 0.707972 0.345610
O O13 0.500000 0.500000 0.500000
O O14 0.199119 0.495065 0.301793
O O15 0.500000 0.891687 0.250000
#
# Coordination Sequence:
#
# PCOD9301824 Si02
#       7
#     8   8   8   8   8   4   8
#     4  11  23  37  64 104 136 169 214 281 346 393
#     4  11  21  39  66  98 139 169 213 278 344 402
#     4  12  24  45  68  97 133 181 226 272 333 405
#     4  12  24  45  68  97 133 181 226 272 333 405
#     4  11  21  39  66  98 139 169 213 278 344 402
#     4  12  26  48  70  88 132 188 244 258 312 412
#     4  11  23  37  64 104 136 169 214 281 346 393
#
# _framework density 20.127853999999999
#
# number of rings (size 3 to 8) (size 9 to 14) (size 15 to 20)
#    0.000    0.615    6.154    4.154    0.000    0.000 
#    0.000    0.769    0.000    1.846    0.000    0.000 
#    0.000    0.000    0.000    0.000    0.000    0.000 
#
# Total GULP energy -144831.070792 kJ/mol
# GULP energy per Si atom -5570.425800 kJ/mol
# Density = 2.008204 g / cm^3
# Si number density = 20.127854 Si / 1000 Ang^3
#
#
#
# Elastic Constant Matrix: (Units=GPa)
#
#
# Indices 1 2 3 4 5 6 
#
# 1 134.3517 17.5392 43.9546 -0.0001 9.0789 -0.0001
# 2 17.5392 69.2271 9.9860 0.0000 12.2406 0.0000
# 3 43.9546 9.9860 95.8018 0.0000 -3.2263 0.0000
# 4 -0.0001 0.0000 0.0000 36.2097 0.0000 -13.1968
# 5 9.0789 12.2406 -3.2263 0.0000 16.0096 0.0000
# 6 -0.0001 0.0000 0.0000 -13.1968 0.0000 9.1668
#
#
#
# Elastic Compliance Matrix: (Units=1/GPa)
#
#
# Indices 1 2 3 4 5 6 
#
# 1 0.009363 -0.000740 -0.004408 0.000000 -0.005632 0.000000
# 2 -0.000740 0.017229 -0.001899 0.000000 -0.013136 0.000000
# 3 -0.004408 -0.001899 0.012879 0.000000 0.006547 0.000000
# 4 0.000000 0.000000 0.000000 0.058102 0.000000 0.083645
# 5 -0.005632 -0.013136 0.006547 0.000000 0.077019 0.000000
# 6 0.000000 0.000000 0.000000 0.083645 0.000000 0.229506
#
#
# Mechanical properties :
#
#
# Convention : Reuss Voigt Hill
#
# Bulk Modulus (GPa) = 39.40614 49.14892 44.27753
# Shear Modulus (GPa) = 11.71919 27.47061 19.59490
#
# Velocity S-wave (km/s) = 2.41558 3.69834 3.12352
# Velocity P-wave (km/s) = 5.23454 6.53516 5.92067
#
# Compressibility (1/GPa) = 0.02537676
#
# Stress axis : x y z
#
# Youngs Moduli (GPa) = 106.80881 58.04046 77.64542
#
# Poissons Ratio (x) = 0.04297 0.34227
# Poissons Ratio (y) = 0.07908 0.14742
# Poissons Ratio (z) = 0.47082 0.11020
#
# Static dielectric constant tensor:
#      x y z
#    x 1.785400 0.000000 -0.046320 
#    y 0.000000 1.735340 0.000000 
#    z -0.046320 0.000000 1.784000 
# 
# From -- ./inp_files/192623.got.cif
#   From: 2010.05.17/outbox.cif.g08.bks.cpg/sg15_97_cif.got.tgz:192623.got - 2010.06.03 18:47:42.
