data_PCOD9301330
_publ_section_title
;
Structure prediction by ZEFSAII (Michael W. Deem and Ramdas Pophale) SiO2 
 PCOD9301330
Probable space group: C 2/C
;
_chemical_formula_sum "Si O2"
_cell_formula_units_Z 60
_cell_length_a 8.527372
_cell_length_b 20.695196
_cell_length_c 18.413891
_cell_angle_alpha 90.000000
_cell_angle_beta 49.918484
_cell_angle_gamma 90.000000
_cell_volume 2486.366093
_symmetry_space_group_name_H-M "C 2/C"
_symmetry_group_IT_number 15
_symmetry_cell_setting 'monoclinic'
loop_
_space_group_symop_operation_xyz
x,y,z
-x,y,1/2-z
-x,-y,-z
x,-y,1/2+z
1/2+x,1/2+y,z
1/2-x,1/2+y,1/2-z
1/2-x,1/2-y,-z
1/2+x,1/2-y,1/2+z
loop_
_atom_site_type_symbol
_atom_site_label
_atom_site_fract_x
_atom_site_fract_y
_atom_site_fract_z
Si Si1 0.034265 0.730477 0.595025
Si Si2 0.000000 0.657980 0.750000
Si Si3 0.681080 0.430813 0.020698
Si Si4 0.017090 0.051465 0.159401
Si Si5 0.713452 0.637705 0.363466
Si Si6 0.432464 0.870848 0.529772
Si Si7 0.044870 0.274024 0.608495
Si Si8 0.593799 0.644300 0.799310
O O1 0.250000 0.750000 0.500000
O O2 0.068977 0.704384 0.664907
O O3 0.967132 0.665415 0.570187
O O4 0.905300 0.795253 0.619579
O O5 0.189852 0.620476 0.731660
O O6 0.567006 0.490241 0.093507
O O7 0.572770 0.371024 0.090985
O O8 0.646499 0.414660 0.946686
O O9 0.915012 0.423597 0.979348
O O10 0.212423 0.097470 0.084161
O O11 0.000000 0.035285 0.250000
O O12 0.814858 0.091886 0.197416
O O13 0.899719 0.670023 0.350759
O O14 0.409456 0.810881 0.590616
O O15 0.250000 0.250000 0.500000
O O16 0.914581 0.221764 0.692133
O O17 0.500000 0.623410 0.750000
#
# Coordination Sequence:
#
# PCOD9301330 Si02
#       8
#     8   4   8   8   8   8   8   8
#     4  12  22  40  66 105 142 174 223 293 359 436
#     4  12  28  38  72 116 142 190 232 298 386 434
#     4  11  23  48  70  92 133 191 245 294 348 425
#     4  12  28  43  66 100 143 188 238 300 352 426
#     4  11  22  40  71  95 131 181 228 280 361 424
#     4  11  22  42  74  98 135 187 237 285 371 432
#     4  11  20  41  69 100 134 177 219 284 364 429
#     4  12  24  43  69 106 144 178 237 302 359 425
#
# _framework density 24.131602999999998
#
# number of rings (size 3 to 8) (size 9 to 14) (size 15 to 20)
#    0.000    0.533    5.333    4.400    0.933    1.067 
#    0.000    2.000    2.933    0.000    0.000    0.000 
#    0.000    0.000    0.000    0.000    0.000    0.000 
#
# Total GULP energy -167183.118295 kJ/mol
# GULP energy per Si atom -5572.770610 kJ/mol
# Density = 2.407668 g / cm^3
# Si number density = 24.131603 Si / 1000 Ang^3
#
#
#
# Elastic Constant Matrix: (Units=GPa)
#
#
# Indices 1 2 3 4 5 6 
#
# 1 103.7972 13.7790 16.2332 0.0000 18.0955 0.0000
# 2 13.7790 87.7725 8.0751 0.0000 9.8771 0.0000
# 3 16.2332 8.0751 59.0211 0.0000 30.4081 0.0000
# 4 0.0000 0.0000 0.0000 7.4093 0.0000 -4.5522
# 5 18.0955 9.8771 30.4081 0.0000 45.0409 0.0000
# 6 0.0000 0.0000 0.0000 -4.5522 0.0000 31.8603
#
#
#
# Elastic Compliance Matrix: (Units=1/GPa)
#
#
# Indices 1 2 3 4 5 6 
#
# 1 0.010524 -0.001189 -0.001055 0.000000 -0.003255 0.000000
# 2 -0.001189 0.011823 -0.000308 0.000000 -0.001907 0.000000
# 3 -0.001055 -0.000308 0.026101 0.000000 -0.017130 0.000000
# 4 0.000000 0.000000 0.000000 0.147954 0.000000 0.021140
# 5 -0.003255 -0.001907 -0.017130 0.000000 0.035493 0.000000
# 6 0.000000 0.000000 0.000000 0.021140 0.000000 0.034407
#
#
# Mechanical properties :
#
#
# Convention : Reuss Voigt Hill
#
# Bulk Modulus (GPa) = 23.07085 36.30727 29.68906
# Shear Modulus (GPa) = 17.49143 31.02899 24.26021
#
# Velocity S-wave (km/s) = 2.69520 3.58973 3.17413
# Velocity P-wave (km/s) = 4.38938 5.67976 5.07574
#
# Compressibility (1/GPa) = 0.04334473
#
# Stress axis : x y z
#
# Youngs Moduli (GPa) = 95.01651 84.58340 38.31297
#
# Poissons Ratio (x) = 0.10055 0.04041
# Poissons Ratio (y) = 0.11296 0.01180
# Poissons Ratio (z) = 0.10022 0.02606
#
# Static dielectric constant tensor:
#      x y z
#    x 2.125720 0.000000 -0.302420 
#    y 0.000000 1.963710 0.000000 
#    z -0.302420 0.000000 2.734090 
# 
# From -- ./inp_files/192528.got.cif
#   From: 2010.05.17/outbox.cif.g08.bks.cpg/sg15_97_cif.got.tgz:192528.got - 2010.06.03 18:47:42.
