data_PCOD9301997
_publ_section_title
;
Structure prediction by ZEFSAII (Michael W. Deem and Ramdas Pophale) SiO2 
 PCOD9301997
Probable space group: C 2/C
;
_chemical_formula_sum "Si O2"
_cell_formula_units_Z 56
_cell_length_a 24.098092
_cell_length_b 18.663181
_cell_length_c 9.073057
_cell_angle_alpha 90.000000
_cell_angle_beta 139.172529
_cell_angle_gamma 90.000000
_cell_volume 2667.816203
_symmetry_space_group_name_H-M "C 2/C"
_symmetry_group_IT_number 15
_symmetry_cell_setting 'monoclinic'
loop_
_space_group_symop_operation_xyz
x,y,z
-x,y,1/2-z
-x,-y,-z
x,-y,1/2+z
1/2+x,1/2+y,z
1/2-x,1/2+y,1/2-z
1/2-x,1/2-y,-z
1/2+x,1/2-y,1/2+z
loop_
_atom_site_type_symbol
_atom_site_label
_atom_site_fract_x
_atom_site_fract_y
_atom_site_fract_z
Si Si1 0.209060 0.402477 0.256972
Si Si2 0.199864 0.824866 0.588839
Si Si3 0.758161 0.964060 0.664575
Si Si4 0.838156 0.776710 0.452149
Si Si5 0.545264 0.560707 0.999427
Si Si6 0.545255 0.692445 0.569446
Si Si7 0.399752 0.225497 0.885510
O O1 0.213419 0.440526 0.424261
O O2 0.220785 0.463395 0.157412
O O3 0.288811 0.348299 0.400181
O O4 0.128471 0.348835 0.096539
O O5 0.242941 0.899306 0.719763
O O6 0.274746 0.768124 0.720106
O O7 0.130388 0.833523 0.323089
O O8 0.144706 0.789220 0.610535
O O9 0.858802 0.964904 0.830855
O O10 0.921075 0.791358 0.524144
O O11 0.858142 0.731161 0.638800
O O12 0.500000 0.571381 0.750000
O O13 0.526378 0.631731 0.056861
O O14 0.500000 0.500000 0.000000
O O15 0.499244 0.758639 0.560160
#
# Coordination Sequence:
#
# PCOD9301997 Si02
#       7
#     8   8   8   8   8   8   8
#     4  11  24  40  65  92 125 172 215 258 319 387
#     4  11  21  41  64  92 129 165 212 270 316 382
#     4  12  22  40  62  89 131 169 212 259 320 385
#     4  11  22  41  65  95 123 169 219 256 321 392
#     4  12  23  36  54  87 134 167 194 249 324 389
#     4  12  23  38  62  98 129 163 212 267 326 373
#     4  11  21  43  64  88 129 175 215 261 315 385
#
# _framework density 20.990952
#
# number of rings (size 3 to 8) (size 9 to 14) (size 15 to 20)
#    0.000    0.571    5.714    3.857    2.000    1.143 
#    0.000    0.000    0.000    0.857    3.714    0.000 
#    0.000    0.000    0.000    0.000    0.000    0.000 
#
# Total GULP energy -156480.289592 kJ/mol
# GULP energy per Si atom -5588.581771 kJ/mol
# Density = 2.094318 g / cm^3
# Si number density = 20.990952 Si / 1000 Ang^3
#
#
#
# Elastic Constant Matrix: (Units=GPa)
#
#
# Indices 1 2 3 4 5 6 
#
# 1 104.6179 50.7367 1.9611 0.0000 0.1856 0.0000
# 2 50.7367 119.6178 1.3645 0.0000 1.3748 0.0000
# 3 1.9611 1.3645 18.6161 0.0000 5.6130 0.0000
# 4 0.0000 0.0000 0.0000 15.8672 0.0000 -5.5869
# 5 0.1856 1.3748 5.6130 0.0000 13.6115 0.0000
# 6 0.0000 0.0000 0.0000 -5.5869 0.0000 43.6355
#
#
#
# Elastic Compliance Matrix: (Units=1/GPa)
#
#
# Indices 1 2 3 4 5 6 
#
# 1 0.012057 -0.005110 -0.001144 0.000000 0.000823 0.000000
# 2 -0.005110 0.010539 0.000075 0.000000 -0.001026 0.000000
# 3 -0.001144 0.000075 0.061473 0.000000 -0.025342 0.000000
# 4 0.000000 0.000000 0.000000 0.065999 0.000000 0.008450
# 5 0.000823 -0.001026 -0.025342 0.000000 0.084010 0.000000
# 6 0.000000 0.000000 0.000000 0.008450 0.000000 0.023999
#
#
# Mechanical properties :
#
#
# Convention : Reuss Voigt Hill
#
# Bulk Modulus (GPa) = 13.94504 38.99737 26.47121
# Shear Modulus (GPa) = 16.98731 27.20880 22.09805
#
# Velocity S-wave (km/s) = 2.84785 3.60421 3.24812
# Velocity P-wave (km/s) = 4.17989 5.99491 5.16771
#
# Compressibility (1/GPa) = 0.07171007
#
# Stress axis : x y z
#
# Youngs Moduli (GPa) = 82.93927 94.88984 16.26737
#
# Poissons Ratio (x) = 0.48493 0.01861
# Poissons Ratio (y) = 0.42386 -0.00122
# Poissons Ratio (z) = 0.09487 -0.00713
#
# Static dielectric constant tensor:
#      x y z
#    x 1.757250 0.000000 -0.000740 
#    y 0.000000 1.798440 0.000000 
#    z -0.000740 0.000000 1.806220 
# 
# From -- ./inp_files/62766.got.cif
#   From: 2010.05.17/outbox.cif.g08.bks.cpg/sg15_32_cif.got.tgz:62766.got - 2010.06.03 18:47:42.
