data_PCOD9301602
_publ_section_title
;
Structure prediction by ZEFSAII (Michael W. Deem and Ramdas Pophale) SiO2 
 PCOD9301602
Probable space group: C 2/C
;
_chemical_formula_sum "Si O2"
_cell_formula_units_Z 48
_cell_length_a 14.224865
_cell_length_b 15.719703
_cell_length_c 9.204454
_cell_angle_alpha 90.000000
_cell_angle_beta 96.611750
_cell_angle_gamma 90.000000
_cell_volume 2044.525146
_symmetry_space_group_name_H-M "C 2/C"
_symmetry_group_IT_number 15
_symmetry_cell_setting 'monoclinic'
loop_
_space_group_symop_operation_xyz
x,y,z
-x,y,1/2-z
-x,-y,-z
x,-y,1/2+z
1/2+x,1/2+y,z
1/2-x,1/2+y,1/2-z
1/2-x,1/2-y,-z
1/2+x,1/2-y,1/2+z
loop_
_atom_site_type_symbol
_atom_site_label
_atom_site_fract_x
_atom_site_fract_y
_atom_site_fract_z
Si Si1 0.973751 0.095950 0.533558
Si Si2 0.918784 0.549329 0.900275
Si Si3 0.703059 0.035831 0.349419
Si Si4 0.344110 0.211676 0.259909
Si Si5 0.983435 0.723307 0.001157
Si Si6 0.336114 0.607079 0.752866
O O1 0.971746 0.181291 0.435847
O O2 0.873362 0.089780 0.597448
O O3 0.063477 0.120713 0.649276
O O4 0.000000 0.000000 0.500000
O O5 0.826484 0.544975 0.988857
O O6 0.949975 0.646793 0.894343
O O7 0.889049 0.503137 0.748765
O O8 0.000000 0.500000 0.000000
O O9 0.717229 0.128113 0.279720
O O10 0.783291 0.968726 0.322942
O O11 0.413797 0.219207 0.131236
O O12 0.412319 0.203196 0.413021
O O13 0.287757 0.300616 0.255001
#
# Coordination Sequence:
#
# PCOD9301602 Si02
#       6
#     8   8   8   8   8   8
#     4   9  18  36  61  76 110 152 193 235 281 346
#     4  11  21  37  60  86 116 151 190 234 292 338
#     4  11  22  36  59  88 116 147 193 242 282 341
#     4   8  15  34  56  76 110 152 185 222 280 353
#     4   8  15  32  57  80 102 151 193 220 277 352
#     4   9  20  36  55  84 110 150 196 232 283 340
#
# _framework density 23.477333999999999
#
# number of rings (size 3 to 8) (size 9 to 14) (size 15 to 20)
#    0.000    2.667    1.667    2.500    2.333    0.000 
#    3.000    5.000    3.667    0.000    0.000    0.000 
#    0.000    0.000    0.000    0.000    0.000    0.000 
#
# Total GULP energy -133905.014363 kJ/mol
# GULP energy per Si atom -5579.375598 kJ/mol
# Density = 2.342390 g / cm^3
# Si number density = 23.477334 Si / 1000 Ang^3
#
#
#
# Elastic Constant Matrix: (Units=GPa)
#
#
# Indices 1 2 3 4 5 6 
#
# 1 82.5264 30.9861 2.1163 0.0000 -3.4777 0.0000
# 2 30.9861 221.7505 15.1656 0.0000 -21.2984 0.0000
# 3 2.1163 15.1656 44.2828 0.0000 -11.2762 0.0000
# 4 0.0000 0.0000 0.0000 20.0821 0.0000 5.7809
# 5 -3.4777 -21.2984 -11.2762 0.0000 17.4653 0.0000
# 6 0.0000 0.0000 0.0000 5.7809 0.0000 35.8466
#
#
#
# Elastic Compliance Matrix: (Units=1/GPa)
#
#
# Indices 1 2 3 4 5 6 
#
# 1 0.012791 -0.001748 0.000111 0.000000 0.000487 0.000000
# 2 -0.001748 0.005348 -0.000211 0.000000 0.006038 0.000000
# 3 0.000111 -0.000211 0.027034 0.000000 0.017219 0.000000
# 4 0.000000 0.000000 0.000000 0.052220 0.000000 -0.008421
# 5 0.000487 0.006038 0.017219 0.000000 0.075834 0.000000
# 6 0.000000 0.000000 0.000000 -0.008421 0.000000 0.029255
#
#
# Mechanical properties :
#
#
# Convention : Reuss Voigt Hill
#
# Bulk Modulus (GPa) = 24.10884 49.45507 36.78195
# Shear Modulus (GPa) = 22.72704 34.69826 28.71265
#
# Velocity S-wave (km/s) = 3.11471 3.84858 3.50093
# Velocity P-wave (km/s) = 4.81939 6.39214 5.66065
#
# Compressibility (1/GPa) = 0.04147856
#
# Stress axis : x y z
#
# Youngs Moduli (GPa) = 78.17745 186.97950 36.99095
#
# Poissons Ratio (x) = 0.32688 -0.00412
# Poissons Ratio (y) = 0.13667 0.00779
# Poissons Ratio (z) = -0.00871 0.03937
#
# Static dielectric constant tensor:
#      x y z
#    x 1.914580 0.000000 0.019490 
#    y 0.000000 1.959190 0.000000 
#    z 0.019490 0.000000 1.916140 
# 
# From -- ./inp_files/96407.got.cif
#   From: 2010.05.17/outbox.cif.g08.bks.cpg/sg15_49_cif.got.tgz:96407.got - 2010.06.03 18:47:42.
