data_PCOD9301947
_publ_section_title
;
Structure prediction by ZEFSAII (Michael W. Deem and Ramdas Pophale) SiO2 
 PCOD9301947
Probable space group: C 2/C
;
_chemical_formula_sum "Si O2"
_cell_formula_units_Z 56
_cell_length_a 9.633906
_cell_length_b 16.862357
_cell_length_c 19.474738
_cell_angle_alpha 90.000000
_cell_angle_beta 125.506146
_cell_angle_gamma 90.000000
_cell_volume 2575.402470
_symmetry_space_group_name_H-M "C 2/C"
_symmetry_group_IT_number 15
_symmetry_cell_setting 'monoclinic'
loop_
_space_group_symop_operation_xyz
x,y,z
-x,y,1/2-z
-x,-y,-z
x,-y,1/2+z
1/2+x,1/2+y,z
1/2-x,1/2+y,1/2-z
1/2-x,1/2-y,-z
1/2+x,1/2-y,1/2+z
loop_
_atom_site_type_symbol
_atom_site_label
_atom_site_fract_x
_atom_site_fract_y
_atom_site_fract_z
Si Si1 0.900235 0.662752 0.283180
Si Si2 0.833001 0.204544 0.585831
Si Si3 0.875290 0.722024 0.765136
Si Si4 0.127468 0.869711 0.966018
Si Si5 0.014058 0.687196 0.939778
Si Si6 0.631837 0.598559 0.623801
Si Si7 0.615238 0.452287 0.716682
O O1 0.746777 0.724038 0.224025
O O2 0.786511 0.596189 0.288227
O O3 0.000000 0.621761 0.250000
O O4 0.041911 0.725949 0.349549
O O5 0.750000 0.250000 0.500000
O O6 0.670539 0.172575 0.581074
O O7 0.947770 0.132057 0.593602
O O8 0.760408 0.668089 0.683780
O O9 0.000000 0.769677 0.750000
O O10 0.987817 0.674458 0.851181
O O11 0.065155 0.779753 0.965235
O O12 0.002974 0.904964 0.872734
O O13 0.319542 0.862108 0.991436
O O14 0.131265 0.913687 0.041298
O O15 0.671490 0.526280 0.685893
O O16 0.500000 0.472380 0.750000
#
# Coordination Sequence:
#
# PCOD9301947 Si02
#       7
#     8   8   8   8   8   8   8
#     4  11  23  41  66  95 132 175 217 282 334 402
#     4  11  23  41  70 100 131 167 226 286 342 394
#     4  11  21  40  68  99 129 168 225 277 337 402
#     4  11  23  44  68  98 133 176 224 280 335 409
#     4  11  22  39  72 103 127 167 229 279 338 396
#     4  11  26  43  66  94 138 183 220 280 346 399
#     4  12  28  45  64  94 138 185 229 275 344 410
#
# _framework density 21.744174000000001
#
# number of rings (size 3 to 8) (size 9 to 14) (size 15 to 20)
#    0.000    0.857    5.714    0.857    4.000    0.571 
#    0.000    0.714    0.000    0.000    0.000    0.000 
#    0.000    0.000    0.000    0.000    0.000    0.000 
#
# Total GULP energy -155956.895071 kJ/mol
# GULP energy per Si atom -5569.889110 kJ/mol
# Density = 2.169468 g / cm^3
# Si number density = 21.744174 Si / 1000 Ang^3
#
#
#
# Elastic Constant Matrix: (Units=GPa)
#
#
# Indices 1 2 3 4 5 6 
#
# 1 150.5106 31.7901 34.7034 0.0000 5.5631 0.0000
# 2 31.7901 26.8314 0.8922 0.0000 4.0836 0.0000
# 3 34.7034 0.8922 61.1290 0.0000 -1.5390 0.0000
# 4 0.0000 0.0000 0.0000 17.9490 0.0000 -2.2619
# 5 5.5631 4.0836 -1.5390 0.0000 37.3826 0.0000
# 6 0.0000 0.0000 0.0000 -2.2619 0.0000 18.5038
#
#
#
# Elastic Compliance Matrix: (Units=1/GPa)
#
#
# Indices 1 2 3 4 5 6 
#
# 1 0.010611 -0.012305 -0.005856 0.000000 -0.000476 0.000000
# 2 -0.012305 0.052195 0.006133 0.000000 -0.003618 0.000000
# 3 -0.005856 0.006133 0.019619 0.000000 0.001009 0.000000
# 4 0.000000 0.000000 0.000000 0.056585 0.000000 0.006917
# 5 -0.000476 -0.003618 0.001009 0.000000 0.027258 0.000000
# 6 0.000000 0.000000 0.000000 0.006917 0.000000 0.054888
#
#
# Mechanical properties :
#
#
# Convention : Reuss Voigt Hill
#
# Bulk Modulus (GPa) = 17.13248 41.47136 29.30192
# Shear Modulus (GPa) = 18.89145 26.17276 22.53210
#
# Velocity S-wave (km/s) = 2.95075 3.47316 3.22255
# Velocity P-wave (km/s) = 4.41650 5.93275 5.22987
#
# Compressibility (1/GPa) = 0.05836867
#
# Stress axis : x y z
#
# Youngs Moduli (GPa) = 94.24316 19.15884 50.97002
#
# Poissons Ratio (x) = 0.23574 0.29849
# Poissons Ratio (y) = 1.15963 -0.31257
# Poissons Ratio (z) = 0.55191 -0.11749
#
# Static dielectric constant tensor:
#      x y z
#    x 1.913280 0.000000 0.094860 
#    y 0.000000 2.402510 0.000000 
#    z 0.094860 0.000000 1.859980 
# 
# From -- ./inp_files/232787.got.cif
#   From: 2010.05.17/outbox.cif.g08.bks.cpg/sg15_117_cif.got.tgz:232787.got - 2010.06.03 18:47:42.
