data_PCOD9301921
_publ_section_title
;
Structure prediction by ZEFSAII (Michael W. Deem and Ramdas Pophale) SiO2 
 PCOD9301921
Probable space group: C 2/C
;
_chemical_formula_sum "Si O2"
_cell_formula_units_Z 60
_cell_length_a 19.970321
_cell_length_b 20.910578
_cell_length_c 13.664282
_cell_angle_alpha 90.000000
_cell_angle_beta 148.070896
_cell_angle_gamma 90.000000
_cell_volume 3017.772039
_symmetry_space_group_name_H-M "C 2/C"
_symmetry_group_IT_number 15
_symmetry_cell_setting 'monoclinic'
loop_
_space_group_symop_operation_xyz
x,y,z
-x,y,1/2-z
-x,-y,-z
x,-y,1/2+z
1/2+x,1/2+y,z
1/2-x,1/2+y,1/2-z
1/2-x,1/2-y,-z
1/2+x,1/2-y,1/2+z
loop_
_atom_site_type_symbol
_atom_site_label
_atom_site_fract_x
_atom_site_fract_y
_atom_site_fract_z
Si Si1 0.459671 0.587567 0.943645
Si Si2 0.527595 0.696598 0.167233
Si Si3 0.592516 0.945635 0.072419
Si Si4 0.000000 0.552531 0.250000
Si Si5 0.280815 0.125300 0.445928
Si Si6 0.852836 0.983305 0.937375
Si Si7 0.517700 0.846822 0.133703
Si Si8 0.783471 0.986154 0.075769
O O1 0.453449 0.535220 0.023250
O O2 0.351070 0.565979 0.730583
O O3 0.450410 0.652934 0.993421
O O4 0.590290 0.580144 0.043287
O O5 0.500000 0.684563 0.250000
O O6 0.673565 0.678819 0.324390
O O7 0.504597 0.770735 0.116405
O O8 0.585379 0.883499 0.130141
O O9 0.724207 0.984173 0.238907
O O10 0.549857 0.920181 0.913717
O O11 0.500000 0.000000 0.000000
O O12 0.130491 0.519260 0.378390
O O13 0.386011 0.137572 0.659164
O O14 0.374870 0.125512 0.469570
O O15 0.210723 0.058670 0.378605
O O16 0.840615 0.978736 0.038296
#
# Coordination Sequence:
#
# PCOD9301921 Si02
#       8
#     8   8   8   4   8   8   8   8
#     4  11  26  40  61  99 137 180 216 274 342 408
#     4  12  26  42  65  96 138 183 223 273 334 409
#     4  12  23  41  67  96 129 165 215 281 341 394
#     4  12  24  36  64  98 126 164 210 278 342 392
#     4  11  21  40  66  97 134 170 222 276 335 400
#     4  11  22  39  64  93 132 172 219 270 336 394
#     4  11  25  41  67  99 132 176 224 277 342 399
#     4  12  22  41  67  98 136 165 223 284 333 404
#
# _framework density 19.882218000000002
#
# number of rings (size 3 to 8) (size 9 to 14) (size 15 to 20)
#    0.000    0.533    5.333    4.800    1.867    0.000 
#    0.000    0.000    2.933    0.800    0.000    0.000 
#    0.000    0.000    0.000    0.000    0.000    0.000 
#
# Total GULP energy -167138.996789 kJ/mol
# GULP energy per Si atom -5571.299893 kJ/mol
# Density = 1.983697 g / cm^3
# Si number density = 19.882218 Si / 1000 Ang^3
#
#
#
# Elastic Constant Matrix: (Units=GPa)
#
#
# Indices 1 2 3 4 5 6 
#
# 1 119.5918 43.9102 38.3645 0.0000 -2.8809 0.0000
# 2 43.9102 103.0276 34.3922 0.0000 -12.2234 0.0000
# 3 38.3645 34.3922 106.3967 0.0000 6.9122 0.0000
# 4 0.0000 0.0000 0.0000 37.1379 0.0000 14.2077
# 5 -2.8809 -12.2234 6.9122 0.0000 47.0455 0.0000
# 6 0.0000 0.0000 0.0000 14.2077 0.0000 56.8951
#
#
#
# Elastic Compliance Matrix: (Units=1/GPa)
#
#
# Indices 1 2 3 4 5 6 
#
# 1 0.010532 -0.003595 -0.002642 0.000000 0.000099 0.000000
# 2 -0.003595 0.012666 -0.003026 0.000000 0.003515 0.000000
# 3 -0.002642 -0.003026 0.011501 0.000000 -0.002638 0.000000
# 4 0.000000 0.000000 0.000000 0.029771 0.000000 -0.007434
# 5 0.000099 0.003515 -0.002638 0.000000 0.022563 0.000000
# 6 0.000000 0.000000 0.000000 -0.007434 0.000000 0.019433
#
#
# Mechanical properties :
#
#
# Convention : Reuss Voigt Hill
#
# Bulk Modulus (GPa) = 61.83472 62.48332 62.15902
# Shear Modulus (GPa) = 38.34909 42.37231 40.36070
#
# Velocity S-wave (km/s) = 4.39659 4.62146 4.51043
# Velocity P-wave (km/s) = 7.54595 7.74417 7.64570
#
# Compressibility (1/GPa) = 0.01617214
#
# Stress axis : x y z
#
# Youngs Moduli (GPa) = 94.95231 78.95449 86.94916
#
# Poissons Ratio (x) = 0.28383 0.22971
# Poissons Ratio (y) = 0.34134 0.26312
# Poissons Ratio (z) = 0.25085 0.23893
#
# Static dielectric constant tensor:
#      x y z
#    x 1.871790 0.000000 0.014320 
#    y 0.000000 1.699480 0.000000 
#    z 0.014320 0.000000 1.929010 
# 
# From -- ./inp_files/169492.got.cif
#   From: 2010.05.17/outbox.cif.g08.bks.cpg/sg15_85_cif.got.tgz:169492.got - 2010.06.03 18:47:42.
