data_PCOD9301167
_publ_section_title
;
Structure prediction by ZEFSAII (Michael W. Deem and Ramdas Pophale) SiO2 
 PCOD9301167
Probable space group: C 2/C
;
_chemical_formula_sum "Si O2"
_cell_formula_units_Z 48
_cell_length_a 13.651370
_cell_length_b 11.887917
_cell_length_c 14.332561
_cell_angle_alpha 90.000000
_cell_angle_beta 118.905640
_cell_angle_gamma 90.000000
_cell_volume 2036.201496
_symmetry_space_group_name_H-M "C 2/C"
_symmetry_group_IT_number 15
_symmetry_cell_setting 'monoclinic'
loop_
_space_group_symop_operation_xyz
x,y,z
-x,y,1/2-z
-x,-y,-z
x,-y,1/2+z
1/2+x,1/2+y,z
1/2-x,1/2+y,1/2-z
1/2-x,1/2-y,-z
1/2+x,1/2-y,1/2+z
loop_
_atom_site_type_symbol
_atom_site_label
_atom_site_fract_x
_atom_site_fract_y
_atom_site_fract_z
Si Si1 0.932617 0.525991 0.123689
Si Si2 0.323300 0.432777 0.347225
Si Si3 0.364521 0.439737 0.687868
Si Si4 0.622437 0.193289 0.846952
Si Si5 0.311880 0.588784 0.500758
Si Si6 0.500574 0.249071 0.364486
O O1 0.898640 0.398713 0.080484
O O2 0.816265 0.591769 0.090003
O O3 0.005247 0.619407 0.104156
O O4 0.000000 0.508400 0.250000
O O5 0.322499 0.535047 0.272788
O O6 0.205159 0.374131 0.315999
O O7 0.365305 0.491132 0.461530
O O8 0.403770 0.333811 0.350412
O O9 0.500000 0.453592 0.750000
O O10 0.332761 0.320537 0.625623
O O11 0.312979 0.540548 0.604972
O O12 0.500000 0.216245 0.750000
O O13 0.387595 0.697809 0.538231
O O14 0.500000 0.249846 0.250000
#
# Coordination Sequence:
#
# PCOD9301167 Si02
#       6
#     8   8   8   8   8   8
#     4   9  21  38  60  90 129 172 203 262 326 381
#     4  11  22  38  65  98 128 171 223 270 316 389
#     4  11  22  42  65  97 132 170 222 271 318 391
#     4   9  22  42  63  90 132 178 210 267 331 379
#     4  11  21  39  66  95 134 172 219 264 336 373
#     4  11  20  38  65  99 132 159 218 279 318 379
#
# _framework density 23.573305999999999
#
# number of rings (size 3 to 8) (size 9 to 14) (size 15 to 20)
#    0.000    1.667    3.333    1.000    0.000    9.333 
#    3.000    0.000    0.000   18.000    0.000    0.000 
#    0.000    0.000    0.000    0.000    0.000    0.000 
#
# Total GULP energy -133719.960669 kJ/mol
# GULP energy per Si atom -5571.665028 kJ/mol
# Density = 2.351965 g / cm^3
# Si number density = 23.573306 Si / 1000 Ang^3
#
#
#
# Elastic Constant Matrix: (Units=GPa)
#
#
# Indices 1 2 3 4 5 6 
#
# 1 56.3689 4.8385 18.0942 0.0000 12.1581 0.0000
# 2 4.8385 136.9955 -9.5528 0.0000 5.6058 0.0000
# 3 18.0942 -9.5528 52.4354 0.0000 17.8287 0.0000
# 4 0.0000 0.0000 0.0000 6.2492 0.0000 -0.0698
# 5 12.1581 5.6058 17.8287 0.0000 37.6234 0.0000
# 6 0.0000 0.0000 0.0000 -0.0698 0.0000 10.8713
#
#
#
# Elastic Compliance Matrix: (Units=1/GPa)
#
#
# Indices 1 2 3 4 5 6 
#
# 1 0.020547 -0.000998 -0.006038 0.000000 -0.003630 0.000000
# 2 -0.000998 0.007580 0.002384 0.000000 -0.001937 0.000000
# 3 -0.006038 0.002384 0.025089 0.000000 -0.010293 0.000000
# 4 0.000000 0.000000 0.000000 0.160031 0.000000 0.001028
# 5 -0.003630 -0.001937 -0.010293 0.000000 0.032918 0.000000
# 6 0.000000 0.000000 0.000000 0.001028 0.000000 0.091992
#
#
# Mechanical properties :
#
#
# Convention : Reuss Voigt Hill
#
# Bulk Modulus (GPa) = 22.77312 30.28439 26.52875
# Shear Modulus (GPa) = 13.80840 26.44345 20.12593
#
# Velocity S-wave (km/s) = 2.42288 3.35289 2.92509
# Velocity P-wave (km/s) = 4.18434 5.27863 4.76302
#
# Compressibility (1/GPa) = 0.04391143
#
# Stress axis : x y z
#
# Youngs Moduli (GPa) = 48.66885 131.92203 39.85874
#
# Poissons Ratio (x) = 0.13168 0.24066
# Poissons Ratio (y) = 0.04858 -0.09502
# Poissons Ratio (z) = 0.29386 -0.31448
#
# Static dielectric constant tensor:
#      x y z
#    x 1.921400 0.000000 0.013610 
#    y 0.000000 2.015560 0.000000 
#    z 0.013610 0.000000 1.876790 
# 
# From -- ./inp_files/152440.got.cif
#   From: 2010.05.17/outbox.cif.g08.bks.cpg/sg15_77_cif.got.tgz:152440.got - 2010.06.03 18:47:42.
