data_PCOD9301595
_publ_section_title
;
Structure prediction by ZEFSAII (Michael W. Deem and Ramdas Pophale) SiO2 
 PCOD9301595
Probable space group: C 2/C
;
_chemical_formula_sum "Si O2"
_cell_formula_units_Z 48
_cell_length_a 13.278875
_cell_length_b 6.474096
_cell_length_c 21.252495
_cell_angle_alpha 90.000000
_cell_angle_beta 84.810963
_cell_angle_gamma 90.000000
_cell_volume 1819.561855
_symmetry_space_group_name_H-M "C 2/C"
_symmetry_group_IT_number 15
_symmetry_cell_setting 'monoclinic'
loop_
_space_group_symop_operation_xyz
x,y,z
-x,y,1/2-z
-x,-y,-z
x,-y,1/2+z
1/2+x,1/2+y,z
1/2-x,1/2+y,1/2-z
1/2-x,1/2-y,-z
1/2+x,1/2-y,1/2+z
loop_
_atom_site_type_symbol
_atom_site_label
_atom_site_fract_x
_atom_site_fract_y
_atom_site_fract_z
Si Si1 0.672502 0.501987 0.338606
Si Si2 0.146883 0.884216 0.510259
Si Si3 0.262503 0.319251 0.412918
Si Si4 0.441495 0.917653 0.564529
Si Si5 0.970015 0.723692 0.859747
Si Si6 0.787924 0.126892 0.302577
O O1 0.565678 0.623460 0.344734
O O2 0.691647 0.257286 0.332717
O O3 0.721033 0.570630 0.269096
O O4 0.737433 0.588300 0.394063
O O5 0.250000 0.750000 0.500000
O O6 0.170169 0.118096 0.530907
O O7 0.083191 0.819812 0.452304
O O8 0.087502 0.800439 0.574359
O O9 0.158359 0.441593 0.428810
O O10 0.302927 0.429363 0.346917
O O11 0.500000 0.000000 0.500000
O O12 0.499401 0.989187 0.623841
O O13 0.889543 0.740640 0.808627
#
# Coordination Sequence:
#
# PCOD9301595 Si02
#       6
#     8   8   8   8   8   8
#     4  11  21  37  58  80 116 154 196 245 300 348
#     4   8  14  29  57  83 110 151 187 226 296 351
#     4   9  18  33  56  83 113 152 189 237 293 349
#     4   8  14  29  56  83 109 151 189 230 292 350
#     4   9  19  33  57  83 112 148 193 240 291 350
#     4  11  21  37  58  80 115 155 194 247 299 351
#
# _framework density 26.379975000000002
#
# number of rings (size 3 to 8) (size 9 to 14) (size 15 to 20)
#    0.000    2.667    1.667    0.500    0.000    0.000 
#    0.000    6.667    0.000  126.000    0.000    0.000 
#    0.000    0.000    0.000    0.000    0.000    0.000 
#
# Total GULP energy -134163.467730 kJ/mol
# GULP energy per Si atom -5590.144489 kJ/mol
# Density = 2.631993 g / cm^3
# Si number density = 26.379975 Si / 1000 Ang^3
#
#
#
# Elastic Constant Matrix: (Units=GPa)
#
#
# Indices 1 2 3 4 5 6 
#
# 1 83.1583 26.9038 22.6601 0.0000 -4.7969 0.0000
# 2 26.9038 110.6725 38.0120 0.0000 8.2805 0.0000
# 3 22.6601 38.0120 87.2876 0.0000 1.3018 0.0000
# 4 0.0000 0.0000 0.0000 43.5170 0.0000 8.4356
# 5 -4.7969 8.2805 1.3018 0.0000 47.6128 0.0000
# 6 0.0000 0.0000 0.0000 8.4356 0.0000 42.2492
#
#
#
# Elastic Compliance Matrix: (Units=1/GPa)
#
#
# Indices 1 2 3 4 5 6 
#
# 1 0.013646 -0.002625 -0.002427 0.000000 0.001898 0.000000
# 2 -0.002625 0.011273 -0.004196 0.000000 -0.002110 0.000000
# 3 -0.002427 -0.004196 0.013912 0.000000 0.000105 0.000000
# 4 0.000000 0.000000 0.000000 0.023905 0.000000 -0.004773
# 5 0.001898 -0.002110 0.000105 0.000000 0.021558 0.000000
# 6 0.000000 0.000000 0.000000 -0.004773 0.000000 0.024622
#
#
# Mechanical properties :
#
#
# Convention : Reuss Voigt Hill
#
# Bulk Modulus (GPa) = 49.18120 50.69668 49.93894
# Shear Modulus (GPa) = 37.26021 39.57862 38.41941
#
# Velocity S-wave (km/s) = 3.76233 3.87761 3.82040
# Velocity P-wave (km/s) = 6.12840 6.26956 6.19938
#
# Compressibility (1/GPa) = 0.02033297
#
# Stress axis : x y z
#
# Youngs Moduli (GPa) = 73.28383 88.70753 71.87874
#
# Poissons Ratio (x) = 0.23289 0.17448
# Poissons Ratio (y) = 0.19240 0.30161
# Poissons Ratio (z) = 0.17789 0.37223
#
# Static dielectric constant tensor:
#      x y z
#    x 2.148990 0.000000 -0.025760 
#    y 0.000000 2.652960 0.000000 
#    z -0.025760 0.000000 2.048670 
# 
# From -- ./inp_files/272096.got.cif
#   From: 2010.05.17/outbox.cif.g08.bks.cpg/sg15_137_cif.got.tgz:272096.got - 2010.06.03 18:47:42.
