data_PCOD9301489
_publ_section_title
;
Structure prediction by ZEFSAII (Michael W. Deem and Ramdas Pophale) SiO2 
 PCOD9301489
Probable space group: C 2/C
;
_chemical_formula_sum "Si O2"
_cell_formula_units_Z 64
_cell_length_a 15.928761
_cell_length_b 21.311107
_cell_length_c 10.172976
_cell_angle_alpha 90.000000
_cell_angle_beta 125.328217
_cell_angle_gamma 90.000000
_cell_volume 2817.395986
_symmetry_space_group_name_H-M "C 2/C"
_symmetry_group_IT_number 15
_symmetry_cell_setting 'monoclinic'
loop_
_space_group_symop_operation_xyz
x,y,z
-x,y,1/2-z
-x,-y,-z
x,-y,1/2+z
1/2+x,1/2+y,z
1/2-x,1/2+y,1/2-z
1/2-x,1/2-y,-z
1/2+x,1/2-y,1/2+z
loop_
_atom_site_type_symbol
_atom_site_label
_atom_site_fract_x
_atom_site_fract_y
_atom_site_fract_z
Si Si1 0.617161 0.276686 0.773029
Si Si2 0.150908 0.301913 0.055904
Si Si3 0.426140 0.582991 0.293071
Si Si4 0.195871 0.555377 0.983883
Si Si5 0.788038 0.560453 0.819758
Si Si6 0.451453 0.598283 0.845863
Si Si7 0.610517 0.741026 0.748596
Si Si8 0.859469 0.687905 0.475927
O O1 0.605993 0.228127 0.645989
O O2 0.562872 0.341881 0.701177
O O3 0.737611 0.297285 0.876711
O O4 0.596370 0.241404 0.889512
O O5 0.155540 0.376094 0.081746
O O6 0.269680 0.280507 0.151456
O O7 0.097854 0.270420 0.881976
O O8 0.500000 0.555424 0.250000
O O9 0.311278 0.567876 0.144476
O O10 0.469786 0.570111 0.476211
O O11 0.169116 0.494504 0.046888
O O12 0.129416 0.617017 0.962671
O O13 0.198385 0.549255 0.826307
O O14 0.664476 0.572306 0.733345
O O15 0.500000 0.582970 0.750000
O O16 0.444108 0.675059 0.837642
O O17 0.603312 0.796949 0.636260
#
# Coordination Sequence:
#
# PCOD9301489 Si02
#       8
#     8   8   8   8   8   8   8   8
#     4   9  16  29  53  72  96 132 166 223 275 310
#     4   9  17  33  52  74 100 129 172 222 280 313
#     4  11  21  35  53  76 109 145 183 214 255 313
#     4  11  24  37  53  76 106 147 188 222 261 305
#     4  11  24  38  53  74 108 146 188 225 256 308
#     4  11  23  37  52  78 113 148 181 215 255 313
#     4   9  18  31  53  77 101 131 168 219 278 320
#     4   9  17  31  53  75  97 126 174 225 278 312
#
# _framework density 22.716013
#
# number of rings (size 3 to 8) (size 9 to 14) (size 15 to 20)
#    0.000    2.000    2.500    1.500    7.000    3.000 
#    0.000    0.000    0.000    0.000    0.000    0.000 
#    0.000   20.000    0.000    0.000    0.000    0.000 
#
# Total GULP energy -178722.910205 kJ/mol
# GULP energy per Si atom -5585.090944 kJ/mol
# Density = 2.266431 g / cm^3
# Si number density = 22.716013 Si / 1000 Ang^3
#
#
#
# Elastic Constant Matrix: (Units=GPa)
#
#
# Indices 1 2 3 4 5 6 
#
# 1 20.4112 14.6830 16.3097 0.0000 -16.1204 0.0000
# 2 14.6830 176.3878 47.8681 0.0000 -26.5761 0.0000
# 3 16.3097 47.8681 129.7239 0.0000 -35.5653 0.0000
# 4 0.0000 0.0000 0.0000 -0.7938 0.0000 5.3654
# 5 -16.1204 -26.5761 -35.5653 0.0000 54.1960 0.0000
# 6 0.0000 0.0000 0.0000 5.3654 0.0000 15.5211
#
#
#
# Elastic Compliance Matrix: (Units=1/GPa)
#
#
# Indices 1 2 3 4 5 6 
#
# 1 0.066064 -0.002195 -0.002931 0.000000 0.016651 0.000000
# 2 -0.002195 0.006539 -0.001752 0.000000 0.001404 0.000000
# 3 -0.002931 -0.001752 0.010059 0.000000 0.004870 0.000000
# 4 0.000000 0.000000 0.000000 -0.377559 0.000000 0.130517
# 5 0.016651 0.001404 0.004870 0.000000 0.027289 0.000000
# 6 0.000000 0.000000 0.000000 0.130517 0.000000 0.019311
#
#
# Mechanical properties :
#
#
# Convention : Reuss Voigt Hill
#
# Bulk Modulus (GPa) = 14.51259 53.80493 34.15876
# Shear Modulus (GPa) = -23.63252 30.29545 3.33147
#
# Velocity S-wave (km/s) = -3.22894 3.65589 1.21233
# Velocity P-wave (km/s) = 2.73840 6.44655 4.12670
#
# Compressibility (1/GPa) = 0.06890571
#
# Stress axis : x y z
#
# Youngs Moduli (GPa) = 15.13677 152.92758 99.41490
#
# Poissons Ratio (x) = 0.33571 0.29139
# Poissons Ratio (y) = 0.03323 0.17418
# Poissons Ratio (z) = 0.04437 0.26793
#
# Static dielectric constant tensor:
#      x y z
#    x 1.910020 0.000000 0.053720 
#    y 0.000000 1.839630 0.000000 
#    z 0.053720 0.000000 1.844020 
# 
# From -- ./inp_files/57887.got.cif
#   From: 2010.05.17/outbox.cif.g08.bks.cpg/sg15_29_cif.got.tgz:57887.got - 2010.06.03 18:47:42.
