data_PCOD9301845
_publ_section_title
;
Structure prediction by ZEFSAII (Michael W. Deem and Ramdas Pophale) SiO2 
 PCOD9301845
Probable space group: C 2/C
;
_chemical_formula_sum "Si O2"
_cell_formula_units_Z 44
_cell_length_a 27.480817
_cell_length_b 7.715791
_cell_length_c 8.359038
_cell_angle_alpha 90.000000
_cell_angle_beta 118.044186
_cell_angle_gamma 90.000000
_cell_volume 1564.310908
_symmetry_space_group_name_H-M "C 2/C"
_symmetry_group_IT_number 15
_symmetry_cell_setting 'monoclinic'
loop_
_space_group_symop_operation_xyz
x,y,z
-x,y,1/2-z
-x,-y,-z
x,-y,1/2+z
1/2+x,1/2+y,z
1/2-x,1/2+y,1/2-z
1/2-x,1/2-y,-z
1/2+x,1/2-y,1/2+z
loop_
_atom_site_type_symbol
_atom_site_label
_atom_site_fract_x
_atom_site_fract_y
_atom_site_fract_z
Si Si1 0.897352 0.593008 0.439550
Si Si2 0.793397 0.588665 0.919666
Si Si3 0.372085 0.371910 0.119524
Si Si4 0.500000 0.725636 0.250000
Si Si5 0.276320 0.580671 0.964188
Si Si6 0.040299 0.768616 0.464221
O O1 0.840429 0.549485 0.442770
O O2 0.888862 0.731863 0.281714
O O3 0.944383 0.671463 0.623195
O O4 0.924556 0.405089 0.439473
O O5 0.735038 0.591707 0.739886
O O6 0.824144 0.769087 0.951101
O O7 0.771495 0.556060 0.061734
O O8 0.420411 0.404188 0.068102
O O9 0.338548 0.543114 0.111666
O O10 0.484719 0.660876 0.408319
O O11 0.250000 0.750000 0.000000
O O12 0.000000 0.722351 0.250000
#
# Coordination Sequence:
#
# PCOD9301845 Si02
#       6
#     8   8   8   4   8   8
#     4  11  22  38  69 113 167 208 272 334 400 493
#     4  11  24  45  70 111 153 203 264 335 408 483
#     4  11  24  44  69 109 166 210 268 344 406 479
#     4  12  22  36  70 120 168 210 276 324 412 492
#     4  12  27  46  73 107 154 211 273 335 414 494
#     4  11  21  39  68 116 171 222 272 343 403 493
#
# _framework density 28.127399
#
# number of rings (size 3 to 8) (size 9 to 14) (size 15 to 20)
#    0.000    0.727    4.545    4.364    5.091    0.000 
#    0.000    0.000    0.000    0.000    2.364   15.273 
#    0.000    0.000    0.000    0.000    0.000    0.000 
#
# Total GULP energy -122959.632606 kJ/mol
# GULP energy per Si atom -5589.074209 kJ/mol
# Density = 2.806338 g / cm^3
# Si number density = 28.127399 Si / 1000 Ang^3
#
#
#
# Elastic Constant Matrix: (Units=GPa)
#
#
# Indices 1 2 3 4 5 6 
#
# 1 199.6084 50.4225 69.8937 0.0000 -23.5374 0.0000
# 2 50.4225 107.0145 45.7470 0.0000 0.3609 0.0000
# 3 69.8937 45.7470 153.8760 0.0000 3.1931 0.0000
# 4 0.0000 0.0000 0.0000 37.7939 0.0000 7.0503
# 5 -23.5374 0.3609 3.1931 0.0000 46.3647 0.0000
# 6 0.0000 0.0000 0.0000 7.0503 0.0000 38.3696
#
#
#
# Elastic Compliance Matrix: (Units=1/GPa)
#
#
# Indices 1 2 3 4 5 6 
#
# 1 0.006889 -0.002163 -0.002563 0.000000 0.003690 0.000000
# 2 -0.002163 0.011385 -0.002381 0.000000 -0.001023 0.000000
# 3 -0.002563 -0.002381 0.008409 0.000000 -0.001861 0.000000
# 4 0.000000 0.000000 0.000000 0.027398 0.000000 -0.005034
# 5 0.003690 -0.001023 -0.001861 0.000000 0.023578 0.000000
# 6 0.000000 0.000000 0.000000 -0.005034 0.000000 0.026987
#
#
# Mechanical properties :
#
#
# Convention : Reuss Voigt Hill
#
# Bulk Modulus (GPa) = 80.19304 88.06949 84.13126
# Shear Modulus (GPa) = 40.64524 44.13469 42.38996
#
# Velocity S-wave (km/s) = 3.80549 3.96548 3.88631
# Velocity P-wave (km/s) = 6.91965 7.23503 7.07910
#
# Compressibility (1/GPa) = 0.01246991
#
# Stress axis : x y z
#
# Youngs Moduli (GPa) = 145.16812 87.83574 118.91698
#
# Poissons Ratio (x) = 0.18996 0.30473
# Poissons Ratio (y) = 0.31396 0.28316
# Poissons Ratio (z) = 0.37200 0.20915
#
# Static dielectric constant tensor:
#      x y z
#    x 2.192180 0.000000 -0.020110 
#    y 0.000000 2.507700 0.000000 
#    z -0.020110 0.000000 2.244060 
# 
# From -- ./inp_files/68674.got.cif
#   From: 2010.05.17/outbox.cif.g08.bks.cpg/sg15_35_cif.got.tgz:68674.got - 2010.06.03 18:47:42.
