data_PCOD9301234
_publ_section_title
;
Structure prediction by ZEFSAII (Michael W. Deem and Ramdas Pophale) SiO2 
 PCOD9301234
Probable space group: C 2/C
;
_chemical_formula_sum "Si O2"
_cell_formula_units_Z 64
_cell_length_a 28.922770
_cell_length_b 16.017666
_cell_length_c 19.781506
_cell_angle_alpha 90.000000
_cell_angle_beta 20.637366
_cell_angle_gamma 90.000000
_cell_volume 3229.970015
_symmetry_space_group_name_H-M "C 2/C"
_symmetry_group_IT_number 15
_symmetry_cell_setting 'monoclinic'
loop_
_space_group_symop_operation_xyz
x,y,z
-x,y,1/2-z
-x,-y,-z
x,-y,1/2+z
1/2+x,1/2+y,z
1/2-x,1/2+y,1/2-z
1/2-x,1/2-y,-z
1/2+x,1/2-y,1/2+z
loop_
_atom_site_type_symbol
_atom_site_label
_atom_site_fract_x
_atom_site_fract_y
_atom_site_fract_z
Si Si1 0.932525 0.852869 0.033539
Si Si2 0.889443 0.733788 0.626852
Si Si3 0.866694 0.168032 0.475442
Si Si4 0.192078 0.021346 0.482242
Si Si5 0.620658 0.387242 0.945140
Si Si6 0.785411 0.518263 0.630956
Si Si7 0.010308 0.442529 0.919032
Si Si8 0.619809 0.505155 0.735299
O O1 0.907826 0.813067 0.995003
O O2 0.995183 0.783751 0.994495
O O3 0.798681 0.898330 0.238137
O O4 0.037695 0.926825 0.875780
O O5 0.853188 0.792690 0.612543
O O6 0.945529 0.645524 0.526472
O O7 0.768019 0.720984 0.845560
O O8 0.000000 0.180214 0.250000
O O9 0.820823 0.070749 0.533546
O O10 0.137336 0.085649 0.500647
O O11 0.335317 0.055923 0.304139
O O12 0.130141 0.004473 0.640467
O O13 0.717062 0.445375 0.768843
O O14 0.474255 0.415415 0.123167
O O15 0.929742 0.525295 0.464206
O O16 0.753721 0.504972 0.595129
O O17 0.000000 0.500000 0.000000
#
# Coordination Sequence:
#
# PCOD9301234 Si02
#       8
#     8   8   8   8   8   8   8   8
#     4  11  20  39  67  96 127 169 223 274 324 400
#     4  12  25  39  66 101 131 169 219 283 326 391
#     4  12  23  42  66  96 134 173 217 272 341 398
#     4  12  23  42  70  94 128 180 223 268 333 404
#     4  11  20  39  70  97 119 173 224 270 323 397
#     4  11  20  41  67  94 128 174 231 266 320 407
#     4  12  24  42  64  94 132 182 221 267 335 404
#     4  11  21  41  70  97 125 169 225 277 332 385
#
# _framework density 19.814426000000001
#
# number of rings (size 3 to 8) (size 9 to 14) (size 15 to 20)
#    0.000    0.500   10.000    1.125    1.750    1.000 
#    0.000    0.625    2.750    0.000    0.000    0.000 
#    0.000    0.000    0.000    0.000    0.000    0.000 
#
# Total GULP energy -178387.294433 kJ/mol
# GULP energy per Si atom -5574.602951 kJ/mol
# Density = 1.976933 g / cm^3
# Si number density = 19.814426 Si / 1000 Ang^3
#
#
#
# Elastic Constant Matrix: (Units=GPa)
#
#
# Indices 1 2 3 4 5 6 
#
# 1 124.6511 27.1818 19.0369 0.0000 -20.9054 0.0000
# 2 27.1818 73.2788 1.6514 0.0000 -6.9759 0.0000
# 3 19.0369 1.6514 39.3361 0.0000 -26.8327 0.0000
# 4 0.0000 0.0000 0.0000 14.0323 0.0000 -2.0307
# 5 -20.9054 -6.9759 -26.8327 0.0000 37.7428 0.0000
# 6 0.0000 0.0000 0.0000 -2.0307 0.0000 23.8404
#
#
#
# Elastic Compliance Matrix: (Units=1/GPa)
#
#
# Indices 1 2 3 4 5 6 
#
# 1 0.009602 -0.003225 -0.002505 0.000000 0.002941 0.000000
# 2 -0.003225 0.015079 0.003127 0.000000 0.003224 0.000000
# 3 -0.002505 0.003127 0.050386 0.000000 0.035011 0.000000
# 4 0.000000 0.000000 0.000000 0.072153 0.000000 0.006146
# 5 0.002941 0.003224 0.035011 0.000000 0.053611 0.000000
# 6 0.000000 0.000000 0.000000 0.006146 0.000000 0.042469
#
#
# Mechanical properties :
#
#
# Convention : Reuss Voigt Hill
#
# Bulk Modulus (GPa) = 14.31446 37.00070 25.65758
# Shear Modulus (GPa) = 18.39636 27.74950 23.07293
#
# Velocity S-wave (km/s) = 3.05032 3.74634 3.41611
# Velocity P-wave (km/s) = 4.43237 6.11781 5.34198
#
# Compressibility (1/GPa) = 0.06985942
#
# Stress axis : x y z
#
# Youngs Moduli (GPa) = 104.15034 66.31633 19.84697
#
# Poissons Ratio (x) = 0.21388 0.04972
# Poissons Ratio (y) = 0.33590 -0.06205
# Poissons Ratio (z) = 0.26089 -0.20735
#
# Static dielectric constant tensor:
#      x y z
#    x 1.742000 0.000000 -0.004330 
#    y 0.000000 1.696060 0.000000 
#    z -0.004330 0.000000 1.784100 
# 
# From -- ./inp_files/259422.got.cif
#   From: 2010.05.17/outbox.cif.g08.bks.cpg/sg15_130_cif.got.tgz:259422.got - 2010.06.03 18:47:42.
