data_PCOD9301855
_publ_section_title
;
Structure prediction by ZEFSAII (Michael W. Deem and Ramdas Pophale) SiO2 
 PCOD9301855
Probable space group: C 2/C
;
_chemical_formula_sum "Si O2"
_cell_formula_units_Z 40
_cell_length_a 6.135787
_cell_length_b 20.328058
_cell_length_c 18.045136
_cell_angle_alpha 90.000000
_cell_angle_beta 123.815759
_cell_angle_gamma 90.000000
_cell_volume 1869.989825
_symmetry_space_group_name_H-M "C 2/C"
_symmetry_group_IT_number 15
_symmetry_cell_setting 'monoclinic'
loop_
_space_group_symop_operation_xyz
x,y,z
-x,y,1/2-z
-x,-y,-z
x,-y,1/2+z
1/2+x,1/2+y,z
1/2-x,1/2+y,1/2-z
1/2-x,1/2-y,-z
1/2+x,1/2-y,1/2+z
loop_
_atom_site_type_symbol
_atom_site_label
_atom_site_fract_x
_atom_site_fract_y
_atom_site_fract_z
Si Si1 0.226695 0.989096 0.156854
Si Si2 0.500000 0.791672 0.250000
Si Si3 0.313735 0.871379 0.077320
Si Si4 0.000000 0.728701 0.250000
Si Si5 0.817721 0.435699 0.453077
Si Si6 0.794782 0.130305 0.410629
O O1 0.500000 0.976558 0.250000
O O2 0.243776 0.947566 0.083935
O O3 0.953116 0.961072 0.134447
O O4 0.194700 0.066353 0.139717
O O5 0.344617 0.834265 0.159716
O O6 0.260686 0.760072 0.256280
O O7 0.575195 0.879871 0.081100
O O8 0.085427 0.843621 0.982881
O O9 0.121500 0.684276 0.338483
O O10 0.798717 0.399094 0.528481
O O11 0.000000 0.500000 0.500000
#
# Coordination Sequence:
#
# PCOD9301855 Si02
#       6
#     8   4   8   4   8   8
#     4  11  21  39  69 113 143 181 229 300 386 452
#     4  12  32  51  72 103 144 204 268 302 352 426
#     4  11  24  46  73 104 146 185 238 304 373 443
#     4  12  32  53  72 105 144 204 266 306 352 426
#     4  11  21  39  72 112 145 180 228 294 388 465
#     4  11  24  45  73 105 148 184 240 306 377 440
#
# _framework density 21.390491999999998
#
# number of rings (size 3 to 8) (size 9 to 14) (size 15 to 20)
#    0.000    0.800    6.000    1.200    8.400    2.400 
#    0.000    0.000    0.000    0.000    0.000    0.000 
#    0.000    0.000    0.000    0.000    0.000    0.000 
#
# Total GULP energy -111375.555275 kJ/mol
# GULP energy per Si atom -5568.777764 kJ/mol
# Density = 2.134181 g / cm^3
# Si number density = 21.390492 Si / 1000 Ang^3
#
#
#
# Elastic Constant Matrix: (Units=GPa)
#
#
# Indices 1 2 3 4 5 6 
#
# 1 115.4610 45.0642 41.0190 0.0000 8.1176 0.0000
# 2 45.0642 64.2593 36.1779 0.0000 3.6758 0.0000
# 3 41.0190 36.1779 139.4307 0.0000 29.8946 0.0000
# 4 0.0000 0.0000 0.0000 9.0640 0.0000 -21.8645
# 5 8.1176 3.6758 29.8946 0.0000 33.0567 0.0000
# 6 0.0000 0.0000 0.0000 -21.8645 0.0000 11.4129
#
#
#
# Elastic Compliance Matrix: (Units=1/GPa)
#
#
# Indices 1 2 3 4 5 6 
#
# 1 0.012245 -0.007746 -0.001405 0.000000 -0.000875 0.000000
# 2 -0.007746 0.023334 -0.004500 0.000000 0.003377 0.000000
# 3 -0.001405 -0.004500 0.010633 0.000000 -0.008771 0.000000
# 4 0.000000 0.000000 0.000000 -0.030466 0.000000 -0.058366
# 5 -0.000875 0.003377 -0.008771 0.000000 0.038022 0.000000
# 6 0.000000 0.000000 0.000000 -0.058366 0.000000 -0.024196
#
#
# Mechanical properties :
#
#
# Convention : Reuss Voigt Hill
#
# Bulk Modulus (GPa) = 52.87851 62.63036 57.75443
# Shear Modulus (GPa) = 79.14136 23.83271 51.48704
#
# Velocity S-wave (km/s) = 6.08923 3.34154 4.91145
# Velocity P-wave (km/s) = 8.61467 6.65064 7.69557
#
# Compressibility (1/GPa) = 0.01891128
#
# Stress axis : x y z
#
# Youngs Moduli (GPa) = 81.66697 42.85514 94.04399
#
# Poissons Ratio (x) = 0.33196 0.13211
# Poissons Ratio (y) = 0.63261 0.42317
# Poissons Ratio (z) = 0.11472 0.19283
#
# Static dielectric constant tensor:
#      x y z
#    x 1.927750 0.000000 0.051230 
#    y 0.000000 1.784060 0.000000 
#    z 0.051230 0.000000 1.763840 
# 
# From -- ./inp_files/227635.got.cif
#   From: 2010.05.17/outbox.cif.g08.bks.cpg/sg15_114_cif.got.tgz:227635.got - 2010.06.03 18:47:42.
