data_PCOD9301598
_publ_section_title
;
Structure prediction by ZEFSAII (Michael W. Deem and Ramdas Pophale) SiO2 
 PCOD9301598
Probable space group: C 2/C
;
_chemical_formula_sum "Si O2"
_cell_formula_units_Z 40
_cell_length_a 6.977420
_cell_length_b 12.884323
_cell_length_c 22.825333
_cell_angle_alpha 90.000000
_cell_angle_beta 53.590875
_cell_angle_gamma 90.000000
_cell_volume 1651.433804
_symmetry_space_group_name_H-M "C 2/C"
_symmetry_group_IT_number 15
_symmetry_cell_setting 'monoclinic'
loop_
_space_group_symop_operation_xyz
x,y,z
-x,y,1/2-z
-x,-y,-z
x,-y,1/2+z
1/2+x,1/2+y,z
1/2-x,1/2+y,1/2-z
1/2-x,1/2-y,-z
1/2+x,1/2-y,1/2+z
loop_
_atom_site_type_symbol
_atom_site_label
_atom_site_fract_x
_atom_site_fract_y
_atom_site_fract_z
Si Si1 0.506776 0.825151 0.485061
Si Si2 0.456768 0.244078 0.873867
Si Si3 0.128344 0.470785 0.552628
Si Si4 0.678012 0.041614 0.668223
Si Si5 0.437881 0.466656 0.827716
O O1 0.602430 0.776802 0.407470
O O2 0.314855 0.755268 0.553091
O O3 0.682801 0.873481 0.501386
O O4 0.349992 0.923872 0.488748
O O5 0.448425 0.146566 0.831884
O O6 0.523027 0.351433 0.831235
O O7 0.844481 0.466483 0.615255
O O8 0.233293 0.479190 0.598139
O O9 0.500000 0.995054 0.750000
O O10 0.926892 0.049069 0.656561
O O11 0.500000 0.487472 0.750000
#
# Coordination Sequence:
#
# PCOD9301598 Si02
#       5
#     8   8   8   8   8
#     4   8  16  36  58  82 118 150 182 244 296 340
#     4   9  19  36  60  84 113 153 194 238 294 349
#     4   9  18  36  60  84 118 149 188 242 292 349
#     4  11  21  37  59  84 115 157 196 240 295 346
#     4  11  21  37  59  84 115 157 196 240 295 346
#
# _framework density 24.221375999999999
#
# number of rings (size 3 to 8) (size 9 to 14) (size 15 to 20)
#    0.000    2.400    2.000    0.600    0.000    0.000 
#    0.000   46.000    0.000    0.000    0.000    0.000 
#    0.000    0.000    0.000    0.000    0.000    0.000 
#
# Total GULP energy -111721.957083 kJ/mol
# GULP energy per Si atom -5586.097854 kJ/mol
# Density = 2.416625 g / cm^3
# Si number density = 24.221376 Si / 1000 Ang^3
#
#
#
# Elastic Constant Matrix: (Units=GPa)
#
#
# Indices 1 2 3 4 5 6 
#
# 1 65.5658 9.8406 57.2698 0.0000 26.6242 0.0003
# 2 9.8406 63.0342 13.6785 -0.0001 10.4079 0.0001
# 3 57.2698 13.6785 116.1112 0.0000 42.5383 0.0003
# 4 0.0000 -0.0001 0.0000 19.9951 0.0000 0.9899
# 5 26.6242 10.4079 42.5383 0.0000 47.3582 -0.0003
# 6 0.0003 0.0001 0.0003 0.9899 -0.0003 24.7380
#
#
#
# Elastic Compliance Matrix: (Units=1/GPa)
#
#
# Indices 1 2 3 4 5 6 
#
# 1 0.027593 -0.000974 -0.011760 0.000000 -0.004735 0.000000
# 2 -0.000974 0.016562 -0.000504 0.000000 -0.002640 0.000000
# 3 -0.011760 -0.000504 0.017900 0.000000 -0.009356 0.000000
# 4 0.000000 0.000000 0.000000 0.050112 0.000000 -0.002005
# 5 -0.004735 -0.002640 -0.009356 0.000000 0.032762 0.000001
# 6 0.000000 0.000000 0.000000 -0.002005 0.000001 0.040504
#
#
# Mechanical properties :
#
#
# Convention : Reuss Voigt Hill
#
# Bulk Modulus (GPa) = 28.10630 45.14321 36.62475
# Shear Modulus (GPa) = 22.34464 29.34640 25.84552
#
# Velocity S-wave (km/s) = 3.04059 3.48457 3.27012
# Velocity P-wave (km/s) = 4.89449 5.90490 5.42328
#
# Compressibility (1/GPa) = 0.03557921
#
# Stress axis : x y z
#
# Youngs Moduli (GPa) = 36.24089 60.38064 55.86574
#
# Poissons Ratio (x) = 0.05880 0.65700
# Poissons Ratio (y) = 0.03529 0.02813
# Poissons Ratio (z) = 0.42621 0.03040
#
# Static dielectric constant tensor:
#      x y z
#    x 1.944460 0.000000 0.049770 
#    y 0.000000 1.982470 0.000000 
#    z 0.049770 0.000000 1.919110 
# 
# From -- ./inp_files/202209.got.cif
#   From: 2010.05.17/outbox.cif.g08.bks.cpg/sg15_102_cif.got.tgz:202209.got - 2010.06.03 18:47:42.
