data_PCOD9301271
_publ_section_title
;
Structure prediction by ZEFSAII (Michael W. Deem and Ramdas Pophale) SiO2 
 PCOD9301271
Probable space group: C 2/C
;
_chemical_formula_sum "Si O2"
_cell_formula_units_Z 48
_cell_length_a 20.663540
_cell_length_b 12.607706
_cell_length_c 14.276452
_cell_angle_alpha 90.000000
_cell_angle_beta 37.006644
_cell_angle_gamma 90.000000
_cell_volume 2238.674412
_symmetry_space_group_name_H-M "C 2/C"
_symmetry_group_IT_number 15
_symmetry_cell_setting 'monoclinic'
loop_
_space_group_symop_operation_xyz
x,y,z
-x,y,1/2-z
-x,-y,-z
x,-y,1/2+z
1/2+x,1/2+y,z
1/2-x,1/2+y,1/2-z
1/2-x,1/2-y,-z
1/2+x,1/2-y,1/2+z
loop_
_atom_site_type_symbol
_atom_site_label
_atom_site_fract_x
_atom_site_fract_y
_atom_site_fract_z
Si Si1 0.009542 0.582600 0.848572
Si Si2 0.504961 0.295320 0.953951
Si Si3 0.300243 0.646007 0.799359
Si Si4 0.971536 0.007634 0.685822
Si Si5 0.156452 0.821543 0.938645
Si Si6 0.675883 0.001848 0.800998
O O1 0.000000 0.558280 0.750000
O O2 0.998783 0.708294 0.880606
O O3 0.118792 0.544655 0.773285
O O4 0.915467 0.527212 0.017480
O O5 0.514159 0.416307 0.907871
O O6 0.608641 0.272571 0.898193
O O7 0.400947 0.288583 0.140890
O O8 0.355195 0.562685 0.806966
O O9 0.205850 0.725006 0.941475
O O10 0.254347 0.581997 0.763840
O O11 0.000000 0.952128 0.750000
O O12 0.058540 0.103436 0.584003
O O13 0.253151 0.900462 0.805616
#
# Coordination Sequence:
#
# PCOD9301271 Si02
#       6
#     8   8   8   8   8   8
#     4  11  25  40  64  99 125 157 208 263 313 367
#     4  11  20  40  66  91 122 152 209 266 302 365
#     4  11  21  40  65  87 118 172 209 241 317 374
#     4  11  24  38  60  95 127 156 208 267 302 363
#     4  11  21  40  65  87 118 172 209 241 317 374
#     4  11  22  43  64  88 132 169 200 251 316 378
#
# _framework density 21.44126
#
# number of rings (size 3 to 8) (size 9 to 14) (size 15 to 20)
#    0.000    1.000    6.667    1.500    0.000    2.000 
#    0.000    3.333    0.000    0.000    0.000    0.000 
#    0.000    0.000    0.000    0.000    0.000    0.000 
#
# Total GULP energy -133934.774728 kJ/mol
# GULP energy per Si atom -5580.615614 kJ/mol
# Density = 2.139246 g / cm^3
# Si number density = 21.441260 Si / 1000 Ang^3
#
#
#
# Elastic Constant Matrix: (Units=GPa)
#
#
# Indices 1 2 3 4 5 6 
#
# 1 154.3772 33.4162 33.6784 0.0000 -5.0159 0.0000
# 2 33.4162 63.0482 12.2147 0.0000 -12.3753 0.0000
# 3 33.6784 12.2147 22.7695 0.0000 -9.0099 0.0000
# 4 0.0000 0.0000 0.0000 -36.9403 0.0000 49.4302
# 5 -5.0159 -12.3753 -9.0099 0.0000 36.5714 0.0000
# 6 0.0000 0.0000 0.0000 49.4302 0.0000 -12.2832
#
#
#
# Elastic Compliance Matrix: (Units=1/GPa)
#
#
# Indices 1 2 3 4 5 6 
#
# 1 0.010305 -0.003245 -0.014822 0.000000 -0.003336 0.000000
# 2 -0.003245 0.019279 -0.003476 0.000000 0.005222 0.000000
# 3 -0.014822 -0.003476 0.073612 0.000000 0.014926 0.000000
# 4 0.000000 0.000000 0.000000 0.006174 0.000000 0.024844
# 5 -0.003336 0.005222 0.014926 0.000000 0.032331 0.000000
# 6 0.000000 0.000000 0.000000 0.024844 0.000000 0.018567
#
#
# Mechanical properties :
#
#
# Convention : Reuss Voigt Hill
#
# Bulk Modulus (GPa) = 16.63583 44.31260 30.47421
# Shear Modulus (GPa) = 22.38234 8.19529 15.28881
#
# Velocity S-wave (km/s) = 3.23444 1.95717 2.67321
# Velocity P-wave (km/s) = 4.66094 5.08126 4.87563
#
# Compressibility (1/GPa) = 0.06011122
#
# Stress axis : x y z
#
# Youngs Moduli (GPa) = 97.03926 51.86898 13.58470
#
# Poissons Ratio (x) = 0.16832 0.20135
# Poissons Ratio (y) = 0.31491 0.04722
# Poissons Ratio (z) = 1.43828 0.18029
#
# Static dielectric constant tensor:
#      x y z
#    x 1.802230 0.000000 0.005200 
#    y 0.000000 1.789100 0.000000 
#    z 0.005200 0.000000 1.783610 
# 
# From -- ./inp_files/111807.got.cif
#   From: 2010.05.17/outbox.cif.g08.bks.cpg/sg15_56_cif.got.tgz:111807.got - 2010.06.03 18:47:42.
