data_PCOD9301757
_publ_section_title
;
Structure prediction by ZEFSAII (Michael W. Deem and Ramdas Pophale) SiO2 
 PCOD9301757
Probable space group: C 2/C
;
_chemical_formula_sum "Si O2"
_cell_formula_units_Z 40
_cell_length_a 11.797028
_cell_length_b 8.170891
_cell_length_c 19.230484
_cell_angle_alpha 90.000000
_cell_angle_beta 127.693964
_cell_angle_gamma 90.000000
_cell_volume 1466.786132
_symmetry_space_group_name_H-M "C 2/C"
_symmetry_group_IT_number 15
_symmetry_cell_setting 'monoclinic'
loop_
_space_group_symop_operation_xyz
x,y,z
-x,y,1/2-z
-x,-y,-z
x,-y,1/2+z
1/2+x,1/2+y,z
1/2-x,1/2+y,1/2-z
1/2-x,1/2-y,-z
1/2+x,1/2-y,1/2+z
loop_
_atom_site_type_symbol
_atom_site_label
_atom_site_fract_x
_atom_site_fract_y
_atom_site_fract_z
Si Si1 0.291732 0.105767 0.101412
Si Si2 0.065513 0.210753 0.658398
Si Si3 0.170607 0.278433 0.309085
Si Si4 0.618500 0.582608 0.416291
Si Si5 0.974427 0.689969 0.974357
O O1 0.453555 0.161585 0.147990
O O2 0.192985 0.257474 0.087101
O O3 0.291997 0.964481 0.157818
O O4 0.219521 0.023868 0.005577
O O5 0.232672 0.254243 0.722383
O O6 0.033945 0.213564 0.563790
O O7 0.008223 0.034299 0.659766
O O8 0.207174 0.155889 0.386039
O O9 0.000000 0.270695 0.250000
O O10 0.547717 0.730713 0.433884
O O11 0.000000 0.500000 0.000000
#
# Coordination Sequence:
#
# PCOD9301757 Si02
#       5
#     8   8   8   8   8
#     4  11  23  44  70 100 139 174 222 289 338 399
#     4  11  24  41  70 104 134 169 231 278 336 402
#     4  12  27  45  66  95 140 185 227 273 337 408
#     4  11  22  44  70 100 139 170 224 289 335 395
#     4  11  21  38  73 109 132 168 220 288 345 392
#
# _framework density 27.270506000000001
#
# number of rings (size 3 to 8) (size 9 to 14) (size 15 to 20)
#    0.000    0.800    4.000    5.400    5.600    1.600 
#    0.000    1.000    0.000    0.000    0.000    0.000 
#    0.000    0.000    0.000    0.000    0.000    0.000 
#
# Total GULP energy -112116.337118 kJ/mol
# GULP energy per Si atom -5605.816856 kJ/mol
# Density = 2.720844 g / cm^3
# Si number density = 27.270506 Si / 1000 Ang^3
#
#
#
# Elastic Constant Matrix: (Units=GPa)
#
#
# Indices 1 2 3 4 5 6 
#
# 1 214.2607 100.7647 36.6812 0.0000 41.5389 0.0000
# 2 100.7647 180.5358 27.7452 0.0000 18.6659 0.0000
# 3 36.6812 27.7452 65.2598 0.0000 14.9548 0.0000
# 4 0.0000 0.0000 0.0000 16.9403 0.0000 7.2767
# 5 41.5389 18.6659 14.9548 0.0000 48.2717 0.0000
# 6 0.0000 0.0000 0.0000 7.2767 0.0000 59.7157
#
#
#
# Elastic Compliance Matrix: (Units=1/GPa)
#
#
# Indices 1 2 3 4 5 6 
#
# 1 0.007454 -0.003429 -0.001685 0.000000 -0.004566 0.000000
# 2 -0.003429 0.007625 -0.001415 0.000000 0.000441 0.000000
# 3 -0.001685 -0.001415 0.017669 0.000000 -0.003476 0.000000
# 4 0.000000 0.000000 0.000000 0.062291 0.000000 -0.007591
# 5 -0.004566 0.000441 -0.003476 0.000000 0.025552 0.000000
# 6 0.000000 0.000000 0.000000 -0.007591 0.000000 0.017671
#
#
# Mechanical properties :
#
#
# Convention : Reuss Voigt Hill
#
# Bulk Modulus (GPa) = 50.79223 87.82648 69.30936
# Shear Modulus (GPa) = 31.66885 44.64321 38.15603
#
# Velocity S-wave (km/s) = 3.41146 4.05044 3.74460
# Velocity P-wave (km/s) = 5.84664 7.35869 6.64581
#
# Compressibility (1/GPa) = 0.01968805
#
# Stress axis : x y z
#
# Youngs Moduli (GPa) = 134.16339 131.14895 56.59622
#
# Poissons Ratio (x) = 0.44972 0.09538
# Poissons Ratio (y) = 0.46006 0.08010
# Poissons Ratio (z) = 0.22611 0.18562
#
# Static dielectric constant tensor:
#      x y z
#    x 2.120540 0.000000 0.136910 
#    y 0.000000 2.096450 0.000000 
#    z 0.136910 0.000000 2.304820 
# 
# From -- ./inp_files/290904.got.cif
#   From: 2010.05.17/outbox.cif.g08.bks.cpg/sg15_146_cif.got.tgz:290904.got - 2010.06.03 18:47:42.
