data_PCOD9301420
_publ_section_title
;
Structure prediction by ZEFSAII (Michael W. Deem and Ramdas Pophale) SiO2 
 PCOD9301420
Probable space group: C 2/C
;
_chemical_formula_sum "Si O2"
_cell_formula_units_Z 48
_cell_length_a 12.807953
_cell_length_b 15.410614
_cell_length_c 11.987899
_cell_angle_alpha 90.000000
_cell_angle_beta 78.810044
_cell_angle_gamma 90.000000
_cell_volume 2321.170084
_symmetry_space_group_name_H-M "C 2/C"
_symmetry_group_IT_number 15
_symmetry_cell_setting 'monoclinic'
loop_
_space_group_symop_operation_xyz
x,y,z
-x,y,1/2-z
-x,-y,-z
x,-y,1/2+z
1/2+x,1/2+y,z
1/2-x,1/2+y,1/2-z
1/2-x,1/2-y,-z
1/2+x,1/2-y,1/2+z
loop_
_atom_site_type_symbol
_atom_site_label
_atom_site_fract_x
_atom_site_fract_y
_atom_site_fract_z
Si Si1 0.949045 0.821188 0.138510
Si Si2 0.745776 0.402333 0.423704
Si Si3 0.116413 0.713772 0.771730
Si Si4 0.130954 0.713396 0.014669
Si Si5 0.385228 0.946609 0.816936
Si Si6 0.719252 0.161172 0.335094
O O1 0.873086 0.895613 0.103104
O O2 0.871305 0.736190 0.154540
O O3 0.000000 0.838190 0.250000
O O4 0.048217 0.792541 0.042810
O O5 0.818621 0.345325 0.326596
O O6 0.808717 0.492730 0.406203
O O7 0.749088 0.359329 0.544975
O O8 0.181311 0.803354 0.755695
O O9 0.000000 0.726159 0.750000
O O10 0.116891 0.674635 0.894736
O O11 0.102902 0.642657 0.114926
O O12 0.250000 0.750000 0.000000
O O13 0.500000 0.980487 0.750000
O O14 0.324701 0.923261 0.715905
#
# Coordination Sequence:
#
# PCOD9301420 Si02
#       6
#     8   8   8   8   8   8
#     4  11  20  44  69  95 129 185 228 273 329 413
#     4  11  26  40  66  99 140 174 220 286 352 389
#     4  11  22  38  65  98 126 175 229 274 334 408
#     4  12  21  40  69  97 128 175 234 272 327 412
#     4  12  25  43  67 102 135 180 221 290 342 395
#     4  11  21  44  65  92 136 175 230 277 335 402
#
# _framework density 20.679226
#
# number of rings (size 3 to 8) (size 9 to 14) (size 15 to 20)
#    0.000    0.667    5.000    5.500    2.333    0.667 
#    0.000    1.667    0.000    0.000    0.000    0.000 
#    0.000    0.000    0.000    0.000    0.000    0.000 
#
# Total GULP energy -134020.331333 kJ/mol
# GULP energy per Si atom -5584.180472 kJ/mol
# Density = 2.063216 g / cm^3
# Si number density = 20.679226 Si / 1000 Ang^3
#
#
#
# Elastic Constant Matrix: (Units=GPa)
#
#
# Indices 1 2 3 4 5 6 
#
# 1 150.3071 12.4984 27.5640 0.0000 -0.5899 0.0000
# 2 12.4984 23.6913 -2.8191 0.0000 -0.9720 0.0000
# 3 27.5640 -2.8191 115.8607 0.0000 21.2188 0.0000
# 4 0.0000 0.0000 0.0000 21.9153 0.0000 -5.3326
# 5 -0.5899 -0.9720 21.2188 0.0000 43.2829 0.0000
# 6 0.0000 0.0000 0.0000 -5.3326 0.0000 33.9017
#
#
#
# Elastic Compliance Matrix: (Units=1/GPa)
#
#
# Indices 1 2 3 4 5 6 
#
# 1 0.007371 -0.004090 -0.002038 0.000000 0.001008 0.000000
# 2 -0.004090 0.044611 0.002071 0.000000 -0.000069 0.000000
# 3 -0.002038 0.002071 0.010067 0.000000 -0.004916 0.000000
# 4 0.000000 0.000000 0.000000 0.047446 0.000000 0.007463
# 5 0.001008 -0.000069 -0.004916 0.000000 0.025526 0.000000
# 6 0.000000 0.000000 0.000000 0.007463 0.000000 0.030671
#
#
# Mechanical properties :
#
#
# Convention : Reuss Voigt Hill
#
# Bulk Modulus (GPa) = 18.54055 40.48284 29.51170
# Shear Modulus (GPa) = 26.07130 36.66105 31.36617
#
# Velocity S-wave (km/s) = 3.55455 4.21508 3.89883
# Velocity P-wave (km/s) = 5.08249 6.58091 5.87963
#
# Compressibility (1/GPa) = 0.05393583
#
# Stress axis : x y z
#
# Youngs Moduli (GPa) = 135.67205 22.41618 99.33881
#
# Poissons Ratio (x) = 0.09167 0.20241
# Poissons Ratio (y) = 0.55484 -0.20574
# Poissons Ratio (z) = 0.27644 -0.04643
#
# Static dielectric constant tensor:
#      x y z
#    x 2.407120 0.000000 0.318370 
#    y 0.000000 1.837190 0.000000 
#    z 0.318370 0.000000 1.886410 
# 
# From -- ./inp_files/87265.got.cif
#   From: 2010.05.17/outbox.cif.g08.bks.cpg/sg15_44_cif.got.tgz:87265.got - 2010.06.03 18:47:42.
