data_PCOD9301577
_publ_section_title
;
Structure prediction by ZEFSAII (Michael W. Deem and Ramdas Pophale) SiO2 
 PCOD9301577
Probable space group: C 2/C
;
_chemical_formula_sum "Si O2"
_cell_formula_units_Z 48
_cell_length_a 23.575720
_cell_length_b 11.244073
_cell_length_c 26.811717
_cell_angle_alpha 90.000000
_cell_angle_beta 161.543313
_cell_angle_gamma 90.000000
_cell_volume 2250.128153
_symmetry_space_group_name_H-M "C 2/C"
_symmetry_group_IT_number 15
_symmetry_cell_setting 'monoclinic'
loop_
_space_group_symop_operation_xyz
x,y,z
-x,y,1/2-z
-x,-y,-z
x,-y,1/2+z
1/2+x,1/2+y,z
1/2-x,1/2+y,1/2-z
1/2-x,1/2-y,-z
1/2+x,1/2-y,1/2+z
loop_
_atom_site_type_symbol
_atom_site_label
_atom_site_fract_x
_atom_site_fract_y
_atom_site_fract_z
Si Si1 0.314642 0.283738 0.608842
Si Si2 0.817674 0.525300 0.653221
Si Si3 0.153547 0.128553 0.931042
Si Si4 0.963161 0.915987 0.016716
Si Si5 0.792918 0.180940 0.696755
Si Si6 0.341013 0.982533 0.497149
O O1 0.500000 0.344709 0.750000
O O2 0.250000 0.250000 0.500000
O O3 0.350022 0.162118 0.667393
O O4 0.195602 0.377041 0.539313
O O5 0.779966 0.451085 0.572078
O O6 0.631014 0.509717 0.525233
O O7 0.974955 0.474205 0.818744
O O8 0.183867 0.065426 0.902579
O O9 0.250000 0.250000 0.000000
O O10 0.976040 0.168977 0.814928
O O11 0.136393 0.863028 0.190278
O O12 0.819323 0.804958 0.892290
O O13 0.000000 0.000000 0.000000
O O14 0.665276 0.090534 0.559240
#
# Coordination Sequence:
#
# PCOD9301577 Si02
#       6
#     8   8   8   8   8   8
#     4  12  22  38  60  97 149 190 226 262 329 417
#     4  11  23  41  63  95 138 187 228 279 333 408
#     4  11  21  36  64 101 140 175 214 261 342 418
#     4  11  26  52  74  96 132 172 238 299 348 394
#     4  11  25  44  71 101 133 172 227 285 344 411
#     4  12  23  39  67 102 144 183 216 270 345 419
#
# _framework density 21.332117
#
# number of rings (size 3 to 8) (size 9 to 14) (size 15 to 20)
#    0.000    0.667    3.333    6.000    2.333    2.667 
#    6.000    1.667    0.000    0.000    0.000    0.000 
#    0.000    0.000    0.000    0.000    0.000    0.000 
#
# Total GULP energy -133702.182654 kJ/mol
# GULP energy per Si atom -5570.924277 kJ/mol
# Density = 2.128356 g / cm^3
# Si number density = 21.332117 Si / 1000 Ang^3
#
#
#
# Elastic Constant Matrix: (Units=GPa)
#
#
# Indices 1 2 3 4 5 6 
#
# 1 80.5928 50.4890 29.3528 -0.0015 -26.4410 -0.0016
# 2 50.4890 161.7812 40.9987 -0.0117 -13.3403 0.0042
# 3 29.3528 40.9987 70.6250 -0.0120 -21.7981 0.0041
# 4 -0.0015 -0.0117 -0.0120 30.4727 0.0000 4.4842
# 5 -26.4410 -13.3403 -21.7981 0.0000 23.9523 -0.0004
# 6 -0.0016 0.0042 0.0041 4.4842 -0.0004 37.7190
#
#
#
# Elastic Compliance Matrix: (Units=1/GPa)
#
#
# Indices 1 2 3 4 5 6 
#
# 1 0.023215 -0.005512 0.000714 -0.000001 0.023207 0.000002
# 2 -0.005512 0.008558 -0.004288 0.000001 -0.005222 -0.000001
# 3 0.000714 -0.004288 0.022052 0.000007 0.018469 -0.000003
# 4 -0.000001 0.000001 0.000007 0.033401 0.000006 -0.003971
# 5 0.023207 -0.005222 0.018469 0.000006 0.081268 0.000000
# 6 0.000002 -0.000001 -0.000003 -0.003971 0.000000 0.026984
#
#
# Mechanical properties :
#
#
# Convention : Reuss Voigt Hill
#
# Bulk Modulus (GPa) = 28.04903 61.63110 44.84007
# Shear Modulus (GPa) = 22.16956 31.23937 26.70446
#
# Velocity S-wave (km/s) = 3.22725 3.83094 3.54198
# Velocity P-wave (km/s) = 5.20232 6.96578 6.14761
#
# Compressibility (1/GPa) = 0.03565185
#
# Stress axis : x y z
#
# Youngs Moduli (GPa) = 43.07543 116.85360 45.34664
#
# Poissons Ratio (x) = 0.64414 -0.03239
# Poissons Ratio (y) = 0.23745 0.19447
# Poissons Ratio (z) = -0.03077 0.50113
#
# Static dielectric constant tensor:
#      x y z
#    x 1.799820 -0.000010 -0.036340 
#    y -0.000010 1.772450 0.000000 
#    z -0.036340 0.000000 1.878080 
# 
# From -- ./inp_files/302223.got.cif
#   From: 2010.05.17/outbox.cif.g08.bks.cpg/sg15_152_cif.got.tgz:302223.got - 2010.06.03 18:47:42.
