data_PCOD9301525
_publ_section_title
;
Structure prediction by ZEFSAII (Michael W. Deem and Ramdas Pophale) SiO2 
 PCOD9301525
Probable space group: C 2/C
;
_chemical_formula_sum "Si O2"
_cell_formula_units_Z 56
_cell_length_a 19.063038
_cell_length_b 23.127480
_cell_length_c 16.116039
_cell_angle_alpha 90.000000
_cell_angle_beta 159.547419
_cell_angle_gamma 90.000000
_cell_volume 2482.798530
_symmetry_space_group_name_H-M "C 2/C"
_symmetry_group_IT_number 15
_symmetry_cell_setting 'monoclinic'
loop_
_space_group_symop_operation_xyz
x,y,z
-x,y,1/2-z
-x,-y,-z
x,-y,1/2+z
1/2+x,1/2+y,z
1/2-x,1/2+y,1/2-z
1/2-x,1/2-y,-z
1/2+x,1/2-y,1/2+z
loop_
_atom_site_type_symbol
_atom_site_label
_atom_site_fract_x
_atom_site_fract_y
_atom_site_fract_z
Si Si1 0.364771 0.792787 0.523384
Si Si2 0.086011 0.627540 0.931697
Si Si3 0.559017 0.660988 0.901610
Si Si4 0.196887 0.514382 0.870412
Si Si5 0.454748 0.155184 0.432800
Si Si6 0.617403 0.959721 0.065145
Si Si7 0.601933 0.468619 0.732267
O O1 0.500000 0.816152 0.750000
O O2 0.351515 0.724104 0.525143
O O3 0.652259 0.674819 0.789292
O O4 0.460679 0.798373 0.538230
O O5 0.000000 0.653690 0.750000
O O6 0.943134 0.571254 0.783729
O O7 0.306633 0.596597 0.175138
O O8 0.065602 0.666083 0.991688
O O9 0.500000 0.629503 0.750000
O O10 0.733276 0.636235 0.153351
O O11 0.048188 0.461194 0.692154
O O12 0.300034 0.510487 0.073095
O O13 0.367222 0.524442 0.989724
O O14 0.614434 0.103700 0.597368
O O15 0.500000 0.000000 0.000000
O O16 0.812170 0.989914 0.243931
#
# Coordination Sequence:
#
# PCOD9301525 Si02
#       7
#     8   8   8   8   8   8   8
#     4  11  21  40  67  89 123 155 190 248 301 370
#     4   9  19  38  58  83 117 154 205 250 282 346
#     4  11  21  42  64  90 122 155 193 244 305 367
#     4   9  18  35  56  74 107 160 203 240 292 337
#     4  12  23  36  62  91 115 162 200 236 310 356
#     4  11  21  36  49  79 123 150 193 248 290 348
#     4   9  18  35  57  73 108 162 202 243 289 340
#
# _framework density 22.555192000000002
#
# number of rings (size 3 to 8) (size 9 to 14) (size 15 to 20)
#    0.000    1.714    5.714    2.143    0.000    4.000 
#    2.571    0.000    0.000    0.857    0.000    0.000 
#    0.000    0.000    0.000    0.000    0.000    0.000 
#
# Total GULP energy -156159.419417 kJ/mol
# GULP energy per Si atom -5577.122122 kJ/mol
# Density = 2.250386 g / cm^3
# Si number density = 22.555192 Si / 1000 Ang^3
#
#
#
# Elastic Constant Matrix: (Units=GPa)
#
#
# Indices 1 2 3 4 5 6 
#
# 1 153.9923 5.3719 42.0797 0.0000 -2.1798 0.0000
# 2 5.3719 18.1650 -6.2537 0.0000 -4.3231 0.0000
# 3 42.0797 -6.2537 108.2462 -0.0001 12.5910 0.0000
# 4 0.0000 0.0000 -0.0001 16.7314 0.0000 0.2366
# 5 -2.1798 -4.3231 12.5910 0.0000 49.8228 0.0000
# 6 0.0000 0.0000 0.0000 0.2366 0.0000 28.4450
#
#
#
# Elastic Compliance Matrix: (Units=1/GPa)
#
#
# Indices 1 2 3 4 5 6 
#
# 1 0.007486 -0.003107 -0.003190 0.000000 0.000864 0.000000
# 2 -0.003107 0.058314 0.004125 0.000000 0.003882 0.000000
# 3 -0.003190 0.004125 0.011015 0.000000 -0.002565 0.000000
# 4 0.000000 0.000000 0.000000 0.059775 0.000000 -0.000497
# 5 0.000864 0.003882 -0.002565 0.000000 0.021094 0.000000
# 6 0.000000 0.000000 0.000000 -0.000497 0.000000 0.035160
#
#
# Mechanical properties :
#
#
# Convention : Reuss Voigt Hill
#
# Bulk Modulus (GPa) = 13.79849 40.31104 27.05477
# Shear Modulus (GPa) = 22.58929 34.94689 28.76809
#
# Velocity S-wave (km/s) = 3.16810 3.94050 3.57522
# Velocity P-wave (km/s) = 4.41740 6.21405 5.39110
#
# Compressibility (1/GPa) = 0.07247167
#
# Stress axis : x y z
#
# Youngs Moduli (GPa) = 133.57961 17.14865 90.78483
#
# Poissons Ratio (x) = 0.05327 0.28962
# Poissons Ratio (y) = 0.41497 -0.37450
# Poissons Ratio (z) = 0.42614 -0.07074
#
# Static dielectric constant tensor:
#      x y z
#    x 1.956560 0.000000 -0.052610 
#    y 0.000000 1.830480 0.000000 
#    z -0.052610 0.000000 1.967790 
# 
# From -- ./inp_files/217159.got.cif
#   From: 2010.05.17/outbox.cif.g08.bks.cpg/sg15_109_cif.got.tgz:217159.got - 2010.06.03 18:47:42.
