data_PCOD9301212
_publ_section_title
;
Structure prediction by ZEFSAII (Michael W. Deem and Ramdas Pophale) SiO2 
 PCOD9301212
Probable space group: C 2/C
;
_chemical_formula_sum "Si O2"
_cell_formula_units_Z 56
_cell_length_a 17.937175
_cell_length_b 16.085206
_cell_length_c 9.964975
_cell_angle_alpha 90.000000
_cell_angle_beta 77.316839
_cell_angle_gamma 90.000000
_cell_volume 2804.970403
_symmetry_space_group_name_H-M "C 2/C"
_symmetry_group_IT_number 15
_symmetry_cell_setting 'monoclinic'
loop_
_space_group_symop_operation_xyz
x,y,z
-x,y,1/2-z
-x,-y,-z
x,-y,1/2+z
1/2+x,1/2+y,z
1/2-x,1/2+y,1/2-z
1/2-x,1/2-y,-z
1/2+x,1/2-y,1/2+z
loop_
_atom_site_type_symbol
_atom_site_label
_atom_site_fract_x
_atom_site_fract_y
_atom_site_fract_z
Si Si1 0.796000 0.823639 0.270081
Si Si2 0.534983 0.269968 0.370223
Si Si3 0.781752 0.422945 0.420068
Si Si4 0.960913 0.057348 0.907195
Si Si5 0.204892 0.913459 0.968313
Si Si6 0.804189 0.173701 0.306669
Si Si7 0.924491 0.694815 0.867300
O O1 0.885200 0.812114 0.205063
O O2 0.762429 0.900698 0.199803
O O3 0.780857 0.839366 0.432426
O O4 0.753530 0.744358 0.224967
O O5 0.500000 0.229253 0.250000
O O6 0.478715 0.345740 0.431805
O O7 0.551168 0.211841 0.489256
O O8 0.773964 0.521295 0.441253
O O9 0.736383 0.375644 0.557071
O O10 0.865224 0.381710 0.381753
O O11 0.000000 0.040154 0.750000
O O12 0.870756 0.042366 0.942924
O O13 0.000000 0.000000 0.000000
O O14 0.183580 0.883701 0.827739
O O15 0.877669 0.223763 0.332907
O O16 0.000000 0.682508 0.750000
#
# Coordination Sequence:
#
# PCOD9301212 Si02
#       7
#     8   8   8   8   8   8   8
#     4  11  20  42  62  91 128 167 219 260 318 384
#     4  11  20  39  62  92 133 162 205 268 318 385
#     4  11  23  42  65  91 134 173 213 272 320 386
#     4  11  24  35  53  87 131 165 193 249 318 387
#     4  12  24  38  63  94 131 170 213 265 326 384
#     4  11  23  41  68  93 124 174 218 267 317 390
#     4  11  23  42  69  96 124 171 226 265 322 384
#
# _framework density 19.964559999999999
#
# number of rings (size 3 to 8) (size 9 to 14) (size 15 to 20)
#    0.000    0.857    5.714    3.857    2.000    0.571 
#    0.000    0.000    0.000    8.571    0.000    0.000 
#    0.000    0.000    0.000    0.000    0.000    0.000 
#
# Total GULP energy -156507.360657 kJ/mol
# GULP energy per Si atom -5589.548595 kJ/mol
# Density = 1.991912 g / cm^3
# Si number density = 19.964560 Si / 1000 Ang^3
#
#
#
# Elastic Constant Matrix: (Units=GPa)
#
#
# Indices 1 2 3 4 5 6 
#
# 1 107.2085 21.8192 49.9899 0.0000 4.5009 0.0000
# 2 21.8192 45.8823 20.7208 0.0000 -1.3037 0.0000
# 3 49.9899 20.7208 108.2570 0.0000 7.2974 0.0000
# 4 0.0000 0.0000 0.0000 17.9135 0.0000 3.3724
# 5 4.5009 -1.3037 7.2974 0.0000 39.5472 0.0000
# 6 0.0000 0.0000 0.0000 3.3724 0.0000 17.4428
#
#
#
# Elastic Compliance Matrix: (Units=1/GPa)
#
#
# Indices 1 2 3 4 5 6 
#
# 1 0.012430 -0.003673 -0.004996 0.000000 -0.000614 0.000000
# 2 -0.003673 0.025049 -0.003222 0.000000 0.001838 0.000000
# 3 -0.004996 -0.003222 0.012283 0.000000 -0.001804 0.000000
# 4 0.000000 0.000000 0.000000 0.057933 0.000000 -0.011201
# 5 -0.000614 0.001838 -0.001804 0.000000 0.025750 0.000000
# 6 0.000000 0.000000 0.000000 -0.011201 0.000000 0.059496
#
#
# Mechanical properties :
#
#
# Convention : Reuss Voigt Hill
#
# Bulk Modulus (GPa) = 38.49064 49.60085 44.04575
# Shear Modulus (GPa) = 22.18467 26.23522 24.20995
#
# Velocity S-wave (km/s) = 3.33709 3.62897 3.48608
# Velocity P-wave (km/s) = 5.84547 6.51595 6.18980
#
# Compressibility (1/GPa) = 0.02598034
#
# Stress axis : x y z
#
# Youngs Moduli (GPa) = 80.44916 39.92195 81.41658
#
# Poissons Ratio (x) = 0.14662 0.40672
# Poissons Ratio (y) = 0.29545 0.26236
# Poissons Ratio (z) = 0.40189 0.12865
#
# Static dielectric constant tensor:
#      x y z
#    x 1.685960 0.000000 0.011470 
#    y 0.000000 1.728660 0.000000 
#    z 0.011470 0.000000 1.714600 
# 
# From -- ./inp_files/49031.got.cif
#   From: 2010.05.17/outbox.cif.g08.bks.cpg/sg15_25_cif.got.tgz:49031.got - 2010.06.03 18:47:42.
