data_PCOD9301201
_publ_section_title
;
Structure prediction by ZEFSAII (Michael W. Deem and Ramdas Pophale) SiO2 
 PCOD9301201
Probable space group: C 2/C
;
_chemical_formula_sum "Si O2"
_cell_formula_units_Z 64
_cell_length_a 19.007801
_cell_length_b 20.363817
_cell_length_c 11.365001
_cell_angle_alpha 90.000000
_cell_angle_beta 47.666155
_cell_angle_gamma 90.000000
_cell_volume 3251.937041
_symmetry_space_group_name_H-M "C 2/C"
_symmetry_group_IT_number 15
_symmetry_cell_setting 'monoclinic'
loop_
_space_group_symop_operation_xyz
x,y,z
-x,y,1/2-z
-x,-y,-z
x,-y,1/2+z
1/2+x,1/2+y,z
1/2-x,1/2+y,1/2-z
1/2-x,1/2-y,-z
1/2+x,1/2-y,1/2+z
loop_
_atom_site_type_symbol
_atom_site_label
_atom_site_fract_x
_atom_site_fract_y
_atom_site_fract_z
Si Si1 0.206064 0.070783 0.783661
Si Si2 0.971807 0.884799 0.145731
Si Si3 0.837536 0.076050 0.180492
Si Si4 0.886894 0.127878 0.375146
Si Si5 0.349101 0.824115 0.164373
Si Si6 0.887025 0.284852 0.376841
Si Si7 0.032347 0.267424 0.848341
Si Si8 0.219356 0.300454 0.757318
O O1 0.132329 0.087082 0.762150
O O2 0.304782 0.109477 0.663585
O O3 0.211856 0.992971 0.787347
O O4 0.156575 0.101613 0.955182
O O5 0.972930 0.808540 0.103572
O O6 0.000000 0.886610 0.250000
O O7 0.053026 0.924083 0.985085
O O8 0.840816 0.093114 0.314703
O O9 0.784720 0.135656 0.174175
O O10 0.874256 0.206334 0.376219
O O11 0.000000 0.115213 0.250000
O O12 0.343986 0.820601 0.311699
O O13 0.285993 0.763591 0.187063
O O14 0.456909 0.809623 0.006409
O O15 0.837425 0.303694 0.554675
O O16 0.000000 0.297429 0.250000
O O17 0.139109 0.291995 0.748908
O O18 0.000000 0.269056 0.750000
#
# Coordination Sequence:
#
# PCOD9301201 Si02
#       8
#     8   8   8   8   8   8   8   8
#     4  12  26  40  61  93 130 169 204 254 315 378
#     4  11  23  40  62  93 127 161 204 255 314 374
#     4  12  26  40  61  93 130 169 204 254 315 378
#     4  11  21  37  65  97 129 160 199 257 329 376
#     4  12  22  41  66  94 125 161 208 262 312 366
#     4  11  20  38  72 100 124 150 200 277 327 355
#     4  11  24  42  65  91 123 165 210 255 300 363
#     4  12  22  41  66  94 125 161 208 262 312 366
#
# _framework density 19.680578000000001
#
# number of rings (size 3 to 8) (size 9 to 14) (size 15 to 20)
#    0.000    0.500    7.500    1.500    1.750    1.500 
#    0.000    0.625    0.000    0.000    0.000    0.000 
#    0.000    0.000    0.000    0.000    0.000    0.000 
#
# Total GULP energy -179099.967246 kJ/mol
# GULP energy per Si atom -5596.873976 kJ/mol
# Density = 1.963578 g / cm^3
# Si number density = 19.680578 Si / 1000 Ang^3
#
#
#
# Elastic Constant Matrix: (Units=GPa)
#
#
# Indices 1 2 3 4 5 6 
#
# 1 108.3708 29.3385 -8.9759 0.0000 -6.2392 0.0000
# 2 29.3385 95.0306 -14.2565 0.0000 -6.4574 0.0000
# 3 -8.9759 -14.2565 15.1389 0.0000 -2.7134 0.0000
# 4 0.0000 0.0000 0.0000 3.1604 0.0000 -8.0755
# 5 -6.2392 -6.4574 -2.7134 0.0000 29.8982 0.0000
# 6 0.0000 0.0000 0.0000 -8.0755 0.0000 27.5308
#
#
#
# Elastic Compliance Matrix: (Units=1/GPa)
#
#
# Indices 1 2 3 4 5 6 
#
# 1 0.010350 -0.002426 0.004213 0.000000 0.002018 0.000000
# 2 -0.002426 0.013252 0.011653 0.000000 0.003413 0.000000
# 3 0.004213 0.011653 0.081461 0.000000 0.010789 0.000000
# 4 0.000000 0.000000 0.000000 1.263232 0.000000 0.370540
# 5 0.002018 0.003413 0.010789 0.000000 0.035584 0.000000
# 6 0.000000 0.000000 0.000000 0.370540 0.000000 0.145012
#
#
# Mechanical properties :
#
#
# Convention : Reuss Voigt Hill
#
# Bulk Modulus (GPa) = 7.57900 25.63918 16.60909
# Shear Modulus (GPa) = 3.19287 26.28015 14.73651
#
# Velocity S-wave (km/s) = 1.27509 3.65819 2.73936
# Velocity P-wave (km/s) = 2.45503 5.55869 4.29687
#
# Compressibility (1/GPa) = 0.13194359
#
# Stress axis : x y z
#
# Youngs Moduli (GPa) = 96.62289 75.46021 12.27583
#
# Poissons Ratio (x) = 0.18306 -0.05172
# Poissons Ratio (y) = 0.23440 -0.14305
# Poissons Ratio (z) = -0.40712 -0.87934
#
# Static dielectric constant tensor:
#      x y z
#    x 1.706150 0.000000 0.002060 
#    y 0.000000 1.666800 0.000000 
#    z 0.002060 0.000000 1.704610 
# 
# From -- ./inp_files/107505.got.cif
#   From: 2010.05.17/outbox.cif.g08.bks.cpg/sg15_54_cif.got.tgz:107505.got - 2010.06.03 18:47:42.
