data_PCOD9301148
_publ_section_title
;
Structure prediction by ZEFSAII (Michael W. Deem and Ramdas Pophale) SiO2 
 PCOD9301148
Probable space group: C 2/C
;
_chemical_formula_sum "Si O2"
_cell_formula_units_Z 40
_cell_length_a 17.289802
_cell_length_b 12.238159
_cell_length_c 8.796177
_cell_angle_alpha 90.000000
_cell_angle_beta 91.565295
_cell_angle_gamma 90.000000
_cell_volume 1860.535587
_symmetry_space_group_name_H-M "C 2/C"
_symmetry_group_IT_number 15
_symmetry_cell_setting 'monoclinic'
loop_
_space_group_symop_operation_xyz
x,y,z
-x,y,1/2-z
-x,-y,-z
x,-y,1/2+z
1/2+x,1/2+y,z
1/2-x,1/2+y,1/2-z
1/2-x,1/2-y,-z
1/2+x,1/2-y,1/2+z
loop_
_atom_site_type_symbol
_atom_site_label
_atom_site_fract_x
_atom_site_fract_y
_atom_site_fract_z
Si Si1 0.827404 0.600976 0.190044
Si Si2 0.191187 0.200709 0.625439
Si Si3 0.587401 0.482241 0.955358
Si Si4 0.855387 0.867814 0.823111
Si Si5 0.166972 0.625530 0.671804
O O1 0.855356 0.702207 0.293941
O O2 0.734603 0.608472 0.214073
O O3 0.859913 0.485826 0.250356
O O4 0.835310 0.612315 0.009794
O O5 0.250000 0.250000 0.500000
O O6 0.134828 0.113194 0.545579
O O7 0.247572 0.145448 0.752894
O O8 0.595640 0.445615 0.782972
O O9 0.500000 0.500000 0.000000
O O10 0.628948 0.594830 0.004566
O O11 0.873921 0.741178 0.796259
#
# Coordination Sequence:
#
# PCOD9301148 Si02
#       5
#     8   8   8   8   8
#     4  11  21  36  64  94 130 167 217 283 339 385
#     4  11  20  38  62  91 132 170 217 279 332 394
#     4  12  25  40  61  91 130 177 214 266 337 405
#     4  11  23  39  58  91 133 167 221 267 333 397
#     4  11  22  36  63  95 128 168 219 283 333 391
#
# _framework density 21.499186000000002
#
# number of rings (size 3 to 8) (size 9 to 14) (size 15 to 20)
#    0.000    0.800    6.000    5.400    2.800    0.000 
#    0.000    0.000    0.000    1.200    0.000    0.000 
#    0.000    0.000    0.000    0.000    0.000    0.000 
#
# Total GULP energy -111702.649159 kJ/mol
# GULP energy per Si atom -5585.132458 kJ/mol
# Density = 2.145025 g / cm^3
# Si number density = 21.499186 Si / 1000 Ang^3
#
#
#
# Elastic Constant Matrix: (Units=GPa)
#
#
# Indices 1 2 3 4 5 6 
#
# 1 42.7673 -4.4169 11.3269 0.0000 -1.4976 0.0000
# 2 -4.4169 117.1038 38.6265 0.0000 15.7401 0.0000
# 3 11.3269 38.6265 133.9167 0.0000 -1.6377 0.0000
# 4 0.0000 0.0000 0.0000 45.4514 0.0000 -5.6108
# 5 -1.4976 15.7401 -1.6377 0.0000 23.7821 0.0000
# 6 0.0000 0.0000 0.0000 -5.6108 0.0000 9.3373
#
#
#
# Elastic Compliance Matrix: (Units=1/GPa)
#
#
# Indices 1 2 3 4 5 6 
#
# 1 0.024242 0.001726 -0.002546 0.000000 0.000209 0.000000
# 2 0.001726 0.010660 -0.003309 0.000000 -0.007175 0.000000
# 3 -0.002546 -0.003309 0.008669 0.000000 0.002626 0.000000
# 4 0.000000 0.000000 0.000000 0.023764 0.000000 0.014280
# 5 0.000209 -0.007175 0.002626 0.000000 0.046991 0.000000
# 6 0.000000 0.000000 0.000000 0.014280 0.000000 0.115678
#
#
# Mechanical properties :
#
#
# Convention : Reuss Voigt Hill
#
# Bulk Modulus (GPa) = 28.31669 42.76233 35.53951
# Shear Modulus (GPa) = 19.99735 32.26425 26.13080
#
# Velocity S-wave (km/s) = 3.05314 3.87811 3.49009
# Velocity P-wave (km/s) = 5.06246 6.32348 5.72778
#
# Compressibility (1/GPa) = 0.03531486
#
# Stress axis : x y z
#
# Youngs Moduli (GPa) = 41.25047 93.80701 115.35275
#
# Poissons Ratio (x) = -0.16191 0.29366
# Poissons Ratio (y) = -0.07120 0.38165
# Poissons Ratio (z) = 0.10501 0.31036
#
# Static dielectric constant tensor:
#      x y z
#    x 1.780670 0.000000 -0.012260 
#    y 0.000000 1.842510 0.000000 
#    z -0.012260 0.000000 1.835390 
# 
# From -- ./inp_files/46171.got.cif
#   From: 2010.05.17/outbox.cif.g08.bks.cpg/sg15_24_cif.got.tgz:46171.got - 2010.06.03 18:47:42.
