data_PCOD9301357
_publ_section_title
;
Structure prediction by ZEFSAII (Michael W. Deem and Ramdas Pophale) SiO2 
 PCOD9301357
Probable space group: C 2/C
;
_chemical_formula_sum "Si O2"
_cell_formula_units_Z 64
_cell_length_a 27.176095
_cell_length_b 14.667927
_cell_length_c 9.178713
_cell_angle_alpha 90.000000
_cell_angle_beta 50.627495
_cell_angle_gamma 90.000000
_cell_volume 2828.384634
_symmetry_space_group_name_H-M "C 2/C"
_symmetry_group_IT_number 15
_symmetry_cell_setting 'monoclinic'
loop_
_space_group_symop_operation_xyz
x,y,z
-x,y,1/2-z
-x,-y,-z
x,-y,1/2+z
1/2+x,1/2+y,z
1/2-x,1/2+y,1/2-z
1/2-x,1/2-y,-z
1/2+x,1/2-y,1/2+z
loop_
_atom_site_type_symbol
_atom_site_label
_atom_site_fract_x
_atom_site_fract_y
_atom_site_fract_z
Si Si1 0.146302 0.322594 0.115996
Si Si2 0.075464 0.052095 0.625936
Si Si3 0.116524 0.436241 0.920296
Si Si4 0.127563 0.756552 0.956102
Si Si5 0.566414 0.094971 0.206640
Si Si6 0.648275 0.572609 0.779202
Si Si7 0.768023 0.189570 0.715040
Si Si8 0.733108 0.976139 0.087350
O O1 0.114319 0.293236 0.326292
O O2 0.190337 0.409887 0.068455
O O3 0.105530 0.354492 0.054210
O O4 0.191306 0.240380 0.983656
O O5 0.102846 0.141346 0.492917
O O6 0.094921 0.071283 0.755419
O O7 0.000000 0.042368 0.750000
O O8 0.114102 0.966936 0.486841
O O9 0.070769 0.434187 0.866478
O O10 0.188259 0.439985 0.720612
O O11 0.109601 0.527962 0.027686
O O12 0.202514 0.745138 0.852056
O O13 0.090815 0.697824 0.145420
O O14 0.500000 0.087477 0.250000
O O15 0.684252 0.668202 0.742239
O O16 0.704082 0.508128 0.611548
O O17 0.749790 0.088866 0.691784
#
# Coordination Sequence:
#
# PCOD9301357 Si02
#       8
#     8   8   8   8   8   8   8   8
#     4  11  23  40  68  98 139 173 212 277 357 413
#     4  12  28  49  72  97 142 192 234 281 335 420
#     4  12  23  41  66  99 138 176 226 284 339 412
#     4  11  24  46  67 101 136 177 221 286 350 404
#     4  12  24  43  66  92 135 184 232 268 330 401
#     4  12  25  44  73 103 133 178 234 286 345 413
#     4  11  22  39  69 104 132 169 219 286 352 406
#     4  11  20  42  67 102 135 176 215 289 361 409
#
# _framework density 22.627758
#
# number of rings (size 3 to 8) (size 9 to 14) (size 15 to 20)
#    0.000    0.500    5.000    5.625    3.500    0.500 
#    0.000    0.000    0.000    0.000    0.000    0.000 
#    0.000    0.000    0.000    0.000    0.000    0.000 
#
# Total GULP energy -178931.891004 kJ/mol
# GULP energy per Si atom -5591.621594 kJ/mol
# Density = 2.257626 g / cm^3
# Si number density = 22.627758 Si / 1000 Ang^3
#
#
#
# Elastic Constant Matrix: (Units=GPa)
#
#
# Indices 1 2 3 4 5 6 
#
# 1 118.6209 1.1074 36.7445 0.0000 18.3013 0.0000
# 2 1.1074 35.8276 14.8567 0.0000 -1.8011 0.0000
# 3 36.7445 14.8567 41.0246 0.0000 2.0399 0.0000
# 4 0.0000 0.0000 0.0000 25.9876 0.0000 4.7512
# 5 18.3013 -1.8011 2.0399 0.0000 44.6737 0.0000
# 6 0.0000 0.0000 0.0000 4.7512 0.0000 16.4178
#
#
#
# Elastic Compliance Matrix: (Units=1/GPa)
#
#
# Indices 1 2 3 4 5 6 
#
# 1 0.013256 0.004926 -0.013427 0.000000 -0.004619 0.000000
# 2 0.004926 0.034831 -0.017034 0.000000 0.000164 0.000000
# 3 -0.013427 -0.017034 0.042428 0.000000 0.002877 0.000000
# 4 0.000000 0.000000 0.000000 0.040630 0.000000 -0.011758
# 5 -0.004619 0.000164 0.002877 0.000000 0.024152 0.000000
# 6 0.000000 0.000000 0.000000 -0.011758 0.000000 0.064312
#
#
# Mechanical properties :
#
#
# Convention : Reuss Voigt Hill
#
# Bulk Modulus (GPa) = 25.35228 33.43227 29.39227
# Shear Modulus (GPa) = 17.61633 26.93345 22.27489
#
# Velocity S-wave (km/s) = 2.79324 3.45379 3.14093
# Velocity P-wave (km/s) = 4.65094 5.54183 5.11582
#
# Compressibility (1/GPa) = 0.03944418
#
# Stress axis : x y z
#
# Youngs Moduli (GPa) = 75.43649 28.71011 23.56939
#
# Poissons Ratio (x) = -0.14143 0.31648
# Poissons Ratio (y) = -0.37160 0.40148
# Poissons Ratio (z) = 1.01292 0.48905
#
# Static dielectric constant tensor:
#      x y z
#    x 1.911980 0.000000 0.041890 
#    y 0.000000 1.851240 0.000000 
#    z 0.041890 0.000000 1.833130 
# 
# From -- ./inp_files/70121.got.cif
#   From: 2010.05.17/outbox.cif.g08.bks.cpg/sg15_36_cif.got.tgz:70121.got - 2010.06.03 18:47:42.
