data_PCOD9301263
_publ_section_title
;
Structure prediction by ZEFSAII (Michael W. Deem and Ramdas Pophale) SiO2 
 PCOD9301263
Probable space group: C 2/C
;
_chemical_formula_sum "Si O2"
_cell_formula_units_Z 56
_cell_length_a 11.584385
_cell_length_b 11.492032
_cell_length_c 21.165151
_cell_angle_alpha 90.000000
_cell_angle_beta 97.065117
_cell_angle_gamma 90.000000
_cell_volume 2796.282223
_symmetry_space_group_name_H-M "C 2/C"
_symmetry_group_IT_number 15
_symmetry_cell_setting 'monoclinic'
loop_
_space_group_symop_operation_xyz
x,y,z
-x,y,1/2-z
-x,-y,-z
x,-y,1/2+z
1/2+x,1/2+y,z
1/2-x,1/2+y,1/2-z
1/2-x,1/2-y,-z
1/2+x,1/2-y,1/2+z
loop_
_atom_site_type_symbol
_atom_site_label
_atom_site_fract_x
_atom_site_fract_y
_atom_site_fract_z
Si Si1 0.465228 0.423924 0.435309
Si Si2 0.694303 0.126645 0.507975
Si Si3 0.694945 0.086053 0.924629
Si Si4 0.544993 0.579441 0.323731
Si Si5 0.298425 0.011697 0.373467
Si Si6 0.486808 0.153686 0.823687
Si Si7 0.054238 0.674103 0.028644
O O1 0.500000 0.500000 0.500000
O O2 0.328352 0.392744 0.419466
O O3 0.502245 0.490530 0.374731
O O4 0.505049 0.292909 0.451840
O O5 0.750000 0.250000 0.500000
O O6 0.557362 0.120290 0.514535
O O7 0.698963 0.047446 0.446828
O O8 0.752940 0.058145 0.569480
O O9 0.601710 0.102579 0.864149
O O10 0.650832 0.166314 0.980096
O O11 0.500000 0.551844 0.250000
O O12 0.686710 0.573090 0.334137
O O13 0.493974 0.707320 0.337983
O O14 0.388618 0.105138 0.409222
O O15 0.372752 0.917376 0.338712
O O16 0.500000 0.141913 0.750000
#
# Coordination Sequence:
#
# PCOD9301263 Si02
#       7
#     8   8   8   8   8   8   8
#     4  12  24  39  66 101 134 175 225 279 339 403
#     4  11  21  36  63  99 132 165 210 279 337 391
#     4  11  21  38  64  97 131 167 226 272 332 412
#     4  11  27  47  65  98 137 177 226 284 340 400
#     4  11  22  45  68  91 136 172 215 278 334 396
#     4  11  24  44  70  95 126 183 230 269 335 404
#     4  11  20  40  63  99 133 166 218 279 338 397
#
# _framework density 20.026592000000001
#
# number of rings (size 3 to 8) (size 9 to 14) (size 15 to 20)
#    0.000    0.857    2.857    6.429    4.000    0.000 
#    0.000    0.714    0.000    0.000    0.000    0.000 
#    0.000    0.000    0.000    0.000    0.000    0.000 
#
# Total GULP energy -156130.060663 kJ/mol
# GULP energy per Si atom -5576.073595 kJ/mol
# Density = 1.998101 g / cm^3
# Si number density = 20.026592 Si / 1000 Ang^3
#
#
#
# Elastic Constant Matrix: (Units=GPa)
#
#
# Indices 1 2 3 4 5 6 
#
# 1 113.1114 17.4139 31.3103 0.0000 13.9583 0.0000
# 2 17.4139 120.1605 54.7893 0.0000 4.8214 0.0000
# 3 31.3103 54.7893 99.1072 0.0000 19.8232 0.0000
# 4 0.0000 0.0000 0.0000 28.7398 0.0000 -2.6234
# 5 13.9583 4.8214 19.8232 0.0000 26.1944 0.0000
# 6 0.0000 0.0000 0.0000 -2.6234 0.0000 24.0329
#
#
#
# Elastic Compliance Matrix: (Units=1/GPa)
#
#
# Indices 1 2 3 4 5 6 
#
# 1 0.009950 -0.000252 -0.002302 0.000000 -0.003514 0.000000
# 2 -0.000252 0.011347 -0.006838 0.000000 0.003220 0.000000
# 3 -0.002302 -0.006838 0.016615 0.000000 -0.010089 0.000000
# 4 0.000000 0.000000 0.000000 0.035145 0.000000 0.003836
# 5 -0.003514 0.003220 -0.010089 0.000000 0.047091 0.000000
# 6 0.000000 0.000000 0.000000 0.003836 0.000000 0.042028
#
#
# Mechanical properties :
#
#
# Convention : Reuss Voigt Hill
#
# Bulk Modulus (GPa) = 52.27067 59.93401 56.10234
# Shear Modulus (GPa) = 26.69002 31.05113 28.87057
#
# Velocity S-wave (km/s) = 3.65462 3.94190 3.80098
# Velocity P-wave (km/s) = 6.63066 7.12112 6.88026
#
# Compressibility (1/GPa) = 0.01913119
#
# Stress axis : x y z
#
# Youngs Moduli (GPa) = 100.49916 88.12748 60.18588
#
# Poissons Ratio (x) = 0.02217 0.13852
# Poissons Ratio (y) = 0.02528 0.41153
# Poissons Ratio (z) = 0.23130 0.60258
#
# Static dielectric constant tensor:
#      x y z
#    x -0.284030 0.000000 -0.011530 
#    y 0.000000 1.275750 0.000000 
#    z -0.011530 0.000000 1.686210 
# 
# From -- ./inp_files/237029.got.cif
#   From: 2010.05.17/outbox.cif.g08.bks.cpg/sg15_119_cif.got.tgz:237029.got - 2010.06.03 18:47:42.
