data_PCOD9301979
_publ_section_title
;
Structure prediction by ZEFSAII (Michael W. Deem and Ramdas Pophale) SiO2 
 PCOD9301979
Probable space group: C 2/C
;
_chemical_formula_sum "Si O2"
_cell_formula_units_Z 64
_cell_length_a 14.425863
_cell_length_b 8.437708
_cell_length_c 27.681878
_cell_angle_alpha 90.000000
_cell_angle_beta 125.159006
_cell_angle_gamma 90.000000
_cell_volume 2754.735769
_symmetry_space_group_name_H-M "C 2/C"
_symmetry_group_IT_number 15
_symmetry_cell_setting 'monoclinic'
loop_
_space_group_symop_operation_xyz
x,y,z
-x,y,1/2-z
-x,-y,-z
x,-y,1/2+z
1/2+x,1/2+y,z
1/2-x,1/2+y,1/2-z
1/2-x,1/2-y,-z
1/2+x,1/2-y,1/2+z
loop_
_atom_site_type_symbol
_atom_site_label
_atom_site_fract_x
_atom_site_fract_y
_atom_site_fract_z
Si Si1 0.232346 0.760437 0.176685
Si Si2 0.186478 0.667295 0.625769
Si Si3 0.525274 0.598591 0.130465
Si Si4 0.278345 0.523801 0.749820
Si Si5 0.172549 0.382407 0.897702
Si Si6 0.517422 0.136342 0.077169
Si Si7 0.923789 0.316511 0.179432
Si Si8 0.086230 0.078489 0.988309
O O1 0.221646 0.639316 0.217374
O O2 0.279306 0.909129 0.219659
O O3 0.112605 0.770635 0.116043
O O4 0.320047 0.702334 0.163611
O O5 0.257042 0.622731 0.695276
O O6 0.277603 0.724300 0.613076
O O7 0.094059 0.521375 0.590242
O O8 0.113867 0.821723 0.619637
O O9 0.594145 0.501989 0.192611
O O10 0.476491 0.745676 0.146750
O O11 0.437908 0.499123 0.071754
O O12 0.130599 0.513439 0.847253
O O13 0.066442 0.374276 0.902428
O O14 0.283241 0.447926 0.958910
O O15 0.438970 0.231069 0.015949
O O16 0.000000 0.313496 0.250000
O O17 0.000000 0.000000 0.000000
#
# Coordination Sequence:
#
# PCOD9301979 Si02
#       8
#     8   8   8   8   8   8   8   8
#     4  11  23  41  69 102 148 192 241 308 380 453
#     4  11  24  46  75 110 151 198 251 320 389 457
#     4  12  23  47  74 109 151 194 258 311 389 467
#     4  11  21  40  72 102 146 194 240 313 380 456
#     4  12  27  48  77 111 148 202 258 314 391 457
#     4  11  26  48  72 109 148 195 254 315 377 453
#     4  12  25  45  76 112 152 197 250 318 393 469
#     4  12  26  49  80 105 150 205 258 320 382 462
#
# _framework density 23.232717999999998
#
# number of rings (size 3 to 8) (size 9 to 14) (size 15 to 20)
#    0.000    0.500    6.250    1.875    1.750    3.000 
#    2.250    0.000    0.000    0.000    0.000    0.000 
#    0.000    0.000    0.000    0.000    0.000    0.000 
#
# Total GULP energy -178364.498641 kJ/mol
# GULP energy per Si atom -5573.890583 kJ/mol
# Density = 2.317984 g / cm^3
# Si number density = 23.232718 Si / 1000 Ang^3
#
#
#
# Elastic Constant Matrix: (Units=GPa)
#
#
# Indices 1 2 3 4 5 6 
#
# 1 113.0084 31.3953 39.2826 0.0000 8.4174 0.0000
# 2 31.3953 69.5840 21.0858 0.0000 -14.9058 0.0000
# 3 39.2826 21.0858 92.2385 0.0000 1.5177 0.0000
# 4 0.0000 0.0000 0.0000 52.0819 0.0000 0.5552
# 5 8.4174 -14.9058 1.5177 0.0000 27.0626 0.0000
# 6 0.0000 0.0000 0.0000 0.5552 0.0000 35.7691
#
#
#
# Elastic Compliance Matrix: (Units=1/GPa)
#
#
# Indices 1 2 3 4 5 6 
#
# 1 0.012307 -0.005873 -0.003786 0.000000 -0.006850 0.000000
# 2 -0.005873 0.020609 -0.002429 0.000000 0.013314 0.000000
# 3 -0.003786 -0.002429 0.013024 0.000000 -0.000891 0.000000
# 4 0.000000 0.000000 0.000000 0.019204 0.000000 -0.000298
# 5 -0.006850 0.013314 -0.000891 0.000000 0.046465 0.000000
# 6 0.000000 0.000000 0.000000 -0.000298 0.000000 0.027962
#
#
# Mechanical properties :
#
#
# Convention : Reuss Voigt Hill
#
# Bulk Modulus (GPa) = 45.94821 50.92872 48.43846
# Shear Modulus (GPa) = 29.23971 35.18722 32.21347
#
# Velocity S-wave (km/s) = 3.55146 3.89595 3.72769
# Velocity P-wave (km/s) = 6.05289 6.49666 6.27870
#
# Compressibility (1/GPa) = 0.02176363
#
# Stress axis : x y z
#
# Youngs Moduli (GPa) = 81.25668 48.52259 76.78248
#
# Poissons Ratio (x) = 0.28496 0.29069
# Poissons Ratio (y) = 0.47720 0.18652
# Poissons Ratio (z) = 0.30763 0.11787
#
# Static dielectric constant tensor:
#      x y z
#    x 1.895100 0.000000 -0.011440 
#    y 0.000000 2.047580 0.000000 
#    z -0.011440 0.000000 1.901030 
# 
# From -- ./inp_files/313175.got.cif
#   From: 2010.05.17/outbox.cif.g08.bks.cpg/sg15_157_cif.got.tgz:313175.got - 2010.06.03 18:47:42.
