data_PCOD9301187
_publ_section_title
;
Structure prediction by ZEFSAII (Michael W. Deem and Ramdas Pophale) SiO2 
 PCOD9301187
Probable space group: C 2/C
;
_chemical_formula_sum "Si O2"
_cell_formula_units_Z 40
_cell_length_a 20.036935
_cell_length_b 11.573276
_cell_length_c 11.879287
_cell_angle_alpha 90.000000
_cell_angle_beta 135.185389
_cell_angle_gamma 90.000000
_cell_volume 1941.570639
_symmetry_space_group_name_H-M "C 2/C"
_symmetry_group_IT_number 15
_symmetry_cell_setting 'monoclinic'
loop_
_space_group_symop_operation_xyz
x,y,z
-x,y,1/2-z
-x,-y,-z
x,-y,1/2+z
1/2+x,1/2+y,z
1/2-x,1/2+y,1/2-z
1/2-x,1/2-y,-z
1/2+x,1/2-y,1/2+z
loop_
_atom_site_type_symbol
_atom_site_label
_atom_site_fract_x
_atom_site_fract_y
_atom_site_fract_z
Si Si1 0.257602 0.433893 0.544293
Si Si2 0.204840 0.293097 0.261762
Si Si3 0.559734 0.061103 0.911853
Si Si4 0.988872 0.330081 0.923495
Si Si5 0.680379 0.320475 0.333963
O O1 0.234768 0.388879 0.391161
O O2 0.287804 0.326618 0.659425
O O3 0.158849 0.474023 0.480433
O O4 0.322741 0.546057 0.631369
O O5 0.272637 0.307881 0.234459
O O6 0.096279 0.302636 0.089302
O O7 0.500000 0.133120 0.750000
O O8 0.498272 0.948779 0.866588
O O9 0.568780 0.134334 0.034180
O O10 0.924374 0.234884 0.787917
O O11 0.750000 0.250000 0.500000
#
# Coordination Sequence:
#
# PCOD9301187 Si02
#       5
#     8   8   8   8   8
#     4  11  24  44  70 101 140 179 229 296 344 412
#     4  11  25  44  71 103 136 183 233 282 353 419
#     4  11  20  38  68  99 128 173 240 284 329 404
#     4  11  24  39  67 100 133 180 230 280 341 414
#     4  12  27  43  69 102 142 177 228 293 350 402
#
# _framework density 20.601877000000002
#
# number of rings (size 3 to 8) (size 9 to 14) (size 15 to 20)
#    0.000    0.800    6.000    1.200    5.600    0.800 
#    0.000    0.000    4.400    0.000    0.000    0.000 
#    0.000    0.000    0.000    0.000    0.000    0.000 
#
# Total GULP energy -111704.021650 kJ/mol
# GULP energy per Si atom -5585.201083 kJ/mol
# Density = 2.055499 g / cm^3
# Si number density = 20.601877 Si / 1000 Ang^3
#
#
#
# Elastic Constant Matrix: (Units=GPa)
#
#
# Indices 1 2 3 4 5 6 
#
# 1 68.7500 15.5653 29.1963 0.0000 -11.2124 0.0000
# 2 15.5653 126.5341 56.2309 0.0000 2.6484 0.0000
# 3 29.1963 56.2309 118.5852 0.0000 0.7500 0.0000
# 4 0.0000 0.0000 0.0000 38.8645 0.0000 20.6635
# 5 -11.2124 2.6484 0.7500 0.0000 35.3393 0.0000
# 6 0.0000 0.0000 0.0000 20.6635 0.0000 -16.4701
#
#
#
# Elastic Compliance Matrix: (Units=1/GPa)
#
#
# Indices 1 2 3 4 5 6 
#
# 1 0.017294 -0.000427 -0.004091 0.000000 0.005606 0.000000
# 2 -0.000427 0.010038 -0.004650 0.000000 -0.000789 0.000000
# 3 -0.004091 -0.004650 0.011652 0.000000 -0.001197 0.000000
# 4 0.000000 0.000000 0.000000 0.015435 0.000000 0.019364
# 5 0.005606 -0.000789 -0.001197 0.000000 0.030160 0.000000
# 6 0.000000 0.000000 0.000000 0.019364 0.000000 -0.036421
#
#
# Mechanical properties :
#
#
# Convention : Reuss Voigt Hill
#
# Bulk Modulus (GPa) = 48.42775 57.31713 52.87244
# Shear Modulus (GPa) = 68.14184 25.73852 46.94018
#
# Velocity S-wave (km/s) = 5.75737 3.53842 4.77848
# Velocity P-wave (km/s) = 8.23128 6.67650 7.49432
#
# Compressibility (1/GPa) = 0.02064932
#
# Stress axis : x y z
#
# Youngs Moduli (GPa) = 57.82495 99.61707 85.81878
#
# Poissons Ratio (x) = 0.04251 0.35107
# Poissons Ratio (y) = 0.02467 0.39906
# Poissons Ratio (z) = 0.23655 0.46322
#
# Static dielectric constant tensor:
#      x y z
#    x 1.738970 0.000000 -0.022330 
#    y 0.000000 1.746540 0.000000 
#    z -0.022330 0.000000 1.791370 
# 
# From -- ./inp_files/103946.got.cif
#   From: 2010.05.17/outbox.cif.g08.bks.cpg/sg15_52_cif.got.tgz:103946.got - 2010.06.03 18:47:42.
