data_PCOD9301721
_publ_section_title
;
Structure prediction by ZEFSAII (Michael W. Deem and Ramdas Pophale) SiO2 
 PCOD9301721
Probable space group: C 2/C
;
_chemical_formula_sum "Si O2"
_cell_formula_units_Z 44
_cell_length_a 23.791078
_cell_length_b 8.755207
_cell_length_c 15.079205
_cell_angle_alpha 90.000000
_cell_angle_beta 43.952305
_cell_angle_gamma 90.000000
_cell_volume 2179.995410
_symmetry_space_group_name_H-M "C 2/C"
_symmetry_group_IT_number 15
_symmetry_cell_setting 'monoclinic'
loop_
_space_group_symop_operation_xyz
x,y,z
-x,y,1/2-z
-x,-y,-z
x,-y,1/2+z
1/2+x,1/2+y,z
1/2-x,1/2+y,1/2-z
1/2-x,1/2-y,-z
1/2+x,1/2-y,1/2+z
loop_
_atom_site_type_symbol
_atom_site_label
_atom_site_fract_x
_atom_site_fract_y
_atom_site_fract_z
Si Si1 0.779400 0.898751 0.278859
Si Si2 0.500000 0.117644 0.250000
Si Si3 0.289064 0.059026 0.313135
Si Si4 0.354561 0.734388 0.985646
Si Si5 0.961867 0.569343 0.632319
Si Si6 0.925296 0.885823 0.595271
O O1 0.745239 0.945738 0.222110
O O2 0.810853 0.723762 0.243947
O O3 0.701252 0.882312 0.430742
O O4 0.849057 0.019658 0.220069
O O5 0.577957 0.227729 0.162305
O O6 0.487823 0.005847 0.346291
O O7 0.370813 0.988498 0.255296
O O8 0.212863 0.106434 0.461091
O O9 0.396135 0.682201 0.032109
O O10 0.954279 0.748597 0.624768
O O11 0.000000 0.500000 0.500000
O O12 0.000000 0.000000 0.500000
#
# Coordination Sequence:
#
# PCOD9301721 Si02
#       6
#     8   4   8   8   8   8
#     4   9  17  34  61  92 122 161 220 253 312 385
#     4  12  24  40  62  98 132 164 228 256 320 396
#     4   9  17  35  59  91 125 164 214 257 317 369
#     4   9  21  36  61  94 126 167 212 267 310 381
#     4  12  22  40  65  92 127 175 208 267 326 376
#     4  11  21  38  65  97 124 174 217 262 325 383
#
# _framework density 20.183527999999999
#
# number of rings (size 3 to 8) (size 9 to 14) (size 15 to 20)
#    1.091    0.727    3.636    1.091    0.000    0.727 
#    0.000    1.818    0.000    0.000    0.000    0.000 
#    0.000    0.000    0.000    0.000    0.000    0.000 
#
# Total GULP energy -122529.395289 kJ/mol
# GULP energy per Si atom -5569.517968 kJ/mol
# Density = 2.013759 g / cm^3
# Si number density = 20.183528 Si / 1000 Ang^3
#
#
#
# Elastic Constant Matrix: (Units=GPa)
#
#
# Indices 1 2 3 4 5 6 
#
# 1 32.2610 11.1261 19.4293 -0.0001 -12.3440 0.0000
# 2 11.1261 102.9968 25.7335 -0.0002 -11.9992 0.0002
# 3 19.4293 25.7335 92.5986 0.0000 -22.8691 0.0001
# 4 -0.0001 -0.0002 0.0000 27.2868 0.0000 -13.6818
# 5 -12.3440 -11.9992 -22.8691 0.0000 37.5105 0.0000
# 6 0.0000 0.0002 0.0001 -13.6818 0.0000 31.1472
#
#
#
# Elastic Compliance Matrix: (Units=1/GPa)
#
#
# Indices 1 2 3 4 5 6 
#
# 1 0.038176 -0.001767 -0.005364 0.000000 0.008728 0.000000
# 2 -0.001767 0.010625 -0.002221 0.000000 0.001464 0.000000
# 3 -0.005364 -0.002221 0.014045 0.000000 0.006088 0.000000
# 4 0.000000 0.000000 0.000000 0.046999 0.000000 0.020645
# 5 0.008728 0.001464 0.006088 0.000000 0.033711 0.000000
# 6 0.000000 0.000000 0.000000 0.020645 0.000000 0.041174
#
#
# Mechanical properties :
#
#
# Convention : Reuss Voigt Hill
#
# Bulk Modulus (GPa) = 22.65299 37.82601 30.23950
# Shear Modulus (GPa) = 22.92012 30.62673 26.77343
#
# Velocity S-wave (km/s) = 3.37350 3.89962 3.64606
# Velocity P-wave (km/s) = 5.14022 6.24962 5.72187
#
# Compressibility (1/GPa) = 0.04414428
#
# Stress axis : x y z
#
# Youngs Moduli (GPa) = 26.19422 94.11554 71.19836
#
# Poissons Ratio (x) = 0.16631 0.38188
# Poissons Ratio (y) = 0.04629 0.15810
# Poissons Ratio (z) = 0.14050 0.20899
#
# Static dielectric constant tensor:
#      x y z
#    x 1.849440 0.000000 -0.011640 
#    y 0.000000 1.725430 0.000000 
#    z -0.011640 0.000000 1.759220 
# 
# From -- ./inp_files/176440.got.cif
#   From: 2010.05.17/outbox.cif.g08.bks.cpg/sg15_89_cif.got.tgz:176440.got - 2010.06.03 18:47:42.
