data_PCOD9301705
_publ_section_title
;
Structure prediction by ZEFSAII (Michael W. Deem and Ramdas Pophale) SiO2 
 PCOD9301705
Probable space group: C 2/C
;
_chemical_formula_sum "Si O2"
_cell_formula_units_Z 32
_cell_length_a 6.629113
_cell_length_b 12.659062
_cell_length_c 15.241242
_cell_angle_alpha 90.000000
_cell_angle_beta 107.797591
_cell_angle_gamma 90.000000
_cell_volume 1217.808896
_symmetry_space_group_name_H-M "C 2/C"
_symmetry_group_IT_number 15
_symmetry_cell_setting 'monoclinic'
loop_
_space_group_symop_operation_xyz
x,y,z
-x,y,1/2-z
-x,-y,-z
x,-y,1/2+z
1/2+x,1/2+y,z
1/2-x,1/2+y,1/2-z
1/2-x,1/2-y,-z
1/2+x,1/2-y,1/2+z
loop_
_atom_site_type_symbol
_atom_site_label
_atom_site_fract_x
_atom_site_fract_y
_atom_site_fract_z
Si Si1 0.586863 0.245428 0.359786
Si Si2 0.625595 0.354500 0.016627
Si Si3 0.340954 0.958870 0.902751
Si Si4 0.041784 0.343186 0.160891
O O1 0.500000 0.269936 0.250000
O O2 0.551330 0.325435 0.436561
O O3 0.460698 0.140236 0.373216
O O4 0.840754 0.252277 0.379577
O O5 0.815674 0.392700 0.106155
O O6 0.750000 0.250000 0.000000
O O7 0.631949 0.427627 0.931408
O O8 0.310010 0.053940 0.830677
O O9 0.500000 0.000000 0.000000
O O10 0.000000 0.296973 0.250000
#
# Coordination Sequence:
#
# PCOD9301705 Si02
#       4
#     8   8   8   8
#     4  11  21  38  64  87 122 161 200 257 313 362
#     4   9  20  38  59  89 118 154 204 248 302 372
#     4   9  21  38  60  87 121 157 203 254 303 367
#     4  11  21  38  63  88 122 164 202 249 312 365
#
# _framework density 26.276703000000001
#
# number of rings (size 3 to 8) (size 9 to 14) (size 15 to 20)
#    0.000    2.000    2.500    0.750    0.000   10.000 
#    0.000    7.500    0.000    0.000    0.000    0.000 
#    0.000    0.000    0.000    0.000    0.000    0.000 
#
# Total GULP energy -89105.868330 kJ/mol
# GULP energy per Si atom -5569.116771 kJ/mol
# Density = 2.621690 g / cm^3
# Si number density = 26.276703 Si / 1000 Ang^3
#
#
#
# Elastic Constant Matrix: (Units=GPa)
#
#
# Indices 1 2 3 4 5 6 
#
# 1 118.0495 18.3279 53.0461 0.0000 -51.5384 0.0000
# 2 18.3279 96.6506 33.8681 0.0000 -28.1842 0.0000
# 3 53.0461 33.8681 123.3475 0.0000 -64.0312 0.0000
# 4 0.0000 0.0000 0.0000 24.4034 0.0000 -10.3099
# 5 -51.5384 -28.1842 -64.0312 0.0000 58.8910 0.0000
# 6 0.0000 0.0000 0.0000 -10.3099 0.0000 38.0899
#
#
#
# Elastic Compliance Matrix: (Units=1/GPa)
#
#
# Indices 1 2 3 4 5 6 
#
# 1 0.013827 0.001026 0.000708 0.000000 0.013362 0.000000
# 2 0.001026 0.012129 -0.000671 0.000000 0.005974 0.000000
# 3 0.000708 -0.000671 0.018692 0.000000 0.020622 0.000000
# 4 0.000000 0.000000 0.000000 0.046269 0.000000 0.012524
# 5 0.013362 0.005974 0.020622 0.000000 0.053955 0.000000
# 6 0.000000 0.000000 0.000000 0.012524 0.000000 0.029643
#
#
# Mechanical properties :
#
#
# Convention : Reuss Voigt Hill
#
# Bulk Modulus (GPa) = 21.37875 60.94797 41.16336
# Shear Modulus (GPa) = 26.59859 39.79725 33.19792
#
# Velocity S-wave (km/s) = 3.18504 3.89594 3.55829
# Velocity P-wave (km/s) = 4.65614 6.59415 5.70800
#
# Compressibility (1/GPa) = 0.04677541
#
# Stress axis : x y z
#
# Youngs Moduli (GPa) = 72.32224 82.44768 53.49848
#
# Poissons Ratio (x) = -0.08461 -0.03788
# Poissons Ratio (y) = -0.07422 0.03588
# Poissons Ratio (z) = -0.05121 0.05529
#
# Static dielectric constant tensor:
#      x y z
#    x 2.375490 0.000000 0.197760 
#    y 0.000000 2.053060 0.000000 
#    z 0.197760 0.000000 2.279070 
# 
# From -- ./inp_files/132299.got.cif
#   From: 2010.05.17/outbox.cif.g08.bks.cpg/sg15_67_cif.got.tgz:132299.got - 2010.06.03 18:47:42.
