data_PCOD9301295
_publ_section_title
;
Structure prediction by ZEFSAII (Michael W. Deem and Ramdas Pophale) SiO2 
 PCOD9301295
Probable space group: C 2/C
;
_chemical_formula_sum "Si O2"
_cell_formula_units_Z 44
_cell_length_a 23.674406
_cell_length_b 14.059116
_cell_length_c 14.478254
_cell_angle_alpha 90.000000
_cell_angle_beta 20.238174
_cell_angle_gamma 90.000000
_cell_volume 1666.990955
_symmetry_space_group_name_H-M "C 2/C"
_symmetry_group_IT_number 15
_symmetry_cell_setting 'monoclinic'
loop_
_space_group_symop_operation_xyz
x,y,z
-x,y,1/2-z
-x,-y,-z
x,-y,1/2+z
1/2+x,1/2+y,z
1/2-x,1/2+y,1/2-z
1/2-x,1/2-y,-z
1/2+x,1/2-y,1/2+z
loop_
_atom_site_type_symbol
_atom_site_label
_atom_site_fract_x
_atom_site_fract_y
_atom_site_fract_z
Si Si1 0.000000 0.635884 0.250000
Si Si2 0.712210 0.167807 0.296634
Si Si3 0.676623 0.560167 0.061746
Si Si4 0.500000 0.710868 0.250000
Si Si5 0.523761 0.109851 0.996827
Si Si6 0.000000 0.879816 0.250000
Si Si7 0.197100 0.002095 0.718805
O O1 0.023386 0.640041 0.328772
O O2 0.809373 0.593943 0.554803
O O3 0.639510 0.220467 0.495756
O O4 0.578449 0.168356 0.421663
O O5 0.760883 0.062313 0.257852
O O6 0.883781 0.192165 0.983948
O O7 0.532850 0.637028 0.284205
O O8 0.613517 0.454666 0.131771
O O9 0.765039 0.550798 0.022879
O O10 0.785909 0.611717 0.818023
O O11 0.500000 0.000000 0.000000
O O12 0.000000 0.000000 0.000000
#
# Coordination Sequence:
#
# PCOD9301295 Si02
#       7
#     4   8   8   4   8   4   8
#     4  12  23  40  66 120 143 180 238 338 361 416
#     4  12  24  43  68 106 146 197 239 307 368 448
#     4  11  23  44  72 108 138 192 244 304 357 449
#     4  11  29  46  72 107 161 196 236 299 389 444
#     4  12  22  41  74 105 146 181 247 318 368 423
#     4  11  20  40  70  99 138 182 252 299 346 422
#     4  12  22  38  74 109 143 186 251 308 368 426
#
# _framework density 26.394864999999999
#
# number of rings (size 3 to 8) (size 9 to 14) (size 15 to 20)
#    0.000    0.364    7.273    1.636    2.545    2.909 
#    0.000    0.909    0.000    4.364    0.000    0.000 
#    0.000    0.000    0.000    0.000    0.000    0.000 
#
# Total GULP energy -122477.522673 kJ/mol
# GULP energy per Si atom -5567.160122 kJ/mol
# Density = 2.633479 g / cm^3
# Si number density = 26.394865 Si / 1000 Ang^3
#
#
#
# Elastic Constant Matrix: (Units=GPa)
#
#
# Indices 1 2 3 4 5 6 
#
# 1 156.1176 24.2643 2.0066 0.0000 0.3641 0.0000
# 2 24.2643 72.2943 14.1002 -0.0003 -9.7066 0.0001
# 3 2.0066 14.1002 119.3037 -0.0004 -5.1994 0.0003
# 4 0.0000 -0.0003 -0.0004 -20.4609 0.0002 -45.5623
# 5 0.3641 -9.7066 -5.1994 0.0002 46.0596 -0.0001
# 6 0.0000 0.0001 0.0003 -45.5623 -0.0001 11.2848
#
#
#
# Elastic Compliance Matrix: (Units=1/GPa)
#
#
# Indices 1 2 3 4 5 6 
#
# 1 0.006774 -0.002374 0.000143 0.000000 -0.000538 0.000000
# 2 -0.002374 0.015362 -0.001642 0.000000 0.003071 0.000000
# 3 0.000143 -0.001642 0.008601 0.000000 0.000624 0.000000
# 4 0.000000 0.000000 0.000000 -0.004892 0.000000 -0.019751
# 5 -0.000538 0.003071 0.000624 0.000000 0.022433 0.000000
# 6 0.000000 0.000000 0.000000 -0.019751 0.000000 0.008870
#
#
# Mechanical properties :
#
#
# Convention : Reuss Voigt Hill
#
# Bulk Modulus (GPa) = 43.49411 47.60642 45.55026
# Shear Modulus (GPa) = 68.91331 27.86635 48.38983
#
# Velocity S-wave (km/s) = 5.11520 3.25275 4.28636
# Velocity P-wave (km/s) = 7.16945 5.67297 6.46466
#
# Compressibility (1/GPa) = 0.02299162
#
# Stress axis : x y z
#
# Youngs Moduli (GPa) = 147.62867 65.09779 116.26844
#
# Poissons Ratio (x) = 0.15452 -0.01665
# Poissons Ratio (y) = 0.35041 0.19089
# Poissons Ratio (z) = -0.02114 0.10688
#
# Static dielectric constant tensor:
#      x y z
#    x 2.047530 0.000000 -0.057740 
#    y 0.000000 2.396110 0.000000 
#    z -0.057740 0.000000 2.817920 
# 
# From -- ./inp_files/145456.got.cif
#   From: 2010.05.17/outbox.cif.g08.bks.cpg/sg15_73_cif.got.tgz:145456.got - 2010.06.03 18:47:42.
