data_PCOD9301266
_publ_section_title
;
Structure prediction by ZEFSAII (Michael W. Deem and Ramdas Pophale) SiO2 
 PCOD9301266
Probable space group: C 2/C
;
_chemical_formula_sum "Si O2"
_cell_formula_units_Z 36
_cell_length_a 11.397154
_cell_length_b 25.911815
_cell_length_c 9.505098
_cell_angle_alpha 90.000000
_cell_angle_beta 37.081512
_cell_angle_gamma 90.000000
_cell_volume 1692.515200
_symmetry_space_group_name_H-M "C 2/C"
_symmetry_group_IT_number 15
_symmetry_cell_setting 'monoclinic'
loop_
_space_group_symop_operation_xyz
x,y,z
-x,y,1/2-z
-x,-y,-z
x,-y,1/2+z
1/2+x,1/2+y,z
1/2-x,1/2+y,1/2-z
1/2-x,1/2-y,-z
1/2+x,1/2-y,1/2+z
loop_
_atom_site_type_symbol
_atom_site_label
_atom_site_fract_x
_atom_site_fract_y
_atom_site_fract_z
Si Si1 0.949984 0.823694 0.629175
Si Si2 0.742523 0.114170 0.776962
Si Si3 0.500000 0.941534 0.750000
Si Si4 0.152241 0.984894 0.477405
Si Si5 0.519946 0.793405 0.064221
O O1 0.000000 0.831803 0.750000
O O2 0.033300 0.867300 0.445536
O O3 0.014561 0.765827 0.521395
O O4 0.720037 0.820999 0.838892
O O5 0.742036 0.068618 0.663078
O O6 0.643664 0.167621 0.828129
O O7 0.628461 0.092307 0.019305
O O8 0.668528 0.976001 0.664440
O O9 0.000000 0.000000 0.500000
O O10 0.000000 0.979635 0.750000
O O11 0.500000 0.788373 0.250000
#
# Coordination Sequence:
#
# PCOD9301266 Si02
#       5
#     8   8   4   8   8
#     4  11  20  40  65 105 140 181 236 297 356 429
#     4  12  26  42  71 100 142 192 232 297 373 414
#     4  12  30  50  68 106 148 192 254 304 348 448
#     4  12  28  50  76 105 144 190 248 308 362 428
#     4  11  21  37  68 103 143 177 235 298 358 431
#
# _framework density 21.270121
#
# number of rings (size 3 to 8) (size 9 to 14) (size 15 to 20)
#    0.000    0.444    6.667    2.667    4.667    0.000 
#    0.000    1.111    0.000    0.000    0.000    0.000 
#    0.000    0.000    0.000    0.000    0.000    0.000 
#
# Total GULP energy -100398.035991 kJ/mol
# GULP energy per Si atom -5577.668666 kJ/mol
# Density = 2.122171 g / cm^3
# Si number density = 21.270121 Si / 1000 Ang^3
#
#
#
# Elastic Constant Matrix: (Units=GPa)
#
#
# Indices 1 2 3 4 5 6 
#
# 1 54.8841 21.9810 15.9654 0.0000 -8.4421 0.0000
# 2 21.9810 123.0152 50.6470 0.0000 8.6264 0.0000
# 3 15.9654 50.6470 157.9210 0.0000 2.2734 0.0000
# 4 0.0000 0.0000 0.0000 32.7262 0.0000 25.1031
# 5 -8.4421 8.6264 2.2734 0.0000 33.0536 0.0000
# 6 0.0000 0.0000 0.0000 25.1031 0.0000 -92.1163
#
#
#
# Elastic Compliance Matrix: (Units=1/GPa)
#
#
# Indices 1 2 3 4 5 6 
#
# 1 0.021020 -0.003795 -0.001001 0.000000 0.006428 0.000000
# 2 -0.003795 0.010219 -0.002844 0.000000 -0.003441 0.000000
# 3 -0.001001 -0.002844 0.007346 0.000000 -0.000018 0.000000
# 4 0.000000 0.000000 0.000000 0.025273 0.000000 0.006887
# 5 0.006428 -0.003441 -0.000018 0.000000 0.032795 0.000000
# 6 0.000000 0.000000 0.000000 0.006887 0.000000 -0.008979
#
#
# Mechanical properties :
#
#
# Convention : Reuss Voigt Hill
#
# Bulk Modulus (GPa) = 42.90758 57.00078 49.95418
# Shear Modulus (GPa) = 45.15799 11.21449 28.18624
#
# Velocity S-wave (km/s) = 4.61268 2.29866 3.64422
# Velocity P-wave (km/s) = 6.97034 5.82253 6.42213
#
# Compressibility (1/GPa) = 0.02330590
#
# Stress axis : x y z
#
# Youngs Moduli (GPa) = 47.57428 97.85254 136.13018
#
# Poissons Ratio (x) = 0.37132 0.13621
# Poissons Ratio (y) = 0.18053 0.38720
# Poissons Ratio (z) = 0.04760 0.27832
#
# Static dielectric constant tensor:
#      x y z
#    x 1.793890 0.000000 0.030700 
#    y 0.000000 1.652620 0.000000 
#    z 0.030700 0.000000 1.798630 
# 
# From -- ./inp_files/33271.got.cif
#   From: 2010.05.17/outbox.cif.g08.bks.cpg/sg15_17_cif.got.tgz:33271.got - 2010.06.03 18:47:42.
