data_PCOD9301393
_publ_section_title
;
Structure prediction by ZEFSAII (Michael W. Deem and Ramdas Pophale) SiO2 
 PCOD9301393
Probable space group: C 2/C
;
_chemical_formula_sum "Si O2"
_cell_formula_units_Z 64
_cell_length_a 31.107732
_cell_length_b 21.940275
_cell_length_c 15.384092
_cell_angle_alpha 90.000000
_cell_angle_beta 161.756344
_cell_angle_gamma 90.000000
_cell_volume 3287.062732
_symmetry_space_group_name_H-M "C 2/C"
_symmetry_group_IT_number 15
_symmetry_cell_setting 'monoclinic'
loop_
_space_group_symop_operation_xyz
x,y,z
-x,y,1/2-z
-x,-y,-z
x,-y,1/2+z
1/2+x,1/2+y,z
1/2-x,1/2+y,1/2-z
1/2-x,1/2-y,-z
1/2+x,1/2-y,1/2+z
loop_
_atom_site_type_symbol
_atom_site_label
_atom_site_fract_x
_atom_site_fract_y
_atom_site_fract_z
Si Si1 0.152107 0.475711 0.269298
Si Si2 0.976659 0.313386 0.921094
Si Si3 0.733093 0.858897 0.521984
Si Si4 0.162969 0.329469 0.580236
Si Si5 0.640468 0.312946 0.073797
Si Si6 0.035011 0.824340 0.063933
Si Si7 0.391444 0.885171 0.473273
Si Si8 0.754438 0.106714 0.430331
O O1 0.206286 0.429870 0.447822
O O2 0.240091 0.535389 0.419834
O O3 0.146747 0.434470 0.172683
O O4 0.000000 0.500000 0.000000
O O5 0.028583 0.332612 0.926411
O O6 0.935777 0.243691 0.847024
O O7 0.856605 0.357660 0.722821
O O8 0.103906 0.323781 0.231413
O O9 0.735764 0.843859 0.628849
O O10 0.872822 0.836171 0.746125
O O11 0.180129 0.258648 0.640874
O O12 0.216719 0.372354 0.760666
O O13 0.000000 0.339141 0.250000
O O14 0.606217 0.329236 0.107157
O O15 0.759673 0.355538 0.265164
O O16 0.500000 0.320588 0.750000
O O17 0.099054 0.870227 0.256205
O O18 0.500000 0.911434 0.750000
#
# Coordination Sequence:
#
# PCOD9301393 Si02
#       8
#     8   8   8   8   8   8   8   8
#     4  11  23  45  67  91 130 173 231 265 314 400
#     4  11  20  43  66  97 131 172 218 261 331 395
#     4  11  23  42  69  95 128 181 220 264 326 395
#     4  11  21  41  66  99 129 172 224 269 319 389
#     4  11  22  40  64  98 136 167 212 268 333 396
#     4  12  25  40  68  98 140 170 208 277 344 386
#     4  11  24  38  67 101 125 169 221 274 321 379
#     4  12  24  41  68  95 133 176 217 270 331 381
#
# _framework density 19.470269999999999
#
# number of rings (size 3 to 8) (size 9 to 14) (size 15 to 20)
#    0.000    0.750    5.000    4.500    1.750    2.500 
#    0.000    0.000    2.750    0.000    0.000    0.000 
#    0.000    0.000    0.000    0.000    0.000    0.000 
#
# Total GULP energy -178968.903286 kJ/mol
# GULP energy per Si atom -5592.778228 kJ/mol
# Density = 1.942595 g / cm^3
# Si number density = 19.470270 Si / 1000 Ang^3
#
#
#
# Elastic Constant Matrix: (Units=GPa)
#
#
# Indices 1 2 3 4 5 6 
#
# 1 99.4951 18.6975 3.0413 0.0000 6.8976 0.0000
# 2 18.6975 89.6788 4.0261 0.0000 -1.1954 0.0000
# 3 3.0413 4.0261 36.3491 0.0000 -2.5762 0.0000
# 4 0.0000 0.0000 0.0000 8.3249 0.0000 9.9008
# 5 6.8976 -1.1954 -2.5762 0.0000 31.6090 0.0000
# 6 0.0000 0.0000 0.0000 9.9008 0.0000 24.0478
#
#
#
# Elastic Compliance Matrix: (Units=1/GPa)
#
#
# Indices 1 2 3 4 5 6 
#
# 1 0.010665 -0.002220 -0.000822 0.000000 -0.002478 0.000000
# 2 -0.002220 0.011672 -0.001048 0.000000 0.000840 0.000000
# 3 -0.000822 -0.001048 0.027867 0.000000 0.002411 0.000000
# 4 0.000000 0.000000 0.000000 0.235374 0.000000 -0.096907
# 5 -0.002478 0.000840 0.002411 0.000000 0.032406 0.000000
# 6 0.000000 0.000000 0.000000 -0.096907 0.000000 0.081482
#
#
# Mechanical properties :
#
#
# Convention : Reuss Voigt Hill
#
# Bulk Modulus (GPa) = 23.79544 30.78363 27.28953
# Shear Modulus (GPa) = 11.85814 26.11354 18.98584
#
# Velocity S-wave (km/s) = 2.47055 3.66621 3.12608
# Velocity P-wave (km/s) = 4.51510 5.81089 5.20348
#
# Compressibility (1/GPa) = 0.04202487
#
# Stress axis : x y z
#
# Youngs Moduli (GPa) = 93.76632 85.67568 35.88513
#
# Poissons Ratio (x) = 0.19017 0.02950
# Poissons Ratio (y) = 0.20813 0.03759
# Poissons Ratio (z) = 0.07708 0.08975
#
# Static dielectric constant tensor:
#      x y z
#    x 1.680160 0.000000 -0.008550 
#    y 0.000000 1.652820 0.000000 
#    z -0.008550 0.000000 1.688410 
# 
# From -- ./inp_files/183170.got.cif
#   From: 2010.05.17/outbox.cif.g08.bks.cpg/sg15_92_cif.got.tgz:183170.got - 2010.06.03 18:47:42.
