data_PCOD9301208
_publ_section_title
;
Structure prediction by ZEFSAII (Michael W. Deem and Ramdas Pophale) SiO2 
 PCOD9301208
Probable space group: C 2/C
;
_chemical_formula_sum "Si O2"
_cell_formula_units_Z 40
_cell_length_a 10.142446
_cell_length_b 21.251288
_cell_length_c 16.752471
_cell_angle_alpha 90.000000
_cell_angle_beta 151.945504
_cell_angle_gamma 90.000000
_cell_volume 1698.212812
_symmetry_space_group_name_H-M "C 2/C"
_symmetry_group_IT_number 15
_symmetry_cell_setting 'monoclinic'
loop_
_space_group_symop_operation_xyz
x,y,z
-x,y,1/2-z
-x,-y,-z
x,-y,1/2+z
1/2+x,1/2+y,z
1/2-x,1/2+y,1/2-z
1/2-x,1/2-y,-z
1/2+x,1/2-y,1/2+z
loop_
_atom_site_type_symbol
_atom_site_label
_atom_site_fract_x
_atom_site_fract_y
_atom_site_fract_z
Si Si1 0.737457 0.488074 0.028413
Si Si2 0.175503 0.458185 0.656330
Si Si3 0.149554 0.898582 0.126499
Si Si4 0.183513 0.639832 0.613862
Si Si5 0.205719 0.223814 0.066477
O O1 0.595323 0.552866 0.980502
O O2 0.508434 0.465105 0.839971
O O3 0.043728 0.512799 0.166971
O O4 0.739295 0.430552 0.091253
O O5 0.050616 0.390189 0.568835
O O6 0.000000 0.500000 0.500000
O O7 0.333322 0.887775 0.305690
O O8 0.027494 0.828807 0.049367
O O9 0.500000 0.624473 0.750000
O O10 0.157487 0.714745 0.595017
O O11 0.500000 0.194311 0.250000
O O12 0.250000 0.250000 0.000000
#
# Coordination Sequence:
#
# PCOD9301208 Si02
#       5
#     8   8   8   8   8
#     4  11  26  39  65  97 135 180 213 277 332 407
#     4  12  22  44  67  98 132 174 220 272 339 403
#     4  11  23  39  56  98 136 169 220 275 339 393
#     4  11  20  39  61  95 134 171 224 286 328 394
#     4  11  21  35  62  94 132 176 227 286 337 382
#
# _framework density 23.554172999999999
#
# number of rings (size 3 to 8) (size 9 to 14) (size 15 to 20)
#    0.000    0.800    8.000    0.600    5.600    2.400 
#    0.000    0.000    0.000    1.200    5.200    0.000 
#    0.000    0.000    0.000    0.000    0.000    0.000 
#
# Total GULP energy -111687.889169 kJ/mol
# GULP energy per Si atom -5584.394458 kJ/mol
# Density = 2.350056 g / cm^3
# Si number density = 23.554173 Si / 1000 Ang^3
#
#
#
# Elastic Constant Matrix: (Units=GPa)
#
#
# Indices 1 2 3 4 5 6 
#
# 1 66.7316 27.3318 19.8160 0.0101 -27.8294 0.0054
# 2 27.3318 135.6723 33.7761 0.0208 -14.3063 0.0061
# 3 19.8160 33.7761 131.8288 0.0661 -9.1845 0.0358
# 4 0.0101 0.0208 0.0661 45.7787 0.0115 -15.1750
# 5 -27.8294 -14.3063 -9.1845 0.0115 40.8312 0.0052
# 6 0.0054 0.0061 0.0358 -15.1750 0.0052 23.8587
#
#
#
# Elastic Compliance Matrix: (Units=1/GPa)
#
#
# Indices 1 2 3 4 5 6 
#
# 1 0.022386 -0.002609 -0.001724 -0.000008 0.013956 -0.000010
# 2 -0.002609 0.008404 -0.001706 -0.000001 0.000782 0.000000
# 3 -0.001724 -0.001706 0.008288 -0.000019 0.000091 -0.000023
# 4 -0.000008 -0.000001 -0.000019 0.027680 -0.000020 0.017606
# 5 0.013956 0.000782 0.000091 -0.000020 0.034298 -0.000024
# 6 -0.000010 0.000000 -0.000023 0.017606 -0.000024 0.053111
#
#
# Mechanical properties :
#
#
# Convention : Reuss Voigt Hill
#
# Bulk Modulus (GPa) = 37.03874 55.12008 46.07941
# Shear Modulus (GPa) = 28.53135 38.98096 33.75615
#
# Velocity S-wave (km/s) = 3.48416 4.07252 3.78978
# Velocity P-wave (km/s) = 5.65198 6.75027 6.22539
#
# Compressibility (1/GPa) = 0.02699876
#
# Stress axis : x y z
#
# Youngs Moduli (GPa) = 44.67083 118.99650 120.65108
#
# Poissons Ratio (x) = 0.31045 0.20803
# Poissons Ratio (y) = 0.11654 0.20588
# Poissons Ratio (z) = 0.07702 0.20306
#
# Static dielectric constant tensor:
#      x y z
#    x 2.058510 -0.000010 -0.025000 
#    y -0.000010 1.914100 -0.000030 
#    z -0.025000 -0.000030 1.983940 
# 
# From -- ./inp_files/200466.got.cif
#   From: 2010.05.17/outbox.cif.g08.bks.cpg/sg15_101_cif.got.tgz:200466.got - 2010.06.03 18:47:42.
