data_PCOD9301140
_publ_section_title
;
Structure prediction by ZEFSAII (Michael W. Deem and Ramdas Pophale) SiO2 
 PCOD9301140
Probable space group: C 2/C
;
_chemical_formula_sum "Si O2"
_cell_formula_units_Z 56
_cell_length_a 13.556140
_cell_length_b 19.008052
_cell_length_c 24.712157
_cell_angle_alpha 90.000000
_cell_angle_beta 154.071270
_cell_angle_gamma 90.000000
_cell_volume 2784.305670
_symmetry_space_group_name_H-M "C 2/C"
_symmetry_group_IT_number 15
_symmetry_cell_setting 'monoclinic'
loop_
_space_group_symop_operation_xyz
x,y,z
-x,y,1/2-z
-x,-y,-z
x,-y,1/2+z
1/2+x,1/2+y,z
1/2-x,1/2+y,1/2-z
1/2-x,1/2-y,-z
1/2+x,1/2-y,1/2+z
loop_
_atom_site_type_symbol
_atom_site_label
_atom_site_fract_x
_atom_site_fract_y
_atom_site_fract_z
Si Si1 0.129687 0.702960 0.894460
Si Si2 0.055324 0.091976 0.916621
Si Si3 0.118102 0.659911 0.505609
Si Si4 0.306860 0.060696 0.855212
Si Si5 0.142017 0.908397 0.772546
Si Si6 0.642517 0.704727 0.609570
Si Si7 0.255778 0.056638 0.500157
O O1 0.260720 0.712175 0.902865
O O2 0.863812 0.720075 0.756164
O O3 0.250000 0.750000 0.000000
O O4 0.152295 0.619846 0.918219
O O5 0.852176 0.079041 0.773920
O O6 0.953332 0.129326 0.918875
O O7 0.192361 0.019292 0.993325
O O8 0.218406 0.143246 0.963071
O O9 0.196489 0.618231 0.598681
O O10 0.871293 0.629052 0.371384
O O11 0.064340 0.741202 0.487571
O O12 0.215203 0.985608 0.829478
O O13 0.556155 0.049508 0.953972
O O14 0.000000 0.871677 0.750000
O O15 0.975511 0.916570 0.640610
#
# Coordination Sequence:
#
# PCOD9301140 Si02
#       7
#     8   8   8   8   8   8   8
#     4  11  24  46  66  96 128 170 220 275 320 388
#     4  11  24  41  63  95 129 174 217 263 332 386
#     4  12  22  38  61  94 137 170 210 271 325 391
#     4  11  20  38  61  97 128 175 210 272 328 382
#     4  11  21  32  59  97 126 164 219 265 325 381
#     4  11  26  41  67  94 129 174 220 259 330 393
#     4  11  21  39  67  87 130 170 216 275 321 374
#
# _framework density 20.112734
#
# number of rings (size 3 to 8) (size 9 to 14) (size 15 to 20)
#    0.000    0.857    4.286    4.714    2.000    0.571 
#    0.000    0.000    0.000    0.000    0.000    0.000 
#    0.000    0.000    0.000    0.000    0.000    0.000 
#
# Total GULP energy -156413.638104 kJ/mol
# GULP energy per Si atom -5586.201361 kJ/mol
# Density = 2.006696 g / cm^3
# Si number density = 20.112734 Si / 1000 Ang^3
#
#
#
# Elastic Constant Matrix: (Units=GPa)
#
#
# Indices 1 2 3 4 5 6 
#
# 1 60.7926 28.7518 17.6123 -0.0040 3.4861 0.0010
# 2 28.7518 91.1410 19.0282 -0.0011 -6.8078 -0.0007
# 3 17.6123 19.0282 70.0938 -0.0012 2.0925 -0.0024
# 4 -0.0040 -0.0011 -0.0012 36.0123 -0.0032 -1.8879
# 5 3.4861 -6.8078 2.0925 -0.0032 22.5618 -0.0001
# 6 0.0010 -0.0007 -0.0024 -1.8879 -0.0001 28.8365
#
#
#
# Elastic Compliance Matrix: (Units=1/GPa)
#
#
# Indices 1 2 3 4 5 6 
#
# 1 0.020605 -0.006150 -0.003367 0.000002 -0.004727 -0.000001
# 2 -0.006150 0.013804 -0.002361 0.000000 0.005334 0.000000
# 3 -0.003367 -0.002361 0.015803 0.000000 -0.001658 0.000001
# 4 0.000002 0.000000 0.000000 0.027864 0.000004 0.001824
# 5 -0.004727 0.005334 -0.001658 0.000004 0.046817 0.000001
# 6 -0.000001 0.000000 0.000001 0.001824 0.000001 0.034798
#
#
# Mechanical properties :
#
#
# Convention : Reuss Voigt Hill
#
# Bulk Modulus (GPa) = 37.79964 39.20134 38.50049
# Shear Modulus (GPa) = 26.00595 27.92444 26.96520
#
# Velocity S-wave (km/s) = 3.59974 3.73016 3.66553
# Velocity P-wave (km/s) = 6.00935 6.17132 6.09087
#
# Compressibility (1/GPa) = 0.02645528
#
# Stress axis : x y z
#
# Youngs Moduli (GPa) = 48.53294 72.44473 63.27932
#
# Poissons Ratio (x) = 0.44556 0.21303
# Poissons Ratio (y) = 0.29849 0.14941
# Poissons Ratio (z) = 0.16339 0.17105
#
# Static dielectric constant tensor:
#      x y z
#    x 1.708580 0.000000 0.005260 
#    y 0.000000 1.772100 0.000000 
#    z 0.005260 0.000000 1.723210 
# 
# From -- ./inp_files/270965.got.cif
#   From: 2010.05.17/outbox.cif.g08.bks.cpg/sg15_136_cif.got.tgz:270965.got - 2010.06.03 18:47:42.
