data_PCOD9301117
_publ_section_title
;
Structure prediction by ZEFSAII (Michael W. Deem and Ramdas Pophale) SiO2 
 PCOD9301117
Probable space group: C 2/C
;
_chemical_formula_sum "Si O2"
_cell_formula_units_Z 44
_cell_length_a 7.216182
_cell_length_b 22.521623
_cell_length_c 12.584067
_cell_angle_alpha 90.000000
_cell_angle_beta 90.498081
_cell_angle_gamma 90.000000
_cell_volume 2045.086934
_symmetry_space_group_name_H-M "C 2/C"
_symmetry_group_IT_number 15
_symmetry_cell_setting 'monoclinic'
loop_
_space_group_symop_operation_xyz
x,y,z
-x,y,1/2-z
-x,-y,-z
x,-y,1/2+z
1/2+x,1/2+y,z
1/2-x,1/2+y,1/2-z
1/2-x,1/2-y,-z
1/2+x,1/2-y,1/2+z
loop_
_atom_site_type_symbol
_atom_site_label
_atom_site_fract_x
_atom_site_fract_y
_atom_site_fract_z
Si Si1 0.582061 0.610875 0.133808
Si Si2 0.753936 0.068614 0.991392
Si Si3 0.500000 0.222125 0.250000
Si Si4 0.584278 0.971734 0.863920
Si Si5 0.889322 0.695462 0.478317
Si Si6 0.372386 0.751857 0.350750
O O1 0.500000 0.597849 0.250000
O O2 0.452042 0.577551 0.047929
O O3 0.789404 0.586713 0.128228
O O4 0.586273 0.682273 0.124363
O O5 0.599046 0.039239 0.067100
O O6 0.689059 0.135664 0.972252
O O7 0.726048 0.025105 0.892651
O O8 0.409662 0.188150 0.350540
O O9 0.663319 0.257964 0.308211
O O10 0.500000 0.982405 0.750000
O O11 0.750000 0.750000 0.500000
O O12 0.074205 0.711613 0.544441
O O13 0.500000 0.768269 0.250000
#
# Coordination Sequence:
#
# PCOD9301117 Si02
#       6
#     8   8   4   8   8   8
#     4  11  20  37  69  92 123 166 212 263 309 380
#     4  11  24  42  65  92 127 168 209 267 315 375
#     4  12  24  40  66  94 130 178 210 260 318 382
#     4  11  24  41  64  92 125 168 215 258 318 375
#     4  12  23  44  68  97 133 169 216 266 325 388
#     4  11  23  39  67 100 130 169 214 270 324 379
#
# _framework density 21.514976000000001
#
# number of rings (size 3 to 8) (size 9 to 14) (size 15 to 20)
#    0.000    0.727    5.455    3.273    2.545    0.727 
#    0.000    0.000    2.000    0.000    0.000    0.000 
#    0.000    0.000    0.000    0.000    0.000    0.000 
#
# Total GULP energy -122922.205264 kJ/mol
# GULP energy per Si atom -5587.372967 kJ/mol
# Density = 2.146601 g / cm^3
# Si number density = 21.514976 Si / 1000 Ang^3
#
#
#
# Elastic Constant Matrix: (Units=GPa)
#
#
# Indices 1 2 3 4 5 6 
#
# 1 89.9126 -4.9520 33.9918 0.0000 33.7409 0.0000
# 2 -4.9520 80.0296 31.3935 0.0000 18.0820 0.0000
# 3 33.9918 31.3935 86.0055 0.0000 38.6862 0.0000
# 4 0.0000 0.0000 0.0000 -2.2958 0.0000 -11.5401
# 5 33.7409 18.0820 38.6862 0.0000 44.8670 0.0000
# 6 0.0000 0.0000 0.0000 -11.5401 0.0000 -2.4699
#
#
#
# Elastic Compliance Matrix: (Units=1/GPa)
#
#
# Indices 1 2 3 4 5 6 
#
# 1 0.017186 0.005060 -0.003118 0.000000 -0.012275 0.000000
# 2 0.005060 0.016196 -0.005332 0.000000 -0.005735 0.000000
# 3 -0.003118 -0.005332 0.020884 0.000000 -0.013514 0.000000
# 4 0.000000 0.000000 0.000000 0.019371 0.000000 -0.090508
# 5 -0.012275 -0.005735 -0.013514 0.000000 0.045482 0.000000
# 6 0.000000 0.000000 0.000000 -0.090508 0.000000 0.018006
#
#
# Mechanical properties :
#
#
# Convention : Reuss Voigt Hill
#
# Bulk Modulus (GPa) = 21.05897 41.86828 31.46362
# Shear Modulus (GPa) = 31.30210 21.05455 26.17833
#
# Velocity S-wave (km/s) = 3.81845 3.13165 3.49198
# Velocity P-wave (km/s) = 5.40833 5.70777 5.56007
#
# Compressibility (1/GPa) = 0.04748570
#
# Stress axis : x y z
#
# Youngs Moduli (GPa) = 58.18848 61.74457 47.88276
#
# Poissons Ratio (x) = -0.31241 0.14929
# Poissons Ratio (y) = -0.29442 0.25531
# Poissons Ratio (z) = 0.18142 0.32922
#
# Static dielectric constant tensor:
#      x y z
#    x 1.840910 0.000000 -0.044430 
#    y 0.000000 1.783240 0.000000 
#    z -0.044430 0.000000 1.855190 
# 
# From -- ./inp_files/78290.got.cif
#   From: 2010.05.17/outbox.cif.g08.bks.cpg/sg15_40_cif.got.tgz:78290.got - 2010.06.03 18:47:42.
