data_PCOD9301677
_publ_section_title
;
Structure prediction by ZEFSAII (Michael W. Deem and Ramdas Pophale) SiO2 
 PCOD9301677
Probable space group: C 2/C
;
_chemical_formula_sum "Si O2"
_cell_formula_units_Z 60
_cell_length_a 10.257152
_cell_length_b 24.625163
_cell_length_c 22.665316
_cell_angle_alpha 90.000000
_cell_angle_beta 33.001936
_cell_angle_gamma 90.000000
_cell_volume 3118.164654
_symmetry_space_group_name_H-M "C 2/C"
_symmetry_group_IT_number 15
_symmetry_cell_setting 'monoclinic'
loop_
_space_group_symop_operation_xyz
x,y,z
-x,y,1/2-z
-x,-y,-z
x,-y,1/2+z
1/2+x,1/2+y,z
1/2-x,1/2+y,1/2-z
1/2-x,1/2-y,-z
1/2+x,1/2-y,1/2+z
loop_
_atom_site_type_symbol
_atom_site_label
_atom_site_fract_x
_atom_site_fract_y
_atom_site_fract_z
Si Si1 0.845037 0.344443 0.686382
Si Si2 0.608206 0.439234 0.275063
Si Si3 0.340904 0.761901 0.863052
Si Si4 0.692927 0.707997 0.969372
Si Si5 0.500000 0.260370 0.750000
Si Si6 0.930962 0.389104 0.446072
Si Si7 0.999749 0.060116 0.178137
Si Si8 0.727128 0.851083 0.444277
O O1 0.670742 0.300464 0.722111
O O2 0.686575 0.393522 0.770613
O O3 0.002390 0.311127 0.672390
O O4 0.027049 0.365759 0.567732
O O5 0.500000 0.442083 0.250000
O O6 0.571826 0.499497 0.313499
O O7 0.450375 0.391761 0.364240
O O8 0.883860 0.423218 0.163374
O O9 0.500000 0.737145 0.750000
O O10 0.301692 0.711705 0.922499
O O11 0.085335 0.784675 0.940024
O O12 0.776173 0.650628 0.964017
O O13 0.846168 0.724941 0.853946
O O14 0.750000 0.750000 0.000000
O O15 0.755079 0.424920 0.553178
O O16 0.098284 0.356137 0.429141
O O17 0.000000 0.063252 0.250000
#
# Coordination Sequence:
#
# PCOD9301677 Si02
#       8
#     8   8   8   8   4   8   8   8
#     4  12  23  38  61  90 122 157 202 247 299 363
#     4   9  23  34  60  90 117 159 195 254 309 358
#     4  12  24  38  60  90 126 161 198 248 303 367
#     4  12  24  40  62  90 127 169 200 246 307 373
#     4  12  24  40  62  92 128 168 198 242 306 372
#     4  11  21  40  60  88 124 158 202 248 307 367
#     4  11  21  38  61  88 121 158 201 249 308 364
#     4  11  21  38  58  90 126 156 195 247 311 361
#
# _framework density 19.242089
#
# number of rings (size 3 to 8) (size 9 to 14) (size 15 to 20)
#    0.000    0.800    4.667    4.000    3.733    1.600 
#    0.000    0.000    0.000    0.800    5.200    0.000 
#    0.000    0.000    0.000    0.000    0.000    0.000 
#
# Total GULP energy -167655.115575 kJ/mol
# GULP energy per Si atom -5588.503852 kJ/mol
# Density = 1.919829 g / cm^3
# Si number density = 19.242089 Si / 1000 Ang^3
#
#
#
# Elastic Constant Matrix: (Units=GPa)
#
#
# Indices 1 2 3 4 5 6 
#
# 1 56.0535 33.8583 31.1295 0.0025 -20.1510 0.0003
# 2 33.8583 119.3518 49.6898 0.0007 -22.6985 0.0018
# 3 31.1295 49.6898 145.0709 0.0015 -27.3999 0.0101
# 4 0.0025 0.0007 0.0015 29.6242 0.0007 -3.8125
# 5 -20.1510 -22.6985 -27.3999 0.0007 23.2483 0.0018
# 6 0.0003 0.0018 0.0101 -3.8125 0.0018 7.1824
#
#
#
# Elastic Compliance Matrix: (Units=1/GPa)
#
#
# Indices 1 2 3 4 5 6 
#
# 1 0.027498 -0.003769 -0.001033 -0.000003 0.018938 -0.000005
# 2 -0.003769 0.011325 -0.002057 0.000000 0.005366 -0.000001
# 3 -0.001033 -0.002057 0.009353 -0.000003 0.008120 -0.000016
# 4 -0.000003 0.000000 -0.000003 0.036231 -0.000009 0.019232
# 5 0.018938 0.005366 0.008120 -0.000009 0.074237 -0.000037
# 6 -0.000005 -0.000001 -0.000016 0.019232 -0.000037 0.149438
#
#
# Mechanical properties :
#
#
# Convention : Reuss Voigt Hill
#
# Bulk Modulus (GPa) = 29.02054 61.09237 45.05645
# Shear Modulus (GPa) = 15.00215 25.73089 20.36652
#
# Velocity S-wave (km/s) = 2.79526 3.66077 3.25689
# Velocity P-wave (km/s) = 5.05297 7.04887 6.13266
#
# Compressibility (1/GPa) = 0.03445835
#
# Stress axis : x y z
#
# Youngs Moduli (GPa) = 36.36564 88.30332 106.91909
#
# Poissons Ratio (x) = 0.33285 0.11043
# Poissons Ratio (y) = 0.13707 0.21989
# Poissons Ratio (z) = 0.03756 0.18161
#
# Static dielectric constant tensor:
#      x y z
#    x 1.671330 0.000000 0.015250 
#    y 0.000000 1.688360 0.000000 
#    z 0.015250 0.000000 1.697470 
# 
# From -- ./inp_files/234567.got.cif
#   From: 2010.05.17/outbox.cif.g08.bks.cpg/sg15_118_cif.got.tgz:234567.got - 2010.06.03 18:47:42.
