data_PCOD9301574
_publ_section_title
;
Structure prediction by ZEFSAII (Michael W. Deem and Ramdas Pophale) SiO2 
 PCOD9301574
Probable space group: C 2/C
;
_chemical_formula_sum "Si O2"
_cell_formula_units_Z 60
_cell_length_a 22.224167
_cell_length_b 11.712513
_cell_length_c 15.701076
_cell_angle_alpha 90.000000
_cell_angle_beta 127.859063
_cell_angle_gamma 90.000000
_cell_volume 3226.782251
_symmetry_space_group_name_H-M "C 2/C"
_symmetry_group_IT_number 15
_symmetry_cell_setting 'monoclinic'
loop_
_space_group_symop_operation_xyz
x,y,z
-x,y,1/2-z
-x,-y,-z
x,-y,1/2+z
1/2+x,1/2+y,z
1/2-x,1/2+y,1/2-z
1/2-x,1/2-y,-z
1/2+x,1/2-y,1/2+z
loop_
_atom_site_type_symbol
_atom_site_label
_atom_site_fract_x
_atom_site_fract_y
_atom_site_fract_z
Si Si1 0.965558 0.668284 0.858888
Si Si2 0.101404 0.616632 0.097861
Si Si3 0.169231 0.365544 0.154110
Si Si4 0.000000 0.852116 0.750000
Si Si5 0.174646 0.091939 0.404220
Si Si6 0.280527 0.130166 0.993164
Si Si7 0.774435 0.229029 0.884448
Si Si8 0.423562 0.935412 0.735171
O O1 0.900495 0.707258 0.867885
O O2 0.999044 0.768544 0.831080
O O3 0.930718 0.569770 0.767445
O O4 0.029303 0.611462 0.973120
O O5 0.142550 0.495568 0.132000
O O6 0.157596 0.706616 0.104166
O O7 0.081157 0.633280 0.179654
O O8 0.235524 0.347855 0.279200
O O9 0.191056 0.342516 0.077065
O O10 0.917611 0.914551 0.682441
O O11 0.195646 0.152842 0.511783
O O12 0.213913 0.177927 0.369340
O O13 0.217107 0.970194 0.435375
O O14 0.350051 0.086167 0.112874
O O15 0.250000 0.250000 0.000000
O O16 0.500000 0.906431 0.750000
#
# Coordination Sequence:
#
# PCOD9301574 Si02
#       8
#     8   8   8   4   8   8   8   8
#     4  11  21  36  63 101 133 166 215 281 334 393
#     4  11  21  37  60  96 135 168 218 275 335 397
#     4  11  22  37  61  94 130 169 219 272 332 396
#     4  12  22  40  68 102 138 170 218 280 348 404
#     4  11  24  42  68  96 135 173 223 276 345 400
#     4  12  26  46  66  95 134 183 224 276 337 413
#     4  11  22  38  66  98 129 174 219 281 337 399
#     4  11  22  37  65  98 132 173 220 280 338 394
#
# _framework density 18.594376
#
# number of rings (size 3 to 8) (size 9 to 14) (size 15 to 20)
#    0.000    0.800    4.667    5.600    1.867    0.000 
#    1.200    0.000    0.000    1.600    0.000    0.000 
#    0.000    0.000    0.000    0.000    0.000    0.000 
#
# Total GULP energy -167502.925445 kJ/mol
# GULP energy per Si atom -5583.430848 kJ/mol
# Density = 1.855205 g / cm^3
# Si number density = 18.594376 Si / 1000 Ang^3
#
#
#
# Elastic Constant Matrix: (Units=GPa)
#
#
# Indices 1 2 3 4 5 6 
#
# 1 150.0337 51.2683 64.8831 0.0000 -15.6160 0.0000
# 2 51.2683 56.9073 42.8815 0.0000 1.6366 0.0000
# 3 64.8831 42.8815 139.4197 0.0000 2.9734 0.0000
# 4 0.0000 0.0000 0.0000 23.8546 0.0000 5.3347
# 5 -15.6160 1.6366 2.9734 0.0000 46.3516 0.0000
# 6 0.0000 0.0000 0.0000 5.3347 0.0000 16.8265
#
#
#
# Elastic Compliance Matrix: (Units=1/GPa)
#
#
# Indices 1 2 3 4 5 6 
#
# 1 0.011015 -0.007958 -0.002768 0.000000 0.004170 0.000000
# 2 -0.007958 0.028629 -0.005030 0.000000 -0.003369 0.000000
# 3 -0.002768 -0.005030 0.010037 0.000000 -0.001399 0.000000
# 4 0.000000 0.000000 0.000000 0.045120 0.000000 -0.014305
# 5 0.004170 -0.003369 -0.001399 0.000000 0.023188 0.000000
# 6 0.000000 0.000000 0.000000 -0.014305 0.000000 0.063965
#
#
# Mechanical properties :
#
#
# Convention : Reuss Voigt Hill
#
# Bulk Modulus (GPa) = 55.03458 73.82516 64.42987
# Shear Modulus (GPa) = 22.77659 29.89509 26.33584
#
# Velocity S-wave (km/s) = 3.50368 4.01402 3.76750
# Velocity P-wave (km/s) = 6.78450 7.82766 7.32467
#
# Compressibility (1/GPa) = 0.01817040
#
# Stress axis : x y z
#
# Youngs Moduli (GPa) = 90.78127 34.92906 99.62680
#
# Poissons Ratio (x) = 0.27798 0.27572
# Poissons Ratio (y) = 0.72248 0.50113
# Poissons Ratio (z) = 0.25124 0.17569
#
# Static dielectric constant tensor:
#      x y z
#    x 1.703220 0.000000 -0.008240 
#    y 0.000000 1.619510 0.000000 
#    z -0.008240 0.000000 1.701830 
# 
# From -- ./inp_files/167695.got.cif
#   From: 2010.05.17/outbox.cif.g08.bks.cpg/sg15_84_cif.got.tgz:167695.got - 2010.06.03 18:47:42.
