data_PCOD9301435
_publ_section_title
;
Structure prediction by ZEFSAII (Michael W. Deem and Ramdas Pophale) SiO2 
 PCOD9301435
Probable space group: C 2/C
;
_chemical_formula_sum "Si O2"
_cell_formula_units_Z 56
_cell_length_a 17.619271
_cell_length_b 9.356635
_cell_length_c 28.425188
_cell_angle_alpha 90.000000
_cell_angle_beta 141.576638
_cell_angle_gamma 90.000000
_cell_volume 2912.253888
_symmetry_space_group_name_H-M "C 2/C"
_symmetry_group_IT_number 15
_symmetry_cell_setting 'monoclinic'
loop_
_space_group_symop_operation_xyz
x,y,z
-x,y,1/2-z
-x,-y,-z
x,-y,1/2+z
1/2+x,1/2+y,z
1/2-x,1/2+y,1/2-z
1/2-x,1/2-y,-z
1/2+x,1/2-y,1/2+z
loop_
_atom_site_type_symbol
_atom_site_label
_atom_site_fract_x
_atom_site_fract_y
_atom_site_fract_z
Si Si1 0.193289 0.135089 0.143392
Si Si2 0.946132 0.249150 0.176562
Si Si3 0.036902 0.661788 0.507369
Si Si4 0.972098 0.048828 0.100353
Si Si5 0.464635 0.063246 0.286796
Si Si6 0.822443 0.871811 0.436556
Si Si7 0.605300 0.229876 0.433789
O O1 0.100334 0.093291 0.139524
O O2 0.330823 0.129418 0.228783
O O3 0.184689 0.011058 0.099644
O O4 0.144051 0.277520 0.093539
O O5 0.809873 0.303264 0.121450
O O6 0.000000 0.180828 0.250000
O O7 0.947360 0.142647 0.133938
O O8 0.027403 0.390918 0.205672
O O9 0.074718 0.676520 0.471419
O O10 0.000000 0.500000 0.500000
O O11 0.920936 0.763882 0.461927
O O12 0.961129 0.881765 0.105301
O O13 0.873162 0.083186 0.011924
O O14 0.500000 0.096959 0.250000
O O15 0.557436 0.125240 0.370012
O O16 0.750000 0.250000 0.500000
#
# Coordination Sequence:
#
# PCOD9301435 Si02
#       7
#     8   8   8   8   8   8   8
#     4  11  21  46  68  90 136 174 216 275 339 400
#     4  11  24  42  66  96 130 172 227 275 329 407
#     4  11  25  42  66 103 127 175 223 276 334 405
#     4  11  24  40  66  99 125 174 224 272 337 393
#     4  11  24  42  66  94 130 179 219 268 339 398
#     4  11  20  45  70  88 132 173 221 271 335 402
#     4  12  25  42  66  96 138 173 219 274 337 402
#
# _framework density 19.229092999999999
#
# number of rings (size 3 to 8) (size 9 to 14) (size 15 to 20)
#    0.000    0.857    5.714    3.000    6.000    2.857 
#    2.571    0.000    0.000    0.000    0.000    0.000 
#    0.000    0.000    0.000    0.000    0.000    0.000 
#
# Total GULP energy -156574.178929 kJ/mol
# GULP energy per Si atom -5591.934962 kJ/mol
# Density = 1.918533 g / cm^3
# Si number density = 19.229093 Si / 1000 Ang^3
#
#
#
# Elastic Constant Matrix: (Units=GPa)
#
#
# Indices 1 2 3 4 5 6 
#
# 1 80.8898 35.0664 16.2741 0.0000 -10.4016 0.0000
# 2 35.0664 80.0754 18.1239 0.0000 -17.0398 0.0000
# 3 16.2741 18.1239 66.4669 0.0000 5.5615 0.0000
# 4 0.0000 0.0000 0.0000 8.9132 0.0000 1.3131
# 5 -10.4016 -17.0398 5.5615 0.0000 38.2463 0.0000
# 6 0.0000 0.0000 0.0000 1.3131 0.0000 26.5528
#
#
#
# Elastic Compliance Matrix: (Units=1/GPa)
#
#
# Indices 1 2 3 4 5 6 
#
# 1 0.015652 -0.005892 -0.002391 0.000000 0.001980 0.000000
# 2 -0.005892 0.017365 -0.003853 0.000000 0.006694 0.000000
# 3 -0.002391 -0.003853 0.017087 0.000000 -0.004851 0.000000
# 4 0.000000 0.000000 0.000000 0.113016 0.000000 -0.005589
# 5 0.001980 0.006694 -0.004851 0.000000 0.030373 0.000000
# 6 0.000000 0.000000 0.000000 -0.005589 0.000000 0.037937
#
#
# Mechanical properties :
#
#
# Convention : Reuss Voigt Hill
#
# Bulk Modulus (GPa) = 38.71088 40.70677 39.70883
# Shear Modulus (GPa) = 18.91696 25.27365 22.09530
#
# Velocity S-wave (km/s) = 3.13991 3.62932 3.39345
# Velocity P-wave (km/s) = 5.77239 6.22719 6.00410
#
# Compressibility (1/GPa) = 0.02583253
#
# Stress axis : x y z
#
# Youngs Moduli (GPa) = 63.88796 57.58739 58.52389
#
# Poissons Ratio (x) = 0.33930 0.13996
# Poissons Ratio (y) = 0.37642 0.22546
# Poissons Ratio (z) = 0.15279 0.22186
#
# Static dielectric constant tensor:
#      x y z
#    x 1.657350 0.000000 0.015860 
#    y 0.000000 1.660660 0.000000 
#    z 0.015860 0.000000 1.666920 
# 
# From -- ./inp_files/298570.got.cif
#   From: 2010.05.17/outbox.cif.g08.bks.cpg/sg15_150_cif.got.tgz:298570.got - 2010.06.03 18:47:42.
