data_PCOD9301355
_publ_section_title
;
Structure prediction by ZEFSAII (Michael W. Deem and Ramdas Pophale) SiO2 
 PCOD9301355
Probable space group: C 2/C
;
_chemical_formula_sum "Si O2"
_cell_formula_units_Z 48
_cell_length_a 9.839701
_cell_length_b 15.444794
_cell_length_c 33.697131
_cell_angle_alpha 90.000000
_cell_angle_beta 26.584644
_cell_angle_gamma 90.000000
_cell_volume 2291.758449
_symmetry_space_group_name_H-M "C 2/C"
_symmetry_group_IT_number 15
_symmetry_cell_setting 'monoclinic'
loop_
_space_group_symop_operation_xyz
x,y,z
-x,y,1/2-z
-x,-y,-z
x,-y,1/2+z
1/2+x,1/2+y,z
1/2-x,1/2+y,1/2-z
1/2-x,1/2-y,-z
1/2+x,1/2-y,1/2+z
loop_
_atom_site_type_symbol
_atom_site_label
_atom_site_fract_x
_atom_site_fract_y
_atom_site_fract_z
Si Si1 0.313118 0.165825 0.149465
Si Si2 0.837440 0.775302 0.898600
Si Si3 0.222856 0.265822 0.606218
Si Si4 0.295549 0.512455 0.014284
Si Si5 0.807877 0.919979 0.646474
Si Si6 0.702709 0.131221 0.844661
O O1 0.238377 0.209815 0.127205
O O2 0.451399 0.230360 0.146010
O O3 0.000000 0.129578 0.250000
O O4 0.584376 0.096812 0.071665
O O5 0.975893 0.863256 0.881211
O O6 0.078445 0.699904 0.844853
O O7 0.538228 0.746436 0.000595
O O8 0.228902 0.353833 0.630847
O O9 0.207315 0.187921 0.641042
O O10 0.061086 0.433215 0.074837
O O11 0.500000 0.500000 0.000000
O O12 0.514123 0.500368 0.919308
O O13 0.500000 0.942141 0.750000
O O14 0.000000 0.085752 0.750000
#
# Coordination Sequence:
#
# PCOD9301355 Si02
#       6
#     8   8   8   8   8   8
#     4  12  25  40  63 100 137 172 207 269 334 382
#     4  11  21  39  67  95 128 164 223 266 319 381
#     4  11  20  42  66  95 126 172 217 261 321 387
#     4  12  24  43  64  94 131 173 217 264 322 384
#     4  11  21  41  68  93 124 174 220 262 319 391
#     4  11  21  41  68  94 123 171 221 262 308 391
#
# _framework density 20.944616
#
# number of rings (size 3 to 8) (size 9 to 14) (size 15 to 20)
#    0.000    0.667    5.000    6.000    0.000    0.667 
#    0.000    0.000    0.000    2.000    0.000    0.000 
#    0.000    0.000    0.000    0.000    0.000    0.000 
#
# Total GULP energy -134218.848206 kJ/mol
# GULP energy per Si atom -5592.452009 kJ/mol
# Density = 2.089694 g / cm^3
# Si number density = 20.944616 Si / 1000 Ang^3
#
#
#
# Elastic Constant Matrix: (Units=GPa)
#
#
# Indices 1 2 3 4 5 6 
#
# 1 164.1568 30.1731 41.7629 0.2940 4.1787 -3.8832
# 2 30.1731 47.7407 34.1054 -0.0297 5.9167 -0.9771
# 3 41.7629 34.1054 201.9349 -0.4033 0.1989 6.0756
# 4 0.2940 -0.0297 -0.4033 12.6254 -1.1284 26.6913
# 5 4.1787 5.9167 0.1989 -1.1284 23.5429 12.1087
# 6 -3.8832 -0.9771 6.0756 26.6913 12.1087 -308.9925
#
#
#
# Elastic Compliance Matrix: (Units=1/GPa)
#
#
# Indices 1 2 3 4 5 6 
#
# 1 0.007002 -0.003830 -0.000798 -0.000005 -0.000222 -0.000101
# 2 -0.003830 0.026732 -0.003707 0.000192 -0.005833 -0.000321
# 3 -0.000798 -0.003707 0.005737 -0.000072 0.000936 0.000165
# 4 -0.000005 0.000192 -0.000072 0.066977 0.000185 0.005791
# 5 -0.000222 -0.005833 0.000936 0.000185 0.043085 0.001744
# 6 -0.000101 -0.000321 0.000165 0.005791 0.001744 -0.002662
#
#
# Mechanical properties :
#
#
# Convention : Reuss Voigt Hill
#
# Bulk Modulus (GPa) = 43.85742 69.54612 56.70177
# Shear Modulus (GPa) = 29.21570 -34.04543 -2.41486
#
# Velocity S-wave (km/s) = 3.73889 -4.03612 -1.07493
# Velocity P-wave (km/s) = 6.29478 3.39949 5.05869
#
# Compressibility (1/GPa) = 0.02280116
#
# Stress axis : x y z
#
# Youngs Moduli (GPa) = 142.81654 37.40896 174.30180
#
# Poissons Ratio (x) = 0.14327 0.13910
# Poissons Ratio (y) = 0.54696 0.64612
# Poissons Ratio (z) = 0.11397 0.13867
#
# Static dielectric constant tensor:
#      x y z
#    x 1.729500 0.000200 -0.003920 
#    y 0.000200 1.786790 -0.000090 
#    z -0.003920 -0.000090 1.769790 
# 
# From -- ./inp_files/182415.got.cif
#   From: 2010.05.17/outbox.cif.g08.bks.cpg/sg15_92_cif.got.tgz:182415.got - 2010.06.03 18:47:42.
