data_PCOD9301118
_publ_section_title
;
Structure prediction by ZEFSAII (Michael W. Deem and Ramdas Pophale) SiO2 
 PCOD9301118
Probable space group: C 2/C
;
_chemical_formula_sum "Si O2"
_cell_formula_units_Z 40
_cell_length_a 19.407060
_cell_length_b 23.291123
_cell_length_c 9.169331
_cell_angle_alpha 90.000000
_cell_angle_beta 32.017750
_cell_angle_gamma 90.000000
_cell_volume 2197.418491
_symmetry_space_group_name_H-M "C 2/C"
_symmetry_group_IT_number 15
_symmetry_cell_setting 'monoclinic'
loop_
_space_group_symop_operation_xyz
x,y,z
-x,y,1/2-z
-x,-y,-z
x,-y,1/2+z
1/2+x,1/2+y,z
1/2-x,1/2+y,1/2-z
1/2-x,1/2-y,-z
1/2+x,1/2-y,1/2+z
loop_
_atom_site_type_symbol
_atom_site_label
_atom_site_fract_x
_atom_site_fract_y
_atom_site_fract_z
Si Si1 0.000000 0.331545 0.250000
Si Si2 0.372110 0.224219 0.700715
Si Si3 0.654166 0.122192 0.964127
Si Si4 0.500000 0.685761 0.750000
Si Si5 0.260168 0.884381 0.855464
Si Si6 0.104921 0.497268 0.940885
O O1 0.039461 0.298929 0.326807
O O2 0.869351 0.362556 0.544102
O O3 0.313924 0.173757 0.702133
O O4 0.450487 0.271076 0.465635
O O5 0.250000 0.250000 0.000000
O O6 0.667958 0.058240 0.872662
O O7 0.500000 0.128073 0.250000
O O8 0.707813 0.128016 0.031517
O O9 0.622870 0.645396 0.568812
O O10 0.281005 0.952742 0.799658
O O11 0.000000 0.478078 0.250000
O O12 0.000000 0.500000 0.000000
#
# Coordination Sequence:
#
# PCOD9301118 Si02
#       6
#     4   8   8   4   8   8
#     4  12  22  38  69  95 126 174 234 272 314 402
#     4  12  25  42  65  99 134 177 221 272 335 400
#     4  11  22  40  65  97 128 165 226 285 320 376
#     4  12  28  44  63  97 148 178 212 274 350 394
#     4  12  24  42  66  99 135 174 219 277 337 394
#     4  11  20  37  69  99 122 161 226 283 322 379
#
# _framework density 18.203178000000001
#
# number of rings (size 3 to 8) (size 9 to 14) (size 15 to 20)
#    0.000    0.400   10.000    0.000    2.800    1.600 
#    0.000    1.000    0.000    0.000    0.000    0.000 
#    0.000    0.000    0.000    0.000    0.000    0.000 
#
# Total GULP energy -111370.630561 kJ/mol
# GULP energy per Si atom -5568.531528 kJ/mol
# Density = 1.816175 g / cm^3
# Si number density = 18.203178 Si / 1000 Ang^3
#
#
#
# Elastic Constant Matrix: (Units=GPa)
#
#
# Indices 1 2 3 4 5 6 
#
# 1 150.5325 71.0674 60.7260 0.0000 13.8509 0.0002
# 2 71.0674 135.0136 81.5295 0.0002 6.5439 -0.0007
# 3 60.7260 81.5295 121.8182 0.0006 7.4066 -0.0015
# 4 0.0000 0.0002 0.0006 42.4009 -0.0001 9.1512
# 5 13.8509 6.5439 7.4066 -0.0001 32.6184 0.0002
# 6 0.0002 -0.0007 -0.0015 9.1512 0.0002 25.7687
#
#
#
# Elastic Compliance Matrix: (Units=1/GPa)
#
#
# Indices 1 2 3 4 5 6 
#
# 1 0.009442 -0.003515 -0.002183 0.000000 -0.002808 0.000000
# 2 -0.003515 0.013751 -0.007477 0.000000 0.000432 0.000000
# 3 -0.002183 -0.007477 0.014352 0.000000 -0.000832 0.000001
# 4 0.000000 0.000000 0.000000 0.025542 0.000000 -0.009071
# 5 -0.002808 0.000432 -0.000832 0.000000 0.031952 0.000000
# 6 0.000000 0.000000 0.000001 -0.009071 0.000000 0.042028
#
#
# Mechanical properties :
#
#
# Convention : Reuss Voigt Hill
#
# Bulk Modulus (GPa) = 89.33655 92.66779 91.00217
# Shear Modulus (GPa) = 29.91309 33.09369 31.50339
#
# Velocity S-wave (km/s) = 4.05815 4.26845 4.16463
# Velocity P-wave (km/s) = 8.43458 8.67818 8.55725
#
# Compressibility (1/GPa) = 0.01119363
#
# Stress axis : x y z
#
# Youngs Moduli (GPa) = 105.91102 72.71991 69.67602
#
# Poissons Ratio (x) = 0.25565 0.15212
# Poissons Ratio (y) = 0.37233 0.52098
# Poissons Ratio (z) = 0.23122 0.54374
#
# Static dielectric constant tensor:
#      x y z
#    x 1.538990 0.000000 0.000620 
#    y 0.000000 1.539460 0.000000 
#    z 0.000620 0.000000 1.586890 
# 
# From -- ./inp_files/23535.got.cif
#   From: 2010.05.17/outbox.cif.g08.bks.cpg/sg15_12_cif.got.tgz:23535.got - 2010.06.03 18:47:42.
