data_PCOD9301731
_publ_section_title
;
Structure prediction by ZEFSAII (Michael W. Deem and Ramdas Pophale) SiO2 
 PCOD9301731
Probable space group: C 2/C
;
_chemical_formula_sum "Si O2"
_cell_formula_units_Z 56
_cell_length_a 24.502400
_cell_length_b 16.696872
_cell_length_c 8.472071
_cell_angle_alpha 90.000000
_cell_angle_beta 126.166009
_cell_angle_gamma 90.000000
_cell_volume 2798.169109
_symmetry_space_group_name_H-M "C 2/C"
_symmetry_group_IT_number 15
_symmetry_cell_setting 'monoclinic'
loop_
_space_group_symop_operation_xyz
x,y,z
-x,y,1/2-z
-x,-y,-z
x,-y,1/2+z
1/2+x,1/2+y,z
1/2-x,1/2+y,1/2-z
1/2-x,1/2-y,-z
1/2+x,1/2-y,1/2+z
loop_
_atom_site_type_symbol
_atom_site_label
_atom_site_fract_x
_atom_site_fract_y
_atom_site_fract_z
Si Si1 0.743176 0.030747 0.410870
Si Si2 0.670472 0.749981 0.270946
Si Si3 0.038289 0.165916 0.980144
Si Si4 0.917507 0.872812 0.447519
Si Si5 0.780208 0.381264 0.960699
Si Si6 0.763751 0.181812 0.653496
Si Si7 0.603065 0.473422 0.778120
O O1 0.726449 0.075944 0.220035
O O2 0.739997 0.097167 0.541951
O O3 0.701914 0.951959 0.387181
O O4 0.819104 0.994526 0.548054
O O5 0.708799 0.665523 0.367137
O O6 0.669557 0.807275 0.422215
O O7 0.718529 0.793179 0.224931
O O8 0.597002 0.731724 0.082121
O O9 0.000000 0.165841 0.750000
O O10 0.981787 0.181165 0.018295
O O11 0.078844 0.083974 0.093186
O O12 0.844249 0.830329 0.319276
O O13 0.922231 0.924360 0.614359
O O14 0.922685 0.939385 0.316691
O O15 0.750000 0.250000 0.500000
#
# Coordination Sequence:
#
# PCOD9301731 Si02
#       7
#     8   8   8   8   8   8   8
#     4  11  21  38  66  95 128 171 220 268 331 395
#     4  11  24  42  62  92 134 171 220 280 328 369
#     4  12  25  41  59  89 134 182 215 253 319 394
#     4  11  24  38  61  86 129 175 219 250 320 388
#     4  11  22  39  63  91 128 167 216 277 324 378
#     4  11  22  38  62  93 128 169 221 278 323 385
#     4  11  22  39  58  89 130 175 214 253 302 399
#
# _framework density 20.013086999999999
#
# number of rings (size 3 to 8) (size 9 to 14) (size 15 to 20)
#    0.000    0.857    2.857    6.000    4.000    0.000 
#    0.000    0.000    0.000    0.000    0.000    9.000 
#    0.000    0.000    0.000    0.000    0.000    0.000 
#
# Total GULP energy -156259.372498 kJ/mol
# GULP energy per Si atom -5580.691875 kJ/mol
# Density = 1.996754 g / cm^3
# Si number density = 20.013087 Si / 1000 Ang^3
#
#
#
# Elastic Constant Matrix: (Units=GPa)
#
#
# Indices 1 2 3 4 5 6 
#
# 1 86.7524 58.0396 59.0207 0.0000 5.9752 0.0000
# 2 58.0396 114.5057 54.4386 0.0000 -8.4957 0.0000
# 3 59.0207 54.4386 137.1957 0.0000 -3.8957 0.0000
# 4 0.0000 0.0000 0.0000 29.7880 0.0000 -6.2814
# 5 5.9752 -8.4957 -3.8957 0.0000 30.4745 0.0000
# 6 0.0000 0.0000 0.0000 -6.2814 0.0000 34.1814
#
#
#
# Elastic Compliance Matrix: (Units=1/GPa)
#
#
# Indices 1 2 3 4 5 6 
#
# 1 0.022249 -0.008862 -0.006272 0.000000 -0.007635 0.000000
# 2 -0.008862 0.014481 -0.001776 0.000000 0.005548 0.000000
# 3 -0.006272 -0.001776 0.010752 0.000000 0.002109 0.000000
# 4 0.000000 0.000000 0.000000 0.034924 0.000000 0.006418
# 5 -0.007635 0.005548 0.002109 0.000000 0.036127 0.000000
# 6 0.000000 0.000000 0.000000 0.006418 0.000000 0.030435
#
#
# Mechanical properties :
#
#
# Convention : Reuss Voigt Hill
#
# Bulk Modulus (GPa) = 73.19691 75.71683 74.45687
# Shear Modulus (GPa) = 26.68933 30.01912 28.35422
#
# Velocity S-wave (km/s) = 3.65580 3.87715 3.76810
# Velocity P-wave (km/s) = 7.38064 7.61307 7.49775
#
# Compressibility (1/GPa) = 0.01366178
#
# Stress axis : x y z
#
# Youngs Moduli (GPa) = 44.94668 69.05570 93.01013
#
# Poissons Ratio (x) = 0.61197 0.58332
# Poissons Ratio (y) = 0.39831 0.16520
# Poissons Ratio (z) = 0.28189 0.12265
#
# Static dielectric constant tensor:
#      x y z
#    x 1.788840 0.000000 -0.036660 
#    y 0.000000 1.743630 0.000000 
#    z -0.036660 0.000000 1.775800 
# 
# From -- ./inp_files/62760.got.cif
#   From: 2010.05.17/outbox.cif.g08.bks.cpg/sg15_32_cif.got.tgz:62760.got - 2010.06.03 18:47:42.
