data_PCOD9301510
_publ_section_title
;
Structure prediction by ZEFSAII (Michael W. Deem and Ramdas Pophale) SiO2 
 PCOD9301510
Probable space group: C 2/C
;
_chemical_formula_sum "Si O2"
_cell_formula_units_Z 64
_cell_length_a 22.887041
_cell_length_b 11.627360
_cell_length_c 21.236683
_cell_angle_alpha 90.000000
_cell_angle_beta 39.131720
_cell_angle_gamma 90.000000
_cell_volume 3566.640272
_symmetry_space_group_name_H-M "C 2/C"
_symmetry_group_IT_number 15
_symmetry_cell_setting 'monoclinic'
loop_
_space_group_symop_operation_xyz
x,y,z
-x,y,1/2-z
-x,-y,-z
x,-y,1/2+z
1/2+x,1/2+y,z
1/2-x,1/2+y,1/2-z
1/2-x,1/2-y,-z
1/2+x,1/2-y,1/2+z
loop_
_atom_site_type_symbol
_atom_site_label
_atom_site_fract_x
_atom_site_fract_y
_atom_site_fract_z
Si Si1 0.648278 0.131321 0.393073
Si Si2 0.185286 0.538153 0.227578
Si Si3 0.605273 0.547870 0.475206
Si Si4 0.808404 0.381229 0.097487
Si Si5 0.869060 0.249680 0.805171
Si Si6 0.582051 0.729502 0.591491
Si Si7 0.675031 0.211389 0.772046
Si Si8 0.498021 0.320274 0.957982
O O1 0.639020 0.088610 0.328977
O O2 0.732406 0.221854 0.323353
O O3 0.557214 0.201739 0.487871
O O4 0.673984 0.017326 0.410895
O O5 0.296601 0.544983 0.142207
O O6 0.158945 0.622547 0.193513
O O7 0.161891 0.404210 0.242809
O O8 0.615660 0.610734 0.532640
O O9 0.566724 0.420322 0.514359
O O10 0.534748 0.625612 0.493111
O O11 0.707753 0.338543 0.157511
O O12 0.818841 0.329179 0.159516
O O13 0.881554 0.325366 0.987903
O O14 0.875549 0.245049 0.874929
O O15 0.971254 0.226826 0.691999
O O16 0.587748 0.295121 0.841424
#
# Coordination Sequence:
#
# PCOD9301510 Si02
#       8
#     8   8   8   8   8   8   8   8
#     4  11  22  35  55  88 122 148 187 225 296 346
#     4  11  21  36  58  83 120 152 186 236 288 340
#     4  11  21  35  60  84 116 152 191 231 283 339
#     4  11  23  36  58  85 121 149 186 239 281 342
#     4  11  23  39  61  81 115 149 191 248 275 332
#     4  11  23  39  58  88 108 150 203 229 288 331
#     4  11  22  36  55  90 120 151 185 228 293 345
#     4  11  22  35  57  85 119 154 178 237 281 345
#
# _framework density 17.944057999999998
#
# number of rings (size 3 to 8) (size 9 to 14) (size 15 to 20)
#    0.000    1.000    6.250    1.125    3.500    1.000 
#    0.000    0.000    0.000    3.000    0.000    0.000 
#    0.000    0.000    0.000    0.000    0.000    0.000 
#
# Total GULP energy -178683.505140 kJ/mol
# GULP energy per Si atom -5583.859536 kJ/mol
# Density = 1.790322 g / cm^3
# Si number density = 17.944058 Si / 1000 Ang^3
#
#
#
# Elastic Constant Matrix: (Units=GPa)
#
#
# Indices 1 2 3 4 5 6 
#
# 1 50.1943 27.9398 17.5184 0.0000 8.6586 0.0000
# 2 27.9398 91.6725 6.1012 0.0000 9.1822 0.0000
# 3 17.5184 6.1012 60.5672 0.0000 -1.2464 0.0000
# 4 0.0000 0.0000 0.0000 29.5960 0.0000 -6.9601
# 5 8.6586 9.1822 -1.2464 0.0000 22.3651 0.0000
# 6 0.0000 0.0000 0.0000 -6.9601 0.0000 22.7944
#
#
#
# Elastic Compliance Matrix: (Units=1/GPa)
#
#
# Indices 1 2 3 4 5 6 
#
# 1 0.027994 -0.007198 -0.007543 0.000000 -0.008303 0.000000
# 2 -0.007198 0.013322 0.000686 0.000000 -0.002644 0.000000
# 3 -0.007543 0.000686 0.018699 0.000000 0.003681 0.000000
# 4 0.000000 0.000000 0.000000 0.036402 0.000000 0.011115
# 5 -0.008303 -0.002644 0.003681 0.000000 0.049218 0.000000
# 6 0.000000 0.000000 0.000000 0.011115 0.000000 0.047264
#
#
# Mechanical properties :
#
#
# Convention : Reuss Voigt Hill
#
# Bulk Modulus (GPa) = 31.34424 33.95029 32.64726
# Shear Modulus (GPa) = 21.58481 25.00941 23.29711
#
# Velocity S-wave (km/s) = 3.47204 3.73734 3.60713
# Velocity P-wave (km/s) = 5.79475 6.13064 5.96506
#
# Compressibility (1/GPa) = 0.03190379
#
# Stress axis : x y z
#
# Youngs Moduli (GPa) = 35.72167 75.06641 53.47901
#
# Poissons Ratio (x) = 0.54036 0.40338
# Poissons Ratio (y) = 0.25714 -0.03667
# Poissons Ratio (z) = 0.26944 -0.05147
#
# Static dielectric constant tensor:
#      x y z
#    x 1.609190 0.000000 -0.022610 
#    y 0.000000 1.616680 0.000000 
#    z -0.022610 0.000000 1.621660 
# 
# From -- ./inp_files/252562.got.cif
#   From: 2010.05.17/outbox.cif.g08.bks.cpg/sg15_127_cif.got.tgz:252562.got - 2010.06.03 18:47:42.
