data_PCOD9301382
_publ_section_title
;
Structure prediction by ZEFSAII (Michael W. Deem and Ramdas Pophale) SiO2 
 PCOD9301382
Probable space group: C 2/C
;
_chemical_formula_sum "Si O2"
_cell_formula_units_Z 40
_cell_length_a 13.916483
_cell_length_b 14.062617
_cell_length_c 10.065187
_cell_angle_alpha 90.000000
_cell_angle_beta 126.897045
_cell_angle_gamma 90.000000
_cell_volume 1575.262995
_symmetry_space_group_name_H-M "C 2/C"
_symmetry_group_IT_number 15
_symmetry_cell_setting 'monoclinic'
loop_
_space_group_symop_operation_xyz
x,y,z
-x,y,1/2-z
-x,-y,-z
x,-y,1/2+z
1/2+x,1/2+y,z
1/2-x,1/2+y,1/2-z
1/2-x,1/2-y,-z
1/2+x,1/2-y,1/2+z
loop_
_atom_site_type_symbol
_atom_site_label
_atom_site_fract_x
_atom_site_fract_y
_atom_site_fract_z
Si Si1 0.128905 0.991996 0.178542
Si Si2 0.470094 0.782703 0.024654
Si Si3 0.849124 0.585747 0.222879
Si Si4 0.000000 0.430767 0.250000
Si Si5 0.285619 0.826746 0.414168
Si Si6 0.000000 0.117103 0.250000
O O1 0.180963 0.887365 0.255530
O O2 0.221733 0.054467 0.172074
O O3 0.892026 0.048270 0.201620
O O4 0.000000 0.000000 0.000000
O O5 0.424767 0.858636 0.096987
O O6 0.611454 0.790166 0.100062
O O7 0.461831 0.684110 0.095957
O O8 0.398005 0.819621 0.835828
O O9 0.930507 0.492522 0.300869
O O10 0.848849 0.597772 0.064324
O O11 0.250000 0.750000 0.500000
#
# Coordination Sequence:
#
# PCOD9301382 Si02
#       6
#     8   8   8   4   8   4
#     4  12  28  51  76 111 162 211 259 325 421 491
#     4  11  24  45  77 114 153 198 275 334 397 478
#     4  12  23  45  81 109 150 202 265 338 397 472
#     4  11  20  42  75 114 142 190 273 340 390 459
#     4  12  26  47  76 113 152 207 266 333 397 486
#     4  11  28  50  73 116 160 210 253 324 412 495
#
# _framework density 25.392586999999999
#
# number of rings (size 3 to 8) (size 9 to 14) (size 15 to 20)
#    0.000    0.400    4.000    4.200    2.800    0.800 
#    3.600    0.000    0.000    0.000    0.000    0.000 
#    0.000    0.000    0.000    0.000    0.000    0.000 
#
# Total GULP energy -111767.896065 kJ/mol
# GULP energy per Si atom -5588.394803 kJ/mol
# Density = 2.533479 g / cm^3
# Si number density = 25.392587 Si / 1000 Ang^3
#
#
#
# Elastic Constant Matrix: (Units=GPa)
#
#
# Indices 1 2 3 4 5 6 
#
# 1 159.4871 55.0760 30.0209 0.0000 4.9592 0.0000
# 2 55.0760 135.5928 43.4014 0.0000 8.1532 0.0000
# 3 30.0209 43.4014 148.5155 0.0000 -4.0038 0.0000
# 4 0.0000 0.0000 0.0000 34.1584 0.0000 -25.0009
# 5 4.9592 8.1532 -4.0038 0.0000 38.7724 0.0000
# 6 0.0000 0.0000 0.0000 -25.0009 0.0000 30.2430
#
#
#
# Elastic Compliance Matrix: (Units=1/GPa)
#
#
# Indices 1 2 3 4 5 6 
#
# 1 0.007362 -0.002740 -0.000699 0.000000 -0.000438 0.000000
# 2 -0.002740 0.009308 -0.002216 0.000000 -0.001836 0.000000
# 3 -0.000699 -0.002216 0.007558 0.000000 0.001336 0.000000
# 4 0.000000 0.000000 0.000000 0.074124 0.000000 0.061276
# 5 -0.000438 -0.001836 0.001336 0.000000 0.026371 0.000000
# 6 0.000000 0.000000 0.000000 0.061276 0.000000 0.083720
#
#
# Mechanical properties :
#
#
# Convention : Reuss Voigt Hill
#
# Bulk Modulus (GPa) = 77.41355 77.84358 77.62857
# Shear Modulus (GPa) = 22.31570 41.64125 31.97847
#
# Velocity S-wave (km/s) = 2.96772 4.05396 3.55260
# Velocity P-wave (km/s) = 6.50354 7.25502 6.88953
#
# Compressibility (1/GPa) = 0.01291763
#
# Stress axis : x y z
#
# Youngs Moduli (GPa) = 135.84123 107.43957 132.30818
#
# Poissons Ratio (x) = 0.29439 0.09250
# Poissons Ratio (y) = 0.37221 0.29314
# Poissons Ratio (z) = 0.09497 0.23804
#
# Static dielectric constant tensor:
#      x y z
#    x 2.019820 0.000000 0.042020 
#    y 0.000000 2.085890 0.000000 
#    z 0.042020 0.000000 2.143560 
# 
# From -- ./inp_files/96679.got.cif
#   From: 2010.05.17/outbox.cif.g08.bks.cpg/sg15_49_cif.got.tgz:96679.got - 2010.06.03 18:47:42.
