data_PCOD9301712
_publ_section_title
;
Structure prediction by ZEFSAII (Michael W. Deem and Ramdas Pophale) SiO2 
 PCOD9301712
Probable space group: C 2/C
;
_chemical_formula_sum "Si O2"
_cell_formula_units_Z 56
_cell_length_a 18.492091
_cell_length_b 17.768492
_cell_length_c 8.358704
_cell_angle_alpha 90.000000
_cell_angle_beta 77.550096
_cell_angle_gamma 90.000000
_cell_volume 2681.890614
_symmetry_space_group_name_H-M "C 2/C"
_symmetry_group_IT_number 15
_symmetry_cell_setting 'monoclinic'
loop_
_space_group_symop_operation_xyz
x,y,z
-x,y,1/2-z
-x,-y,-z
x,-y,1/2+z
1/2+x,1/2+y,z
1/2-x,1/2+y,1/2-z
1/2-x,1/2-y,-z
1/2+x,1/2-y,1/2+z
loop_
_atom_site_type_symbol
_atom_site_label
_atom_site_fract_x
_atom_site_fract_y
_atom_site_fract_z
Si Si1 0.313076 0.015812 0.534694
Si Si2 0.135720 0.201305 0.479680
Si Si3 0.171109 0.766686 0.327818
Si Si4 0.814499 0.342538 0.257430
Si Si5 0.557479 0.910653 0.090713
Si Si6 0.983791 0.745215 0.947517
Si Si7 0.256172 0.894683 0.758951
O O1 0.302763 0.081672 0.666098
O O2 0.297082 0.054767 0.373616
O O3 0.394897 0.977955 0.506478
O O4 0.256853 0.948411 0.604588
O O5 0.159417 0.202908 0.652865
O O6 0.163007 0.277448 0.378061
O O7 0.047666 0.208033 0.504948
O O8 0.178324 0.134615 0.366571
O O9 0.239371 0.812035 0.370193
O O10 0.195252 0.679781 0.296054
O O11 0.096451 0.774146 0.463034
O O12 0.880451 0.361077 0.345964
O O13 0.500000 0.939979 0.250000
O O14 0.484162 0.845085 0.489599
O O15 0.000000 0.751163 0.750000
#
# Coordination Sequence:
#
# PCOD9301712 Si02
#       7
#     8   8   8   8   8   8   8
#     4  12  22  40  60  95 129 169 211 258 318 379
#     4  11  21  42  64  93 127 167 220 267 311 374
#     4  11  22  40  66  95 119 174 221 263 313 369
#     4  11  21  38  64  89 131 166 217 266 307 386
#     4  11  23  39  57  94 135 170 201 255 326 386
#     4  11  23  40  61  94 131 162 210 266 323 370
#     4  11  23  38  65  94 126 170 215 260 314 379
#
# _framework density 20.880793000000001
#
# number of rings (size 3 to 8) (size 9 to 14) (size 15 to 20)
#    0.000    0.857    8.571    1.286    0.000    2.286 
#    2.571    0.000    0.000    0.857    3.714    0.000 
#    0.000    0.000    0.000    0.000    0.000    0.000 
#
# Total GULP energy -156520.850512 kJ/mol
# GULP energy per Si atom -5590.030375 kJ/mol
# Density = 2.083327 g / cm^3
# Si number density = 20.880793 Si / 1000 Ang^3
#
#
#
# Elastic Constant Matrix: (Units=GPa)
#
#
# Indices 1 2 3 4 5 6 
#
# 1 96.1039 30.6577 42.1829 0.0000 -27.6169 0.0000
# 2 30.6577 74.1966 44.7190 0.0000 -17.4798 0.0000
# 3 42.1829 44.7190 88.2782 0.0000 -29.6943 0.0000
# 4 0.0000 0.0000 0.0000 34.6042 0.0000 -0.8496
# 5 -27.6169 -17.4798 -29.6943 0.0000 46.0437 0.0000
# 6 0.0000 0.0000 0.0000 -0.8496 0.0000 30.4347
#
#
#
# Elastic Compliance Matrix: (Units=1/GPa)
#
#
# Indices 1 2 3 4 5 6 
#
# 1 0.014372 -0.002345 -0.003933 0.000000 0.005194 0.000000
# 2 -0.002345 0.019846 -0.008775 0.000000 0.000469 0.000000
# 3 -0.003933 -0.008775 0.020098 0.000000 0.007271 0.000000
# 4 0.000000 0.000000 0.000000 0.028918 0.000000 0.000807
# 5 0.005194 0.000469 0.007271 0.000000 0.029701 0.000000
# 6 0.000000 0.000000 0.000000 0.000807 0.000000 0.032880
#
#
# Mechanical properties :
#
#
# Convention : Reuss Voigt Hill
#
# Bulk Modulus (GPa) = 41.30380 54.85533 48.07956
# Shear Modulus (GPa) = 27.17528 31.61781 29.39655
#
# Velocity S-wave (km/s) = 3.61147 3.89550 3.75617
# Velocity P-wave (km/s) = 6.10033 6.82356 6.47206
#
# Compressibility (1/GPa) = 0.02421085
#
# Stress axis : x y z
#
# Youngs Moduli (GPa) = 69.57925 50.38843 49.75552
#
# Poissons Ratio (x) = 0.11814 0.19568
# Poissons Ratio (y) = 0.16313 0.43662
# Poissons Ratio (z) = 0.27364 0.44218
#
# Static dielectric constant tensor:
#      x y z
#    x 1.801200 0.000000 0.019190 
#    y 0.000000 1.751730 0.000000 
#    z 0.019190 0.000000 1.821720 
# 
# From -- ./inp_files/56479.got.cif
#   From: 2010.05.17/outbox.cif.g08.bks.cpg/sg15_29_cif.got.tgz:56479.got - 2010.06.03 18:47:42.
