data_PCOD9301459
_publ_section_title
;
Structure prediction by ZEFSAII (Michael W. Deem and Ramdas Pophale) SiO2 
 PCOD9301459
Probable space group: C 2/C
;
_chemical_formula_sum "Si O2"
_cell_formula_units_Z 64
_cell_length_a 14.680379
_cell_length_b 9.294335
_cell_length_c 23.121810
_cell_angle_alpha 90.000000
_cell_angle_beta 69.216690
_cell_angle_gamma 90.000000
_cell_volume 2949.552190
_symmetry_space_group_name_H-M "C 2/C"
_symmetry_group_IT_number 15
_symmetry_cell_setting 'monoclinic'
loop_
_space_group_symop_operation_xyz
x,y,z
-x,y,1/2-z
-x,-y,-z
x,-y,1/2+z
1/2+x,1/2+y,z
1/2-x,1/2+y,1/2-z
1/2-x,1/2-y,-z
1/2+x,1/2-y,1/2+z
loop_
_atom_site_type_symbol
_atom_site_label
_atom_site_fract_x
_atom_site_fract_y
_atom_site_fract_z
Si Si1 0.939851 0.581340 0.562972
Si Si2 0.838491 0.410934 0.300991
Si Si3 0.607878 0.086089 0.316159
Si Si4 0.107878 0.086089 0.816159
Si Si5 0.838491 0.089066 0.300991
Si Si6 0.758723 0.915538 0.066632
Si Si7 0.241277 0.415538 0.933368
Si Si8 0.939851 0.918660 0.562972
O O1 0.947956 0.510127 0.624307
O O2 0.829929 0.542889 0.569185
O O3 0.960999 0.750000 0.559320
O O4 0.000000 0.500000 0.500000
O O5 0.892779 0.521925 0.247904
O O6 0.723064 0.415909 0.309005
O O7 0.873343 0.250000 0.280022
O O8 0.835054 0.431866 0.370868
O O9 0.574354 0.250000 0.325751
O O10 0.723064 0.084091 0.309005
O O11 0.107221 0.021925 0.752096
O O12 0.052044 0.989872 0.875693
O O13 0.835053 0.068134 0.370868
O O14 0.750000 0.921436 0.000000
O O15 0.829929 0.042889 0.069185
O O16 0.795324 0.750000 0.071172
O O17 0.000000 0.000000 0.500000
#
# Coordination Sequence:
#
# PCOD9301459 Si02
#       8
#     8   8   8   8   8   8   8   8
#     4  11  21  33  50  72  99 129 163 201 243 289
#     4   8  14  25  43  68  95 123 156 194 236 281
#     4   9  16  27  44  67  94 123 158 199 241 282
#     4   9  16  27  44  67  94 123 158 199 241 282
#     4   8  14  25  43  68  95 123 156 194 236 281
#     4   9  18  33  52  74 101 131 162 197 239 288
#     4   9  18  33  52  74 101 131 162 197 239 288
#     4  11  21  33  50  72  99 129 163 201 243 289
#
# _framework density 21.698208999999999
#
# number of rings (size 3 to 8) (size 9 to 14) (size 15 to 20)
#    0.000    2.750    0.000    4.500    0.000    6.500 
#    0.000    0.000    0.000    1.500    0.000   10.500 
#    0.000    0.000    0.000    0.000    0.000    0.000 
#
# Total GULP energy -178465.770479 kJ/mol
# GULP energy per Si atom -5577.055327 kJ/mol
# Density = 2.164882 g / cm^3
# Si number density = 21.698209 Si / 1000 Ang^3
#
#
#
# Elastic Constant Matrix: (Units=GPa)
#
#
# Indices 1 2 3 4 5 6 
#
# 1 32.8109 13.7182 6.4014 0.0000 1.1850 0.0000
# 2 13.7182 183.5567 112.8854 0.0000 -14.3497 0.0000
# 3 6.4014 112.8854 206.5283 0.0000 -0.5192 0.0000
# 4 0.0000 0.0000 0.0000 44.6510 0.0000 -4.4700
# 5 1.1850 -14.3497 -0.5192 0.0000 16.9929 0.0000
# 6 0.0000 0.0000 0.0000 -4.4700 0.0000 9.5313
#
#
#
# Elastic Compliance Matrix: (Units=1/GPa)
#
#
# Indices 1 2 3 4 5 6 
#
# 1 0.031861 -0.003242 0.000772 0.000000 -0.004936 0.000000
# 2 -0.003242 0.009403 -0.005019 0.000000 0.008013 0.000000
# 3 0.000772 -0.005019 0.007551 0.000000 -0.004062 0.000000
# 4 0.000000 0.000000 0.000000 0.023499 0.000000 0.011021
# 5 -0.004936 0.008013 -0.004062 0.000000 0.065835 0.000000
# 6 0.000000 0.000000 0.000000 0.011021 0.000000 0.110087
#
#
# Mechanical properties :
#
#
# Convention : Reuss Voigt Hill
#
# Bulk Modulus (GPa) = 29.55303 76.54511 53.04907
# Shear Modulus (GPa) = 18.21538 33.56109 25.88823
#
# Velocity S-wave (km/s) = 2.90053 3.93710 3.45788
# Velocity P-wave (km/s) = 4.98669 7.48475 6.35958
#
# Compressibility (1/GPa) = 0.03383747
#
# Stress axis : x y z
#
# Youngs Moduli (GPa) = 31.38659 106.34526 132.42947
#
# Poissons Ratio (x) = 0.34474 -0.10223
# Poissons Ratio (y) = 0.10175 0.66468
# Poissons Ratio (z) = -0.02423 0.53376
#
# Static dielectric constant tensor:
#      x y z
#    x 1.918960 0.000000 -0.000820 
#    y 0.000000 1.745910 0.000000 
#    z -0.000820 0.000000 1.827740 
# 
# From -- ./inp_files/254851.got.cif
#   From: 2010.05.17/outbox.cif.g08.bks.cpg/sg15_128_cif.got.tgz:254851.got - 2010.06.03 18:47:42.
