data_PCOD9301175
_publ_section_title
;
Structure prediction by ZEFSAII (Michael W. Deem and Ramdas Pophale) SiO2 
 PCOD9301175
Probable space group: C 2/C
;
_chemical_formula_sum "Si O2"
_cell_formula_units_Z 64
_cell_length_a 26.785147
_cell_length_b 9.679995
_cell_length_c 17.320722
_cell_angle_alpha 90.000000
_cell_angle_beta 138.175077
_cell_angle_gamma 90.000000
_cell_volume 2994.798899
_symmetry_space_group_name_H-M "C 2/C"
_symmetry_group_IT_number 15
_symmetry_cell_setting 'monoclinic'
loop_
_space_group_symop_operation_xyz
x,y,z
-x,y,1/2-z
-x,-y,-z
x,-y,1/2+z
1/2+x,1/2+y,z
1/2-x,1/2+y,1/2-z
1/2-x,1/2-y,-z
1/2+x,1/2-y,1/2+z
loop_
_atom_site_type_symbol
_atom_site_label
_atom_site_fract_x
_atom_site_fract_y
_atom_site_fract_z
Si Si1 0.316201 0.124157 0.485103
Si Si2 0.655779 0.193897 0.258809
Si Si3 0.565398 0.732033 0.264540
Si Si4 0.337284 0.479214 0.140563
Si Si5 0.939384 0.447563 0.369697
Si Si6 0.828714 0.900036 0.955616
Si Si7 0.342376 0.885334 0.402007
Si Si8 0.816204 0.837665 0.352808
O O1 0.368978 0.189441 0.611379
O O2 0.292555 0.247229 0.399484
O O3 0.243937 0.047600 0.437147
O O4 0.356689 0.011828 0.476414
O O5 0.657043 0.332236 0.310560
O O6 0.738312 0.124524 0.350796
O O7 0.636018 0.242001 0.148940
O O8 0.597158 0.078249 0.216314
O O9 0.500000 0.700019 0.250000
O O10 0.601201 0.594642 0.268809
O O11 0.537432 0.833733 0.165247
O O12 0.347678 0.447035 0.062691
O O13 0.877530 0.390977 0.358009
O O14 0.000000 0.500000 0.500000
O O15 0.862941 0.755635 0.968751
O O16 0.850960 0.021715 0.923355
O O17 0.253958 0.881165 0.281010
#
# Coordination Sequence:
#
# PCOD9301175 Si02
#       8
#     8   8   8   8   8   8   8   8
#     4  12  22  42  71 103 136 182 225 287 352 408
#     4  11  24  41  67 106 136 169 227 290 338 410
#     4  12  29  48  68  96 143 187 236 283 345 419
#     4  12  25  44  69 103 137 179 229 288 351 408
#     4  12  26  48  70  96 133 184 232 276 341 419
#     4  11  22  38  66 101 142 168 215 288 352 398
#     4  11  22  39  66 101 137 167 226 280 345 405
#     4  11  20  38  66  99 140 168 215 284 349 398
#
# _framework density 21.370383
#
# number of rings (size 3 to 8) (size 9 to 14) (size 15 to 20)
#    0.000    0.500    6.250    3.750    3.500    0.000 
#    2.250    0.625    0.000    0.000    0.000    0.000 
#    0.000    0.000    0.000    0.000    0.000    0.000 
#
# Total GULP energy -178888.559514 kJ/mol
# GULP energy per Si atom -5590.267485 kJ/mol
# Density = 2.132174 g / cm^3
# Si number density = 21.370383 Si / 1000 Ang^3
#
#
#
# Elastic Constant Matrix: (Units=GPa)
#
#
# Indices 1 2 3 4 5 6 
#
# 1 36.1560 -7.0884 -14.9318 0.0000 -0.6906 0.0000
# 2 -7.0884 89.2198 3.8606 0.0000 0.7379 0.0000
# 3 -14.9318 3.8606 44.2891 0.0000 -9.3595 0.0000
# 4 0.0000 0.0000 0.0000 31.2641 0.0000 -22.2971
# 5 -0.6906 0.7379 -9.3595 0.0000 25.6988 0.0000
# 6 0.0000 0.0000 0.0000 -22.2971 0.0000 29.2532
#
#
#
# Elastic Compliance Matrix: (Units=1/GPa)
#
#
# Indices 1 2 3 4 5 6 
#
# 1 0.033164 0.002068 0.012109 0.000000 0.005242 0.000000
# 2 0.002068 0.011393 -0.000383 0.000000 -0.000411 0.000000
# 3 0.012109 -0.000383 0.028998 0.000000 0.010897 0.000000
# 4 0.000000 0.000000 0.000000 0.070082 0.000000 0.053417
# 5 0.005242 -0.000411 0.010897 0.000000 0.043034 0.000000
# 6 0.000000 0.000000 0.000000 0.053417 0.000000 0.074899
#
#
# Mechanical properties :
#
#
# Convention : Reuss Voigt Hill
#
# Bulk Modulus (GPa) = 9.88724 14.81619 12.35171
# Shear Modulus (GPa) = 18.67790 29.76488 24.22139
#
# Velocity S-wave (km/s) = 2.95957 3.73609 3.37027
# Velocity P-wave (km/s) = 4.03923 5.05561 4.57573
#
# Compressibility (1/GPa) = 0.10114049
#
# Stress axis : x y z
#
# Youngs Moduli (GPa) = 30.15319 87.77701 34.48571
#
# Poissons Ratio (x) = -0.18148 -0.41757
# Poissons Ratio (y) = -0.06234 0.01320
# Poissons Ratio (z) = -0.36511 0.03361
#
# Static dielectric constant tensor:
#      x y z
#    x 1.916370 0.000000 0.048900 
#    y 0.000000 1.806730 0.000000 
#    z 0.048900 0.000000 1.784080 
# 
# From -- ./inp_files/224620.got.cif
#   From: 2010.05.17/outbox.cif.g08.bks.cpg/sg15_113_cif.got.tgz:224620.got - 2010.06.03 18:47:42.
