data_PCOD9301325
_publ_section_title
;
Structure prediction by ZEFSAII (Michael W. Deem and Ramdas Pophale) SiO2 
 PCOD9301325
Probable space group: C 2/C
;
_chemical_formula_sum "Si O2"
_cell_formula_units_Z 44
_cell_length_a 11.638580
_cell_length_b 22.916809
_cell_length_c 9.829915
_cell_angle_alpha 90.000000
_cell_angle_beta 117.324093
_cell_angle_gamma 90.000000
_cell_volume 2329.294108
_symmetry_space_group_name_H-M "C 2/C"
_symmetry_group_IT_number 15
_symmetry_cell_setting 'monoclinic'
loop_
_space_group_symop_operation_xyz
x,y,z
-x,y,1/2-z
-x,-y,-z
x,-y,1/2+z
1/2+x,1/2+y,z
1/2-x,1/2+y,1/2-z
1/2-x,1/2-y,-z
1/2+x,1/2-y,1/2+z
loop_
_atom_site_type_symbol
_atom_site_label
_atom_site_fract_x
_atom_site_fract_y
_atom_site_fract_z
Si Si1 0.651284 0.215764 0.044694
Si Si2 0.000000 0.641964 0.750000
Si Si3 0.145620 0.012089 0.328457
Si Si4 0.260065 0.570548 0.841050
Si Si5 0.536541 0.327510 0.114414
Si Si6 0.878691 0.141520 0.282380
O O1 0.593775 0.263681 0.114654
O O2 0.743642 0.168191 0.163157
O O3 0.750000 0.250000 0.000000
O O4 0.541085 0.183865 0.896946
O O5 0.877407 0.600974 0.712180
O O6 0.196363 0.031728 0.504471
O O7 0.130380 0.072125 0.235904
O O8 0.000000 0.986349 0.250000
O O9 0.234219 0.968469 0.291431
O O10 0.361873 0.623357 0.879231
O O11 0.500000 0.334634 0.250000
O O12 0.414189 0.337236 0.950731
O O13 0.000000 0.159694 0.250000
#
# Coordination Sequence:
#
# PCOD9301325 Si02
#       6
#     8   4   8   8   8   8
#     4  12  21  42  69  93 130 180 220 265 335 407
#     4  12  24  44  70  98 132 178 224 260 342 404
#     4  11  22  42  68  98 128 173 225 273 325 385
#     4  12  25  42  67  99 132 175 219 275 329 395
#     4  12  26  41  66 104 132 165 228 288 326 382
#     4  11  20  41  68  93 126 174 225 269 325 393
#
# _framework density 18.889842999999999
#
# number of rings (size 3 to 8) (size 9 to 14) (size 15 to 20)
#    0.000    0.364    9.091    2.182    2.545    1.455 
#    0.000    0.000    0.000    0.000    0.000    0.000 
#    0.000    0.000    0.000    0.000    0.000    0.000 
#
# Total GULP energy -122984.664498 kJ/mol
# GULP energy per Si atom -5590.212023 kJ/mol
# Density = 1.884685 g / cm^3
# Si number density = 18.889843 Si / 1000 Ang^3
#
#
#
# Elastic Constant Matrix: (Units=GPa)
#
#
# Indices 1 2 3 4 5 6 
#
# 1 61.4901 34.7620 46.6895 0.0000 -0.2969 0.0000
# 2 34.7620 78.8446 29.7163 0.0000 -4.1780 0.0000
# 3 46.6895 29.7163 118.9417 0.0000 -0.4384 0.0000
# 4 0.0000 0.0000 0.0000 28.7267 0.0000 -15.2342
# 5 -0.2969 -4.1780 -0.4384 0.0000 30.3907 0.0000
# 6 0.0000 0.0000 0.0000 -15.2342 0.0000 37.2003
#
#
#
# Elastic Compliance Matrix: (Units=1/GPa)
#
#
# Indices 1 2 3 4 5 6 
#
# 1 0.028054 -0.009136 -0.008734 0.000000 -0.001108 0.000000
# 2 -0.009136 0.017084 -0.000674 0.000000 0.002250 0.000000
# 3 -0.008734 -0.000674 0.012004 0.000000 -0.000005 0.000000
# 4 0.000000 0.000000 0.000000 0.044468 0.000000 0.018210
# 5 -0.001108 0.002250 -0.000005 0.000000 0.033203 0.000000
# 6 0.000000 0.000000 0.000000 0.018210 0.000000 0.034339
#
#
# Mechanical properties :
#
#
# Convention : Reuss Voigt Hill
#
# Bulk Modulus (GPa) = 49.86203 53.51244 51.68724
# Shear Modulus (GPa) = 23.48252 29.13745 26.30999
#
# Velocity S-wave (km/s) = 3.52963 3.93172 3.73609
# Velocity P-wave (km/s) = 6.56236 7.00010 6.78476
#
# Compressibility (1/GPa) = 0.02005534
#
# Stress axis : x y z
#
# Youngs Moduli (GPa) = 35.64597 58.53356 83.30392
#
# Poissons Ratio (x) = 0.53474 0.72757
# Poissons Ratio (y) = 0.32565 0.05614
# Poissons Ratio (z) = 0.31133 0.03945
#
# Static dielectric constant tensor:
#      x y z
#    x 1.661610 0.000000 0.014490 
#    y 0.000000 1.656840 0.000000 
#    z 0.014490 0.000000 1.596170 
# 
# From -- ./inp_files/32429.got.cif
#   From: 2010.05.17/outbox.cif.g08.bks.cpg/sg15_17_cif.got.tgz:32429.got - 2010.06.03 18:47:42.
