data_PCOD9301207
_publ_section_title
;
Structure prediction by ZEFSAII (Michael W. Deem and Ramdas Pophale) SiO2 
 PCOD9301207
Probable space group: C 2/C
;
_chemical_formula_sum "Si O2"
_cell_formula_units_Z 64
_cell_length_a 32.737672
_cell_length_b 11.294287
_cell_length_c 16.631584
_cell_angle_alpha 90.000000
_cell_angle_beta 152.545050
_cell_angle_gamma 90.000000
_cell_volume 2835.236114
_symmetry_space_group_name_H-M "C 2/C"
_symmetry_group_IT_number 15
_symmetry_cell_setting 'monoclinic'
loop_
_space_group_symop_operation_xyz
x,y,z
-x,y,1/2-z
-x,-y,-z
x,-y,1/2+z
1/2+x,1/2+y,z
1/2-x,1/2+y,1/2-z
1/2-x,1/2-y,-z
1/2+x,1/2-y,1/2+z
loop_
_atom_site_type_symbol
_atom_site_label
_atom_site_fract_x
_atom_site_fract_y
_atom_site_fract_z
Si Si1 0.584149 0.210261 0.009602
Si Si2 0.350898 0.545946 0.842038
Si Si3 0.737352 0.847279 0.647999
Si Si4 0.915808 0.268423 0.647639
Si Si5 0.191923 0.867165 0.412425
Si Si6 0.923033 0.461785 0.223241
Si Si7 0.698099 0.130881 0.691043
Si Si8 0.360448 0.970606 0.781384
O O1 0.579987 0.353778 0.005784
O O2 0.671740 0.172616 0.111247
O O3 0.604661 0.159211 0.134039
O O4 0.497525 0.136012 0.832379
O O5 0.336881 0.404482 0.818134
O O6 0.334788 0.582660 0.721115
O O7 0.269783 0.562555 0.763753
O O8 0.671646 0.917045 0.474790
O O9 0.756317 0.710828 0.661731
O O10 0.884095 0.180531 0.661495
O O11 0.934642 0.403396 0.711385
O O12 0.844813 0.287892 0.452739
O O13 0.000000 0.218337 0.750000
O O14 0.250000 0.750000 0.500000
O O15 0.258617 0.955042 0.575899
O O16 0.914084 0.473182 0.302939
O O17 0.632712 0.046591 0.625143
#
# Coordination Sequence:
#
# PCOD9301207 Si02
#       8
#     8   8   8   8   8   8   8   8
#     4  11  22  34  63  94 125 159 211 273 340 378
#     4  11  20  39  61  93 121 170 217 267 318 401
#     4  11  21  40  62  85 127 174 221 263 321 399
#     4  12  23  38  63  95 133 158 208 277 338 383
#     4  12  19  38  64  91 123 171 218 260 323 403
#     4  12  22  37  60  96 130 159 203 283 338 376
#     4  11  23  37  62  92 122 171 222 266 315 396
#     4  12  21  36  61  93 126 162 217 267 327 397
#
# _framework density 22.573074999999999
#
# number of rings (size 3 to 8) (size 9 to 14) (size 15 to 20)
#    0.000    0.500    7.500    3.000    0.000    1.500 
#    0.000    0.000    2.750    1.500    0.000    0.000 
#    0.000    0.000    0.000    0.000    0.000    0.000 
#
# Total GULP energy -178218.427664 kJ/mol
# GULP energy per Si atom -5569.325865 kJ/mol
# Density = 2.252170 g / cm^3
# Si number density = 22.573075 Si / 1000 Ang^3
#
#
#
# Elastic Constant Matrix: (Units=GPa)
#
#
# Indices 1 2 3 4 5 6 
#
# 1 97.7557 16.2249 10.3315 0.0000 2.0297 0.0000
# 2 16.2249 49.8689 21.4972 0.0000 -4.6342 0.0000
# 3 10.3315 21.4972 48.4836 0.0000 6.7550 0.0000
# 4 0.0000 0.0000 0.0000 29.4672 0.0000 -6.5190
# 5 2.0297 -4.6342 6.7550 0.0000 31.5400 0.0000
# 6 0.0000 0.0000 0.0000 -6.5190 0.0000 12.0351
#
#
#
# Elastic Compliance Matrix: (Units=1/GPa)
#
#
# Indices 1 2 3 4 5 6 
#
# 1 0.010878 -0.003337 -0.000693 0.000000 -0.001042 0.000000
# 2 -0.003337 0.027042 -0.012227 0.000000 0.006807 0.000000
# 3 -0.000693 -0.012227 0.027252 0.000000 -0.007589 0.000000
# 4 0.000000 0.000000 0.000000 0.038556 0.000000 0.020885
# 5 -0.001042 0.006807 -0.007589 0.000000 0.034398 0.000000
# 6 0.000000 0.000000 0.000000 0.020885 0.000000 0.094403
#
#
# Mechanical properties :
#
#
# Convention : Reuss Voigt Hill
#
# Bulk Modulus (GPa) = 30.62172 32.46839 31.54506
# Shear Modulus (GPa) = 18.12048 24.47876 21.29962
#
# Velocity S-wave (km/s) = 2.83635 3.29663 3.07512
# Velocity P-wave (km/s) = 4.93169 5.37636 5.15882
#
# Compressibility (1/GPa) = 0.03265656
#
# Stress axis : x y z
#
# Youngs Moduli (GPa) = 91.92538 36.97980 36.69454
#
# Poissons Ratio (x) = 0.12341 0.02544
# Poissons Ratio (y) = 0.30678 0.44868
# Poissons Ratio (z) = 0.06372 0.45216
#
# Static dielectric constant tensor:
#      x y z
#    x 1.606650 0.000000 -0.090170 
#    y 0.000000 1.915090 0.000000 
#    z -0.090170 0.000000 1.899210 
# 
# From -- ./inp_files/225185.got.cif
#   From: 2010.05.17/outbox.cif.g08.bks.cpg/sg15_113_cif.got.tgz:225185.got - 2010.06.03 18:47:42.
