data_PCOD9301924
_publ_section_title
;
Structure prediction by ZEFSAII (Michael W. Deem and Ramdas Pophale) SiO2 
 PCOD9301924
Probable space group: C 2/C
;
_chemical_formula_sum "Si O2"
_cell_formula_units_Z 48
_cell_length_a 16.498948
_cell_length_b 8.297942
_cell_length_c 33.288173
_cell_angle_alpha 90.000000
_cell_angle_beta 152.942696
_cell_angle_gamma 90.000000
_cell_volume 2073.073949
_symmetry_space_group_name_H-M "C 2/C"
_symmetry_group_IT_number 15
_symmetry_cell_setting 'monoclinic'
loop_
_space_group_symop_operation_xyz
x,y,z
-x,y,1/2-z
-x,-y,-z
x,-y,1/2+z
1/2+x,1/2+y,z
1/2-x,1/2+y,1/2-z
1/2-x,1/2-y,-z
1/2+x,1/2-y,1/2+z
loop_
_atom_site_type_symbol
_atom_site_label
_atom_site_fract_x
_atom_site_fract_y
_atom_site_fract_z
Si Si1 0.413914 0.745623 0.617770
Si Si2 0.520210 0.441352 0.694689
Si Si3 0.455607 0.717816 0.082264
Si Si4 0.166298 0.021333 0.544842
Si Si5 0.755810 0.324897 0.871738
Si Si6 0.953849 0.422785 0.557077
O O1 0.552557 0.631057 0.701910
O O2 0.257038 0.621253 0.534585
O O3 0.509517 0.827565 0.622077
O O4 0.305361 0.881806 0.594422
O O5 0.533604 0.346091 0.658570
O O6 0.643207 0.355367 0.781792
O O7 0.325477 0.442850 0.630720
O O8 0.510593 0.891274 0.088248
O O9 0.250000 0.750000 0.000000
O O10 0.437301 0.581318 0.040725
O O11 0.269749 0.159691 0.615242
O O12 0.000000 0.000000 0.500000
O O13 0.954516 0.355195 0.942898
#
# Coordination Sequence:
#
# PCOD9301924 Si02
#       6
#     8   8   8   8   8   8
#     4  11  21  40  67 102 130 175 228 289 333 417
#     4  11  25  44  65  93 147 177 225 282 354 405
#     4  12  21  42  67  95 129 185 218 273 340 406
#     4  12  24  41  72 102 131 172 237 285 336 409
#     4  11  25  44  64 101 139 181 222 293 346 406
#     4  11  22  38  69  99 135 173 234 279 335 407
#
# _framework density 23.154022999999999
#
# number of rings (size 3 to 8) (size 9 to 14) (size 15 to 20)
#    0.000    0.667    6.667    1.000    2.333    2.667 
#    0.000    6.667    0.000    0.000    0.000    0.000 
#    0.000    0.000    0.000    0.000    0.000    0.000 
#
# Total GULP energy -133812.100975 kJ/mol
# GULP energy per Si atom -5575.504207 kJ/mol
# Density = 2.310132 g / cm^3
# Si number density = 23.154023 Si / 1000 Ang^3
#
#
#
# Elastic Constant Matrix: (Units=GPa)
#
#
# Indices 1 2 3 4 5 6 
#
# 1 113.0739 20.6534 14.2880 0.0002 -20.7915 0.0001
# 2 20.6534 104.1202 36.6862 0.0007 -32.7723 0.0001
# 3 14.2880 36.6862 74.2117 0.0005 -31.1263 -0.0003
# 4 0.0002 0.0007 0.0005 3.3512 -0.0002 -13.4700
# 5 -20.7915 -32.7723 -31.1263 -0.0002 46.4777 0.0001
# 6 0.0001 0.0001 -0.0003 -13.4700 0.0001 40.4214
#
#
#
# Elastic Compliance Matrix: (Units=1/GPa)
#
#
# Indices 1 2 3 4 5 6 
#
# 1 0.009679 -0.000741 0.000139 0.000001 0.003900 0.000000
# 2 -0.000741 0.013054 -0.003600 0.000006 0.006462 0.000002
# 3 0.000139 -0.003600 0.019732 0.000003 0.010738 0.000001
# 4 0.000001 0.000006 0.000003 -0.879121 0.000003 -0.292958
# 5 0.003900 0.006462 0.010738 0.000003 0.035008 0.000001
# 6 0.000000 0.000002 0.000001 -0.292958 0.000001 -0.072886
#
#
# Mechanical properties :
#
#
# Convention : Reuss Voigt Hill
#
# Bulk Modulus (GPa) = 29.36083 48.29569 38.82826
# Shear Modulus (GPa) = -5.84948 32.70196 13.42624
#
# Velocity S-wave (km/s) = -1.59117 3.76222 2.41065
# Velocity P-wave (km/s) = 3.05490 6.30683 4.95523
#
# Compressibility (1/GPa) = 0.03405899
#
# Stress axis : x y z
#
# Youngs Moduli (GPa) = 103.31924 76.60691 50.67984
#
# Poissons Ratio (x) = 0.05678 -0.00703
# Poissons Ratio (y) = 0.07658 0.18245
# Poissons Ratio (z) = -0.01433 0.27579
#
# Static dielectric constant tensor:
#      x y z
#    x 1.922320 0.000000 0.110530 
#    y 0.000000 2.102620 0.000000 
#    z 0.110530 0.000000 1.992520 
# 
# From -- ./inp_files/312995.got.cif
#   From: 2010.05.17/outbox.cif.g08.bks.cpg/sg15_157_cif.got.tgz:312995.got - 2010.06.03 18:47:42.
