data_PCOD9301235
_publ_section_title
;
Structure prediction by ZEFSAII (Michael W. Deem and Ramdas Pophale) SiO2 
 PCOD9301235
Probable space group: C 2/C
;
_chemical_formula_sum "Si O2"
_cell_formula_units_Z 48
_cell_length_a 27.136323
_cell_length_b 11.483617
_cell_length_c 20.587602
_cell_angle_alpha 90.000000
_cell_angle_beta 18.163681
_cell_angle_gamma 90.000000
_cell_volume 1999.943833
_symmetry_space_group_name_H-M "C 2/C"
_symmetry_group_IT_number 15
_symmetry_cell_setting 'monoclinic'
loop_
_space_group_symop_operation_xyz
x,y,z
-x,y,1/2-z
-x,-y,-z
x,-y,1/2+z
1/2+x,1/2+y,z
1/2-x,1/2+y,1/2-z
1/2-x,1/2-y,-z
1/2+x,1/2-y,1/2+z
loop_
_atom_site_type_symbol
_atom_site_label
_atom_site_fract_x
_atom_site_fract_y
_atom_site_fract_z
Si Si1 0.500000 0.670729 0.750000
Si Si2 0.810070 0.986638 0.933100
Si Si3 0.500000 0.275105 0.750000
Si Si4 0.978315 0.560922 0.123860
Si Si5 0.482955 0.277361 0.023745
Si Si6 0.349502 0.825220 0.566641
Si Si7 0.297415 0.871451 0.045174
O O1 0.455075 0.579237 0.749879
O O2 0.653100 0.752695 0.552858
O O3 0.715164 0.018700 0.986859
O O4 0.694455 0.018843 0.137724
O O5 0.877885 0.860584 0.864746
O O6 0.581534 0.202067 0.590832
O O7 0.980234 0.650117 0.062125
O O8 0.086593 0.446579 0.985204
O O9 0.059807 0.624313 0.082641
O O10 0.414437 0.268327 0.037096
O O11 0.364686 0.355786 0.213652
O O12 0.661303 0.321049 0.800331
#
# Coordination Sequence:
#
# PCOD9301235 Si02
#       7
#     4   8   4   8   8   8   8
#     4  11  20  39  68 110 148 189 240 295 362 430
#     4  11  24  42  76 108 148 193 243 303 363 434
#     4  11  30  51  72 106 146 197 256 301 360 444
#     4  12  25  45  75 109 143 196 248 297 373 439
#     4  12  27  50  74 111 151 192 243 314 372 433
#     4  12  30  50  76 102 152 199 249 305 366 444
#     4  12  23  41  74 112 149 187 246 303 368 436
#
# _framework density 24.000674
#
# number of rings (size 3 to 8) (size 9 to 14) (size 15 to 20)
#    0.000    0.333    5.000    3.000    4.667    3.333 
#    0.000    0.000    0.000    0.000    0.000    0.000 
#    0.000    0.000    0.000    0.000    0.000    0.000 
#
# Total GULP energy -134300.200880 kJ/mol
# GULP energy per Si atom -5595.841703 kJ/mol
# Density = 2.394605 g / cm^3
# Si number density = 24.000674 Si / 1000 Ang^3
#
#
#
# Elastic Constant Matrix: (Units=GPa)
#
#
# Indices 1 2 3 4 5 6 
#
# 1 104.0847 13.6058 23.0443 -0.0005 5.0144 0.0003
# 2 13.6058 56.8051 10.5721 -0.0003 4.1274 0.0002
# 3 23.0443 10.5721 149.3586 -0.0007 -0.5409 0.0005
# 4 -0.0005 -0.0003 -0.0007 16.9453 0.0005 2.6770
# 5 5.0144 4.1274 -0.5409 0.0005 36.5198 -0.0002
# 6 0.0003 0.0002 0.0005 2.6770 -0.0002 12.1787
#
#
#
# Elastic Compliance Matrix: (Units=1/GPa)
#
#
# Indices 1 2 3 4 5 6 
#
# 1 0.010258 -0.002103 -0.001438 0.000000 -0.001192 0.000000
# 2 -0.002103 0.018423 -0.000986 0.000000 -0.001808 0.000000
# 3 -0.001438 -0.000986 0.006988 0.000000 0.000412 0.000000
# 4 0.000000 0.000000 0.000000 0.061136 -0.000001 -0.013439
# 5 -0.001192 -0.001808 0.000412 -0.000001 0.027757 0.000001
# 6 0.000000 0.000000 0.000000 -0.013439 0.000001 0.085064
#
#
# Mechanical properties :
#
#
# Convention : Reuss Voigt Hill
#
# Bulk Modulus (GPa) = 37.57255 44.96588 41.26921
# Shear Modulus (GPa) = 21.97295 30.66384 26.31840
#
# Velocity S-wave (km/s) = 3.02903 3.57826 3.31504
# Velocity P-wave (km/s) = 5.28414 5.98731 5.64668
#
# Compressibility (1/GPa) = 0.02661518
#
# Stress axis : x y z
#
# Youngs Moduli (GPa) = 97.48221 54.28120 143.09246
#
# Poissons Ratio (x) = 0.11414 0.20580
# Poissons Ratio (y) = 0.20498 0.14111
# Poissons Ratio (z) = 0.14020 0.05353
#
# Static dielectric constant tensor:
#      x y z
#    x 1.992580 0.000000 0.011400 
#    y 0.000000 1.995550 0.000000 
#    z 0.011400 0.000000 1.904790 
# 
# From -- ./inp_files/257620.got.cif
#   From: 2010.05.17/outbox.cif.g08.bks.cpg/sg15_129_cif.got.tgz:257620.got - 2010.06.03 18:47:42.
