data_PCOD9301933
_publ_section_title
;
Structure prediction by ZEFSAII (Michael W. Deem and Ramdas Pophale) SiO2 
 PCOD9301933
Probable space group: C 2/C
;
_chemical_formula_sum "Si O2"
_cell_formula_units_Z 44
_cell_length_a 9.093388
_cell_length_b 18.525249
_cell_length_c 11.062042
_cell_angle_alpha 90.000000
_cell_angle_beta 81.563487
_cell_angle_gamma 90.000000
_cell_volume 1843.316810
_symmetry_space_group_name_H-M "C 2/C"
_symmetry_group_IT_number 15
_symmetry_cell_setting 'monoclinic'
loop_
_space_group_symop_operation_xyz
x,y,z
-x,y,1/2-z
-x,-y,-z
x,-y,1/2+z
1/2+x,1/2+y,z
1/2-x,1/2+y,1/2-z
1/2-x,1/2-y,-z
1/2+x,1/2-y,1/2+z
loop_
_atom_site_type_symbol
_atom_site_label
_atom_site_fract_x
_atom_site_fract_y
_atom_site_fract_z
Si Si1 0.792871 0.053370 0.381033
Si Si2 0.820561 0.300172 0.180494
Si Si3 0.301389 0.973977 0.877352
Si Si4 0.000000 0.580973 0.750000
Si Si5 0.000000 0.226569 0.750000
Si Si6 0.003130 0.349080 0.927125
Si Si7 0.000000 0.165446 0.250000
O O1 0.774743 0.019633 0.246659
O O2 0.646343 0.101414 0.419336
O O3 0.927943 0.110762 0.356218
O O4 0.793072 0.997241 0.493365
O O5 0.646603 0.309477 0.180251
O O6 0.863401 0.363694 0.266929
O O7 0.875258 0.221076 0.215027
O O8 0.924164 0.322071 0.056898
O O9 0.371647 0.894338 0.877667
O O10 0.449163 0.024973 0.858285
O O11 0.946404 0.278802 0.650488
#
# Coordination Sequence:
#
# PCOD9301933 Si02
#       7
#     8   8   8   4   4   8   4
#     4  12  24  43  74 104 147 183 244 300 358 431
#     4  11  25  40  70 101 141 189 242 293 354 438
#     4  12  23  44  74 105 138 191 244 294 362 430
#     4  11  21  40  68 100 135 183 238 286 356 423
#     4  12  23  44  64 100 143 184 236 298 360 418
#     4  12  21  42  73  98 134 192 240 293 351 434
#     4  11  26  48  66 108 146 191 238 300 370 421
#
# _framework density 23.870014999999999
#
# number of rings (size 3 to 8) (size 9 to 14) (size 15 to 20)
#    0.000    0.364    7.273    2.182    0.000    2.909 
#    0.000    3.636    0.000    0.000    0.000    0.000 
#    0.000    0.000    0.000    0.000    0.000    0.000 
#
# Total GULP energy -122754.398424 kJ/mol
# GULP energy per Si atom -5579.745383 kJ/mol
# Density = 2.381569 g / cm^3
# Si number density = 23.870015 Si / 1000 Ang^3
#
#
#
# Elastic Constant Matrix: (Units=GPa)
#
#
# Indices 1 2 3 4 5 6 
#
# 1 80.8152 29.6215 27.7170 0.0000 -21.2372 0.0000
# 2 29.6215 68.0535 15.7566 0.0000 -10.9100 0.0000
# 3 27.7170 15.7566 129.1040 0.0000 -13.6967 0.0000
# 4 0.0000 0.0000 0.0000 42.3962 0.0000 -3.8099
# 5 -21.2372 -10.9100 -13.6967 0.0000 26.1932 0.0000
# 6 0.0000 0.0000 0.0000 -3.8099 0.0000 13.9288
#
#
#
# Elastic Compliance Matrix: (Units=1/GPa)
#
#
# Indices 1 2 3 4 5 6 
#
# 1 0.018075 -0.005596 -0.002001 0.000000 0.011278 0.000000
# 2 -0.005596 0.017687 -0.000696 0.000000 0.002466 0.000000
# 3 -0.002001 -0.000696 0.008531 0.000000 0.002549 0.000000
# 4 0.000000 0.000000 0.000000 0.024181 0.000000 0.006614
# 5 0.011278 0.002466 0.002549 0.000000 0.049682 0.000000
# 6 0.000000 0.000000 0.000000 0.006614 0.000000 0.073603
#
#
# Mechanical properties :
#
#
# Convention : Reuss Voigt Hill
#
# Bulk Modulus (GPa) = 36.09245 47.12921 41.61083
# Shear Modulus (GPa) = 22.98013 30.16213 26.57113
#
# Velocity S-wave (km/s) = 3.10614 3.55857 3.34002
# Velocity P-wave (km/s) = 5.29314 6.05570 5.68722
#
# Compressibility (1/GPa) = 0.02770663
#
# Stress axis : x y z
#
# Youngs Moduli (GPa) = 55.32479 56.54025 117.22567
#
# Poissons Ratio (x) = 0.31641 0.23457
# Poissons Ratio (y) = 0.30961 0.08153
# Poissons Ratio (z) = 0.11071 0.03933
#
# Static dielectric constant tensor:
#      x y z
#    x 2.076560 0.000000 0.197960 
#    y 0.000000 1.900770 0.000000 
#    z 0.197960 0.000000 2.131150 
# 
# From -- ./inp_files/78163.got.cif
#   From: 2010.05.17/outbox.cif.g08.bks.cpg/sg15_40_cif.got.tgz:78163.got - 2010.06.03 18:47:42.
