data_PCOD9301541
_publ_section_title
;
Structure prediction by ZEFSAII (Michael W. Deem and Ramdas Pophale) SiO2 
 PCOD9301541
Probable space group: C 2/C
;
_chemical_formula_sum "Si O2"
_cell_formula_units_Z 56
_cell_length_a 23.833968
_cell_length_b 15.170525
_cell_length_c 8.569383
_cell_angle_alpha 90.000000
_cell_angle_beta 123.174102
_cell_angle_gamma 90.000000
_cell_volume 2593.451078
_symmetry_space_group_name_H-M "C 2/C"
_symmetry_group_IT_number 15
_symmetry_cell_setting 'monoclinic'
loop_
_space_group_symop_operation_xyz
x,y,z
-x,y,1/2-z
-x,-y,-z
x,-y,1/2+z
1/2+x,1/2+y,z
1/2-x,1/2+y,1/2-z
1/2-x,1/2-y,-z
1/2+x,1/2-y,1/2+z
loop_
_atom_site_type_symbol
_atom_site_label
_atom_site_fract_x
_atom_site_fract_y
_atom_site_fract_z
Si Si1 0.274260 0.421744 0.187301
Si Si2 0.801476 0.889999 0.879574
Si Si3 0.795411 0.248499 0.912693
Si Si4 0.065815 0.787565 0.434904
Si Si5 0.432774 0.819496 0.249365
Si Si6 0.576575 0.013114 0.576545
Si Si7 0.377020 0.116637 0.136921
O O1 0.280574 0.520516 0.260632
O O2 0.297906 0.349295 0.346406
O O3 0.309371 0.410519 0.074382
O O4 0.197886 0.395561 0.034783
O O5 0.745114 0.814924 0.763494
O O6 0.873377 0.853019 0.935463
O O7 0.750000 0.250000 0.000000
O O8 0.871342 0.276186 0.064114
O O9 0.047604 0.738845 0.569120
O O10 0.095423 0.712677 0.361583
O O11 0.000000 0.824952 0.250000
O O12 0.500000 0.835643 0.250000
O O13 0.400333 0.906693 0.278236
O O14 0.582695 0.049116 0.412733
O O15 0.500000 0.000000 0.500000
O O16 0.614062 0.923281 0.677537
#
# Coordination Sequence:
#
# PCOD9301541 Si02
#       7
#     8   8   8   8   8   8   8
#     4  12  26  43  73 101 135 187 239 300 358 418
#     4  12  26  47  71 106 139 188 240 296 360 425
#     4  12  23  47  71 103 145 178 238 293 356 423
#     4  11  25  44  68  98 142 186 236 294 358 424
#     4  11  24  40  67 101 137 187 229 293 356 422
#     4  11  21  36  58  96 138 179 216 270 342 426
#     4  11  21  40  62  96 134 177 227 281 348 411
#
# _framework density 21.592849999999999
#
# number of rings (size 3 to 8) (size 9 to 14) (size 15 to 20)
#    0.000    0.571    2.857    6.857    2.000    1.143 
#    0.000    1.429    0.000    0.000    0.000    0.000 
#    0.000    0.000    0.000    0.000    0.000    0.000 
#
# Total GULP energy -156689.660091 kJ/mol
# GULP energy per Si atom -5596.059289 kJ/mol
# Density = 2.154370 g / cm^3
# Si number density = 21.592850 Si / 1000 Ang^3
#
#
#
# Elastic Constant Matrix: (Units=GPa)
#
#
# Indices 1 2 3 4 5 6 
#
# 1 65.8971 8.0240 11.1828 0.0000 0.4148 0.0000
# 2 8.0240 71.8365 20.1673 0.0000 -0.5197 0.0000
# 3 11.1828 20.1673 62.8050 0.0000 26.6381 0.0000
# 4 0.0000 0.0000 0.0000 40.7265 0.0000 -0.5574
# 5 0.4148 -0.5197 26.6381 0.0000 47.4398 0.0000
# 6 0.0000 0.0000 0.0000 -0.5574 0.0000 28.3723
#
#
#
# Elastic Compliance Matrix: (Units=1/GPa)
#
#
# Indices 1 2 3 4 5 6 
#
# 1 0.015820 -0.000839 -0.003262 0.000000 0.001684 0.000000
# 2 -0.000839 0.015897 -0.006605 0.000000 0.003890 0.000000
# 3 -0.003262 -0.006605 0.024471 0.000000 -0.013784 0.000000
# 4 0.000000 0.000000 0.000000 0.024561 0.000000 0.000482
# 5 0.001684 0.003890 -0.013784 0.000000 0.028847 0.000000
# 6 0.000000 0.000000 0.000000 0.000482 0.000000 0.035255
#
#
# Mechanical properties :
#
#
# Convention : Reuss Voigt Hill
#
# Bulk Modulus (GPa) = 28.75601 31.03188 29.89395
# Shear Modulus (GPa) = 28.11281 34.05202 31.08242
#
# Velocity S-wave (km/s) = 3.61217 3.97546 3.79816
# Velocity P-wave (km/s) = 5.54466 5.95608 5.75405
#
# Compressibility (1/GPa) = 0.03477534
#
# Stress axis : x y z
#
# Youngs Moduli (GPa) = 63.21009 62.90592 40.86531
#
# Poissons Ratio (x) = 0.05279 0.13329
# Poissons Ratio (y) = 0.05305 0.26993
# Poissons Ratio (z) = 0.20617 0.41551
#
# Static dielectric constant tensor:
#      x y z
#    x 1.819480 0.000000 -0.048030 
#    y 0.000000 1.879960 0.000000 
#    z -0.048030 0.000000 1.851550 
# 
# From -- ./inp_files/55611.got.cif
#   From: 2010.05.17/outbox.cif.g08.bks.cpg/sg15_28_cif.got.tgz:55611.got - 2010.06.03 18:47:42.
