data_PCOD9301124
_publ_section_title
;
Structure prediction by ZEFSAII (Michael W. Deem and Ramdas Pophale) SiO2 
 PCOD9301124
Probable space group: C 2/C
;
_chemical_formula_sum "Si O2"
_cell_formula_units_Z 64
_cell_length_a 11.440584
_cell_length_b 24.077195
_cell_length_c 11.832953
_cell_angle_alpha 90.000000
_cell_angle_beta 73.165388
_cell_angle_gamma 90.000000
_cell_volume 3119.786195
_symmetry_space_group_name_H-M "C 2/C"
_symmetry_group_IT_number 15
_symmetry_cell_setting 'monoclinic'
loop_
_space_group_symop_operation_xyz
x,y,z
-x,y,1/2-z
-x,-y,-z
x,-y,1/2+z
1/2+x,1/2+y,z
1/2-x,1/2+y,1/2-z
1/2-x,1/2-y,-z
1/2+x,1/2-y,1/2+z
loop_
_atom_site_type_symbol
_atom_site_label
_atom_site_fract_x
_atom_site_fract_y
_atom_site_fract_z
Si Si1 0.778630 0.839769 0.570416
Si Si2 0.489067 0.838849 0.915727
Si Si3 0.225122 0.603617 0.294903
Si Si4 0.929364 0.629567 0.654632
Si Si5 0.619295 0.309310 0.636153
Si Si6 0.570839 0.004158 0.855591
Si Si7 0.512732 0.291640 0.416649
Si Si8 0.249461 0.769909 0.233034
O O1 0.649347 0.859490 0.557700
O O2 0.805202 0.884706 0.660597
O O3 0.758806 0.780068 0.639543
O O4 0.890717 0.828653 0.455497
O O5 0.598890 0.861107 0.809035
O O6 0.481124 0.773214 0.914889
O O7 0.526092 0.861053 0.027877
O O8 0.302012 0.634696 0.369803
O O9 0.176227 0.542254 0.327898
O O10 0.880741 0.567084 0.661877
O O11 0.836640 0.680320 0.674552
O O12 0.000000 0.635346 0.750000
O O13 0.500000 0.310603 0.750000
O O14 0.574389 0.300272 0.522333
O O15 0.702220 0.259864 0.665393
O O16 0.500000 0.996241 0.750000
O O17 0.500000 0.000000 0.000000
O O18 0.617658 0.296170 0.293770
#
# Coordination Sequence:
#
# PCOD9301124 Si02
#       8
#     8   8   8   8   8   8   8   8
#     4  11  23  38  57  92 127 171 205 255 315 401
#     4  12  21  37  62  89 129 163 204 255 324 385
#     4  11  23  39  65  89 123 166 216 264 316 383
#     4  11  24  39  59  91 129 157 205 270 325 375
#     4  11  20  38  57  88 125 164 209 250 316 375
#     4  11  24  43  68 100 127 167 221 277 335 384
#     4  12  22  34  57  90 127 169 205 252 317 393
#     4  11  22  34  57  87 128 164 207 255 318 380
#
# _framework density 20.514226000000001
#
# number of rings (size 3 to 8) (size 9 to 14) (size 15 to 20)
#    0.000    0.750    7.500    3.000    1.750    0.000 
#    0.000    0.000    0.000    2.250    0.000    0.000 
#    0.000    0.000    0.000    0.000    0.000    0.000 
#
# Total GULP energy -178525.159210 kJ/mol
# GULP energy per Si atom -5578.911225 kJ/mol
# Density = 2.046754 g / cm^3
# Si number density = 20.514226 Si / 1000 Ang^3
#
#
#
# Elastic Constant Matrix: (Units=GPa)
#
#
# Indices 1 2 3 4 5 6 
#
# 1 67.2912 1.8060 23.5546 0.0000 -8.9899 0.0000
# 2 1.8060 85.8438 20.9621 0.0000 -12.0579 0.0000
# 3 23.5546 20.9621 102.8599 0.0000 -10.7058 0.0000
# 4 0.0000 0.0000 0.0000 10.7309 0.0000 -5.2495
# 5 -8.9899 -12.0579 -10.7058 0.0000 40.4285 0.0000
# 6 0.0000 0.0000 0.0000 -5.2495 0.0000 22.6862
#
#
#
# Elastic Compliance Matrix: (Units=1/GPa)
#
#
# Indices 1 2 3 4 5 6 
#
# 1 0.016519 0.000968 -0.003669 0.000000 0.002990 0.000000
# 2 0.000968 0.012700 -0.002461 0.000000 0.003352 0.000000
# 3 -0.003669 -0.002461 0.011211 0.000000 0.001419 0.000000
# 4 0.000000 0.000000 0.000000 0.105084 0.000000 0.024316
# 5 0.002990 0.003352 0.001419 0.000000 0.026775 0.000000
# 6 0.000000 0.000000 0.000000 0.024316 0.000000 0.049706
#
#
# Mechanical properties :
#
#
# Convention : Reuss Voigt Hill
#
# Bulk Modulus (GPa) = 33.21465 38.73782 35.97623
# Shear Modulus (GPa) = 20.63088 28.74725 24.68907
#
# Velocity S-wave (km/s) = 3.17470 3.74750 3.47293
# Velocity P-wave (km/s) = 5.44651 6.13591 5.80146
#
# Compressibility (1/GPa) = 0.03010720
#
# Stress axis : x y z
#
# Youngs Moduli (GPa) = 60.53805 78.73737 89.19520
#
# Poissons Ratio (x) = -0.07625 0.32724
# Poissons Ratio (y) = -0.05862 0.21953
# Poissons Ratio (z) = 0.22210 0.19379
#
# Static dielectric constant tensor:
#      x y z
#    x 1.822980 0.000000 0.036920 
#    y 0.000000 1.693070 0.000000 
#    z 0.036920 0.000000 1.826700 
# 
# From -- ./inp_files/91247.got.cif
#   From: 2010.05.17/outbox.cif.g08.bks.cpg/sg15_46_cif.got.tgz:91247.got - 2010.06.03 18:47:42.
