data_PCOD9301743
_publ_section_title
;
Structure prediction by ZEFSAII (Michael W. Deem and Ramdas Pophale) SiO2 
 PCOD9301743
Probable space group: C 2/C
;
_chemical_formula_sum "Si O2"
_cell_formula_units_Z 32
_cell_length_a 23.341423
_cell_length_b 11.942076
_cell_length_c 8.515082
_cell_angle_alpha 90.000000
_cell_angle_beta 34.160923
_cell_angle_gamma 90.000000
_cell_volume 1332.786466
_symmetry_space_group_name_H-M "C 2/C"
_symmetry_group_IT_number 15
_symmetry_cell_setting 'monoclinic'
loop_
_space_group_symop_operation_xyz
x,y,z
-x,y,1/2-z
-x,-y,-z
x,-y,1/2+z
1/2+x,1/2+y,z
1/2-x,1/2+y,1/2-z
1/2-x,1/2-y,-z
1/2+x,1/2-y,1/2+z
loop_
_atom_site_type_symbol
_atom_site_label
_atom_site_fract_x
_atom_site_fract_y
_atom_site_fract_z
Si Si1 0.768101 0.847438 0.833149
Si Si2 0.962534 0.115636 0.508030
Si Si3 0.069131 0.296558 0.717843
Si Si4 0.730076 0.083998 0.073537
O O1 0.872329 0.802262 0.512623
O O2 0.709004 0.883427 0.803867
O O3 0.750000 0.750000 0.000000
O O4 0.754450 0.955170 0.976509
O O5 0.002178 0.227034 0.501883
O O6 0.840832 0.134694 0.780252
O O7 0.000000 0.000000 0.500000
O O8 0.000000 0.109322 0.250000
O O9 0.146130 0.371058 0.642995
O O10 0.000000 0.361888 0.750000
#
# Coordination Sequence:
#
# PCOD9301743 Si02
#       4
#     8   8   8   8
#     4  11  23  44  71  98 134 184 232 286 349 417
#     4  11  21  38  68 103 133 174 233 295 347 407
#     4  11  25  43  67 102 143 185 232 285 348 420
#     4  11  24  43  69 105 141 181 233 292 352 414
#
# _framework density 24.009848000000002
#
# number of rings (size 3 to 8) (size 9 to 14) (size 15 to 20)
#    0.000    1.000    0.000    9.750    0.000    6.000 
#    0.000    5.000    0.000    3.000    0.000    1.750 
#    0.000    0.000    0.000    0.000    0.000    0.000 
#
# Total GULP energy -89190.322915 kJ/mol
# GULP energy per Si atom -5574.395182 kJ/mol
# Density = 2.395520 g / cm^3
# Si number density = 24.009848 Si / 1000 Ang^3
#
#
#
# Elastic Constant Matrix: (Units=GPa)
#
#
# Indices 1 2 3 4 5 6 
#
# 1 202.6175 34.5087 58.4693 0.0000 18.9020 0.0000
# 2 34.5087 101.1787 12.4408 0.0000 22.1686 0.0000
# 3 58.4693 12.4408 68.5526 0.0000 38.4441 0.0000
# 4 0.0000 0.0000 0.0000 19.9592 0.0000 6.8939
# 5 18.9020 22.1686 38.4441 0.0000 50.0618 0.0000
# 6 0.0000 0.0000 0.0000 6.8939 0.0000 43.5064
#
#
#
# Elastic Compliance Matrix: (Units=1/GPa)
#
#
# Indices 1 2 3 4 5 6 
#
# 1 0.007397 -0.002549 -0.008629 0.000000 0.004963 0.000000
# 2 -0.002549 0.011889 0.004267 0.000000 -0.007579 0.000000
# 3 -0.008629 0.004267 0.035840 0.000000 -0.026154 0.000000
# 4 0.000000 0.000000 0.000000 0.053003 0.000000 -0.008399
# 5 0.004963 -0.007579 -0.026154 0.000000 0.041542 0.000000
# 6 0.000000 0.000000 0.000000 -0.008399 0.000000 0.024316
#
#
# Mechanical properties :
#
#
# Convention : Reuss Voigt Hill
#
# Bulk Modulus (GPa) = 24.21166 64.79847 44.50507
# Shear Modulus (GPa) = 24.80439 40.50080 32.65259
#
# Velocity S-wave (km/s) = 3.21766 4.11157 3.69177
# Velocity P-wave (km/s) = 4.88983 7.04180 6.06207
#
# Compressibility (1/GPa) = 0.04130242
#
# Stress axis : x y z
#
# Youngs Moduli (GPa) = 135.19537 84.11282 27.90181
#
# Poissons Ratio (x) = 0.21441 0.24077
# Poissons Ratio (y) = 0.34462 -0.11905
# Poissons Ratio (z) = 1.16662 -0.35888
#
# Static dielectric constant tensor:
#      x y z
#    x 2.407940 0.000000 -0.419460 
#    y 0.000000 2.023520 0.000000 
#    z -0.419460 0.000000 2.467640 
# 
# From -- ./inp_files/61344.got.cif
#   From: 2010.05.17/outbox.cif.g08.bks.cpg/sg15_31_cif.got.tgz:61344.got - 2010.06.03 18:47:42.
