data_PCOD9301753
_publ_section_title
;
Structure prediction by ZEFSAII (Michael W. Deem and Ramdas Pophale) SiO2 
 PCOD9301753
Probable space group: C 2/C
;
_chemical_formula_sum "Si O2"
_cell_formula_units_Z 52
_cell_length_a 8.544032
_cell_length_b 17.973557
_cell_length_c 17.425747
_cell_angle_alpha 90.000000
_cell_angle_beta 64.688672
_cell_angle_gamma 90.000000
_cell_volume 2419.110977
_symmetry_space_group_name_H-M "C 2/C"
_symmetry_group_IT_number 15
_symmetry_cell_setting 'monoclinic'
loop_
_space_group_symop_operation_xyz
x,y,z
-x,y,1/2-z
-x,-y,-z
x,-y,1/2+z
1/2+x,1/2+y,z
1/2-x,1/2+y,1/2-z
1/2-x,1/2-y,-z
1/2+x,1/2-y,1/2+z
loop_
_atom_site_type_symbol
_atom_site_label
_atom_site_fract_x
_atom_site_fract_y
_atom_site_fract_z
Si Si1 0.273568 0.519447 0.170091
Si Si2 0.500000 0.621798 0.750000
Si Si3 0.163803 0.920938 0.591010
Si Si4 0.184764 0.454002 0.357300
Si Si5 0.000000 0.822209 0.750000
Si Si6 0.795049 0.762456 0.199234
Si Si7 0.500000 0.854222 0.750000
Si Si8 0.172540 0.626736 0.594180
O O1 0.472731 0.543892 0.118000
O O2 0.223184 0.491255 0.266171
O O3 0.231277 0.449389 0.125297
O O4 0.150570 0.591410 0.186729
O O5 0.626978 0.580870 0.665479
O O6 0.630420 0.668560 0.772155
O O7 0.128438 0.870651 0.672944
O O8 0.225029 0.872520 0.506964
O O9 0.315376 0.979630 0.580722
O O10 0.028955 0.395215 0.382072
O O11 0.122930 0.770499 0.774000
O O12 0.934628 0.698106 0.192781
O O13 0.727588 0.800836 0.133573
#
# Coordination Sequence:
#
# PCOD9301753 Si02
#       8
#     8   4   8   8   4   8   4   8
#     4  12  21  43  71 101 131 185 231 283 345 417
#     4  11  21  38  70  97 129 182 238 277 336 425
#     4  12  24  43  67 102 137 178 226 297 350 407
#     4  12  20  41  70 103 134 176 228 290 345 412
#     4  12  23  43  71  85 140 192 228 272 354 434
#     4  11  24  42  65 100 133 187 230 284 341 420
#     4  11  22  41  73  98 139 188 236 273 346 433
#     4  12  26  40  71 106 139 169 240 297 343 396
#
# _framework density 21.495501000000001
#
# number of rings (size 3 to 8) (size 9 to 14) (size 15 to 20)
#    0.000    0.308    7.692    1.846    0.000    0.615 
#    0.000    0.769    0.000    0.000    0.000    0.000 
#    0.000    0.000    0.000    0.000    0.000    0.000 
#
# Total GULP energy -144778.687893 kJ/mol
# GULP energy per Si atom -5568.411073 kJ/mol
# Density = 2.144658 g / cm^3
# Si number density = 21.495501 Si / 1000 Ang^3
#
#
#
# Elastic Constant Matrix: (Units=GPa)
#
#
# Indices 1 2 3 4 5 6 
#
# 1 120.5434 50.7718 21.8523 0.0000 -17.7692 0.0000
# 2 50.7718 104.1256 24.7205 0.0000 -0.3281 0.0000
# 3 21.8523 24.7205 70.6818 0.0000 -11.1183 0.0000
# 4 0.0000 0.0000 0.0000 44.9253 0.0000 -9.8392
# 5 -17.7692 -0.3281 -11.1183 0.0000 23.6833 0.0000
# 6 0.0000 0.0000 0.0000 -9.8392 0.0000 57.1298
#
#
#
# Elastic Compliance Matrix: (Units=1/GPa)
#
#
# Indices 1 2 3 4 5 6 
#
# 1 0.012099 -0.005795 -0.000322 0.000000 0.008846 0.000000
# 2 -0.005795 0.013313 -0.003800 0.000000 -0.005947 0.000000
# 3 -0.000322 -0.003800 0.016769 0.000000 0.007578 0.000000
# 4 0.000000 0.000000 0.000000 0.023132 0.000000 0.003984
# 5 0.008846 -0.005947 0.007578 0.000000 0.052336 0.000000
# 6 0.000000 0.000000 0.000000 0.003984 0.000000 0.018190
#
#
# Mechanical properties :
#
#
# Convention : Reuss Voigt Hill
#
# Bulk Modulus (GPa) = 44.75135 54.44890 49.60013
# Shear Modulus (GPa) = 30.65197 38.34809 34.50003
#
# Velocity S-wave (km/s) = 3.78030 4.22833 4.01058
# Velocity P-wave (km/s) = 6.31810 7.01596 6.67616
#
# Compressibility (1/GPa) = 0.02234570
#
# Stress axis : x y z
#
# Youngs Moduli (GPa) = 82.65116 75.11505 59.63545
#
# Poissons Ratio (x) = 0.43530 0.01922
# Poissons Ratio (y) = 0.47897 0.22661
# Poissons Ratio (z) = 0.02664 0.28544
#
# Static dielectric constant tensor:
#      x y z
#    x 1.210740 0.000000 0.738380 
#    y 0.000000 1.857950 0.000000 
#    z 0.738380 0.000000 0.981460 
# 
# From -- ./inp_files/190374.got.cif
#   From: 2010.05.17/outbox.cif.g08.bks.cpg/sg15_96_cif.got.tgz:190374.got - 2010.06.03 18:47:42.
