data_PCOD9301518
_publ_section_title
;
Structure prediction by ZEFSAII (Michael W. Deem and Ramdas Pophale) SiO2 
 PCOD9301518
Probable space group: C 2/C
;
_chemical_formula_sum "Si O2"
_cell_formula_units_Z 48
_cell_length_a 31.974241
_cell_length_b 7.693622
_cell_length_c 23.232876
_cell_angle_alpha 90.000000
_cell_angle_beta 155.587563
_cell_angle_gamma 90.000000
_cell_volume 2362.118464
_symmetry_space_group_name_H-M "C 2/C"
_symmetry_group_IT_number 15
_symmetry_cell_setting 'monoclinic'
loop_
_space_group_symop_operation_xyz
x,y,z
-x,y,1/2-z
-x,-y,-z
x,-y,1/2+z
1/2+x,1/2+y,z
1/2-x,1/2+y,1/2-z
1/2-x,1/2-y,-z
1/2+x,1/2-y,1/2+z
loop_
_atom_site_type_symbol
_atom_site_label
_atom_site_fract_x
_atom_site_fract_y
_atom_site_fract_z
Si Si1 0.229704 0.632188 0.633740
Si Si2 0.012779 0.185235 0.399576
Si Si3 0.997581 0.551015 0.179070
Si Si4 0.957676 0.308300 0.455263
Si Si5 0.765277 0.264421 0.794905
Si Si6 0.590389 0.339327 0.226159
O O1 0.110901 0.639564 0.471485
O O2 0.241523 0.449457 0.682215
O O3 0.267716 0.771222 0.728547
O O4 0.300288 0.637032 0.666163
O O5 0.994255 0.364964 0.342449
O O6 0.134221 0.168764 0.556739
O O7 0.973717 0.208313 0.415862
O O8 0.954494 0.016894 0.303546
O O9 0.000000 0.525189 0.250000
O O10 0.081956 0.681878 0.260466
O O11 0.840386 0.323837 0.322853
O O12 0.000000 0.500000 0.500000
O O13 0.015876 0.213578 0.579912
#
# Coordination Sequence:
#
# PCOD9301518 Si02
#       6
#     8   8   8   8   8   8
#     4  11  23  38  65  96 129 166 207 264 327 382
#     4  11  23  41  65  94 132 165 207 272 319 383
#     4  11  27  47  63  89 129 176 222 259 312 383
#     4  12  20  35  61 101 131 161 199 260 334 380
#     4  11  21  35  61  99 131 161 200 254 336 387
#     4  12  23  40  67  96 126 163 215 270 321 378
#
# _framework density 20.320743
#
# number of rings (size 3 to 8) (size 9 to 14) (size 15 to 20)
#    0.000    0.667    6.667    2.500    0.000    1.333 
#    0.000    0.833    0.000    0.000    0.000    0.000 
#    0.000    0.000    0.000    0.000    0.000    0.000 
#
# Total GULP energy -134204.620605 kJ/mol
# GULP energy per Si atom -5591.859192 kJ/mol
# Density = 2.027449 g / cm^3
# Si number density = 20.320743 Si / 1000 Ang^3
#
#
#
# Elastic Constant Matrix: (Units=GPa)
#
#
# Indices 1 2 3 4 5 6 
#
# 1 96.2753 13.8656 11.9919 0.0000 14.1032 0.0000
# 2 13.8656 64.1767 -2.1529 0.0000 13.3485 0.0000
# 3 11.9919 -2.1529 18.8952 0.0000 22.5883 0.0000
# 4 0.0000 0.0000 0.0000 11.0450 0.0000 12.5690
# 5 14.1032 13.3485 22.5883 0.0000 43.9463 0.0000
# 6 0.0000 0.0000 0.0000 12.5690 0.0000 24.0241
#
#
#
# Elastic Compliance Matrix: (Units=1/GPa)
#
#
# Indices 1 2 3 4 5 6 
#
# 1 0.011935 -0.003766 -0.012430 0.000000 0.003703 0.000000
# 2 -0.003766 0.021609 0.029190 0.000000 -0.020359 0.000000
# 3 -0.012430 0.029190 0.181483 0.000000 -0.098159 0.000000
# 4 0.000000 0.000000 0.000000 0.223758 0.000000 -0.117066
# 5 0.003703 -0.020359 -0.098159 0.000000 0.078205 0.000000
# 6 0.000000 0.000000 0.000000 -0.117066 0.000000 0.102872
#
#
# Mechanical properties :
#
#
# Convention : Reuss Voigt Hill
#
# Bulk Modulus (GPa) = 4.14909 25.19515 14.67212
# Shear Modulus (GPa) = 7.41607 26.17923 16.79765
#
# Velocity S-wave (km/s) = 1.91244 3.59319 2.87823
# Velocity P-wave (km/s) = 2.63112 5.44429 4.27569
#
# Compressibility (1/GPa) = 0.24101669
#
# Stress axis : x y z
#
# Youngs Moduli (GPa) = 83.78640 46.27607 5.51016
#
# Poissons Ratio (x) = 0.17426 0.06849
# Poissons Ratio (y) = 0.31552 -0.16084
# Poissons Ratio (z) = 1.04148 -1.35082
#
# Static dielectric constant tensor:
#      x y z
#    x 1.725480 0.000000 0.005830 
#    y 0.000000 1.778820 0.000000 
#    z 0.005830 0.000000 1.708390 
# 
# From -- ./inp_files/257253.got.cif
#   From: 2010.05.17/outbox.cif.g08.bks.cpg/sg15_129_cif.got.tgz:257253.got - 2010.06.03 18:47:42.
