data_PCOD9301166
_publ_section_title
;
Structure prediction by ZEFSAII (Michael W. Deem and Ramdas Pophale) SiO2 
 PCOD9301166
Probable space group: C 2/C
;
_chemical_formula_sum "Si O2"
_cell_formula_units_Z 48
_cell_length_a 13.813197
_cell_length_b 20.936396
_cell_length_c 11.996190
_cell_angle_alpha 90.000000
_cell_angle_beta 41.669660
_cell_angle_gamma 90.000000
_cell_volume 2306.498994
_symmetry_space_group_name_H-M "C 2/C"
_symmetry_group_IT_number 15
_symmetry_cell_setting 'monoclinic'
loop_
_space_group_symop_operation_xyz
x,y,z
-x,y,1/2-z
-x,-y,-z
x,-y,1/2+z
1/2+x,1/2+y,z
1/2-x,1/2+y,1/2-z
1/2-x,1/2-y,-z
1/2+x,1/2-y,1/2+z
loop_
_atom_site_type_symbol
_atom_site_label
_atom_site_fract_x
_atom_site_fract_y
_atom_site_fract_z
Si Si1 0.596035 0.076909 0.512386
Si Si2 0.196594 0.941074 0.847611
Si Si3 0.387250 0.216219 0.938855
Si Si4 0.521951 0.651302 0.096084
Si Si5 0.763255 0.580191 0.760750
Si Si6 0.841881 0.442151 0.943658
O O1 0.642579 0.061194 0.346583
O O2 0.653879 0.148958 0.473728
O O3 0.423834 0.074143 0.674052
O O4 0.662366 0.018639 0.526008
O O5 0.218776 0.927381 0.957935
O O6 0.093220 0.892077 0.871933
O O7 0.166378 0.015892 0.853938
O O8 0.500000 0.194663 0.750000
O O9 0.475314 0.272116 0.927335
O O10 0.250000 0.250000 0.000000
O O11 0.500000 0.642710 0.250000
O O12 0.676105 0.630051 0.910929
O O13 0.799240 0.590879 0.598314
O O14 0.000000 0.427921 0.750000
#
# Coordination Sequence:
#
# PCOD9301166 Si02
#       6
#     8   8   8   8   8   8
#     4  11  21  38  67  96 125 164 220 268 322 382
#     4  11  23  39  63  94 132 171 203 272 327 375
#     4  11  23  39  63  91 127 174 211 270 320 379
#     4  11  26  43  59  93 139 169 210 259 331 393
#     4  11  23  38  63  93 125 176 211 264 328 380
#     4  11  20  38  65  98 129 154 218 268 319 382
#
# _framework density 20.810760999999999
#
# number of rings (size 3 to 8) (size 9 to 14) (size 15 to 20)
#    0.000    1.000    3.333    5.000    7.000    0.667 
#    0.000    0.000    0.000    6.000    0.000    0.000 
#    0.000    0.000    0.000    0.000    0.000    0.000 
#
# Total GULP energy -133759.248030 kJ/mol
# GULP energy per Si atom -5573.302001 kJ/mol
# Density = 2.076339 g / cm^3
# Si number density = 20.810761 Si / 1000 Ang^3
#
#
#
# Elastic Constant Matrix: (Units=GPa)
#
#
# Indices 1 2 3 4 5 6 
#
# 1 98.2395 29.8451 27.3268 -0.0003 9.2852 0.0002
# 2 29.8451 101.4831 28.7341 0.0003 3.1765 -0.0002
# 3 27.3268 28.7341 102.4751 -0.0007 12.6370 0.0008
# 4 -0.0003 0.0003 -0.0007 33.9302 0.0003 -4.0099
# 5 9.2852 3.1765 12.6370 0.0003 33.7788 -0.0004
# 6 0.0002 -0.0002 0.0008 -4.0099 -0.0004 28.6666
#
#
#
# Elastic Compliance Matrix: (Units=1/GPa)
#
#
# Indices 1 2 3 4 5 6 
#
# 1 0.011825 -0.002816 -0.002092 0.000000 -0.002203 0.000000
# 2 -0.002816 0.011375 -0.002518 0.000000 0.000647 0.000000
# 3 -0.002092 -0.002518 0.011451 0.000000 -0.003472 0.000000
# 4 0.000000 0.000000 0.000000 0.029968 0.000000 0.004192
# 5 -0.002203 0.000647 -0.003472 0.000000 0.031448 0.000000
# 6 0.000000 0.000000 0.000000 0.004192 0.000000 0.035470
#
#
# Mechanical properties :
#
#
# Convention : Reuss Voigt Hill
#
# Bulk Modulus (GPa) = 50.51174 52.66775 51.58975
# Shear Modulus (GPa) = 32.68219 33.69455 33.18837
#
# Velocity S-wave (km/s) = 3.96719 4.02816 3.99779
# Velocity P-wave (km/s) = 6.73122 6.85548 6.79364
#
# Compressibility (1/GPa) = 0.01979738
#
# Stress axis : x y z
#
# Youngs Moduli (GPa) = 84.56715 87.91292 87.33162
#
# Poissons Ratio (x) = 0.24759 0.18269
# Poissons Ratio (y) = 0.23817 0.21992
# Poissons Ratio (z) = 0.17691 0.22139
#
# Static dielectric constant tensor:
#      x y z
#    x 1.812300 0.000000 -0.038950 
#    y 0.000000 1.886160 0.000000 
#    z -0.038950 0.000000 1.776460 
# 
# From -- ./inp_files/99995.got.cif
#   From: 2010.05.17/outbox.cif.g08.bks.cpg/sg15_50_cif.got.tgz:99995.got - 2010.06.03 18:47:42.
