data_PCOD9301058
_publ_section_title
;
Structure prediction by ZEFSAII (Michael W. Deem and Ramdas Pophale) SiO2 
 PCOD9301058
Probable space group: C 2/C
;
_chemical_formula_sum "Si O2"
_cell_formula_units_Z 64
_cell_length_a 12.783616
_cell_length_b 27.549296
_cell_length_c 15.533765
_cell_angle_alpha 90.000000
_cell_angle_beta 141.195059
_cell_angle_gamma 90.000000
_cell_volume 3428.313760
_symmetry_space_group_name_H-M "C 2/C"
_symmetry_group_IT_number 15
_symmetry_cell_setting 'monoclinic'
loop_
_space_group_symop_operation_xyz
x,y,z
-x,y,1/2-z
-x,-y,-z
x,-y,1/2+z
1/2+x,1/2+y,z
1/2-x,1/2+y,1/2-z
1/2-x,1/2-y,-z
1/2+x,1/2-y,1/2+z
loop_
_atom_site_type_symbol
_atom_site_label
_atom_site_fract_x
_atom_site_fract_y
_atom_site_fract_z
Si Si1 0.879177 0.715994 0.029060
Si Si2 0.107874 0.794010 0.230701
Si Si3 0.352002 0.463565 0.999480
Si Si4 0.829405 0.897189 0.270070
Si Si5 0.327074 0.969888 0.793951
Si Si6 0.120908 0.603890 0.458832
Si Si7 0.180348 0.050511 0.382203
Si Si8 0.986528 0.568075 0.842426
O O1 0.895401 0.660985 0.072511
O O2 0.046619 0.746626 0.142701
O O3 0.750000 0.750000 0.000000
O O4 0.797669 0.711257 0.883190
O O5 0.085861 0.844585 0.168533
O O6 0.000000 0.799005 0.250000
O O7 0.302227 0.473198 0.868646
O O8 0.211698 0.425770 0.942334
O O9 0.530562 0.437611 0.124726
O O10 0.338482 0.510003 0.054356
O O11 0.674063 0.901235 0.234726
O O12 0.745175 0.900862 0.121176
O O13 0.444993 0.922287 0.865199
O O14 0.235233 0.972151 0.826124
O O15 0.449104 0.015732 0.861010
O O16 0.334116 0.084571 0.507855
O O17 0.000000 0.073493 0.250000
O O18 0.000000 0.561516 0.750000
#
# Coordination Sequence:
#
# PCOD9301058 Si02
#       8
#     8   8   8   8   8   8   8   8
#     4   9  18  30  53  78 114 146 180 222 282 342
#     4   9  18  34  53  83 114 148 182 223 280 347
#     4  12  23  36  56  83 116 154 200 231 275 343
#     4  11  23  37  59  82 113 153 194 229 287 339
#     4  12  24  38  56  83 116 154 197 232 285 335
#     4  11  20  37  55  83 117 159 181 231 287 339
#     4  12  25  40  58  77 114 156 193 244 280 325
#     4  12  23  41  58  79 114 151 195 243 278 332
#
# _framework density 18.66807
#
# number of rings (size 3 to 8) (size 9 to 14) (size 15 to 20)
#    0.000    1.000    3.750    5.625    1.750    5.000 
#    0.000    0.000    0.000    0.000    0.000    4.375 
#    0.000    0.000    0.000    0.000    0.000    0.000 
#
# Total GULP energy -178709.816166 kJ/mol
# GULP energy per Si atom -5584.681755 kJ/mol
# Density = 1.862558 g / cm^3
# Si number density = 18.668070 Si / 1000 Ang^3
#
#
#
# Elastic Constant Matrix: (Units=GPa)
#
#
# Indices 1 2 3 4 5 6 
#
# 1 62.3780 -7.9856 28.8897 0.0000 -0.6573 0.0000
# 2 -7.9856 64.9876 7.9557 0.0000 13.8341 0.0000
# 3 28.8897 7.9557 82.5915 0.0000 12.4747 0.0000
# 4 0.0000 0.0000 0.0000 24.9298 0.0000 5.4347
# 5 -0.6573 13.8341 12.4747 0.0000 30.3164 0.0000
# 6 0.0000 0.0000 0.0000 5.4347 0.0000 14.4868
#
#
#
# Elastic Compliance Matrix: (Units=1/GPa)
#
#
# Indices 1 2 3 4 5 6 
#
# 1 0.019943 0.002905 -0.007593 0.000000 0.002231 0.000000
# 2 0.002905 0.017486 -0.001605 0.000000 -0.007256 0.000000
# 3 -0.007593 -0.001605 0.015815 0.000000 -0.005940 0.000000
# 4 0.000000 0.000000 0.000000 0.043685 0.000000 -0.016388
# 5 0.002231 -0.007256 -0.005940 0.000000 0.038789 0.000000
# 6 0.000000 0.000000 0.000000 -0.016388 0.000000 0.075176
#
#
# Mechanical properties :
#
#
# Convention : Reuss Voigt Hill
#
# Bulk Modulus (GPa) = 24.59430 29.74186 27.16808
# Shear Modulus (GPa) = 21.09417 26.01976 23.55697
#
# Velocity S-wave (km/s) = 3.36513 3.73743 3.55616
# Velocity P-wave (km/s) = 5.31996 5.88141 5.60772
#
# Compressibility (1/GPa) = 0.04065983
#
# Stress axis : x y z
#
# Youngs Moduli (GPa) = 50.14231 57.19021 63.22935
#
# Poissons Ratio (x) = -0.16615 0.48009
# Poissons Ratio (y) = -0.14567 0.10146
# Poissons Ratio (z) = 0.38072 0.09177
#
# Static dielectric constant tensor:
#      x y z
#    x 1.669710 0.000000 0.024750 
#    y 0.000000 1.658960 0.000000 
#    z 0.024750 0.000000 1.733880 
# 
# From -- ./inp_files/149193.got.cif
#   From: 2010.05.17/outbox.cif.g08.bks.cpg/sg15_75_cif.got.tgz:149193.got - 2010.06.03 18:47:42.
