data_PCOD9301507
_publ_section_title
;
Structure prediction by ZEFSAII (Michael W. Deem and Ramdas Pophale) SiO2 
 PCOD9301507
Probable space group: C 2/C
;
_chemical_formula_sum "Si O2"
_cell_formula_units_Z 56
_cell_length_a 6.265082
_cell_length_b 21.013005
_cell_length_c 23.158192
_cell_angle_alpha 90.000000
_cell_angle_beta 63.920638
_cell_angle_gamma 90.000000
_cell_volume 2738.330398
_symmetry_space_group_name_H-M "C 2/C"
_symmetry_group_IT_number 15
_symmetry_cell_setting 'monoclinic'
loop_
_space_group_symop_operation_xyz
x,y,z
-x,y,1/2-z
-x,-y,-z
x,-y,1/2+z
1/2+x,1/2+y,z
1/2-x,1/2+y,1/2-z
1/2-x,1/2-y,-z
1/2+x,1/2-y,1/2+z
loop_
_atom_site_type_symbol
_atom_site_label
_atom_site_fract_x
_atom_site_fract_y
_atom_site_fract_z
Si Si1 0.044076 0.962898 0.812304
Si Si2 0.195705 0.059214 0.878195
Si Si3 0.624630 0.721117 0.455351
Si Si4 0.132901 0.649953 0.179234
Si Si5 0.852480 0.434429 0.021293
Si Si6 0.161753 0.339599 0.059766
Si Si7 0.019671 0.553285 0.386679
O O1 0.160055 0.897367 0.821636
O O2 0.000000 0.964891 0.750000
O O3 0.783135 0.966861 0.871172
O O4 0.183307 0.026338 0.816694
O O5 0.298712 0.128819 0.881526
O O6 0.925714 0.060530 0.933686
O O7 0.351168 0.006077 0.892828
O O8 0.750000 0.750000 0.500000
O O9 0.786820 0.693580 0.383778
O O10 0.422494 0.671470 0.501060
O O11 0.476438 0.774838 0.437436
O O12 0.958224 0.598095 0.171410
O O13 0.000000 0.680621 0.250000
O O14 0.994892 0.390249 0.047640
O O15 0.895530 0.407339 0.952061
O O16 0.000000 0.500000 0.000000
#
# Coordination Sequence:
#
# PCOD9301507 Si02
#       7
#     8   8   8   8   8   8   8
#     4  11  22  39  60  98 134 170 214 274 339 406
#     4  11  22  35  61  93 133 170 212 263 332 406
#     4  11  25  44  68  94 135 179 233 288 333 392
#     4  11  23  40  67  97 127 169 227 281 337 402
#     4  12  21  35  62  98 131 166 207 267 336 398
#     4  11  23  41  63  96 131 177 222 272 332 402
#     4  11  21  35  59  95 132 163 202 270 335 395
#
# _framework density 20.450417999999999
#
# number of rings (size 3 to 8) (size 9 to 14) (size 15 to 20)
#    0.000    0.857    4.286    3.857    2.000    1.143 
#    0.000    0.000    0.000   12.857    0.000    0.000 
#    0.000    0.000    0.000    0.000    0.000    0.000 
#
# Total GULP energy -155897.182565 kJ/mol
# GULP energy per Si atom -5567.756520 kJ/mol
# Density = 2.040387 g / cm^3
# Si number density = 20.450418 Si / 1000 Ang^3
#
#
#
# Elastic Constant Matrix: (Units=GPa)
#
#
# Indices 1 2 3 4 5 6 
#
# 1 96.6862 34.6249 38.9557 0.0000 1.4174 0.0000
# 2 34.6249 73.4835 34.1858 0.0000 1.0263 0.0000
# 3 38.9557 34.1858 105.3307 0.0000 10.0803 0.0000
# 4 0.0000 0.0000 0.0000 26.6167 0.0000 4.0127
# 5 1.4174 1.0263 10.0803 0.0000 36.4126 0.0000
# 6 0.0000 0.0000 0.0000 4.0127 0.0000 29.2470
#
#
#
# Elastic Compliance Matrix: (Units=1/GPa)
#
#
# Indices 1 2 3 4 5 6 
#
# 1 0.013428 -0.004711 -0.003493 0.000000 0.000577 0.000000
# 2 -0.004711 0.017718 -0.004086 0.000000 0.000815 0.000000
# 3 -0.003493 -0.004086 0.012417 0.000000 -0.003186 0.000000
# 4 0.000000 0.000000 0.000000 0.038364 0.000000 -0.005264
# 5 0.000577 0.000815 -0.003186 0.000000 0.028300 0.000000
# 6 0.000000 0.000000 0.000000 -0.005264 0.000000 0.034914
#
#
# Mechanical properties :
#
#
# Convention : Reuss Voigt Hill
#
# Bulk Modulus (GPa) = 52.67646 54.55925 53.61785
# Shear Modulus (GPa) = 28.40143 29.63752 29.01947
#
# Velocity S-wave (km/s) = 3.73070 3.81102 3.77107
# Velocity P-wave (km/s) = 6.66119 6.78983 6.72582
#
# Compressibility (1/GPa) = 0.01898381
#
# Stress axis : x y z
#
# Youngs Moduli (GPa) = 74.46856 56.44071 80.53580
#
# Poissons Ratio (x) = 0.26587 0.28129
# Poissons Ratio (y) = 0.35079 0.32909
# Poissons Ratio (z) = 0.26010 0.23063
#
# Static dielectric constant tensor:
#      x y z
#    x 1.781370 0.000000 0.040600 
#    y 0.000000 1.776130 0.000000 
#    z 0.040600 0.000000 1.797800 
# 
# From -- ./inp_files/261638.got.cif
#   From: 2010.05.17/outbox.cif.g08.bks.cpg/sg15_131_cif.got.tgz:261638.got - 2010.06.03 18:47:42.
