data_PCOD9301158
_publ_section_title
;
Structure prediction by ZEFSAII (Michael W. Deem and Ramdas Pophale) SiO2 
 PCOD9301158
Probable space group: C 2/C
;
_chemical_formula_sum "Si O2"
_cell_formula_units_Z 56
_cell_length_a 9.787012
_cell_length_b 25.810780
_cell_length_c 12.317279
_cell_angle_alpha 90.000000
_cell_angle_beta 61.902301
_cell_angle_gamma 90.000000
_cell_volume 2744.772729
_symmetry_space_group_name_H-M "C 2/C"
_symmetry_group_IT_number 15
_symmetry_cell_setting 'monoclinic'
loop_
_space_group_symop_operation_xyz
x,y,z
-x,y,1/2-z
-x,-y,-z
x,-y,1/2+z
1/2+x,1/2+y,z
1/2-x,1/2+y,1/2-z
1/2-x,1/2-y,-z
1/2+x,1/2-y,1/2+z
loop_
_atom_site_type_symbol
_atom_site_label
_atom_site_fract_x
_atom_site_fract_y
_atom_site_fract_z
Si Si1 0.730349 0.452877 0.881217
Si Si2 0.681468 0.931818 0.211663
Si Si3 0.003388 0.229464 0.070216
Si Si4 0.229065 0.391973 0.856240
Si Si5 0.426073 0.057477 0.518755
Si Si6 0.066913 0.110192 0.017914
Si Si7 0.753369 0.770070 0.824720
O O1 0.754526 0.514090 0.860040
O O2 0.769131 0.427004 0.751188
O O3 0.844679 0.436127 0.934100
O O4 0.560432 0.431201 0.970790
O O5 0.500000 0.927498 0.250000
O O6 0.689224 0.934605 0.338324
O O7 0.788503 0.888467 0.118226
O O8 0.125155 0.240909 0.122590
O O9 0.838027 0.248020 0.181486
O O10 0.997342 0.167363 0.056844
O O11 0.086433 0.250854 0.930485
O O12 0.243383 0.332158 0.821825
O O13 0.363657 0.405497 0.891010
O O14 0.067163 0.402817 0.975638
O O15 0.500000 0.000000 0.500000
#
# Coordination Sequence:
#
# PCOD9301158 Si02
#       7
#     8   8   8   8   8   8   8
#     4  12  23  39  62  88 125 166 208 257 308 376
#     4  12  23  40  59  86 125 163 210 261 306 370
#     4   9  18  35  56  92 126 159 206 267 318 375
#     4  11  20  38  64  89 122 167 208 257 310 376
#     4  12  23  39  59  88 124 163 211 254 309 376
#     4  11  23  39  62  93 125 162 210 263 317 364
#     4   9  18  33  59  89 126 159 209 262 320 374
#
# _framework density 20.402418000000001
#
# number of rings (size 3 to 8) (size 9 to 14) (size 15 to 20)
#    0.000    1.143    5.714    1.286    0.000    1.714 
#    5.143    0.000    0.000    0.857    3.714    0.000 
#    0.000    0.000    0.000    0.000    0.000    0.000 
#
# Total GULP energy -156300.646079 kJ/mol
# GULP energy per Si atom -5582.165931 kJ/mol
# Density = 2.035598 g / cm^3
# Si number density = 20.402418 Si / 1000 Ang^3
#
#
#
# Elastic Constant Matrix: (Units=GPa)
#
#
# Indices 1 2 3 4 5 6 
#
# 1 53.8807 14.2381 8.5343 0.0000 -11.6730 0.0000
# 2 14.2381 12.9386 25.2828 0.0000 -9.2690 0.0000
# 3 8.5343 25.2828 134.0692 0.0000 -30.4290 0.0000
# 4 0.0000 0.0000 0.0000 33.3929 0.0000 -8.0319
# 5 -11.6730 -9.2690 -30.4290 0.0000 36.0923 0.0000
# 6 0.0000 0.0000 0.0000 -8.0319 0.0000 11.7367
#
#
#
# Elastic Compliance Matrix: (Units=1/GPa)
#
#
# Indices 1 2 3 4 5 6 
#
# 1 0.030160 -0.044598 0.007549 0.000000 0.004666 0.000000
# 2 -0.044598 0.195087 -0.031971 0.000000 0.008723 0.000000
# 3 0.007549 -0.031971 0.014466 0.000000 0.006427 0.000000
# 4 0.000000 0.000000 0.000000 0.035847 0.000000 0.024532
# 5 0.004666 0.008723 0.006427 0.000000 0.036875 0.000000
# 6 0.000000 0.000000 0.000000 0.024532 0.000000 0.101991
#
#
# Mechanical properties :
#
#
# Convention : Reuss Voigt Hill
#
# Bulk Modulus (GPa) = 9.83543 32.99987 21.41765
# Shear Modulus (GPa) = 8.52725 26.43328 17.48026
#
# Velocity S-wave (km/s) = 2.04661 3.60334 2.93025
# Velocity P-wave (km/s) = 3.22738 5.78979 4.68709
#
# Compressibility (1/GPa) = 0.10167319
#
# Stress axis : x y z
#
# Youngs Moduli (GPa) = 33.15678 5.12592 69.12705
#
# Poissons Ratio (x) = 0.22861 -0.52187
# Poissons Ratio (y) = 1.47874 2.21005
# Poissons Ratio (z) = -0.25032 0.16388
#
# Static dielectric constant tensor:
#      x y z
#    x 1.723560 0.000000 -0.041870 
#    y 0.000000 1.711290 0.000000 
#    z -0.041870 0.000000 1.794820 
# 
# From -- ./inp_files/81241.got.cif
#   From: 2010.05.17/outbox.cif.g08.bks.cpg/sg15_41_cif.got.tgz:81241.got - 2010.06.03 18:47:42.
