data_PCOD9301198
_publ_section_title
;
Structure prediction by ZEFSAII (Michael W. Deem and Ramdas Pophale) SiO2 
 PCOD9301198
Probable space group: C 2/C
;
_chemical_formula_sum "Si O2"
_cell_formula_units_Z 48
_cell_length_a 6.745264
_cell_length_b 18.767963
_cell_length_c 20.597683
_cell_angle_alpha 90.000000
_cell_angle_beta 66.267720
_cell_angle_gamma 90.000000
_cell_volume 2387.055106
_symmetry_space_group_name_H-M "C 2/C"
_symmetry_group_IT_number 15
_symmetry_cell_setting 'monoclinic'
loop_
_space_group_symop_operation_xyz
x,y,z
-x,y,1/2-z
-x,-y,-z
x,-y,1/2+z
1/2+x,1/2+y,z
1/2-x,1/2+y,1/2-z
1/2-x,1/2-y,-z
1/2+x,1/2-y,1/2+z
loop_
_atom_site_type_symbol
_atom_site_label
_atom_site_fract_x
_atom_site_fract_y
_atom_site_fract_z
Si Si1 0.500000 0.134694 0.250000
Si Si2 0.000000 0.132752 0.750000
Si Si3 0.369476 0.421771 0.608626
Si Si4 0.251869 0.252122 0.200159
Si Si5 0.468334 0.938070 0.951387
Si Si6 0.246294 0.305920 0.942505
Si Si7 0.362645 0.503373 0.328131
O O1 0.326809 0.093274 0.316054
O O2 0.361490 0.185209 0.221050
O O3 0.125112 0.180386 0.785471
O O4 0.158550 0.078256 0.691106
O O5 0.536550 0.355154 0.586507
O O6 0.500061 0.486626 0.624218
O O7 0.264324 0.434424 0.552264
O O8 0.272686 0.238510 0.121260
O O9 0.000000 0.256660 0.250000
O O10 0.549057 0.862910 0.969694
O O11 0.639691 0.958219 0.872019
O O12 0.500000 0.000000 0.000000
O O13 0.250000 0.250000 0.000000
O O14 0.500000 0.536504 0.250000
#
# Coordination Sequence:
#
# PCOD9301198 Si02
#       7
#     4   4   8   8   8   8   8
#     4  11  20  38  70  96 118 157 218 274 321 372
#     4   9  24  38  60  98 132 165 208 272 323 380
#     4  11  22  39  70  93 125 168 214 270 320 384
#     4  11  22  40  65  94 128 167 216 264 322 386
#     4  11  25  43  65  94 130 176 219 265 330 392
#     4  11  26  43  63  97 131 176 220 267 328 400
#     4   9  22  42  63  96 126 164 212 260 321 390
#
# _framework density 20.108460000000001
#
# number of rings (size 3 to 8) (size 9 to 14) (size 15 to 20)
#    0.500    1.000    3.333    1.000    2.333    8.667 
#    0.000    0.000    0.000    0.000    0.000    0.000 
#    0.000    0.000    0.000    0.000    0.000    0.000 
#
# Total GULP energy -133965.180002 kJ/mol
# GULP energy per Si atom -5581.882500 kJ/mol
# Density = 2.006269 g / cm^3
# Si number density = 20.108460 Si / 1000 Ang^3
#
#
#
# Elastic Constant Matrix: (Units=GPa)
#
#
# Indices 1 2 3 4 5 6 
#
# 1 105.2921 31.6570 36.7259 0.0000 39.8328 0.0000
# 2 31.6570 103.5709 48.0732 0.0000 32.0687 0.0000
# 3 36.7259 48.0732 106.5280 0.0000 36.8823 0.0000
# 4 0.0000 0.0000 0.0000 32.6450 0.0000 5.2365
# 5 39.8328 32.0687 36.8823 0.0000 41.0284 0.0000
# 6 0.0000 0.0000 0.0000 5.2365 0.0000 9.4783
#
#
#
# Elastic Compliance Matrix: (Units=1/GPa)
#
#
# Indices 1 2 3 4 5 6 
#
# 1 0.015013 -0.000058 -0.000173 0.000000 -0.014375 0.000000
# 2 -0.000058 0.013614 -0.003570 0.000000 -0.007375 0.000000
# 3 -0.000173 -0.003570 0.014568 0.000000 -0.010137 0.000000
# 4 0.000000 0.000000 0.000000 0.033611 0.000000 -0.018569
# 5 -0.014375 -0.007375 -0.010137 0.000000 0.053207 0.000000
# 6 0.000000 0.000000 0.000000 -0.018569 0.000000 0.115763
#
#
# Mechanical properties :
#
#
# Convention : Reuss Voigt Hill
#
# Bulk Modulus (GPa) = 28.09504 60.92261 44.50882
# Shear Modulus (GPa) = 18.85075 29.89267 24.37171
#
# Velocity S-wave (km/s) = 3.06511 3.85979 3.48517
# Velocity P-wave (km/s) = 5.15059 7.08708 6.19497
#
# Compressibility (1/GPa) = 0.03559348
#
# Stress axis : x y z
#
# Youngs Moduli (GPa) = 66.60755 73.45629 68.64556
#
# Poissons Ratio (x) = 0.00423 0.01186
# Poissons Ratio (y) = 0.00384 0.24507
# Poissons Ratio (z) = 0.01151 0.26224
#
# Static dielectric constant tensor:
#      x y z
#    x 1.732880 0.000000 -0.011100 
#    y 0.000000 1.703310 0.000000 
#    z -0.011100 0.000000 1.797220 
# 
# From -- ./inp_files/227315.got.cif
#   From: 2010.05.17/outbox.cif.g08.bks.cpg/sg15_114_cif.got.tgz:227315.got - 2010.06.03 18:47:42.
