data_PCOD9301504
_publ_section_title
;
Structure prediction by ZEFSAII (Michael W. Deem and Ramdas Pophale) SiO2 
 PCOD9301504
Probable space group: C 2/C
;
_chemical_formula_sum "Si O2"
_cell_formula_units_Z 44
_cell_length_a 25.401952
_cell_length_b 17.421874
_cell_length_c 5.293509
_cell_angle_alpha 90.000000
_cell_angle_beta 79.694518
_cell_angle_gamma 90.000000
_cell_volume 2304.848681
_symmetry_space_group_name_H-M "C 2/C"
_symmetry_group_IT_number 15
_symmetry_cell_setting 'monoclinic'
loop_
_space_group_symop_operation_xyz
x,y,z
-x,y,1/2-z
-x,-y,-z
x,-y,1/2+z
1/2+x,1/2+y,z
1/2-x,1/2+y,1/2-z
1/2-x,1/2-y,-z
1/2+x,1/2-y,1/2+z
loop_
_atom_site_type_symbol
_atom_site_label
_atom_site_fract_x
_atom_site_fract_y
_atom_site_fract_z
Si Si1 0.688056 0.790494 0.252205
Si Si2 0.500000 0.449545 0.250000
Si Si3 0.586186 0.660666 0.848049
Si Si4 0.800968 0.810439 0.256118
Si Si5 0.000000 0.226168 0.250000
Si Si6 0.075106 0.683590 0.057056
Si Si7 0.500000 0.948600 0.750000
O O1 0.741196 0.841031 0.256530
O O2 0.695310 0.724175 0.462951
O O3 0.629922 0.826576 0.352423
O O4 0.691422 0.754689 0.969172
O O5 0.500000 0.500000 0.500000
O O6 0.447960 0.395085 0.297153
O O7 0.647267 0.636350 0.828647
O O8 0.587601 0.747394 0.738873
O O9 0.548582 0.672128 0.121607
O O10 0.026732 0.281514 0.432516
O O11 0.052031 0.606717 0.197333
O O12 0.500000 0.000000 0.500000
#
# Coordination Sequence:
#
# PCOD9301504 Si02
#       7
#     8   4   8   8   4   8   4
#     4   9  18  31  52  83 110 136 180 241 290 329
#     4  12  26  38  53  83 122 152 188 236 292 348
#     4  11  21  35  59  82 112 151 192 236 288 353
#     4   9  18  31  52  83 110 136 180 241 290 329
#     4  12  16  32  58  88 108 146 194 236 278 350
#     4  11  21  35  59  82 112 151 192 236 288 353
#     4  12  26  38  53  83 122 152 188 236 292 348
#
# _framework density 19.090191999999998
#
# number of rings (size 3 to 8) (size 9 to 14) (size 15 to 20)
#    0.000    1.455    5.455    1.091    0.000    0.000 
#    0.000    0.000    0.000    2.182    0.000    0.000 
#    0.000    0.000    0.000    0.000    0.000    0.000 
#
# Total GULP energy -122589.022176 kJ/mol
# GULP energy per Si atom -5572.228281 kJ/mol
# Density = 1.904674 g / cm^3
# Si number density = 19.090192 Si / 1000 Ang^3
#
#
#
# Elastic Constant Matrix: (Units=GPa)
#
#
# Indices 1 2 3 4 5 6 
#
# 1 136.7931 19.8355 10.7132 0.0000 -20.7849 0.0000
# 2 19.8355 64.6932 27.4795 0.0000 -2.6814 0.0000
# 3 10.7132 27.4795 96.5007 0.0000 0.0009 0.0000
# 4 0.0000 0.0000 0.0000 30.9055 0.0000 3.0889
# 5 -20.7849 -2.6814 0.0009 0.0000 39.2940 0.0000
# 6 0.0000 0.0000 0.0000 3.0889 0.0000 4.4212
#
#
#
# Elastic Compliance Matrix: (Units=1/GPa)
#
#
# Indices 1 2 3 4 5 6 
#
# 1 0.008303 -0.002251 -0.000281 0.000000 0.004238 0.000000
# 2 -0.002251 0.018251 -0.004947 0.000000 0.000055 0.000000
# 3 -0.000281 -0.004947 0.011803 0.000000 -0.000486 0.000000
# 4 0.000000 0.000000 0.000000 0.034786 0.000000 -0.024303
# 5 0.004238 0.000055 -0.000486 0.000000 0.027695 0.000000
# 6 0.000000 0.000000 0.000000 -0.024303 0.000000 0.243160
#
#
# Mechanical properties :
#
#
# Convention : Reuss Voigt Hill
#
# Bulk Modulus (GPa) = 42.73729 46.00481 44.37105
# Shear Modulus (GPa) = 13.63308 30.92140 22.27724
#
# Velocity S-wave (km/s) = 2.67524 4.02898 3.41977
# Velocity P-wave (km/s) = 5.65493 6.76717 6.23589
#
# Compressibility (1/GPa) = 0.02339877
#
# Stress axis : x y z
#
# Youngs Moduli (GPa) = 120.44372 54.79021 84.72691
#
# Poissons Ratio (x) = 0.12332 0.02380
# Poissons Ratio (y) = 0.27108 0.41918
# Poissons Ratio (z) = 0.03383 0.27107
#
# Static dielectric constant tensor:
#      x y z
#    x 1.771870 0.000000 -0.035660 
#    y 0.000000 1.658520 0.000000 
#    z -0.035660 0.000000 1.757690 
# 
# From -- ./inp_files/16870.got.cif
#   From: 2010.05.17/outbox.cif.g08.bks.cpg/sg15_9_cif.got.tgz:16870.got - 2010.06.03 18:47:42.
