data_PCOD9301277
_publ_section_title
;
Structure prediction by ZEFSAII (Michael W. Deem and Ramdas Pophale) SiO2 
 PCOD9301277
Probable space group: C 2/C
;
_chemical_formula_sum "Si O2"
_cell_formula_units_Z 64
_cell_length_a 15.266270
_cell_length_b 12.127863
_cell_length_c 19.057383
_cell_angle_alpha 90.000000
_cell_angle_beta 72.589936
_cell_angle_gamma 90.000000
_cell_volume 3366.776889
_symmetry_space_group_name_H-M "C 2/C"
_symmetry_group_IT_number 15
_symmetry_cell_setting 'monoclinic'
loop_
_space_group_symop_operation_xyz
x,y,z
-x,y,1/2-z
-x,-y,-z
x,-y,1/2+z
1/2+x,1/2+y,z
1/2-x,1/2+y,1/2-z
1/2-x,1/2-y,-z
1/2+x,1/2-y,1/2+z
loop_
_atom_site_type_symbol
_atom_site_label
_atom_site_fract_x
_atom_site_fract_y
_atom_site_fract_z
Si Si1 0.135464 0.678746 0.663106
Si Si2 0.459360 0.516261 0.837052
Si Si3 0.429629 0.632523 0.076582
Si Si4 0.427872 0.840699 0.164382
Si Si5 0.926273 0.550804 0.072569
Si Si6 0.964575 0.199520 0.590179
Si Si7 0.281835 0.401242 0.919119
Si Si8 0.300807 0.433971 0.077925
O O1 0.119128 0.679974 0.749859
O O2 0.189344 0.785778 0.622643
O O3 0.196853 0.574443 0.627889
O O4 0.036907 0.675101 0.649881
O O5 0.500000 0.497310 0.750000
O O6 0.509652 0.432869 0.879932
O O7 0.483702 0.637958 0.859179
O O8 0.351459 0.489741 0.867948
O O9 0.397802 0.747203 0.117124
O O10 0.347035 0.552377 0.075477
O O11 0.488385 0.657827 0.993295
O O12 0.413294 0.961523 0.136936
O O13 0.962072 0.669081 0.090884
O O14 0.825449 0.572449 0.064027
O O15 0.000000 0.500000 0.000000
O O16 0.862382 0.149059 0.609649
O O17 0.303710 0.397726 0.996433
#
# Coordination Sequence:
#
# PCOD9301277 Si02
#       8
#     8   8   8   8   8   8   8   8
#     4  11  23  40  66  95 124 167 228 262 319 388
#     4  11  22  39  68  99 130 163 217 275 327 376
#     4  11  20  40  67  92 129 159 212 274 318 369
#     4  11  24  43  62  94 133 170 209 271 328 381
#     4  12  26  42  65  91 137 174 213 264 330 390
#     4  11  21  42  64  94 127 166 211 264 325 378
#     4  12  22  40  68  98 120 168 224 269 308 396
#     4  11  21  38  67  97 121 161 218 268 316 379
#
# _framework density 19.009278999999999
#
# number of rings (size 3 to 8) (size 9 to 14) (size 15 to 20)
#    0.000    0.750    6.250    2.625    0.000    3.000 
#    2.250    3.750    0.000    0.000    0.000    0.000 
#    0.000    0.000    0.000    0.000    0.000    0.000 
#
# Total GULP energy -178845.756475 kJ/mol
# GULP energy per Si atom -5588.929890 kJ/mol
# Density = 1.896601 g / cm^3
# Si number density = 19.009279 Si / 1000 Ang^3
#
#
#
# Elastic Constant Matrix: (Units=GPa)
#
#
# Indices 1 2 3 4 5 6 
#
# 1 77.7666 31.7897 41.1398 0.0000 -14.2789 0.0000
# 2 31.7897 115.5662 24.1341 0.0000 0.4927 0.0000
# 3 41.1398 24.1341 67.6562 0.0000 -6.9434 0.0000
# 4 0.0000 0.0000 0.0000 -10.9031 0.0000 5.3991
# 5 -14.2789 0.4927 -6.9434 0.0000 26.0125 0.0000
# 6 0.0000 0.0000 0.0000 5.3991 0.0000 29.8266
#
#
#
# Elastic Compliance Matrix: (Units=1/GPa)
#
#
# Indices 1 2 3 4 5 6 
#
# 1 0.021923 -0.003762 -0.011049 0.000000 0.009156 0.000000
# 2 -0.003762 0.010026 -0.001563 0.000000 -0.002672 0.000000
# 3 -0.011049 -0.001563 0.022041 0.000000 -0.000152 0.000000
# 4 0.000000 0.000000 0.000000 -0.084172 0.000000 0.015237
# 5 0.009156 -0.002672 -0.000152 0.000000 0.043479 0.000000
# 6 0.000000 0.000000 0.000000 0.015237 0.000000 0.030769
#
#
# Mechanical properties :
#
#
# Convention : Reuss Voigt Hill
#
# Bulk Modulus (GPa) = 47.07743 50.56848 48.82295
# Shear Modulus (GPa) = 59.59806 19.91557 39.75682
#
# Velocity S-wave (km/s) = 5.60537 3.24029 4.57819
# Velocity P-wave (km/s) = 8.16779 6.37645 7.32707
#
# Compressibility (1/GPa) = 0.02124160
#
# Stress axis : x y z
#
# Youngs Moduli (GPa) = 45.61351 99.74332 45.36960
#
# Poissons Ratio (x) = 0.37526 0.50130
# Poissons Ratio (y) = 0.17161 0.07091
# Poissons Ratio (z) = 0.50399 0.15589
#
# Static dielectric constant tensor:
#      x y z
#    x 1.673390 0.000000 -0.012180 
#    y 0.000000 1.672600 0.000000 
#    z -0.012180 0.000000 1.651630 
# 
# From -- ./inp_files/243712.got.cif
#   From: 2010.05.17/outbox.cif.g08.bks.cpg/sg15_122_cif.got.tgz:243712.got - 2010.06.03 18:47:42.
