data_PCOD9301903
_publ_section_title
;
Structure prediction by ZEFSAII (Michael W. Deem and Ramdas Pophale) SiO2 
 PCOD9301903
Probable space group: C 2/C
;
_chemical_formula_sum "Si O2"
_cell_formula_units_Z 48
_cell_length_a 8.140456
_cell_length_b 11.172202
_cell_length_c 21.550595
_cell_angle_alpha 90.000000
_cell_angle_beta 97.333949
_cell_angle_gamma 90.000000
_cell_volume 1943.923602
_symmetry_space_group_name_H-M "C 2/C"
_symmetry_group_IT_number 15
_symmetry_cell_setting 'monoclinic'
loop_
_space_group_symop_operation_xyz
x,y,z
-x,y,1/2-z
-x,-y,-z
x,-y,1/2+z
1/2+x,1/2+y,z
1/2-x,1/2+y,1/2-z
1/2-x,1/2-y,-z
1/2+x,1/2-y,1/2+z
loop_
_atom_site_type_symbol
_atom_site_label
_atom_site_fract_x
_atom_site_fract_y
_atom_site_fract_z
Si Si1 0.081634 0.520850 0.925453
Si Si2 0.320168 0.000472 0.213601
Si Si3 0.133719 0.133828 0.501475
Si Si4 0.991607 0.267282 0.894403
Si Si5 0.343173 0.245793 0.936803
Si Si6 0.312000 0.244665 0.263256
O O1 0.155675 0.518467 0.858950
O O2 0.234957 0.530079 0.980857
O O3 0.993492 0.394022 0.929388
O O4 0.951637 0.628512 0.927063
O O5 0.500000 0.025242 0.250000
O O6 0.268428 0.875655 0.242533
O O7 0.230272 0.125411 0.229108
O O8 0.250000 0.250000 0.500000
O O9 0.047655 0.156313 0.563720
O O10 0.984144 0.149432 0.445609
O O11 0.184584 0.253442 0.883662
O O12 0.847841 0.279959 0.837592
O O13 0.250000 0.250000 0.000000
O O14 0.500000 0.264537 0.250000
#
# Coordination Sequence:
#
# PCOD9301903 Si02
#       6
#     8   8   8   8   8   8
#     4  11  21  40  67  91 129 172 213 268 327 388
#     4  11  24  43  67  98 131 174 223 272 332 395
#     4   9  20  39  62  93 128 165 211 266 322 388
#     4  11  21  40  65  92 128 170 212 271 330 385
#     4   9  22  39  62  97 128 165 211 267 326 391
#     4  11  24  43  67  98 133 172 221 277 330 395
#
# _framework density 24.692328
#
# number of rings (size 3 to 8) (size 9 to 14) (size 15 to 20)
#    0.000    1.667    5.000    0.000    2.333    7.333 
#    0.000    5.000    0.000    0.000    0.000    0.000 
#    0.000    0.000    0.000    0.000    0.000    0.000 
#
# Total GULP energy -133789.566310 kJ/mol
# GULP energy per Si atom -5574.565263 kJ/mol
# Density = 2.463613 g / cm^3
# Si number density = 24.692328 Si / 1000 Ang^3
#
#
#
# Elastic Constant Matrix: (Units=GPa)
#
#
# Indices 1 2 3 4 5 6 
#
# 1 67.4301 34.4751 3.1692 0.0000 2.4167 0.0000
# 2 34.4751 159.2978 18.2000 0.0000 -20.8605 0.0000
# 3 3.1692 18.2000 44.9829 0.0000 -2.7946 0.0000
# 4 0.0000 0.0000 0.0000 29.9300 0.0000 -3.0961
# 5 2.4167 -20.8605 -2.7946 0.0000 26.5654 0.0000
# 6 0.0000 0.0000 0.0000 -3.0961 0.0000 49.6515
#
#
#
# Elastic Compliance Matrix: (Units=1/GPa)
#
#
# Indices 1 2 3 4 5 6 
#
# 1 0.017258 -0.004422 0.000262 0.000000 -0.005015 0.000000
# 2 -0.004422 0.008422 -0.002678 0.000000 0.006734 0.000000
# 3 0.000262 -0.002678 0.023316 0.000000 0.000326 0.000000
# 4 0.000000 0.000000 0.000000 0.033628 0.000000 0.002097
# 5 -0.005015 0.006734 0.000326 0.000000 0.043421 0.000000
# 6 0.000000 0.000000 0.000000 0.002097 0.000000 0.020271
#
#
# Mechanical properties :
#
#
# Convention : Reuss Voigt Hill
#
# Bulk Modulus (GPa) = 28.31189 42.59992 35.45591
# Shear Modulus (GPa) = 29.10931 35.62047 32.36489
#
# Velocity S-wave (km/s) = 3.43721 3.80224 3.62432
# Velocity P-wave (km/s) = 5.21951 6.04697 5.64841
#
# Compressibility (1/GPa) = 0.03532085
#
# Stress axis : x y z
#
# Youngs Moduli (GPa) = 57.94344 118.73322 42.88910
#
# Poissons Ratio (x) = 0.52498 -0.01122
# Poissons Ratio (y) = 0.25620 0.11485
# Poissons Ratio (z) = -0.01515 0.31794
#
# Static dielectric constant tensor:
#      x y z
#    x 1.983870 0.000000 -0.033150 
#    y 0.000000 2.024890 0.000000 
#    z -0.033150 0.000000 2.215060 
# 
# From -- ./inp_files/263252.got.cif
#   From: 2010.05.17/outbox.cif.g08.bks.cpg/sg15_132_cif.got.tgz:263252.got - 2010.06.03 18:47:42.
