data_PCOD9301160
_publ_section_title
;
Structure prediction by ZEFSAII (Michael W. Deem and Ramdas Pophale) SiO2 
 PCOD9301160
Probable space group: C 2/C
;
_chemical_formula_sum "Si O2"
_cell_formula_units_Z 40
_cell_length_a 14.875163
_cell_length_b 13.460391
_cell_length_c 10.128378
_cell_angle_alpha 90.000000
_cell_angle_beta 55.343862
_cell_angle_gamma 90.000000
_cell_volume 1668.158248
_symmetry_space_group_name_H-M "C 2/C"
_symmetry_group_IT_number 15
_symmetry_cell_setting 'monoclinic'
loop_
_space_group_symop_operation_xyz
x,y,z
-x,y,1/2-z
-x,-y,-z
x,-y,1/2+z
1/2+x,1/2+y,z
1/2-x,1/2+y,1/2-z
1/2-x,1/2-y,-z
1/2+x,1/2-y,1/2+z
loop_
_atom_site_type_symbol
_atom_site_label
_atom_site_fract_x
_atom_site_fract_y
_atom_site_fract_z
Si Si1 0.669893 0.087209 0.224290
Si Si2 0.677509 0.347601 0.581189
Si Si3 0.195687 0.543432 0.930447
Si Si4 0.120074 0.189707 0.834816
Si Si5 0.925580 0.900135 0.561995
O O1 0.645342 0.194657 0.304590
O O2 0.803378 0.080276 0.111114
O O3 0.637083 0.996089 0.347224
O O4 0.628021 0.084017 0.109712
O O5 0.750000 0.250000 0.500000
O O6 0.750794 0.443432 0.553030
O O7 0.623923 0.349865 0.482637
O O8 0.598606 0.349910 0.774531
O O9 0.289316 0.623397 0.815022
O O10 0.993440 0.170638 0.908394
O O11 0.000000 0.000000 0.500000
#
# Coordination Sequence:
#
# PCOD9301160 Si02
#       5
#     8   8   8   8   8
#     4  11  24  39  65 101 129 172 215 283 331 392
#     4  11  20  38  64  95 129 169 212 271 328 387
#     4  11  21  39  64  91 132 170 218 266 335 380
#     4  12  22  39  64  96 132 171 220 273 338 384
#     4  11  21  39  65  98 128 167 222 279 319 386
#
# _framework density 23.978541
#
# number of rings (size 3 to 8) (size 9 to 14) (size 15 to 20)
#    0.000    0.800   10.000    1.200    0.000    2.400 
#    0.000    0.000    0.000    7.200    0.000    0.000 
#    0.000    0.000    0.000    0.000    0.000    0.000 
#
# Total GULP energy -111636.904659 kJ/mol
# GULP energy per Si atom -5581.845233 kJ/mol
# Density = 2.392396 g / cm^3
# Si number density = 23.978541 Si / 1000 Ang^3
#
#
#
# Elastic Constant Matrix: (Units=GPa)
#
#
# Indices 1 2 3 4 5 6 
#
# 1 19.0154 12.9611 46.2714 0.0000 2.5916 0.0000
# 2 12.9611 103.1321 44.8097 0.0000 -3.1611 0.0000
# 3 46.2714 44.8097 161.3334 0.0000 32.0453 0.0000
# 4 0.0000 0.0000 0.0000 50.3297 0.0000 0.3288
# 5 2.5916 -3.1611 32.0453 0.0000 52.0018 0.0000
# 6 0.0000 0.0000 0.0000 0.3288 0.0000 21.5932
#
#
#
# Elastic Compliance Matrix: (Units=1/GPa)
#
#
# Indices 1 2 3 4 5 6 
#
# 1 0.210100 0.003925 -0.067589 0.000000 0.031419 0.000000
# 2 0.003925 0.011502 -0.005037 0.000000 0.003608 0.000000
# 3 -0.067589 -0.005037 0.030052 0.000000 -0.015457 0.000000
# 4 0.000000 0.000000 0.000000 0.019871 0.000000 -0.000303
# 5 0.031419 0.003608 -0.015457 0.000000 0.027409 0.000000
# 6 0.000000 0.000000 0.000000 -0.000303 0.000000 0.046315
#
#
# Mechanical properties :
#
#
# Convention : Reuss Voigt Hill
#
# Bulk Modulus (GPa) = 8.75247 54.61838 31.68542
# Shear Modulus (GPa) = 9.60180 36.74752 23.17466
#
# Velocity S-wave (km/s) = 2.00325 3.91898 3.11219
# Velocity P-wave (km/s) = 3.00146 6.58068 5.11440
#
# Compressibility (1/GPa) = 0.11425352
#
# Stress axis : x y z
#
# Youngs Moduli (GPa) = 4.75963 86.94072 33.27512
#
# Poissons Ratio (x) = -0.34126 2.24903
# Poissons Ratio (y) = -0.01868 0.16761
# Poissons Ratio (z) = 0.32170 0.43792
#
# Static dielectric constant tensor:
#      x y z
#    x 2.168700 0.000000 0.012660 
#    y 0.000000 1.887030 0.000000 
#    z 0.012660 0.000000 2.040530 
# 
# From -- ./inp_files/104750.got.cif
#   From: 2010.05.17/outbox.cif.g08.bks.cpg/sg15_53_cif.got.tgz:104750.got - 2010.06.03 18:47:42.
