data_PCOD9301498
_publ_section_title
;
Structure prediction by ZEFSAII (Michael W. Deem and Ramdas Pophale) SiO2 
 PCOD9301498
Probable space group: C 2/C
;
_chemical_formula_sum "Si O2"
_cell_formula_units_Z 36
_cell_length_a 24.707396
_cell_length_b 15.177586
_cell_length_c 8.234868
_cell_angle_alpha 90.000000
_cell_angle_beta 147.447145
_cell_angle_gamma 90.000000
_cell_volume 1661.617564
_symmetry_space_group_name_H-M "C 2/C"
_symmetry_group_IT_number 15
_symmetry_cell_setting 'monoclinic'
loop_
_space_group_symop_operation_xyz
x,y,z
-x,y,1/2-z
-x,-y,-z
x,-y,1/2+z
1/2+x,1/2+y,z
1/2-x,1/2+y,1/2-z
1/2-x,1/2-y,-z
1/2+x,1/2-y,1/2+z
loop_
_atom_site_type_symbol
_atom_site_label
_atom_site_fract_x
_atom_site_fract_y
_atom_site_fract_z
Si Si1 0.733324 0.050668 0.778626
Si Si2 0.500000 0.974281 0.750000
Si Si3 0.733352 0.628543 0.298473
Si Si4 0.969174 0.358264 0.346637
Si Si5 0.669093 0.780503 0.926200
O O1 0.626038 0.015723 0.565833
O O2 0.709330 0.123939 0.582650
O O3 0.786988 0.962612 0.849696
O O4 0.780650 0.102762 0.049754
O O5 0.496241 0.917394 0.568852
O O6 0.850791 0.656980 0.560867
O O7 0.670310 0.711312 0.076950
O O8 0.000000 0.406731 0.250000
O O9 0.055499 0.284706 0.569231
O O10 0.750000 0.750000 0.000000
#
# Coordination Sequence:
#
# PCOD9301498 Si02
#       5
#     8   4   8   8   8
#     4  11  21  35  57  84 118 145 184 236 282 341
#     4   8  16  34  54  86 110 140 180 232 300 320
#     4  11  22  37  56  89 114 149 188 229 286 334
#     4   9  18  35  56  84 114 147 184 228 285 333
#     4  12  21  35  56  83 117 153 184 230 282 337
#
# _framework density 21.665635000000002
#
# number of rings (size 3 to 8) (size 9 to 14) (size 15 to 20)
#    0.667    0.889    2.222    4.667    0.000    3.556 
#    0.000    0.000    0.000    1.333    0.000    3.111 
#    0.000    0.000    0.000    0.000    0.000    0.000 
#
# Total GULP energy -100330.688560 kJ/mol
# GULP energy per Si atom -5573.927142 kJ/mol
# Density = 2.161632 g / cm^3
# Si number density = 21.665635 Si / 1000 Ang^3
#
#
#
# Elastic Constant Matrix: (Units=GPa)
#
#
# Indices 1 2 3 4 5 6 
#
# 1 63.2103 1.3229 16.3728 0.0000 -9.8729 0.0000
# 2 1.3229 90.6258 38.6460 0.0000 2.7615 0.0000
# 3 16.3728 38.6460 81.3270 0.0000 -17.2996 0.0000
# 4 0.0000 0.0000 0.0000 39.8147 0.0000 0.8566
# 5 -9.8729 2.7615 -17.2996 0.0000 23.4297 0.0000
# 6 0.0000 0.0000 0.0000 0.8566 0.0000 16.0673
#
#
#
# Elastic Compliance Matrix: (Units=1/GPa)
#
#
# Indices 1 2 3 4 5 6 
#
# 1 0.017325 0.000761 -0.002747 0.000000 0.005183 0.000000
# 2 0.000761 0.015149 -0.009092 0.000000 -0.008178 0.000000
# 3 -0.002747 -0.009092 0.020347 0.000000 0.014937 0.000000
# 4 0.000000 0.000000 0.000000 0.025145 0.000000 -0.001341
# 5 0.005183 -0.008178 0.014937 0.000000 0.056858 0.000000
# 6 0.000000 0.000000 0.000000 -0.001341 0.000000 0.062310
#
#
# Mechanical properties :
#
#
# Convention : Reuss Voigt Hill
#
# Bulk Modulus (GPa) = 32.60987 38.64960 35.62974
# Shear Modulus (GPa) = 21.78537 27.78377 24.78457
#
# Velocity S-wave (km/s) = 3.17444 3.58493 3.38591
# Velocity P-wave (km/s) = 5.34043 5.91722 5.63621
#
# Compressibility (1/GPa) = 0.03066556
#
# Stress axis : x y z
#
# Youngs Moduli (GPa) = 57.71915 66.00906 49.14800
#
# Poissons Ratio (x) = -0.05020 0.13500
# Poissons Ratio (y) = -0.04390 0.44683
# Poissons Ratio (z) = 0.15855 0.60013
#
# Static dielectric constant tensor:
#      x y z
#    x 1.865220 0.000000 -0.061880 
#    y 0.000000 1.885770 0.000000 
#    z -0.061880 0.000000 1.797300 
# 
# From -- ./inp_files/37412.got.cif
#   From: 2010.05.17/outbox.cif.g08.bks.cpg/sg15_19_cif.got.tgz:37412.got - 2010.06.03 18:47:42.
