data_PCOD9301478
_publ_section_title
;
Structure prediction by ZEFSAII (Michael W. Deem and Ramdas Pophale) SiO2 
 PCOD9301478
Probable space group: C 2/C
;
_chemical_formula_sum "Si O2"
_cell_formula_units_Z 48
_cell_length_a 21.415178
_cell_length_b 9.267116
_cell_length_c 26.224777
_cell_angle_alpha 90.000000
_cell_angle_beta 157.771249
_cell_angle_gamma 90.000000
_cell_volume 1968.885970
_symmetry_space_group_name_H-M "C 2/C"
_symmetry_group_IT_number 15
_symmetry_cell_setting 'monoclinic'
loop_
_space_group_symop_operation_xyz
x,y,z
-x,y,1/2-z
-x,-y,-z
x,-y,1/2+z
1/2+x,1/2+y,z
1/2-x,1/2+y,1/2-z
1/2-x,1/2-y,-z
1/2+x,1/2-y,1/2+z
loop_
_atom_site_type_symbol
_atom_site_label
_atom_site_fract_x
_atom_site_fract_y
_atom_site_fract_z
Si Si1 0.089648 0.078589 0.133041
Si Si2 0.213096 0.540720 0.024331
Si Si3 0.502334 0.533887 0.326265
Si Si4 0.497097 0.211820 0.186142
Si Si5 0.379384 0.694282 0.446806
Si Si6 0.962862 0.489254 0.912255
O O1 0.085062 0.203319 0.087259
O O2 0.267707 0.005813 0.258270
O O3 0.068047 0.107385 0.176495
O O4 0.951492 0.960172 0.016597
O O5 0.352872 0.512415 0.173289
O O6 0.337747 0.611575 0.076983
O O7 0.121437 0.413446 0.923988
O O8 0.063198 0.588119 0.948191
O O9 0.556673 0.368045 0.375748
O O10 0.500000 0.213006 0.250000
O O11 0.685552 0.193896 0.310537
O O12 0.469643 0.823790 0.544522
O O13 0.000000 0.500000 0.000000
#
# Coordination Sequence:
#
# PCOD9301478 Si02
#       6
#     8   8   8   8   8   8
#     4  11  24  40  60  86 127 161 201 251 304 367
#     4  11  21  34  57  89 123 158 199 250 308 373
#     4  11  21  36  56  87 121 161 198 242 309 363
#     4  12  20  34  58  92 129 156 193 253 321 373
#     4  11  24  39  59  92 125 159 202 252 307 369
#     4  12  22  39  63  92 118 162 208 252 308 358
#
# _framework density 24.379270000000002
#
# number of rings (size 3 to 8) (size 9 to 14) (size 15 to 20)
#    0.000    0.667    6.667    2.500    2.333    0.000 
#    0.000    0.000    0.000    1.000    4.333    0.000 
#    0.000    0.000    0.000    0.000    0.000    0.000 
#
# Total GULP energy -134008.758471 kJ/mol
# GULP energy per Si atom -5583.698270 kJ/mol
# Density = 2.432378 g / cm^3
# Si number density = 24.379270 Si / 1000 Ang^3
#
#
#
# Elastic Constant Matrix: (Units=GPa)
#
#
# Indices 1 2 3 4 5 6 
#
# 1 207.9767 12.7171 57.5853 0.0007 31.0429 -0.0002
# 2 12.7171 35.9973 44.3939 -0.0031 -1.0090 0.0000
# 3 57.5853 44.3939 128.9320 -0.0109 33.8864 0.0010
# 4 0.0007 -0.0031 -0.0109 26.6997 -0.0008 -0.8711
# 5 31.0429 -1.0090 33.8864 -0.0008 56.8663 0.0005
# 6 -0.0002 0.0000 0.0010 -0.8711 0.0005 28.0331
#
#
#
# Elastic Compliance Matrix: (Units=1/GPa)
#
#
# Indices 1 2 3 4 5 6 
#
# 1 0.005666 0.000948 -0.002429 -0.000001 -0.001629 0.000000
# 2 0.000948 0.057759 -0.024241 -0.000003 0.014952 0.000000
# 3 -0.002429 -0.024241 0.020100 0.000005 -0.011082 0.000000
# 4 -0.000001 -0.000003 0.000005 0.037492 -0.000002 0.001165
# 5 -0.001629 0.014952 -0.011082 -0.000002 0.025343 0.000000
# 6 0.000000 0.000000 0.000000 0.001165 0.000000 0.035708
#
#
# Mechanical properties :
#
#
# Convention : Reuss Voigt Hill
#
# Bulk Modulus (GPa) = 31.17031 66.92206 49.04619
# Shear Modulus (GPa) = 20.47451 39.53381 30.00416
#
# Velocity S-wave (km/s) = 2.90113 4.03130 3.51197
# Velocity P-wave (km/s) = 4.90259 7.01274 6.05037
#
# Compressibility (1/GPa) = 0.03208182
#
# Stress axis : x y z
#
# Youngs Moduli (GPa) = 176.49419 17.31320 49.75082
#
# Poissons Ratio (x) = -0.01642 0.12085
# Poissons Ratio (y) = -0.16738 1.20602
# Poissons Ratio (z) = 0.42871 0.41969
#
# Static dielectric constant tensor:
#      x y z
#    x 2.051670 0.000000 -0.010330 
#    y 0.000000 1.973100 0.000000 
#    z -0.010330 0.000000 1.868970 
# 
# From -- ./inp_files/300966.got.cif
#   From: 2010.05.17/outbox.cif.g08.bks.cpg/sg15_151_cif.got.tgz:300966.got - 2010.06.03 18:47:42.
