data_PCOD9301666
_publ_section_title
;
Structure prediction by ZEFSAII (Michael W. Deem and Ramdas Pophale) SiO2 
 PCOD9301666
Probable space group: C 2/C
;
_chemical_formula_sum "Si O2"
_cell_formula_units_Z 36
_cell_length_a 9.440816
_cell_length_b 18.935233
_cell_length_c 12.311429
_cell_angle_alpha 90.000000
_cell_angle_beta 34.845723
_cell_angle_gamma 90.000000
_cell_volume 1257.491563
_symmetry_space_group_name_H-M "C 2/C"
_symmetry_group_IT_number 15
_symmetry_cell_setting 'monoclinic'
loop_
_space_group_symop_operation_xyz
x,y,z
-x,y,1/2-z
-x,-y,-z
x,-y,1/2+z
1/2+x,1/2+y,z
1/2-x,1/2+y,1/2-z
1/2-x,1/2-y,-z
1/2+x,1/2-y,1/2+z
loop_
_atom_site_type_symbol
_atom_site_label
_atom_site_fract_x
_atom_site_fract_y
_atom_site_fract_z
Si Si1 0.712137 0.977162 0.176427
Si Si2 0.945114 0.313948 0.029294
Si Si3 0.000000 0.657073 0.250000
Si Si4 0.299257 0.038755 0.072467
Si Si5 0.955772 0.841053 0.055376
O O1 0.377886 0.991804 0.398957
O O2 0.758225 0.892590 0.127495
O O3 0.668646 0.987521 0.340388
O O4 0.000000 0.000000 0.000000
O O5 0.673482 0.328861 0.247152
O O6 0.937117 0.308853 0.904280
O O7 0.120809 0.379623 0.950667
O O8 0.019625 0.234839 0.018097
O O9 0.730895 0.624649 0.390496
O O10 0.000000 0.041216 0.250000
#
# Coordination Sequence:
#
# PCOD9301666 Si02
#       5
#     8   8   4   8   8
#     4   7  18  36  61  89 126 159 195 277 307 366
#     4  11  22  35  60  91 127 167 203 271 309 379
#     4  12  24  34  62  90 126 166 214 250 312 394
#     4   8  17  37  62  88 119 166 208 252 314 376
#     4  11  21  38  56  95 127 160 207 260 324 362
#
# _framework density 28.628422
#
# number of rings (size 3 to 8) (size 9 to 14) (size 15 to 20)
#    1.333    0.889    2.222    1.333    0.000    2.667 
#    0.000    1.111    0.000   17.333    0.000    0.000 
#    0.000    0.000    0.000    0.000    0.000    0.000 
#
# Total GULP energy -100449.199853 kJ/mol
# GULP energy per Si atom -5580.511103 kJ/mol
# Density = 2.856326 g / cm^3
# Si number density = 28.628422 Si / 1000 Ang^3
#
#
#
# Elastic Constant Matrix: (Units=GPa)
#
#
# Indices 1 2 3 4 5 6 
#
# 1 213.9068 85.3602 85.0301 -0.0017 -33.6144 0.0011
# 2 85.3602 151.7751 31.8172 0.0002 -38.3801 0.0002
# 3 85.0301 31.8172 278.7604 -0.0061 13.7221 0.0048
# 4 -0.0017 0.0002 -0.0061 26.8944 0.0017 -7.0184
# 5 -33.6144 -38.3801 13.7221 0.0017 53.7310 -0.0012
# 6 0.0011 0.0002 0.0048 -7.0184 -0.0012 35.1846
#
#
#
# Elastic Compliance Matrix: (Units=1/GPa)
#
#
# Indices 1 2 3 4 5 6 
#
# 1 0.007034 -0.002812 -0.001967 0.000000 0.002894 0.000000
# 2 -0.002812 0.009594 -0.000494 -0.000001 0.005220 0.000000
# 3 -0.001967 -0.000494 0.004377 0.000001 -0.002701 0.000000
# 4 0.000000 -0.000001 0.000001 0.039224 -0.000002 0.007824
# 5 0.002894 0.005220 -0.002701 -0.000002 0.024841 0.000001
# 6 0.000000 0.000000 0.000000 0.007824 0.000001 0.029982
#
#
# Mechanical properties :
#
#
# Convention : Reuss Voigt Hill
#
# Bulk Modulus (GPa) = 95.61975 116.53970 106.07973
# Shear Modulus (GPa) = 38.73481 52.64432 45.68956
#
# Velocity S-wave (km/s) = 3.68233 4.29287 3.99927
# Velocity P-wave (km/s) = 7.17999 8.08503 7.64591
#
# Compressibility (1/GPa) = 0.01045809
#
# Stress axis : x y z
#
# Youngs Moduli (GPa) = 142.17390 104.23623 228.48167
#
# Poissons Ratio (x) = 0.29306 0.44943
# Poissons Ratio (y) = 0.39973 0.11295
# Poissons Ratio (z) = 0.27966 0.05153
#
# Static dielectric constant tensor:
#      x y z
#    x 2.351930 -0.000010 -0.228230 
#    y -0.000010 2.296090 0.000000 
#    z -0.228230 0.000000 2.686520 
# 
# From -- ./inp_files/146964.got.cif
#   From: 2010.05.17/outbox.cif.g08.bks.cpg/sg15_74_cif.got.tgz:146964.got - 2010.06.03 18:47:42.
