data_PCOD9301408
_publ_section_title
;
Structure prediction by ZEFSAII (Michael W. Deem and Ramdas Pophale) SiO2 
 PCOD9301408
Probable space group: C 2/C
;
_chemical_formula_sum "Si O2"
_cell_formula_units_Z 56
_cell_length_a 14.775793
_cell_length_b 18.202460
_cell_length_c 16.278774
_cell_angle_alpha 90.000000
_cell_angle_beta 144.618953
_cell_angle_gamma 90.000000
_cell_volume 2535.068909
_symmetry_space_group_name_H-M "C 2/C"
_symmetry_group_IT_number 15
_symmetry_cell_setting 'monoclinic'
loop_
_space_group_symop_operation_xyz
x,y,z
-x,y,1/2-z
-x,-y,-z
x,-y,1/2+z
1/2+x,1/2+y,z
1/2-x,1/2+y,1/2-z
1/2-x,1/2-y,-z
1/2+x,1/2-y,1/2+z
loop_
_atom_site_type_symbol
_atom_site_label
_atom_site_fract_x
_atom_site_fract_y
_atom_site_fract_z
Si Si1 0.672346 0.273283 0.858898
Si Si2 0.276323 0.640046 0.838129
Si Si3 0.885054 0.794357 0.955194
Si Si4 0.854004 0.885959 0.087694
Si Si5 0.964739 0.974377 0.566637
Si Si6 0.269180 0.885268 0.807111
Si Si7 0.617470 0.117045 0.555615
O O1 0.500000 0.301895 0.750000
O O2 0.666603 0.203172 0.794083
O O3 0.775953 0.333693 0.891263
O O4 0.750000 0.250000 0.000000
O O5 0.197770 0.599860 0.702616
O O6 0.436339 0.677684 0.923461
O O7 0.333304 0.587528 0.954196
O O8 0.788001 0.834056 0.811015
O O9 0.884175 0.706758 0.948342
O O10 0.820324 0.825108 0.993466
O O11 0.718166 0.904319 0.051083
O O12 0.000000 0.859047 0.250000
O O13 0.906433 0.958854 0.077977
O O14 0.128323 0.941461 0.718136
O O15 0.000000 0.000000 0.500000
O O16 0.442426 0.913461 0.919652
#
# Coordination Sequence:
#
# PCOD9301408 Si02
#       7
#     8   8   8   8   8   8   8
#     4  12  23  40  66 103 135 173 232 287 352 416
#     4  11  22  42  70  98 142 185 221 300 361 410
#     4  11  20  43  71 103 146 184 218 292 371 418
#     4  12  25  43  71 102 140 191 244 275 345 453
#     4  11  23  47  68  88 139 201 236 271 360 427
#     4  11  24  41  74 103 137 185 227 297 360 410
#     4  12  22  42  72 112 138 173 239 302 355 411
#
# _framework density 22.090129000000001
#
# number of rings (size 3 to 8) (size 9 to 14) (size 15 to 20)
#    0.000    0.571    7.143    3.000    0.000    2.286 
#    0.000    4.286    0.000    0.000    0.000    0.000 
#    0.000    0.000    0.000    0.000    0.000    0.000 
#
# Total GULP energy -156759.859002 kJ/mol
# GULP energy per Si atom -5598.566393 kJ/mol
# Density = 2.203985 g / cm^3
# Si number density = 22.090129 Si / 1000 Ang^3
#
#
#
# Elastic Constant Matrix: (Units=GPa)
#
#
# Indices 1 2 3 4 5 6 
#
# 1 117.4732 13.1867 40.7310 -0.0006 -3.2952 0.0000
# 2 13.1867 65.0585 11.5994 0.0024 -4.3342 0.0006
# 3 40.7310 11.5994 107.9909 0.0022 2.8564 0.0007
# 4 -0.0006 0.0024 0.0022 22.4072 0.0014 -0.2031
# 5 -3.2952 -4.3342 2.8564 0.0014 36.3199 0.0002
# 6 0.0000 0.0006 0.0007 -0.2031 0.0002 38.8513
#
#
#
# Elastic Compliance Matrix: (Units=1/GPa)
#
#
# Indices 1 2 3 4 5 6 
#
# 1 0.009950 -0.001299 -0.003641 0.000001 0.001034 0.000000
# 2 -0.001299 0.015988 -0.001277 -0.000002 0.001891 0.000000
# 3 -0.003641 -0.001277 0.010806 -0.000001 -0.001333 0.000000
# 4 0.000001 -0.000002 -0.000001 0.044631 -0.000002 0.000233
# 5 0.001034 0.001891 -0.001333 -0.000002 0.027957 0.000000
# 6 0.000000 0.000000 0.000000 0.000233 0.000000 0.025740
#
#
# Mechanical properties :
#
#
# Convention : Reuss Voigt Hill
#
# Bulk Modulus (GPa) = 41.13606 46.83963 43.98784
# Shear Modulus (GPa) = 32.13204 34.51605 33.32405
#
# Velocity S-wave (km/s) = 3.81804 3.95715 3.88822
# Velocity P-wave (km/s) = 6.17244 6.49066 6.33354
#
# Compressibility (1/GPa) = 0.02430957
#
# Stress axis : x y z
#
# Youngs Moduli (GPa) = 100.50612 62.54798 92.54455
#
# Poissons Ratio (x) = 0.08123 0.33691
# Poissons Ratio (y) = 0.13053 0.11822
# Poissons Ratio (z) = 0.36590 0.07990
#
# Static dielectric constant tensor:
#      x y z
#    x 1.777960 0.000000 -0.006430 
#    y 0.000000 1.886950 0.000000 
#    z -0.006430 0.000000 1.784080 
# 
# From -- ./inp_files/206998.got.cif
#   From: 2010.05.17/outbox.cif.g08.bks.cpg/sg15_104_cif.got.tgz:206998.got - 2010.06.03 18:47:42.
