data_PCOD9301688
_publ_section_title
;
Structure prediction by ZEFSAII (Michael W. Deem and Ramdas Pophale) SiO2 
 PCOD9301688
Probable space group: C 2/C
;
_chemical_formula_sum "Si O2"
_cell_formula_units_Z 56
_cell_length_a 25.089731
_cell_length_b 6.862103
_cell_length_c 12.908678
_cell_angle_alpha 90.000000
_cell_angle_beta 98.869500
_cell_angle_gamma 90.000000
_cell_volume 2195.889325
_symmetry_space_group_name_H-M "C 2/C"
_symmetry_group_IT_number 15
_symmetry_cell_setting 'monoclinic'
loop_
_space_group_symop_operation_xyz
x,y,z
-x,y,1/2-z
-x,-y,-z
x,-y,1/2+z
1/2+x,1/2+y,z
1/2-x,1/2+y,1/2-z
1/2-x,1/2-y,-z
1/2+x,1/2-y,1/2+z
loop_
_atom_site_type_symbol
_atom_site_label
_atom_site_fract_x
_atom_site_fract_y
_atom_site_fract_z
Si Si1 0.630273 0.317362 0.079634
Si Si2 0.018790 0.775370 1.000000
Si Si3 0.268820 0.562561 0.788951
Si Si4 0.329101 0.059978 0.597521
Si Si5 0.294414 0.842345 0.405799
Si Si6 0.443305 0.106521 0.704107
Si Si7 0.408805 0.756696 0.410282
O O1 0.677208 0.311261 0.179727
O O2 0.612621 0.545646 0.059007
O O3 0.570529 0.232407 0.086869
O O4 0.657632 0.227863 0.983996
O O5 0.041753 0.732009 0.892636
O O6 0.960405 0.672376 0.992697
O O7 0.000000 0.000000 0.000000
O O8 0.213724 0.627127 0.830100
O O9 0.284336 0.365956 0.852476
O O10 0.251174 0.534882 0.665589
O O11 0.387233 0.999697 0.660458
O O12 0.298949 0.884668 0.527957
O O13 0.356676 0.893061 0.396695
O O14 0.500000 0.001428 0.750000
O O15 0.428590 0.244231 0.797603
#
# Coordination Sequence:
#
# PCOD9301688 Si02
#       7
#     8   8   8   8   8   8   8
#     4   9  19  33  57  87 114 155 199 243 293 356
#     4   8  15  30  55  84 113 149 201 242 292 351
#     4  11  22  39  59  87 123 159 205 253 311 358
#     4  11  21  38  61  88 123 163 205 247 309 370
#     4  11  23  38  61  87 120 160 204 258 306 369
#     4   9  17  33  60  88 120 165 205 249 307 359
#     4   9  17  35  58  84 119 156 201 250 295 351
#
# _framework density 25.502198
#
# number of rings (size 3 to 8) (size 9 to 14) (size 15 to 20)
#    0.000    2.286    1.429    1.714    0.000    0.000 
#    2.571    6.429    9.429    0.000    0.000    2.000 
#    0.000    0.000    0.000    0.000    0.000    0.000 
#
# Total GULP energy -156163.133871 kJ/mol
# GULP energy per Si atom -5577.254781 kJ/mol
# Density = 2.544415 g / cm^3
# Si number density = 25.502198 Si / 1000 Ang^3
#
#
#
# Elastic Constant Matrix: (Units=GPa)
#
#
# Indices 1 2 3 4 5 6 
#
# 1 164.9726 19.3253 67.8756 0.0000 53.6500 0.0000
# 2 19.3253 77.5981 14.7221 0.0000 5.8405 0.0000
# 3 67.8756 14.7221 101.2863 0.0000 42.4738 0.0000
# 4 0.0000 0.0000 0.0000 25.8645 0.0000 5.5613
# 5 53.6500 5.8405 42.4738 0.0000 75.6283 0.0000
# 6 0.0000 0.0000 0.0000 5.5613 0.0000 38.7455
#
#
#
# Elastic Compliance Matrix: (Units=1/GPa)
#
#
# Indices 1 2 3 4 5 6 
#
# 1 0.009320 -0.001186 -0.004368 0.000000 -0.004067 0.000000
# 2 -0.001186 0.013404 -0.001402 0.000000 0.000594 0.000000
# 3 -0.004368 -0.001402 0.015251 0.000000 -0.005358 0.000000
# 4 0.000000 0.000000 0.000000 0.039894 0.000000 -0.005726
# 5 -0.004067 0.000594 -0.005358 0.000000 0.019071 0.000000
# 6 0.000000 0.000000 0.000000 -0.005726 0.000000 0.026631
#
#
# Mechanical properties :
#
#
# Convention : Reuss Voigt Hill
#
# Bulk Modulus (GPa) = 41.55993 60.85590 51.20791
# Shear Modulus (GPa) = 34.36297 44.17660 39.26979
#
# Velocity S-wave (km/s) = 3.67475 4.16657 3.92836
# Velocity P-wave (km/s) = 5.85978 6.86016 6.37961
#
# Compressibility (1/GPa) = 0.02406164
#
# Stress axis : x y z
#
# Youngs Moduli (GPa) = 107.29216 74.60617 65.56991
#
# Poissons Ratio (x) = 0.08851 0.28641
# Poissons Ratio (y) = 0.12729 0.09195
# Poissons Ratio (z) = 0.46865 0.10462
#
# Static dielectric constant tensor:
#      x y z
#    x 2.083880 0.000000 0.074950 
#    y 0.000000 2.177430 0.000000 
#    z 0.074950 0.000000 2.054540 
# 
# From -- ./inp_files/171980.got.cif
#   From: 2010.05.17/outbox.cif.g08.bks.cpg/sg15_86_cif.got.tgz:171980.got - 2010.06.03 18:47:42.
