data_PCOD9301462
_publ_section_title
;
Structure prediction by ZEFSAII (Michael W. Deem and Ramdas Pophale) SiO2 
 PCOD9301462
Probable space group: C 2/C
;
_chemical_formula_sum "Si O2"
_cell_formula_units_Z 56
_cell_length_a 20.798531
_cell_length_b 11.854752
_cell_length_c 13.507370
_cell_angle_alpha 90.000000
_cell_angle_beta 122.042810
_cell_angle_gamma 90.000000
_cell_volume 2823.016911
_symmetry_space_group_name_H-M "C 2/C"
_symmetry_group_IT_number 15
_symmetry_cell_setting 'monoclinic'
loop_
_space_group_symop_operation_xyz
x,y,z
-x,y,1/2-z
-x,-y,-z
x,-y,1/2+z
1/2+x,1/2+y,z
1/2-x,1/2+y,1/2-z
1/2-x,1/2-y,-z
1/2+x,1/2-y,1/2+z
loop_
_atom_site_type_symbol
_atom_site_label
_atom_site_fract_x
_atom_site_fract_y
_atom_site_fract_z
Si Si1 0.571333 0.676924 0.880997
Si Si2 0.698710 0.018382 0.313201
Si Si3 0.726960 0.226576 0.789990
Si Si4 0.922062 0.568948 0.130228
Si Si5 0.320229 0.075712 0.426314
Si Si6 0.686090 0.595719 0.811184
Si Si7 0.636434 0.578838 0.118383
O O1 0.500000 0.660522 0.750000
O O2 0.572415 0.808261 0.915048
O O3 0.642213 0.649279 0.866702
O O4 0.574816 0.603324 0.984018
O O5 0.696656 0.883125 0.321192
O O6 0.786572 0.051262 0.380190
O O7 0.645976 0.079265 0.347049
O O8 0.668696 0.050057 0.180280
O O9 0.786944 0.298772 0.903093
O O10 0.770528 0.182397 0.726580
O O11 0.660307 0.310045 0.700114
O O12 0.000000 0.546570 0.250000
O O13 0.895239 0.465116 0.041527
O O14 0.250953 0.992001 0.399859
O O15 0.630926 0.522674 0.693088
#
# Coordination Sequence:
#
# PCOD9301462 Si02
#       7
#     8   8   8   8   8   8   8
#     4  11  21  33  51  74 104 137 166 205 255 305
#     4   9  18  33  55  77 100 130 170 217 252 292
#     4   8  16  32  54  76 100 130 168 212 254 286
#     4  11  23  34  49  77 106 136 170 203 251 308
#     4   9  18  33  55  77 100 130 170 217 252 292
#     4   9  18  33  55  79  98 127 172 213 252 297
#     4   9  18  33  55  79  98 127 172 213 252 297
#
# _framework density 19.836932999999998
#
# number of rings (size 3 to 8) (size 9 to 14) (size 15 to 20)
#    0.000    3.143    0.000    4.286    0.000    3.429 
#    0.000    2.857    0.000    8.571    0.000    0.000 
#    0.000    0.000    0.000    0.000    0.000    0.000 
#
# Total GULP energy -156033.359474 kJ/mol
# GULP energy per Si atom -5572.619981 kJ/mol
# Density = 1.979178 g / cm^3
# Si number density = 19.836933 Si / 1000 Ang^3
#
#
#
# Elastic Constant Matrix: (Units=GPa)
#
#
# Indices 1 2 3 4 5 6 
#
# 1 7.2539 -9.3632 -4.2562 0.0000 -3.0891 0.0000
# 2 -9.3632 64.4780 12.5785 0.0000 -3.3855 0.0000
# 3 -4.2562 12.5785 72.4344 0.0000 -9.0963 0.0000
# 4 0.0000 0.0000 0.0000 2.8094 0.0000 1.6049
# 5 -3.0891 -3.3855 -9.0963 0.0000 9.2163 0.0000
# 6 0.0000 0.0000 0.0000 1.6049 0.0000 12.9666
#
#
#
# Elastic Compliance Matrix: (Units=1/GPa)
#
#
# Indices 1 2 3 4 5 6 
#
# 1 0.253853 0.038698 0.023590 0.000000 0.122585 0.000000
# 2 0.038698 0.022057 0.001244 0.000000 0.022301 0.000000
# 3 0.023590 0.001244 0.018293 0.000000 0.026419 0.000000
# 4 0.000000 0.000000 0.000000 0.383029 0.000000 -0.047407
# 5 0.122585 0.022301 0.026419 0.000000 0.183858 0.000000
# 6 0.000000 0.000000 0.000000 -0.047407 0.000000 0.082989
#
#
# Mechanical properties :
#
#
# Convention : Reuss Voigt Hill
#
# Bulk Modulus (GPa) = 2.37378 15.78716 9.08047
# Shear Modulus (GPa) = 5.22227 14.67894 9.95060
#
# Velocity S-wave (km/s) = 1.62429 2.72321 2.24212
# Velocity P-wave (km/s) = 2.17187 4.22653 3.36010
#
# Compressibility (1/GPa) = 0.42126841
#
# Stress axis : x y z
#
# Youngs Moduli (GPa) = 3.93928 45.33714 54.66449
#
# Poissons Ratio (x) = -1.75445 -1.28955
# Poissons Ratio (y) = -0.15244 -0.06801
# Poissons Ratio (z) = -0.09293 -0.05641
#
# Static dielectric constant tensor:
#      x y z
#    x 1.703970 0.000000 -0.030200 
#    y 0.000000 1.722450 0.000000 
#    z -0.030200 0.000000 1.753480 
# 
# From -- ./inp_files/219179.got.cif
#   From: 2010.05.17/outbox.cif.g08.bks.cpg/sg15_110_cif.got.tgz:219179.got - 2010.06.03 18:47:42.
