data_PCOD9301312
_publ_section_title
;
Structure prediction by ZEFSAII (Michael W. Deem and Ramdas Pophale) SiO2 
 PCOD9301312
Probable space group: C 2/C
;
_chemical_formula_sum "Si O2"
_cell_formula_units_Z 52
_cell_length_a 8.975994
_cell_length_b 17.579326
_cell_length_c 17.712311
_cell_angle_alpha 90.000000
_cell_angle_beta 52.041057
_cell_angle_gamma 90.000000
_cell_volume 2203.611898
_symmetry_space_group_name_H-M "C 2/C"
_symmetry_group_IT_number 15
_symmetry_cell_setting 'monoclinic'
loop_
_space_group_symop_operation_xyz
x,y,z
-x,y,1/2-z
-x,-y,-z
x,-y,1/2+z
1/2+x,1/2+y,z
1/2-x,1/2+y,1/2-z
1/2-x,1/2-y,-z
1/2+x,1/2-y,1/2+z
loop_
_atom_site_type_symbol
_atom_site_label
_atom_site_fract_x
_atom_site_fract_y
_atom_site_fract_z
Si Si1 0.000000 0.299604 0.750000
Si Si2 0.401458 0.075987 0.497722
Si Si3 0.831008 0.498550 0.363149
Si Si4 0.146926 0.899422 0.816550
Si Si5 0.097319 0.808239 0.086434
Si Si6 0.194136 0.333591 0.139377
Si Si7 0.224791 0.843444 0.619128
O O1 0.194219 0.347189 0.693206
O O2 0.004595 0.245144 0.677601
O O3 0.364167 0.055681 0.421719
O O4 0.210041 0.118058 0.583222
O O5 0.559385 0.139426 0.462682
O O6 0.500000 0.000000 0.500000
O O7 0.664072 0.522392 0.358129
O O8 0.824652 0.413620 0.397752
O O9 0.000000 0.503350 0.250000
O O10 0.193638 0.881985 0.712836
O O11 0.928384 0.880039 0.887485
O O12 0.912809 0.837171 0.099421
O O13 0.250000 0.750000 0.000000
O O14 0.185531 0.245506 0.119771
O O15 0.000000 0.337890 0.250000
#
# Coordination Sequence:
#
# PCOD9301312 Si02
#       7
#     4   8   8   8   8   8   8
#     4  12  22  44  76 110 142 204 250 306 386 458
#     4  12  28  49  68 110 155 192 249 318 380 444
#     4  11  24  45  77 103 150 201 249 305 378 456
#     4  11  20  40  76 103 137 192 249 296 373 437
#     4  12  25  47  76 107 152 197 254 313 379 457
#     4  11  23  44  74 110 149 190 253 314 367 453
#     4  11  21  44  70 105 147 185 243 316 361 446
#
# _framework density 23.597622000000001
#
# number of rings (size 3 to 8) (size 9 to 14) (size 15 to 20)
#    0.000    0.615    6.923    0.923    2.154    4.308 
#    2.769    1.538    0.000    0.000    0.000    0.000 
#    0.000    0.000    0.000    0.000    0.000    0.000 
#
# Total GULP energy -144782.618750 kJ/mol
# GULP energy per Si atom -5568.562260 kJ/mol
# Density = 2.354391 g / cm^3
# Si number density = 23.597622 Si / 1000 Ang^3
#
#
#
# Elastic Constant Matrix: (Units=GPa)
#
#
# Indices 1 2 3 4 5 6 
#
# 1 117.3248 29.7983 18.5608 0.0000 -23.8717 -0.0011
# 2 29.7983 110.3948 17.0301 0.0000 7.2328 -0.0006
# 3 18.5608 17.0301 48.6528 0.0001 -13.8086 0.0001
# 4 0.0000 0.0000 0.0001 -49.5820 0.0000 -105.5615
# 5 -23.8717 7.2328 -13.8086 0.0000 38.5208 0.0005
# 6 -0.0011 -0.0006 0.0001 -105.5615 0.0005-1546.9346
#
#
#
# Elastic Compliance Matrix: (Units=1/GPa)
#
#
# Indices 1 2 3 4 5 6 
#
# 1 0.010942 -0.003252 -0.001044 0.000000 0.007017 0.000000
# 2 -0.003252 0.010944 -0.004170 0.000000 -0.005565 0.000000
# 3 -0.001044 -0.004170 0.024993 0.000000 0.009095 0.000000
# 4 0.000000 0.000000 0.000000 -0.023597 0.000000 0.001610
# 5 0.007017 -0.005565 0.009095 0.000000 0.034614 0.000000
# 6 0.000000 0.000000 0.000000 0.001610 0.000000 -0.000756
#
#
# Mechanical properties :
#
#
# Convention : Reuss Voigt Hill
#
# Bulk Modulus (GPa) = 33.39223 45.23898 39.31560
# Shear Modulus (GPa) = 59.48492 -297.53361 -119.02434
#
# Velocity S-wave (km/s) = 5.02621 -11.24100 -7.10976
# Velocity P-wave (km/s) = 6.91846 12.21750 7.12047
#
# Compressibility (1/GPa) = 0.02994708
#
# Stress axis : x y z
#
# Youngs Moduli (GPa) = 91.38777 91.37355 40.01121
#
# Poissons Ratio (x) = 0.29717 0.04179
# Poissons Ratio (y) = 0.29722 0.16683
# Poissons Ratio (z) = 0.09545 0.38098
#
# Static dielectric constant tensor:
#      x y z
#    x 1.917600 0.000000 0.025850 
#    y 0.000000 1.951150 0.000000 
#    z 0.025850 0.000000 1.716210 
# 
# From -- ./inp_files/233022.got.cif
#   From: 2010.05.17/outbox.cif.g08.bks.cpg/sg15_117_cif.got.tgz:233022.got - 2010.06.03 18:47:42.
