data_PCOD9301746
_publ_section_title
;
Structure prediction by ZEFSAII (Michael W. Deem and Ramdas Pophale) SiO2 
 PCOD9301746
Probable space group: C 2/C
;
_chemical_formula_sum "Si O2"
_cell_formula_units_Z 44
_cell_length_a 7.412768
_cell_length_b 13.832680
_cell_length_c 19.510240
_cell_angle_alpha 90.000000
_cell_angle_beta 106.655505
_cell_angle_gamma 90.000000
_cell_volume 1916.617391
_symmetry_space_group_name_H-M "C 2/C"
_symmetry_group_IT_number 15
_symmetry_cell_setting 'monoclinic'
loop_
_space_group_symop_operation_xyz
x,y,z
-x,y,1/2-z
-x,-y,-z
x,-y,1/2+z
1/2+x,1/2+y,z
1/2-x,1/2+y,1/2-z
1/2-x,1/2-y,-z
1/2+x,1/2-y,1/2+z
loop_
_atom_site_type_symbol
_atom_site_label
_atom_site_fract_x
_atom_site_fract_y
_atom_site_fract_z
Si Si1 0.543688 0.836970 0.349724
Si Si2 0.574849 0.890990 0.505164
Si Si3 0.000000 0.481935 0.750000
Si Si4 0.987879 0.889996 0.977104
Si Si5 0.747213 0.317910 0.677343
Si Si6 0.971440 0.235730 0.891883
O O1 0.501042 0.843877 0.426569
O O2 0.401149 0.756099 0.306535
O O3 0.759789 0.804999 0.361553
O O4 0.511550 0.943054 0.314329
O O5 0.797841 0.870816 0.522176
O O6 0.525821 0.838667 0.569985
O O7 0.500000 0.000000 0.500000
O O8 0.174559 0.407014 0.769608
O O9 0.854439 0.866718 0.899416
O O10 0.934674 0.832521 0.040213
O O11 0.000000 0.000000 0.000000
O O12 0.083695 0.252007 0.834590
#
# Coordination Sequence:
#
# PCOD9301746 Si02
#       6
#     8   8   4   8   8   8
#     4  11  25  49  70  98 148 184 236 302 348 421
#     4  11  21  40  70 110 141 173 225 302 371 421
#     4  12  30  50  68 104 144 196 262 286 330 448
#     4  11  21  38  68 108 141 173 226 294 364 430
#     4  12  25  47  73 102 140 194 239 289 362 426
#     4  11  22  44  73 108 137 175 230 305 373 423
#
# _framework density 22.957115000000002
#
# number of rings (size 3 to 8) (size 9 to 14) (size 15 to 20)
#    0.000    0.727    3.636    6.000    5.091    0.000 
#    0.000    1.818    0.000    0.000    0.000    0.000 
#    0.000    0.000    0.000    0.000    0.000    0.000 
#
# Total GULP energy -123074.888344 kJ/mol
# GULP energy per Si atom -5594.313107 kJ/mol
# Density = 2.290486 g / cm^3
# Si number density = 22.957115 Si / 1000 Ang^3
#
#
#
# Elastic Constant Matrix: (Units=GPa)
#
#
# Indices 1 2 3 4 5 6 
#
# 1 102.6184 34.3904 34.4436 0.0000 1.9888 0.0000
# 2 34.3904 140.3636 28.8694 0.0000 26.4701 0.0000
# 3 34.4436 28.8694 87.0928 0.0000 16.1374 0.0000
# 4 0.0000 0.0000 0.0000 55.1685 0.0000 6.4298
# 5 1.9888 26.4701 16.1374 0.0000 28.7426 0.0000
# 6 0.0000 0.0000 0.0000 6.4298 0.0000 39.1811
#
#
#
# Elastic Compliance Matrix: (Units=1/GPa)
#
#
# Indices 1 2 3 4 5 6 
#
# 1 0.012192 -0.002855 -0.004694 0.000000 0.004422 0.000000
# 2 -0.002855 0.009482 -0.000483 0.000000 -0.008263 0.000000
# 3 -0.004694 -0.000483 0.014907 0.000000 -0.007600 0.000000
# 4 0.000000 0.000000 0.000000 0.018480 0.000000 -0.003033
# 5 0.004422 -0.008263 -0.007600 0.000000 0.046363 0.000000
# 6 0.000000 0.000000 0.000000 -0.003033 0.000000 0.026020
#
#
# Mechanical properties :
#
#
# Convention : Reuss Voigt Hill
#
# Bulk Modulus (GPa) = 48.74408 58.38682 53.56545
# Shear Modulus (GPa) = 33.25666 40.10986 36.68326
#
# Velocity S-wave (km/s) = 3.81023 4.18444 4.00172
# Velocity P-wave (km/s) = 6.37463 6.98815 6.68843
#
# Compressibility (1/GPa) = 0.02051531
#
# Stress axis : x y z
#
# Youngs Moduli (GPa) = 82.02273 105.46809 67.08384
#
# Poissons Ratio (x) = 0.30116 0.31492
# Poissons Ratio (y) = 0.23421 0.03237
# Poissons Ratio (z) = 0.38505 0.05089
#
# Static dielectric constant tensor:
#      x y z
#    x 1.761310 0.000000 0.056280 
#    y 0.000000 1.717020 0.000000 
#    z 0.056280 0.000000 1.890500 
# 
# From -- ./inp_files/189320.got.cif
#   From: 2010.05.17/outbox.cif.g08.bks.cpg/sg15_95_cif.got.tgz:189320.got - 2010.06.03 18:47:42.
