data_PCOD9301862
_publ_section_title
;
Structure prediction by ZEFSAII (Michael W. Deem and Ramdas Pophale) SiO2 
 PCOD9301862
Probable space group: C 2/C
;
_chemical_formula_sum "Si O2"
_cell_formula_units_Z 48
_cell_length_a 12.064304
_cell_length_b 7.457084
_cell_length_c 21.593973
_cell_angle_alpha 90.000000
_cell_angle_beta 68.988842
_cell_angle_gamma 90.000000
_cell_volume 1813.523234
_symmetry_space_group_name_H-M "C 2/C"
_symmetry_group_IT_number 15
_symmetry_cell_setting 'monoclinic'
loop_
_space_group_symop_operation_xyz
x,y,z
-x,y,1/2-z
-x,-y,-z
x,-y,1/2+z
1/2+x,1/2+y,z
1/2-x,1/2+y,1/2-z
1/2-x,1/2-y,-z
1/2+x,1/2-y,1/2+z
loop_
_atom_site_type_symbol
_atom_site_label
_atom_site_fract_x
_atom_site_fract_y
_atom_site_fract_z
Si Si1 0.889907 0.133991 0.357560
Si Si2 0.637273 0.775938 0.328892
Si Si3 0.038644 0.284014 0.033984
Si Si4 0.275221 0.392661 0.186908
Si Si5 0.874260 0.654736 0.466478
Si Si6 0.469317 0.749256 0.823527
O O1 0.898032 0.148253 0.431301
O O2 0.793586 0.263794 0.346678
O O3 0.622094 0.046010 0.507749
O O4 0.887482 0.929484 0.335676
O O5 0.575877 0.851873 0.402319
O O6 0.709763 0.599512 0.334390
O O7 0.708347 0.893102 0.266401
O O8 0.521781 0.704910 0.314537
O O9 0.091202 0.632250 0.112203
O O10 0.977525 0.233394 0.981887
O O11 0.405475 0.315108 0.173509
O O12 0.750000 0.750000 0.500000
O O13 0.500000 0.825471 0.750000
#
# Coordination Sequence:
#
# PCOD9301862 Si02
#       6
#     8   8   8   8   8   8
#     4   9  21  42  66 101 141 179 237 299 366 439
#     4   9  22  38  66 104 140 182 244 287 362 442
#     4   9  24  44  65 100 137 182 248 293 354 451
#     4  11  21  39  70  98 146 187 223 308 374 423
#     4  11  26  47  67  95 144 190 240 308 368 435
#     4  11  26  43  67 108 140 178 247 305 360 446
#
# _framework density 26.467815999999999
#
# number of rings (size 3 to 8) (size 9 to 14) (size 15 to 20)
#    1.000    1.000    0.000    2.500    7.000    3.333 
#    0.000    1.667    0.000    0.000    0.000    0.000 
#    0.000    0.000    0.000    0.000    0.000    0.000 
#
# Total GULP energy -134359.121437 kJ/mol
# GULP energy per Si atom -5598.296727 kJ/mol
# Density = 2.640757 g / cm^3
# Si number density = 26.467816 Si / 1000 Ang^3
#
#
#
# Elastic Constant Matrix: (Units=GPa)
#
#
# Indices 1 2 3 4 5 6 
#
# 1 140.5089 54.3261 46.3108 0.0000 26.3946 0.0000
# 2 54.3261 82.7502 19.2313 0.0000 1.4375 0.0000
# 3 46.3108 19.2313 116.2053 0.0000 21.1538 0.0000
# 4 0.0000 0.0000 0.0000 31.2718 0.0000 1.5005
# 5 26.3946 1.4375 21.1538 0.0000 46.4935 0.0000
# 6 0.0000 0.0000 0.0000 1.5005 0.0000 52.3029
#
#
#
# Elastic Compliance Matrix: (Units=1/GPa)
#
#
# Indices 1 2 3 4 5 6 
#
# 1 0.011620 -0.006950 -0.002528 0.000000 -0.005232 0.000000
# 2 -0.006950 0.016741 -0.000681 0.000000 0.003738 0.000000
# 3 -0.002528 -0.000681 0.010315 0.000000 -0.003237 0.000000
# 4 0.000000 0.000000 0.000000 0.032022 0.000000 -0.000919
# 5 -0.005232 0.003738 -0.003237 0.000000 0.025835 0.000000
# 6 0.000000 0.000000 0.000000 -0.000919 0.000000 0.019146
#
#
# Mechanical properties :
#
#
# Convention : Reuss Voigt Hill
#
# Bulk Modulus (GPa) = 54.47645 64.35563 59.41604
# Shear Modulus (GPa) = 35.18206 40.65338 37.91772
#
# Velocity S-wave (km/s) = 3.64983 3.92338 3.78907
# Velocity P-wave (km/s) = 6.19584 6.70010 6.45290
#
# Compressibility (1/GPa) = 0.01835656
#
# Stress axis : x y z
#
# Youngs Moduli (GPa) = 86.05577 59.73404 96.94603
#
# Poissons Ratio (x) = 0.41517 0.24512
# Poissons Ratio (y) = 0.59812 0.06603
# Poissons Ratio (z) = 0.21758 0.04068
#
# Static dielectric constant tensor:
#      x y z
#    x 2.097800 0.000000 0.031310 
#    y 0.000000 2.096000 0.000000 
#    z 0.031310 0.000000 2.086040 
# 
# From -- ./inp_files/268038.got.cif
#   From: 2010.05.17/outbox.cif.g08.bks.cpg/sg15_135_cif.got.tgz:268038.got - 2010.06.03 18:47:42.
