data_PCOD9301572
_publ_section_title
;
Structure prediction by ZEFSAII (Michael W. Deem and Ramdas Pophale) SiO2 
 PCOD9301572
Probable space group: C 2/C
;
_chemical_formula_sum "Si O2"
_cell_formula_units_Z 48
_cell_length_a 12.977057
_cell_length_b 13.754470
_cell_length_c 20.616285
_cell_angle_alpha 90.000000
_cell_angle_beta 142.596721
_cell_angle_gamma 90.000000
_cell_volume 2235.221163
_symmetry_space_group_name_H-M "C 2/C"
_symmetry_group_IT_number 15
_symmetry_cell_setting 'monoclinic'
loop_
_space_group_symop_operation_xyz
x,y,z
-x,y,1/2-z
-x,-y,-z
x,-y,1/2+z
1/2+x,1/2+y,z
1/2-x,1/2+y,1/2-z
1/2-x,1/2-y,-z
1/2+x,1/2-y,1/2+z
loop_
_atom_site_type_symbol
_atom_site_label
_atom_site_fract_x
_atom_site_fract_y
_atom_site_fract_z
Si Si1 0.678407 0.062859 0.175906
Si Si2 0.240242 0.181947 0.903172
Si Si3 0.349588 0.961111 0.986885
Si Si4 0.616327 0.268932 0.206471
Si Si5 0.454885 0.557998 0.077336
Si Si6 0.508987 0.354848 0.468866
O O1 0.630233 0.155133 0.196562
O O2 0.874473 0.043649 0.293947
O O3 0.658423 0.086359 0.088777
O O4 0.536229 0.977793 0.110886
O O5 0.288747 0.072779 0.944807
O O6 0.235479 0.195186 0.823504
O O7 0.063696 0.205868 0.849764
O O8 0.370181 0.265365 0.987312
O O9 0.207546 0.914987 0.961402
O O10 0.648132 0.327906 0.155981
O O11 0.418954 0.455596 0.023152
O O12 0.482832 0.631867 0.031853
#
# Coordination Sequence:
#
# PCOD9301572 Si02
#       6
#     8   8   8   8   8   8
#     4  11  23  39  62  94 132 164 210 257 315 378
#     4  11  21  38  68  95 120 160 217 272 316 363
#     4  11  23  41  67  94 126 169 214 260 309 385
#     4  11  21  36  62  98 123 161 209 265 317 372
#     4  11  23  40  62  97 132 167 205 260 328 373
#     4  11  21  38  62  94 132 158 204 272 317 369
#
# _framework density 21.474384000000001
#
# number of rings (size 3 to 8) (size 9 to 14) (size 15 to 20)
#    0.000    1.000    5.000    3.000    2.333    0.000 
#    0.000    0.833    0.000    2.000    0.000    0.000 
#    0.000    0.000    0.000    0.000    0.000    0.000 
#
# Total GULP energy -133880.793060 kJ/mol
# GULP energy per Si atom -5578.366378 kJ/mol
# Density = 2.142551 g / cm^3
# Si number density = 21.474384 Si / 1000 Ang^3
#
#
#
# Elastic Constant Matrix: (Units=GPa)
#
#
# Indices 1 2 3 4 5 6 
#
# 1 91.3740 4.0431 39.8405 0.0000 -0.9039 0.0000
# 2 4.0431 49.8384 -7.8470 0.0000 -1.7819 0.0000
# 3 39.8405 -7.8470 97.3041 0.0001 -13.9050 0.0000
# 4 0.0000 0.0000 0.0001 30.3006 0.0000 -10.7849
# 5 -0.9039 -1.7819 -13.9050 0.0000 33.4583 0.0000
# 6 0.0000 0.0000 0.0000 -10.7849 0.0000 31.1718
#
#
#
# Elastic Compliance Matrix: (Units=1/GPa)
#
#
# Indices 1 2 3 4 5 6 
#
# 1 0.013676 -0.002151 -0.006099 0.000000 -0.002280 0.000000
# 2 -0.002151 0.020772 0.002877 0.000000 0.002244 0.000000
# 3 -0.006099 0.002877 0.013826 0.000000 0.005734 0.000000
# 4 0.000000 0.000000 0.000000 0.037638 0.000000 0.013022
# 5 -0.002280 0.002244 0.005734 0.000000 0.032329 0.000000
# 6 0.000000 0.000000 0.000000 0.013022 0.000000 0.036586
#
#
# Mechanical properties :
#
#
# Convention : Reuss Voigt Hill
#
# Bulk Modulus (GPa) = 26.64731 34.50996 30.57863
# Shear Modulus (GPa) = 28.07700 32.48480 30.28090
#
# Velocity S-wave (km/s) = 3.61981 3.89359 3.75920
# Velocity P-wave (km/s) = 5.46869 6.02649 5.75435
#
# Compressibility (1/GPa) = 0.03752725
#
# Stress axis : x y z
#
# Youngs Moduli (GPa) = 73.12186 48.14060 72.32984
#
# Poissons Ratio (x) = 0.10356 0.44112
# Poissons Ratio (y) = 0.15730 -0.20806
# Poissons Ratio (z) = 0.44595 -0.13848
#
# Static dielectric constant tensor:
#      x y z
#    x 1.782680 0.000000 -0.022220 
#    y 0.000000 1.796950 0.000000 
#    z -0.022220 0.000000 2.013350 
# 
# From -- ./inp_files/239038.got.cif
#   From: 2010.05.17/outbox.cif.g08.bks.cpg/sg15_120_cif.got.tgz:239038.got - 2010.06.03 18:47:42.
