data_PCOD9301037
_publ_section_title
;
Structure prediction by ZEFSAII (Michael W. Deem and Ramdas Pophale) SiO2 
 PCOD9301037
Probable space group: C 2/C
;
_chemical_formula_sum "Si O2"
_cell_formula_units_Z 48
_cell_length_a 6.511576
_cell_length_b 21.587166
_cell_length_c 22.970513
_cell_angle_alpha 90.000000
_cell_angle_beta 57.949761
_cell_angle_gamma 90.000000
_cell_volume 2736.747545
_symmetry_space_group_name_H-M "C 2/C"
_symmetry_group_IT_number 15
_symmetry_cell_setting 'monoclinic'
loop_
_space_group_symop_operation_xyz
x,y,z
-x,y,1/2-z
-x,-y,-z
x,-y,1/2+z
1/2+x,1/2+y,z
1/2-x,1/2+y,1/2-z
1/2-x,1/2-y,-z
1/2+x,1/2-y,1/2+z
loop_
_atom_site_type_symbol
_atom_site_label
_atom_site_fract_x
_atom_site_fract_y
_atom_site_fract_z
Si Si1 0.958237 0.706450 0.821739
Si Si2 0.402966 0.013508 0.948866
Si Si3 0.400551 0.324609 0.412155
Si Si4 0.510414 0.729355 0.433998
Si Si5 0.072822 0.098621 0.475715
Si Si6 0.733412 0.406025 0.178626
O O1 0.673385 0.698481 0.873212
O O2 0.036729 0.750393 0.862942
O O3 0.000000 0.729254 0.750000
O O4 0.095777 0.640516 0.809708
O O5 0.609404 0.040986 0.875973
O O6 0.186785 0.064201 0.985047
O O7 0.278554 0.953357 0.938478
O O8 0.500000 0.000000 0.000000
O O9 0.370116 0.369819 0.471012
O O10 0.363077 0.363487 0.359308
O O11 0.210147 0.268885 0.438855
O O12 0.250000 0.750000 0.500000
O O13 0.553944 0.656553 0.435301
O O14 0.500000 0.427524 0.250000
#
# Coordination Sequence:
#
# PCOD9301037 Si02
#       6
#     8   8   8   8   8   8
#     4  11  22  37  60  93 121 154 197 252 315 362
#     4  11  23  37  61  88 122 161 206 251 301 351
#     4  11  20  36  64  92 119 151 193 260 309 360
#     4  11  23  35  61  96 120 152 202 247 312 366
#     4  11  22  38  59  92 122 158 202 250 302 365
#     4  11  21  36  60  92 116 153 207 254 303 364
#
# _framework density 17.539069000000001
#
# number of rings (size 3 to 8) (size 9 to 14) (size 15 to 20)
#    0.000    1.000    6.667    1.500    0.000    0.000 
#    0.000    0.000    0.000    6.000    0.000    0.000 
#    0.000    0.000    0.000    0.000    0.000    0.000 
#
# Total GULP energy -133951.312714 kJ/mol
# GULP energy per Si atom -5581.304696 kJ/mol
# Density = 1.749915 g / cm^3
# Si number density = 17.539069 Si / 1000 Ang^3
#
#
#
# Elastic Constant Matrix: (Units=GPa)
#
#
# Indices 1 2 3 4 5 6 
#
# 1 111.7757 59.6841 49.8230 0.0000 -8.6397 0.0000
# 2 59.6841 130.0294 63.7599 0.0000 -9.6678 0.0000
# 3 49.8230 63.7599 111.4454 0.0000 -1.5165 0.0000
# 4 0.0000 0.0000 0.0000 29.0498 0.0000 1.1637
# 5 -8.6397 -9.6678 -1.5165 0.0000 38.8924 0.0000
# 6 0.0000 0.0000 0.0000 1.1637 0.0000 23.0382
#
#
#
# Elastic Compliance Matrix: (Units=1/GPa)
#
#
# Indices 1 2 3 4 5 6 
#
# 1 0.012748 -0.004090 -0.003336 0.000000 0.001685 0.000000
# 2 -0.004090 0.012234 -0.005145 0.000000 0.001932 0.000000
# 3 -0.003336 -0.005145 0.013387 0.000000 -0.001498 0.000000
# 4 0.000000 0.000000 0.000000 0.034493 0.000000 -0.001742
# 5 0.001685 0.001932 -0.001498 0.000000 0.026508 0.000000
# 6 0.000000 0.000000 0.000000 -0.001742 0.000000 0.043494
#
#
# Mechanical properties :
#
#
# Convention : Reuss Voigt Hill
#
# Bulk Modulus (GPa) = 75.59860 77.75382 76.67621
# Shear Modulus (GPa) = 28.99965 30.19500 29.59732
#
# Velocity S-wave (km/s) = 4.07065 4.15370 4.11239
# Velocity P-wave (km/s) = 8.08023 8.21172 8.14624
#
# Compressibility (1/GPa) = 0.01322776
#
# Stress axis : x y z
#
# Youngs Moduli (GPa) = 78.44526 81.73760 74.69741
#
# Poissons Ratio (x) = 0.33432 0.24919
# Poissons Ratio (y) = 0.32085 0.38429
# Poissons Ratio (z) = 0.26170 0.42051
#
# Static dielectric constant tensor:
#      x y z
#    x 1.618130 0.000000 0.004860 
#    y 0.000000 1.596620 0.000000 
#    z 0.004860 0.000000 1.483770 
# 
# From -- ./inp_files/185300.got.cif
#   From: 2010.05.17/outbox.cif.g08.bks.cpg/sg15_93_cif.got.tgz:185300.got - 2010.06.03 18:47:42.
