data_PCOD9301570
_publ_section_title
;
Structure prediction by ZEFSAII (Michael W. Deem and Ramdas Pophale) SiO2 
 PCOD9301570
Probable space group: C 2/C
;
_chemical_formula_sum "Si O2"
_cell_formula_units_Z 32
_cell_length_a 5.111423
_cell_length_b 19.092872
_cell_length_c 18.353403
_cell_angle_alpha 90.000000
_cell_angle_beta 66.544085
_cell_angle_gamma 90.000000
_cell_volume 1643.132608
_symmetry_space_group_name_H-M "C 2/C"
_symmetry_group_IT_number 15
_symmetry_cell_setting 'monoclinic'
loop_
_space_group_symop_operation_xyz
x,y,z
-x,y,1/2-z
-x,-y,-z
x,-y,1/2+z
1/2+x,1/2+y,z
1/2-x,1/2+y,1/2-z
1/2-x,1/2-y,-z
1/2+x,1/2-y,1/2+z
loop_
_atom_site_type_symbol
_atom_site_label
_atom_site_fract_x
_atom_site_fract_y
_atom_site_fract_z
Si Si1 0.177313 0.252059 0.804478
Si Si2 0.081157 0.440523 0.433330
Si Si3 0.530960 0.794796 0.974768
Si Si4 0.278539 0.413421 0.167539
O O1 0.500000 0.265010 0.750000
O O2 0.118139 0.300267 0.880731
O O3 0.160245 0.169971 0.830051
O O4 0.000000 0.262019 0.750000
O O5 0.401944 0.446495 0.363204
O O6 0.000000 0.500000 0.500000
O O7 0.049522 0.367207 0.479061
O O8 0.845067 0.435286 0.396647
O O9 0.750000 0.750000 0.000000
O O10 0.250000 0.750000 0.000000
O O11 0.000000 0.428300 0.250000
#
# Coordination Sequence:
#
# PCOD9301570 Si02
#       4
#     8   8   8   8
#     4  11  21  36  62  92 124 159 212 264 314 366
#     4  12  24  42  64  97 129 170 213 262 319 389
#     4  12  22  40  63  93 127 163 212 262 320 371
#     4  11  22  40  66  93 124 167 219 262 316 383
#
# _framework density 19.474993999999999
#
# number of rings (size 3 to 8) (size 9 to 14) (size 15 to 20)
#    0.000    0.500    5.000    6.000    0.000    0.000 
#    0.000    3.750    0.000    0.000    0.000    0.000 
#    0.000    0.000    0.000    0.000    0.000    0.000 
#
# Total GULP energy -89230.564844 kJ/mol
# GULP energy per Si atom -5576.910303 kJ/mol
# Density = 1.943067 g / cm^3
# Si number density = 19.474994 Si / 1000 Ang^3
#
#
#
# Elastic Constant Matrix: (Units=GPa)
#
#
# Indices 1 2 3 4 5 6 
#
# 1 158.9529 15.8089 23.7344 0.0000 9.2901 0.0000
# 2 15.8089 62.2502 10.3327 0.0000 -0.0037 0.0000
# 3 23.7344 10.3327 81.4019 0.0000 0.2675 0.0000
# 4 0.0000 0.0000 0.0000 41.8576 0.0000 2.9391
# 5 9.2901 -0.0037 0.2675 0.0000 53.7911 0.0000
# 6 0.0000 0.0000 0.0000 2.9391 0.0000 11.9024
#
#
#
# Elastic Compliance Matrix: (Units=1/GPa)
#
#
# Indices 1 2 3 4 5 6 
#
# 1 0.006767 -0.001422 -0.001789 0.000000 -0.001160 0.000000
# 2 -0.001422 0.016709 -0.001707 0.000000 0.000255 0.000000
# 3 -0.001789 -0.001707 0.013022 0.000000 0.000244 0.000000
# 4 0.000000 0.000000 0.000000 0.024312 0.000000 -0.006003
# 5 -0.001160 0.000255 0.000244 0.000000 0.018790 0.000000
# 6 0.000000 0.000000 0.000000 -0.006003 0.000000 0.085499
#
#
# Mechanical properties :
#
#
# Convention : Reuss Voigt Hill
#
# Bulk Modulus (GPa) = 37.50576 44.70634 41.10605
# Shear Modulus (GPa) = 27.20018 38.35882 32.77950
#
# Velocity S-wave (km/s) = 3.74126 4.44288 4.10708
# Velocity P-wave (km/s) = 6.16141 7.02314 6.60634
#
# Compressibility (1/GPa) = 0.02666257
#
# Stress axis : x y z
#
# Youngs Moduli (GPa) = 147.76523 59.84921 76.79182
#
# Poissons Ratio (x) = 0.08509 0.13737
# Poissons Ratio (y) = 0.21009 0.13110
# Poissons Ratio (z) = 0.26434 0.10217
#
# Static dielectric constant tensor:
#      x y z
#    x 1.626530 0.000000 -0.028860 
#    y 0.000000 1.628860 0.000000 
#    z -0.028860 0.000000 1.564260 
# 
# From -- ./inp_files/128482.got.cif
#   From: 2010.05.17/outbox.cif.g08.bks.cpg/sg15_65_cif.got.tgz:128482.got - 2010.06.03 18:47:42.
