data_PCOD9301453
_publ_section_title
;
Structure prediction by ZEFSAII (Michael W. Deem and Ramdas Pophale) SiO2 
 PCOD9301453
Probable space group: C 2/C
;
_chemical_formula_sum "Si O2"
_cell_formula_units_Z 64
_cell_length_a 15.642358
_cell_length_b 23.146272
_cell_length_c 9.053111
_cell_angle_alpha 90.000000
_cell_angle_beta 89.999502
_cell_angle_gamma 90.000000
_cell_volume 3277.789946
_symmetry_space_group_name_H-M "C 2/C"
_symmetry_group_IT_number 15
_symmetry_cell_setting 'monoclinic'
loop_
_space_group_symop_operation_xyz
x,y,z
-x,y,1/2-z
-x,-y,-z
x,-y,1/2+z
1/2+x,1/2+y,z
1/2-x,1/2+y,1/2-z
1/2-x,1/2-y,-z
1/2+x,1/2-y,1/2+z
loop_
_atom_site_type_symbol
_atom_site_label
_atom_site_fract_x
_atom_site_fract_y
_atom_site_fract_z
Si Si1 0.671642 0.173479 0.582434
Si Si2 0.368650 0.282686 0.082485
Si Si3 0.727012 0.058696 0.073568
Si Si4 0.671642 0.173479 0.917570
Si Si5 0.905771 0.088971 0.927815
Si Si6 0.272987 0.941305 0.573565
Si Si7 0.131350 0.782686 0.082489
Si Si8 0.594229 0.411028 0.427817
O O1 0.617977 0.226195 0.515052
O O2 0.768142 0.199605 0.585870
O O3 0.647125 0.159494 0.750002
O O4 0.678327 0.115706 0.485293
O O5 0.394654 0.269865 0.249998
O O6 0.409394 0.342871 0.034647
O O7 0.725313 0.055800 0.250002
O O8 0.678327 0.115707 0.014713
O O9 0.825296 0.064649 0.016180
O O10 0.692801 0.000000 0.000002
O O11 0.768142 0.199604 0.914130
O O12 0.617977 0.226195 0.984952
O O13 0.909395 0.157129 0.965349
O O14 0.889044 0.084633 0.749999
O O15 1.000000 0.064394 0.957358
O O16 0.174703 0.935351 0.516180
#
# Coordination Sequence:
#
# PCOD9301453 Si02
#       8
#     8   8   8   8   8   8   8   8
#     4   9  16  27  43  62  83 107 137 174 216 258
#     4   8  14  25  42  63  84 107 136 172 215 256
#     4  11  21  32  45  61  84 114 148 183 217 255
#     4   9  16  27  43  62  83 107 137 174 216 258
#     4   9  18  32  47  63  86 116 149 182 213 248
#     4  11  21  32  45  61  84 114 148 183 217 255
#     4   8  14  25  42  63  84 107 136 172 215 256
#     4   9  18  32  47  63  86 116 149 182 213 248
#
# _framework density 19.525351000000001
#
# number of rings (size 3 to 8) (size 9 to 14) (size 15 to 20)
#    0.000    2.750    0.000    4.500    0.000    7.000 
#    0.000    0.000    0.000    0.000    0.000    0.000 
#    0.000    1.000    0.000    2.750    0.000    4.500 
#
# Total GULP energy -178364.097002 kJ/mol
# GULP energy per Si atom -5573.878031 kJ/mol
# Density = 1.948091 g / cm^3
# Si number density = 19.525351 Si / 1000 Ang^3
#
#
#
# Elastic Constant Matrix: (Units=GPa)
#
#
# Indices 1 2 3 4 5 6 
#
# 1 8.6709 7.4587 1.7059 0.0000 0.0008 0.0000
# 2 7.4587 145.8713 85.3901 0.0000 0.0009 0.0000
# 3 1.7059 85.3901 119.0281 0.0000 0.0008 0.0000
# 4 0.0000 0.0000 0.0000 35.8909 0.0000 0.0000
# 5 0.0008 0.0009 0.0008 0.0000 3.4410 0.0000
# 6 0.0000 0.0000 0.0000 0.0000 0.0000 -14.5926
#
#
#
# Elastic Compliance Matrix: (Units=1/GPa)
#
#
# Indices 1 2 3 4 5 6 
#
# 1 0.122145 -0.009001 0.004706 0.000000 -0.000028 0.000000
# 2 -0.009001 0.012482 -0.008825 0.000000 0.000001 0.000000
# 3 0.004706 -0.008825 0.014665 0.000000 -0.000002 0.000000
# 4 0.000000 0.000000 0.000000 0.027862 0.000000 0.000000
# 5 -0.000028 0.000001 -0.000002 0.000000 0.290615 0.000000
# 6 0.000000 0.000000 0.000000 0.000000 0.000000 -0.068528
#
#
# Mechanical properties :
#
#
# Convention : Reuss Voigt Hill
#
# Bulk Modulus (GPa) = 8.12657 51.40886 29.76771
# Shear Modulus (GPa) = 10.71815 16.88224 13.80020
#
# Velocity S-wave (km/s) = 2.34548 2.94365 2.66142
# Velocity P-wave (km/s) = 3.39207 6.15954 4.97222
#
# Compressibility (1/GPa) = 0.12305319
#
# Stress axis : x y z
#
# Youngs Moduli (GPa) = 8.18697 80.11691 68.18874
#
# Poissons Ratio (x) = 0.72110 -0.32092
# Poissons Ratio (y) = 0.07369 0.60179
# Poissons Ratio (z) = -0.03853 0.70706
#
# Static dielectric constant tensor:
#      x y z
#    x 1.708910 0.000000 0.000000 
#    y 0.000000 1.707650 0.000000 
#    z 0.000000 0.000000 1.668980 
# 
# From -- ./inp_files/57536.got.cif
#   From: 2010.05.17/outbox.cif.g08.bks.cpg/sg15_29_cif.got.tgz:57536.got - 2010.06.03 18:47:42.
