data_PCOD9301738
_publ_section_title
;
Structure prediction by ZEFSAII (Michael W. Deem and Ramdas Pophale) SiO2 
 PCOD9301738
Probable space group: C 2/C
;
_chemical_formula_sum "Si O2"
_cell_formula_units_Z 48
_cell_length_a 18.382503
_cell_length_b 8.685427
_cell_length_c 19.886379
_cell_angle_alpha 90.000000
_cell_angle_beta 142.388002
_cell_angle_gamma 90.000000
_cell_volume 1937.772427
_symmetry_space_group_name_H-M "C 2/C"
_symmetry_group_IT_number 15
_symmetry_cell_setting 'monoclinic'
loop_
_space_group_symop_operation_xyz
x,y,z
-x,y,1/2-z
-x,-y,-z
x,-y,1/2+z
1/2+x,1/2+y,z
1/2-x,1/2+y,1/2-z
1/2-x,1/2-y,-z
1/2+x,1/2-y,1/2+z
loop_
_atom_site_type_symbol
_atom_site_label
_atom_site_fract_x
_atom_site_fract_y
_atom_site_fract_z
Si Si1 0.986327 0.120969 0.328859
Si Si2 0.258228 0.574524 0.668430
Si Si3 0.926765 0.149761 0.964933
Si Si4 0.845141 0.416882 0.188188
Si Si5 0.861750 0.363851 0.806867
Si Si6 0.744796 0.564670 0.478620
O O1 0.893357 0.985814 0.272065
O O2 0.915027 0.256083 0.238500
O O3 0.024814 0.199808 0.427255
O O4 0.103360 0.041754 0.384161
O O5 0.193250 0.479109 0.678632
O O6 0.266339 0.751785 0.698596
O O7 0.218498 0.512715 0.565274
O O8 0.785350 0.118700 0.873893
O O9 0.943982 0.263232 0.915401
O O10 0.000000 0.000000 0.000000
O O11 0.914542 0.533540 0.286747
O O12 0.819437 0.492490 0.097311
O O13 0.750000 0.750000 0.500000
#
# Coordination Sequence:
#
# PCOD9301738 Si02
#       6
#     8   8   8   8   8   8
#     4  11  21  42  70  97 137 183 235 278 346 424
#     4  12  22  41  70 101 134 187 225 291 352 411
#     4  11  21  38  67 102 139 184 228 285 352 411
#     4  11  24  43  69 106 137 181 238 288 343 422
#     4  12  23  42  71 102 144 175 235 294 348 413
#     4  11  24  42  73 100 133 186 234 283 354 423
#
# _framework density 24.770710000000001
#
# number of rings (size 3 to 8) (size 9 to 14) (size 15 to 20)
#    0.000    0.667    6.667    1.500    0.000    1.333 
#    0.000    3.333    7.333    0.000    0.000    0.000 
#    0.000    0.000    0.000    0.000    0.000    0.000 
#
# Total GULP energy -134134.173810 kJ/mol
# GULP energy per Si atom -5588.923909 kJ/mol
# Density = 2.471433 g / cm^3
# Si number density = 24.770710 Si / 1000 Ang^3
#
#
#
# Elastic Constant Matrix: (Units=GPa)
#
#
# Indices 1 2 3 4 5 6 
#
# 1 86.1697 19.4951 48.5752 0.0000 -22.4757 0.0000
# 2 19.4951 61.1951 1.0137 0.0000 -14.4760 0.0000
# 3 48.5752 1.0137 130.6089 0.0000 -46.6422 0.0000
# 4 0.0000 0.0000 0.0000 41.5675 0.0000 -11.7246
# 5 -22.4757 -14.4760 -46.6422 0.0000 62.9386 0.0000
# 6 0.0000 0.0000 0.0000 -11.7246 0.0000 12.6623
#
#
#
# Elastic Compliance Matrix: (Units=1/GPa)
#
#
# Indices 1 2 3 4 5 6 
#
# 1 0.016098 -0.004968 -0.005853 0.000000 0.000269 0.000000
# 2 -0.004968 0.019113 0.003584 0.000000 0.005278 0.000000
# 3 -0.005853 0.003584 0.012719 0.000000 0.008160 0.000000
# 4 0.000000 0.000000 0.000000 0.032561 0.000000 0.030150
# 5 0.000269 0.005278 0.008160 0.000000 0.023246 0.000000
# 6 0.000000 0.000000 0.000000 0.030150 0.000000 0.106892
#
#
# Mechanical properties :
#
#
# Convention : Reuss Voigt Hill
#
# Bulk Modulus (GPa) = 29.88805 46.23799 38.06302
# Shear Modulus (GPa) = 21.16351 37.35965 29.26158
#
# Velocity S-wave (km/s) = 2.92614 3.88779 3.44073
# Velocity P-wave (km/s) = 4.84856 6.23379 5.58429
#
# Compressibility (1/GPa) = 0.03345819
#
# Stress axis : x y z
#
# Youngs Moduli (GPa) = 62.11834 52.32035 78.61947
#
# Poissons Ratio (x) = 0.25992 0.46013
# Poissons Ratio (y) = 0.30860 -0.28179
# Poissons Ratio (z) = 0.36355 -0.18753
#
# Static dielectric constant tensor:
#      x y z
#    x 1.987980 0.000000 -0.049880 
#    y 0.000000 1.993350 0.000000 
#    z -0.049880 0.000000 2.061140 
# 
# From -- ./inp_files/252023.got.cif
#   From: 2010.05.17/outbox.cif.g08.bks.cpg/sg15_127_cif.got.tgz:252023.got - 2010.06.03 18:47:42.
