data_PCOD9301098
_publ_section_title
;
Structure prediction by ZEFSAII (Michael W. Deem and Ramdas Pophale) SiO2 
 PCOD9301098
Probable space group: C 2/C
;
_chemical_formula_sum "Si O2"
_cell_formula_units_Z 48
_cell_length_a 15.931264
_cell_length_b 17.583190
_cell_length_c 10.292520
_cell_angle_alpha 90.000000
_cell_angle_beta 62.084472
_cell_angle_gamma 90.000000
_cell_volume 2547.677146
_symmetry_space_group_name_H-M "C 2/C"
_symmetry_group_IT_number 15
_symmetry_cell_setting 'monoclinic'
loop_
_space_group_symop_operation_xyz
x,y,z
-x,y,1/2-z
-x,-y,-z
x,-y,1/2+z
1/2+x,1/2+y,z
1/2-x,1/2+y,1/2-z
1/2-x,1/2-y,-z
1/2+x,1/2-y,1/2+z
loop_
_atom_site_type_symbol
_atom_site_label
_atom_site_fract_x
_atom_site_fract_y
_atom_site_fract_z
Si Si1 0.342883 0.989763 0.124449
Si Si2 0.976788 0.762607 0.064168
Si Si3 0.989332 0.387055 0.410865
Si Si4 0.253076 0.056674 0.435392
Si Si5 0.529945 0.430897 0.073768
Si Si6 0.652273 0.784290 0.621519
O O1 0.416808 0.920555 0.087332
O O2 0.290585 0.000810 0.297975
O O3 0.266138 0.975859 0.069143
O O4 0.404408 0.063007 0.034626
O O5 0.882327 0.749583 0.217294
O O6 0.988978 0.852679 0.042563
O O7 0.066781 0.734719 0.085623
O O8 0.975517 0.702447 0.947901
O O9 0.000000 0.402632 0.250000
O O10 0.144125 0.076982 0.490835
O O11 0.325132 0.127556 0.376750
O O12 0.500000 0.437806 0.250000
O O13 0.500000 0.500000 0.000000
O O14 0.750000 0.750000 0.500000
#
# Coordination Sequence:
#
# PCOD9301098 Si02
#       6
#     8   8   8   8   8   8
#     4  11  23  35  62  96 135 172 203 256 320 390
#     4  11  22  39  66  92 124 165 213 268 317 376
#     4  11  22  37  58  96 142 164 200 258 332 383
#     4  12  22  40  65  96 128 169 219 261 316 392
#     4  12  26  46  67  92 125 171 221 272 321 377
#     4  11  20  37  65  93 117 161 220 264 310 372
#
# _framework density 18.840692000000001
#
# number of rings (size 3 to 8) (size 9 to 14) (size 15 to 20)
#    0.000    0.667    8.333    1.000    0.000    0.667 
#    0.000    0.000    0.000    3.000    0.000    0.000 
#    0.000    0.000    0.000    0.000    0.000    0.000 
#
# Total GULP energy -133930.566817 kJ/mol
# GULP energy per Si atom -5580.440284 kJ/mol
# Density = 1.879781 g / cm^3
# Si number density = 18.840692 Si / 1000 Ang^3
#
#
#
# Elastic Constant Matrix: (Units=GPa)
#
#
# Indices 1 2 3 4 5 6 
#
# 1 52.7205 19.9667 24.3904 0.0000 0.7000 0.0000
# 2 19.9667 123.8861 25.0658 0.0000 8.2297 0.0000
# 3 24.3904 25.0658 64.1525 0.0000 -2.1928 0.0000
# 4 0.0000 0.0000 0.0000 26.4408 0.0000 4.8567
# 5 0.7000 8.2297 -2.1928 0.0000 35.5239 0.0000
# 6 0.0000 0.0000 0.0000 4.8567 0.0000 22.6758
#
#
#
# Elastic Compliance Matrix: (Units=1/GPa)
#
#
# Indices 1 2 3 4 5 6 
#
# 1 0.023541 -0.002116 -0.008140 0.000000 -0.000476 0.000000
# 2 -0.002116 0.009138 -0.002843 0.000000 -0.002251 0.000000
# 3 -0.008140 -0.002843 0.019863 0.000000 0.002045 0.000000
# 4 0.000000 0.000000 0.000000 0.039369 0.000000 -0.008432
# 5 -0.000476 -0.002251 0.002045 0.000000 0.028807 0.000000
# 6 0.000000 0.000000 0.000000 -0.008432 0.000000 0.045906
#
#
# Mechanical properties :
#
#
# Convention : Reuss Voigt Hill
#
# Bulk Modulus (GPa) = 37.95721 42.17832 40.06777
# Shear Modulus (GPa) = 24.80122 28.35051 26.57587
#
# Velocity S-wave (km/s) = 3.63211 3.88332 3.75981
# Velocity P-wave (km/s) = 6.14653 6.52245 6.33727
#
# Compressibility (1/GPa) = 0.02634545
#
# Stress axis : x y z
#
# Youngs Moduli (GPa) = 42.47847 109.43788 50.34415
#
# Poissons Ratio (x) = 0.23152 0.40980
# Poissons Ratio (y) = 0.08987 0.14312
# Poissons Ratio (z) = 0.34577 0.31112
#
# Static dielectric constant tensor:
#      x y z
#    x 1.617530 0.000000 -0.010930 
#    y 0.000000 1.716630 0.000000 
#    z -0.010930 0.000000 1.628050 
# 
# From -- ./inp_files/96867.got.cif
#   From: 2010.05.17/outbox.cif.g08.bks.cpg/sg15_49_cif.got.tgz:96867.got - 2010.06.03 18:47:42.
