data_PCOD9301174
_publ_section_title
;
Structure prediction by ZEFSAII (Michael W. Deem and Ramdas Pophale) SiO2 
 PCOD9301174
Probable space group: C 2/C
;
_chemical_formula_sum "Si O2"
_cell_formula_units_Z 48
_cell_length_a 16.639240
_cell_length_b 14.507293
_cell_length_c 9.522644
_cell_angle_alpha 90.000000
_cell_angle_beta 121.171526
_cell_angle_gamma 90.000000
_cell_volume 1966.795268
_symmetry_space_group_name_H-M "C 2/C"
_symmetry_group_IT_number 15
_symmetry_cell_setting 'monoclinic'
loop_
_space_group_symop_operation_xyz
x,y,z
-x,y,1/2-z
-x,-y,-z
x,-y,1/2+z
1/2+x,1/2+y,z
1/2-x,1/2+y,1/2-z
1/2-x,1/2-y,-z
1/2+x,1/2-y,1/2+z
loop_
_atom_site_type_symbol
_atom_site_label
_atom_site_fract_x
_atom_site_fract_y
_atom_site_fract_z
Si Si1 0.581740 0.426765 0.110042
Si Si2 0.695382 0.536366 0.426381
Si Si3 0.789617 0.773790 0.689735
Si Si4 0.107424 0.542498 0.300708
Si Si5 0.954553 0.368302 0.363505
Si Si6 0.102954 0.275513 0.688132
O O1 0.635491 0.457025 0.299347
O O2 0.551497 0.322079 0.121678
O O3 0.500000 0.500000 0.000000
O O4 0.649078 0.431389 0.032346
O O5 0.688103 0.618656 0.306185
O O6 0.802389 0.504640 0.544221
O O7 0.750000 0.750000 0.500000
O O8 0.877160 0.711016 0.804120
O O9 0.705082 0.758339 0.718420
O O10 0.097260 0.466440 0.163248
O O11 0.123042 0.653331 0.332199
O O12 0.000000 0.534760 0.250000
O O13 0.000000 0.357730 0.250000
O O14 0.041162 0.347629 0.542488
#
# Coordination Sequence:
#
# PCOD9301174 Si02
#       6
#     8   8   8   8   8   8
#     4  12  27  47  72 101 140 183 235 286 345 413
#     4  12  25  47  73 105 138 183 232 288 348 410
#     4  12  20  40  69  98 132 166 234 283 333 395
#     4  11  25  42  64  98 141 181 225 282 347 415
#     4  11  20  38  66  97 132 172 224 282 332 402
#     4  12  25  42  67  99 135 182 227 281 349 409
#
# _framework density 24.405183999999998
#
# number of rings (size 3 to 8) (size 9 to 14) (size 15 to 20)
#    0.000    0.333    5.000    4.000    0.000    4.667 
#    0.000    0.000    0.000    0.000    0.000    0.000 
#    0.000    0.000    0.000    0.000    0.000    0.000 
#
# Total GULP energy -133879.401180 kJ/mol
# GULP energy per Si atom -5578.308382 kJ/mol
# Density = 2.434964 g / cm^3
# Si number density = 24.405184 Si / 1000 Ang^3
#
#
#
# Elastic Constant Matrix: (Units=GPa)
#
#
# Indices 1 2 3 4 5 6 
#
# 1 97.8036 30.0667 19.2814 0.0000 30.3469 0.0000
# 2 30.0667 198.8641 30.9019 0.0000 25.3721 0.0000
# 3 19.2814 30.9019 53.1020 0.0000 18.3893 0.0000
# 4 0.0000 0.0000 0.0000 49.1505 0.0000 -2.3510
# 5 30.3469 25.3721 18.3893 0.0000 32.5557 0.0000
# 6 0.0000 0.0000 0.0000 -2.3510 0.0000 38.3436
#
#
#
# Elastic Compliance Matrix: (Units=1/GPa)
#
#
# Indices 1 2 3 4 5 6 
#
# 1 0.014445 -0.000467 -0.000542 0.000000 -0.012795 0.000000
# 2 -0.000467 0.005807 -0.002229 0.000000 -0.002831 0.000000
# 3 -0.000542 -0.002229 0.024303 0.000000 -0.011485 0.000000
# 4 0.000000 0.000000 0.000000 0.020406 0.000000 0.001251
# 5 -0.012795 -0.002831 -0.011485 0.000000 0.051336 0.000000
# 6 0.000000 0.000000 0.000000 0.001251 0.000000 0.026157
#
#
# Mechanical properties :
#
#
# Convention : Reuss Voigt Hill
#
# Bulk Modulus (GPa) = 26.26241 56.69664 41.47953
# Shear Modulus (GPa) = 30.93606 41.97795 36.45700
#
# Velocity S-wave (km/s) = 3.56420 4.15184 3.86919
# Velocity P-wave (km/s) = 5.26521 6.80188 6.08227
#
# Compressibility (1/GPa) = 0.03807723
#
# Stress axis : x y z
#
# Youngs Moduli (GPa) = 69.22763 172.21284 41.14703
#
# Poissons Ratio (x) = 0.08048 0.02231
# Poissons Ratio (y) = 0.03235 0.09173
# Poissons Ratio (z) = 0.03754 0.38390
#
# Static dielectric constant tensor:
#      x y z
#    x 1.973960 0.000000 -0.147040 
#    y 0.000000 2.380350 0.000000 
#    z -0.147040 0.000000 8.109610 
# 
# From -- ./inp_files/97189.got.cif
#   From: 2010.05.17/outbox.cif.g08.bks.cpg/sg15_49_cif.got.tgz:97189.got - 2010.06.03 18:47:42.
