data_PCOD9301422
_publ_section_title
;
Structure prediction by ZEFSAII (Michael W. Deem and Ramdas Pophale) SiO2 
 PCOD9301422
Probable space group: C 2/C
;
_chemical_formula_sum "Si O2"
_cell_formula_units_Z 24
_cell_length_a 14.492249
_cell_length_b 7.176518
_cell_length_c 8.614478
_cell_angle_alpha 90.000000
_cell_angle_beta 83.508094
_cell_angle_gamma 90.000000
_cell_volume 890.194279
_symmetry_space_group_name_H-M "C 2/C"
_symmetry_group_IT_number 15
_symmetry_cell_setting 'monoclinic'
loop_
_space_group_symop_operation_xyz
x,y,z
-x,y,1/2-z
-x,-y,-z
x,-y,1/2+z
1/2+x,1/2+y,z
1/2-x,1/2+y,1/2-z
1/2-x,1/2-y,-z
1/2+x,1/2-y,1/2+z
loop_
_atom_site_type_symbol
_atom_site_label
_atom_site_fract_x
_atom_site_fract_y
_atom_site_fract_z
Si Si1 0.278601 0.121270 0.743915
Si Si2 0.942864 0.651462 0.108381
Si Si3 0.340801 0.433686 0.930117
O O1 0.349852 0.963320 0.673661
O O2 0.191471 0.128224 0.641180
O O3 0.333986 0.309286 0.772649
O O4 0.238035 0.083984 0.922317
O O5 0.000000 0.702779 0.250000
O O6 0.924008 0.833964 0.006420
O O7 0.000000 0.500000 0.000000
#
# Coordination Sequence:
#
# PCOD9301422 Si02
#       3
#     8   8   8
#     4  11  20  44  69  97 132 170 236 263 327 402
#     4  12  22  42  70  98 134 175 224 272 339 397
#     4  11  24  42  69 104 126 185 224 271 332 401
#
# _framework density 26.960405999999999
#
# number of rings (size 3 to 8) (size 9 to 14) (size 15 to 20)
#    0.000    0.667   10.000    0.000    0.000    1.333 
#    6.000    1.667    0.000    6.000    0.000    0.000 
#    0.000    0.000    0.000    0.000    0.000    0.000 
#
# Total GULP energy -66901.021503 kJ/mol
# GULP energy per Si atom -5575.085125 kJ/mol
# Density = 2.689904 g / cm^3
# Si number density = 26.960406 Si / 1000 Ang^3
#
#
#
# Elastic Constant Matrix: (Units=GPa)
#
#
# Indices 1 2 3 4 5 6 
#
# 1 139.5421 52.5789 70.0138 0.0000 35.8440 0.0000
# 2 52.5789 107.8684 55.2305 0.0000 15.0621 0.0000
# 3 70.0138 55.2305 124.5449 0.0000 43.4955 0.0000
# 4 0.0000 0.0000 0.0000 38.3869 0.0000 12.8747
# 5 35.8440 15.0621 43.4955 0.0000 70.5699 0.0000
# 6 0.0000 0.0000 0.0000 12.8747 0.0000 59.9756
#
#
#
# Elastic Compliance Matrix: (Units=1/GPa)
#
#
# Indices 1 2 3 4 5 6 
#
# 1 0.010893 -0.002938 -0.003960 0.000000 -0.002465 0.000000
# 2 -0.002938 0.012833 -0.004592 0.000000 0.001584 0.000000
# 3 -0.003960 -0.004592 0.014332 0.000000 -0.005842 0.000000
# 4 0.000000 0.000000 0.000000 0.028072 0.000000 -0.006026
# 5 -0.002465 0.001584 -0.005842 0.000000 0.018685 0.000000
# 6 0.000000 0.000000 0.000000 -0.006026 0.000000 0.017967
#
#
# Mechanical properties :
#
#
# Convention : Reuss Voigt Hill
#
# Bulk Modulus (GPa) = 66.32291 80.84463 73.58377
# Shear Modulus (GPa) = 38.22958 46.72864 42.47911
#
# Velocity S-wave (km/s) = 3.76971 4.16773 3.97370
# Velocity P-wave (km/s) = 6.60311 7.29462 6.95746
#
# Compressibility (1/GPa) = 0.01507775
#
# Stress axis : x y z
#
# Youngs Moduli (GPa) = 91.79820 77.92503 69.77349
#
# Poissons Ratio (x) = 0.22895 0.27630
# Poissons Ratio (y) = 0.26971 0.32042
# Poissons Ratio (z) = 0.36352 0.35785
#
# Static dielectric constant tensor:
#      x y z
#    x 2.267770 0.000000 0.022140 
#    y 0.000000 2.569790 0.000000 
#    z 0.022140 0.000000 2.012170 
# 
# From -- ./inp_files/36074.got.cif
#   From: 2010.05.17/outbox.cif.g08.bks.cpg/sg15_19_cif.got.tgz:36074.got - 2010.06.03 18:47:42.
