data_PCOD9301406
_publ_section_title
;
Structure prediction by ZEFSAII (Michael W. Deem and Ramdas Pophale) SiO2 
 PCOD9301406
Probable space group: C 2/C
;
_chemical_formula_sum "Si O2"
_cell_formula_units_Z 44
_cell_length_a 11.359958
_cell_length_b 15.680845
_cell_length_c 15.831017
_cell_angle_alpha 90.000000
_cell_angle_beta 45.795162
_cell_angle_gamma 90.000000
_cell_volume 2021.549337
_symmetry_space_group_name_H-M "C 2/C"
_symmetry_group_IT_number 15
_symmetry_cell_setting 'monoclinic'
loop_
_space_group_symop_operation_xyz
x,y,z
-x,y,1/2-z
-x,-y,-z
x,-y,1/2+z
1/2+x,1/2+y,z
1/2-x,1/2+y,1/2-z
1/2-x,1/2-y,-z
1/2+x,1/2-y,1/2+z
loop_
_atom_site_type_symbol
_atom_site_label
_atom_site_fract_x
_atom_site_fract_y
_atom_site_fract_z
Si Si1 0.264237 0.938609 0.048475
Si Si2 0.911498 0.368967 0.208583
Si Si3 0.000000 0.193371 0.750000
Si Si4 0.197305 0.459978 0.664575
Si Si5 0.381455 0.097912 0.053888
Si Si6 0.282914 0.792723 0.739200
O O1 0.458078 0.917389 0.967277
O O2 0.147773 0.865353 0.142645
O O3 0.230733 0.955310 0.966292
O O4 0.250135 0.022011 0.114971
O O5 0.790909 0.447998 0.294000
O O6 0.837104 0.287236 0.200052
O O7 0.000000 0.343332 0.250000
O O8 0.048158 0.400826 0.075137
O O9 0.055499 0.254514 0.798038
O O10 0.258560 0.379632 0.689301
O O11 0.000000 0.451229 0.750000
O O12 0.305268 0.181885 0.130728
#
# Coordination Sequence:
#
# PCOD9301406 Si02
#       6
#     8   8   4   8   8   8
#     4  11  22  42  72 100 136 178 224 276 346 400
#     4  11  24  46  67  96 136 180 229 269 332 418
#     4  12  26  40  66 116 136 158 234 302 320 392
#     4  11  20  43  70  97 127 179 227 275 332 403
#     4  11  21  42  72  92 134 189 218 268 345 410
#     4  12  25  39  68 108 133 169 228 285 339 389
#
# _framework density 21.765485000000002
#
# number of rings (size 3 to 8) (size 9 to 14) (size 15 to 20)
#    0.000    0.727    8.182    1.091    2.545    2.182 
#    1.636    0.909    0.000    0.000    0.000    0.000 
#    0.000    0.000    0.000    0.000    0.000    0.000 
#
# Total GULP energy -122756.441156 kJ/mol
# GULP energy per Si atom -5579.838234 kJ/mol
# Density = 2.171595 g / cm^3
# Si number density = 21.765485 Si / 1000 Ang^3
#
#
#
# Elastic Constant Matrix: (Units=GPa)
#
#
# Indices 1 2 3 4 5 6 
#
# 1 54.4028 28.1792 13.1566 -0.0001 22.1235 0.0001
# 2 28.1792 120.6260 19.9536 -0.0001 -1.2244 0.0001
# 3 13.1566 19.9536 57.9746 -0.0002 30.3750 0.0001
# 4 -0.0001 -0.0001 -0.0002 27.5995 0.0001 13.8262
# 5 22.1235 -1.2244 30.3750 0.0001 28.0999 -0.0001
# 6 0.0001 0.0001 0.0001 13.8262 -0.0001 41.0263
#
#
#
# Elastic Compliance Matrix: (Units=1/GPa)
#
#
# Indices 1 2 3 4 5 6 
#
# 1 0.055195 -0.020583 0.041040 0.000001 -0.088716 -0.000001
# 2 -0.020583 0.017426 -0.023556 -0.000001 0.042429 0.000000
# 3 0.041040 -0.023556 0.077276 0.000002 -0.116870 -0.000001
# 4 0.000001 -0.000001 0.000002 0.043592 -0.000003 -0.014691
# 5 -0.088716 0.042429 -0.116870 -0.000003 0.233617 0.000002
# 6 -0.000001 0.000000 -0.000001 -0.014691 0.000002 0.029326
#
#
# Mechanical properties :
#
#
# Convention : Reuss Voigt Hill
#
# Bulk Modulus (GPa) = 6.95906 39.50916 23.23411
# Shear Modulus (GPa) = 9.79375 30.79273 20.29324
#
# Velocity S-wave (km/s) = 2.12354 3.76540 3.05677
# Velocity P-wave (km/s) = 3.03592 6.09064 4.81211
#
# Compressibility (1/GPa) = 0.14369766
#
# Stress axis : x y z
#
# Youngs Moduli (GPa) = 18.11742 57.38604 12.94070
#
# Poissons Ratio (x) = 1.18120 -0.53109
# Poissons Ratio (y) = 0.37292 0.30484
# Poissons Ratio (z) = -0.74354 1.35181
#
# Static dielectric constant tensor:
#      x y z
#    x 1.810030 0.000000 0.007200 
#    y 0.000000 1.848490 0.000000 
#    z 0.007200 0.000000 1.794940 
# 
# From -- ./inp_files/197648.got.cif
#   From: 2010.05.17/outbox.cif.g08.bks.cpg/sg15_99_cif.got.tgz:197648.got - 2010.06.03 18:47:42.
