data_PCOD9301557
_publ_section_title
;
Structure prediction by ZEFSAII (Michael W. Deem and Ramdas Pophale) SiO2 
 PCOD9301557
Probable space group: C 2/C
;
_chemical_formula_sum "Si O2"
_cell_formula_units_Z 36
_cell_length_a 14.834187
_cell_length_b 21.950106
_cell_length_c 15.217806
_cell_angle_alpha 90.000000
_cell_angle_beta 161.561557
_cell_angle_gamma 90.000000
_cell_volume 1567.226847
_symmetry_space_group_name_H-M "C 2/C"
_symmetry_group_IT_number 15
_symmetry_cell_setting 'monoclinic'
loop_
_space_group_symop_operation_xyz
x,y,z
-x,y,1/2-z
-x,-y,-z
x,-y,1/2+z
1/2+x,1/2+y,z
1/2-x,1/2+y,1/2-z
1/2-x,1/2-y,-z
1/2+x,1/2-y,1/2+z
loop_
_atom_site_type_symbol
_atom_site_label
_atom_site_fract_x
_atom_site_fract_y
_atom_site_fract_z
Si Si1 0.315160 0.939302 0.814241
Si Si2 0.812702 0.088771 0.502156
Si Si3 0.276954 0.633817 0.843885
Si Si4 0.000000 0.297529 0.250000
Si Si5 0.424617 0.710793 0.520396
O O1 0.225501 0.939862 0.629203
O O2 0.014964 0.919028 0.582221
O O3 0.543532 0.888976 0.057287
O O4 0.500000 0.000000 0.000000
O O5 0.500000 0.097211 0.250000
O O6 0.954133 0.153773 0.611684
O O7 0.000000 0.056244 0.750000
O O8 0.108831 0.659245 0.771840
O O9 0.453521 0.687798 0.960083
O O10 0.250000 0.250000 0.500000
O O11 0.100740 0.731002 0.213212
#
# Coordination Sequence:
#
# PCOD9301557 Si02
#       5
#     8   8   8   4   8
#     4  11  24  46  72  96 133 185 234 297 357 411
#     4  11  23  40  63  97 136 169 223 280 335 413
#     4  11  23  42  68 101 140 180 241 283 347 433
#     4  12  24  42  72 108 152 190 230 300 364 434
#     4  11  21  36  60  92 133 180 215 260 332 410
#
# _framework density 22.970510000000001
#
# number of rings (size 3 to 8) (size 9 to 14) (size 15 to 20)
#    0.000    0.889    0.000   10.000    0.000    2.667 
#    2.000    0.000   12.222    0.000    0.000    0.000 
#    0.000    0.000    0.000    0.000    0.000    0.000 
#
# Total GULP energy -100584.499673 kJ/mol
# GULP energy per Si atom -5588.027760 kJ/mol
# Density = 2.291823 g / cm^3
# Si number density = 22.970510 Si / 1000 Ang^3
#
#
#
# Elastic Constant Matrix: (Units=GPa)
#
#
# Indices 1 2 3 4 5 6 
#
# 1 140.8638 45.2820 55.1499 0.0045 -1.1942 0.0036
# 2 45.2820 85.6728 54.8489 0.0031 -15.4634 0.0017
# 3 55.1499 54.8489 171.8784 0.0124 -0.2336 0.0140
# 4 0.0045 0.0031 0.0124 37.4573 0.0066 3.7388
# 5 -1.1942 -15.4634 -0.2336 0.0066 43.5530 0.0061
# 6 0.0036 0.0017 0.0140 3.7388 0.0061 -0.9333
#
#
#
# Elastic Compliance Matrix: (Units=1/GPa)
#
#
# Indices 1 2 3 4 5 6 
#
# 1 0.008987 -0.003909 -0.001638 0.000000 -0.001150 -0.000003
# 2 -0.003909 0.017641 -0.004367 0.000000 0.006133 -0.000008
# 3 -0.001638 -0.004367 0.007735 -0.000008 -0.001554 0.000060
# 4 0.000000 0.000000 -0.000008 0.019071 -0.000014 0.076398
# 5 -0.001150 0.006133 -0.001554 -0.000014 0.025098 0.000092
# 6 -0.000003 -0.000008 0.000060 0.076398 0.000092 -0.765391
#
#
# Mechanical properties :
#
#
# Convention : Reuss Voigt Hill
#
# Bulk Modulus (GPa) = 68.79656 78.77516 73.78586
# Shear Modulus (GPa) = -7.55076 32.22434 12.33679
#
# Velocity S-wave (km/s) = -1.81502 3.74954 2.31999
# Velocity P-wave (km/s) = 5.06188 7.28793 6.27441
#
# Compressibility (1/GPa) = 0.01453561
#
# Stress axis : x y z
#
# Youngs Moduli (GPa) = 111.26980 56.68541 129.28283
#
# Poissons Ratio (x) = 0.22160 0.21173
# Poissons Ratio (y) = 0.43498 0.56456
# Poissons Ratio (z) = 0.18223 0.24754
#
# Static dielectric constant tensor:
#      x y z
#    x 1.878220 0.000000 -0.031400 
#    y 0.000000 1.839030 -0.000010 
#    z -0.031400 -0.000010 1.829610 
# 
# From -- ./inp_files/156876.got.cif
#   From: 2010.05.17/outbox.cif.g08.bks.cpg/sg15_79_cif.got.tgz:156876.got - 2010.06.03 18:47:42.
