data_PCOD9301443
_publ_section_title
;
Structure prediction by ZEFSAII (Michael W. Deem and Ramdas Pophale) SiO2 
 PCOD9301443
Probable space group: C 2/C
;
_chemical_formula_sum "Si O2"
_cell_formula_units_Z 60
_cell_length_a 8.192556
_cell_length_b 19.605051
_cell_length_c 20.444360
_cell_angle_alpha 90.000000
_cell_angle_beta 57.762615
_cell_angle_gamma 90.000000
_cell_volume 2777.485815
_symmetry_space_group_name_H-M "C 2/C"
_symmetry_group_IT_number 15
_symmetry_cell_setting 'monoclinic'
loop_
_space_group_symop_operation_xyz
x,y,z
-x,y,1/2-z
-x,-y,-z
x,-y,1/2+z
1/2+x,1/2+y,z
1/2-x,1/2+y,1/2-z
1/2-x,1/2-y,-z
1/2+x,1/2-y,1/2+z
loop_
_atom_site_type_symbol
_atom_site_label
_atom_site_fract_x
_atom_site_fract_y
_atom_site_fract_z
Si Si1 0.500000 0.101513 0.250000
Si Si2 0.524754 0.812009 0.446854
Si Si3 0.193365 0.813701 0.622780
Si Si4 0.228946 0.051152 0.200168
Si Si5 0.828000 0.457437 0.069042
Si Si6 0.166084 0.168716 0.397056
Si Si7 0.002364 0.068090 0.543025
Si Si8 0.141581 0.337741 0.161226
O O1 0.342214 0.059174 0.243329
O O2 0.372537 0.145940 0.326821
O O3 0.337743 0.801918 0.531567
O O4 0.625393 0.879138 0.449678
O O5 0.658413 0.746482 0.421665
O O6 0.465265 0.828131 0.385309
O O7 0.254555 0.878570 0.652902
O O8 0.198045 0.742481 0.661945
O O9 0.989348 0.831891 0.630437
O O10 0.000000 0.042133 0.250000
O O11 0.315244 0.986742 0.143993
O O12 0.623287 0.461462 0.077913
O O13 0.000000 0.500000 0.000000
O O14 0.100386 0.121942 0.471694
O O15 0.813411 0.108200 0.610369
O O16 0.000000 0.000000 0.500000
O O17 0.000000 0.359408 0.250000
#
# Coordination Sequence:
#
# PCOD9301443 Si02
#       8
#     4   8   8   8   8   8   8   8
#     4  12  28  44  76 110 142 192 250 306 366 456
#     4  11  23  46  73 100 146 190 242 297 366 445
#     4  11  20  46  78 100 143 194 238 297 371 447
#     4  12  26  48  72 102 148 190 240 302 379 432
#     4  12  26  45  68 102 141 187 240 302 356 438
#     4  11  23  46  71 108 142 189 244 296 359 448
#     4  12  25  45  73 102 140 193 246 292 364 449
#     4  11  24  43  73 109 139 189 244 304 373 433
#
# _framework density 21.602270000000001
#
# number of rings (size 3 to 8) (size 9 to 14) (size 15 to 20)
#    0.000    0.533    5.333    3.600    1.867    2.667 
#    3.600    0.000    0.000    0.000    0.000    0.000 
#    0.000    0.000    0.000    0.000    0.000    0.000 
#
# Total GULP energy -167601.908151 kJ/mol
# GULP energy per Si atom -5586.730272 kJ/mol
# Density = 2.155310 g / cm^3
# Si number density = 21.602270 Si / 1000 Ang^3
#
#
#
# Elastic Constant Matrix: (Units=GPa)
#
#
# Indices 1 2 3 4 5 6 
#
# 1 53.2147 10.3753 18.8344 0.0000 -7.5909 0.0000
# 2 10.3753 107.1707 32.2140 0.0000 -7.6960 0.0000
# 3 18.8344 32.2140 152.3203 0.0000 -32.6337 0.0000
# 4 0.0000 0.0000 0.0000 35.7010 0.0000 -0.1928
# 5 -7.5909 -7.6960 -32.6337 0.0000 27.4804 0.0000
# 6 0.0000 0.0000 0.0000 -0.1928 0.0000 21.6284
#
#
#
# Elastic Compliance Matrix: (Units=1/GPa)
#
#
# Indices 1 2 3 4 5 6 
#
# 1 0.020049 -0.001250 -0.001480 0.000000 0.003431 0.000000
# 2 -0.001250 0.010045 -0.001933 0.000000 0.000173 0.000000
# 3 -0.001480 -0.001933 0.009326 0.000000 0.010125 0.000000
# 4 0.000000 0.000000 0.000000 0.028012 0.000000 0.000250
# 5 0.003431 0.000173 0.010125 0.000000 0.049409 0.000000
# 6 0.000000 0.000000 0.000000 0.000250 0.000000 0.046238
#
#
# Mechanical properties :
#
#
# Convention : Reuss Voigt Hill
#
# Bulk Modulus (GPa) = 33.22795 48.39479 40.81137
# Shear Modulus (GPa) = 27.40699 33.71409 30.56054
#
# Velocity S-wave (km/s) = 3.56576 3.95482 3.76532
# Velocity P-wave (km/s) = 5.68928 6.58069 6.15115
#
# Compressibility (1/GPa) = 0.03009515
#
# Stress axis : x y z
#
# Youngs Moduli (GPa) = 49.87889 99.54888 107.22628
#
# Poissons Ratio (x) = 0.12442 0.15866
# Poissons Ratio (y) = 0.06234 0.20726
# Poissons Ratio (z) = 0.07380 0.19242
#
# Static dielectric constant tensor:
#      x y z
#    x 1.751890 0.000000 -0.014490 
#    y 0.000000 1.804100 0.000000 
#    z -0.014490 0.000000 1.709690 
# 
# From -- ./inp_files/234067.got.cif
#   From: 2010.05.17/outbox.cif.g08.bks.cpg/sg15_118_cif.got.tgz:234067.got - 2010.06.03 18:47:42.
