data_PCOD9301226
_publ_section_title
;
Structure prediction by ZEFSAII (Michael W. Deem and Ramdas Pophale) SiO2 
 PCOD9301226
Probable space group: C 2/C
;
_chemical_formula_sum "Si O2"
_cell_formula_units_Z 48
_cell_length_a 12.007375
_cell_length_b 9.483249
_cell_length_c 23.586493
_cell_angle_alpha 90.000000
_cell_angle_beta 67.728469
_cell_angle_gamma 90.000000
_cell_volume 2485.405332
_symmetry_space_group_name_H-M "C 2/C"
_symmetry_group_IT_number 15
_symmetry_cell_setting 'monoclinic'
loop_
_space_group_symop_operation_xyz
x,y,z
-x,y,1/2-z
-x,-y,-z
x,-y,1/2+z
1/2+x,1/2+y,z
1/2-x,1/2+y,1/2-z
1/2-x,1/2-y,-z
1/2+x,1/2-y,1/2+z
loop_
_atom_site_type_symbol
_atom_site_label
_atom_site_fract_x
_atom_site_fract_y
_atom_site_fract_z
Si Si1 0.449453 0.167127 0.318485
Si Si2 0.496385 0.837648 0.317173
Si Si3 0.326271 0.630253 0.016316
Si Si4 0.337339 0.338746 0.638257
Si Si5 0.451737 0.368334 0.103681
Si Si6 0.260652 0.173796 0.937451
O O1 0.500000 0.225127 0.250000
O O2 0.306108 0.164340 0.338478
O O3 0.495827 0.262128 0.360611
O O4 0.495804 0.007459 0.317501
O O5 0.500000 0.794643 0.250000
O O6 0.608678 0.770738 0.328162
O O7 0.378360 0.793806 0.376765
O O8 0.378211 0.689166 0.065509
O O9 0.246744 0.493938 0.047481
O O10 0.250000 0.750000 0.000000
O O11 0.435265 0.582247 0.955673
O O12 0.385639 0.495569 0.642750
O O13 0.354994 0.298151 0.080043
O O14 0.250000 0.250000 0.000000
#
# Coordination Sequence:
#
# PCOD9301226 Si02
#       6
#     8   8   8   8   8   8
#     4  11  25  43  65  96 127 168 215 260 318 382
#     4  11  24  44  65  95 132 168 213 265 318 381
#     4  11  20  39  65  92 127 162 208 262 316 375
#     4  11  23  43  65  92 132 165 209 265 315 375
#     4  11  22  42  66  92 131 167 209 266 319 377
#     4  11  22  40  64  96 128 167 215 261 318 379
#
# _framework density 19.312745
#
# number of rings (size 3 to 8) (size 9 to 14) (size 15 to 20)
#    0.000    1.000    5.000    4.000    2.333    2.000 
#    3.000    3.333    0.000    0.000    0.000    0.000 
#    0.000    0.000    0.000    0.000    0.000    0.000 
#
# Total GULP energy -134017.404562 kJ/mol
# GULP energy per Si atom -5584.058523 kJ/mol
# Density = 1.926879 g / cm^3
# Si number density = 19.312745 Si / 1000 Ang^3
#
#
#
# Elastic Constant Matrix: (Units=GPa)
#
#
# Indices 1 2 3 4 5 6 
#
# 1 138.7452 82.2185 55.6591 0.0000 17.7461 0.0000
# 2 82.2185 69.8911 53.8759 0.0000 23.2340 0.0000
# 3 55.6591 53.8759 137.7331 0.0000 12.6869 0.0000
# 4 0.0000 0.0000 0.0000 5.5877 0.0000 -21.9750
# 5 17.7461 23.2340 12.6869 0.0000 37.4106 0.0000
# 6 0.0000 0.0000 0.0000 -21.9750 0.0000 -6.5974
#
#
#
# Elastic Compliance Matrix: (Units=1/GPa)
#
#
# Indices 1 2 3 4 5 6 
#
# 1 0.026315 -0.035935 0.002598 0.000000 0.008954 0.000000
# 2 -0.035935 0.074322 -0.012251 0.000000 -0.024957 0.000000
# 3 0.002598 -0.012251 0.010751 0.000000 0.002730 0.000000
# 4 0.000000 0.000000 0.000000 0.012693 0.000000 -0.042279
# 5 0.008954 -0.024957 0.002730 0.000000 0.037057 0.000000
# 6 0.000000 0.000000 0.000000 -0.042279 0.000000 -0.010750
#
#
# Mechanical properties :
#
#
# Convention : Reuss Voigt Hill
#
# Bulk Modulus (GPa) = 49.47945 81.09737 65.28841
# Shear Modulus (GPa) = 20.13670 17.58790 18.86230
#
# Velocity S-wave (km/s) = 3.23253 3.02104 3.12857
# Velocity P-wave (km/s) = 6.29350 7.36557 6.85054
#
# Compressibility (1/GPa) = 0.02021041
#
# Stress axis : x y z
#
# Youngs Moduli (GPa) = 38.00128 13.45493 93.01100
#
# Poissons Ratio (x) = 0.48351 -0.24161
# Poissons Ratio (y) = 1.36559 1.13951
# Poissons Ratio (z) = -0.09872 0.16484
#
# Static dielectric constant tensor:
#      x y z
#    x 1.665380 0.000000 -0.030910 
#    y 0.000000 1.667760 0.000000 
#    z -0.030910 0.000000 1.724310 
# 
# From -- ./inp_files/268040.got.cif
#   From: 2010.05.17/outbox.cif.g08.bks.cpg/sg15_135_cif.got.tgz:268040.got - 2010.06.03 18:47:42.
