data_PCOD9301777
_publ_section_title
;
Structure prediction by ZEFSAII (Michael W. Deem and Ramdas Pophale) SiO2 
 PCOD9301777
Probable space group: C 2/C
;
_chemical_formula_sum "Si O2"
_cell_formula_units_Z 40
_cell_length_a 5.125526
_cell_length_b 22.335372
_cell_length_c 19.039292
_cell_angle_alpha 90.000000
_cell_angle_beta 62.116814
_cell_angle_gamma 90.000000
_cell_volume 1926.579743
_symmetry_space_group_name_H-M "C 2/C"
_symmetry_group_IT_number 15
_symmetry_cell_setting 'monoclinic'
loop_
_space_group_symop_operation_xyz
x,y,z
-x,y,1/2-z
-x,-y,-z
x,-y,1/2+z
1/2+x,1/2+y,z
1/2-x,1/2+y,1/2-z
1/2-x,1/2-y,-z
1/2+x,1/2-y,1/2+z
loop_
_atom_site_type_symbol
_atom_site_label
_atom_site_fract_x
_atom_site_fract_y
_atom_site_fract_z
Si Si1 0.728500 0.540895 0.011820
Si Si2 0.611191 0.182522 0.051471
Si Si3 0.777699 0.756928 0.666742
Si Si4 0.294946 0.833653 0.448045
Si Si5 0.407810 0.384603 0.837732
O O1 0.565173 0.571603 0.099381
O O2 0.500000 0.500000 0.000000
O O3 0.855623 0.595864 0.949138
O O4 0.000000 0.500000 0.000000
O O5 0.648636 0.233264 0.104839
O O6 0.399611 0.192466 0.011218
O O7 0.440901 0.130841 0.115312
O O8 0.941854 0.168486 0.986084
O O9 0.500000 0.742621 0.750000
O O10 0.020597 0.704471 0.631089
O O11 0.921632 0.820710 0.672532
O O12 0.500000 0.407938 0.750000
#
# Coordination Sequence:
#
# PCOD9301777 Si02
#       5
#     8   8   8   8   8
#     4  11  24  44  67  94 128 182 242 273 320 398
#     4  11  21  39  62  97 128 170 212 263 336 411
#     4  12  24  38  66 102 141 168 214 272 362 411
#     4  11  25  40  67  94 135 170 221 276 336 398
#     4  11  24  41  70 103 137 170 224 293 345 397
#
# _framework density 20.762181999999999
#
# number of rings (size 3 to 8) (size 9 to 14) (size 15 to 20)
#    0.000    0.800    6.000    3.600    2.800    0.000 
#    0.000    1.000    0.000    2.400    0.000    0.000 
#    0.000    0.000    0.000    0.000    0.000    0.000 
#
# Total GULP energy -111690.915526 kJ/mol
# GULP energy per Si atom -5584.545776 kJ/mol
# Density = 2.071493 g / cm^3
# Si number density = 20.762182 Si / 1000 Ang^3
#
#
#
# Elastic Constant Matrix: (Units=GPa)
#
#
# Indices 1 2 3 4 5 6 
#
# 1 129.9242 50.7036 36.3257 0.0000 -22.5632 0.0000
# 2 50.7036 128.8107 69.5410 0.0000 -2.7619 0.0000
# 3 36.3257 69.5410 127.7730 0.0000 -30.4721 0.0000
# 4 0.0000 0.0000 0.0000 25.1898 0.0000 1.2940
# 5 -22.5632 -2.7619 -30.4721 0.0000 29.4934 0.0000
# 6 0.0000 0.0000 0.0000 1.2940 0.0000 44.2447
#
#
#
# Elastic Compliance Matrix: (Units=1/GPa)
#
#
# Indices 1 2 3 4 5 6 
#
# 1 0.010883 -0.005229 0.002151 0.000000 0.010058 0.000000
# 2 -0.005229 0.014654 -0.009442 0.000000 -0.012384 0.000000
# 3 0.002151 -0.009442 0.016634 0.000000 0.017947 0.000000
# 4 0.000000 0.000000 0.000000 0.039758 0.000000 -0.001163
# 5 0.010058 -0.012384 0.017947 0.000000 0.058984 0.000000
# 6 0.000000 0.000000 0.000000 -0.001163 0.000000 0.022636
#
#
# Mechanical properties :
#
#
# Convention : Reuss Voigt Hill
#
# Bulk Modulus (GPa) = 58.37861 77.73873 68.05867
# Shear Modulus (GPa) = 25.73360 35.11477 30.42419
#
# Velocity S-wave (km/s) = 3.52440 4.11699 3.83216
# Velocity P-wave (km/s) = 6.68884 7.75391 7.24099
#
# Compressibility (1/GPa) = 0.01712956
#
# Stress axis : x y z
#
# Youngs Moduli (GPa) = 91.88665 68.24262 60.11859
#
# Poissons Ratio (x) = 0.35686 -0.12930
# Poissons Ratio (y) = 0.48051 0.56763
# Poissons Ratio (z) = -0.19763 0.64434
#
# Static dielectric constant tensor:
#      x y z
#    x 1.798480 0.000000 0.019630 
#    y 0.000000 1.796180 0.000000 
#    z 0.019630 0.000000 1.759320 
# 
# From -- ./inp_files/260984.got.cif
#   From: 2010.05.17/outbox.cif.g08.bks.cpg/sg15_131_cif.got.tgz:260984.got - 2010.06.03 18:47:42.
