data_PCOD9301567
_publ_section_title
;
Structure prediction by ZEFSAII (Michael W. Deem and Ramdas Pophale) SiO2 
 PCOD9301567
Probable space group: C 2/C
;
_chemical_formula_sum "Si O2"
_cell_formula_units_Z 28
_cell_length_a 11.996874
_cell_length_b 21.580676
_cell_length_c 5.038053
_cell_angle_alpha 90.000000
_cell_angle_beta 67.276790
_cell_angle_gamma 90.000000
_cell_volume 1203.113350
_symmetry_space_group_name_H-M "C 2/C"
_symmetry_group_IT_number 15
_symmetry_cell_setting 'monoclinic'
loop_
_space_group_symop_operation_xyz
x,y,z
-x,y,1/2-z
-x,-y,-z
x,-y,1/2+z
1/2+x,1/2+y,z
1/2-x,1/2+y,1/2-z
1/2-x,1/2-y,-z
1/2+x,1/2-y,1/2+z
loop_
_atom_site_type_symbol
_atom_site_label
_atom_site_fract_x
_atom_site_fract_y
_atom_site_fract_z
Si Si1 0.417584 0.236214 0.587553
Si Si2 0.127153 0.878052 0.757387
Si Si3 0.000000 0.544185 0.250000
Si Si4 0.731685 0.118988 0.870016
O O1 0.500000 0.207934 0.750000
O O2 0.375358 0.302803 0.733505
O O3 0.307907 0.190823 0.617281
O O4 0.500000 0.245009 0.250000
O O5 0.230094 0.900637 0.459839
O O6 0.000000 0.898106 0.750000
O O7 0.158450 0.893739 0.030261
O O8 0.000000 0.500000 0.500000
O O9 0.883396 0.586537 0.396977
#
# Coordination Sequence:
#
# PCOD9301567 Si02
#       4
#     8   8   4   8
#     4  11  21  36  61  99 142 174 216 254 321 404
#     4  11  23  39  63 100 137 179 210 251 321 415
#     4  12  28  48  72  98 122 166 234 292 336 364
#     4  12  23  42  68  90 136 174 218 277 327 379
#
# _framework density 23.272952
#
# number of rings (size 3 to 8) (size 9 to 14) (size 15 to 20)
#    0.000    0.571    1.429    9.429    2.000    0.000 
#    0.000    0.000    0.000   17.143    0.000    0.000 
#    0.000    0.000    0.000    0.000    0.000    0.000 
#
# Total GULP energy -78365.122924 kJ/mol
# GULP energy per Si atom -5597.508780 kJ/mol
# Density = 2.321998 g / cm^3
# Si number density = 23.272952 Si / 1000 Ang^3
#
#
#
# Elastic Constant Matrix: (Units=GPa)
#
#
# Indices 1 2 3 4 5 6 
#
# 1 94.1790 -0.9036 31.2723 0.0000 18.3947 0.0000
# 2 -0.9036 11.5171 9.7479 0.0000 -2.4995 0.0000
# 3 31.2723 9.7479 167.4988 0.0000 8.6430 0.0000
# 4 0.0000 0.0000 0.0000 22.9364 0.0000 19.9465
# 5 18.3947 -2.4995 8.6430 0.0000 49.2234 0.0000
# 6 0.0000 0.0000 0.0000 19.9465 0.0000 -37.4623
#
#
#
# Elastic Compliance Matrix: (Units=1/GPa)
#
#
# Indices 1 2 3 4 5 6 
#
# 1 0.012150 0.001908 -0.002170 0.000000 -0.004063 0.000000
# 2 0.001908 0.093194 -0.006042 0.000000 0.005080 0.000000
# 3 -0.002170 -0.006042 0.006762 0.000000 -0.000683 0.000000
# 4 0.000000 0.000000 0.000000 0.029800 0.000000 0.015867
# 5 -0.004063 0.005080 -0.000683 0.000000 0.022212 0.000000
# 6 0.000000 0.000000 0.000000 0.015867 0.000000 -0.018245
#
#
# Mechanical properties :
#
#
# Convention : Reuss Voigt Hill
#
# Bulk Modulus (GPa) = 10.05038 39.26980 24.66009
# Shear Modulus (GPa) = 26.08968 22.47804 24.28386
#
# Velocity S-wave (km/s) = 3.35181 3.11117 3.23373
# Velocity P-wave (km/s) = 4.39402 5.46041 4.95598
#
# Compressibility (1/GPa) = 0.09949875
#
# Stress axis : x y z
#
# Youngs Moduli (GPa) = 82.30163 10.73035 147.88088
#
# Poissons Ratio (x) = -0.02047 0.32089
# Poissons Ratio (y) = -0.15704 0.89349
# Poissons Ratio (z) = 0.17859 0.06483
#
# Static dielectric constant tensor:
#      x y z
#    x 2.016300 0.000000 -0.050170 
#    y 0.000000 1.885250 0.000000 
#    z -0.050170 0.000000 1.856220 
# 
# From -- ./inp_files/3425.got.cif
#   From: 2010.05.17/outbox.cif.g08.bks.cpg/sg15_2_cif.got.tgz:3425.got - 2010.06.03 18:47:42.
