data_PCOD9301363
_publ_section_title
;
Structure prediction by ZEFSAII (Michael W. Deem and Ramdas Pophale) SiO2 
 PCOD9301363
Probable space group: C 2/C
;
_chemical_formula_sum "Si O2"
_cell_formula_units_Z 40
_cell_length_a 10.102559
_cell_length_b 20.997177
_cell_length_c 9.832458
_cell_angle_alpha 90.000000
_cell_angle_beta 80.361841
_cell_angle_gamma 90.000000
_cell_volume 2056.271961
_symmetry_space_group_name_H-M "C 2/C"
_symmetry_group_IT_number 15
_symmetry_cell_setting 'monoclinic'
loop_
_space_group_symop_operation_xyz
x,y,z
-x,y,1/2-z
-x,-y,-z
x,-y,1/2+z
1/2+x,1/2+y,z
1/2-x,1/2+y,1/2-z
1/2-x,1/2-y,-z
1/2+x,1/2-y,1/2+z
loop_
_atom_site_type_symbol
_atom_site_label
_atom_site_fract_x
_atom_site_fract_y
_atom_site_fract_z
Si Si1 0.377085 0.535660 0.954144
Si Si2 0.593715 0.317986 0.104712
Si Si3 0.500000 0.113440 0.250000
Si Si4 0.909982 0.691310 0.526618
Si Si5 0.705547 0.992239 0.738361
Si Si6 0.000000 0.393385 0.250000
O O1 0.255989 0.528804 0.081875
O O2 0.500000 0.500000 0.000000
O O3 0.419598 0.608593 0.931413
O O4 0.325699 0.505425 0.822278
O O5 0.500000 0.305844 0.250000
O O6 0.754052 0.309998 0.099754
O O7 0.554304 0.265308 0.999754
O O8 0.430153 0.156894 0.376873
O O9 0.393610 0.064685 0.199054
O O10 0.996170 0.652032 0.619890
O O11 0.625242 0.058420 0.739385
#
# Coordination Sequence:
#
# PCOD9301363 Si02
#       6
#     8   8   4   8   8   4
#     4  12  24  41  65  95 132 174 206 263 327 392
#     4  11  23  44  66  90 131 178 209 262 325 386
#     4  11  20  42  68  96 123 168 224 270 313 378
#     4  11  23  42  69  93 128 170 220 265 323 378
#     4  11  22  40  66  96 128 165 219 269 319 373
#     4  11  22  42  66  98 129 162 220 278 317 368
#
# _framework density 19.452680000000001
#
# number of rings (size 3 to 8) (size 9 to 14) (size 15 to 20)
#    0.000    0.800    5.000    3.000    0.000    3.200 
#    3.600    1.000    0.000    0.000    0.000    0.000 
#    0.000    0.000    0.000    0.000    0.000    0.000 
#
# Total GULP energy -111700.093321 kJ/mol
# GULP energy per Si atom -5585.004666 kJ/mol
# Density = 1.940840 g / cm^3
# Si number density = 19.452680 Si / 1000 Ang^3
#
#
#
# Elastic Constant Matrix: (Units=GPa)
#
#
# Indices 1 2 3 4 5 6 
#
# 1 58.3818 16.4304 23.6803 0.0000 2.2938 0.0000
# 2 16.4304 109.7722 29.4667 0.0000 4.8581 0.0000
# 3 23.6803 29.4667 94.5505 0.0000 -6.7323 0.0000
# 4 0.0000 0.0000 0.0000 19.1085 0.0000 8.5107
# 5 2.2938 4.8581 -6.7323 0.0000 37.7125 0.0000
# 6 0.0000 0.0000 0.0000 8.5107 0.0000 7.0868
#
#
#
# Elastic Compliance Matrix: (Units=1/GPa)
#
#
# Indices 1 2 3 4 5 6 
#
# 1 0.019482 -0.001630 -0.004498 0.000000 -0.001778 0.000000
# 2 -0.001630 0.010208 -0.002896 0.000000 -0.001733 0.000000
# 3 -0.004498 -0.002896 0.012814 0.000000 0.002934 0.000000
# 4 0.000000 0.000000 0.000000 0.112513 0.000000 -0.135119
# 5 -0.001778 -0.001733 0.002934 0.000000 0.027372 0.000000
# 6 0.000000 0.000000 0.000000 -0.135119 0.000000 0.303375
#
#
# Mechanical properties :
#
#
# Convention : Reuss Voigt Hill
#
# Bulk Modulus (GPa) = 40.89053 44.65105 42.77079
# Shear Modulus (GPa) = 9.76631 25.65670 17.71150
#
# Velocity S-wave (km/s) = 2.24309 3.63565 3.02071
# Velocity P-wave (km/s) = 5.27017 6.37396 5.84817
#
# Compressibility (1/GPa) = 0.02445554
#
# Stress axis : x y z
#
# Youngs Moduli (GPa) = 51.33066 97.96296 78.03686
#
# Poissons Ratio (x) = 0.15967 0.35100
# Poissons Ratio (y) = 0.08366 0.22603
# Poissons Ratio (z) = 0.23088 0.28375
#
# Static dielectric constant tensor:
#      x y z
#    x 1.695200 0.000000 -0.039000 
#    y 0.000000 1.673200 0.000000 
#    z -0.039000 0.000000 1.676040 
# 
# From -- ./inp_files/23547.got.cif
#   From: 2010.05.17/outbox.cif.g08.bks.cpg/sg15_12_cif.got.tgz:23547.got - 2010.06.03 18:47:42.
