data_PCOD9301368
_publ_section_title
;
Structure prediction by ZEFSAII (Michael W. Deem and Ramdas Pophale) SiO2 
 PCOD9301368
Probable space group: C 2/C
;
_chemical_formula_sum "Si O2"
_cell_formula_units_Z 60
_cell_length_a 19.645397
_cell_length_b 12.794166
_cell_length_c 22.962760
_cell_angle_alpha 90.000000
_cell_angle_beta 146.953882
_cell_angle_gamma 90.000000
_cell_volume 3147.338515
_symmetry_space_group_name_H-M "C 2/C"
_symmetry_group_IT_number 15
_symmetry_cell_setting 'monoclinic'
loop_
_space_group_symop_operation_xyz
x,y,z
-x,y,1/2-z
-x,-y,-z
x,-y,1/2+z
1/2+x,1/2+y,z
1/2-x,1/2+y,1/2-z
1/2-x,1/2-y,-z
1/2+x,1/2-y,1/2+z
loop_
_atom_site_type_symbol
_atom_site_label
_atom_site_fract_x
_atom_site_fract_y
_atom_site_fract_z
Si Si1 0.286884 0.885339 0.199394
Si Si2 0.000000 0.311567 0.750000
Si Si3 0.056177 0.831081 0.399719
Si Si4 0.313373 0.846730 0.890217
Si Si5 0.287599 0.028751 0.092816
Si Si6 0.205669 0.943347 0.269145
Si Si7 0.427012 0.939692 0.082382
Si Si8 0.064000 0.642570 0.493285
O O1 0.240527 0.767214 0.159671
O O2 0.234005 0.932820 0.221211
O O3 0.437026 0.891765 0.309625
O O4 0.245592 0.954293 0.114768
O O5 0.049007 0.239807 0.837126
O O6 0.112563 0.387013 0.811245
O O7 0.173160 0.908133 0.483389
O O8 0.068782 0.751760 0.462965
O O9 0.928337 0.895296 0.313225
O O10 0.442606 0.861266 0.947172
O O11 0.221979 0.937914 0.802205
O O12 0.346540 0.867921 0.981290
O O13 0.358052 0.964556 0.093031
O O14 0.313054 0.878733 0.380347
O O15 0.443786 0.049107 0.059403
#
# Coordination Sequence:
#
# PCOD9301368 Si02
#       8
#     8   4   8   8   8   8   8   8
#     4  12  23  43  68  97 130 177 223 271 334 392
#     4  12  24  44  72  98 132 178 218 274 340 398
#     4  12  26  40  67 107 134 168 218 285 341 380
#     4  11  24  40  70  96 127 182 223 272 329 391
#     4  12  26  43  67  97 133 177 221 273 329 409
#     4  11  24  42  67 100 137 167 225 281 328 396
#     4  11  22  45  66  91 134 174 229 265 325 412
#     4  11  20  42  69  99 128 178 221 269 335 397
#
# _framework density 19.063725999999999
#
# number of rings (size 3 to 8) (size 9 to 14) (size 15 to 20)
#    0.000    0.533    6.667    2.000    3.733    3.200 
#    0.000    1.333    0.000    0.000    0.000    0.000 
#    0.000    0.000    0.000    0.000    0.000    0.000 
#
# Total GULP energy -167870.294323 kJ/mol
# GULP energy per Si atom -5595.676477 kJ/mol
# Density = 1.902034 g / cm^3
# Si number density = 19.063726 Si / 1000 Ang^3
#
#
#
# Elastic Constant Matrix: (Units=GPa)
#
#
# Indices 1 2 3 4 5 6 
#
# 1 30.5613 11.9368 17.5627 0.0000 -9.0255 0.0000
# 2 11.9368 68.6813 33.0647 0.0000 -0.3220 0.0000
# 3 17.5627 33.0647 70.2214 -0.0002 4.3965 -0.0001
# 4 0.0000 0.0000 -0.0002 12.3159 -0.0001 6.5634
# 5 -9.0255 -0.3220 4.3965 -0.0001 38.3258 0.0000
# 6 0.0000 0.0000 -0.0001 6.5634 0.0000 26.2978
#
#
#
# Elastic Compliance Matrix: (Units=1/GPa)
#
#
# Indices 1 2 3 4 5 6 
#
# 1 0.042916 -0.002456 -0.010283 0.000000 0.011265 0.000000
# 2 -0.002456 0.019022 -0.008377 0.000000 0.000542 0.000000
# 3 -0.010283 -0.008377 0.021064 0.000000 -0.004908 0.000000
# 4 0.000000 0.000000 0.000000 0.093652 0.000000 -0.023374
# 5 0.011265 0.000542 -0.004908 0.000000 0.029313 0.000000
# 6 0.000000 0.000000 0.000000 -0.023374 0.000000 0.043860
#
#
# Mechanical properties :
#
#
# Convention : Reuss Voigt Hill
#
# Bulk Modulus (GPa) = 24.52634 32.73248 28.62941
# Shear Modulus (GPa) = 16.35876 22.51457 19.43666
#
# Velocity S-wave (km/s) = 2.93253 3.44032 3.19652
# Velocity P-wave (km/s) = 4.93555 5.74355 5.35481
#
# Compressibility (1/GPa) = 0.04077249
#
# Stress axis : x y z
#
# Youngs Moduli (GPa) = 23.30117 52.57062 47.47459
#
# Poissons Ratio (x) = 0.12910 0.48816
# Poissons Ratio (y) = 0.05722 0.39767
# Poissons Ratio (z) = 0.23960 0.44036
#
# Static dielectric constant tensor:
#      x y z
#    x 1.644440 0.000000 -0.012880 
#    y 0.000000 1.640380 0.000000 
#    z -0.012880 0.000000 1.651200 
# 
# From -- ./inp_files/248802.got.cif
#   From: 2010.05.17/outbox.cif.g08.bks.cpg/sg15_125_cif.got.tgz:248802.got - 2010.06.03 18:47:42.
