data_PCOD9301296
_publ_section_title
;
Structure prediction by ZEFSAII (Michael W. Deem and Ramdas Pophale) SiO2 
 PCOD9301296
Probable space group: C 2/C
;
_chemical_formula_sum "Si O2"
_cell_formula_units_Z 60
_cell_length_a 23.569928
_cell_length_b 27.593496
_cell_length_c 14.043619
_cell_angle_alpha 90.000000
_cell_angle_beta 161.463098
_cell_angle_gamma 90.000000
_cell_volume 2903.725416
_symmetry_space_group_name_H-M "C 2/C"
_symmetry_group_IT_number 15
_symmetry_cell_setting 'monoclinic'
loop_
_space_group_symop_operation_xyz
x,y,z
-x,y,1/2-z
-x,-y,-z
x,-y,1/2+z
1/2+x,1/2+y,z
1/2-x,1/2+y,1/2-z
1/2-x,1/2-y,-z
1/2+x,1/2-y,1/2+z
loop_
_atom_site_type_symbol
_atom_site_label
_atom_site_fract_x
_atom_site_fract_y
_atom_site_fract_z
Si Si1 0.192405 0.980646 0.517542
Si Si2 0.078697 0.429222 0.779530
Si Si3 0.756230 0.275203 0.295873
Si Si4 0.723163 0.910232 0.355847
Si Si5 0.363459 0.822631 0.647123
Si Si6 0.000000 0.828140 0.750000
Si Si7 0.076537 0.578212 0.974313
Si Si8 0.295957 0.665849 0.396660
O O1 0.276428 0.957099 0.555218
O O2 0.335205 0.966231 0.826790
O O3 0.180292 0.037980 0.481916
O O4 0.000000 0.963316 0.250000
O O5 0.157398 0.376419 0.930364
O O6 0.000000 0.452584 0.750000
O O7 0.909492 0.416499 0.444359
O O8 0.747660 0.287532 0.395198
O O9 0.780788 0.217960 0.322940
O O10 0.935669 0.302230 0.544346
O O11 0.588791 0.295617 0.972709
O O12 0.850045 0.864779 0.549120
O O13 0.594553 0.904326 0.239887
O O14 0.309157 0.829101 0.670158
O O15 0.217082 0.622262 0.208353
O O16 0.000000 0.566463 0.750000
O O17 0.500000 0.656587 0.750000
#
# Coordination Sequence:
#
# PCOD9301296 Si02
#       8
#     8   8   8   8   8   4   8   8
#     4  11  24  45  71 100 132 177 234 280 340 415
#     4  11  20  40  71  94 132 175 222 279 341 396
#     4  11  24  39  66  95 129 176 222 280 329 402
#     4  11  23  44  67  92 136 178 218 285 343 410
#     4  11  20  44  63  93 130 169 231 269 334 405
#     4  12  22  44  64  96 138 170 232 278 340 412
#     4  11  25  45  64  98 142 176 216 282 361 407
#     4  12  24  41  69  97 133 176 227 284 332 409
#
# _framework density 20.663112000000002
#
# number of rings (size 3 to 8) (size 9 to 14) (size 15 to 20)
#    0.000    0.800    7.333    2.400    0.933    3.200 
#    2.400    2.667    0.000    0.000    0.000    0.000 
#    0.000    0.000    0.000    0.000    0.000    0.000 
#
# Total GULP energy -167599.819814 kJ/mol
# GULP energy per Si atom -5586.660660 kJ/mol
# Density = 2.061608 g / cm^3
# Si number density = 20.663112 Si / 1000 Ang^3
#
#
#
# Elastic Constant Matrix: (Units=GPa)
#
#
# Indices 1 2 3 4 5 6 
#
# 1 97.1113 1.1990 31.0777 0.0000 3.1200 0.0000
# 2 1.1990 120.6007 20.8293 0.0000 -4.3187 0.0000
# 3 31.0777 20.8293 82.5372 0.0000 6.2729 0.0000
# 4 0.0000 0.0000 0.0000 11.6804 0.0000 6.8759
# 5 3.1200 -4.3187 6.2729 0.0000 33.3071 0.0000
# 6 0.0000 0.0000 0.0000 6.8759 0.0000 21.9145
#
#
#
# Elastic Compliance Matrix: (Units=1/GPa)
#
#
# Indices 1 2 3 4 5 6 
#
# 1 0.011762 0.000670 -0.004586 0.000000 -0.000151 0.000000
# 2 0.000670 0.008788 -0.002589 0.000000 0.001564 0.000000
# 3 -0.004586 -0.002589 0.014699 0.000000 -0.002674 0.000000
# 4 0.000000 0.000000 0.000000 0.105009 0.000000 -0.032947
# 5 -0.000151 0.001564 -0.002674 0.000000 0.030744 0.000000
# 6 0.000000 0.000000 0.000000 -0.032947 0.000000 0.055969
#
#
# Mechanical properties :
#
#
# Convention : Reuss Voigt Hill
#
# Bulk Modulus (GPa) = 44.96697 45.16237 45.06467
# Shear Modulus (GPa) = 20.21059 29.85661 25.03360
#
# Velocity S-wave (km/s) = 3.13085 3.80534 3.48445
# Velocity P-wave (km/s) = 5.90583 6.41961 6.16807
#
# Compressibility (1/GPa) = 0.02223855
#
# Stress axis : x y z
#
# Youngs Moduli (GPa) = 85.02158 113.78735 68.03100
#
# Poissons Ratio (x) = -0.07621 0.31200
# Poissons Ratio (y) = -0.05694 0.17613
# Poissons Ratio (z) = 0.38992 0.29459
#
# Static dielectric constant tensor:
#      x y z
#    x 1.776630 0.000000 -0.009080 
#    y 0.000000 1.784680 0.000000 
#    z -0.009080 0.000000 1.757330 
# 
# From -- ./inp_files/174951.got.cif
#   From: 2010.05.17/outbox.cif.g08.bks.cpg/sg15_88_cif.got.tgz:174951.got - 2010.06.03 18:47:42.
