data_PCOD9301571
_publ_section_title
;
Structure prediction by ZEFSAII (Michael W. Deem and Ramdas Pophale) SiO2 
 PCOD9301571
Probable space group: C 2/C
;
_chemical_formula_sum "Si O2"
_cell_formula_units_Z 56
_cell_length_a 11.819206
_cell_length_b 17.708062
_cell_length_c 14.504879
_cell_angle_alpha 90.000000
_cell_angle_beta 102.471739
_cell_angle_gamma 90.000000
_cell_volume 2964.165132
_symmetry_space_group_name_H-M "C 2/C"
_symmetry_group_IT_number 15
_symmetry_cell_setting 'monoclinic'
loop_
_space_group_symop_operation_xyz
x,y,z
-x,y,1/2-z
-x,-y,-z
x,-y,1/2+z
1/2+x,1/2+y,z
1/2-x,1/2+y,1/2-z
1/2-x,1/2-y,-z
1/2+x,1/2-y,1/2+z
loop_
_atom_site_type_symbol
_atom_site_label
_atom_site_fract_x
_atom_site_fract_y
_atom_site_fract_z
Si Si1 0.195379 0.667223 0.498432
Si Si2 0.104779 0.095693 0.469455
Si Si3 0.731607 0.441748 0.820698
Si Si4 0.568573 0.682436 0.637739
Si Si5 0.960546 0.355487 0.846544
Si Si6 0.659652 0.451966 0.594645
Si Si7 0.173463 0.113900 0.826549
O O1 0.250000 0.750000 0.500000
O O2 0.276607 0.609645 0.456631
O O3 0.211671 0.647906 0.608413
O O4 0.068952 0.654464 0.434320
O O5 0.163702 0.110613 0.381708
O O6 0.089649 0.166404 0.534714
O O7 0.977171 0.063708 0.426802
O O8 0.170844 0.032277 0.543608
O O9 0.864779 0.416930 0.857423
O O10 0.705534 0.441154 0.706865
O O11 0.686352 0.524767 0.841585
O O12 0.586775 0.769521 0.666538
O O13 0.653325 0.633780 0.717109
O O14 0.439746 0.651253 0.643266
O O15 0.000000 0.374959 0.750000
#
# Coordination Sequence:
#
# PCOD9301571 Si02
#       7
#     8   8   8   8   8   8   8
#     4  12  21  40  66  91 121 166 226 265 309 381
#     4  11  21  38  61  93 128 162 209 265 331 377
#     4  12  25  37  60 100 133 163 205 278 333 382
#     4  11  21  40  68  93 121 168 220 267 317 387
#     4  12  24  41  63  94 130 171 220 263 320 391
#     4  11  21  36  62  93 127 161 209 269 318 382
#     4  11  21  37  65  95 121 165 214 267 320 382
#
# _framework density 18.892334999999999
#
# number of rings (size 3 to 8) (size 9 to 14) (size 15 to 20)
#    0.000    0.571    8.571    1.286    2.000    1.143 
#    0.000    0.000    0.000    0.000    0.000    0.000 
#    0.000    0.000    0.000    0.000    0.000    0.000 
#
# Total GULP energy -156090.807611 kJ/mol
# GULP energy per Si atom -5574.671700 kJ/mol
# Density = 1.884934 g / cm^3
# Si number density = 18.892335 Si / 1000 Ang^3
#
#
#
# Elastic Constant Matrix: (Units=GPa)
#
#
# Indices 1 2 3 4 5 6 
#
# 1 52.9064 9.3785 19.1417 0.0000 13.2181 0.0000
# 2 9.3785 36.7582 -3.9032 0.0000 -1.7321 0.0000
# 3 19.1417 -3.9032 101.6404 0.0000 25.8552 0.0000
# 4 0.0000 0.0000 0.0000 8.4970 0.0000 16.2084
# 5 13.2181 -1.7321 25.8552 0.0000 30.9979 0.0000
# 6 0.0000 0.0000 0.0000 16.2084 0.0000 17.9020
#
#
#
# Elastic Compliance Matrix: (Units=1/GPa)
#
#
# Indices 1 2 3 4 5 6 
#
# 1 0.022983 -0.006512 -0.002530 0.000000 -0.008054 0.000000
# 2 -0.006512 0.029178 0.001556 0.000000 0.003110 0.000000
# 3 -0.002530 0.001556 0.012792 0.000000 -0.009505 0.000000
# 4 0.000000 0.000000 0.000000 -0.161865 0.000000 0.146552
# 5 -0.008054 0.003110 -0.009505 0.000000 0.043796 0.000000
# 6 0.000000 0.000000 0.000000 0.146552 0.000000 -0.076828
#
#
# Mechanical properties :
#
#
# Convention : Reuss Voigt Hill
#
# Bulk Modulus (GPa) = 20.00711 26.72657 23.36684
# Shear Modulus (GPa) = -50.85938 22.59193 -14.13372
#
# Velocity S-wave (km/s) = -5.19414 3.46182 -2.73814
# Velocity P-wave (km/s) = 5.03578 5.49149 1.54877
#
# Compressibility (1/GPa) = 0.04998224
#
# Stress axis : x y z
#
# Youngs Moduli (GPa) = 43.51002 34.27230 78.17082
#
# Poissons Ratio (x) = 0.22319 0.19774
# Poissons Ratio (y) = 0.28334 -0.12163
# Poissons Ratio (z) = 0.11006 -0.05333
#
# Static dielectric constant tensor:
#      x y z
#    x 1.649200 0.000000 0.007230 
#    y 0.000000 1.693550 0.000000 
#    z 0.007230 0.000000 1.700210 
# 
# From -- ./inp_files/145744.got.cif
#   From: 2010.05.17/outbox.cif.g08.bks.cpg/sg15_73_cif.got.tgz:145744.got - 2010.06.03 18:47:42.
