data_PCOD9301482
_publ_section_title
;
Structure prediction by ZEFSAII (Michael W. Deem and Ramdas Pophale) SiO2 
 PCOD9301482
Probable space group: C 2/C
;
_chemical_formula_sum "Si O2"
_cell_formula_units_Z 64
_cell_length_a 19.332109
_cell_length_b 19.523061
_cell_length_c 13.747002
_cell_angle_alpha 90.000000
_cell_angle_beta 134.679379
_cell_angle_gamma 90.000000
_cell_volume 3689.239589
_symmetry_space_group_name_H-M "C 2/C"
_symmetry_group_IT_number 15
_symmetry_cell_setting 'monoclinic'
loop_
_space_group_symop_operation_xyz
x,y,z
-x,y,1/2-z
-x,-y,-z
x,-y,1/2+z
1/2+x,1/2+y,z
1/2-x,1/2+y,1/2-z
1/2-x,1/2-y,-z
1/2+x,1/2-y,1/2+z
loop_
_atom_site_type_symbol
_atom_site_label
_atom_site_fract_x
_atom_site_fract_y
_atom_site_fract_z
Si Si1 0.092282 0.479246 0.904855
Si Si2 0.146571 0.425335 0.165952
Si Si3 0.031680 0.631993 0.882941
Si Si4 0.898738 0.881993 0.117060
Si Si5 0.769380 0.175334 0.665952
Si Si6 0.562573 0.229246 0.404855
Si Si7 0.115578 0.309233 0.649422
Si Si8 0.716156 0.059234 0.350578
O O1 0.085268 0.560841 0.909008
O O2 0.180367 0.455940 0.924878
O O3 0.000000 0.457415 0.750000
O O4 0.094296 0.448369 0.014016
O O5 0.232246 0.375001 0.214493
O O6 0.188446 0.492862 0.259902
O O7 0.065901 0.390865 0.155289
O O8 0.000000 0.665603 0.750000
O O9 0.102482 0.674097 0.023017
O O10 0.839387 0.859136 0.155290
O O11 0.926259 0.810840 0.090993
O O12 0.000000 0.915603 0.250000
O O13 0.829465 0.924097 0.976983
O O14 0.669720 0.198368 0.514016
O O15 0.821455 0.242861 0.759903
O O16 0.500000 0.207414 0.250000
O O17 0.494510 0.205941 0.424877
O O18 0.161660 0.374999 0.750000
#
# Coordination Sequence:
#
# PCOD9301482 Si02
#       8
#     8   8   8   8   8   8   8   8
#     4  11  21  34  59  93 128 154 190 248 313 366
#     4  12  23  38  60  92 125 166 197 249 310 363
#     4  11  22  39  59  87 131 159 198 249 311 360
#     4  11  22  39  59  87 131 159 198 249 311 360
#     4  12  23  38  60  92 125 166 197 249 310 363
#     4  11  21  34  59  93 128 154 190 248 313 366
#     4  12  23  37  63  94 126 159 205 251 308 369
#     4  12  23  37  63  94 126 159 205 251 308 369
#
# _framework density 17.347747999999999
#
# number of rings (size 3 to 8) (size 9 to 14) (size 15 to 20)
#    0.000    0.500   10.000    2.250    0.000    0.000 
#    0.000    1.250    0.000    0.750    0.000    0.000 
#    0.000    0.000    0.000    0.000    0.000    0.000 
#
# Total GULP energy -178696.751175 kJ/mol
# GULP energy per Si atom -5584.273474 kJ/mol
# Density = 1.730826 g / cm^3
# Si number density = 17.347748 Si / 1000 Ang^3
#
#
#
# Elastic Constant Matrix: (Units=GPa)
#
#
# Indices 1 2 3 4 5 6 
#
# 1 56.0368 22.5978 53.5064 0.0000 5.0951 0.0000
# 2 22.5978 75.3855 42.1082 0.0000 1.3790 0.0000
# 3 53.5064 42.1082 133.1278 0.0000 0.3537 0.0000
# 4 0.0000 0.0000 0.0000 22.1946 0.0000 -0.2947
# 5 5.0951 1.3790 0.3537 0.0000 36.9740 0.0000
# 6 0.0000 0.0000 0.0000 -0.2947 0.0000 26.3699
#
#
#
# Elastic Compliance Matrix: (Units=1/GPa)
#
#
# Indices 1 2 3 4 5 6 
#
# 1 0.029958 -0.002659 -0.011189 0.000000 -0.003922 0.000000
# 2 -0.002659 0.016359 -0.004105 0.000000 -0.000205 0.000000
# 3 -0.011189 -0.004105 0.013303 0.000000 0.001568 0.000000
# 4 0.000000 0.000000 0.000000 0.045063 0.000000 0.000504
# 5 -0.003922 -0.000205 0.001568 0.000000 0.027579 0.000000
# 6 0.000000 0.000000 0.000000 0.000504 0.000000 0.037928
#
#
# Mechanical properties :
#
#
# Convention : Reuss Voigt Hill
#
# Bulk Modulus (GPa) = 42.16942 55.66388 48.91665
# Shear Modulus (GPa) = 23.36436 26.86353 25.11394
#
# Velocity S-wave (km/s) = 3.67389 3.93941 3.80896
# Velocity P-wave (km/s) = 6.50828 7.26971 6.89951
#
# Compressibility (1/GPa) = 0.02371387
#
# Stress axis : x y z
#
# Youngs Moduli (GPa) = 33.37968 61.12877 75.17022
#
# Poissons Ratio (x) = 0.16251 0.84111
# Poissons Ratio (y) = 0.08874 0.30859
# Poissons Ratio (z) = 0.37350 0.25095
#
# Static dielectric constant tensor:
#      x y z
#    x 1.629540 0.000000 -0.000980 
#    y 0.000000 1.604850 0.000000 
#    z -0.000980 0.000000 1.615670 
# 
# From -- ./inp_files/107523.got.cif
#   From: 2010.05.17/outbox.cif.g08.bks.cpg/sg15_54_cif.got.tgz:107523.got - 2010.06.03 18:47:42.
