data_PCOD9301667
_publ_section_title
;
Structure prediction by ZEFSAII (Michael W. Deem and Ramdas Pophale) SiO2 
 PCOD9301667
Probable space group: C 2/C
;
_chemical_formula_sum "Si O2"
_cell_formula_units_Z 52
_cell_length_a 13.481410
_cell_length_b 15.777679
_cell_length_c 16.093235
_cell_angle_alpha 90.000000
_cell_angle_beta 39.379087
_cell_angle_gamma 90.000000
_cell_volume 2171.791394
_symmetry_space_group_name_H-M "C 2/C"
_symmetry_group_IT_number 15
_symmetry_cell_setting 'monoclinic'
loop_
_space_group_symop_operation_xyz
x,y,z
-x,y,1/2-z
-x,-y,-z
x,-y,1/2+z
1/2+x,1/2+y,z
1/2-x,1/2+y,1/2-z
1/2-x,1/2-y,-z
1/2+x,1/2-y,1/2+z
loop_
_atom_site_type_symbol
_atom_site_label
_atom_site_fract_x
_atom_site_fract_y
_atom_site_fract_z
Si Si1 0.615133 0.660954 0.499284
Si Si2 0.792819 0.668185 0.129045
Si Si3 0.668252 0.723214 0.730757
Si Si4 0.908956 0.573375 0.610200
Si Si5 0.860442 0.832372 0.012973
Si Si6 0.500000 0.647870 0.250000
Si Si7 0.321133 0.998381 0.342288
O O1 0.506462 0.689259 0.645682
O O2 0.749068 0.729947 0.397997
O O3 0.493015 0.657867 0.499262
O O4 0.704590 0.572675 0.442904
O O5 0.820139 0.699373 0.206019
O O6 0.654897 0.604540 0.191014
O O7 0.749280 0.758867 0.118075
O O8 0.947733 0.640200 0.980473
O O9 0.770893 0.637534 0.674131
O O10 0.837160 0.524087 0.734804
O O11 0.000000 0.500000 0.500000
O O12 0.940816 0.811338 0.874279
O O13 0.755002 0.914699 0.069375
O O14 0.500000 0.016468 0.250000
#
# Coordination Sequence:
#
# PCOD9301667 Si02
#       7
#     8   8   8   8   8   4   8
#     4  11  23  45  70  97 134 181 236 277 342 413
#     4  11  21  38  56  97 136 178 213 272 340 416
#     4  11  21  42  70 100 130 175 231 282 340 408
#     4  12  24  40  69 100 134 174 234 283 336 404
#     4  11  23  37  64  93 136 175 221 271 339 413
#     4  12  22  32  60  92 140 170 216 262 344 408
#     4  12  27  45  65 100 144 181 224 284 348 399
#
# _framework density 23.943366000000001
#
# number of rings (size 3 to 8) (size 9 to 14) (size 15 to 20)
#    0.000    0.615    7.692    2.769    1.077    0.000 
#    0.000    0.769    0.000    0.000    0.000    0.000 
#    0.000    0.000    0.000    0.000    0.000    0.000 
#
# Total GULP energy -144826.565849 kJ/mol
# GULP energy per Si atom -5570.252533 kJ/mol
# Density = 2.388887 g / cm^3
# Si number density = 23.943366 Si / 1000 Ang^3
#
#
#
# Elastic Constant Matrix: (Units=GPa)
#
#
# Indices 1 2 3 4 5 6 
#
# 1 53.3771 11.0918 19.4532 0.0001 -18.4661 0.0000
# 2 11.0918 109.0248 60.8649 0.0002 -14.7426 0.0000
# 3 19.4532 60.8649 176.6084 0.0005 -13.1261 0.0000
# 4 0.0001 0.0002 0.0005 33.2151 -0.0002 -17.4448
# 5 -18.4661 -14.7426 -13.1261 -0.0002 41.4222 0.0000
# 6 0.0000 0.0000 0.0000 -17.4448 0.0000 4.7690
#
#
#
# Elastic Compliance Matrix: (Units=1/GPa)
#
#
# Indices 1 2 3 4 5 6 
#
# 1 0.022690 -0.000023 -0.001782 0.000000 0.009542 0.000000
# 2 -0.000023 0.011700 -0.003811 0.000000 0.002946 0.000000
# 3 -0.001782 -0.003811 0.007181 0.000000 0.000125 0.000000
# 4 0.000000 0.000000 0.000000 -0.032683 0.000000 -0.119553
# 5 0.009542 0.002946 0.000125 0.000000 0.029484 -0.000001
# 6 0.000000 0.000000 0.000000 -0.119553 -0.000001 -0.227631
#
#
# Mechanical properties :
#
#
# Convention : Reuss Voigt Hill
#
# Bulk Modulus (GPa) = 32.96027 57.98113 45.47070
# Shear Modulus (GPa) = -29.77736 32.38797 1.30531
#
# Velocity S-wave (km/s) = -3.53038 3.68188 0.73915
# Velocity P-wave (km/s) = 1.67997 6.50719 4.44529
#
# Compressibility (1/GPa) = 0.03033955
#
# Stress axis : x y z
#
# Youngs Moduli (GPa) = 44.07199 85.46678 139.25355
#
# Poissons Ratio (x) = 0.00198 0.24816
# Poissons Ratio (y) = 0.00102 0.53067
# Poissons Ratio (z) = 0.07854 0.32570
#
# Static dielectric constant tensor:
#      x y z
#    x 2.042060 0.000000 -0.081720 
#    y 0.000000 1.973020 0.000000 
#    z -0.081720 0.000000 1.995180 
# 
# From -- ./inp_files/249094.got.cif
#   From: 2010.05.17/outbox.cif.g08.bks.cpg/sg15_125_cif.got.tgz:249094.got - 2010.06.03 18:47:42.
