data_PCOD9301041
_publ_section_title
;
Structure prediction by ZEFSAII (Michael W. Deem and Ramdas Pophale) SiO2 
 PCOD9301041
Probable space group: C 2/C
;
_chemical_formula_sum "Si O2"
_cell_formula_units_Z 40
_cell_length_a 22.000044
_cell_length_b 15.827061
_cell_length_c 13.345306
_cell_angle_alpha 90.000000
_cell_angle_beta 22.932559
_cell_angle_gamma 90.000000
_cell_volume 1810.606612
_symmetry_space_group_name_H-M "C 2/C"
_symmetry_group_IT_number 15
_symmetry_cell_setting 'monoclinic'
loop_
_space_group_symop_operation_xyz
x,y,z
-x,y,1/2-z
-x,-y,-z
x,-y,1/2+z
1/2+x,1/2+y,z
1/2-x,1/2+y,1/2-z
1/2-x,1/2-y,-z
1/2+x,1/2-y,1/2+z
loop_
_atom_site_type_symbol
_atom_site_label
_atom_site_fract_x
_atom_site_fract_y
_atom_site_fract_z
Si Si1 0.452554 0.856053 0.497682
Si Si2 0.841617 0.109803 0.934932
Si Si3 0.500000 0.278265 0.750000
Si Si4 0.342448 0.558739 0.729893
Si Si5 0.500000 0.985909 0.250000
Si Si6 0.233800 0.917150 0.385274
O O1 0.300874 0.845363 0.794909
O O2 0.469674 0.779076 0.393727
O O3 0.444892 0.932930 0.430079
O O4 0.590822 0.886826 0.361028
O O5 0.808698 0.008397 0.003573
O O6 0.866532 0.127301 0.780016
O O7 0.000000 0.130510 0.750000
O O8 0.635362 0.340917 0.580463
O O9 0.500000 0.500000 0.500000
O O10 0.319872 0.581320 0.648687
O O11 0.164911 0.528435 0.027642
#
# Coordination Sequence:
#
# PCOD9301041 Si02
#       6
#     8   8   4   8   4   8
#     4  11  24  42  67  99 138 183 225 281 343 410
#     4  12  22  42  71 102 138 177 232 286 337 405
#     4  11  26  46  70  98 139 182 230 281 348 416
#     4  12  22  36  66 104 134 172 228 285 339 394
#     4  11  20  36  64  98 129 170 220 279 328 398
#     4  12  22  43  67 103 136 179 228 282 339 407
#
# _framework density 22.092044000000001
#
# number of rings (size 3 to 8) (size 9 to 14) (size 15 to 20)
#    0.000    0.400    7.000    2.400    0.000    0.000 
#    3.600    1.000    2.200    0.000    0.000    0.000 
#    0.000    0.000    0.000    0.000    0.000    0.000 
#
# Total GULP energy -111527.568744 kJ/mol
# GULP energy per Si atom -5576.378437 kJ/mol
# Density = 2.204176 g / cm^3
# Si number density = 22.092044 Si / 1000 Ang^3
#
#
#
# Elastic Constant Matrix: (Units=GPa)
#
#
# Indices 1 2 3 4 5 6 
#
# 1 153.9608 7.4477 25.5360 -0.0002 -3.3921 0.0001
# 2 7.4477 38.2954 -7.6927 -0.0009 3.0231 0.0002
# 3 25.5360 -7.6927 100.7408 -0.0014 -15.9167 0.0004
# 4 -0.0002 -0.0009 -0.0014 11.5765 -0.0002 4.2436
# 5 -3.3921 3.0231 -15.9167 -0.0002 47.3283 -0.0002
# 6 0.0001 0.0002 0.0004 4.2436 -0.0002 16.2453
#
#
#
# Elastic Compliance Matrix: (Units=1/GPa)
#
#
# Indices 1 2 3 4 5 6 
#
# 1 0.006890 -0.001716 -0.001882 0.000000 -0.000030 0.000000
# 2 -0.001716 0.026998 0.002328 0.000003 -0.001064 -0.000001
# 3 -0.001882 0.002328 0.011128 0.000002 0.003459 -0.000001
# 4 0.000000 0.000003 0.000002 0.095529 0.000001 -0.024954
# 5 -0.000030 -0.001064 0.003459 0.000001 0.022358 0.000000
# 6 0.000000 -0.000001 -0.000001 -0.024954 0.000000 0.068075
#
#
# Mechanical properties :
#
#
# Convention : Reuss Voigt Hill
#
# Bulk Modulus (GPa) = 23.54221 38.17543 30.85882
# Shear Modulus (GPa) = 20.18772 32.87708 26.53240
#
# Velocity S-wave (km/s) = 3.02619 3.86189 3.46929
# Velocity P-wave (km/s) = 4.78435 6.09945 5.48148
#
# Compressibility (1/GPa) = 0.04247689
#
# Stress axis : x y z
#
# Youngs Moduli (GPa) = 145.14493 37.03946 89.86504
#
# Poissons Ratio (x) = 0.06355 0.16913
# Poissons Ratio (y) = 0.24902 -0.20924
# Poissons Ratio (z) = 0.27318 -0.08624
#
# Static dielectric constant tensor:
#      x y z
#    x 2.044990 0.000000 -0.412910 
#    y 0.000000 1.833990 0.000000 
#    z -0.412910 0.000000 2.584410 
# 
# From -- ./inp_files/174056.got.cif
#   From: 2010.05.17/outbox.cif.g08.bks.cpg/sg15_88_cif.got.tgz:174056.got - 2010.06.03 18:47:42.
