data_PCOD9301210
_publ_section_title
;
Structure prediction by ZEFSAII (Michael W. Deem and Ramdas Pophale) SiO2 
 PCOD9301210
Probable space group: C 2/C
;
_chemical_formula_sum "Si O2"
_cell_formula_units_Z 52
_cell_length_a 18.719209
_cell_length_b 19.097856
_cell_length_c 8.935861
_cell_angle_alpha 90.000000
_cell_angle_beta 56.983129
_cell_angle_gamma 90.000000
_cell_volume 2678.655368
_symmetry_space_group_name_H-M "C 2/C"
_symmetry_group_IT_number 15
_symmetry_cell_setting 'monoclinic'
loop_
_space_group_symop_operation_xyz
x,y,z
-x,y,1/2-z
-x,-y,-z
x,-y,1/2+z
1/2+x,1/2+y,z
1/2-x,1/2+y,1/2-z
1/2-x,1/2-y,-z
1/2+x,1/2-y,1/2+z
loop_
_atom_site_type_symbol
_atom_site_label
_atom_site_fract_x
_atom_site_fract_y
_atom_site_fract_z
Si Si1 0.017362 0.721941 0.410042
Si Si2 0.967110 0.569706 0.458207
Si Si3 0.000000 0.034946 0.750000
Si Si4 0.327411 0.454445 0.861628
Si Si5 0.087890 0.144907 0.461873
Si Si6 0.763983 0.426470 0.228218
Si Si7 0.180860 0.800096 0.151327
O O1 0.111554 0.752923 0.315592
O O2 0.000000 0.719422 0.250000
O O3 0.002536 0.643501 0.483167
O O4 0.954219 0.782273 0.540328
O O5 0.865016 0.572402 0.587178
O O6 0.000000 0.566523 0.250000
O O7 0.000000 0.500000 0.500000
O O8 0.017534 0.086409 0.588650
O O9 0.915620 0.988739 0.821865
O O10 0.352757 0.388781 0.730231
O O11 0.280082 0.510917 0.812990
O O12 0.265640 0.435200 0.067803
O O13 0.135808 0.159917 0.563900
O O14 0.725606 0.355199 0.206897
O O15 0.250000 0.750000 0.000000
#
# Coordination Sequence:
#
# PCOD9301210 Si02
#       7
#     8   8   4   8   8   8   8
#     4   9  19  38  63  87 117 167 212 251 314 382
#     4  11  24  45  68  89 120 167 216 268 318 379
#     4  12  20  38  62  94 136 172 206 248 338 388
#     4  12  25  36  63  96 135 170 203 270 322 394
#     4  11  20  39  62  91 129 167 210 251 318 396
#     4  12  23  41  61  99 127 167 217 268 319 381
#     4  11  21  38  64  90 122 164 218 268 316 384
#
# _framework density 19.412725999999999
#
# number of rings (size 3 to 8) (size 9 to 14) (size 15 to 20)
#    0.000    0.923    5.385    4.154    2.154    1.231 
#    0.000    4.615    0.000    0.000    0.000    0.000 
#    0.000    0.000    0.000    0.000    0.000    0.000 
#
# Total GULP energy -145317.319720 kJ/mol
# GULP energy per Si atom -5589.127682 kJ/mol
# Density = 1.936854 g / cm^3
# Si number density = 19.412726 Si / 1000 Ang^3
#
#
#
# Elastic Constant Matrix: (Units=GPa)
#
#
# Indices 1 2 3 4 5 6 
#
# 1 82.8424 53.3357 40.7571 0.0000 -33.8531 0.0000
# 2 53.3357 154.2387 55.0984 0.0000 -17.6581 0.0000
# 3 40.7571 55.0984 137.5617 0.0000 -22.4944 0.0000
# 4 0.0000 0.0000 0.0000 41.7154 0.0000 -5.5412
# 5 -33.8531 -17.6581 -22.4944 0.0000 28.9314 0.0000
# 6 0.0000 0.0000 0.0000 -5.5412 0.0000 15.7837
#
#
#
# Elastic Compliance Matrix: (Units=1/GPa)
#
#
# Indices 1 2 3 4 5 6 
#
# 1 0.028124 -0.006029 -0.001304 0.000000 0.028215 0.000000
# 2 -0.006029 0.009032 -0.002387 0.000000 -0.003398 0.000000
# 3 -0.001304 -0.002387 0.009308 0.000000 0.004254 0.000000
# 4 0.000000 0.000000 0.000000 0.025145 0.000000 0.008827
# 5 0.028215 -0.003398 0.004254 0.000000 0.068813 0.000000
# 6 0.000000 0.000000 0.000000 0.008827 0.000000 0.066456
#
#
# Mechanical properties :
#
#
# Convention : Reuss Voigt Hill
#
# Bulk Modulus (GPa) = 37.00517 74.78059 55.89288
# Shear Modulus (GPa) = 21.24720 32.31621 26.78171
#
# Velocity S-wave (km/s) = 3.31191 4.08449 3.71832
# Velocity P-wave (km/s) = 5.80764 7.80059 6.87669
#
# Compressibility (1/GPa) = 0.02702325
#
# Stress axis : x y z
#
# Youngs Moduli (GPa) = 35.55634 110.71694 107.44019
#
# Poissons Ratio (x) = 0.66755 0.14010
# Poissons Ratio (y) = 0.21438 0.25646
# Poissons Ratio (z) = 0.04637 0.26428
#
# Static dielectric constant tensor:
#      x y z
#    x 1.758220 0.000000 -0.055350 
#    y 0.000000 1.693580 0.000000 
#    z -0.055350 0.000000 1.657430 
# 
# From -- ./inp_files/48635.got.cif
#   From: 2010.05.17/outbox.cif.g08.bks.cpg/sg15_25_cif.got.tgz:48635.got - 2010.06.03 18:47:42.
