data_PCOD9301869
_publ_section_title
;
Structure prediction by ZEFSAII (Michael W. Deem and Ramdas Pophale) SiO2 
 PCOD9301869
Probable space group: C 2/C
;
_chemical_formula_sum "Si O2"
_cell_formula_units_Z 64
_cell_length_a 12.011689
_cell_length_b 13.856178
_cell_length_c 24.648401
_cell_angle_alpha 90.000000
_cell_angle_beta 133.028530
_cell_angle_gamma 90.000000
_cell_volume 2998.900020
_symmetry_space_group_name_H-M "C 2/C"
_symmetry_group_IT_number 15
_symmetry_cell_setting 'monoclinic'
loop_
_space_group_symop_operation_xyz
x,y,z
-x,y,1/2-z
-x,-y,-z
x,-y,1/2+z
1/2+x,1/2+y,z
1/2-x,1/2+y,1/2-z
1/2-x,1/2-y,-z
1/2+x,1/2-y,1/2+z
loop_
_atom_site_type_symbol
_atom_site_label
_atom_site_fract_x
_atom_site_fract_y
_atom_site_fract_z
Si Si1 0.174093 0.051190 0.318591
Si Si2 0.743305 0.058831 0.552049
Si Si3 0.124556 0.754652 0.559947
Si Si4 0.447105 0.166062 0.171549
Si Si5 0.507898 0.006268 0.619135
Si Si6 0.518845 0.680822 0.600449
Si Si7 0.903441 0.725224 0.581491
Si Si8 0.159683 0.270264 0.317599
O O1 0.313406 0.997056 0.335700
O O2 0.182189 0.162395 0.300794
O O3 0.000000 0.017621 0.250000
O O4 0.214194 0.030428 0.395183
O O5 0.690096 0.146935 0.573076
O O6 0.602178 0.038982 0.464704
O O7 0.896105 0.097104 0.572633
O O8 0.265746 0.825934 0.608133
O O9 0.030313 0.773639 0.473674
O O10 0.033605 0.765234 0.585324
O O11 0.500000 0.188875 0.250000
O O12 0.491585 0.060504 0.166191
O O13 0.503996 0.243289 0.145208
O O14 0.444140 0.113157 0.602418
O O15 0.697989 0.663812 0.650846
O O16 0.750000 0.750000 0.500000
O O17 0.869367 0.759199 0.630189
O O18 0.000000 0.317333 0.250000
#
# Coordination Sequence:
#
# PCOD9301869 Si02
#       8
#     8   8   8   8   8   8   8   8
#     4  11  24  41  67 100 133 176 230 282 333 404
#     4  11  21  39  72  99 124 176 227 282 330 392
#     4  11  21  42  67 100 132 173 226 281 331 406
#     4  11  24  40  71 101 132 176 229 280 344 404
#     4  12  23  44  68  98 135 175 225 288 337 400
#     4  11  21  43  67  98 138 175 225 281 339 401
#     4  12  26  41  68 100 135 177 230 272 341 416
#     4  11  25  44  65  93 140 186 217 282 355 406
#
# _framework density 21.341159000000001
#
# number of rings (size 3 to 8) (size 9 to 14) (size 15 to 20)
#    0.000    0.750    6.250    1.875    1.750    3.500 
#    0.000    3.750    0.000    0.000    0.000    0.000 
#    0.000    0.000    0.000    0.000    0.000    0.000 
#
# Total GULP energy -178552.986911 kJ/mol
# GULP energy per Si atom -5579.780841 kJ/mol
# Density = 2.129259 g / cm^3
# Si number density = 21.341159 Si / 1000 Ang^3
#
#
#
# Elastic Constant Matrix: (Units=GPa)
#
#
# Indices 1 2 3 4 5 6 
#
# 1 110.9668 1.7242 30.1019 0.0000 25.4578 0.0000
# 2 1.7242 41.2984 -11.5780 0.0000 19.0218 0.0000
# 3 30.1019 -11.5780 101.2693 0.0000 17.7598 0.0000
# 4 0.0000 0.0000 0.0000 12.4878 0.0000 1.9927
# 5 25.4578 19.0218 17.7598 0.0000 47.0821 0.0000
# 6 0.0000 0.0000 0.0000 1.9927 0.0000 15.3078
#
#
#
# Elastic Compliance Matrix: (Units=1/GPa)
#
#
# Indices 1 2 3 4 5 6 
#
# 1 0.010860 0.001633 -0.002030 0.000000 -0.005766 0.000000
# 2 0.001633 0.033697 0.006328 0.000000 -0.016884 0.000000
# 3 -0.002030 0.006328 0.012269 0.000000 -0.006087 0.000000
# 4 0.000000 0.000000 0.000000 0.081777 0.000000 -0.010645
# 5 -0.005766 -0.016884 -0.006087 0.000000 0.033475 0.000000
# 6 0.000000 0.000000 0.000000 -0.010645 0.000000 0.066712
#
#
# Mechanical properties :
#
#
# Convention : Reuss Voigt Hill
#
# Bulk Modulus (GPa) = 14.55863 32.67009 23.61436
# Shear Modulus (GPa) = 20.01420 30.52796 25.27108
#
# Velocity S-wave (km/s) = 3.06571 3.78626 3.44488
# Velocity P-wave (km/s) = 4.40092 5.86993 5.18769
#
# Compressibility (1/GPa) = 0.06868778
#
# Stress axis : x y z
#
# Youngs Moduli (GPa) = 92.08194 29.67666 81.50602
#
# Poissons Ratio (x) = -0.04847 0.16547
# Poissons Ratio (y) = -0.15040 -0.51577
# Poissons Ratio (z) = 0.18694 -0.18779
#
# Static dielectric constant tensor:
#      x y z
#    x 1.925170 0.000000 -0.031330 
#    y 0.000000 1.813870 0.000000 
#    z -0.031330 0.000000 1.792480 
# 
# From -- ./inp_files/293087.got.cif
#   From: 2010.05.17/outbox.cif.g08.bks.cpg/sg15_147_cif.got.tgz:293087.got - 2010.06.03 18:47:42.
