data_PCOD9301816
_publ_section_title
;
Structure prediction by ZEFSAII (Michael W. Deem and Ramdas Pophale) SiO2 
 PCOD9301816
Probable space group: C 2/C
;
_chemical_formula_sum "Si O2"
_cell_formula_units_Z 40
_cell_length_a 9.537940
_cell_length_b 16.181934
_cell_length_c 12.279186
_cell_angle_alpha 90.000000
_cell_angle_beta 105.671931
_cell_angle_gamma 90.000000
_cell_volume 1824.742493
_symmetry_space_group_name_H-M "C 2/C"
_symmetry_group_IT_number 15
_symmetry_cell_setting 'monoclinic'
loop_
_space_group_symop_operation_xyz
x,y,z
-x,y,1/2-z
-x,-y,-z
x,-y,1/2+z
1/2+x,1/2+y,z
1/2-x,1/2+y,1/2-z
1/2-x,1/2-y,-z
1/2+x,1/2-y,1/2+z
loop_
_atom_site_type_symbol
_atom_site_label
_atom_site_fract_x
_atom_site_fract_y
_atom_site_fract_z
Si Si1 0.650082 0.132271 0.469670
Si Si2 0.664458 0.172542 0.032585
Si Si3 0.674876 0.784048 0.766690
Si Si4 0.828237 0.904738 0.218099
Si Si5 0.365847 0.965047 0.150267
O O1 0.511881 0.180153 0.491700
O O2 0.732961 0.185940 0.395458
O O3 0.753640 0.096330 0.584531
O O4 0.590667 0.052451 0.391572
O O5 0.680724 0.094737 0.957068
O O6 0.750000 0.250000 0.000000
O O7 0.715788 0.164337 0.168776
O O8 0.500000 0.788837 0.750000
O O9 0.707072 0.688633 0.748296
O O10 0.761845 0.969258 0.288470
O O11 0.000000 0.913533 0.250000
O O12 0.500000 0.930839 0.250000
#
# Coordination Sequence:
#
# PCOD9301816 Si02
#       5
#     8   8   8   8   8
#     4  11  24  41  73  97 140 188 240 294 357 428
#     4  11  21  39  66 102 134 172 230 297 352 423
#     4   9  20  39  63  95 127 176 232 286 350 418
#     4  11  24  43  66  96 141 189 241 294 354 418
#     4  12  24  42  71 103 139 186 239 296 361 429
#
# _framework density 21.920901000000001
#
# number of rings (size 3 to 8) (size 9 to 14) (size 15 to 20)
#    0.000    1.200    4.000    3.000    2.800    0.800 
#    0.000    0.000    0.000    0.000    0.000    0.000 
#    0.000    0.000    0.000    0.000    0.000    0.000 
#
# Total GULP energy -111681.647416 kJ/mol
# GULP energy per Si atom -5584.082371 kJ/mol
# Density = 2.187101 g / cm^3
# Si number density = 21.920901 Si / 1000 Ang^3
#
#
#
# Elastic Constant Matrix: (Units=GPa)
#
#
# Indices 1 2 3 4 5 6 
#
# 1 91.5105 28.1354 50.6401 0.0000 -8.4298 0.0000
# 2 28.1354 83.0891 17.4299 0.0000 -9.3742 0.0000
# 3 50.6401 17.4299 138.4821 0.0000 -12.8549 0.0000
# 4 0.0000 0.0000 0.0000 27.1376 0.0000 0.0857
# 5 -8.4298 -9.3742 -12.8549 0.0000 24.4477 0.0000
# 6 0.0000 0.0000 0.0000 0.0857 0.0000 22.7140
#
#
#
# Elastic Compliance Matrix: (Units=1/GPa)
#
#
# Indices 1 2 3 4 5 6 
#
# 1 0.014921 -0.003910 -0.004863 0.000000 0.001089 0.000000
# 2 -0.003910 0.013794 0.000062 0.000000 0.003974 0.000000
# 3 -0.004863 0.000062 0.009292 0.000000 0.003233 0.000000
# 4 0.000000 0.000000 0.000000 0.036850 0.000000 -0.000139
# 5 0.001089 0.003974 0.003233 0.000000 0.044503 0.000000
# 6 0.000000 0.000000 0.000000 -0.000139 0.000000 0.044026
#
#
# Mechanical properties :
#
#
# Convention : Reuss Voigt Hill
#
# Bulk Modulus (GPa) = 48.57570 56.16583 52.37077
# Shear Modulus (GPa) = 26.64263 29.31828 27.98046
#
# Velocity S-wave (km/s) = 3.49004 3.66109 3.57659
# Velocity P-wave (km/s) = 6.20066 6.59918 6.40302
#
# Compressibility (1/GPa) = 0.02058642
#
# Stress axis : x y z
#
# Youngs Moduli (GPa) = 67.01854 72.49327 107.62192
#
# Poissons Ratio (x) = 0.28342 0.52339
# Poissons Ratio (y) = 0.26201 -0.00671
# Poissons Ratio (z) = 0.32593 -0.00452
#
# Static dielectric constant tensor:
#      x y z
#    x 1.785130 0.000000 -0.011540 
#    y 0.000000 1.825310 0.000000 
#    z -0.011540 0.000000 1.840230 
# 
# From -- ./inp_files/76708.got.cif
#   From: 2010.05.17/outbox.cif.g08.bks.cpg/sg15_39_cif.got.tgz:76708.got - 2010.06.03 18:47:42.
