data_PCOD9301086
_publ_section_title
;
Structure prediction by ZEFSAII (Michael W. Deem and Ramdas Pophale) SiO2 
 PCOD9301086
Probable space group: C 2/C
;
_chemical_formula_sum "Si O2"
_cell_formula_units_Z 32
_cell_length_a 10.222846
_cell_length_b 10.046694
_cell_length_c 22.429895
_cell_angle_alpha 90.000000
_cell_angle_beta 37.805455
_cell_angle_gamma 90.000000
_cell_volume 1412.115285
_symmetry_space_group_name_H-M "C 2/C"
_symmetry_group_IT_number 15
_symmetry_cell_setting 'monoclinic'
loop_
_space_group_symop_operation_xyz
x,y,z
-x,y,1/2-z
-x,-y,-z
x,-y,1/2+z
1/2+x,1/2+y,z
1/2-x,1/2+y,1/2-z
1/2-x,1/2-y,-z
1/2+x,1/2-y,1/2+z
loop_
_atom_site_type_symbol
_atom_site_label
_atom_site_fract_x
_atom_site_fract_y
_atom_site_fract_z
Si Si1 0.150328 0.552424 0.864680
Si Si2 0.266433 0.071679 0.447940
Si Si3 0.980520 0.168772 0.066903
Si Si4 0.972819 0.962862 0.353934
O O1 0.995300 0.674859 0.936450
O O2 0.329320 0.597210 0.752719
O O3 0.283077 0.512179 0.875242
O O4 0.002971 0.442533 0.887237
O O5 0.119842 0.118289 0.556445
O O6 0.169278 0.921524 0.470586
O O7 0.221960 0.149536 0.403763
O O8 0.953600 0.099585 0.140682
#
# Coordination Sequence:
#
# PCOD9301086 Si02
#       4
#     8   8   8   8
#     4  11  20  37  63  79 120 156 178 242 293 324
#     4   9  20  42  58  84 118 146 196 239 272 345
#     4   9  21  41  57  85 116 147 197 233 282 342
#     4   9  22  37  54  94 111 144 203 226 280 349
#
# _framework density 22.661041000000001
#
# number of rings (size 3 to 8) (size 9 to 14) (size 15 to 20)
#    1.500    1.000    0.000    1.500    0.000    6.000 
#    0.000   10.000    0.000    0.000    0.000    0.000 
#    0.000    0.000    0.000    0.000    0.000    0.000 
#
# Total GULP energy -89177.818503 kJ/mol
# GULP energy per Si atom -5573.613656 kJ/mol
# Density = 2.260946 g / cm^3
# Si number density = 22.661041 Si / 1000 Ang^3
#
#
#
# Elastic Constant Matrix: (Units=GPa)
#
#
# Indices 1 2 3 4 5 6 
#
# 1 141.9725 31.4693 7.9994 0.0000 20.6183 0.0000
# 2 31.4693 46.6897 13.5341 0.0000 5.3213 0.0000
# 3 7.9994 13.5341 60.2062 -0.0001 4.3741 0.0000
# 4 0.0000 0.0000 -0.0001 16.5543 0.0000 1.0083
# 5 20.6183 5.3213 4.3741 0.0000 24.1296 0.0000
# 6 0.0000 0.0000 0.0000 1.0083 0.0000 22.7216
#
#
#
# Elastic Compliance Matrix: (Units=1/GPa)
#
#
# Indices 1 2 3 4 5 6 
#
# 1 0.009238 -0.005609 0.000524 0.000000 -0.006752 0.000000
# 2 -0.005609 0.026739 -0.005255 0.000000 -0.000152 0.000000
# 3 0.000524 -0.005255 0.017905 0.000000 -0.002535 0.000000
# 4 0.000000 0.000000 0.000000 0.060571 0.000000 -0.002688
# 5 -0.006752 -0.000152 -0.002535 0.000000 0.047705 0.000000
# 6 0.000000 0.000000 0.000000 -0.002688 0.000000 0.044130
#
#
# Mechanical properties :
#
#
# Convention : Reuss Voigt Hill
#
# Bulk Modulus (GPa) = 30.11754 39.43045 34.77400
# Shear Modulus (GPa) = 21.00536 25.73881 23.37209
#
# Velocity S-wave (km/s) = 3.04787 3.37385 3.21499
# Velocity P-wave (km/s) = 5.07004 5.71095 5.40001
#
# Compressibility (1/GPa) = 0.03320324
#
# Stress axis : x y z
#
# Youngs Moduli (GPa) = 108.25023 37.39887 55.84935
#
# Poissons Ratio (x) = 0.20976 -0.02926
# Poissons Ratio (y) = 0.60715 0.29346
# Poissons Ratio (z) = -0.05672 0.19651
#
# Static dielectric constant tensor:
#      x y z
#    x 1.858810 0.000000 -0.034100 
#    y 0.000000 1.858190 0.000000 
#    z -0.034100 0.000000 1.867930 
# 
# From -- ./inp_files/177976.got.cif
#   From: 2010.05.17/outbox.cif.g08.bks.cpg/sg15_89_cif.got.tgz:177976.got - 2010.06.03 18:47:42.
