data_PCOD9301871
_publ_section_title
;
Structure prediction by ZEFSAII (Michael W. Deem and Ramdas Pophale) SiO2 
 PCOD9301871
Probable space group: C 2/C
;
_chemical_formula_sum "Si O2"
_cell_formula_units_Z 56
_cell_length_a 22.233435
_cell_length_b 17.687319
_cell_length_c 14.331723
_cell_angle_alpha 90.000000
_cell_angle_beta 27.361339
_cell_angle_gamma 90.000000
_cell_volume 2590.285185
_symmetry_space_group_name_H-M "C 2/C"
_symmetry_group_IT_number 15
_symmetry_cell_setting 'monoclinic'
loop_
_space_group_symop_operation_xyz
x,y,z
-x,y,1/2-z
-x,-y,-z
x,-y,1/2+z
1/2+x,1/2+y,z
1/2-x,1/2+y,1/2-z
1/2-x,1/2-y,-z
1/2+x,1/2-y,1/2+z
loop_
_atom_site_type_symbol
_atom_site_label
_atom_site_fract_x
_atom_site_fract_y
_atom_site_fract_z
Si Si1 0.749029 0.388419 0.529363
Si Si2 0.238705 0.076838 0.720841
Si Si3 0.440316 0.915499 0.092780
Si Si4 0.013360 0.831144 0.628799
Si Si5 0.355611 0.170095 0.064620
Si Si6 0.848505 0.946968 0.351445
Si Si7 0.345900 0.580678 0.071262
O O1 0.827239 0.401820 0.326325
O O2 0.638919 0.323119 0.689012
O O3 0.848868 0.375169 0.476213
O O4 0.663050 0.464092 0.654190
O O5 0.368147 0.104529 0.595811
O O6 0.242518 0.086196 0.604498
O O7 0.217309 0.990344 0.786148
O O8 0.107537 0.118813 0.935880
O O9 0.554984 0.865236 0.977503
O O10 0.500000 0.000000 0.000000
O O11 0.000000 0.866988 0.750000
O O12 0.088604 0.752118 0.533121
O O13 0.211571 0.157217 0.305914
O O14 0.812817 0.929331 0.507323
O O15 0.998597 0.923168 0.132283
#
# Coordination Sequence:
#
# PCOD9301871 Si02
#       7
#     8   8   8   8   8   8   8
#     4  12  22  41  67  96 134 172 225 273 334 402
#     4  12  22  40  66 100 130 170 222 273 334 395
#     4  12  23  40  62  94 137 172 212 278 331 398
#     4  12  25  42  65  97 135 178 219 274 335 399
#     4  12  27  41  61  98 138 179 220 272 342 402
#     4  11  21  39  73  99 120 172 227 284 330 373
#     4  11  21  42  66  98 134 165 227 283 320 399
#
# _framework density 21.619240999999999
#
# number of rings (size 3 to 8) (size 9 to 14) (size 15 to 20)
#    0.000    0.286    7.143    2.571    2.000    1.143 
#    0.000    1.429    0.000    0.000    0.000    0.000 
#    0.000    0.000    0.000    0.000    0.000    0.000 
#
# Total GULP energy -156364.866732 kJ/mol
# GULP energy per Si atom -5584.459526 kJ/mol
# Density = 2.157003 g / cm^3
# Si number density = 21.619241 Si / 1000 Ang^3
#
#
#
# Elastic Constant Matrix: (Units=GPa)
#
#
# Indices 1 2 3 4 5 6 
#
# 1 191.9792 14.0887 27.2914 -0.0001 2.0229 0.0000
# 2 14.0887 49.2792 31.5052 -0.0001 6.0365 0.0000
# 3 27.2914 31.5052 81.8139 -0.0001 -15.6378 0.0000
# 4 -0.0001 -0.0001 -0.0001 32.4465 0.0001 -4.7723
# 5 2.0229 6.0365 -15.6378 0.0001 27.3503 0.0000
# 6 0.0000 0.0000 0.0000 -4.7723 0.0000 21.6077
#
#
#
# Elastic Compliance Matrix: (Units=1/GPa)
#
#
# Indices 1 2 3 4 5 6 
#
# 1 0.005533 0.000001 -0.002160 0.000000 -0.001645 0.000000
# 2 0.000001 0.032074 -0.015386 0.000000 -0.015876 0.000000
# 3 -0.002160 -0.015386 0.021946 0.000000 0.016104 0.000000
# 4 0.000000 0.000000 0.000000 0.031855 0.000000 0.007036
# 5 -0.001645 -0.015876 0.016104 0.000000 0.049396 0.000000
# 6 0.000000 0.000000 0.000000 0.007036 0.000000 0.047834
#
#
# Mechanical properties :
#
#
# Convention : Reuss Voigt Hill
#
# Bulk Modulus (GPa) = 40.87928 52.09365 46.48646
# Shear Modulus (GPa) = 21.56264 32.96003 27.26134
#
# Velocity S-wave (km/s) = 3.16156 3.90881 3.55487
# Velocity P-wave (km/s) = 5.68129 6.67233 6.19666
#
# Compressibility (1/GPa) = 0.02446227
#
# Stress axis : x y z
#
# Youngs Moduli (GPa) = 180.72410 31.17838 45.56561
#
# Poissons Ratio (x) = -0.00002 0.09844
# Poissons Ratio (y) = -0.00013 0.70106
# Poissons Ratio (z) = 0.39044 0.47970
#
# Static dielectric constant tensor:
#      x y z
#    x 1.849080 0.000000 -0.037500 
#    y 0.000000 1.812690 0.000000 
#    z -0.037500 0.000000 1.809820 
# 
# From -- ./inp_files/169106.got.cif
#   From: 2010.05.17/outbox.cif.g08.bks.cpg/sg15_85_cif.got.tgz:169106.got - 2010.06.03 18:47:42.
