data_PCOD9301249
_publ_section_title
;
Structure prediction by ZEFSAII (Michael W. Deem and Ramdas Pophale) SiO2 
 PCOD9301249
Probable space group: C 2/C
;
_chemical_formula_sum "Si O2"
_cell_formula_units_Z 48
_cell_length_a 11.041176
_cell_length_b 19.261956
_cell_length_c 10.427828
_cell_angle_alpha 90.000000
_cell_angle_beta 69.052433
_cell_angle_gamma 90.000000
_cell_volume 2071.160088
_symmetry_space_group_name_H-M "C 2/C"
_symmetry_group_IT_number 15
_symmetry_cell_setting 'monoclinic'
loop_
_space_group_symop_operation_xyz
x,y,z
-x,y,1/2-z
-x,-y,-z
x,-y,1/2+z
1/2+x,1/2+y,z
1/2-x,1/2+y,1/2-z
1/2-x,1/2-y,-z
1/2+x,1/2-y,1/2+z
loop_
_atom_site_type_symbol
_atom_site_label
_atom_site_fract_x
_atom_site_fract_y
_atom_site_fract_z
Si Si1 0.133100 0.798037 0.279847
Si Si2 0.897298 0.354478 0.623850
Si Si3 0.133283 0.505160 0.772770
Si Si4 0.684730 0.887332 0.462705
Si Si5 0.279971 0.392934 0.031583
Si Si6 0.417644 0.483456 0.406277
O O1 0.152012 0.716903 0.298850
O O2 0.251809 0.830233 0.154295
O O3 0.138269 0.838368 0.415106
O O4 0.000000 0.806781 0.250000
O O5 0.849397 0.423835 0.712976
O O6 0.840781 0.360092 0.499758
O O7 0.054570 0.355822 0.572135
O O8 0.128219 0.545805 0.908083
O O9 0.234223 0.549031 0.651402
O O10 0.000000 0.513695 0.750000
O O11 0.811227 0.923984 0.476270
O O12 0.355822 0.440841 0.901413
O O13 0.500000 0.462486 0.250000
O O14 0.500000 0.500000 0.500000
#
# Coordination Sequence:
#
# PCOD9301249 Si02
#       6
#     8   8   8   8   8   8
#     4  11  26  47  66 100 151 194 240 305 380 449
#     4  12  24  44  72 111 137 192 249 303 380 445
#     4  11  20  39  72 108 139 175 240 312 368 429
#     4  11  23  45  73 101 146 189 242 312 368 439
#     4  11  24  45  72 101 147 185 247 309 368 442
#     4  12  25  45  73 110 148 196 246 306 380 449
#
# _framework density 23.175416999999999
#
# number of rings (size 3 to 8) (size 9 to 14) (size 15 to 20)
#    0.000    0.667    3.333    6.000    0.000    0.667 
#    3.000    1.667    0.000    0.000    0.000    0.000 
#    0.000    0.000    0.000    0.000    0.000    0.000 
#
# Total GULP energy -134152.835859 kJ/mol
# GULP energy per Si atom -5589.701494 kJ/mol
# Density = 2.312267 g / cm^3
# Si number density = 23.175417 Si / 1000 Ang^3
#
#
#
# Elastic Constant Matrix: (Units=GPa)
#
#
# Indices 1 2 3 4 5 6 
#
# 1 140.6729 41.1009 32.8273 0.0000 11.4743 0.0000
# 2 41.1009 187.5385 34.5395 0.0000 -9.9524 0.0000
# 3 32.8273 34.5395 62.7055 0.0000 -7.3066 0.0000
# 4 0.0000 0.0000 0.0000 34.8064 0.0000 -2.3295
# 5 11.4743 -9.9524 -7.3066 0.0000 19.5931 0.0000
# 6 0.0000 0.0000 0.0000 -2.3295 0.0000 35.7716
#
#
#
# Elastic Compliance Matrix: (Units=1/GPa)
#
#
# Indices 1 2 3 4 5 6 
#
# 1 0.009404 -0.001572 -0.005010 0.000000 -0.008174 0.000000
# 2 -0.001572 0.006264 -0.002247 0.000000 0.003265 0.000000
# 3 -0.005010 -0.002247 0.020926 0.000000 0.009596 0.000000
# 4 0.000000 0.000000 0.000000 0.028856 0.000000 0.001879
# 5 -0.008174 0.003265 0.009596 0.000000 0.061062 0.000000
# 6 0.000000 0.000000 0.000000 0.001879 0.000000 0.028078
#
#
# Mechanical properties :
#
#
# Convention : Reuss Voigt Hill
#
# Bulk Modulus (GPa) = 52.80782 67.53914 60.17348
# Shear Modulus (GPa) = 28.00209 36.86415 32.43312
#
# Velocity S-wave (km/s) = 3.47978 3.99263 3.74500
# Velocity P-wave (km/s) = 6.24346 7.10357 6.68736
#
# Compressibility (1/GPa) = 0.01893659
#
# Stress axis : x y z
#
# Youngs Moduli (GPa) = 106.34070 159.64682 47.78771
#
# Poissons Ratio (x) = 0.25098 0.23939
# Poissons Ratio (y) = 0.16718 0.10737
# Poissons Ratio (z) = 0.53271 0.35870
#
# Static dielectric constant tensor:
#      x y z
#    x 1.947510 0.000000 0.030310 
#    y 0.000000 1.864990 0.000000 
#    z 0.030310 0.000000 2.080170 
# 
# From -- ./inp_files/87805.got.cif
#   From: 2010.05.17/outbox.cif.g08.bks.cpg/sg15_44_cif.got.tgz:87805.got - 2010.06.03 18:47:42.
