data_PCOD9301820
_publ_section_title
;
Structure prediction by ZEFSAII (Michael W. Deem and Ramdas Pophale) SiO2 
 PCOD9301820
Probable space group: C 2/C
;
_chemical_formula_sum "Si O2"
_cell_formula_units_Z 48
_cell_length_a 10.978384
_cell_length_b 14.546289
_cell_length_c 13.323036
_cell_angle_alpha 90.000000
_cell_angle_beta 68.758648
_cell_angle_gamma 90.000000
_cell_volume 1983.073885
_symmetry_space_group_name_H-M "C 2/C"
_symmetry_group_IT_number 15
_symmetry_cell_setting 'monoclinic'
loop_
_space_group_symop_operation_xyz
x,y,z
-x,y,1/2-z
-x,-y,-z
x,-y,1/2+z
1/2+x,1/2+y,z
1/2-x,1/2+y,1/2-z
1/2-x,1/2-y,-z
1/2+x,1/2-y,1/2+z
loop_
_atom_site_type_symbol
_atom_site_label
_atom_site_fract_x
_atom_site_fract_y
_atom_site_fract_z
Si Si1 0.335283 0.429247 0.714618
Si Si2 0.903991 0.449123 0.860933
Si Si3 0.726470 0.088196 0.460716
Si Si4 0.618829 0.615093 0.885859
Si Si5 0.878268 0.712128 0.714770
Si Si6 0.999598 0.708196 0.031835
O O1 0.226488 0.426384 0.660365
O O2 0.276738 0.451068 0.841253
O O3 0.417137 0.518351 0.654989
O O4 0.379506 0.324124 0.714512
O O5 0.000000 0.490032 0.750000
O O6 0.874965 0.519042 0.958042
O O7 0.967183 0.358952 0.887921
O O8 0.836320 0.101104 0.512036
O O9 0.646673 0.181256 0.461262
O O10 0.745671 0.662183 0.792794
O O11 0.503118 0.688402 0.927122
O O12 0.907447 0.689954 0.590118
O O13 0.000000 0.686948 0.750000
#
# Coordination Sequence:
#
# PCOD9301820 Si02
#       6
#     8   8   8   8   8   8
#     4  11  25  43  63  95 134 166 214 270 321 383
#     4  11  23  37  64  97 131 166 210 272 324 373
#     4  11  21  39  66  95 126 166 217 269 311 373
#     4  11  24  43  67  98 130 169 217 268 316 384
#     4  12  24  42  70  97 125 174 220 262 319 384
#     4  12  23  40  67  95 130 169 216 264 322 381
#
# _framework density 24.204847000000001
#
# number of rings (size 3 to 8) (size 9 to 14) (size 15 to 20)
#    0.000    0.667    5.000    3.000    4.667    1.333 
#    0.000    5.833    0.000    0.000    0.000    0.000 
#    0.000    0.000    0.000    0.000    0.000    0.000 
#
# Total GULP energy -134382.439212 kJ/mol
# GULP energy per Si atom -5599.268301 kJ/mol
# Density = 2.414976 g / cm^3
# Si number density = 24.204847 Si / 1000 Ang^3
#
#
#
# Elastic Constant Matrix: (Units=GPa)
#
#
# Indices 1 2 3 4 5 6 
#
# 1 29.3608 27.6951 12.1454 0.0000 1.8677 0.0000
# 2 27.6951 130.7407 47.7582 0.0000 14.5513 0.0000
# 3 12.1454 47.7582 143.7216 0.0000 11.1238 0.0000
# 4 0.0000 0.0000 0.0000 33.8570 0.0000 -22.5355
# 5 1.8677 14.5513 11.1238 0.0000 15.6454 0.0000
# 6 0.0000 0.0000 0.0000 -22.5355 0.0000 -20.4797
#
#
#
# Elastic Compliance Matrix: (Units=1/GPa)
#
#
# Indices 1 2 3 4 5 6 
#
# 1 0.042850 -0.009211 -0.000876 0.000000 0.004074 0.000000
# 2 -0.009211 0.011334 -0.002389 0.000000 -0.007744 0.000000
# 3 -0.000876 -0.002389 0.008091 0.000000 -0.003426 0.000000
# 4 0.000000 0.000000 0.000000 0.017049 0.000000 -0.018760
# 5 0.004074 -0.007744 -0.003426 0.000000 0.073068 0.000000
# 6 0.000000 0.000000 0.000000 -0.018760 0.000000 -0.028185
#
#
# Mechanical properties :
#
#
# Convention : Reuss Voigt Hill
#
# Bulk Modulus (GPa) = 26.79149 53.22451 40.00800
# Shear Modulus (GPa) = 30.94077 20.21950 25.58014
#
# Velocity S-wave (km/s) = 3.57919 2.89338 3.25440
# Velocity P-wave (km/s) = 5.30787 5.76187 5.53952
#
# Compressibility (1/GPa) = 0.03732528
#
# Stress axis : x y z
#
# Youngs Moduli (GPa) = 23.33715 88.22825 123.59660
#
# Poissons Ratio (x) = 0.81263 0.10825
# Poissons Ratio (y) = 0.21495 0.29523
# Poissons Ratio (z) = 0.02044 0.21074
#
# Static dielectric constant tensor:
#      x y z
#    x 1.939710 0.000000 -0.034850 
#    y 0.000000 1.959550 0.000000 
#    z -0.034850 0.000000 1.939430 
# 
# From -- ./inp_files/151826.got.cif
#   From: 2010.05.17/outbox.cif.g08.bks.cpg/sg15_76_cif.got.tgz:151826.got - 2010.06.03 18:47:42.
