data_PCOD9301904
_publ_section_title
;
Structure prediction by ZEFSAII (Michael W. Deem and Ramdas Pophale) SiO2 
 PCOD9301904
Probable space group: C 2/C
;
_chemical_formula_sum "Si O2"
_cell_formula_units_Z 56
_cell_length_a 11.145982
_cell_length_b 12.701645
_cell_length_c 16.968473
_cell_angle_alpha 90.000000
_cell_angle_beta 73.242341
_cell_angle_gamma 90.000000
_cell_volume 2300.248423
_symmetry_space_group_name_H-M "C 2/C"
_symmetry_group_IT_number 15
_symmetry_cell_setting 'monoclinic'
loop_
_space_group_symop_operation_xyz
x,y,z
-x,y,1/2-z
-x,-y,-z
x,-y,1/2+z
1/2+x,1/2+y,z
1/2-x,1/2+y,1/2-z
1/2-x,1/2-y,-z
1/2+x,1/2-y,1/2+z
loop_
_atom_site_type_symbol
_atom_site_label
_atom_site_fract_x
_atom_site_fract_y
_atom_site_fract_z
Si Si1 0.333646 0.695236 0.912398
Si Si2 0.670727 0.774781 0.290430
Si Si3 0.593221 0.998375 0.802263
Si Si4 0.118575 0.819299 0.377495
Si Si5 0.679195 0.553850 0.343148
Si Si6 0.306557 0.949378 0.982180
Si Si7 0.930310 0.368840 0.529646
O O1 0.268921 0.709046 0.842107
O O2 0.480184 0.717430 0.873971
O O3 0.250000 0.750000 0.000000
O O4 0.315250 0.574443 0.943463
O O5 0.578795 0.874939 0.311902
O O6 0.760110 0.782848 0.196103
O O7 0.613477 0.660299 0.324006
O O8 0.500000 0.962490 0.750000
O O9 0.732653 0.981050 0.744747
O O10 0.587413 0.931585 0.883374
O O11 0.113849 0.945525 0.382086
O O12 0.115778 0.750140 0.457229
O O13 0.771704 0.578426 0.399585
O O14 0.420680 0.886503 0.003555
O O15 0.355319 0.067607 0.978257
#
# Coordination Sequence:
#
# PCOD9301904 Si02
#       7
#     8   8   8   8   8   8   8
#     4  12  22  39  65  96 122 167 217 261 312 373
#     4  11  23  42  64  91 129 167 210 263 313 383
#     4  11  22  39  65  92 121 166 216 256 314 380
#     4  11  25  40  64  96 128 168 215 260 318 376
#     4  11  23  41  63  93 129 170 211 261 322 374
#     4  11  23  38  65  96 127 166 214 262 318 374
#     4  11  21  40  65  93 127 166 213 263 309 378
#
# _framework density 24.345193999999999
#
# number of rings (size 3 to 8) (size 9 to 14) (size 15 to 20)
#    0.000    0.857    7.143    0.429    0.000    1.143 
#    0.000    5.714    0.000    0.000    0.000    0.000 
#    0.000    0.000    0.000    0.000    0.000    0.000 
#
# Total GULP energy -156008.618788 kJ/mol
# GULP energy per Si atom -5571.736385 kJ/mol
# Density = 2.428978 g / cm^3
# Si number density = 24.345194 Si / 1000 Ang^3
#
#
#
# Elastic Constant Matrix: (Units=GPa)
#
#
# Indices 1 2 3 4 5 6 
#
# 1 37.9942 1.1002 4.2327 0.0000 -5.5863 0.0000
# 2 1.1002 128.0284 7.4857 0.0000 -13.4856 0.0000
# 3 4.2327 7.4857 37.0926 0.0000 -3.5912 0.0000
# 4 0.0000 0.0000 0.0000 41.1716 0.0000 -1.8776
# 5 -5.5863 -13.4856 -3.5912 0.0000 25.9820 0.0000
# 6 0.0000 0.0000 0.0000 -1.8776 0.0000 36.1800
#
#
#
# Elastic Compliance Matrix: (Units=1/GPa)
#
#
# Indices 1 2 3 4 5 6 
#
# 1 0.027457 0.000533 -0.002678 0.000000 0.005810 0.000000
# 2 0.000533 0.008332 -0.001330 0.000000 0.004255 0.000000
# 3 -0.002678 -0.001330 0.027783 0.000000 0.002574 0.000000
# 4 0.000000 0.000000 0.000000 0.024346 0.000000 0.001263
# 5 0.005810 0.004255 0.002574 0.000000 0.042302 0.000000
# 6 0.000000 0.000000 0.000000 0.001263 0.000000 0.027705
#
#
# Mechanical properties :
#
#
# Convention : Reuss Voigt Hill
#
# Bulk Modulus (GPa) = 17.66153 25.41692 21.53923
# Shear Modulus (GPa) = 27.21085 33.35317 30.28201
#
# Velocity S-wave (km/s) = 3.34684 3.70538 3.53067
# Velocity P-wave (km/s) = 4.71227 5.36371 5.04851
#
# Compressibility (1/GPa) = 0.05662023
#
# Stress axis : x y z
#
# Youngs Moduli (GPa) = 36.42068 120.01633 35.99345
#
# Poissons Ratio (x) = -0.06392 0.09640
# Poissons Ratio (y) = -0.01940 0.04788
# Poissons Ratio (z) = 0.09754 0.15966
#
# Static dielectric constant tensor:
#      x y z
#    x 1.951940 0.000000 -0.027130 
#    y 0.000000 2.282520 0.000000 
#    z -0.027130 0.000000 1.935300 
# 
# From -- ./inp_files/197786.got.cif
#   From: 2010.05.17/outbox.cif.g08.bks.cpg/sg15_99_cif.got.tgz:197786.got - 2010.06.03 18:47:42.
