data_PCOD9301323
_publ_section_title
;
Structure prediction by ZEFSAII (Michael W. Deem and Ramdas Pophale) SiO2 
 PCOD9301323
Probable space group: C 2/C
;
_chemical_formula_sum "Si O2"
_cell_formula_units_Z 44
_cell_length_a 10.986275
_cell_length_b 14.122596
_cell_length_c 14.077048
_cell_angle_alpha 90.000000
_cell_angle_beta 125.480398
_cell_angle_gamma 90.000000
_cell_volume 1778.560198
_symmetry_space_group_name_H-M "C 2/C"
_symmetry_group_IT_number 15
_symmetry_cell_setting 'monoclinic'
loop_
_space_group_symop_operation_xyz
x,y,z
-x,y,1/2-z
-x,-y,-z
x,-y,1/2+z
1/2+x,1/2+y,z
1/2-x,1/2+y,1/2-z
1/2-x,1/2-y,-z
1/2+x,1/2-y,1/2+z
loop_
_atom_site_type_symbol
_atom_site_label
_atom_site_fract_x
_atom_site_fract_y
_atom_site_fract_z
Si Si1 0.606286 0.060114 0.156339
Si Si2 0.500000 0.098410 0.750000
Si Si3 0.794372 0.407539 0.438316
Si Si4 0.665119 0.628188 0.587829
Si Si5 0.354691 0.245766 0.250446
Si Si6 0.021774 0.008126 0.373267
O O1 0.697307 0.138293 0.256090
O O2 0.549706 0.970776 0.189202
O O3 0.682270 0.010356 0.101402
O O4 0.450656 0.111117 0.058749
O O5 0.342287 0.145225 0.651212
O O6 0.754093 0.321950 0.349291
O O7 0.654222 0.429033 0.442601
O O8 0.615540 0.714110 0.630923
O O9 0.580027 0.601465 0.452868
O O10 0.619254 0.538133 0.635555
O O11 0.500000 0.245402 0.250000
O O12 0.000000 0.016984 0.250000
#
# Coordination Sequence:
#
# PCOD9301323 Si02
#       6
#     8   4   8   8   8   8
#     4  11  25  41  71 103 137 189 236 290 366 420
#     4  12  20  42  70 102 134 190 234 284 364 430
#     4  11  22  46  70  95 148 186 229 298 354 428
#     4  11  23  38  73 101 140 185 237 290 357 422
#     4  12  23  44  68 106 141 174 246 298 344 422
#     4  11  20  41  68 100 139 192 229 285 361 421
#
# _framework density 24.739113
#
# number of rings (size 3 to 8) (size 9 to 14) (size 15 to 20)
#    0.000    0.727    8.182    0.000    0.000    0.727 
#    9.818    0.909    8.000    0.000    0.000    0.000 
#    0.000    0.000    0.000    0.000    0.000    0.000 
#
# Total GULP energy -122902.004855 kJ/mol
# GULP energy per Si atom -5586.454766 kJ/mol
# Density = 2.468281 g / cm^3
# Si number density = 24.739113 Si / 1000 Ang^3
#
#
#
# Elastic Constant Matrix: (Units=GPa)
#
#
# Indices 1 2 3 4 5 6 
#
# 1 118.8188 30.1226 26.7290 0.0000 14.1518 0.0000
# 2 30.1226 74.6879 3.9286 0.0000 7.3481 0.0000
# 3 26.7290 3.9286 74.3549 0.0000 4.9505 0.0000
# 4 0.0000 0.0000 0.0000 26.1846 0.0000 3.4272
# 5 14.1518 7.3481 4.9505 0.0000 36.9152 0.0000
# 6 0.0000 0.0000 0.0000 3.4272 0.0000 11.0403
#
#
#
# Elastic Compliance Matrix: (Units=1/GPa)
#
#
# Indices 1 2 3 4 5 6 
#
# 1 0.010465 -0.003767 -0.003376 0.000000 -0.002809 0.000000
# 2 -0.003767 0.015034 0.000669 0.000000 -0.001638 0.000000
# 3 -0.003376 0.000669 0.014681 0.000000 -0.000808 0.000000
# 4 0.000000 0.000000 0.000000 0.039808 0.000000 -0.012357
# 5 -0.002809 -0.001638 -0.000808 0.000000 0.028601 0.000000
# 6 0.000000 0.000000 0.000000 -0.012357 0.000000 0.094413
#
#
# Mechanical properties :
#
#
# Convention : Reuss Voigt Hill
#
# Bulk Modulus (GPa) = 36.72066 43.26912 39.99489
# Shear Modulus (GPa) = 22.21953 28.63345 25.42649
#
# Velocity S-wave (km/s) = 3.00017 3.40577 3.20939
# Velocity P-wave (km/s) = 5.18428 5.74403 5.47132
#
# Compressibility (1/GPa) = 0.02723263
#
# Stress axis : x y z
#
# Youngs Moduli (GPa) = 95.55517 66.51490 68.11512
#
# Poissons Ratio (x) = 0.25055 0.22995
# Poissons Ratio (y) = 0.35993 -0.04555
# Poissons Ratio (z) = 0.32259 -0.04448
#
# Static dielectric constant tensor:
#      x y z
#    x 2.447760 0.000000 -0.085130 
#    y 0.000000 1.960000 0.000000 
#    z -0.085130 0.000000 2.095230 
# 
# From -- ./inp_files/143879.got.cif
#   From: 2010.05.17/outbox.cif.g08.bks.cpg/sg15_72_cif.got.tgz:143879.got - 2010.06.03 18:47:42.
