data_PCOD9301307
_publ_section_title
;
Structure prediction by ZEFSAII (Michael W. Deem and Ramdas Pophale) SiO2 
 PCOD9301307
Probable space group: C 2/C
;
_chemical_formula_sum "Si O2"
_cell_formula_units_Z 56
_cell_length_a 16.074616
_cell_length_b 17.909081
_cell_length_c 9.284674
_cell_angle_alpha 90.000000
_cell_angle_beta 101.098757
_cell_angle_gamma 90.000000
_cell_volume 2622.895378
_symmetry_space_group_name_H-M "C 2/C"
_symmetry_group_IT_number 15
_symmetry_cell_setting 'monoclinic'
loop_
_space_group_symop_operation_xyz
x,y,z
-x,y,1/2-z
-x,-y,-z
x,-y,1/2+z
1/2+x,1/2+y,z
1/2-x,1/2+y,1/2-z
1/2-x,1/2-y,-z
1/2+x,1/2-y,1/2+z
loop_
_atom_site_type_symbol
_atom_site_label
_atom_site_fract_x
_atom_site_fract_y
_atom_site_fract_z
Si Si1 0.727211 0.571743 0.795761
Si Si2 0.977256 0.628246 0.583141
Si Si3 0.451751 0.558404 0.886551
Si Si4 0.638572 0.723160 0.850363
Si Si5 0.327071 0.972770 0.061604
Si Si6 0.474360 0.712296 0.973540
Si Si7 0.909242 0.379808 0.641483
O O1 0.640316 0.537483 0.702396
O O2 0.702656 0.654138 0.850848
O O3 0.783970 0.577142 0.671037
O O4 0.766599 0.516395 0.928534
O O5 0.897604 0.578636 0.508401
O O6 0.958445 0.716856 0.567893
O O7 0.000000 0.605235 0.750000
O O8 0.059093 0.615364 0.512327
O O9 0.500000 0.576367 0.750000
O O10 0.446855 0.628597 0.995254
O O11 0.500000 0.500000 0.000000
O O12 0.573364 0.709631 0.960564
O O13 0.581557 0.724283 0.687840
O O14 0.657521 0.811824 0.866959
O O15 0.371502 0.040504 0.162862
O O16 0.000000 0.365150 0.750000
#
# Coordination Sequence:
#
# PCOD9301307 Si02
#       7
#     8   8   8   8   8   8   8
#     4  11  24  40  62  94 135 169 203 265 342 385
#     4  11  22  39  64  98 130 165 217 273 317 379
#     4  11  21  40  69  91 123 169 227 272 308 381
#     4   9  17  38  65  87 112 163 214 263 298 380
#     4  12  25  40  61  98 140 166 204 270 336 394
#     4   9  17  37  66  89 117 159 222 262 309 363
#     4  11  20  40  73  91 115 176 229 258 315 392
#
# _framework density 21.350451
#
# number of rings (size 3 to 8) (size 9 to 14) (size 15 to 20)
#    0.000    1.429    5.714    3.429    0.000    1.143 
#    0.000    2.857    3.143    0.000    0.000    0.000 
#    0.000    0.000    0.000    0.000    0.000    0.000 
#
# Total GULP energy -155976.123518 kJ/mol
# GULP energy per Si atom -5570.575840 kJ/mol
# Density = 2.130186 g / cm^3
# Si number density = 21.350451 Si / 1000 Ang^3
#
#
#
# Elastic Constant Matrix: (Units=GPa)
#
#
# Indices 1 2 3 4 5 6 
#
# 1 53.0892 51.9939 9.5026 0.0000 1.3424 0.0000
# 2 51.9939 154.9247 33.8020 0.0000 16.2931 0.0000
# 3 9.5026 33.8020 43.9863 0.0000 6.7392 0.0000
# 4 0.0000 0.0000 0.0000 20.9083 0.0000 -6.7190
# 5 1.3424 16.2931 6.7392 0.0000 31.5239 0.0000
# 6 0.0000 0.0000 0.0000 -6.7190 0.0000 36.9813
#
#
#
# Elastic Compliance Matrix: (Units=1/GPa)
#
#
# Indices 1 2 3 4 5 6 
#
# 1 0.028560 -0.010229 0.001103 0.000000 0.003835 0.000000
# 2 -0.010229 0.011670 -0.006101 0.000000 -0.004292 0.000000
# 3 0.001103 -0.006101 0.027613 0.000000 -0.002797 0.000000
# 4 0.000000 0.000000 0.000000 0.050793 0.000000 0.009228
# 5 0.003835 -0.004292 -0.002797 0.000000 0.034375 0.000000
# 6 0.000000 0.000000 0.000000 0.009228 0.000000 0.028717
#
#
# Mechanical properties :
#
#
# Convention : Reuss Voigt Hill
#
# Bulk Modulus (GPa) = 26.74544 49.17748 37.96146
# Shear Modulus (GPa) = 22.25744 28.32948 25.29346
#
# Velocity S-wave (km/s) = 3.23225 3.64659 3.44565
# Velocity P-wave (km/s) = 5.14626 6.38855 5.80076
#
# Compressibility (1/GPa) = 0.03738955
#
# Stress axis : x y z
#
# Youngs Moduli (GPa) = 35.01455 85.68955 36.21510
#
# Poissons Ratio (x) = 0.87650 -0.03995
# Poissons Ratio (y) = 0.35816 0.22094
# Poissons Ratio (z) = -0.03862 0.52277
#
# Static dielectric constant tensor:
#      x y z
#    x 1.822580 0.000000 -0.003180 
#    y 0.000000 1.861130 0.000000 
#    z -0.003180 0.000000 1.830900 
# 
# From -- ./inp_files/49122.got.cif
#   From: 2010.05.17/outbox.cif.g08.bks.cpg/sg15_25_cif.got.tgz:49122.got - 2010.06.03 18:47:42.
