data_PCOD9301043
_publ_section_title
;
Structure prediction by ZEFSAII (Michael W. Deem and Ramdas Pophale) SiO2 
 PCOD9301043
Probable space group: C 2/C
;
_chemical_formula_sum "Si O2"
_cell_formula_units_Z 56
_cell_length_a 19.529455
_cell_length_b 21.853209
_cell_length_c 9.741377
_cell_angle_alpha 90.000000
_cell_angle_beta 136.465237
_cell_angle_gamma 90.000000
_cell_volume 2863.620082
_symmetry_space_group_name_H-M "C 2/C"
_symmetry_group_IT_number 15
_symmetry_cell_setting 'monoclinic'
loop_
_space_group_symop_operation_xyz
x,y,z
-x,y,1/2-z
-x,-y,-z
x,-y,1/2+z
1/2+x,1/2+y,z
1/2-x,1/2+y,1/2-z
1/2-x,1/2-y,-z
1/2+x,1/2-y,1/2+z
loop_
_atom_site_type_symbol
_atom_site_label
_atom_site_fract_x
_atom_site_fract_y
_atom_site_fract_z
Si Si1 0.819239 0.361097 0.158784
Si Si2 0.276026 0.688962 0.250204
Si Si3 0.423313 0.009395 0.764357
Si Si4 0.504788 0.826133 0.604072
Si Si5 0.494268 0.686842 0.895794
Si Si6 0.204526 0.175498 0.739486
Si Si7 0.192411 0.610955 0.354932
O O1 0.865501 0.426398 0.187578
O O2 0.727836 0.360387 0.132770
O O3 0.904717 0.329145 0.373947
O O4 0.787368 0.324657 0.977568
O O5 0.393325 0.690417 0.386357
O O6 0.236146 0.752974 0.259103
O O7 0.265796 0.632176 0.341717
O O8 0.500000 0.005655 0.750000
O O9 0.337290 0.957520 0.647360
O O10 0.500000 0.000000 0.000000
O O11 0.500000 0.854288 0.750000
O O12 0.539327 0.757147 0.674196
O O13 0.588647 0.862465 0.647247
O O14 0.500000 0.659128 0.750000
O O15 0.407977 0.664218 0.871343
O O16 0.273194 0.148101 0.960502
#
# Coordination Sequence:
#
# PCOD9301043 Si02
#       7
#     8   8   8   8   8   8   8
#     4  12  26  41  61 100 145 173 214 277 349 395
#     4  12  25  41  62 101 136 171 222 286 341 386
#     4  12  25  43  67  99 136 180 221 272 335 401
#     4  11  20  36  65  95 129 177 221 257 324 427
#     4  11  22  39  66  93 128 170 228 276 328 402
#     4  12  23  42  68  93 131 182 223 270 341 405
#     4  12  22  41  68  94 131 175 225 271 327 406
#
# _framework density 19.555667
#
# number of rings (size 3 to 8) (size 9 to 14) (size 15 to 20)
#    0.000    0.286    7.143    3.857    0.000    0.571 
#    0.000    0.000    0.000    5.143    0.000    0.000 
#    0.000    0.000    0.000    0.000    0.000    0.000 
#
# Total GULP energy -156166.174765 kJ/mol
# GULP energy per Si atom -5577.363384 kJ/mol
# Density = 1.951116 g / cm^3
# Si number density = 19.555667 Si / 1000 Ang^3
#
#
#
# Elastic Constant Matrix: (Units=GPa)
#
#
# Indices 1 2 3 4 5 6 
#
# 1 141.0543 48.2569 40.5817 0.0000 5.4317 0.0000
# 2 48.2569 82.0654 31.3443 0.0000 -1.1606 0.0000
# 3 40.5817 31.3443 119.2763 0.0000 -10.4363 0.0000
# 4 0.0000 0.0000 0.0000 24.7718 0.0000 6.5421
# 5 5.4317 -1.1606 -10.4363 0.0000 39.3737 0.0000
# 6 0.0000 0.0000 0.0000 6.5421 0.0000 27.7580
#
#
#
# Elastic Compliance Matrix: (Units=1/GPa)
#
#
# Indices 1 2 3 4 5 6 
#
# 1 0.009402 -0.004744 -0.002127 0.000000 -0.002001 0.000000
# 2 -0.004744 0.015951 -0.002538 0.000000 0.000452 0.000000
# 3 -0.002127 -0.002538 0.010026 0.000000 0.002876 0.000000
# 4 0.000000 0.000000 0.000000 0.043048 0.000000 -0.010146
# 5 -0.002001 0.000452 0.002876 0.000000 0.026449 0.000000
# 6 0.000000 0.000000 0.000000 -0.010146 0.000000 0.038417
#
#
# Mechanical properties :
#
#
# Convention : Reuss Voigt Hill
#
# Bulk Modulus (GPa) = 60.38627 64.75134 62.56880
# Shear Modulus (GPa) = 29.82736 33.19491 31.51113
#
# Velocity S-wave (km/s) = 3.90969 4.12449 4.01852
# Velocity P-wave (km/s) = 7.16429 7.47429 7.32093
#
# Compressibility (1/GPa) = 0.01656006
#
# Stress axis : x y z
#
# Youngs Moduli (GPa) = 106.36537 62.69221 99.73882
#
# Poissons Ratio (x) = 0.29743 0.21215
# Poissons Ratio (y) = 0.50463 0.25314
# Poissons Ratio (z) = 0.22624 0.15911
#
# Static dielectric constant tensor:
#      x y z
#    x 1.794560 0.000000 0.021490 
#    y 0.000000 1.719830 0.000000 
#    z 0.021490 0.000000 1.688230 
# 
# From -- ./inp_files/51598.got.cif
#   From: 2010.05.17/outbox.cif.g08.bks.cpg/sg15_26_cif.got.tgz:51598.got - 2010.06.03 18:47:42.
