data_PCOD9301661
_publ_section_title
;
Structure prediction by ZEFSAII (Michael W. Deem and Ramdas Pophale) SiO2 
 PCOD9301661
Probable space group: C 2/C
;
_chemical_formula_sum "Si O2"
_cell_formula_units_Z 60
_cell_length_a 20.372136
_cell_length_b 12.198516
_cell_length_c 18.561269
_cell_angle_alpha 90.000000
_cell_angle_beta 139.174222
_cell_angle_gamma 90.000000
_cell_volume 3015.576287
_symmetry_space_group_name_H-M "C 2/C"
_symmetry_group_IT_number 15
_symmetry_cell_setting 'monoclinic'
loop_
_space_group_symop_operation_xyz
x,y,z
-x,y,1/2-z
-x,-y,-z
x,-y,1/2+z
1/2+x,1/2+y,z
1/2-x,1/2+y,1/2-z
1/2-x,1/2-y,-z
1/2+x,1/2-y,1/2+z
loop_
_atom_site_type_symbol
_atom_site_label
_atom_site_fract_x
_atom_site_fract_y
_atom_site_fract_z
Si Si1 0.276116 0.321671 0.450460
Si Si2 0.000000 0.324521 0.750000
Si Si3 0.790205 0.848214 0.720839
Si Si4 0.249915 0.578416 0.632034
Si Si5 0.526729 0.641107 0.652090
Si Si6 0.992437 0.897000 0.660827
Si Si7 0.282502 0.933460 0.563070
Si Si8 0.657151 0.700416 0.076935
O O1 0.250000 0.250000 0.500000
O O2 0.244925 0.256183 0.353618
O O3 0.394673 0.342920 0.546900
O O4 0.226910 0.441614 0.417765
O O5 0.991520 0.243838 0.811246
O O6 0.102079 0.394042 0.840756
O O7 0.789922 0.835831 0.805822
O O8 0.905678 0.866976 0.794183
O O9 0.731837 0.956832 0.646412
O O10 0.354260 0.621355 0.753750
O O11 0.260119 0.571760 0.553872
O O12 0.166672 0.668757 0.579447
O O13 0.484243 0.528590 0.650550
O O14 0.458225 0.661961 0.525272
O O15 0.000000 0.863004 0.750000
O O16 0.218043 0.853235 0.560836
#
# Coordination Sequence:
#
# PCOD9301661 Si02
#       8
#     8   4   8   8   8   8   8   8
#     4  12  23  44  70  92 133 176 222 275 325 393
#     4  12  22  38  68 104 132 166 220 284 324 390
#     4  11  28  43  65 101 134 177 219 274 336 395
#     4  11  23  44  71  96 131 173 231 270 321 403
#     4  11  21  37  69  98 128 167 221 278 323 381
#     4  11  21  40  70  96 123 172 232 275 315 391
#     4  12  24  42  68 102 127 177 220 272 330 395
#     4  12  25  41  66 100 137 167 216 279 345 383
#
# _framework density 19.896694
#
# number of rings (size 3 to 8) (size 9 to 14) (size 15 to 20)
#    0.000    0.533    7.333    2.000    1.867    4.267 
#    0.000    0.000    0.000    3.200    0.000    0.000 
#    0.000    0.000    0.000    0.000    0.000    0.000 
#
# Total GULP energy -167734.241580 kJ/mol
# GULP energy per Si atom -5591.141386 kJ/mol
# Density = 1.985141 g / cm^3
# Si number density = 19.896694 Si / 1000 Ang^3
#
#
#
# Elastic Constant Matrix: (Units=GPa)
#
#
# Indices 1 2 3 4 5 6 
#
# 1 15.1786 7.0653 11.0444 0.0000 -6.0922 0.0000
# 2 7.0653 111.4955 42.0505 0.0000 4.3228 0.0000
# 3 11.0444 42.0505 118.2221 0.0000 -3.9632 0.0000
# 4 0.0000 0.0000 0.0000 25.1570 0.0000 7.9882
# 5 -6.0922 4.3228 -3.9632 0.0000 45.9221 0.0000
# 6 0.0000 0.0000 0.0000 7.9882 0.0000 16.1425
#
#
#
# Elastic Compliance Matrix: (Units=1/GPa)
#
#
# Indices 1 2 3 4 5 6 
#
# 1 0.075319 -0.003029 -0.005631 0.000000 0.009791 0.000000
# 2 -0.003029 0.010558 -0.003529 0.000000 -0.001700 0.000000
# 3 -0.005631 -0.003529 0.010256 0.000000 0.000470 0.000000
# 4 0.000000 0.000000 0.000000 0.047161 0.000000 -0.023338
# 5 0.009791 -0.001700 0.000470 0.000000 0.023276 0.000000
# 6 0.000000 0.000000 0.000000 -0.023338 0.000000 0.073497
#
#
# Mechanical properties :
#
#
# Convention : Reuss Voigt Hill
#
# Bulk Modulus (GPa) = 13.93637 40.57963 27.25800
# Shear Modulus (GPa) = 17.33926 29.76006 23.54966
#
# Velocity S-wave (km/s) = 2.95526 3.87166 3.44408
# Velocity P-wave (km/s) = 4.32022 6.35813 5.43554
#
# Compressibility (1/GPa) = 0.07175471
#
# Stress axis : x y z
#
# Youngs Moduli (GPa) = 13.27687 94.71549 97.50555
#
# Poissons Ratio (x) = 0.28688 0.54903
# Poissons Ratio (y) = 0.04021 0.34414
# Poissons Ratio (z) = 0.07476 0.33429
#
# Static dielectric constant tensor:
#      x y z
#    x 1.696760 0.000000 0.001090 
#    y 0.000000 1.695640 0.000000 
#    z 0.001090 0.000000 1.716740 
# 
# From -- ./inp_files/215217.got.cif
#   From: 2010.05.17/outbox.cif.g08.bks.cpg/sg15_108_cif.got.tgz:215217.got - 2010.06.03 18:47:42.
