data_PCOD9301592
_publ_section_title
;
Structure prediction by ZEFSAII (Michael W. Deem and Ramdas Pophale) SiO2 
 PCOD9301592
Probable space group: C 2/C
;
_chemical_formula_sum "Si O2"
_cell_formula_units_Z 48
_cell_length_a 18.731877
_cell_length_b 7.064100
_cell_length_c 16.274565
_cell_angle_alpha 90.000000
_cell_angle_beta 113.416361
_cell_angle_gamma 90.000000
_cell_volume 1976.152338
_symmetry_space_group_name_H-M "C 2/C"
_symmetry_group_IT_number 15
_symmetry_cell_setting 'monoclinic'
loop_
_space_group_symop_operation_xyz
x,y,z
-x,y,1/2-z
-x,-y,-z
x,-y,1/2+z
1/2+x,1/2+y,z
1/2-x,1/2+y,1/2-z
1/2-x,1/2-y,-z
1/2+x,1/2-y,1/2+z
loop_
_atom_site_type_symbol
_atom_site_label
_atom_site_fract_x
_atom_site_fract_y
_atom_site_fract_z
Si Si1 0.734455 0.431633 0.161584
Si Si2 0.754688 0.005589 0.644042
Si Si3 0.623228 0.073493 0.862418
Si Si4 0.402156 0.465171 0.613208
Si Si5 0.028690 0.667986 0.655481
Si Si6 0.123339 0.230874 0.047344
O O1 0.731771 0.214390 0.134325
O O2 0.756230 0.430085 0.267023
O O3 0.798341 0.525854 0.129128
O O4 0.658437 0.556484 0.116454
O O5 0.844762 0.035033 0.659122
O O6 0.692629 0.121221 0.561961
O O7 0.641779 0.262986 0.924002
O O8 0.591053 0.134975 0.756011
O O9 0.541600 0.014600 0.866171
O O10 0.487775 0.371499 0.656348
O O11 0.403857 0.625837 0.546368
O O12 0.062327 0.671063 0.580110
#
# Coordination Sequence:
#
# PCOD9301592 Si02
#       6
#     8   8   8   8   8   8
#     4  11  21  37  59  87 113 152 195 235 282 339
#     4  11  21  37  56  87 117 146 196 238 277 340
#     4   8  17  33  55  79 111 149 190 228 271 342
#     4   9  20  34  57  89 116 150 188 235 289 342
#     4   9  17  36  59  82 112 160 188 225 287 350
#     4  12  21  35  65  86 114 152 189 238 292 331
#
# _framework density 24.289625000000001
#
# number of rings (size 3 to 8) (size 9 to 14) (size 15 to 20)
#    1.000    1.000    3.333    2.000    0.000    2.667 
#    0.000    0.000    3.667    4.000    0.000    0.000 
#    0.000    0.000    0.000    0.000    0.000    0.000 
#
# Total GULP energy -133620.415240 kJ/mol
# GULP energy per Si atom -5567.517302 kJ/mol
# Density = 2.423434 g / cm^3
# Si number density = 24.289625 Si / 1000 Ang^3
#
#
#
# Elastic Constant Matrix: (Units=GPa)
#
#
# Indices 1 2 3 4 5 6 
#
# 1 118.0491 -7.5183 25.0098 0.0000 -34.8627 0.0000
# 2 -7.5183 42.4036 12.2010 0.0000 10.7660 0.0000
# 3 25.0098 12.2010 53.5453 0.0000 -23.1646 0.0000
# 4 0.0000 0.0000 0.0000 4.4297 0.0000 -8.2253
# 5 -34.8627 10.7660 -23.1646 0.0000 34.3229 0.0000
# 6 0.0000 0.0000 0.0000 -8.2253 0.0000 26.9785
#
#
#
# Elastic Compliance Matrix: (Units=1/GPa)
#
#
# Indices 1 2 3 4 5 6 
#
# 1 0.012145 -0.001111 0.000096 0.000000 0.012750 0.000000
# 2 -0.001111 0.034548 -0.017696 0.000000 -0.023909 0.000000
# 3 0.000096 -0.017696 0.035460 0.000000 0.029581 0.000000
# 4 0.000000 0.000000 0.000000 0.520294 0.000000 0.158629
# 5 0.012750 -0.023909 0.029581 0.000000 0.069549 0.000000
# 6 0.000000 0.000000 0.000000 0.158629 0.000000 0.085430
#
#
# Mechanical properties :
#
#
# Convention : Reuss Voigt Hill
#
# Bulk Modulus (GPa) = 22.35614 30.37587 26.36600
# Shear Modulus (GPa) = 6.17467 25.43328 15.80397
#
# Velocity S-wave (km/s) = 1.59613 3.23938 2.55355
# Velocity P-wave (km/s) = 3.55258 5.15017 4.42409
#
# Compressibility (1/GPa) = 0.04473044
#
# Stress axis : x y z
#
# Youngs Moduli (GPa) = 82.33709 28.94520 28.20048
#
# Poissons Ratio (x) = 0.03217 -0.00272
# Poissons Ratio (y) = 0.09151 0.49905
# Poissons Ratio (z) = -0.00793 0.51223
#
# Static dielectric constant tensor:
#      x y z
#    x 2.003170 0.000000 0.012800 
#    y 0.000000 1.953420 0.000000 
#    z 0.012800 0.000000 1.968250 
# 
# From -- ./inp_files/213118.got.cif
#   From: 2010.05.17/outbox.cif.g08.bks.cpg/sg15_107_cif.got.tgz:213118.got - 2010.06.03 18:47:42.
