data_PCOD9301059
_publ_section_title
;
Structure prediction by ZEFSAII (Michael W. Deem and Ramdas Pophale) SiO2 
 PCOD9301059
Probable space group: C 2/C
;
_chemical_formula_sum "Si O2"
_cell_formula_units_Z 36
_cell_length_a 29.723222
_cell_length_b 7.210774
_cell_length_c 7.933366
_cell_angle_alpha 90.000000
_cell_angle_beta 91.275720
_cell_angle_gamma 90.000000
_cell_volume 1699.916540
_symmetry_space_group_name_H-M "C 2/C"
_symmetry_group_IT_number 15
_symmetry_cell_setting 'monoclinic'
loop_
_space_group_symop_operation_xyz
x,y,z
-x,y,1/2-z
-x,-y,-z
x,-y,1/2+z
1/2+x,1/2+y,z
1/2-x,1/2+y,1/2-z
1/2-x,1/2-y,-z
1/2+x,1/2-y,1/2+z
loop_
_atom_site_type_symbol
_atom_site_label
_atom_site_fract_x
_atom_site_fract_y
_atom_site_fract_z
Si Si1 0.695077 0.225596 0.301986
Si Si2 0.433777 0.100871 0.984653
Si Si3 0.702800 0.373561 0.686206
Si Si4 0.868311 0.620365 0.706741
Si Si5 0.000000 0.374692 0.750000
O O1 0.695743 0.282457 0.500842
O O2 0.689345 0.413166 0.197419
O O3 0.744285 0.141429 0.267860
O O4 0.656999 0.074885 0.260375
O O5 0.397381 0.200146 0.865113
O O6 0.469215 0.004000 0.864330
O O7 0.462965 0.216188 0.123021
O O8 0.404925 0.937183 0.071319
O O9 0.672616 0.261043 0.817734
#
# Coordination Sequence:
#
# PCOD9301059 Si02
#       5
#     8   8   8   8   4
#     4  11  24  38  56  83 120 167 205 240 286 333
#     4   9  18  32  60  86 122 140 196 248 294 359
#     4  11  24  38  56  83 120 167 205 240 286 333
#     4  11  20  37  56  92 118 158 202 243 280 349
#     4   8  16  34  56  94 110 146 188 244 312 360
#
# _framework density 21.177510000000002
#
# number of rings (size 3 to 8) (size 9 to 14) (size 15 to 20)
#    0.000    1.778    4.444    0.000    3.111    0.889 
#    0.000    0.000    0.000    0.000    0.000  108.889 
#    0.000    0.000    0.000    0.000    0.000    0.000 
#
# Total GULP energy -100301.360507 kJ/mol
# GULP energy per Si atom -5572.297806 kJ/mol
# Density = 2.112931 g / cm^3
# Si number density = 21.177510 Si / 1000 Ang^3
#
#
#
# Elastic Constant Matrix: (Units=GPa)
#
#
# Indices 1 2 3 4 5 6 
#
# 1 141.8045 26.4016 44.6081 0.0000 -20.9916 0.0000
# 2 26.4016 80.1313 7.8280 0.0000 -6.5087 0.0000
# 3 44.6081 7.8280 49.4341 0.0000 -9.8059 0.0000
# 4 0.0000 0.0000 0.0000 23.8934 0.0000 -1.0017
# 5 -20.9916 -6.5087 -9.8059 0.0000 34.1812 0.0000
# 6 0.0000 0.0000 0.0000 -1.0017 0.0000 4.2083
#
#
#
# Elastic Compliance Matrix: (Units=1/GPa)
#
#
# Indices 1 2 3 4 5 6 
#
# 1 0.010745 -0.002403 -0.008586 0.000000 0.003678 0.000000
# 2 -0.002403 0.013336 0.000283 0.000000 0.001145 0.000000
# 3 -0.008586 0.000283 0.028519 0.000000 0.002963 0.000000
# 4 0.000000 0.000000 0.000000 0.042274 0.000000 0.010063
# 5 0.003678 0.001145 0.002963 0.000000 0.032583 0.000000
# 6 0.000000 0.000000 0.000000 0.010063 0.000000 0.240022
#
#
# Mechanical properties :
#
#
# Convention : Reuss Voigt Hill
#
# Bulk Modulus (GPa) = 32.06093 47.67169 39.86631
# Shear Modulus (GPa) = 12.52236 25.29205 18.90721
#
# Velocity S-wave (km/s) = 2.43431 3.45960 2.99121
# Velocity P-wave (km/s) = 4.80346 6.20627 5.54937
#
# Compressibility (1/GPa) = 0.03119061
#
# Stress axis : x y z
#
# Youngs Moduli (GPa) = 93.07032 74.98227 35.06409
#
# Poissons Ratio (x) = 0.18016 0.30105
# Poissons Ratio (y) = 0.22361 -0.00994
# Poissons Ratio (z) = 0.79906 -0.02125
#
# Static dielectric constant tensor:
#      x y z
#    x 1.770140 0.000000 0.032040 
#    y 0.000000 1.708450 0.000000 
#    z 0.032040 0.000000 1.885450 
# 
# From -- ./inp_files/64388.got.cif
#   From: 2010.05.17/outbox.cif.g08.bks.cpg/sg15_33_cif.got.tgz:64388.got - 2010.06.03 18:47:42.
