data_PCOD9301975
_publ_section_title
;
Structure prediction by ZEFSAII (Michael W. Deem and Ramdas Pophale) SiO2 
 PCOD9301975
Probable space group: C 2/C
;
_chemical_formula_sum "Si O2"
_cell_formula_units_Z 40
_cell_length_a 18.627808
_cell_length_b 13.585373
_cell_length_c 7.594730
_cell_angle_alpha 90.000000
_cell_angle_beta 128.285545
_cell_angle_gamma 90.000000
_cell_volume 1508.613831
_symmetry_space_group_name_H-M "C 2/C"
_symmetry_group_IT_number 15
_symmetry_cell_setting 'monoclinic'
loop_
_space_group_symop_operation_xyz
x,y,z
-x,y,1/2-z
-x,-y,-z
x,-y,1/2+z
1/2+x,1/2+y,z
1/2-x,1/2+y,1/2-z
1/2-x,1/2-y,-z
1/2+x,1/2-y,1/2+z
loop_
_atom_site_type_symbol
_atom_site_label
_atom_site_fract_x
_atom_site_fract_y
_atom_site_fract_z
Si Si1 0.417865 0.396503 0.492053
Si Si2 0.319532 0.064432 0.692947
Si Si3 0.904377 0.386278 0.685833
Si Si4 0.650788 0.588721 0.979823
Si Si5 0.198208 0.715837 0.148277
O O1 0.402071 0.514071 0.475412
O O2 0.334342 0.327138 0.431760
O O3 0.500000 0.373059 0.750000
O O4 0.413763 0.379716 0.277459
O O5 0.316521 0.151380 0.547701
O O6 0.405357 0.996366 0.767117
O O7 0.234835 0.985916 0.551560
O O8 0.337572 0.101186 0.916712
O O9 0.865663 0.321983 0.787932
O O10 0.000000 0.353029 0.750000
O O11 0.700398 0.683151 0.136659
#
# Coordination Sequence:
#
# PCOD9301975 Si02
#       5
#     8   8   8   8   8
#     4  12  27  46  76 109 146 192 247 313 366 430
#     4  11  21  40  71 101 142 200 243 290 363 444
#     4  11  22  36  66 106 152 193 236 300 378 427
#     4  11  22  51  70 102 147 196 243 297 369 443
#     4  11  25  45  74 106 146 191 256 299 358 445
#
# _framework density 26.514406000000001
#
# number of rings (size 3 to 8) (size 9 to 14) (size 15 to 20)
#    0.000    0.800    6.000    3.000    2.800    0.800 
#    3.600    1.000    0.000    0.000    0.000    0.000 
#    0.000    0.000    0.000    0.000    0.000    0.000 
#
# Total GULP energy -111934.463564 kJ/mol
# GULP energy per Si atom -5596.723178 kJ/mol
# Density = 2.645406 g / cm^3
# Si number density = 26.514406 Si / 1000 Ang^3
#
#
#
# Elastic Constant Matrix: (Units=GPa)
#
#
# Indices 1 2 3 4 5 6 
#
# 1 93.6911 11.7374 40.3889 0.0000 -13.7061 0.0000
# 2 11.7374 146.3594 34.3052 0.0000 2.5320 0.0000
# 3 40.3889 34.3052 189.4638 0.0000 10.0473 0.0000
# 4 0.0000 0.0000 0.0000 22.2579 0.0000 -4.3181
# 5 -13.7061 2.5320 10.0473 0.0000 46.9385 0.0000
# 6 0.0000 0.0000 0.0000 -4.3181 0.0000 36.7389
#
#
#
# Elastic Compliance Matrix: (Units=1/GPa)
#
#
# Indices 1 2 3 4 5 6 
#
# 1 0.012576 -0.000419 -0.002833 0.000000 0.004301 0.000000
# 2 -0.000419 0.007150 -0.001192 0.000000 -0.000253 0.000000
# 3 -0.002833 -0.001192 0.006209 0.000000 -0.002092 0.000000
# 4 0.000000 0.000000 0.000000 0.045976 0.000000 0.005404
# 5 0.004301 -0.000253 -0.002092 0.000000 0.023022 0.000000
# 6 0.000000 0.000000 0.000000 0.005404 0.000000 0.027854
#
#
# Mechanical properties :
#
#
# Convention : Reuss Voigt Hill
#
# Bulk Modulus (GPa) = 58.66121 66.93081 62.79601
# Shear Modulus (GPa) = 36.40126 44.05926 40.23026
#
# Velocity S-wave (km/s) = 3.70927 4.08083 3.89948
# Velocity P-wave (km/s) = 6.36531 6.89219 6.63398
#
# Compressibility (1/GPa) = 0.01704704
#
# Stress axis : x y z
#
# Youngs Moduli (GPa) = 79.51355 139.86347 161.06244
#
# Poissons Ratio (x) = 0.05859 0.45633
# Poissons Ratio (y) = 0.03331 0.19197
# Poissons Ratio (z) = 0.22528 0.16670
#
# Static dielectric constant tensor:
#      x y z
#    x 2.141500 0.000000 0.065870 
#    y 0.000000 2.097730 0.000000 
#    z 0.065870 0.000000 2.027860 
# 
# From -- ./inp_files/61758.got.cif
#   From: 2010.05.17/outbox.cif.g08.bks.cpg/sg15_31_cif.got.tgz:61758.got - 2010.06.03 18:47:42.
