data_PCOD9301163
_publ_section_title
;
Structure prediction by ZEFSAII (Michael W. Deem and Ramdas Pophale) SiO2 
 PCOD9301163
Probable space group: C 2/C
;
_chemical_formula_sum "Si O2"
_cell_formula_units_Z 32
_cell_length_a 20.492592
_cell_length_b 9.462372
_cell_length_c 9.672843
_cell_angle_alpha 90.000000
_cell_angle_beta 36.819660
_cell_angle_gamma 90.000000
_cell_volume 1124.071948
_symmetry_space_group_name_H-M "C 2/C"
_symmetry_group_IT_number 15
_symmetry_cell_setting 'monoclinic'
loop_
_space_group_symop_operation_xyz
x,y,z
-x,y,1/2-z
-x,-y,-z
x,-y,1/2+z
1/2+x,1/2+y,z
1/2-x,1/2+y,1/2-z
1/2-x,1/2-y,-z
1/2+x,1/2-y,1/2+z
loop_
_atom_site_type_symbol
_atom_site_label
_atom_site_fract_x
_atom_site_fract_y
_atom_site_fract_z
Si Si1 0.155330 0.729034 0.955116
Si Si2 0.396461 0.764653 0.659989
Si Si3 0.118880 0.646063 0.716922
Si Si4 0.153210 0.055916 0.248725
O O1 0.277448 0.770030 0.795963
O O2 0.147619 0.631023 0.832743
O O3 0.115284 0.876116 0.957015
O O4 0.096054 0.684177 0.194418
O O5 0.488383 0.853790 0.425341
O O6 0.402002 0.594478 0.669026
O O7 0.134022 0.817652 0.670469
O O8 0.213500 0.558984 0.480339
#
# Coordination Sequence:
#
# PCOD9301163 Si02
#       4
#     8   8   8   8
#     4   9  22  36  55  92 124 156 224 262 293 407
#     4  11  20  38  65  83 124 177 198 259 337 350
#     4   9  20  39  57  93 125 155 210 266 302 383
#     4   9  21  37  60  92 127 158 214 265 306 381
#
# _framework density 28.467929000000002
#
# number of rings (size 3 to 8) (size 9 to 14) (size 15 to 20)
#    1.500    1.000    0.000    1.500    3.500    1.000 
#    0.000    5.000   11.000    0.000    0.000    0.000 
#    0.000    0.000    0.000    0.000    0.000    0.000 
#
# Total GULP energy -89224.856844 kJ/mol
# GULP energy per Si atom -5576.553553 kJ/mol
# Density = 2.840313 g / cm^3
# Si number density = 28.467929 Si / 1000 Ang^3
#
#
#
# Elastic Constant Matrix: (Units=GPa)
#
#
# Indices 1 2 3 4 5 6 
#
# 1 80.0635 -7.5278 49.9255 0.0000 -10.8928 0.0000
# 2 -7.5278 109.9360 0.8504 0.0000 -15.9353 0.0000
# 3 49.9255 0.8504 170.2768 0.0000 -14.1619 0.0000
# 4 0.0000 0.0000 0.0000 26.1633 0.0000 -19.6035
# 5 -10.8928 -15.9353 -14.1619 0.0000 63.5752 0.0000
# 6 0.0000 0.0000 0.0000 -19.6035 0.0000 29.9307
#
#
#
# Elastic Compliance Matrix: (Units=1/GPa)
#
#
# Indices 1 2 3 4 5 6 
#
# 1 0.015663 0.001404 -0.004429 0.000000 0.002049 0.000000
# 2 0.001404 0.009569 -0.000244 0.000000 0.002585 0.000000
# 3 -0.004429 -0.000244 0.007238 0.000000 0.000792 0.000000
# 4 0.000000 0.000000 0.000000 0.075054 0.000000 0.049158
# 5 0.002049 0.002585 0.000792 0.000000 0.016905 0.000000
# 6 0.000000 0.000000 0.000000 0.049158 0.000000 0.065607
#
#
# Mechanical properties :
#
#
# Convention : Reuss Voigt Hill
#
# Bulk Modulus (GPa) = 38.56432 49.64139 44.10285
# Shear Modulus (GPa) = 24.36426 45.06906 34.71666
#
# Velocity S-wave (km/s) = 2.92866 3.98320 3.49592
# Velocity P-wave (km/s) = 5.00121 6.21531 5.64102
#
# Compressibility (1/GPa) = 0.02593071
#
# Stress axis : x y z
#
# Youngs Moduli (GPa) = 63.84648 104.50591 138.15074
#
# Poissons Ratio (x) = -0.14670 0.61186
# Poissons Ratio (y) = -0.08962 0.03377
# Poissons Ratio (z) = 0.28277 0.02554
#
# Static dielectric constant tensor:
#      x y z
#    x 2.273290 0.000000 -0.087210 
#    y 0.000000 2.324200 0.000000 
#    z -0.087210 0.000000 2.354310 
# 
# From -- ./inp_files/84778.got.cif
#   From: 2010.05.17/outbox.cif.g08.bks.cpg/sg15_43_cif.got.tgz:84778.got - 2010.06.03 18:47:42.
