data_PCOD9301418
_publ_section_title
;
Structure prediction by ZEFSAII (Michael W. Deem and Ramdas Pophale) SiO2 
 PCOD9301418
Probable space group: C 2/C
;
_chemical_formula_sum "Si O2"
_cell_formula_units_Z 44
_cell_length_a 11.195917
_cell_length_b 14.669655
_cell_length_c 14.496087
_cell_angle_alpha 90.000000
_cell_angle_beta 62.733068
_cell_angle_gamma 90.000000
_cell_volume 2116.286042
_symmetry_space_group_name_H-M "C 2/C"
_symmetry_group_IT_number 15
_symmetry_cell_setting 'monoclinic'
loop_
_space_group_symop_operation_xyz
x,y,z
-x,y,1/2-z
-x,-y,-z
x,-y,1/2+z
1/2+x,1/2+y,z
1/2-x,1/2+y,1/2-z
1/2-x,1/2-y,-z
1/2+x,1/2-y,1/2+z
loop_
_atom_site_type_symbol
_atom_site_label
_atom_site_fract_x
_atom_site_fract_y
_atom_site_fract_z
Si Si1 0.825596 0.704710 0.689241
Si Si2 0.006280 0.393330 0.519329
Si Si3 0.240595 0.853110 0.542993
Si Si4 0.000000 0.162365 0.250000
Si Si5 0.664612 0.947175 0.178388
Si Si6 0.354044 0.149621 0.342758
O O1 0.769805 0.620765 0.769904
O O2 0.733051 0.764078 0.654876
O O3 0.940916 0.660416 0.587078
O O4 0.894780 0.773107 0.735429
O O5 0.852290 0.362602 0.584303
O O6 0.000000 0.500000 0.500000
O O7 0.109755 0.370427 0.563771
O O8 0.250000 0.750000 0.500000
O O9 0.096037 0.881133 0.637128
O O10 0.287456 0.914968 0.439713
O O11 0.500000 0.941576 0.250000
O O12 0.700125 0.053392 0.177696
O O13 0.500000 0.166002 0.250000
#
# Coordination Sequence:
#
# PCOD9301418 Si02
#       6
#     8   8   8   4   8   8
#     4  12  22  42  67 100 140 172 233 281 347 399
#     4  12  22  42  72  97 130 183 231 280 327 406
#     4  12  21  40  72  96 133 175 237 277 336 404
#     4  12  24  38  68 102 124 186 224 284 340 396
#     4  11  20  44  69 101 128 181 237 276 323 415
#     4  11  25  40  67 104 139 177 228 282 342 404
#
# _framework density 20.791139999999999
#
# number of rings (size 3 to 8) (size 9 to 14) (size 15 to 20)
#    0.000    0.364    8.182    2.727    0.000    0.000 
#    0.000    0.909    8.000    0.000    0.000    0.000 
#    0.000    0.000    0.000    0.000    0.000    0.000 
#
# Total GULP energy -122771.324182 kJ/mol
# GULP energy per Si atom -5580.514736 kJ/mol
# Density = 2.074382 g / cm^3
# Si number density = 20.791140 Si / 1000 Ang^3
#
#
#
# Elastic Constant Matrix: (Units=GPa)
#
#
# Indices 1 2 3 4 5 6 
#
# 1 69.3193 45.4016 12.9875 0.0000 6.3372 0.0000
# 2 45.4016 99.9256 21.9807 0.0000 -11.1611 0.0000
# 3 12.9875 21.9807 111.5183 0.0000 -21.2509 0.0000
# 4 0.0000 0.0000 0.0000 10.3743 0.0000 -1.1832
# 5 6.3372 -11.1611 -21.2509 0.0000 35.0646 0.0000
# 6 0.0000 0.0000 0.0000 -1.1832 0.0000 37.2375
#
#
#
# Elastic Compliance Matrix: (Units=1/GPa)
#
#
# Indices 1 2 3 4 5 6 
#
# 1 0.022761 -0.010850 -0.002209 0.000000 -0.008906 0.000000
# 2 -0.010850 0.015808 -0.000588 0.000000 0.006636 0.000000
# 3 -0.002209 -0.000588 0.010605 0.000000 0.006640 0.000000
# 4 0.000000 0.000000 0.000000 0.096742 0.000000 0.003074
# 5 -0.008906 0.006636 0.006640 0.000000 0.036265 0.000000
# 6 0.000000 0.000000 0.000000 0.003074 0.000000 0.026952
#
#
# Mechanical properties :
#
#
# Convention : Reuss Voigt Hill
#
# Bulk Modulus (GPa) = 45.70377 49.05589 47.37983
# Shear Modulus (GPa) = 20.51533 29.89486 25.20509
#
# Velocity S-wave (km/s) = 3.14464 3.79603 3.48559
# Velocity P-wave (km/s) = 5.93423 6.54668 6.24796
#
# Compressibility (1/GPa) = 0.02188003
#
# Stress axis : x y z
#
# Youngs Moduli (GPa) = 43.93573 63.26022 94.29076
#
# Poissons Ratio (x) = 0.68638 0.20831
# Poissons Ratio (y) = 0.47671 0.05540
# Poissons Ratio (z) = 0.09706 0.03717
#
# Static dielectric constant tensor:
#      x y z
#    x 1.802870 0.000000 0.061710 
#    y 0.000000 1.747010 0.000000 
#    z 0.061710 0.000000 1.802680 
# 
# From -- ./inp_files/143376.got.cif
#   From: 2010.05.17/outbox.cif.g08.bks.cpg/sg15_72_cif.got.tgz:143376.got - 2010.06.03 18:47:42.
