data_PCOD9301305
_publ_section_title
;
Structure prediction by ZEFSAII (Michael W. Deem and Ramdas Pophale) SiO2 
 PCOD9301305
Probable space group: C 2/C
;
_chemical_formula_sum "Si O2"
_cell_formula_units_Z 52
_cell_length_a 9.614461
_cell_length_b 14.148666
_cell_length_c 15.959780
_cell_angle_alpha 90.000000
_cell_angle_beta 111.197573
_cell_angle_gamma 90.000000
_cell_volume 2024.143245
_symmetry_space_group_name_H-M "C 2/C"
_symmetry_group_IT_number 15
_symmetry_cell_setting 'monoclinic'
loop_
_space_group_symop_operation_xyz
x,y,z
-x,y,1/2-z
-x,-y,-z
x,-y,1/2+z
1/2+x,1/2+y,z
1/2-x,1/2+y,1/2-z
1/2-x,1/2-y,-z
1/2+x,1/2-y,1/2+z
loop_
_atom_site_type_symbol
_atom_site_label
_atom_site_fract_x
_atom_site_fract_y
_atom_site_fract_z
Si Si1 0.632723 0.476765 0.420127
Si Si2 0.280272 0.734921 0.259002
Si Si3 0.375619 0.918562 0.333062
Si Si4 0.500000 0.413756 0.750000
Si Si5 0.968443 0.624140 0.355679
Si Si6 0.665973 0.850492 0.489716
Si Si7 0.798680 0.830121 0.945315
O O1 0.756024 0.428564 0.383933
O O2 0.506351 0.519343 0.332278
O O3 0.714553 0.565276 0.480398
O O4 0.592673 0.400101 0.481517
O O5 0.311247 0.844407 0.252711
O O6 0.108542 0.709322 0.210698
O O7 0.362922 0.659153 0.218542
O O8 0.343193 0.712754 0.365987
O O9 0.535944 0.878215 0.396464
O O10 0.398500 0.025788 0.310138
O O11 0.077537 0.356899 0.558558
O O12 0.144910 0.616267 0.391426
O O13 0.750000 0.750000 0.500000
O O14 0.750000 0.750000 0.000000
#
# Coordination Sequence:
#
# PCOD9301305 Si02
#       7
#     8   8   8   4   8   8   8
#     4  11  22  44  70  96 143 185 223 290 360 410
#     4  12  26  44  69 106 140 180 238 293 351 415
#     4  11  21  44  72  94 140 189 226 286 357 415
#     4  12  26  46  68 106 148 172 238 308 350 410
#     4  11  23  47  69 102 144 183 234 291 354 422
#     4  11  20  40  73 102 132 183 232 283 357 421
#     4  12  24  46  73 100 136 190 236 281 350 443
#
# _framework density 25.689881
#
# number of rings (size 3 to 8) (size 9 to 14) (size 15 to 20)
#    0.000    0.615    7.692    2.308    0.000    1.846 
#    5.538    0.000    0.000    0.000    0.000    0.000 
#    0.000    0.000    0.000    0.000    0.000    0.000 
#
# Total GULP energy -145630.294346 kJ/mol
# GULP energy per Si atom -5601.165167 kJ/mol
# Density = 2.563141 g / cm^3
# Si number density = 25.689881 Si / 1000 Ang^3
#
#
#
# Elastic Constant Matrix: (Units=GPa)
#
#
# Indices 1 2 3 4 5 6 
#
# 1 66.7134 0.8971 -6.1290 0.0000 -5.0998 0.0000
# 2 0.8971 150.5666 37.5982 0.0000 5.0945 0.0000
# 3 -6.1290 37.5982 68.0928 0.0000 5.3837 0.0000
# 4 0.0000 0.0000 0.0000 44.7485 0.0000 -1.6003
# 5 -5.0998 5.0945 5.3837 0.0000 40.3292 0.0000
# 6 0.0000 0.0000 0.0000 -1.6003 0.0000 25.9020
#
#
#
# Elastic Compliance Matrix: (Units=1/GPa)
#
#
# Indices 1 2 3 4 5 6 
#
# 1 0.015274 -0.000533 0.001527 0.000000 0.001795 0.000000
# 2 -0.000533 0.007729 -0.004278 0.000000 -0.000473 0.000000
# 3 0.001527 -0.004278 0.017310 0.000000 -0.001577 0.000000
# 4 0.000000 0.000000 0.000000 0.022397 0.000000 0.001384
# 5 0.001795 -0.000473 -0.001577 0.000000 0.025293 0.000000
# 6 0.000000 0.000000 0.000000 0.001384 0.000000 0.038693
#
#
# Mechanical properties :
#
#
# Convention : Reuss Voigt Hill
#
# Bulk Modulus (GPa) = 29.63378 38.90061 34.26720
# Shear Modulus (GPa) = 34.59902 39.06303 36.83102
#
# Velocity S-wave (km/s) = 3.67385 3.90367 3.79050
# Velocity P-wave (km/s) = 5.43659 5.95764 5.70307
#
# Compressibility (1/GPa) = 0.03374528
#
# Stress axis : x y z
#
# Youngs Moduli (GPa) = 65.46991 129.38122 57.76897
#
# Poissons Ratio (x) = 0.06898 -0.08823
# Poissons Ratio (y) = 0.03490 0.24715
# Poissons Ratio (z) = -0.09999 0.55354
#
# Static dielectric constant tensor:
#      x y z
#    x 2.077360 0.000000 -0.029140 
#    y 0.000000 1.988380 0.000000 
#    z -0.029140 0.000000 2.027770 
# 
# From -- ./inp_files/269990.got.cif
#   From: 2010.05.17/outbox.cif.g08.bks.cpg/sg15_135_cif.got.tgz:269990.got - 2010.06.03 18:47:42.
