data_PCOD9301288
_publ_section_title
;
Structure prediction by ZEFSAII (Michael W. Deem and Ramdas Pophale) SiO2 
 PCOD9301288
Probable space group: C 2/C
;
_chemical_formula_sum "Si O2"
_cell_formula_units_Z 40
_cell_length_a 28.050813
_cell_length_b 8.041614
_cell_length_c 13.435913
_cell_angle_alpha 90.000000
_cell_angle_beta 35.590981
_cell_angle_gamma 90.000000
_cell_volume 1763.904595
_symmetry_space_group_name_H-M "C 2/C"
_symmetry_group_IT_number 15
_symmetry_cell_setting 'monoclinic'
loop_
_space_group_symop_operation_xyz
x,y,z
-x,y,1/2-z
-x,-y,-z
x,-y,1/2+z
1/2+x,1/2+y,z
1/2-x,1/2+y,1/2-z
1/2-x,1/2-y,-z
1/2+x,1/2-y,1/2+z
loop_
_atom_site_type_symbol
_atom_site_label
_atom_site_fract_x
_atom_site_fract_y
_atom_site_fract_z
Si Si1 0.310810 0.087971 0.260687
Si Si2 0.601190 0.890303 0.702389
Si Si3 0.833771 0.733476 0.611100
Si Si4 0.010999 0.923623 0.111713
Si Si5 0.490192 0.204631 0.885924
O O1 0.303199 0.895440 0.244360
O O2 0.318159 0.108374 0.366668
O O3 0.238310 0.180199 0.327394
O O4 0.397998 0.155525 0.071950
O O5 0.618387 0.872476 0.555714
O O6 0.547532 0.727853 0.819454
O O7 0.551103 0.056768 0.813956
O O8 0.895112 0.865161 0.556791
O O9 0.000000 0.934559 0.250000
O O10 0.991345 0.108359 0.106983
O O11 0.500000 0.209813 0.750000
#
# Coordination Sequence:
#
# PCOD9301288 Si02
#       5
#     8   8   8   8   8
#     4  12  24  40  67  93 133 174 218 265 335 381
#     4  11  22  44  66  95 127 175 219 270 317 390
#     4  11  23  44  62  97 141 170 211 277 328 383
#     4   9  20  38  67  91 127 169 215 260 323 381
#     4  11  20  40  68  95 126 171 217 270 316 387
#
# _framework density 22.676963000000001
#
# number of rings (size 3 to 8) (size 9 to 14) (size 15 to 20)
#    0.000    1.200    4.000    3.000    0.000    0.800 
#    3.600    1.000    0.000    0.000    0.000    0.000 
#    0.000    0.000    0.000    0.000    0.000    0.000 
#
# Total GULP energy -111853.029814 kJ/mol
# GULP energy per Si atom -5592.651491 kJ/mol
# Density = 2.262535 g / cm^3
# Si number density = 22.676963 Si / 1000 Ang^3
#
#
#
# Elastic Constant Matrix: (Units=GPa)
#
#
# Indices 1 2 3 4 5 6 
#
# 1 88.6324 36.0543 -3.4815 0.0000 -5.9506 0.0000
# 2 36.0543 172.5191 10.9539 -0.0001 -15.3151 0.0000
# 3 -3.4815 10.9539 21.6079 0.0000 -6.2584 0.0000
# 4 0.0000 -0.0001 0.0000 22.1493 0.0000 5.0739
# 5 -5.9506 -15.3151 -6.2584 0.0000 36.4626 0.0000
# 6 0.0000 0.0000 0.0000 5.0739 0.0000 19.8468
#
#
#
# Elastic Compliance Matrix: (Units=1/GPa)
#
#
# Indices 1 2 3 4 5 6 
#
# 1 0.012661 -0.002753 0.003893 0.000000 0.001578 0.000000
# 2 -0.002753 0.006745 -0.003338 0.000000 0.001811 0.000000
# 3 0.003893 -0.003338 0.050908 0.000000 0.007971 0.000000
# 4 0.000000 0.000000 0.000000 0.047957 0.000000 -0.012260
# 5 0.001578 0.001811 0.007971 0.000000 0.029812 0.000000
# 6 0.000000 0.000000 0.000000 -0.012260 0.000000 0.053520
#
#
# Mechanical properties :
#
#
# Convention : Reuss Voigt Hill
#
# Bulk Modulus (GPa) = 15.17079 41.09029 28.13054
# Shear Modulus (GPa) = 21.93258 31.64058 26.78658
#
# Velocity S-wave (km/s) = 3.11332 3.73939 3.44062
# Velocity P-wave (km/s) = 4.43036 6.06657 5.31184
#
# Compressibility (1/GPa) = 0.06591617
#
# Stress axis : x y z
#
# Youngs Moduli (GPa) = 78.98052 148.26857 19.64345
#
# Poissons Ratio (x) = 0.40820 -0.07647
# Poissons Ratio (y) = 0.21744 0.06557
# Poissons Ratio (z) = -0.30745 0.49496
#
# Static dielectric constant tensor:
#      x y z
#    x 1.869450 0.000000 0.034260 
#    y 0.000000 1.850890 0.000000 
#    z 0.034260 0.000000 1.842570 
# 
# From -- ./inp_files/159107.got.cif
#   From: 2010.05.17/outbox.cif.g08.bks.cpg/sg15_80_cif.got.tgz:159107.got - 2010.06.03 18:47:42.
