data_PCOD9301205
_publ_section_title
;
Structure prediction by ZEFSAII (Michael W. Deem and Ramdas Pophale) SiO2 
 PCOD9301205
Probable space group: C 2/C
;
_chemical_formula_sum "Si O2"
_cell_formula_units_Z 64
_cell_length_a 29.153457
_cell_length_b 19.246854
_cell_length_c 12.259253
_cell_angle_alpha 90.000000
_cell_angle_beta 29.892191
_cell_angle_gamma 90.000000
_cell_volume 3428.193671
_symmetry_space_group_name_H-M "C 2/C"
_symmetry_group_IT_number 15
_symmetry_cell_setting 'monoclinic'
loop_
_space_group_symop_operation_xyz
x,y,z
-x,y,1/2-z
-x,-y,-z
x,-y,1/2+z
1/2+x,1/2+y,z
1/2-x,1/2+y,1/2-z
1/2-x,1/2-y,-z
1/2+x,1/2-y,1/2+z
loop_
_atom_site_type_symbol
_atom_site_label
_atom_site_fract_x
_atom_site_fract_y
_atom_site_fract_z
Si Si1 0.358937 0.040801 0.185792
Si Si2 0.252550 0.591341 0.879040
Si Si3 0.013639 0.330076 0.094219
Si Si4 0.112033 0.331688 0.515297
Si Si5 0.399160 0.328113 0.407588
Si Si6 0.856686 0.610101 0.778526
Si Si7 0.151248 0.213190 0.726027
Si Si8 0.238639 0.943821 0.720006
O O1 0.283274 0.070249 0.426766
O O2 0.316179 0.042992 0.152808
O O3 0.390139 0.965737 0.165529
O O4 0.441033 0.094689 0.013696
O O5 0.325533 0.653084 0.736069
O O6 0.292992 0.521832 0.742441
O O7 0.163197 0.621274 0.999757
O O8 0.000000 0.317238 0.250000
O O9 0.922674 0.338858 0.210411
O O10 0.081535 0.271935 0.908471
O O11 0.129189 0.250150 0.499334
O O12 0.157947 0.351536 0.305645
O O13 0.000000 0.342453 0.750000
O O14 0.500000 0.339274 0.250000
O O15 0.390896 0.322805 0.294214
O O16 0.333621 0.389249 0.584083
O O17 0.778615 0.589118 0.026142
O O18 0.250000 0.250000 0.500000
#
# Coordination Sequence:
#
# PCOD9301205 Si02
#       8
#     8   8   8   8   8   8   8   8
#     4  11  20  39  59  91 132 175 205 253 325 398
#     4  11  22  39  67  92 125 175 224 255 317 392
#     4  12  23  37  60  98 135 165 212 266 327 386
#     4  11  22  38  61  96 129 165 217 270 324 389
#     4  11  23  43  70  92 123 171 225 269 319 384
#     4  11  24  37  61  95 135 166 207 271 328 390
#     4  12  22  42  70  92 126 178 221 259 315 397
#     4  11  23  42  63  95 128 172 214 263 328 385
#
# _framework density 18.668724000000001
#
# number of rings (size 3 to 8) (size 9 to 14) (size 15 to 20)
#    0.000    0.750    6.250    2.625    0.000    2.000 
#    0.000    2.500    0.000    0.000    0.000    0.000 
#    0.000    0.000    0.000    0.000    0.000    0.000 
#
# Total GULP energy -178543.737860 kJ/mol
# GULP energy per Si atom -5579.491808 kJ/mol
# Density = 1.862623 g / cm^3
# Si number density = 18.668724 Si / 1000 Ang^3
#
#
#
# Elastic Constant Matrix: (Units=GPa)
#
#
# Indices 1 2 3 4 5 6 
#
# 1 82.3578 21.9337 20.9055 0.0000 8.0352 0.0000
# 2 21.9337 110.9096 37.3789 0.0000 -4.9773 0.0000
# 3 20.9055 37.3789 47.7899 0.0000 7.8678 0.0000
# 4 0.0000 0.0000 0.0000 45.9550 0.0000 8.1641
# 5 8.0352 -4.9773 7.8678 0.0000 26.0558 0.0000
# 6 0.0000 0.0000 0.0000 8.1641 0.0000 30.8311
#
#
#
# Elastic Compliance Matrix: (Units=1/GPa)
#
#
# Indices 1 2 3 4 5 6 
#
# 1 0.013967 -0.001393 -0.004490 0.000000 -0.003217 0.000000
# 2 -0.001393 0.013182 -0.010719 0.000000 0.006184 0.000000
# 3 -0.004490 -0.010719 0.033024 0.000000 -0.010635 0.000000
# 4 0.000000 0.000000 0.000000 0.022835 0.000000 -0.006047
# 5 -0.003217 0.006184 -0.010635 0.000000 0.043764 0.000000
# 6 0.000000 0.000000 0.000000 -0.006047 0.000000 0.034036
#
#
# Mechanical properties :
#
#
# Convention : Reuss Voigt Hill
#
# Bulk Modulus (GPa) = 37.08149 44.61041 40.84595
# Shear Modulus (GPa) = 24.63034 31.29099 27.96067
#
# Velocity S-wave (km/s) = 3.63621 4.09848 3.87425
# Velocity P-wave (km/s) = 6.12661 6.80767 6.47610
#
# Compressibility (1/GPa) = 0.02696763
#
# Stress axis : x y z
#
# Youngs Moduli (GPa) = 71.59784 75.86135 30.28106
#
# Poissons Ratio (x) = 0.10569 0.13598
# Poissons Ratio (y) = 0.09975 0.32458
# Poissons Ratio (z) = 0.32151 0.81316
#
# Static dielectric constant tensor:
#      x y z
#    x 1.680730 0.000000 -0.000310 
#    y 0.000000 1.643400 0.000000 
#    z -0.000310 0.000000 1.640030 
# 
# From -- ./inp_files/98785.got.cif
#   From: 2010.05.17/outbox.cif.g08.bks.cpg/sg15_50_cif.got.tgz:98785.got - 2010.06.03 18:47:42.
