data_PCOD9301834
_publ_section_title
;
Structure prediction by ZEFSAII (Michael W. Deem and Ramdas Pophale) SiO2 
 PCOD9301834
Probable space group: C 2/C
;
_chemical_formula_sum "Si O2"
_cell_formula_units_Z 32
_cell_length_a 18.963153
_cell_length_b 6.536543
_cell_length_c 13.818701
_cell_angle_alpha 90.000000
_cell_angle_beta 110.628550
_cell_angle_gamma 90.000000
_cell_volume 1603.053292
_symmetry_space_group_name_H-M "C 2/C"
_symmetry_group_IT_number 15
_symmetry_cell_setting 'monoclinic'
loop_
_space_group_symop_operation_xyz
x,y,z
-x,y,1/2-z
-x,-y,-z
x,-y,1/2+z
1/2+x,1/2+y,z
1/2-x,1/2+y,1/2-z
1/2-x,1/2-y,-z
1/2+x,1/2-y,1/2+z
loop_
_atom_site_type_symbol
_atom_site_label
_atom_site_fract_x
_atom_site_fract_y
_atom_site_fract_z
Si Si1 0.688519 0.241048 0.297771
Si Si2 0.315348 0.421230 0.548651
Si Si3 0.849905 0.082148 0.354698
Si Si4 0.585671 0.147120 0.768018
O O1 0.710941 0.392507 0.395688
O O2 0.765666 0.161578 0.288150
O O3 0.640677 0.372055 0.198806
O O4 0.639124 0.048967 0.304606
O O5 0.250000 0.250000 0.500000
O O6 0.345824 0.522182 0.464699
O O7 0.381782 0.311358 0.640103
O O8 0.904054 0.251544 0.333866
O O9 0.500000 0.098543 0.750000
#
# Coordination Sequence:
#
# PCOD9301834 Si02
#       4
#     8   8   8   8
#     4  11  21  39  67  95 127 164 215 265 318 380
#     4  11  23  39  70 100 124 164 226 265 310 385
#     4  11  21  39  67  93 124 171 218 259 315 383
#     4  11  26  42  61  96 136 168 209 271 327 371
#
# _framework density 19.961905000000002
#
# number of rings (size 3 to 8) (size 9 to 14) (size 15 to 20)
#    0.000    1.000    5.000    2.250    0.000    5.000 
#    0.000    2.500    0.000    0.000    0.000    0.000 
#    0.000    0.000    0.000    0.000    0.000    0.000 
#
# Total GULP energy -89329.679003 kJ/mol
# GULP energy per Si atom -5583.104938 kJ/mol
# Density = 1.991647 g / cm^3
# Si number density = 19.961905 Si / 1000 Ang^3
#
#
#
# Elastic Constant Matrix: (Units=GPa)
#
#
# Indices 1 2 3 4 5 6 
#
# 1 90.5702 23.7804 -3.3316 0.0000 -22.1764 0.0000
# 2 23.7804 102.5845 26.8041 0.0000 -17.7506 0.0000
# 3 -3.3316 26.8041 93.8712 0.0000 -26.6747 0.0000
# 4 0.0000 0.0000 0.0000 33.4235 0.0000 -0.2122
# 5 -22.1764 -17.7506 -26.6747 0.0000 22.8320 0.0000
# 6 0.0000 0.0000 0.0000 -0.2122 0.0000 10.3036
#
#
#
# Elastic Compliance Matrix: (Units=1/GPa)
#
#
# Indices 1 2 3 4 5 6 
#
# 1 0.018382 -0.001952 0.008760 0.000000 0.026571 0.000000
# 2 -0.001952 0.011546 -0.002027 0.000000 0.004711 0.000000
# 3 0.008760 -0.002027 0.020228 0.000000 0.030565 0.000000
# 4 0.000000 0.000000 0.000000 0.029923 0.000000 0.000616
# 5 0.026571 0.004711 0.030565 0.000000 0.108979 0.000000
# 6 0.000000 0.000000 0.000000 0.000616 0.000000 0.097066
#
#
# Mechanical properties :
#
#
# Convention : Reuss Voigt Hill
#
# Bulk Modulus (GPa) = 16.74559 42.39240 29.56900
# Shear Modulus (GPa) = 16.86524 29.29670 23.08097
#
# Velocity S-wave (km/s) = 2.90982 3.83512 3.40406
# Velocity P-wave (km/s) = 4.43806 6.39481 5.50409
#
# Compressibility (1/GPa) = 0.05971722
#
# Stress axis : x y z
#
# Youngs Moduli (GPa) = 54.40072 86.61341 49.43579
#
# Poissons Ratio (x) = 0.16911 -0.43308
# Poissons Ratio (y) = 0.10622 0.10022
# Poissons Ratio (z) = -0.47657 0.17559
#
# Static dielectric constant tensor:
#      x y z
#    x 1.667530 0.000000 -0.012990 
#    y 0.000000 1.711440 0.000000 
#    z -0.012990 0.000000 1.746600 
# 
# From -- ./inp_files/158019.got.cif
#   From: 2010.05.17/outbox.cif.g08.bks.cpg/sg15_80_cif.got.tgz:158019.got - 2010.06.03 18:47:42.
