data_PCOD9301599
_publ_section_title
;
Structure prediction by ZEFSAII (Michael W. Deem and Ramdas Pophale) SiO2 
 PCOD9301599
Probable space group: C 2/C
;
_chemical_formula_sum "Si O2"
_cell_formula_units_Z 56
_cell_length_a 22.039107
_cell_length_b 16.921928
_cell_length_c 22.172136
_cell_angle_alpha 90.000000
_cell_angle_beta 21.373162
_cell_angle_gamma 90.000000
_cell_volume 3013.548292
_symmetry_space_group_name_H-M "C 2/C"
_symmetry_group_IT_number 15
_symmetry_cell_setting 'monoclinic'
loop_
_space_group_symop_operation_xyz
x,y,z
-x,y,1/2-z
-x,-y,-z
x,-y,1/2+z
1/2+x,1/2+y,z
1/2-x,1/2+y,1/2-z
1/2-x,1/2-y,-z
1/2+x,1/2-y,1/2+z
loop_
_atom_site_type_symbol
_atom_site_label
_atom_site_fract_x
_atom_site_fract_y
_atom_site_fract_z
Si Si1 0.503584 0.476635 0.411802
Si Si2 0.103456 0.438896 0.445764
Si Si3 0.557910 0.632641 0.423220
Si Si4 0.690370 0.229118 0.164369
Si Si5 0.868352 0.102066 0.924021
Si Si6 0.121405 0.377030 0.555328
Si Si7 0.110278 0.709378 0.379159
O O1 0.699778 0.456621 0.239639
O O2 0.478185 0.566912 0.454375
O O3 0.411211 0.417679 0.543832
O O4 0.440203 0.461895 0.403376
O O5 0.065844 0.435575 0.552903
O O6 0.000000 0.500000 0.500000
O O7 0.043730 0.351860 0.479828
O O8 0.732900 0.665272 0.236599
O O9 0.444582 0.707995 0.542239
O O10 0.526885 0.183446 0.292899
O O11 0.670542 0.223949 0.254552
O O12 0.832374 0.176795 0.000443
O O13 0.738170 0.318184 0.103295
O O14 0.000000 0.117779 0.750000
O O15 0.702241 0.083561 0.039132
#
# Coordination Sequence:
#
# PCOD9301599 Si02
#       7
#     8   8   8   8   8   8   8
#     4  11  23  40  58  87 122 160 209 256 306 358
#     4  11  22  38  59  86 122 158 204 262 304 363
#     4  11  22  38  61  85 117 161 203 258 305 359
#     4  11  22  38  53  86 122 164 207 239 284 374
#     4  12  23  37  57  84 121 167 200 237 300 365
#     4  11  23  36  57  81 123 163 202 245 297 365
#     4  11  21  37  59  84 120 161 206 250 310 363
#
# _framework density 18.582744999999999
#
# number of rings (size 3 to 8) (size 9 to 14) (size 15 to 20)
#    0.000    0.857    4.286    5.143    0.000    0.000 
#    0.000    0.000    0.000    0.000    0.000    4.000 
#    0.000    0.000    0.000    0.286    0.000    0.000 
#
# Total GULP energy -156291.336413 kJ/mol
# GULP energy per Si atom -5581.833443 kJ/mol
# Density = 1.854045 g / cm^3
# Si number density = 18.582745 Si / 1000 Ang^3
#
#
#
# Elastic Constant Matrix: (Units=GPa)
#
#
# Indices 1 2 3 4 5 6 
#
# 1 113.8904 61.9680 27.9790 0.0036 -9.2430 0.0000
# 2 61.9680 130.7067 40.1330 0.0139 -0.7879 -0.0033
# 3 27.9790 40.1330 71.5997 0.0055 -4.9656 -0.0032
# 4 0.0036 0.0139 0.0055 26.3299 -0.0024 1.1826
# 5 -9.2430 -0.7879 -4.9656 -0.0024 24.5735 0.0001
# 6 0.0000 -0.0033 -0.0032 1.1826 0.0001 24.9866
#
#
#
# Elastic Compliance Matrix: (Units=1/GPa)
#
#
# Indices 1 2 3 4 5 6 
#
# 1 0.012436 -0.005397 -0.001544 0.000002 0.004193 -0.000001
# 2 -0.005397 0.011597 -0.004571 -0.000005 -0.002582 0.000001
# 3 -0.001544 -0.004571 0.017324 -0.000001 0.002773 0.000002
# 4 0.000002 -0.000005 -0.000001 0.038061 0.000004 -0.001801
# 5 0.004193 -0.002582 0.002773 0.000004 0.042749 0.000000
# 6 -0.000001 0.000001 0.000002 -0.001801 0.000000 0.040107
#
#
# Mechanical properties :
#
#
# Convention : Reuss Voigt Hill
#
# Bulk Modulus (GPa) = 54.54058 64.03966 59.29012
# Shear Modulus (GPa) = 26.12220 27.58576 26.85398
#
# Velocity S-wave (km/s) = 3.75337 3.85708 3.80558
# Velocity P-wave (km/s) = 6.94244 7.37379 7.16136
#
# Compressibility (1/GPa) = 0.01833497
#
# Stress axis : x y z
#
# Youngs Moduli (GPa) = 80.40977 86.22845 57.72295
#
# Poissons Ratio (x) = 0.46535 0.08913
# Poissons Ratio (y) = 0.43395 0.26383
# Poissons Ratio (z) = 0.12415 0.39411
#
# Static dielectric constant tensor:
#      x y z
#    x 1.689790 0.000000 -0.036230 
#    y 0.000000 1.631700 0.000000 
#    z -0.036230 0.000000 1.757890 
# 
# From -- ./inp_files/282070.got.cif
#   From: 2010.05.17/outbox.cif.g08.bks.cpg/sg15_142_cif.got.tgz:282070.got - 2010.06.03 18:47:42.
