data_PCOD9301161
_publ_section_title
;
Structure prediction by ZEFSAII (Michael W. Deem and Ramdas Pophale) SiO2 
 PCOD9301161
Probable space group: C 2/C
;
_chemical_formula_sum "Si O2"
_cell_formula_units_Z 48
_cell_length_a 9.259787
_cell_length_b 11.049150
_cell_length_c 19.987180
_cell_angle_alpha 90.000000
_cell_angle_beta 82.925430
_cell_angle_gamma 90.000000
_cell_volume 2029.375088
_symmetry_space_group_name_H-M "C 2/C"
_symmetry_group_IT_number 15
_symmetry_cell_setting 'monoclinic'
loop_
_space_group_symop_operation_xyz
x,y,z
-x,y,1/2-z
-x,-y,-z
x,-y,1/2+z
1/2+x,1/2+y,z
1/2-x,1/2+y,1/2-z
1/2-x,1/2-y,-z
1/2+x,1/2-y,1/2+z
loop_
_atom_site_type_symbol
_atom_site_label
_atom_site_fract_x
_atom_site_fract_y
_atom_site_fract_z
Si Si1 0.032785 0.637430 0.411421
Si Si2 0.847637 0.432167 0.796701
Si Si3 0.863510 0.623933 0.544242
Si Si4 0.901113 0.800179 0.655765
Si Si5 0.218761 0.318595 0.143179
Si Si6 0.647987 0.484727 0.952979
O O1 0.090553 0.504493 0.427234
O O2 0.150829 0.721912 0.368589
O O3 0.900751 0.611968 0.367566
O O4 0.983514 0.683872 0.487790
O O5 0.717529 0.341324 0.782075
O O6 0.793440 0.571717 0.802183
O O7 0.000000 0.427908 0.750000
O O8 0.829369 0.703879 0.609776
O O9 0.738317 0.596881 0.498954
O O10 0.905263 0.922861 0.612598
O O11 0.062265 0.747830 0.656940
O O12 0.255537 0.398436 0.073584
O O13 0.500000 0.500000 0.000000
#
# Coordination Sequence:
#
# PCOD9301161 Si02
#       6
#     8   8   8   8   8   8
#     4  11  22  41  68  97 132 175 207 266 331 386
#     4  11  26  48  66  89 126 173 228 275 322 386
#     4  11  20  38  65 101 141 163 209 266 328 397
#     4  11  22  40  65  95 130 171 214 267 331 387
#     4  11  23  43  66  95 130 173 218 267 325 388
#     4  11  22  34  60 103 139 174 207 254 324 401
#
# _framework density 23.6526
#
# number of rings (size 3 to 8) (size 9 to 14) (size 15 to 20)
#    0.000    1.000    5.000    3.500    2.333    3.333 
#    0.000    0.000    0.000    0.000    0.000    0.000 
#    0.000    0.000    0.000    0.000    0.000    0.000 
#
# Total GULP energy -133837.726014 kJ/mol
# GULP energy per Si atom -5576.571917 kJ/mol
# Density = 2.359877 g / cm^3
# Si number density = 23.652600 Si / 1000 Ang^3
#
#
#
# Elastic Constant Matrix: (Units=GPa)
#
#
# Indices 1 2 3 4 5 6 
#
# 1 132.4883 72.6140 25.5678 0.0000 -32.1956 0.0000
# 2 72.6140 109.3732 27.0399 0.0000 -15.9054 0.0000
# 3 25.5678 27.0399 47.6679 0.0000 -16.4551 0.0000
# 4 0.0000 0.0000 0.0000 15.2852 0.0000 -9.9671
# 5 -32.1956 -15.9054 -16.4551 0.0000 43.9771 0.0000
# 6 0.0000 0.0000 0.0000 -9.9671 0.0000 56.0633
#
#
#
# Elastic Compliance Matrix: (Units=1/GPa)
#
#
# Indices 1 2 3 4 5 6 
#
# 1 0.013697 -0.007976 -0.000409 0.000000 0.006989 0.000000
# 2 -0.007976 0.015408 -0.005230 0.000000 -0.002223 0.000000
# 3 -0.000409 -0.005230 0.026880 0.000000 0.007867 0.000000
# 4 0.000000 0.000000 0.000000 0.074002 0.000000 0.013156
# 5 0.006989 -0.002223 0.007867 0.000000 0.029996 0.000000
# 6 0.000000 0.000000 0.000000 0.013156 0.000000 0.020176
#
#
# Mechanical properties :
#
#
# Convention : Reuss Voigt Hill
#
# Bulk Modulus (GPa) = 34.77650 59.99695 47.38673
# Shear Modulus (GPa) = 23.04439 34.01896 28.53168
#
# Velocity S-wave (km/s) = 3.12474 3.79658 3.47692
# Velocity P-wave (km/s) = 5.26817 6.68129 6.01636
#
# Compressibility (1/GPa) = 0.02875505
#
# Stress axis : x y z
#
# Youngs Moduli (GPa) = 73.01051 64.90242 37.20208
#
# Poissons Ratio (x) = 0.51764 0.01523
# Poissons Ratio (y) = 0.58231 0.19455
# Poissons Ratio (z) = 0.02990 0.33942
#
# Static dielectric constant tensor:
#      x y z
#    x 1.984230 0.000000 -0.096290 
#    y 0.000000 1.946120 0.000000 
#    z -0.096290 0.000000 2.008690 
# 
# From -- ./inp_files/263165.got.cif
#   From: 2010.05.17/outbox.cif.g08.bks.cpg/sg15_132_cif.got.tgz:263165.got - 2010.06.03 18:47:42.
