data_PCOD9301127
_publ_section_title
;
Structure prediction by ZEFSAII (Michael W. Deem and Ramdas Pophale) SiO2 
 PCOD9301127
Probable space group: C 2/C
;
_chemical_formula_sum "Si O2"
_cell_formula_units_Z 64
_cell_length_a 21.782368
_cell_length_b 11.609503
_cell_length_c 30.713862
_cell_angle_alpha 90.000000
_cell_angle_beta 25.950341
_cell_angle_gamma 90.000000
_cell_volume 3398.775720
_symmetry_space_group_name_H-M "C 2/C"
_symmetry_group_IT_number 15
_symmetry_cell_setting 'monoclinic'
loop_
_space_group_symop_operation_xyz
x,y,z
-x,y,1/2-z
-x,-y,-z
x,-y,1/2+z
1/2+x,1/2+y,z
1/2-x,1/2+y,1/2-z
1/2-x,1/2-y,-z
1/2+x,1/2-y,1/2+z
loop_
_atom_site_type_symbol
_atom_site_label
_atom_site_fract_x
_atom_site_fract_y
_atom_site_fract_z
Si Si1 0.124887 0.175345 0.341961
Si Si2 0.576805 0.156027 0.479197
Si Si3 0.967777 0.944493 0.457719
Si Si4 0.217192 0.444105 0.683735
Si Si5 0.615113 0.098232 0.979560
Si Si6 0.903003 0.775357 0.271124
Si Si7 0.890102 0.766667 0.438722
Si Si8 0.756536 0.815039 0.181396
O O1 0.247232 0.128361 0.295565
O O2 0.184062 0.225467 0.259784
O O3 0.043211 0.278762 0.417601
O O4 0.022329 0.065401 0.404478
O O5 0.510029 0.125317 0.474544
O O6 0.697025 0.247648 0.391347
O O7 0.626604 0.039795 0.470810
O O8 0.865821 0.959421 0.563936
O O9 0.881758 0.872288 0.477374
O O10 0.103561 0.868360 0.384730
O O11 0.124509 0.361824 0.713189
O O12 0.166480 0.571183 0.727972
O O13 0.755561 0.158955 0.870980
O O14 0.588281 0.155471 0.043745
O O15 0.000000 0.805910 0.250000
O O16 0.985011 0.797245 0.174051
O O17 0.750000 0.750000 0.500000
#
# Coordination Sequence:
#
# PCOD9301127 Si02
#       8
#     8   8   8   8   8   8   8   8
#     4  11  21  34  57  88 119 156 191 238 302 364
#     4  11  22  38  57  88 134 149 188 253 306 369
#     4  11  20  38  59  82 119 154 197 244 297 354
#     4  11  20  38  59  82 119 154 198 248 296 352
#     4  11  24  37  58  91 121 158 195 246 311 349
#     4  12  23  40  61  87 116 155 206 251 294 354
#     4  12  23  40  61  87 116 154 206 249 290 356
#     4  11  21  34  57  88 119 156 189 238 306 367
#
# _framework density 18.830310000000001
#
# number of rings (size 3 to 8) (size 9 to 14) (size 15 to 20)
#    0.000    0.750    7.500    1.500    3.500    2.000 
#    0.000    0.000    0.000    3.000    0.000    0.000 
#    0.000    0.000    0.000    0.000    0.000    0.000 
#
# Total GULP energy -178680.506971 kJ/mol
# GULP energy per Si atom -5583.765843 kJ/mol
# Density = 1.878745 g / cm^3
# Si number density = 18.830310 Si / 1000 Ang^3
#
#
#
# Elastic Constant Matrix: (Units=GPa)
#
#
# Indices 1 2 3 4 5 6 
#
# 1 61.0119 24.0333 -1.8058 -0.0004 6.3689 0.0000
# 2 24.0333 109.4402 4.4733 -0.0007 0.8898 -0.0004
# 3 -1.8058 4.4733 48.6825 -0.0010 17.8924 0.0004
# 4 -0.0004 -0.0007 -0.0010 32.8274 0.0004 8.0812
# 5 6.3689 0.8898 17.8924 0.0004 18.1288 -0.0003
# 6 0.0000 -0.0004 0.0004 8.0812 -0.0003 22.1461
#
#
#
# Elastic Compliance Matrix: (Units=1/GPa)
#
#
# Indices 1 2 3 4 5 6 
#
# 1 0.019575 -0.004429 0.005619 0.000001 -0.012205 -0.000001
# 2 -0.004429 0.010178 -0.002335 0.000000 0.003361 0.000000
# 3 0.005619 -0.002335 0.033970 0.000002 -0.035386 -0.000002
# 4 0.000001 0.000000 0.000002 0.033469 -0.000003 -0.012213
# 5 -0.012205 0.003361 -0.035386 -0.000003 0.094209 0.000003
# 6 -0.000001 0.000000 -0.000002 -0.012213 0.000003 0.049611
#
#
# Mechanical properties :
#
#
# Convention : Reuss Voigt Hill
#
# Bulk Modulus (GPa) = 16.27777 30.28179 23.27978
# Shear Modulus (GPa) = 18.95519 27.44938 23.20228
#
# Velocity S-wave (km/s) = 3.17619 3.82216 3.51405
# Velocity P-wave (km/s) = 4.70256 5.96614 5.37164
#
# Compressibility (1/GPa) = 0.06143349
#
# Stress axis : x y z
#
# Youngs Moduli (GPa) = 51.08460 98.24943 29.43787
#
# Poissons Ratio (x) = 0.43517 -0.16541
# Poissons Ratio (y) = 0.22626 0.06873
# Poissons Ratio (z) = -0.28704 0.22938
#
# Static dielectric constant tensor:
#      x y z
#    x 1.639980 0.000000 0.002050 
#    y 0.000000 1.676350 0.000000 
#    z 0.002050 0.000000 1.678930 
# 
# From -- ./inp_files/252557.got.cif
#   From: 2010.05.17/outbox.cif.g08.bks.cpg/sg15_127_cif.got.tgz:252557.got - 2010.06.03 18:47:42.
