data_PCOD9301003
_publ_section_title
;
Structure prediction by ZEFSAII (Michael W. Deem and Ramdas Pophale) SiO2 
 PCOD9301003
Probable space group: C 2/C
;
_chemical_formula_sum "Si O2"
_cell_formula_units_Z 48
_cell_length_a 16.056217
_cell_length_b 13.626441
_cell_length_c 14.911502
_cell_angle_alpha 90.000000
_cell_angle_beta 36.020686
_cell_angle_gamma 90.000000
_cell_volume 1918.586907
_symmetry_space_group_name_H-M "C 2/C"
_symmetry_group_IT_number 15
_symmetry_cell_setting 'monoclinic'
loop_
_space_group_symop_operation_xyz
x,y,z
-x,y,1/2-z
-x,-y,-z
x,-y,1/2+z
1/2+x,1/2+y,z
1/2-x,1/2+y,1/2-z
1/2-x,1/2-y,-z
1/2+x,1/2-y,1/2+z
loop_
_atom_site_type_symbol
_atom_site_label
_atom_site_fract_x
_atom_site_fract_y
_atom_site_fract_z
Si Si1 0.387009 0.077873 0.427316
Si Si2 0.388236 0.585442 0.577858
Si Si3 0.242988 0.726252 0.833337
Si Si4 0.792244 0.379090 0.546768
Si Si5 0.454329 0.260045 0.668498
Si Si6 0.657046 0.065516 0.291503
O O1 0.500000 0.088906 0.250000
O O2 0.307946 0.173144 0.532591
O O3 0.491830 0.053735 0.419561
O O4 0.286807 0.983263 0.501168
O O5 0.500000 0.500000 0.500000
O O6 0.365069 0.658989 0.681833
O O7 0.443851 0.650321 0.448297
O O8 0.241085 0.530608 0.689439
O O9 0.126417 0.731489 0.854373
O O10 0.292174 0.837131 0.805781
O O11 0.662357 0.301952 0.660789
O O12 0.797749 0.408477 0.647195
O O13 0.941406 0.327411 0.395957
#
# Coordination Sequence:
#
# PCOD9301003 Si02
#       6
#     8   8   8   8   8   8
#     4  12  25  41  58  84 129 172 202 245 302 371
#     4  12  19  32  60  98 120 145 194 266 309 350
#     4  11  20  36  59  91 121 154 208 243 310 359
#     4  11  21  38  64  94 117 157 208 251 313 353
#     4  11  20  35  65  98 119 151 197 270 308 354
#     4  11  22  35  64  90 117 155 209 255 299 357
#
# _framework density 25.018412000000001
#
# number of rings (size 3 to 8) (size 9 to 14) (size 15 to 20)
#    0.000    0.667   10.000    1.500    0.000    0.667 
#    0.000    0.833    0.000    0.000    0.000    0.000 
#    0.000    0.000    0.000    0.000    0.000    0.000 
#
# Total GULP energy -134371.590746 kJ/mol
# GULP energy per Si atom -5598.816281 kJ/mol
# Density = 2.496147 g / cm^3
# Si number density = 25.018412 Si / 1000 Ang^3
#
#
#
# Elastic Constant Matrix: (Units=GPa)
#
#
# Indices 1 2 3 4 5 6 
#
# 1 34.5106 9.3460 8.1638 0.0000 17.5378 0.0000
# 2 9.3460 153.0632 58.3991 0.0000 -4.0961 0.0000
# 3 8.1638 58.3991 137.2158 0.0000 10.3107 0.0000
# 4 0.0000 0.0000 0.0000 70.8174 0.0000 -17.8503
# 5 17.5378 -4.0961 10.3107 0.0000 38.5475 0.0000
# 6 0.0000 0.0000 0.0000 -17.8503 0.0000 11.9957
#
#
#
# Elastic Compliance Matrix: (Units=1/GPa)
#
#
# Indices 1 2 3 4 5 6 
#
# 1 0.038909 -0.002980 0.000314 0.000000 -0.018103 0.000000
# 2 -0.002980 0.008146 -0.003527 0.000000 0.003165 0.000000
# 3 0.000314 -0.003527 0.008990 0.000000 -0.002922 0.000000
# 4 0.000000 0.000000 0.000000 0.022596 0.000000 0.033624
# 5 -0.018103 0.003165 -0.002922 0.000000 0.035296 0.000000
# 6 0.000000 0.000000 0.000000 0.033624 0.000000 0.133398
#
#
# Mechanical properties :
#
#
# Convention : Reuss Voigt Hill
#
# Bulk Modulus (GPa) = 22.90560 52.95635 37.93097
# Shear Modulus (GPa) = 18.22988 40.86416 29.54702
#
# Velocity S-wave (km/s) = 2.70230 4.04587 3.44031
# Velocity P-wave (km/s) = 4.34878 6.56036 5.56553
#
# Compressibility (1/GPa) = 0.04365745
#
# Stress axis : x y z
#
# Youngs Moduli (GPa) = 25.70099 122.76432 111.23546
#
# Poissons Ratio (x) = 0.36582 -0.03488
# Poissons Ratio (y) = 0.07659 0.39236
# Poissons Ratio (z) = -0.00806 0.43303
#
# Static dielectric constant tensor:
#      x y z
#    x 2.019780 0.000000 0.012420 
#    y 0.000000 1.942160 0.000000 
#    z 0.012420 0.000000 1.982070 
# 
# From -- ./inp_files/215423.got.cif
#   From: 2010.05.17/outbox.cif.g08.bks.cpg/sg15_108_cif.got.tgz:215423.got - 2010.06.03 18:47:42.
