data_PCOD9301219
_publ_section_title
;
Structure prediction by ZEFSAII (Michael W. Deem and Ramdas Pophale) SiO2 
 PCOD9301219
Probable space group: C 2/C
;
_chemical_formula_sum "Si O2"
_cell_formula_units_Z 64
_cell_length_a 15.711949
_cell_length_b 16.451788
_cell_length_c 15.210110
_cell_angle_alpha 90.000000
_cell_angle_beta 133.242590
_cell_angle_gamma 90.000000
_cell_volume 2864.052522
_symmetry_space_group_name_H-M "C 2/C"
_symmetry_group_IT_number 15
_symmetry_cell_setting 'monoclinic'
loop_
_space_group_symop_operation_xyz
x,y,z
-x,y,1/2-z
-x,-y,-z
x,-y,1/2+z
1/2+x,1/2+y,z
1/2-x,1/2+y,1/2-z
1/2-x,1/2-y,-z
1/2+x,1/2-y,1/2+z
loop_
_atom_site_type_symbol
_atom_site_label
_atom_site_fract_x
_atom_site_fract_y
_atom_site_fract_z
Si Si1 0.188450 0.585088 0.784326
Si Si2 0.751793 0.154010 0.014021
Si Si3 0.895109 0.900641 0.290052
Si Si4 0.363491 0.092887 0.289783
Si Si5 0.125629 0.085057 0.241686
Si Si6 0.959804 0.813090 0.971747
Si Si7 0.970364 0.351978 0.028953
Si Si8 0.783904 0.254876 0.626415
O O1 0.242053 0.614005 0.912878
O O2 0.292594 0.589020 0.788696
O O3 0.138804 0.493980 0.757922
O O4 0.084868 0.638654 0.669171
O O5 0.635989 0.125435 0.983903
O O6 0.750000 0.250000 0.000000
O O7 0.855032 0.128673 0.152205
O O8 0.851740 0.828327 0.196661
O O9 0.007089 0.868333 0.422120
O O10 0.907985 0.991831 0.264641
O O11 0.246695 0.092442 0.269283
O O12 0.467625 0.099158 0.435062
O O13 0.356972 0.167462 0.216105
O O14 0.041246 0.132093 0.115665
O O15 0.838085 0.767545 0.907215
O O16 0.049498 0.740184 0.018379
O O17 0.750000 0.250000 0.500000
#
# Coordination Sequence:
#
# PCOD9301219 Si02
#       8
#     8   8   8   8   8   8   8   8
#     4  11  22  38  62  91 126 162 205 257 311 363
#     4  11  23  38  62  94 129 161 208 258 305 367
#     4  11  22  42  65  89 123 168 206 252 317 369
#     4   9  21  40  60  88 122 162 206 255 309 368
#     4   9  22  39  63  90 124 164 207 255 306 368
#     4  11  21  41  68  89 124 165 207 250 313 374
#     4  11  20  39  64  92 122 165 208 249 311 376
#     4  11  24  41  66  91 121 161 208 259 306 365
#
# _framework density 22.345958
#
# number of rings (size 3 to 8) (size 9 to 14) (size 15 to 20)
#    0.000    1.500    2.500    2.625    3.500    0.500 
#    0.000    3.125    5.500    0.000    0.000    0.000 
#    0.000    0.000    0.000    0.000    0.000    0.000 
#
# Total GULP energy -178805.223712 kJ/mol
# GULP energy per Si atom -5587.663241 kJ/mol
# Density = 2.229510 g / cm^3
# Si number density = 22.345958 Si / 1000 Ang^3
#
#
#
# Elastic Constant Matrix: (Units=GPa)
#
#
# Indices 1 2 3 4 5 6 
#
# 1 36.5840 -5.4812 10.2704 0.0000 -10.9985 0.0000
# 2 -5.4812 156.8907 79.4371 0.0000 -33.3990 0.0000
# 3 10.2704 79.4371 170.7094 0.0000 -35.8112 0.0000
# 4 0.0000 0.0000 0.0000 41.0247 0.0000 -0.1200
# 5 -10.9985 -33.3990 -35.8112 0.0000 34.3157 0.0000
# 6 0.0000 0.0000 0.0000 -0.1200 0.0000 13.9066
#
#
#
# Elastic Compliance Matrix: (Units=1/GPa)
#
#
# Indices 1 2 3 4 5 6 
#
# 1 0.032496 0.004685 -0.001272 0.000000 0.013647 0.000000
# 2 0.004685 0.009810 -0.003238 0.000000 0.007670 0.000000
# 3 -0.001272 -0.003238 0.008571 0.000000 0.005386 0.000000
# 4 0.000000 0.000000 0.000000 0.024376 0.000000 0.000210
# 5 0.013647 0.007670 0.005386 0.000000 0.046601 0.000000
# 6 0.000000 0.000000 0.000000 0.000210 0.000000 0.071910
#
#
# Mechanical properties :
#
#
# Convention : Reuss Voigt Hill
#
# Bulk Modulus (GPa) = 19.52107 59.18185 39.35146
# Shear Modulus (GPa) = 23.75419 36.51326 30.13373
#
# Velocity S-wave (km/s) = 3.26394 4.04666 3.67619
# Velocity P-wave (km/s) = 4.79157 6.95527 5.97223
#
# Compressibility (1/GPa) = 0.05122669
#
# Stress axis : x y z
#
# Youngs Moduli (GPa) = 30.77279 101.94055 116.67604
#
# Poissons Ratio (x) = -0.47755 0.14842
# Poissons Ratio (y) = -0.14416 0.37774
# Poissons Ratio (z) = 0.03915 0.33003
#
# Static dielectric constant tensor:
#      x y z
#    x 1.872130 0.000000 0.041320 
#    y 0.000000 1.819210 0.000000 
#    z 0.041320 0.000000 1.839790 
# 
# From -- ./inp_files/162598.got.cif
#   From: 2010.05.17/outbox.cif.g08.bks.cpg/sg15_82_cif.got.tgz:162598.got - 2010.06.03 18:47:42.
