data_PCOD9301734
_publ_section_title
;
Structure prediction by ZEFSAII (Michael W. Deem and Ramdas Pophale) SiO2 
 PCOD9301734
Probable space group: C 2/C
;
_chemical_formula_sum "Si O2"
_cell_formula_units_Z 44
_cell_length_a 17.462976
_cell_length_b 15.332861
_cell_length_c 11.715046
_cell_angle_alpha 90.000000
_cell_angle_beta 143.300625
_cell_angle_gamma 90.000000
_cell_volume 1874.597190
_symmetry_space_group_name_H-M "C 2/C"
_symmetry_group_IT_number 15
_symmetry_cell_setting 'monoclinic'
loop_
_space_group_symop_operation_xyz
x,y,z
-x,y,1/2-z
-x,-y,-z
x,-y,1/2+z
1/2+x,1/2+y,z
1/2-x,1/2+y,1/2-z
1/2-x,1/2-y,-z
1/2+x,1/2-y,1/2+z
loop_
_atom_site_type_symbol
_atom_site_label
_atom_site_fract_x
_atom_site_fract_y
_atom_site_fract_z
Si Si1 0.288241 0.408365 0.529295
Si Si2 0.500000 0.277928 0.750000
Si Si3 0.434882 0.849912 0.376723
Si Si4 0.636685 0.121067 0.476364
Si Si5 0.298431 0.068728 0.336201
Si Si6 0.858319 0.901988 0.074698
O O1 0.379635 0.339170 0.579506
O O2 0.161928 0.417011 0.301497
O O3 0.242983 0.378549 0.599948
O O4 0.361952 0.499236 0.629070
O O5 0.538739 0.222300 0.686749
O O6 0.378018 0.818849 0.429171
O O7 0.569877 0.896211 0.558414
O O8 0.500000 0.115105 0.250000
O O9 0.749544 0.143162 0.522583
O O10 0.671929 0.027082 0.575864
O O11 0.190816 0.081597 0.112317
O O12 0.000000 0.862562 0.250000
#
# Coordination Sequence:
#
# PCOD9301734 Si02
#       6
#     8   4   8   8   8   8
#     4  11  23  41  64  99 134 174 220 269 333 395
#     4  12  26  42  66  96 140 176 224 264 326 394
#     4  12  22  39  66  96 131 178 224 269 319 397
#     4  11  22  37  66 100 131 167 221 275 336 396
#     4  11  21  38  66  98 133 169 219 280 340 383
#     4  11  23  40  66 101 139 168 213 281 352 391
#
# _framework density 23.471709000000001
#
# number of rings (size 3 to 8) (size 9 to 14) (size 15 to 20)
#    0.000    0.727    6.364    3.273    0.000    4.364 
#    0.000    0.000    0.000    5.455    0.000    0.000 
#    0.000    0.000    0.000    0.000    0.000    0.000 
#
# Total GULP energy -123030.521456 kJ/mol
# GULP energy per Si atom -5592.296430 kJ/mol
# Density = 2.341829 g / cm^3
# Si number density = 23.471709 Si / 1000 Ang^3
#
#
#
# Elastic Constant Matrix: (Units=GPa)
#
#
# Indices 1 2 3 4 5 6 
#
# 1 167.4433 9.5832 75.1971 0.0000 -7.4887 0.0000
# 2 9.5832 41.6740 -5.0535 0.0000 1.7472 0.0000
# 3 75.1971 -5.0535 141.6056 0.0000 3.8180 0.0000
# 4 0.0000 0.0000 0.0000 4.6729 0.0000 4.7983
# 5 -7.4887 1.7472 3.8180 0.0000 48.0613 0.0000
# 6 0.0000 0.0000 0.0000 4.7983 0.0000 18.9286
#
#
#
# Elastic Compliance Matrix: (Units=1/GPa)
#
#
# Indices 1 2 3 4 5 6 
#
# 1 0.008213 -0.002506 -0.004497 0.000000 0.001728 0.000000
# 2 -0.002506 0.024908 0.002260 0.000000 -0.001476 0.000000
# 3 -0.004497 0.002260 0.009572 0.000000 -0.001543 0.000000
# 4 0.000000 0.000000 0.000000 0.289306 0.000000 -0.073337
# 5 0.001728 -0.001476 -0.001543 0.000000 0.021252 0.000000
# 6 0.000000 0.000000 0.000000 -0.073337 0.000000 0.071420
#
#
# Mechanical properties :
#
#
# Convention : Reuss Voigt Hill
#
# Bulk Modulus (GPa) = 30.11588 56.68629 43.40108
# Shear Modulus (GPa) = 11.23020 32.39896 21.81458
#
# Velocity S-wave (km/s) = 2.18974 3.71932 3.05191
# Velocity P-wave (km/s) = 4.38769 6.53053 5.56326
#
# Compressibility (1/GPa) = 0.03320507
#
# Stress axis : x y z
#
# Youngs Moduli (GPa) = 121.76537 40.14775 104.46873
#
# Poissons Ratio (x) = 0.10062 0.46981
# Poissons Ratio (y) = 0.30518 -0.23606
# Poissons Ratio (z) = 0.54760 -0.09072
#
# Static dielectric constant tensor:
#      x y z
#    x 1.915840 0.000000 0.008120 
#    y 0.000000 1.914760 0.000000 
#    z 0.008120 0.000000 1.863970 
# 
# From -- ./inp_files/106774.got.cif
#   From: 2010.05.17/outbox.cif.g08.bks.cpg/sg15_54_cif.got.tgz:106774.got - 2010.06.03 18:47:42.
