data_PCOD9301170
_publ_section_title
;
Structure prediction by ZEFSAII (Michael W. Deem and Ramdas Pophale) SiO2 
 PCOD9301170
Probable space group: C 2/C
;
_chemical_formula_sum "Si O2"
_cell_formula_units_Z 40
_cell_length_a 12.969362
_cell_length_b 16.149946
_cell_length_c 13.092074
_cell_angle_alpha 90.000000
_cell_angle_beta 137.301908
_cell_angle_gamma 90.000000
_cell_volume 1859.578104
_symmetry_space_group_name_H-M "C 2/C"
_symmetry_group_IT_number 15
_symmetry_cell_setting 'monoclinic'
loop_
_space_group_symop_operation_xyz
x,y,z
-x,y,1/2-z
-x,-y,-z
x,-y,1/2+z
1/2+x,1/2+y,z
1/2-x,1/2+y,1/2-z
1/2-x,1/2-y,-z
1/2+x,1/2-y,1/2+z
loop_
_atom_site_type_symbol
_atom_site_label
_atom_site_fract_x
_atom_site_fract_y
_atom_site_fract_z
Si Si1 0.576432 0.911305 0.558692
Si Si2 0.362302 0.244240 0.867632
Si Si3 0.827126 0.361260 0.651404
Si Si4 0.673634 0.037957 0.919519
Si Si5 0.824644 0.804391 0.461873
O O1 0.447654 0.841333 0.454762
O O2 0.661794 0.899692 0.726529
O O3 0.678894 0.917547 0.533036
O O4 0.500000 0.000000 0.500000
O O5 0.291759 0.287603 0.916484
O O6 0.233611 0.230971 0.688991
O O7 0.494613 0.296598 0.908849
O O8 0.785039 0.440730 0.551204
O O9 0.000000 0.334793 0.750000
O O10 0.500000 0.041826 0.750000
O O11 0.773326 0.100278 0.925969
O O12 0.750000 0.750000 0.500000
#
# Coordination Sequence:
#
# PCOD9301170 Si02
#       5
#     8   8   8   8   8
#     4  12  21  41  66  92 125 175 224 257 323 410
#     4  12  24  39  65  98 130 169 220 278 321 398
#     4  11  24  42  64  96 133 173 221 271 334 398
#     4  11  20  38  66  91 126 174 216 262 334 392
#     4  12  21  39  66  96 130 168 223 275 332 382
#
# _framework density 21.510256999999999
#
# number of rings (size 3 to 8) (size 9 to 14) (size 15 to 20)
#    0.000    0.400   10.000    0.600    0.000    1.600 
#    0.000    0.000    0.000    0.000    0.000    0.000 
#    0.000    0.000    0.000    0.000    0.000    0.000 
#
# Total GULP energy -111690.281807 kJ/mol
# GULP energy per Si atom -5584.514090 kJ/mol
# Density = 2.146130 g / cm^3
# Si number density = 21.510257 Si / 1000 Ang^3
#
#
#
# Elastic Constant Matrix: (Units=GPa)
#
#
# Indices 1 2 3 4 5 6 
#
# 1 113.0801 48.2446 2.3889 0.0001 6.0460 0.0000
# 2 48.2446 136.5250 -7.0642 0.0000 18.2803 0.0000
# 3 2.3889 -7.0642 38.2933 0.0001 -9.2615 0.0001
# 4 0.0001 0.0000 0.0001 12.3666 0.0001 1.9133
# 5 6.0460 18.2803 -9.2615 0.0001 33.4932 0.0000
# 6 0.0000 0.0000 0.0001 1.9133 0.0000 56.1121
#
#
#
# Elastic Compliance Matrix: (Units=1/GPa)
#
#
# Indices 1 2 3 4 5 6 
#
# 1 0.010484 -0.003746 -0.001402 0.000000 -0.000236 0.000000
# 2 -0.003746 0.009247 0.000946 0.000000 -0.004110 0.000000
# 3 -0.001402 0.000946 0.028198 0.000000 0.007534 0.000000
# 4 0.000000 0.000000 0.000000 0.081291 0.000000 -0.002772
# 5 -0.000236 -0.004110 0.007534 0.000000 0.034226 0.000000
# 6 0.000000 0.000000 0.000000 -0.002772 0.000000 0.017916
#
#
# Mechanical properties :
#
#
# Convention : Reuss Voigt Hill
#
# Bulk Modulus (GPa) = 25.30013 41.67079 33.48546
# Shear Modulus (GPa) = 24.63763 36.68300 30.66031
#
# Velocity S-wave (km/s) = 3.38803 4.13410 3.77952
# Velocity P-wave (km/s) = 5.20504 6.49632 5.88620
#
# Compressibility (1/GPa) = 0.03952548
#
# Stress axis : x y z
#
# Youngs Moduli (GPa) = 95.38763 108.13784 35.46307
#
# Poissons Ratio (x) = 0.40504 0.04972
# Poissons Ratio (y) = 0.35728 -0.03354
# Poissons Ratio (z) = 0.13373 -0.10226
#
# Static dielectric constant tensor:
#      x y z
#    x 1.898020 0.000000 -0.092610 
#    y 0.000000 1.865200 0.000000 
#    z -0.092610 0.000000 1.793080 
# 
# From -- ./inp_files/29052.got.cif
#   From: 2010.05.17/outbox.cif.g08.bks.cpg/sg15_15_cif.got.tgz:29052.got - 2010.06.03 18:47:42.
