data_PCOD9301617
_publ_section_title
;
Structure prediction by ZEFSAII (Michael W. Deem and Ramdas Pophale) SiO2 
 PCOD9301617
Probable space group: C 2/C
;
_chemical_formula_sum "Si O2"
_cell_formula_units_Z 60
_cell_length_a 8.141211
_cell_length_b 20.991236
_cell_length_c 17.471722
_cell_angle_alpha 90.000000
_cell_angle_beta 111.281532
_cell_angle_gamma 90.000000
_cell_volume 2782.206053
_symmetry_space_group_name_H-M "C 2/C"
_symmetry_group_IT_number 15
_symmetry_cell_setting 'monoclinic'
loop_
_space_group_symop_operation_xyz
x,y,z
-x,y,1/2-z
-x,-y,-z
x,-y,1/2+z
1/2+x,1/2+y,z
1/2-x,1/2+y,1/2-z
1/2-x,1/2-y,-z
1/2+x,1/2-y,1/2+z
loop_
_atom_site_type_symbol
_atom_site_label
_atom_site_fract_x
_atom_site_fract_y
_atom_site_fract_z
Si Si1 0.571638 0.691560 0.943635
Si Si2 0.984218 0.323323 0.530772
Si Si3 0.373871 0.665674 0.065489
Si Si4 0.161387 0.017312 0.470001
Si Si5 0.996919 0.926503 0.336869
Si Si6 0.000000 0.847341 0.750000
Si Si7 0.554706 0.953221 0.888792
Si Si8 0.249862 0.453616 0.774377
O O1 0.517953 0.763028 0.911627
O O2 0.470144 0.634873 0.884370
O O3 0.781929 0.681642 0.965271
O O4 0.510355 0.686406 0.022330
O O5 0.996621 0.392994 0.569412
O O6 0.168347 0.315874 0.515525
O O7 0.371583 0.588232 0.064507
O O8 0.434161 0.686978 0.161098
O O9 0.342045 0.006334 0.546193
O O10 0.160163 0.964983 0.402135
O O11 0.000000 0.000000 0.500000
O O12 0.000000 0.905589 0.250000
O O13 0.858067 0.983808 0.313706
O O14 0.151630 0.896074 0.749399
O O15 0.682718 0.927355 0.843734
O O16 0.395295 0.976862 0.810316
#
# Coordination Sequence:
#
# PCOD9301617 Si02
#       8
#     8   8   8   8   8   4   8   8
#     4  11  25  47  66  92 139 180 230 277 328 404
#     4  11  24  43  68  99 126 183 238 271 322 413
#     4  12  23  41  69  97 133 174 223 278 342 398
#     4  12  20  39  69  98 132 174 215 280 353 402
#     4  12  23  41  65  96 137 180 216 273 357 401
#     4  12  20  36  60  98 126 160 206 278 336 400
#     4  11  22  38  62 101 129 168 223 275 338 405
#     4  11  21  37  62  98 136 160 209 290 341 395
#
# _framework density 21.565622000000001
#
# number of rings (size 3 to 8) (size 9 to 14) (size 15 to 20)
#    0.000    0.533    7.333    1.200    0.000    1.600 
#    2.400    1.333    0.000    3.200    0.000    0.000 
#    0.000    0.000    0.000    0.000    0.000    0.000 
#
# Total GULP energy -167338.240750 kJ/mol
# GULP energy per Si atom -5577.941358 kJ/mol
# Density = 2.151654 g / cm^3
# Si number density = 21.565622 Si / 1000 Ang^3
#
#
#
# Elastic Constant Matrix: (Units=GPa)
#
#
# Indices 1 2 3 4 5 6 
#
# 1 97.8657 -13.3365 24.0123 0.0000 -5.2319 0.0000
# 2 -13.3365 47.7040 -10.9184 0.0000 -0.4723 0.0000
# 3 24.0123 -10.9184 96.5321 0.0000 1.0858 0.0000
# 4 0.0000 0.0000 0.0000 9.0886 0.0000 -6.2072
# 5 -5.2319 -0.4723 1.0858 0.0000 38.9774 0.0000
# 6 0.0000 0.0000 0.0000 -6.2072 0.0000 20.4811
#
#
#
# Elastic Compliance Matrix: (Units=1/GPa)
#
#
# Indices 1 2 3 4 5 6 
#
# 1 0.011278 0.002590 -0.002531 0.000000 0.001616 0.000000
# 2 0.002590 0.022116 0.001851 0.000000 0.000564 0.000000
# 3 -0.002531 0.001851 0.011205 0.000000 -0.000629 0.000000
# 4 0.000000 0.000000 0.000000 0.138747 0.000000 0.042050
# 5 0.001616 0.000564 -0.000629 0.000000 0.025897 0.000000
# 6 0.000000 0.000000 0.000000 0.042050 0.000000 0.061570
#
#
# Mechanical properties :
#
#
# Convention : Reuss Voigt Hill
#
# Bulk Modulus (GPa) = 20.65291 26.84630 23.74961
# Shear Modulus (GPa) = 17.65953 29.86571 23.76262
#
# Velocity S-wave (km/s) = 2.86470 3.72543 3.32305
# Velocity P-wave (km/s) = 4.53206 5.56604 5.07545
#
# Compressibility (1/GPa) = 0.04841933
#
# Stress axis : x y z
#
# Youngs Moduli (GPa) = 88.66562 45.21641 89.24439
#
# Poissons Ratio (x) = -0.11710 0.22585
# Poissons Ratio (y) = -0.22963 -0.16518
# Poissons Ratio (z) = 0.22439 -0.08369
#
# Static dielectric constant tensor:
#      x y z
#    x 1.895350 0.000000 -0.010080 
#    y 0.000000 1.779340 0.000000 
#    z -0.010080 0.000000 1.731970 
# 
# From -- ./inp_files/192224.got.cif
#   From: 2010.05.17/outbox.cif.g08.bks.cpg/sg15_97_cif.got.tgz:192224.got - 2010.06.03 18:47:42.
