data_PCOD9301007
_publ_section_title
;
Structure prediction by ZEFSAII (Michael W. Deem and Ramdas Pophale) SiO2 
 PCOD9301007
Probable space group: C 2/C
;
_chemical_formula_sum "Si O2"
_cell_formula_units_Z 32
_cell_length_a 10.239406
_cell_length_b 10.102146
_cell_length_c 12.122817
_cell_angle_alpha 90.000000
_cell_angle_beta 88.671356
_cell_angle_gamma 90.000000
_cell_volume 1253.646736
_symmetry_space_group_name_H-M "C 2/C"
_symmetry_group_IT_number 15
_symmetry_cell_setting 'monoclinic'
loop_
_space_group_symop_operation_xyz
x,y,z
-x,y,1/2-z
-x,-y,-z
x,-y,1/2+z
1/2+x,1/2+y,z
1/2-x,1/2+y,1/2-z
1/2-x,1/2-y,-z
1/2+x,1/2-y,1/2+z
loop_
_atom_site_type_symbol
_atom_site_label
_atom_site_fract_x
_atom_site_fract_y
_atom_site_fract_z
Si Si1 0.415865 0.317237 0.910496
Si Si2 0.215195 0.410122 0.755462
Si Si3 0.016614 0.333531 0.591486
Si Si4 0.606889 0.437078 0.374307
O O1 0.320284 0.311155 0.809178
O O2 0.529665 0.425059 0.887593
O O3 0.480662 0.186964 0.963564
O O4 0.331877 0.388887 0.010578
O O5 0.155503 0.374069 0.636806
O O6 0.295359 0.541859 0.727475
O O7 0.094942 0.415377 0.842240
O O8 0.993712 0.182973 0.634297
#
# Coordination Sequence:
#
# PCOD9301007 Si02
#       4
#     8   8   8   8
#     4   9  20  40  61  92 126 157 203 256 301 360
#     4  11  20  35  70  88 121 168 199 249 313 356
#     4   9  22  38  57  92 123 156 205 249 297 365
#     4   9  21  39  64  91 124 161 207 248 306 363
#
# _framework density 25.525532999999999
#
# number of rings (size 3 to 8) (size 9 to 14) (size 15 to 20)
#    1.500    1.000    0.000    1.500    7.000    1.000 
#    0.000    5.000   11.000    0.000    0.000    0.000 
#    0.000    0.000    0.000    0.000    0.000    0.000 
#
# Total GULP energy -89135.094301 kJ/mol
# GULP energy per Si atom -5570.943394 kJ/mol
# Density = 2.546744 g / cm^3
# Si number density = 25.525533 Si / 1000 Ang^3
#
#
#
# Elastic Constant Matrix: (Units=GPa)
#
#
# Indices 1 2 3 4 5 6 
#
# 1 103.5638 26.1062 36.4147 0.0000 45.5988 0.0000
# 2 26.1062 49.2055 24.8926 0.0000 -9.9108 0.0000
# 3 36.4147 24.8926 80.4352 0.0000 20.6660 0.0000
# 4 0.0000 0.0000 0.0000 -41.6756 0.0000 54.9527
# 5 45.5988 -9.9108 20.6660 0.0000 47.7890 0.0000
# 6 0.0000 0.0000 0.0000 54.9527 0.0000 -14.6271
#
#
#
# Elastic Compliance Matrix: (Units=1/GPa)
#
#
# Indices 1 2 3 4 5 6 
#
# 1 0.030578 -0.024944 0.003039 0.000000 -0.035664 0.000000
# 2 -0.024944 0.048723 -0.014059 0.000000 0.039985 0.000000
# 3 0.003039 -0.014059 0.019014 0.000000 -0.014038 0.000000
# 4 0.000000 0.000000 0.000000 0.006069 0.000000 0.022800
# 5 -0.035664 0.039985 -0.014038 0.000000 0.069318 0.000000
# 6 0.000000 0.000000 0.000000 0.022800 0.000000 0.017291
#
#
# Mechanical properties :
#
#
# Convention : Reuss Voigt Hill
#
# Bulk Modulus (GPa) = 37.89692 45.33685 41.61688
# Shear Modulus (GPa) = 18.40156 8.01667 13.20911
#
# Velocity S-wave (km/s) = 2.68789 1.77411 2.27730
# Velocity P-wave (km/s) = 4.95095 4.69005 4.82226
#
# Compressibility (1/GPa) = 0.02638737
#
# Stress axis : x y z
#
# Youngs Moduli (GPa) = 32.70364 20.52411 52.59242
#
# Poissons Ratio (x) = 0.51195 -0.15985
# Poissons Ratio (y) = 0.81576 0.73941
# Poissons Ratio (z) = -0.09940 0.28855
#
# Static dielectric constant tensor:
#      x y z
#    x 2.102900 0.000000 -0.021670 
#    y 0.000000 1.988300 0.000000 
#    z -0.021670 0.000000 2.184820 
# 
# From -- ./inp_files/140982.got.cif
#   From: 2010.05.17/outbox.cif.g08.bks.cpg/sg15_71_cif.got.tgz:140982.got - 2010.06.03 18:47:42.
