data_PCOD9301876
_publ_section_title
;
Structure prediction by ZEFSAII (Michael W. Deem and Ramdas Pophale) SiO2 
 PCOD9301876
Probable space group: C 2/C
;
_chemical_formula_sum "Si O2"
_cell_formula_units_Z 64
_cell_length_a 19.000728
_cell_length_b 8.683935
_cell_length_c 35.312598
_cell_angle_alpha 90.000000
_cell_angle_beta 143.102797
_cell_angle_gamma 90.000000
_cell_volume 3498.191259
_symmetry_space_group_name_H-M "C 2/C"
_symmetry_group_IT_number 15
_symmetry_cell_setting 'monoclinic'
loop_
_space_group_symop_operation_xyz
x,y,z
-x,y,1/2-z
-x,-y,-z
x,-y,1/2+z
1/2+x,1/2+y,z
1/2-x,1/2+y,1/2-z
1/2-x,1/2-y,-z
1/2+x,1/2-y,1/2+z
loop_
_atom_site_type_symbol
_atom_site_label
_atom_site_fract_x
_atom_site_fract_y
_atom_site_fract_z
Si Si1 0.627586 0.557984 0.809632
Si Si2 0.009031 0.907755 0.576403
Si Si3 0.123912 0.238015 0.195317
Si Si4 0.292245 0.037495 0.312365
Si Si5 0.942618 0.252554 0.931694
Si Si6 0.950327 0.732508 0.688964
Si Si7 0.158474 0.764171 0.573211
Si Si8 0.294175 0.392227 0.434919
O O1 0.500000 0.636533 0.750000
O O2 0.685535 0.511494 0.794355
O O3 0.596558 0.403101 0.819746
O O4 0.727795 0.660773 0.871907
O O5 0.044791 0.867399 0.634028
O O6 0.092011 0.807568 0.583812
O O7 0.875849 0.870302 0.506816
O O8 0.032187 0.087747 0.577362
O O9 0.241029 0.150389 0.258428
O O10 0.154014 0.390820 0.185178
O O11 0.054115 0.269063 0.203670
O O12 0.385154 0.126565 0.378688
O O13 0.852541 0.209896 0.926625
O O14 0.061750 0.307345 0.003362
O O15 0.841223 0.647330 0.623064
O O16 0.000000 0.665974 0.750000
O O17 0.191341 0.930147 0.570513
#
# Coordination Sequence:
#
# PCOD9301876 Si02
#       8
#     8   8   8   8   8   8   8   8
#     4  11  21  40  60  87 120 156 202 247 305 356
#     4   9  19  36  60  91 122 154 195 249 309 355
#     4  12  24  39  60  88 122 158 206 253 309 365
#     4  12  23  40  61  89 121 158 207 254 305 362
#     4   9  18  37  63  88 119 156 198 248 300 363
#     4  11  22  40  60  83 120 165 201 249 312 364
#     4   9  19  36  62  92 116 154 203 248 296 366
#     4   9  18  36  61  88 123 157 195 246 304 367
#
# _framework density 18.295169999999999
#
# number of rings (size 3 to 8) (size 9 to 14) (size 15 to 20)
#    0.000    1.750    5.000    2.250    0.000    3.500 
#    2.250    0.000    0.000    3.000    0.000    0.000 
#    0.000    0.000    0.000    0.000    0.000    0.000 
#
# Total GULP energy -178521.568960 kJ/mol
# GULP energy per Si atom -5578.799030 kJ/mol
# Density = 1.825353 g / cm^3
# Si number density = 18.295170 Si / 1000 Ang^3
#
#
#
# Elastic Constant Matrix: (Units=GPa)
#
#
# Indices 1 2 3 4 5 6 
#
# 1 64.3259 25.0003 28.0977 0.0000 -1.8996 0.0000
# 2 25.0003 50.7489 43.5813 0.0000 3.1529 0.0001
# 3 28.0977 43.5813 141.3501 0.0000 7.5897 0.0000
# 4 0.0000 0.0000 0.0000 39.8256 0.0000 1.9591
# 5 -1.8996 3.1529 7.5897 0.0000 33.8482 0.0001
# 6 0.0000 0.0001 0.0000 1.9591 0.0001 21.2655
#
#
#
# Elastic Compliance Matrix: (Units=1/GPa)
#
#
# Indices 1 2 3 4 5 6 
#
# 1 0.019545 -0.008606 -0.001350 0.000000 0.002201 0.000000
# 2 -0.008606 0.030605 -0.007638 0.000000 -0.001621 0.000000
# 3 -0.001350 -0.007638 0.009782 0.000000 -0.001558 0.000000
# 4 0.000000 0.000000 0.000000 0.025224 0.000000 -0.002324
# 5 0.002201 -0.001621 -0.001558 0.000000 0.030167 0.000000
# 6 0.000000 0.000000 0.000000 -0.002324 0.000000 0.047239
#
#
# Mechanical properties :
#
#
# Convention : Reuss Voigt Hill
#
# Bulk Modulus (GPa) = 40.41553 49.97596 45.19575
# Shear Modulus (GPa) = 24.27213 29.63757 26.95485
#
# Velocity S-wave (km/s) = 3.64634 4.02925 3.84256
# Velocity P-wave (km/s) = 6.31399 7.00159 6.66666
#
# Compressibility (1/GPa) = 0.02474296
#
# Stress axis : x y z
#
# Youngs Moduli (GPa) = 51.16337 32.67484 102.23180
#
# Poissons Ratio (x) = 0.28120 0.13802
# Poissons Ratio (y) = 0.44031 0.78088
# Poissons Ratio (z) = 0.06907 0.24958
#
# Static dielectric constant tensor:
#      x y z
#    x 1.611430 0.000000 0.008990 
#    y 0.000000 1.632000 0.000000 
#    z 0.008990 0.000000 1.653420 
# 
# From -- ./inp_files/315759.got.cif
#   From: 2010.05.17/outbox.cif.g08.bks.cpg/sg15_158_cif.got.tgz:315759.got - 2010.06.03 18:47:42.
