data_PCOD9301559
_publ_section_title
;
Structure prediction by ZEFSAII (Michael W. Deem and Ramdas Pophale) SiO2 
 PCOD9301559
Probable space group: C 2/C
;
_chemical_formula_sum "Si O2"
_cell_formula_units_Z 48
_cell_length_a 25.003073
_cell_length_b 11.114478
_cell_length_c 9.067563
_cell_angle_alpha 90.000000
_cell_angle_beta 112.945010
_cell_angle_gamma 90.000000
_cell_volume 2320.469242
_symmetry_space_group_name_H-M "C 2/C"
_symmetry_group_IT_number 15
_symmetry_cell_setting 'monoclinic'
loop_
_space_group_symop_operation_xyz
x,y,z
-x,y,1/2-z
-x,-y,-z
x,-y,1/2+z
1/2+x,1/2+y,z
1/2-x,1/2+y,1/2-z
1/2-x,1/2-y,-z
1/2+x,1/2-y,1/2+z
loop_
_atom_site_type_symbol
_atom_site_label
_atom_site_fract_x
_atom_site_fract_y
_atom_site_fract_z
Si Si1 0.128776 0.046558 0.621245
Si Si2 0.807239 0.266157 0.661415
Si Si3 0.271337 0.621390 0.180765
Si Si4 0.168339 0.529593 0.513396
Si Si5 0.935661 0.879217 0.743067
Si Si6 0.641736 0.829913 0.285523
O O1 0.155959 0.152147 0.749518
O O2 0.107578 0.092311 0.440742
O O3 0.179750 0.946270 0.669636
O O4 0.076088 0.983239 0.650774
O O5 0.750000 0.250000 0.500000
O O6 0.779600 0.323324 0.776809
O O7 0.844656 0.361081 0.610586
O O8 0.235260 0.517008 0.058186
O O9 0.305555 0.732448 0.143467
O O10 0.133372 0.414325 0.418408
O O11 0.157969 0.584102 0.664465
O O12 0.914333 0.754097 0.791930
O O13 0.000000 0.874725 0.750000
#
# Coordination Sequence:
#
# PCOD9301559 Si02
#       6
#     8   8   8   8   8   8
#     4  11  24  41  69  96 132 169 217 268 329 384
#     4  12  21  36  59  97 140 172 202 245 319 402
#     4  11  21  36  60  96 133 174 205 251 308 400
#     4  12  23  38  60  94 139 176 206 256 315 405
#     4  11  26  48  70  93 122 168 229 288 328 369
#     4  11  25  39  64  91 133 172 225 259 324 375
#
# _framework density 20.685471
#
# number of rings (size 3 to 8) (size 9 to 14) (size 15 to 20)
#    0.000    0.667    5.000    3.000    4.667    0.000 
#    0.000    0.833    0.000    0.000    0.000    0.000 
#    0.000    0.000    0.000    0.000    0.000    0.000 
#
# Total GULP energy -133981.337157 kJ/mol
# GULP energy per Si atom -5582.555715 kJ/mol
# Density = 2.063839 g / cm^3
# Si number density = 20.685471 Si / 1000 Ang^3
#
#
#
# Elastic Constant Matrix: (Units=GPa)
#
#
# Indices 1 2 3 4 5 6 
#
# 1 82.1820 36.6600 2.4467 0.0000 -14.5250 0.0000
# 2 36.6600 124.8253 37.1517 0.0000 -9.5023 0.0000
# 3 2.4467 37.1517 63.1883 0.0000 -14.7432 0.0000
# 4 0.0000 0.0000 0.0000 35.1123 0.0000 -14.5879
# 5 -14.5250 -9.5023 -14.7432 0.0000 21.2235 0.0000
# 6 0.0000 0.0000 0.0000 -14.5879 0.0000 23.6207
#
#
#
# Elastic Compliance Matrix: (Units=1/GPa)
#
#
# Indices 1 2 3 4 5 6 
#
# 1 0.016798 -0.005641 0.005680 0.000000 0.012916 0.000000
# 2 -0.005641 0.011608 -0.007512 0.000000 -0.003882 0.000000
# 3 0.005680 -0.007512 0.024041 0.000000 0.017224 0.000000
# 4 0.000000 0.000000 0.000000 0.038310 0.000000 0.023660
# 5 0.012916 -0.003882 0.017224 0.000000 0.066185 0.000000
# 6 0.000000 0.000000 0.000000 0.023660 0.000000 0.056948
#
#
# Mechanical properties :
#
#
# Convention : Reuss Voigt Hill
#
# Bulk Modulus (GPa) = 26.66583 46.96805 36.81694
# Shear Modulus (GPa) = 20.71790 28.92043 24.81917
#
# Velocity S-wave (km/s) = 3.16819 3.74318 3.46762
# Velocity P-wave (km/s) = 5.12858 6.43715 5.81976
#
# Compressibility (1/GPa) = 0.03750118
#
# Stress axis : x y z
#
# Youngs Moduli (GPa) = 59.53063 86.14612 41.59480
#
# Poissons Ratio (x) = 0.48592 -0.23624
# Poissons Ratio (y) = 0.33579 0.31247
# Poissons Ratio (z) = -0.33811 0.64715
#
# Static dielectric constant tensor:
#      x y z
#    x 1.713770 0.000000 -0.008420 
#    y 0.000000 1.816350 0.000000 
#    z -0.008420 0.000000 1.826120 
# 
# From -- ./inp_files/60891.got.cif
#   From: 2010.05.17/outbox.cif.g08.bks.cpg/sg15_31_cif.got.tgz:60891.got - 2010.06.03 18:47:42.
