data_PCOD9301974
_publ_section_title
;
Structure prediction by ZEFSAII (Michael W. Deem and Ramdas Pophale) SiO2 
 PCOD9301974
Probable space group: C 2/C
;
_chemical_formula_sum "Si O2"
_cell_formula_units_Z 60
_cell_length_a 11.989855
_cell_length_b 17.051632
_cell_length_c 14.164828
_cell_angle_alpha 90.000000
_cell_angle_beta 101.224004
_cell_angle_gamma 90.000000
_cell_volume 2840.562017
_symmetry_space_group_name_H-M "C 2/C"
_symmetry_group_IT_number 15
_symmetry_cell_setting 'monoclinic'
loop_
_space_group_symop_operation_xyz
x,y,z
-x,y,1/2-z
-x,-y,-z
x,-y,1/2+z
1/2+x,1/2+y,z
1/2-x,1/2+y,1/2-z
1/2-x,1/2-y,-z
1/2+x,1/2-y,1/2+z
loop_
_atom_site_type_symbol
_atom_site_label
_atom_site_fract_x
_atom_site_fract_y
_atom_site_fract_z
Si Si1 0.500000 0.117105 0.750000
Si Si2 0.699677 0.929910 0.983546
Si Si3 0.548103 0.563331 0.655391
Si Si4 0.721324 0.094416 0.082564
Si Si5 0.414584 0.325567 0.008606
Si Si6 0.505331 0.838777 0.037701
Si Si7 0.029980 0.104210 0.363632
Si Si8 0.701527 0.009752 0.281010
O O1 0.501547 0.165086 0.849173
O O2 0.392011 0.058731 0.735503
O O3 0.798110 0.866246 0.023356
O O4 0.586165 0.910975 0.022662
O O5 0.732346 0.017629 0.018770
O O6 0.680257 0.935031 0.868147
O O7 0.500000 0.584694 0.750000
O O8 0.518639 0.634180 0.581937
O O9 0.477697 0.487264 0.609545
O O10 0.676307 0.532922 0.686705
O O11 0.843879 0.135839 0.099778
O O12 0.701833 0.060246 0.184882
O O13 0.618307 0.145859 0.026661
O O14 0.432764 0.233384 0.005073
O O15 0.433320 0.352667 0.904757
O O16 0.000000 0.106206 0.250000
#
# Coordination Sequence:
#
# PCOD9301974 Si02
#       8
#     4   8   8   8   8   8   8   8
#     4  12  26  46  66  96 138 184 232 280 354 420
#     4  12  22  44  71  97 131 182 238 278 336 410
#     4  11  21  42  70 103 128 174 235 287 339 399
#     4  12  22  43  71 103 135 174 240 285 335 409
#     4  12  25  43  68 100 141 180 222 285 360 419
#     4  12  29  44  64 101 143 188 220 284 357 423
#     4  11  21  40  71 101 131 171 233 290 337 401
#     4  12  22  41  75  99 126 175 239 296 328 401
#
# _framework density 21.122581
#
# number of rings (size 3 to 8) (size 9 to 14) (size 15 to 20)
#    0.000    0.267    8.000    2.800    0.933    0.533 
#    2.400    0.000    0.000    0.000    0.000    0.000 
#    0.000    0.000    0.000    0.000    0.000    0.000 
#
# Total GULP energy -167655.954723 kJ/mol
# GULP energy per Si atom -5588.531824 kJ/mol
# Density = 2.107450 g / cm^3
# Si number density = 21.122581 Si / 1000 Ang^3
#
#
#
# Elastic Constant Matrix: (Units=GPa)
#
#
# Indices 1 2 3 4 5 6 
#
# 1 80.1947 -2.7008 12.1265 0.0000 5.7366 0.0000
# 2 -2.7008 37.1709 1.1347 0.0000 12.4981 0.0000
# 3 12.1265 1.1347 100.9708 0.0000 -7.6229 0.0000
# 4 0.0000 0.0000 0.0000 -6.2454 0.0000 -14.8073
# 5 5.7366 12.4981 -7.6229 0.0000 31.5970 0.0000
# 6 0.0000 0.0000 0.0000 -14.8073 0.0000 18.5600
#
#
#
# Elastic Compliance Matrix: (Units=1/GPa)
#
#
# Indices 1 2 3 4 5 6 
#
# 1 0.013097 0.002262 -0.001880 0.000000 -0.003726 0.000000
# 2 0.002262 0.031588 -0.001631 0.000000 -0.013299 0.000000
# 3 -0.001880 -0.001631 0.010412 0.000000 0.003498 0.000000
# 4 0.000000 0.000000 0.000000 -0.055375 0.000000 -0.044178
# 5 -0.003726 -0.013299 0.003498 0.000000 0.038429 0.000000
# 6 0.000000 0.000000 0.000000 -0.044178 0.000000 0.018633
#
#
# Mechanical properties :
#
#
# Convention : Reuss Voigt Hill
#
# Bulk Modulus (GPa) = 19.01142 26.60635 22.80888
# Shear Modulus (GPa) = 65.09143 22.63406 43.86274
#
# Velocity S-wave (km/s) = 5.55724 3.27702 4.56190
# Velocity P-wave (km/s) = 7.08501 5.19056 6.21045
#
# Compressibility (1/GPa) = 0.05259997
#
# Stress axis : x y z
#
# Youngs Moduli (GPa) = 76.35593 31.65721 96.04292
#
# Poissons Ratio (x) = -0.07160 0.18052
# Poissons Ratio (y) = -0.17269 0.15661
# Poissons Ratio (z) = 0.14352 0.05162
#
# Static dielectric constant tensor:
#      x y z
#    x 1.762120 0.000000 -0.008240 
#    y 0.000000 1.819950 0.000000 
#    z -0.008240 0.000000 1.795300 
# 
# From -- ./inp_files/145716.got.cif
#   From: 2010.05.17/outbox.cif.g08.bks.cpg/sg15_73_cif.got.tgz:145716.got - 2010.06.03 18:47:42.
