data_PCOD9301759
_publ_section_title
;
Structure prediction by ZEFSAII (Michael W. Deem and Ramdas Pophale) SiO2 
 PCOD9301759
Probable space group: C 2/C
;
_chemical_formula_sum "Si O2"
_cell_formula_units_Z 56
_cell_length_a 15.183123
_cell_length_b 24.828158
_cell_length_c 8.983677
_cell_angle_alpha 90.000000
_cell_angle_beta 112.092455
_cell_angle_gamma 90.000000
_cell_volume 3137.919528
_symmetry_space_group_name_H-M "C 2/C"
_symmetry_group_IT_number 15
_symmetry_cell_setting 'monoclinic'
loop_
_space_group_symop_operation_xyz
x,y,z
-x,y,1/2-z
-x,-y,-z
x,-y,1/2+z
1/2+x,1/2+y,z
1/2-x,1/2+y,1/2-z
1/2-x,1/2-y,-z
1/2+x,1/2-y,1/2+z
loop_
_atom_site_type_symbol
_atom_site_label
_atom_site_fract_x
_atom_site_fract_y
_atom_site_fract_z
Si Si1 0.154031 0.608267 0.550763
Si Si2 0.488857 0.816434 0.998288
Si Si3 0.300853 0.300809 0.112775
Si Si4 0.312141 0.700231 0.979227
Si Si5 0.833848 0.613551 0.580092
Si Si6 0.000000 0.761006 0.750000
Si Si7 0.421545 0.004376 0.575018
Si Si8 0.500000 0.263444 0.250000
O O1 0.240805 0.644677 0.546098
O O2 0.156238 0.605583 0.734084
O O3 0.139455 0.550366 0.466702
O O4 0.058123 0.641826 0.464385
O O5 0.456999 0.775771 0.849438
O O6 0.410995 0.847816 0.046699
O O7 0.543942 0.778531 0.151950
O O8 0.303321 0.297925 0.294758
O O9 0.411450 0.298205 0.135126
O O10 0.250000 0.250000 0.000000
O O11 0.417340 0.707295 0.112925
O O12 0.250000 0.750000 0.000000
O O13 0.264759 0.644656 0.002879
O O14 0.851890 0.555185 0.522244
O O15 0.500000 0.014476 0.750000
O O16 0.500000 0.000000 0.500000
#
# Coordination Sequence:
#
# PCOD9301759 Si02
#       8
#     8   8   8   8   8   4   8   4
#     4  11  22  37  57  82 118 153 189 238 289 343
#     4  12  20  33  58  83 121 151 188 239 287 354
#     4  11  23  38  56  84 121 158 190 241 297 348
#     4  11  22  37  60  84 115 159 199 237 287 351
#     4  11  21  39  56  83 116 156 191 232 290 348
#     4  12  20  36  58  88 114 160 200 232 290 350
#     4  12  23  37  59  85 114 153 193 235 292 348
#     4  12  24  36  54  90 122 156 194 236 298 350
#
# _framework density 17.846219000000001
#
# number of rings (size 3 to 8) (size 9 to 14) (size 15 to 20)
#    0.000    0.571    8.571    0.857    1.000    0.000 
#    2.571    0.000    0.000    0.857    0.000    4.000 
#    0.000    0.000    0.000    0.000    0.000    0.000 
#
# Total GULP energy -156005.776652 kJ/mol
# GULP energy per Si atom -5571.634880 kJ/mol
# Density = 1.780560 g / cm^3
# Si number density = 17.846219 Si / 1000 Ang^3
#
#
#
# Elastic Constant Matrix: (Units=GPa)
#
#
# Indices 1 2 3 4 5 6 
#
# 1 81.2786 56.2456 8.0944 0.0000 22.8757 0.0000
# 2 56.2456 135.8367 12.5549 0.0000 15.8691 0.0000
# 3 8.0944 12.5549 29.1398 0.0000 9.3914 0.0000
# 4 0.0000 0.0000 0.0000 21.6899 0.0000 4.5095
# 5 22.8757 15.8691 9.3914 0.0000 27.6807 0.0000
# 6 0.0000 0.0000 0.0000 4.5095 0.0000 37.1168
#
#
#
# Elastic Compliance Matrix: (Units=1/GPa)
#
#
# Indices 1 2 3 4 5 6 
#
# 1 0.021043 -0.007259 0.001736 0.000000 -0.013817 0.000000
# 2 -0.007259 0.010520 -0.002813 0.000000 0.000923 0.000000
# 3 0.001736 -0.002813 0.039285 0.000000 -0.013150 0.000000
# 4 0.000000 0.000000 0.000000 0.047299 0.000000 -0.005747
# 5 -0.013817 0.000923 -0.013150 0.000000 0.051477 0.000000
# 6 0.000000 0.000000 0.000000 -0.005747 0.000000 0.027640
#
#
# Mechanical properties :
#
#
# Convention : Reuss Voigt Hill
#
# Bulk Modulus (GPa) = 18.45911 44.44943 31.45427
# Shear Modulus (GPa) = 21.55196 28.58817 25.07006
#
# Velocity S-wave (km/s) = 3.47889 4.00674 3.75211
# Velocity P-wave (km/s) = 5.14809 6.80928 6.03610
#
# Compressibility (1/GPa) = 0.05417379
#
# Stress axis : x y z
#
# Youngs Moduli (GPa) = 47.52190 95.05798 25.45471
#
# Poissons Ratio (x) = 0.69006 -0.04418
# Poissons Ratio (y) = 0.34498 0.07161
# Poissons Ratio (z) = -0.08248 0.26744
#
# Static dielectric constant tensor:
#      x y z
#    x 1.633160 0.000000 -0.017450 
#    y 0.000000 1.626480 0.000000 
#    z -0.017450 0.000000 1.645050 
# 
# From -- ./inp_files/42300.got.cif
#   From: 2010.05.17/outbox.cif.g08.bks.cpg/sg15_22_cif.got.tgz:42300.got - 2010.06.03 18:47:42.
