data_PCOD9301605
_publ_section_title
;
Structure prediction by ZEFSAII (Michael W. Deem and Ramdas Pophale) SiO2 
 PCOD9301605
Probable space group: C 2/C
;
_chemical_formula_sum "Si O2"
_cell_formula_units_Z 52
_cell_length_a 21.746576
_cell_length_b 24.219631
_cell_length_c 15.657475
_cell_angle_alpha 90.000000
_cell_angle_beta 161.485411
_cell_angle_gamma 90.000000
_cell_volume 2618.707177
_symmetry_space_group_name_H-M "C 2/C"
_symmetry_group_IT_number 15
_symmetry_cell_setting 'monoclinic'
loop_
_space_group_symop_operation_xyz
x,y,z
-x,y,1/2-z
-x,-y,-z
x,-y,1/2+z
1/2+x,1/2+y,z
1/2-x,1/2+y,1/2-z
1/2-x,1/2-y,-z
1/2+x,1/2-y,1/2+z
loop_
_atom_site_type_symbol
_atom_site_label
_atom_site_fract_x
_atom_site_fract_y
_atom_site_fract_z
Si Si1 0.781101 0.041388 0.932284
Si Si2 0.169303 0.318848 0.714987
Si Si3 0.527348 0.765828 0.693661
Si Si4 0.542352 0.888292 0.406246
Si Si5 0.776004 0.000837 0.731438
Si Si6 0.000000 0.575233 0.250000
Si Si7 0.731130 0.417605 0.542374
O O1 0.644502 0.088254 0.789591
O O2 0.764304 0.028575 0.809701
O O3 0.000000 0.052068 0.250000
O O4 0.722162 0.982247 0.894303
O O5 0.025249 0.293195 0.596749
O O6 0.102628 0.330908 0.530975
O O7 0.369317 0.283874 0.982678
O O8 0.195723 0.380929 0.784152
O O9 0.500000 0.795101 0.750000
O O10 0.750000 0.750000 0.000000
O O11 0.500000 0.882263 0.250000
O O12 0.697682 0.938217 0.621790
O O13 0.645103 0.037890 0.497323
O O14 0.000000 0.000000 0.000000
O O15 0.153979 0.604278 0.388773
O O16 0.500000 0.413771 0.250000
#
# Coordination Sequence:
#
# PCOD9301605 Si02
#       7
#     8   8   8   8   8   4   8
#     4  11  22  40  61  92 141 182 223 273 322 387
#     4  11  23  41  67  92 124 169 216 273 351 397
#     4   9  20  43  66  91 124 151 201 284 350 395
#     4  12  23  42  63  94 136 182 222 270 329 396
#     4  12  22  39  59  90 137 188 223 271 320 390
#     4  12  24  36  60  96 138 182 224 256 326 400
#     4  11  21  37  60  97 132 171 218 268 322 404
#
# _framework density 19.857126000000001
#
# number of rings (size 3 to 8) (size 9 to 14) (size 15 to 20)
#    0.000    0.923    3.846    5.538    1.077    0.000 
#    0.000    5.385    0.000    0.000    0.000    0.000 
#    0.000    0.000    0.000    0.000    0.000    0.000 
#
# Total GULP energy -144895.089792 kJ/mol
# GULP energy per Si atom -5572.888069 kJ/mol
# Density = 1.981193 g / cm^3
# Si number density = 19.857126 Si / 1000 Ang^3
#
#
#
# Elastic Constant Matrix: (Units=GPa)
#
#
# Indices 1 2 3 4 5 6 
#
# 1 175.8770 34.6501 74.8579 0.0000 -13.2158 0.0000
# 2 34.6501 48.3372 33.9325 0.0000 -4.7741 0.0000
# 3 74.8579 33.9325 115.9938 0.0000 -3.2654 0.0000
# 4 0.0000 0.0000 0.0000 11.0089 0.0000 -3.0655
# 5 -13.2158 -4.7741 -3.2654 0.0000 40.8123 0.0000
# 6 0.0000 0.0000 0.0000 -3.0655 0.0000 32.8451
#
#
#
# Elastic Compliance Matrix: (Units=1/GPa)
#
#
# Indices 1 2 3 4 5 6 
#
# 1 0.008269 -0.002545 -0.004535 0.000000 0.002017 0.000000
# 2 -0.002545 0.027063 -0.006223 0.000000 0.001844 0.000000
# 3 -0.004535 -0.006223 0.013337 0.000000 -0.001129 0.000000
# 4 0.000000 0.000000 0.000000 0.093259 0.000000 0.008704
# 5 0.002017 0.001844 -0.001129 0.000000 0.025281 0.000000
# 6 0.000000 0.000000 0.000000 0.008704 0.000000 0.031258
#
#
# Mechanical properties :
#
#
# Convention : Reuss Voigt Hill
#
# Bulk Modulus (GPa) = 45.32488 69.67655 57.50071
# Shear Modulus (GPa) = 21.51222 30.05111 25.78167
#
# Velocity S-wave (km/s) = 3.29500 3.89442 3.60718
# Velocity P-wave (km/s) = 6.11155 7.44225 6.80949
#
# Compressibility (1/GPa) = 0.02206294
#
# Stress axis : x y z
#
# Youngs Moduli (GPa) = 120.93305 36.95150 74.98121
#
# Poissons Ratio (x) = 0.09403 0.34007
# Poissons Ratio (y) = 0.30772 0.46659
# Poissons Ratio (z) = 0.54847 0.22994
#
# Static dielectric constant tensor:
#      x y z
#    x 2.029220 0.000000 -0.121840 
#    y 0.000000 1.704970 0.000000 
#    z -0.121840 0.000000 1.756330 
# 
# From -- ./inp_files/169878.got.cif
#   From: 2010.05.17/outbox.cif.g08.bks.cpg/sg15_85_cif.got.tgz:169878.got - 2010.06.03 18:47:42.
