data_PCOD9301620
_publ_section_title
;
Structure prediction by ZEFSAII (Michael W. Deem and Ramdas Pophale) SiO2 
 PCOD9301620
Probable space group: C 2/C
;
_chemical_formula_sum "Si O2"
_cell_formula_units_Z 40
_cell_length_a 22.386948
_cell_length_b 18.938002
_cell_length_c 14.398645
_cell_angle_alpha 90.000000
_cell_angle_beta 160.723725
_cell_angle_gamma 90.000000
_cell_volume 2015.241914
_symmetry_space_group_name_H-M "C 2/C"
_symmetry_group_IT_number 15
_symmetry_cell_setting 'monoclinic'
loop_
_space_group_symop_operation_xyz
x,y,z
-x,y,1/2-z
-x,-y,-z
x,-y,1/2+z
1/2+x,1/2+y,z
1/2-x,1/2+y,1/2-z
1/2-x,1/2-y,-z
1/2+x,1/2-y,1/2+z
loop_
_atom_site_type_symbol
_atom_site_label
_atom_site_fract_x
_atom_site_fract_y
_atom_site_fract_z
Si Si1 0.547249 0.402548 0.060004
Si Si2 0.908885 0.007887 0.715648
Si Si3 0.665034 0.849237 0.563702
Si Si4 0.335171 0.316384 0.432589
Si Si5 0.422085 0.926100 0.349004
O O1 0.550559 0.465061 0.988035
O O2 0.343121 0.388821 0.792667
O O3 0.647291 0.426854 0.300872
O O4 0.608219 0.336336 0.088761
O O5 0.000000 0.024810 0.750000
O O6 0.742965 0.954591 0.456814
O O7 0.709914 0.766182 0.632655
O O8 0.583053 0.884076 0.535386
O O9 0.500000 0.856658 0.250000
O O10 0.175364 0.369500 0.227142
O O11 0.500000 0.326863 0.750000
O O12 0.500000 0.000000 0.500000
#
# Coordination Sequence:
#
# PCOD9301620 Si02
#       5
#     8   8   8   8   8
#     4  11  21  37  63  82 121 161 191 242 307 370
#     4  11  21  38  58  87 121 156 199 241 305 358
#     4  11  22  35  60  94 122 155 201 256 308 359
#     4  11  21  40  60  88 128 159 196 253 313 364
#     4  12  23  37  61  90 127 154 204 261 294 353
#
# _framework density 19.848732999999999
#
# number of rings (size 3 to 8) (size 9 to 14) (size 15 to 20)
#    0.000    0.800    6.000    2.400    2.800    3.200 
#    0.000    0.000    0.000   13.200    0.000    0.000 
#    0.000    0.000    0.000    0.000    0.000    0.000 
#
# Total GULP energy -111537.840231 kJ/mol
# GULP energy per Si atom -5576.892012 kJ/mol
# Density = 1.980356 g / cm^3
# Si number density = 19.848733 Si / 1000 Ang^3
#
#
#
# Elastic Constant Matrix: (Units=GPa)
#
#
# Indices 1 2 3 4 5 6 
#
# 1 144.2220 51.3552 35.4451 0.0000 15.6124 0.0000
# 2 51.3552 122.4267 34.8077 0.0000 11.3625 0.0000
# 3 35.4451 34.8077 28.8373 0.0000 10.7504 0.0000
# 4 0.0000 0.0000 0.0000 34.9245 0.0000 -2.6985
# 5 15.6124 11.3625 10.7504 0.0000 26.7735 0.0000
# 6 0.0000 0.0000 0.0000 -2.6985 0.0000 37.2600
#
#
#
# Elastic Compliance Matrix: (Units=1/GPa)
#
#
# Indices 1 2 3 4 5 6 
#
# 1 0.010055 -0.001095 -0.010614 0.000000 -0.001137 0.000000
# 2 -0.001095 0.012573 -0.014206 0.000000 0.001007 0.000000
# 3 -0.010614 -0.014206 0.070934 0.000000 -0.016264 0.000000
# 4 0.000000 0.000000 0.000000 0.028794 0.000000 0.002085
# 5 -0.001137 0.001007 -0.016264 0.000000 0.044117 0.000000
# 6 0.000000 0.000000 0.000000 0.002085 0.000000 0.026989
#
#
# Mechanical properties :
#
#
# Convention : Reuss Voigt Hill
#
# Bulk Modulus (GPa) = 23.96199 59.85577 41.90888
# Shear Modulus (GPa) = 19.28999 31.38348 25.33673
#
# Velocity S-wave (km/s) = 3.12083 3.98066 3.57668
# Velocity P-wave (km/s) = 5.00846 7.16582 6.18197
#
# Compressibility (1/GPa) = 0.04173277
#
# Stress axis : x y z
#
# Youngs Moduli (GPa) = 99.45058 79.53698 14.09770
#
# Poissons Ratio (x) = 0.08707 0.14964
# Poissons Ratio (y) = 0.10886 0.20027
# Poissons Ratio (z) = 1.05559 1.12987
#
# Static dielectric constant tensor:
#      x y z
#    x 1.762350 0.000000 -0.031320 
#    y 0.000000 1.719500 0.000000 
#    z -0.031320 0.000000 1.718470 
# 
# From -- ./inp_files/29077.got.cif
#   From: 2010.05.17/outbox.cif.g08.bks.cpg/sg15_15_cif.got.tgz:29077.got - 2010.06.03 18:47:42.
