data_PCOD9301139
_publ_section_title
;
Structure prediction by ZEFSAII (Michael W. Deem and Ramdas Pophale) SiO2 
 PCOD9301139
Probable space group: C 2/C
;
_chemical_formula_sum "Si O2"
_cell_formula_units_Z 44
_cell_length_a 20.778373
_cell_length_b 5.736966
_cell_length_c 14.522939
_cell_angle_alpha 90.000000
_cell_angle_beta 102.308438
_cell_angle_gamma 90.000000
_cell_volume 1691.411189
_symmetry_space_group_name_H-M "C 2/C"
_symmetry_group_IT_number 15
_symmetry_cell_setting 'monoclinic'
loop_
_space_group_symop_operation_xyz
x,y,z
-x,y,1/2-z
-x,-y,-z
x,-y,1/2+z
1/2+x,1/2+y,z
1/2-x,1/2+y,1/2-z
1/2-x,1/2-y,-z
1/2+x,1/2-y,1/2+z
loop_
_atom_site_type_symbol
_atom_site_label
_atom_site_fract_x
_atom_site_fract_y
_atom_site_fract_z
Si Si1 0.000000 0.140990 0.250000
Si Si2 0.985848 0.178260 0.899221
Si Si3 0.860159 0.081817 0.984773
Si Si4 0.754031 0.436719 0.202225
Si Si5 0.391828 0.979907 0.290608
Si Si6 0.616391 0.087186 0.491592
O O1 0.938520 0.286071 0.265505
O O2 0.022172 0.008672 0.348324
O O3 0.933694 0.080099 0.958339
O O4 0.935554 0.290465 0.810421
O O5 0.039042 0.370841 0.945736
O O6 0.801897 0.087316 0.891313
O O7 0.858787 0.334293 0.032027
O O8 0.850883 0.830326 0.029048
O O9 0.735018 0.670413 0.255868
O O10 0.829094 0.511983 0.208376
O O11 0.375703 0.925217 0.393611
#
# Coordination Sequence:
#
# PCOD9301139 Si02
#       6
#     4   8   8   8   8   8
#     4  12  24  40  60  88 134 166 206 242 326 380
#     4  11  23  39  60  93 126 160 207 259 311 367
#     4  11  20  38  61  97 118 157 203 262 310 355
#     4  12  20  37  63  94 128 155 207 263 308 364
#     4  11  23  39  62  96 122 169 204 258 314 366
#     4  11  22  37  66  92 123 155 211 262 311 351
#
# _framework density 26.013784000000001
#
# number of rings (size 3 to 8) (size 9 to 14) (size 15 to 20)
#    0.000    0.727    7.273    3.273    2.545    0.000 
#    0.000    0.000    0.000    2.182    0.000    0.000 
#    0.000    0.000    0.000    0.000    0.000    0.000 
#
# Total GULP energy -122882.486838 kJ/mol
# GULP energy per Si atom -5585.567584 kJ/mol
# Density = 2.595458 g / cm^3
# Si number density = 26.013784 Si / 1000 Ang^3
#
#
#
# Elastic Constant Matrix: (Units=GPa)
#
#
# Indices 1 2 3 4 5 6 
#
# 1 7.6371 9.5807 49.0792 0.0000 30.4348 0.0000
# 2 9.5807 187.6426 31.7147 0.0000 -1.1183 0.0000
# 3 49.0792 31.7147 91.3414 0.0000 5.4937 0.0000
# 4 0.0000 0.0000 0.0000 45.5042 0.0000 24.9601
# 5 30.4348 -1.1183 5.4937 0.0000 41.5814 0.0000
# 6 0.0000 0.0000 0.0000 24.9601 0.0000 44.5920
#
#
#
# Elastic Compliance Matrix: (Units=1/GPa)
#
#
# Indices 1 2 3 4 5 6 
#
# 1 -0.026873 -0.000829 0.013654 0.000000 0.017843 0.000000
# 2 -0.000829 0.005643 -0.001572 0.000000 0.000966 0.000000
# 3 0.013654 -0.001572 0.004799 0.000000 -0.010670 0.000000
# 4 0.000000 0.000000 0.000000 0.031713 0.000000 -0.017751
# 5 0.017843 0.000966 -0.010670 0.000000 0.012425 0.000000
# 6 0.000000 0.000000 0.000000 -0.017751 0.000000 0.032362
#
#
# Mechanical properties :
#
#
# Convention : Reuss Voigt Hill
#
# Bulk Modulus (GPa) = 164.61527 51.93004 108.27266
# Shear Modulus (GPa) = 126.30240 39.41863 82.86051
#
# Velocity S-wave (km/s) = 6.97549 3.89691 5.64993
# Velocity P-wave (km/s) = 11.32670 6.34458 9.18008
#
# Compressibility (1/GPa) = 0.00607477
#
# Stress axis : x y z
#
# Youngs Moduli (GPa) = -37.21207 177.20909 208.38157
#
# Poissons Ratio (x) = 0.14697 -2.84526
# Poissons Ratio (y) = -0.03086 0.32754
# Poissons Ratio (z) = 0.50810 0.27854
#
# Static dielectric constant tensor:
#      x y z
#    x 2.020570 0.000000 0.035850 
#    y 0.000000 2.147120 0.000000 
#    z 0.035850 0.000000 2.066490 
# 
# From -- ./inp_files/217850.got.cif
#   From: 2010.05.17/outbox.cif.g08.bks.cpg/sg15_109_cif.got.tgz:217850.got - 2010.06.03 18:47:42.
