data_PCOD9301013
_publ_section_title
;
Structure prediction by ZEFSAII (Michael W. Deem and Ramdas Pophale) SiO2 
 PCOD9301013
Probable space group: C 2/C
;
_chemical_formula_sum "Si O2"
_cell_formula_units_Z 60
_cell_length_a 13.969521
_cell_length_b 11.960376
_cell_length_c 18.416710
_cell_angle_alpha 90.000000
_cell_angle_beta 91.743126
_cell_angle_gamma 90.000000
_cell_volume 3075.653310
_symmetry_space_group_name_H-M "C 2/C"
_symmetry_group_IT_number 15
_symmetry_cell_setting 'monoclinic'
loop_
_space_group_symop_operation_xyz
x,y,z
-x,y,1/2-z
-x,-y,-z
x,-y,1/2+z
1/2+x,1/2+y,z
1/2-x,1/2+y,1/2-z
1/2-x,1/2-y,-z
1/2+x,1/2-y,1/2+z
loop_
_atom_site_type_symbol
_atom_site_label
_atom_site_fract_x
_atom_site_fract_y
_atom_site_fract_z
Si Si1 0.180609 0.093968 0.725231
Si Si2 0.865558 0.350510 0.297813
Si Si3 0.886167 0.286448 0.665221
Si Si4 0.200489 0.225946 0.075733
Si Si5 0.000000 0.526724 0.250000
Si Si6 0.484737 0.377448 0.570855
Si Si7 0.961421 0.131461 0.910523
Si Si8 0.404705 0.378337 0.720965
O O1 0.292741 0.117952 0.731838
O O2 0.137318 0.189303 0.777044
O O3 0.125382 0.109684 0.647910
O O4 0.172385 0.972025 0.762813
O O5 0.820224 0.336287 0.376269
O O6 0.946437 0.442486 0.302393
O O7 0.896903 0.226917 0.273873
O O8 0.788425 0.325633 0.623789
O O9 0.929806 0.391709 0.706277
O O10 0.965533 0.226522 0.615988
O O11 0.097281 0.162690 0.069578
O O12 0.250000 0.250000 0.000000
O O13 0.485388 0.511649 0.581537
O O14 0.436399 0.343907 0.493786
O O15 0.424565 0.338880 0.639762
O O16 0.500000 0.442513 0.750000
#
# Coordination Sequence:
#
# PCOD9301013 Si02
#       8
#     8   8   8   8   4   8   8   8
#     4  11  22  38  63  94 119 160 216 262 307 374
#     4  11  26  39  65  92 126 163 212 259 317 383
#     4  11  22  37  64  90 125 165 208 256 310 380
#     4  11  22  41  64  95 123 165 212 257 314 384
#     4  12  24  42  60  92 132 166 210 260 322 376
#     4  11  22  35  65  90 129 157 206 264 309 366
#     4  11  20  36  57  97 120 160 206 260 314 358
#     4  12  20  41  65  89 121 162 212 255 313 377
#
# _framework density 19.508049
#
# number of rings (size 3 to 8) (size 9 to 14) (size 15 to 20)
#    0.000    0.800    7.333    0.000    5.600    0.000 
#    0.000    1.333    0.000    0.000    0.000    0.000 
#    0.000    0.000    0.000    0.000    0.000    0.000 
#
# Total GULP energy -167144.395418 kJ/mol
# GULP energy per Si atom -5571.479847 kJ/mol
# Density = 1.946365 g / cm^3
# Si number density = 19.508049 Si / 1000 Ang^3
#
#
#
# Elastic Constant Matrix: (Units=GPa)
#
#
# Indices 1 2 3 4 5 6 
#
# 1 46.6566 20.6338 19.5359 0.0000 7.1801 0.0000
# 2 20.6338 89.9807 21.4899 0.0000 -5.5139 0.0000
# 3 19.5359 21.4899 136.5241 0.0000 -0.5773 0.0000
# 4 0.0000 0.0000 0.0000 10.0286 0.0000 8.5769
# 5 7.1801 -5.5139 -0.5773 0.0000 29.4280 0.0000
# 6 0.0000 0.0000 0.0000 8.5769 0.0000 15.3878
#
#
#
# Elastic Compliance Matrix: (Units=1/GPa)
#
#
# Indices 1 2 3 4 5 6 
#
# 1 0.026388 -0.005825 -0.002891 0.000000 -0.007586 0.000000
# 2 -0.005825 0.012968 -0.001192 0.000000 0.003828 0.000000
# 3 -0.002891 -0.001192 0.007929 0.000000 0.000638 0.000000
# 4 0.000000 0.000000 0.000000 0.190550 0.000000 -0.106210
# 5 -0.007586 0.003828 0.000638 0.000000 0.036562 0.000000
# 6 0.000000 0.000000 0.000000 -0.106210 0.000000 0.124187
#
#
# Mechanical properties :
#
#
# Convention : Reuss Voigt Hill
#
# Bulk Modulus (GPa) = 36.40520 44.05339 40.22929
# Shear Modulus (GPa) = 11.69438 25.06900 18.38169
#
# Velocity S-wave (km/s) = 2.45105 3.58866 3.07296
# Velocity P-wave (km/s) = 5.16840 6.30892 5.76693
#
# Compressibility (1/GPa) = 0.02746861
#
# Stress axis : x y z
#
# Youngs Moduli (GPa) = 37.89667 77.10992 126.12471
#
# Poissons Ratio (x) = 0.44920 0.36463
# Poissons Ratio (y) = 0.22077 0.15028
# Poissons Ratio (z) = 0.10956 0.09188
#
# Static dielectric constant tensor:
#      x y z
#    x 1.744110 0.000000 -0.001870 
#    y 0.000000 1.668360 0.000000 
#    z -0.001870 0.000000 1.741170 
# 
# From -- ./inp_files/204044.got.cif
#   From: 2010.05.17/outbox.cif.g08.bks.cpg/sg15_103_cif.got.tgz:204044.got - 2010.06.03 18:47:42.
