data_PCOD9301539
_publ_section_title
;
Structure prediction by ZEFSAII (Michael W. Deem and Ramdas Pophale) SiO2 
 PCOD9301539
Probable space group: C 2/C
;
_chemical_formula_sum "Si O2"
_cell_formula_units_Z 48
_cell_length_a 14.134790
_cell_length_b 8.453248
_cell_length_c 18.323145
_cell_angle_alpha 90.000000
_cell_angle_beta 105.717428
_cell_angle_gamma 90.000000
_cell_volume 2107.478166
_symmetry_space_group_name_H-M "C 2/C"
_symmetry_group_IT_number 15
_symmetry_cell_setting 'monoclinic'
loop_
_space_group_symop_operation_xyz
x,y,z
-x,y,1/2-z
-x,-y,-z
x,-y,1/2+z
1/2+x,1/2+y,z
1/2-x,1/2+y,1/2-z
1/2-x,1/2-y,-z
1/2+x,1/2-y,1/2+z
loop_
_atom_site_type_symbol
_atom_site_label
_atom_site_fract_x
_atom_site_fract_y
_atom_site_fract_z
Si Si1 0.251015 0.062695 0.987229
Si Si2 0.353541 0.065854 0.728122
Si Si3 0.032308 0.868262 0.681110
Si Si4 0.354607 0.056911 0.381559
Si Si5 0.650289 0.587152 0.597577
Si Si6 0.941274 0.414780 0.101403
O O1 0.168408 0.988683 0.022063
O O2 0.351699 0.981666 0.037203
O O3 0.250000 0.250000 0.000000
O O4 0.261684 0.017905 0.904527
O O5 0.394359 0.227632 0.774240
O O6 0.336202 0.946583 0.790886
O O7 0.253697 0.092102 0.662823
O O8 0.427254 0.009883 0.679401
O O9 0.079744 0.982705 0.632656
O O10 0.000000 0.948820 0.750000
O O11 0.945214 0.770258 0.623069
O O12 0.379556 0.231424 0.414221
O O13 0.454098 0.955355 0.411258
#
# Coordination Sequence:
#
# PCOD9301539 Si02
#       6
#     8   8   8   8   8   8
#     4  11  23  40  59  78 110 154 193 229 284 345
#     4   9  19  37  59  81 112 151 186 225 276 336
#     4   9  18  36  59  82 112 150 187 229 284 338
#     4  11  21  36  58  86 114 145 189 237 280 333
#     4  11  22  36  56  87 116 143 185 236 281 333
#     4   9  20  39  59  80 110 149 189 230 279 339
#
# _framework density 22.776036999999999
#
# number of rings (size 3 to 8) (size 9 to 14) (size 15 to 20)
#    0.000    2.000    0.000    5.500    0.000    2.667 
#    0.000    8.333    0.000    0.000    0.000    0.000 
#    0.000    0.000    0.000    0.000    0.000    0.000 
#
# Total GULP energy -133998.262248 kJ/mol
# GULP energy per Si atom -5583.260927 kJ/mol
# Density = 2.272420 g / cm^3
# Si number density = 22.776037 Si / 1000 Ang^3
#
#
#
# Elastic Constant Matrix: (Units=GPa)
#
#
# Indices 1 2 3 4 5 6 
#
# 1 64.2461 21.3979 36.0734 0.0000 -38.9996 0.0000
# 2 21.3979 91.5015 33.1277 0.0000 -40.5790 0.0000
# 3 36.0734 33.1277 100.5834 0.0000 -45.7949 0.0000
# 4 0.0000 0.0000 0.0000 24.9805 0.0000 -2.6619
# 5 -38.9996 -40.5790 -45.7949 0.0000 67.3046 0.0000
# 6 0.0000 0.0000 0.0000 -2.6619 0.0000 24.2512
#
#
#
# Elastic Compliance Matrix: (Units=1/GPa)
#
#
# Indices 1 2 3 4 5 6 
#
# 1 0.024867 0.001073 -0.003502 0.000000 0.012674 0.000000
# 2 0.001073 0.015062 -0.001344 0.000000 0.008788 0.000000
# 3 -0.003502 -0.001344 0.014992 0.000000 0.007361 0.000000
# 4 0.000000 0.000000 0.000000 0.040505 0.000000 0.004446
# 5 0.012674 0.008788 0.007361 0.000000 0.032509 0.000000
# 6 0.000000 0.000000 0.000000 0.004446 0.000000 0.041723
#
#
# Mechanical properties :
#
#
# Convention : Reuss Voigt Hill
#
# Bulk Modulus (GPa) = 21.10806 48.61433 34.86119
# Shear Modulus (GPa) = 25.90728 34.35606 30.13167
#
# Velocity S-wave (km/s) = 3.37631 3.88806 3.64119
# Velocity P-wave (km/s) = 4.94844 6.44569 5.74604
#
# Compressibility (1/GPa) = 0.04737527
#
# Stress axis : x y z
#
# Youngs Moduli (GPa) = 40.21358 66.39256 66.70154
#
# Poissons Ratio (x) = -0.07124 0.23356
# Poissons Ratio (y) = -0.04315 0.08967
# Poissons Ratio (z) = 0.14081 0.08926
#
# Static dielectric constant tensor:
#      x y z
#    x 1.811130 0.000000 -0.125600 
#    y 0.000000 1.799210 0.000000 
#    z -0.125600 0.000000 1.720430 
# 
# From -- ./inp_files/208668.got.cif
#   From: 2010.05.17/outbox.cif.g08.bks.cpg/sg15_105_cif.got.tgz:208668.got - 2010.06.03 18:47:42.
