data_PCOD9301836
_publ_section_title
;
Structure prediction by ZEFSAII (Michael W. Deem and Ramdas Pophale) SiO2 
 PCOD9301836
Probable space group: C 2/C
;
_chemical_formula_sum "Si O2"
_cell_formula_units_Z 56
_cell_length_a 8.944634
_cell_length_b 15.922404
_cell_length_c 21.286361
_cell_angle_alpha 90.000000
_cell_angle_beta 124.089489
_cell_angle_gamma 90.000000
_cell_volume 2510.663738
_symmetry_space_group_name_H-M "C 2/C"
_symmetry_group_IT_number 15
_symmetry_cell_setting 'monoclinic'
loop_
_space_group_symop_operation_xyz
x,y,z
-x,y,1/2-z
-x,-y,-z
x,-y,1/2+z
1/2+x,1/2+y,z
1/2-x,1/2+y,1/2-z
1/2-x,1/2-y,-z
1/2+x,1/2-y,1/2+z
loop_
_atom_site_type_symbol
_atom_site_label
_atom_site_fract_x
_atom_site_fract_y
_atom_site_fract_z
Si Si1 0.389839 0.161633 0.173918
Si Si2 0.604890 0.047981 0.608528
Si Si3 0.236497 0.124094 0.483554
Si Si4 0.068842 0.795539 0.513978
Si Si5 0.560734 0.862032 0.584747
Si Si6 0.418144 0.444532 0.082163
Si Si7 0.310317 0.017539 0.725789
O O1 0.500000 0.214994 0.250000
O O2 0.534598 0.147099 0.152476
O O3 0.325546 0.075229 0.194416
O O4 0.220237 0.203845 0.102549
O O5 0.436883 0.111347 0.560427
O O6 0.774989 0.069051 0.604748
O O7 0.516864 0.959570 0.564727
O O8 0.677755 0.027338 0.695782
O O9 0.258412 0.145813 0.414460
O O10 0.119762 0.188005 0.495788
O O11 0.130619 0.035183 0.459094
O O12 0.097578 0.873760 0.474294
O O13 0.061008 0.710324 0.473385
O O14 0.622983 0.445765 0.156371
O O15 0.500000 0.059728 0.750000
#
# Coordination Sequence:
#
# PCOD9301836 Si02
#       7
#     8   8   8   8   8   8   8
#     4  11  22  40  64  95 128 177 218 269 329 402
#     4  11  22  42  69  96 129 176 226 274 332 395
#     4  11  23  41  68  96 132 172 226 272 329 400
#     4  12  24  41  67 102 133 172 221 279 340 397
#     4  11  23  42  65  96 130 171 216 276 335 400
#     4  11  23  39  68 100 128 171 227 276 323 402
#     4  11  21  39  67  95 130 170 227 273 329 389
#
# _framework density 22.304859
#
# number of rings (size 3 to 8) (size 9 to 14) (size 15 to 20)
#    0.000    0.857    4.286    6.000    0.000    0.000 
#    0.000    3.571    0.000    6.857    0.000    0.000 
#    0.000    0.000    0.000    0.000    0.000    0.000 
#
# Total GULP energy -156286.424419 kJ/mol
# GULP energy per Si atom -5581.658015 kJ/mol
# Density = 2.225409 g / cm^3
# Si number density = 22.304859 Si / 1000 Ang^3
#
#
#
# Elastic Constant Matrix: (Units=GPa)
#
#
# Indices 1 2 3 4 5 6 
#
# 1 142.4500 35.6929 57.6827 0.0000 -2.7201 0.0000
# 2 35.6929 53.3132 43.5951 0.0000 -2.8271 0.0000
# 3 57.6827 43.5951 151.8500 0.0000 7.1938 0.0000
# 4 0.0000 0.0000 0.0000 20.3491 0.0000 1.2833
# 5 -2.7201 -2.8271 7.1938 0.0000 54.8479 0.0000
# 6 0.0000 0.0000 0.0000 1.2833 0.0000 37.1133
#
#
#
# Elastic Compliance Matrix: (Units=1/GPa)
#
#
# Indices 1 2 3 4 5 6 
#
# 1 0.008978 -0.004147 -0.002245 0.000000 0.000526 0.000000
# 2 -0.004147 0.026694 -0.006182 0.000000 0.001981 0.000000
# 3 -0.002245 -0.006182 0.009291 0.000000 -0.001649 0.000000
# 4 0.000000 0.000000 0.000000 0.049250 0.000000 -0.001703
# 5 0.000526 0.001981 -0.001649 0.000000 0.018577 0.000000
# 6 0.000000 0.000000 0.000000 -0.001703 0.000000 0.027003
#
#
# Mechanical properties :
#
#
# Convention : Reuss Voigt Hill
#
# Bulk Modulus (GPa) = 50.46718 69.06159 59.76439
# Shear Modulus (GPa) = 29.14664 36.50489 32.82577
#
# Velocity S-wave (km/s) = 3.61881 4.04992 3.84042
# Velocity P-wave (km/s) = 6.33532 7.27317 6.82038
#
# Compressibility (1/GPa) = 0.01981486
#
# Stress axis : x y z
#
# Youngs Moduli (GPa) = 111.38084 37.46168 107.63028
#
# Poissons Ratio (x) = 0.15537 0.24160
# Poissons Ratio (y) = 0.46194 0.66537
# Poissons Ratio (z) = 0.25002 0.23159
#
# Static dielectric constant tensor:
#      x y z
#    x 1.875830 0.000000 -0.013270 
#    y 0.000000 1.829680 0.000000 
#    z -0.013270 0.000000 1.848370 
# 
# From -- ./inp_files/232807.got.cif
#   From: 2010.05.17/outbox.cif.g08.bks.cpg/sg15_117_cif.got.tgz:232807.got - 2010.06.03 18:47:42.
