data_PCOD9301308
_publ_section_title
;
Structure prediction by ZEFSAII (Michael W. Deem and Ramdas Pophale) SiO2 
 PCOD9301308
Probable space group: C 2/C
;
_chemical_formula_sum "Si O2"
_cell_formula_units_Z 64
_cell_length_a 19.216098
_cell_length_b 17.325786
_cell_length_c 16.106407
_cell_angle_alpha 90.000000
_cell_angle_beta 145.749306
_cell_angle_gamma 90.000000
_cell_volume 3018.022250
_symmetry_space_group_name_H-M "C 2/C"
_symmetry_group_IT_number 15
_symmetry_cell_setting 'monoclinic'
loop_
_space_group_symop_operation_xyz
x,y,z
-x,y,1/2-z
-x,-y,-z
x,-y,1/2+z
1/2+x,1/2+y,z
1/2-x,1/2+y,1/2-z
1/2-x,1/2-y,-z
1/2+x,1/2-y,1/2+z
loop_
_atom_site_type_symbol
_atom_site_label
_atom_site_fract_x
_atom_site_fract_y
_atom_site_fract_z
Si Si1 0.933314 0.674735 0.773034
Si Si2 0.533770 0.348255 0.684432
Si Si3 0.205926 0.067429 0.553992
Si Si4 0.023712 0.129258 0.672728
Si Si5 0.199245 0.011899 0.361479
Si Si6 0.370300 0.219422 0.171184
Si Si7 0.086656 0.555995 0.031976
Si Si8 0.746673 0.594023 0.160433
O O1 0.799289 0.637131 0.629371
O O2 0.000000 0.675629 0.750000
O O3 0.936374 0.761505 0.810399
O O4 0.004634 0.617040 0.902596
O O5 0.500000 0.346866 0.750000
O O6 0.416037 0.392080 0.531171
O O7 0.645619 0.405753 0.781243
O O8 0.188950 0.020052 0.450913
O O9 0.250230 0.998894 0.655902
O O10 0.092715 0.210980 0.729433
O O11 0.000000 0.127139 0.750000
O O12 0.895539 0.120111 0.496044
O O13 0.113295 0.057161 0.745463
O O14 0.335279 0.006801 0.458417
O O15 0.500000 0.205797 0.250000
O O16 0.325001 0.141455 0.169863
O O17 0.250000 0.250000 0.000000
O O18 0.181112 0.604008 0.182832
O O19 0.000000 0.500000 0.000000
#
# Coordination Sequence:
#
# PCOD9301308 Si02
#       8
#     8   8   8   8   8   8   8   8
#     4  11  23  42  66  96 133 176 222 272 333 400
#     4   9  21  37  68 102 123 159 223 280 321 393
#     4  11  20  40  73  95 128 172 221 276 328 400
#     4  11  20  42  72 101 129 171 233 286 330 411
#     4  11  21  41  70  96 124 177 223 265 341 408
#     4  11  22  41  71 104 136 181 235 288 338 403
#     4  12  28  44  59  98 140 176 222 278 340 405
#     4  12  24  44  64  98 144 171 226 291 334 398
#
# _framework density 21.205942
#
# number of rings (size 3 to 8) (size 9 to 14) (size 15 to 20)
#    0.000    1.000    7.500    0.375    1.750    4.500 
#    2.250    0.000    0.000    0.000    0.000    0.000 
#    0.000    0.000    0.000    0.000    0.000    0.000 
#
# Total GULP energy -178612.967467 kJ/mol
# GULP energy per Si atom -5581.655233 kJ/mol
# Density = 2.115768 g / cm^3
# Si number density = 21.205942 Si / 1000 Ang^3
#
#
#
# Elastic Constant Matrix: (Units=GPa)
#
#
# Indices 1 2 3 4 5 6 
#
# 1 19.4654 13.6177 5.2847 0.0000 16.7874 0.0000
# 2 13.6177 130.6099 14.7869 0.0000 13.9786 0.0000
# 3 5.2847 14.7869 83.9881 0.0000 6.0580 0.0000
# 4 0.0000 0.0000 0.0000 -30.4530 0.0000 25.8331
# 5 16.7874 13.9786 6.0580 0.0000 24.0061 0.0000
# 6 0.0000 0.0000 0.0000 25.8331 0.0000 -5.9544
#
#
#
# Elastic Compliance Matrix: (Units=1/GPa)
#
#
# Indices 1 2 3 4 5 6 
#
# 1 0.131587 -0.004025 -0.001123 0.000000 -0.089391 0.000000
# 2 -0.004025 0.008392 -0.001095 0.000000 -0.001796 0.000000
# 3 -0.001123 -0.001095 0.012291 0.000000 -0.001679 0.000000
# 4 0.000000 0.000000 0.000000 0.012251 0.000000 0.053152
# 5 -0.089391 -0.001796 -0.001679 0.000000 0.105636 0.000000
# 6 0.000000 0.000000 0.000000 0.053152 0.000000 0.062658
#
#
# Mechanical properties :
#
#
# Convention : Reuss Voigt Hill
#
# Bulk Modulus (GPa) = 7.15394 33.49357 20.32375
# Shear Modulus (GPa) = 12.75848 10.87802 11.81825
#
# Velocity S-wave (km/s) = 2.45551 2.26734 2.36330
# Velocity P-wave (km/s) = 3.37939 4.76268 4.12937
#
# Compressibility (1/GPa) = 0.13978305
#
# Stress axis : x y z
#
# Youngs Moduli (GPa) = 7.59955 119.15845 81.36068
#
# Poissons Ratio (x) = 0.47965 0.09140
# Poissons Ratio (y) = 0.03059 0.08907
# Poissons Ratio (z) = 0.00854 0.13045
#
# Static dielectric constant tensor:
#      x y z
#    x 1.772720 0.000000 0.023790 
#    y 0.000000 1.762100 0.000000 
#    z 0.023790 0.000000 1.753480 
# 
# From -- ./inp_files/216180.got.cif
#   From: 2010.05.17/outbox.cif.g08.bks.cpg/sg15_109_cif.got.tgz:216180.got - 2010.06.03 18:47:42.
