data_PCOD9301405
_publ_section_title
;
Structure prediction by ZEFSAII (Michael W. Deem and Ramdas Pophale) SiO2 
 PCOD9301405
Probable space group: C 2/C
;
_chemical_formula_sum "Si O2"
_cell_formula_units_Z 56
_cell_length_a 13.834140
_cell_length_b 18.400713
_cell_length_c 18.022717
_cell_angle_alpha 90.000000
_cell_angle_beta 150.011239
_cell_angle_gamma 90.000000
_cell_volume 2293.134343
_symmetry_space_group_name_H-M "C 2/C"
_symmetry_group_IT_number 15
_symmetry_cell_setting 'monoclinic'
loop_
_space_group_symop_operation_xyz
x,y,z
-x,y,1/2-z
-x,-y,-z
x,-y,1/2+z
1/2+x,1/2+y,z
1/2-x,1/2+y,1/2-z
1/2-x,1/2-y,-z
1/2+x,1/2-y,1/2+z
loop_
_atom_site_type_symbol
_atom_site_label
_atom_site_fract_x
_atom_site_fract_y
_atom_site_fract_z
Si Si1 0.782645 0.028819 0.632716
Si Si2 0.236795 0.862834 0.904426
Si Si3 0.482265 0.907389 0.821966
Si Si4 0.247095 0.756077 0.200275
Si Si5 0.870561 0.165068 0.015190
Si Si6 0.111978 0.976863 0.647351
Si Si7 0.479061 0.740750 0.657322
O O1 0.705983 0.946069 0.569479
O O2 0.814724 0.034911 0.742814
O O3 0.000000 0.029039 0.750000
O O4 0.659743 0.079389 0.496274
O O5 0.319589 0.814803 0.892561
O O6 0.000000 0.854996 0.750000
O O7 0.275215 0.832954 0.012179
O O8 0.500000 0.938620 0.750000
O O9 0.303318 0.940323 0.744729
O O10 0.440032 0.822573 0.782701
O O11 0.450449 0.723108 0.364379
O O12 0.099183 0.783637 0.165433
O O13 0.246192 0.818655 0.137410
O O14 0.972215 0.085764 0.087682
O O15 0.000000 0.000000 0.500000
O O16 0.500000 0.700670 0.750000
O O17 0.250000 0.750000 0.500000
#
# Coordination Sequence:
#
# PCOD9301405 Si02
#       7
#     8   8   8   8   8   8   8
#     4  11  20  43  70  95 136 178 218 284 346 407
#     4   9  18  38  68  91 129 168 203 269 348 402
#     4  11  25  42  67  98 134 178 233 283 339 410
#     4  11  21  41  66  91 129 172 220 266 345 407
#     4  11  22  42  66  97 131 172 217 282 348 411
#     4  12  24  45  69  98 138 182 229 285 350 415
#     4  11  24  43  63  90 133 177 225 287 339 400
#
# _framework density 24.420724
#
# number of rings (size 3 to 8) (size 9 to 14) (size 15 to 20)
#    0.000    1.143    5.714    2.571    2.000    0.571 
#    7.714    0.000    0.000    0.000    0.000    0.000 
#    0.000    0.000    0.000    0.000    0.000    0.000 
#
# Total GULP energy -156283.028054 kJ/mol
# GULP energy per Si atom -5581.536716 kJ/mol
# Density = 2.436514 g / cm^3
# Si number density = 24.420724 Si / 1000 Ang^3
#
#
#
# Elastic Constant Matrix: (Units=GPa)
#
#
# Indices 1 2 3 4 5 6 
#
# 1 141.9963 11.7419 37.0021 0.0001 -37.9713 -0.0010
# 2 11.7419 41.9235 9.0214 0.0054 -14.2176 0.0009
# 3 37.0021 9.0214 112.6652 -0.0005 -26.6078 -0.0018
# 4 0.0001 0.0054 -0.0005 20.7007 0.0012 -22.7584
# 5 -37.9713 -14.2176 -26.6078 0.0012 45.1674 -0.0001
# 6 -0.0010 0.0009 -0.0018 -22.7584 -0.0001 7.0826
#
#
#
# Elastic Compliance Matrix: (Units=1/GPa)
#
#
# Indices 1 2 3 4 5 6 
#
# 1 0.009271 0.000076 -0.001399 0.000000 0.006994 0.000000
# 2 0.000076 0.026707 -0.000189 0.000004 0.008359 0.000011
# 3 -0.001399 -0.000189 0.010523 -0.000001 0.004963 -0.000001
# 4 0.000000 0.000004 -0.000001 -0.019074 0.000001 -0.061289
# 5 0.006994 0.008359 0.004963 0.000001 0.033574 0.000004
# 6 0.000000 0.000011 -0.000001 -0.061289 0.000004 -0.055748
#
#
# Mechanical properties :
#
#
# Convention : Reuss Voigt Hill
#
# Bulk Modulus (GPa) = 23.00116 45.79065 34.39591
# Shear Modulus (GPa) = 219.58352 30.51145 125.04748
#
# Velocity S-wave (km/s) = 9.49274 3.53853 7.16356
# Velocity P-wave (km/s) = 11.38370 5.95704 9.08501
#
# Compressibility (1/GPa) = 0.04347607
#
# Stress axis : x y z
#
# Youngs Moduli (GPa) = 107.86432 37.44301 95.03320
#
# Poissons Ratio (x) = -0.00286 0.13298
# Poissons Ratio (y) = -0.00822 0.01800
# Poissons Ratio (z) = 0.15093 0.00709
#
# Static dielectric constant tensor:
#      x y z
#    x 2.659430 -0.000030 -0.571540 
#    y -0.000030 2.003430 0.000020 
#    z -0.571540 0.000020 2.313140 
# 
# From -- ./inp_files/206993.got.cif
#   From: 2010.05.17/outbox.cif.g08.bks.cpg/sg15_104_cif.got.tgz:206993.got - 2010.06.03 18:47:42.
