data_PCOD9301558
_publ_section_title
;
Structure prediction by ZEFSAII (Michael W. Deem and Ramdas Pophale) SiO2 
 PCOD9301558
Probable space group: C 2/C
;
_chemical_formula_sum "Si O2"
_cell_formula_units_Z 32
_cell_length_a 9.938471
_cell_length_b 19.679936
_cell_length_c 8.161765
_cell_angle_alpha 90.000000
_cell_angle_beta 88.036626
_cell_angle_gamma 90.000000
_cell_volume 1595.409991
_symmetry_space_group_name_H-M "C 2/C"
_symmetry_group_IT_number 15
_symmetry_cell_setting 'monoclinic'
loop_
_space_group_symop_operation_xyz
x,y,z
-x,y,1/2-z
-x,-y,-z
x,-y,1/2+z
1/2+x,1/2+y,z
1/2-x,1/2+y,1/2-z
1/2-x,1/2-y,-z
1/2+x,1/2-y,1/2+z
loop_
_atom_site_type_symbol
_atom_site_label
_atom_site_fract_x
_atom_site_fract_y
_atom_site_fract_z
Si Si1 0.273879 0.827633 0.934926
Si Si2 0.055363 0.315872 0.064139
Si Si3 0.676952 0.669858 0.066324
Si Si4 0.540319 0.575417 0.557428
O O1 0.231055 0.825253 0.747859
O O2 0.250000 0.750000 0.000000
O O3 0.432544 0.839656 0.957400
O O4 0.185319 0.887354 0.023837
O O5 0.109767 0.241014 0.013249
O O6 0.000000 0.312942 0.250000
O O7 0.195982 0.355293 0.045854
O O8 0.556353 0.619225 0.052973
O O9 0.500000 0.582432 0.750000
O O10 0.500000 0.500000 0.500000
#
# Coordination Sequence:
#
# PCOD9301558 Si02
#       4
#     8   8   8   8
#     4  12  22  39  64  98 135 172 222 279 333 394
#     4  11  21  36  60  96 132 169 216 273 333 385
#     4  11  23  38  63  95 136 169 222 273 336 392
#     4  12  26  45  69  96 135 183 226 273 339 412
#
# _framework density 20.057539999999999
#
# number of rings (size 3 to 8) (size 9 to 14) (size 15 to 20)
#    0.000    0.500    5.000    4.500    3.500    0.000 
#    0.000    1.250    0.000    0.000    0.000    0.000 
#    0.000    0.000    0.000    0.000    0.000    0.000 
#
# Total GULP energy -89247.125960 kJ/mol
# GULP energy per Si atom -5577.945373 kJ/mol
# Density = 2.001189 g / cm^3
# Si number density = 20.057540 Si / 1000 Ang^3
#
#
#
# Elastic Constant Matrix: (Units=GPa)
#
#
# Indices 1 2 3 4 5 6 
#
# 1 173.0022 30.4465 48.5562 0.0000 8.3725 0.0000
# 2 30.4465 57.8691 15.8199 0.0000 4.4225 0.0000
# 3 48.5562 15.8199 99.3985 0.0000 -1.3461 0.0000
# 4 0.0000 0.0000 0.0000 24.5563 0.0000 3.5384
# 5 8.3725 4.4225 -1.3461 0.0000 43.0392 0.0000
# 6 0.0000 0.0000 0.0000 3.5384 0.0000 21.3973
#
#
#
# Elastic Compliance Matrix: (Units=1/GPa)
#
#
# Indices 1 2 3 4 5 6 
#
# 1 0.007206 -0.002857 -0.003082 0.000000 -0.001205 0.000000
# 2 -0.002857 0.019364 -0.001706 0.000000 -0.001487 0.000000
# 3 -0.003082 -0.001706 0.011853 0.000000 0.001146 0.000000
# 4 0.000000 0.000000 0.000000 0.041717 0.000000 -0.006899
# 5 -0.001205 -0.001487 0.001146 0.000000 0.023658 0.000000
# 6 0.000000 0.000000 0.000000 -0.006899 0.000000 0.047876
#
#
# Mechanical properties :
#
#
# Convention : Reuss Voigt Hill
#
# Bulk Modulus (GPa) = 43.22886 57.76834 50.49860
# Shear Modulus (GPa) = 28.62466 33.49503 31.05985
#
# Velocity S-wave (km/s) = 3.78183 4.09093 3.93941
# Velocity P-wave (km/s) = 6.37722 7.15389 6.77669
#
# Compressibility (1/GPa) = 0.02313269
#
# Stress axis : x y z
#
# Youngs Moduli (GPa) = 138.76650 51.64322 84.36587
#
# Poissons Ratio (x) = 0.14754 0.26001
# Poissons Ratio (y) = 0.39644 0.14396
# Poissons Ratio (z) = 0.42767 0.08812
#
# Static dielectric constant tensor:
#      x y z
#    x 1.772250 0.000000 -0.074760 
#    y 0.000000 1.519010 0.000000 
#    z -0.074760 0.000000 1.764970 
# 
# From -- ./inp_files/22251.got.cif
#   From: 2010.05.17/outbox.cif.g08.bks.cpg/sg15_12_cif.got.tgz:22251.got - 2010.06.03 18:47:42.
