data_PCOD9301884
_publ_section_title
;
Structure prediction by ZEFSAII (Michael W. Deem and Ramdas Pophale) SiO2 
 PCOD9301884
Probable space group: C 2/C
;
_chemical_formula_sum "Si O2"
_cell_formula_units_Z 64
_cell_length_a 14.049754
_cell_length_b 18.684274
_cell_length_c 16.266987
_cell_angle_alpha 90.000000
_cell_angle_beta 42.206836
_cell_angle_gamma 90.000000
_cell_volume 2868.784104
_symmetry_space_group_name_H-M "C 2/C"
_symmetry_group_IT_number 15
_symmetry_cell_setting 'monoclinic'
loop_
_space_group_symop_operation_xyz
x,y,z
-x,y,1/2-z
-x,-y,-z
x,-y,1/2+z
1/2+x,1/2+y,z
1/2-x,1/2+y,1/2-z
1/2-x,1/2-y,-z
1/2+x,1/2-y,1/2+z
loop_
_atom_site_type_symbol
_atom_site_label
_atom_site_fract_x
_atom_site_fract_y
_atom_site_fract_z
Si Si1 0.427382 0.945011 0.387525
Si Si2 0.013455 0.275396 0.599729
Si Si3 0.368429 0.902399 0.893641
Si Si4 0.575428 0.619293 0.506598
Si Si5 0.882388 0.936294 0.252971
Si Si6 0.668518 0.592530 0.151120
Si Si7 0.879487 0.343875 0.129517
Si Si8 0.705791 0.694733 0.273448
O O1 0.500000 0.940621 0.250000
O O2 0.270744 0.911115 0.505501
O O3 0.534784 0.904631 0.378689
O O4 0.404650 0.028607 0.425481
O O5 0.128095 0.323034 0.572670
O O6 0.042368 0.191705 0.579799
O O7 0.027774 0.304703 0.498405
O O8 0.854113 0.295799 0.727855
O O9 0.500000 0.902393 0.750000
O O10 0.221535 0.915305 0.942762
O O11 0.454701 0.566329 0.616268
O O12 0.599500 0.648700 0.399357
O O13 0.756908 0.878909 0.327113
O O14 0.000000 0.921706 0.250000
O O15 0.824916 0.014764 0.310020
O O16 0.500000 0.606051 0.250000
O O17 0.723773 0.651822 0.178539
O O18 0.838138 0.276904 0.213859
#
# Coordination Sequence:
#
# PCOD9301884 Si02
#       8
#     8   8   8   8   8   8   8   8
#     4  11  26  45  70 102 134 177 233 283 342 402
#     4  11  21  40  62  94 137 177 217 267 331 402
#     4  11  22  37  63  97 136 172 219 270 333 401
#     4  11  23  40  64 100 136 174 221 276 332 410
#     4  11  24  42  68  99 137 178 224 276 342 400
#     4  11  25  47  71  96 135 180 229 285 339 400
#     4  11  24  43  68  97 133 178 223 278 336 406
#     4  11  24  43  67  98 133 177 225 274 340 402
#
# _framework density 22.309104000000001
#
# number of rings (size 3 to 8) (size 9 to 14) (size 15 to 20)
#    0.000    1.000    3.750    3.375    1.750    4.500 
#    0.000    1.250    0.000    0.000    0.000    0.000 
#    0.000    0.000    0.000    0.000    0.000    0.000 
#
# Total GULP energy -178516.094714 kJ/mol
# GULP energy per Si atom -5578.627960 kJ/mol
# Density = 2.225833 g / cm^3
# Si number density = 22.309104 Si / 1000 Ang^3
#
#
#
# Elastic Constant Matrix: (Units=GPa)
#
#
# Indices 1 2 3 4 5 6 
#
# 1 34.4427 34.0217 11.0870 0.0001 -13.4891 0.0001
# 2 34.0217 96.9242 8.8251 0.0001 -2.4550 0.0000
# 3 11.0870 8.8251 94.5689 0.0004 -19.7844 0.0000
# 4 0.0001 0.0001 0.0004 32.6400 -0.0003 12.6601
# 5 -13.4891 -2.4550 -19.7844 -0.0003 26.3575 0.0000
# 6 0.0001 0.0000 0.0000 12.6601 0.0000 27.7159
#
#
#
# Elastic Compliance Matrix: (Units=1/GPa)
#
#
# Indices 1 2 3 4 5 6 
#
# 1 0.060932 -0.020725 0.001080 0.000000 0.030064 0.000000
# 2 -0.020725 0.017457 -0.001279 0.000000 -0.009940 0.000000
# 3 0.001080 -0.001279 0.012643 0.000000 0.009924 0.000000
# 4 0.000000 0.000000 0.000000 0.037234 0.000000 -0.017008
# 5 0.030064 -0.009940 0.009924 0.000000 0.059849 0.000000
# 6 0.000000 0.000000 0.000000 -0.017008 0.000000 0.043849
#
#
# Mechanical properties :
#
#
# Convention : Reuss Voigt Hill
#
# Bulk Modulus (GPa) = 20.33170 37.08927 28.71049
# Shear Modulus (GPa) = 17.22917 28.80946 23.01932
#
# Velocity S-wave (km/s) = 2.78203 3.59747 3.21570
# Velocity P-wave (km/s) = 4.41056 5.82383 5.16575
#
# Compressibility (1/GPa) = 0.04918428
#
# Stress axis : x y z
#
# Youngs Moduli (GPa) = 16.41185 57.28467 79.09430
#
# Poissons Ratio (x) = 1.18721 -0.08543
# Poissons Ratio (y) = 0.34013 0.10116
# Poissons Ratio (z) = -0.01773 0.07326
#
# Static dielectric constant tensor:
#      x y z
#    x 1.805940 0.000000 0.003340 
#    y 0.000000 1.821420 0.000000 
#    z 0.003340 0.000000 1.919500 
# 
# From -- ./inp_files/206435.got.cif
#   From: 2010.05.17/outbox.cif.g08.bks.cpg/sg15_104_cif.got.tgz:206435.got - 2010.06.03 18:47:42.
