data_PCOD9301789
_publ_section_title
;
Structure prediction by ZEFSAII (Michael W. Deem and Ramdas Pophale) SiO2 
 PCOD9301789
Probable space group: C 2/C
;
_chemical_formula_sum "Si O2"
_cell_formula_units_Z 36
_cell_length_a 17.218706
_cell_length_b 18.464984
_cell_length_c 14.650713
_cell_angle_alpha 90.000000
_cell_angle_beta 18.775639
_cell_angle_gamma 90.000000
_cell_volume 1499.268760
_symmetry_space_group_name_H-M "C 2/C"
_symmetry_group_IT_number 15
_symmetry_cell_setting 'monoclinic'
loop_
_space_group_symop_operation_xyz
x,y,z
-x,y,1/2-z
-x,-y,-z
x,-y,1/2+z
1/2+x,1/2+y,z
1/2-x,1/2+y,1/2-z
1/2-x,1/2-y,-z
1/2+x,1/2-y,1/2+z
loop_
_atom_site_type_symbol
_atom_site_label
_atom_site_fract_x
_atom_site_fract_y
_atom_site_fract_z
Si Si1 0.805045 0.719361 0.748603
Si Si2 0.743216 0.441423 0.585204
Si Si3 0.596501 0.079110 0.394192
Si Si4 0.500000 0.313935 0.750000
Si Si5 0.750079 0.099536 0.015960
O O1 0.072164 0.757992 0.446373
O O2 0.887069 0.637355 0.642794
O O3 0.700695 0.728465 0.967527
O O4 0.742463 0.426045 0.694069
O O5 0.593858 0.373955 0.716558
O O6 0.690983 0.524359 0.607822
O O7 0.000000 0.430130 0.250000
O O8 0.694113 0.088195 0.184418
O O9 0.500000 0.000000 0.500000
O O10 0.500000 0.127969 0.250000
O O11 0.000000 0.143215 0.750000
#
# Coordination Sequence:
#
# PCOD9301789 Si02
#       5
#     8   8   8   4   8
#     4  12  28  47  68 104 149 192 235 289 360 438
#     4  11  21  39  64 111 145 179 236 289 356 421
#     4  12  24  46  76 107 141 194 239 302 355 421
#     4  12  22  42  70  98 148 200 228 278 356 452
#     4  11  24  42  66 106 147 177 236 303 357 407
#
# _framework density 24.011704999999999
#
# number of rings (size 3 to 8) (size 9 to 14) (size 15 to 20)
#    0.000    0.444    7.778    2.000    0.000    4.444 
#    0.000    0.000    0.000    4.000    0.000    0.000 
#    0.000    0.000    0.000    0.000    0.000    0.000 
#
# Total GULP energy -100239.699204 kJ/mol
# GULP energy per Si atom -5568.872178 kJ/mol
# Density = 2.395705 g / cm^3
# Si number density = 24.011705 Si / 1000 Ang^3
#
#
#
# Elastic Constant Matrix: (Units=GPa)
#
#
# Indices 1 2 3 4 5 6 
#
# 1 168.2706 -2.5628 34.9218 -0.0449 -8.5510 -0.0131
# 2 -2.5628 81.3209 18.2844 -0.1474 -23.9567 -0.0065
# 3 34.9218 18.2844 104.1633 0.1587 -19.3481 -0.2968
# 4 -0.0449 -0.1474 0.1587 10.8066 -0.0118 16.1479
# 5 -8.5510 -23.9567 -19.3481 -0.0118 50.6892 0.0175
# 6 -0.0131 -0.0065 -0.2968 16.1479 0.0175 -5.7446
#
#
#
# Elastic Compliance Matrix: (Units=1/GPa)
#
#
# Indices 1 2 3 4 5 6 
#
# 1 0.006446 0.000894 -0.002193 -0.000015 0.000673 0.000058
# 2 0.000894 0.014589 -0.001670 0.000020 0.006408 0.000143
# 3 -0.002193 -0.001670 0.011207 0.000125 0.003119 -0.000213
# 4 -0.000015 0.000020 0.000125 0.017796 0.000041 0.050017
# 5 0.000673 0.006408 0.003119 0.000041 0.024061 0.000020
# 6 0.000058 0.000143 -0.000213 0.050017 0.000020 -0.033469
#
#
# Mechanical properties :
#
#
# Convention : Reuss Voigt Hill
#
# Bulk Modulus (GPa) = 38.01613 50.56018 44.28815
# Shear Modulus (GPa) = 90.36129 31.35766 60.85947
#
# Velocity S-wave (km/s) = 6.14116 3.61769 5.03992
# Velocity P-wave (km/s) = 8.13338 6.20906 7.23548
#
# Compressibility (1/GPa) = 0.02630463
#
# Stress axis : x y z
#
# Youngs Moduli (GPa) = 155.14187 68.54711 89.22913
#
# Poissons Ratio (x) = -0.06131 0.19566
# Poissons Ratio (y) = -0.13876 0.14901
# Poissons Ratio (z) = 0.34019 0.11447
#
# Static dielectric constant tensor:
#      x y z
#    x 1.829950 -0.000070 -0.072350 
#    y -0.000070 1.899320 0.000070 
#    z -0.072350 0.000070 1.905490 
# 
# From -- ./inp_files/163590.got.cif
#   From: 2010.05.17/outbox.cif.g08.bks.cpg/sg15_82_cif.got.tgz:163590.got - 2010.06.03 18:47:42.
