data_PCOD9301109
_publ_section_title
;
Structure prediction by ZEFSAII (Michael W. Deem and Ramdas Pophale) SiO2 
 PCOD9301109
Probable space group: C 2/C
;
_chemical_formula_sum "Si O2"
_cell_formula_units_Z 48
_cell_length_a 17.707843
_cell_length_b 8.050001
_cell_length_c 29.410777
_cell_angle_alpha 90.000000
_cell_angle_beta 147.565181
_cell_angle_gamma 90.000000
_cell_volume 2248.578845
_symmetry_space_group_name_H-M "C 2/C"
_symmetry_group_IT_number 15
_symmetry_cell_setting 'monoclinic'
loop_
_space_group_symop_operation_xyz
x,y,z
-x,y,1/2-z
-x,-y,-z
x,-y,1/2+z
1/2+x,1/2+y,z
1/2-x,1/2+y,1/2-z
1/2-x,1/2-y,-z
1/2+x,1/2-y,1/2+z
loop_
_atom_site_type_symbol
_atom_site_label
_atom_site_fract_x
_atom_site_fract_y
_atom_site_fract_z
Si Si1 0.137909 0.831290 0.172753
Si Si2 0.138143 0.364166 0.968917
Si Si3 0.922526 0.106722 0.420971
Si Si4 0.084122 0.275836 0.416821
Si Si5 0.335040 0.056105 0.919135
Si Si6 0.137065 0.089148 0.245748
O O1 0.256751 0.695243 0.231523
O O2 0.990889 0.753046 0.083055
O O3 0.171962 0.973884 0.153713
O O4 0.118354 0.912680 0.211798
O O5 0.068973 0.524375 0.909406
O O6 0.250000 0.250000 0.000000
O O7 0.205105 0.435422 0.048797
O O8 0.838823 0.259475 0.400100
O O9 0.021974 0.189017 0.431555
O O10 0.000000 0.000000 0.500000
O O11 0.250000 0.250000 0.500000
O O12 0.006907 0.189677 0.334720
O O13 0.224900 0.941466 0.836112
O O14 0.500000 0.000000 0.000000
#
# Coordination Sequence:
#
# PCOD9301109 Si02
#       6
#     8   8   8   8   8   8
#     4  11  21  38  66 100 133 174 231 285 345 414
#     4  12  24  43  69  98 144 185 227 290 366 418
#     4  11  20  37  68 103 136 177 231 287 341 422
#     4  11  25  43  66  98 137 182 230 287 363 411
#     4  12  22  42  69 103 133 180 239 288 345 424
#     4  11  22  40  67  99 134 179 229 297 338 424
#
# _framework density 21.346817000000001
#
# number of rings (size 3 to 8) (size 9 to 14) (size 15 to 20)
#    0.000    0.667    5.000    5.000    0.000    0.000 
#    0.000    3.333    0.000    2.000    0.000    0.000 
#    0.000    0.000    0.000    0.000    0.000    0.000 
#
# Total GULP energy -133995.793917 kJ/mol
# GULP energy per Si atom -5583.158080 kJ/mol
# Density = 2.129823 g / cm^3
# Si number density = 21.346817 Si / 1000 Ang^3
#
#
#
# Elastic Constant Matrix: (Units=GPa)
#
#
# Indices 1 2 3 4 5 6 
#
# 1 50.7116 23.6760 36.4136 0.0000 -5.0458 0.0000
# 2 23.6760 112.4094 45.2827 0.0000 -7.9875 0.0000
# 3 36.4136 45.2827 147.8225 0.0000 -17.3145 0.0000
# 4 0.0000 0.0000 0.0000 44.0957 0.0000 -2.1044
# 5 -5.0458 -7.9875 -17.3145 0.0000 32.1000 0.0000
# 6 0.0000 0.0000 0.0000 -2.1044 0.0000 38.3295
#
#
#
# Elastic Compliance Matrix: (Units=1/GPa)
#
#
# Indices 1 2 3 4 5 6 
#
# 1 0.024910 -0.003155 -0.005127 0.000000 0.000365 0.000000
# 2 -0.003155 0.010573 -0.002361 0.000000 0.000862 0.000000
# 3 -0.005127 -0.002361 0.009167 0.000000 0.003551 0.000000
# 4 0.000000 0.000000 0.000000 0.022738 0.000000 0.001248
# 5 0.000365 0.000862 0.003551 0.000000 0.033340 0.000000
# 6 0.000000 0.000000 0.000000 0.001248 0.000000 0.026158
#
#
# Mechanical properties :
#
#
# Convention : Reuss Voigt Hill
#
# Bulk Modulus (GPa) = 42.80058 57.96535 50.38296
# Shear Modulus (GPa) = 32.05965 36.60978 34.33472
#
# Velocity S-wave (km/s) = 3.87957 4.14575 4.01487
# Velocity P-wave (km/s) = 6.33733 7.08021 6.71904
#
# Compressibility (1/GPa) = 0.02336417
#
# Stress axis : x y z
#
# Youngs Moduli (GPa) = 40.14418 94.58216 109.08866
#
# Poissons Ratio (x) = 0.29845 0.55928
# Poissons Ratio (y) = 0.12667 0.25751
# Poissons Ratio (z) = 0.20581 0.22327
#
# Static dielectric constant tensor:
#      x y z
#    x 1.830540 0.000000 -0.045260 
#    y 0.000000 1.845350 0.000000 
#    z -0.045260 0.000000 1.809680 
# 
# From -- ./inp_files/315787.got.cif
#   From: 2010.05.17/outbox.cif.g08.bks.cpg/sg15_158_cif.got.tgz:315787.got - 2010.06.03 18:47:42.
