data_PCOD9301664
_publ_section_title
;
Structure prediction by ZEFSAII (Michael W. Deem and Ramdas Pophale) SiO2 
 PCOD9301664
Probable space group: C 2/C
;
_chemical_formula_sum "Si O2"
_cell_formula_units_Z 48
_cell_length_a 18.840618
_cell_length_b 17.039444
_cell_length_c 14.443315
_cell_angle_alpha 90.000000
_cell_angle_beta 31.915399
_cell_angle_gamma 90.000000
_cell_volume 2451.315596
_symmetry_space_group_name_H-M "C 2/C"
_symmetry_group_IT_number 15
_symmetry_cell_setting 'monoclinic'
loop_
_space_group_symop_operation_xyz
x,y,z
-x,y,1/2-z
-x,-y,-z
x,-y,1/2+z
1/2+x,1/2+y,z
1/2-x,1/2+y,1/2-z
1/2-x,1/2-y,-z
1/2+x,1/2-y,1/2+z
loop_
_atom_site_type_symbol
_atom_site_label
_atom_site_fract_x
_atom_site_fract_y
_atom_site_fract_z
Si Si1 0.311972 0.746390 0.792159
Si Si2 0.629027 0.193134 0.664798
Si Si3 0.996373 0.067165 0.084841
Si Si4 0.338280 0.370734 0.412831
Si Si5 0.702676 0.545426 0.019135
Si Si6 0.415820 0.262676 0.592885
O O1 0.310158 0.660153 0.840450
O O2 0.468860 0.764650 0.605830
O O3 0.231945 0.755330 0.785925
O O4 0.229621 0.805452 0.948007
O O5 0.500000 0.215134 0.750000
O O6 0.750000 0.250000 0.500000
O O7 0.675673 0.104202 0.600645
O O8 0.587435 0.208228 0.815183
O O9 0.888981 0.052892 0.286557
O O10 0.958214 0.149654 0.078641
O O11 0.129691 0.069026 0.002582
O O12 0.000000 0.000000 0.000000
O O13 0.500000 0.375791 0.250000
O O14 0.273049 0.453004 0.511100
#
# Coordination Sequence:
#
# PCOD9301664 Si02
#       6
#     8   8   8   8   8   8
#     4  11  24  40  68  98 129 175 221 277 327 400
#     4  12  25  45  65  96 134 177 216 269 338 403
#     4  11  21  37  71  98 127 169 228 280 323 398
#     4  11  21  44  68  93 135 172 228 270 338 401
#     4  11  23  42  65  99 128 172 226 278 333 397
#     4  12  23  40  65  98 131 170 223 269 333 403
#
# _framework density 19.581322
#
# number of rings (size 3 to 8) (size 9 to 14) (size 15 to 20)
#    0.000    0.667    5.000    5.000    0.000    0.000 
#    3.000    0.833    0.000    0.000    0.000    0.000 
#    0.000    0.000    0.000    0.000    0.000    0.000 
#
# Total GULP energy -133918.186118 kJ/mol
# GULP energy per Si atom -5579.924422 kJ/mol
# Density = 1.953675 g / cm^3
# Si number density = 19.581322 Si / 1000 Ang^3
#
#
#
# Elastic Constant Matrix: (Units=GPa)
#
#
# Indices 1 2 3 4 5 6 
#
# 1 72.6452 17.3049 10.3366 0.0000 1.3961 0.0000
# 2 17.3049 106.2015 20.1338 0.0000 -10.5844 0.0000
# 3 10.3366 20.1338 50.8630 0.0001 -8.7599 0.0000
# 4 0.0000 0.0000 0.0001 31.8649 0.0000 7.5220
# 5 1.3961 -10.5844 -8.7599 0.0000 29.3313 0.0000
# 6 0.0000 0.0000 0.0000 7.5220 0.0000 26.1900
#
#
#
# Elastic Compliance Matrix: (Units=1/GPa)
#
#
# Indices 1 2 3 4 5 6 
#
# 1 0.014675 -0.002135 -0.002520 0.000000 -0.002222 0.000000
# 2 -0.002135 0.010683 -0.003282 0.000000 0.002976 0.000000
# 3 -0.002520 -0.003282 0.022443 0.000000 0.005638 0.000000
# 4 0.000000 0.000000 0.000000 0.033665 0.000000 -0.009669
# 5 -0.002222 0.002976 0.005638 0.000000 0.036957 0.000000
# 6 0.000000 0.000000 0.000000 -0.009669 0.000000 0.040960
#
#
# Mechanical properties :
#
#
# Convention : Reuss Voigt Hill
#
# Bulk Modulus (GPa) = 31.32142 36.14005 33.73073
# Shear Modulus (GPa) = 26.89629 29.60618 28.25124
#
# Velocity S-wave (km/s) = 3.71019 3.89261 3.80249
# Velocity P-wave (km/s) = 5.86381 6.22091 6.04500
#
# Compressibility (1/GPa) = 0.03192704
#
# Stress axis : x y z
#
# Youngs Moduli (GPa) = 68.14145 93.60824 44.55720
#
# Poissons Ratio (x) = 0.19985 0.11228
# Poissons Ratio (y) = 0.14548 0.14625
# Poissons Ratio (z) = 0.17171 0.30725
#
# Static dielectric constant tensor:
#      x y z
#    x 1.125110 0.000000 1.024360 
#    y 0.000000 1.683310 0.000000 
#    z 1.024360 0.000000 -0.124110 
# 
# From -- ./inp_files/163197.got.cif
#   From: 2010.05.17/outbox.cif.g08.bks.cpg/sg15_82_cif.got.tgz:163197.got - 2010.06.03 18:47:42.
