data_PCOD9301270
_publ_section_title
;
Structure prediction by ZEFSAII (Michael W. Deem and Ramdas Pophale) SiO2 
 PCOD9301270
Probable space group: C 2/C
;
_chemical_formula_sum "Si O2"
_cell_formula_units_Z 56
_cell_length_a 14.472671
_cell_length_b 18.857494
_cell_length_c 18.623913
_cell_angle_alpha 90.000000
_cell_angle_beta 147.952478
_cell_angle_gamma 90.000000
_cell_volume 2697.051477
_symmetry_space_group_name_H-M "C 2/C"
_symmetry_group_IT_number 15
_symmetry_cell_setting 'monoclinic'
loop_
_space_group_symop_operation_xyz
x,y,z
-x,y,1/2-z
-x,-y,-z
x,-y,1/2+z
1/2+x,1/2+y,z
1/2-x,1/2+y,1/2-z
1/2-x,1/2-y,-z
1/2+x,1/2-y,1/2+z
loop_
_atom_site_type_symbol
_atom_site_label
_atom_site_fract_x
_atom_site_fract_y
_atom_site_fract_z
Si Si1 0.783795 0.359562 0.334778
Si Si2 0.645808 0.101561 0.128771
Si Si3 0.330954 0.980853 0.247729
Si Si4 0.168893 0.890518 0.028564
Si Si5 0.500000 0.405889 0.250000
Si Si6 0.101210 0.780207 0.673336
Si Si7 0.264556 0.027720 0.462471
Si Si8 0.500000 0.789778 0.250000
O O1 0.782794 0.418254 0.271592
O O2 0.603738 0.360659 0.259215
O O3 0.840029 0.285560 0.336239
O O4 0.939711 0.386284 0.489003
O O5 0.734824 0.177648 0.187344
O O6 0.701004 0.057502 0.094614
O O7 0.699065 0.054841 0.232147
O O8 0.211768 0.961390 0.101663
O O9 0.541256 0.978198 0.375023
O O10 0.334706 0.840355 0.147921
O O11 0.159063 0.915323 0.939867
O O12 0.008709 0.839813 0.941033
O O13 0.645889 0.458053 0.380243
O O14 0.992269 0.753410 0.670656
#
# Coordination Sequence:
#
# PCOD9301270 Si02
#       8
#     8   8   8   8   4   8   8   4
#     4  11  23  43  67  93 133 175 231 271 325 391
#     4  11  22  44  68  93 134 177 221 274 330 395
#     4  11  21  43  66  94 135 173 211 279 336 380
#     4  12  23  38  66 101 138 167 209 279 341 396
#     4  12  22  41  72  93 120 184 234 274 316 393
#     4  12  25  39  65 100 136 177 219 266 336 407
#     4  11  20  40  66 103 127 165 222 271 334 399
#     4  12  20  41  62  97 140 174 208 266 344 407
#
# _framework density 20.763414999999998
#
# number of rings (size 3 to 8) (size 9 to 14) (size 15 to 20)
#    0.000    0.571    5.714    4.714    0.000    0.571 
#    0.000    0.714    3.143    0.000    0.000    0.000 
#    0.000    0.000    0.000    0.000    0.000    0.000 
#
# Total GULP energy -156502.917630 kJ/mol
# GULP energy per Si atom -5589.389915 kJ/mol
# Density = 2.071616 g / cm^3
# Si number density = 20.763415 Si / 1000 Ang^3
#
#
#
# Elastic Constant Matrix: (Units=GPa)
#
#
# Indices 1 2 3 4 5 6 
#
# 1 95.2191 46.8544 33.6553 -0.0007 12.7252 -0.0004
# 2 46.8544 87.5836 15.2027 0.0069 0.4015 0.0016
# 3 33.6553 15.2027 60.0467 0.0165 7.6136 0.0030
# 4 -0.0007 0.0069 0.0165 -3.1348 0.0026 7.7679
# 5 12.7252 0.4015 7.6136 0.0026 22.6578 -0.0002
# 6 -0.0004 0.0016 0.0030 7.7679 -0.0002 33.6011
#
#
#
# Elastic Compliance Matrix: (Units=1/GPa)
#
#
# Indices 1 2 3 4 5 6 
#
# 1 0.018203 -0.008473 -0.007082 -0.000040 -0.007693 0.000011
# 2 -0.008473 0.015902 0.000162 0.000025 0.004423 -0.000007
# 3 -0.007082 0.000162 0.020971 0.000067 -0.003073 -0.000017
# 4 -0.000040 0.000025 0.000067 -0.202814 0.000023 0.046887
# 5 -0.007693 0.004423 -0.003073 0.000023 0.049410 -0.000005
# 6 0.000011 -0.000007 -0.000017 0.046887 -0.000005 0.018922
#
#
# Mechanical properties :
#
#
# Convention : Reuss Voigt Hill
#
# Bulk Modulus (GPa) = 41.16763 48.25269 44.71016
# Shear Modulus (GPa) = -123.38283 20.43395 -51.47444
#
# Velocity S-wave (km/s) = -7.71701 3.14049 -4.98445
# Velocity P-wave (km/s) = 7.71575 6.03655 3.39801
#
# Compressibility (1/GPa) = 0.02429093
#
# Stress axis : x y z
#
# Youngs Moduli (GPa) = 54.93682 62.88438 47.68424
#
# Poissons Ratio (x) = 0.53284 0.33768
# Poissons Ratio (y) = 0.46550 -0.00774
# Poissons Ratio (z) = 0.38904 -0.01021
#
# Static dielectric constant tensor:
#      x y z
#    x 1.764400 0.000000 -0.009090 
#    y 0.000000 1.716930 0.000000 
#    z -0.009090 0.000000 1.802750 
# 
# From -- ./inp_files/245219.got.cif
#   From: 2010.05.17/outbox.cif.g08.bks.cpg/sg15_123_cif.got.tgz:245219.got - 2010.06.03 18:47:42.
