data_PCOD9301206
_publ_section_title
;
Structure prediction by ZEFSAII (Michael W. Deem and Ramdas Pophale) SiO2 
 PCOD9301206
Probable space group: C 2/C
;
_chemical_formula_sum "Si O2"
_cell_formula_units_Z 52
_cell_length_a 16.249650
_cell_length_b 7.717517
_cell_length_c 16.253869
_cell_angle_alpha 90.000000
_cell_angle_beta 96.492562
_cell_angle_gamma 90.000000
_cell_volume 2025.275281
_symmetry_space_group_name_H-M "C 2/C"
_symmetry_group_IT_number 15
_symmetry_cell_setting 'monoclinic'
loop_
_space_group_symop_operation_xyz
x,y,z
-x,y,1/2-z
-x,-y,-z
x,-y,1/2+z
1/2+x,1/2+y,z
1/2-x,1/2+y,1/2-z
1/2-x,1/2-y,-z
1/2+x,1/2-y,1/2+z
loop_
_atom_site_type_symbol
_atom_site_label
_atom_site_fract_x
_atom_site_fract_y
_atom_site_fract_z
Si Si1 0.837653 0.935978 0.938331
Si Si2 0.408060 0.929188 0.481515
Si Si3 0.164236 0.410790 0.842491
Si Si4 0.129215 0.988034 0.310499
Si Si5 0.035300 0.905155 0.141475
Si Si6 0.500000 0.082234 0.250000
Si Si7 0.253248 0.101664 0.432696
O O1 0.891020 0.760341 0.942566
O O2 0.761240 0.958165 0.864954
O O3 0.906976 0.081808 0.930446
O O4 0.792910 0.947722 0.021881
O O5 0.370864 0.928359 0.569194
O O6 0.500000 0.000000 0.500000
O O7 0.345734 0.050018 0.423604
O O8 0.089660 0.501427 0.780741
O O9 0.163697 0.209303 0.814217
O O10 0.086130 0.007386 0.217966
O O11 0.198902 0.122167 0.345484
O O12 0.054734 0.991454 0.369055
O O13 0.017701 0.715176 0.176303
O O14 0.250000 0.250000 0.500000
#
# Coordination Sequence:
#
# PCOD9301206 Si02
#       7
#     8   8   8   8   8   4   8
#     4  11  20  39  61  85 118 155 192 242 304 336
#     4  11  23  38  59  88 117 154 198 238 303 349
#     4   9  17  39  61  76 116 158 185 236 297 343
#     4   9  17  40  56  82 115 154 188 232 293 344
#     4   8  19  32  61  84 108 153 192 231 284 357
#     4   8  18  38  60  82 116 154 200 226 290 356
#     4  11  23  38  59  86 117 153 194 247 286 354
#
# _framework density 25.675522000000001
#
# number of rings (size 3 to 8) (size 9 to 14) (size 15 to 20)
#    0.000    2.769    3.077    0.923    2.154    3.077 
#    8.308    0.000    3.385    0.000    0.000    0.000 
#    0.000    0.000    0.000    0.000    0.000    0.000 
#
# Total GULP energy -145134.627816 kJ/mol
# GULP energy per Si atom -5582.101070 kJ/mol
# Density = 2.561708 g / cm^3
# Si number density = 25.675522 Si / 1000 Ang^3
#
#
#
# Elastic Constant Matrix: (Units=GPa)
#
#
# Indices 1 2 3 4 5 6 
#
# 1 183.6767 28.3641 33.4765 0.0000 28.5989 0.0000
# 2 28.3641 57.3502 -4.6043 0.0000 8.1143 0.0000
# 3 33.4765 -4.6043 58.3125 0.0000 32.9469 0.0000
# 4 0.0000 0.0000 0.0000 21.3524 0.0000 7.4225
# 5 28.5989 8.1143 32.9469 0.0000 63.6347 0.0000
# 6 0.0000 0.0000 0.0000 7.4225 0.0000 29.1591
#
#
#
# Elastic Compliance Matrix: (Units=1/GPa)
#
#
# Indices 1 2 3 4 5 6 
#
# 1 0.006792 -0.003581 -0.003838 0.000000 -0.000609 0.000000
# 2 -0.003581 0.020258 0.005945 0.000000 -0.004052 0.000000
# 3 -0.003838 0.005945 0.027246 0.000000 -0.013140 0.000000
# 4 0.000000 0.000000 0.000000 0.051379 0.000000 -0.013079
# 5 -0.000609 -0.004052 -0.013140 0.000000 0.023308 0.000000
# 6 0.000000 0.000000 0.000000 -0.013079 0.000000 0.037624
#
#
# Mechanical properties :
#
#
# Convention : Reuss Voigt Hill
#
# Bulk Modulus (GPa) = 19.47538 45.97913 32.72725
# Shear Modulus (GPa) = 26.78514 38.96945 32.87729
#
# Velocity S-wave (km/s) = 3.23339 3.90008 3.58228
# Velocity P-wave (km/s) = 4.64127 6.18284 5.46667
#
# Compressibility (1/GPa) = 0.05134688
#
# Stress axis : x y z
#
# Youngs Moduli (GPa) = 147.24123 49.36246 36.70330
#
# Poissons Ratio (x) = 0.17677 0.14086
# Poissons Ratio (y) = 0.52727 -0.21818
# Poissons Ratio (z) = 0.56509 -0.29344
#
# Static dielectric constant tensor:
#      x y z
#    x 2.087800 0.000000 0.058640 
#    y 0.000000 2.094480 0.000000 
#    z 0.058640 0.000000 2.083010 
# 
# From -- ./inp_files/242545.got.cif
#   From: 2010.05.17/outbox.cif.g08.bks.cpg/sg15_122_cif.got.tgz:242545.got - 2010.06.03 18:47:42.
