data_PCOD9301908
_publ_section_title
;
Structure prediction by ZEFSAII (Michael W. Deem and Ramdas Pophale) SiO2 
 PCOD9301908
Probable space group: C 2/C
;
_chemical_formula_sum "Si O2"
_cell_formula_units_Z 64
_cell_length_a 27.891770
_cell_length_b 8.806629
_cell_length_c 13.940139
_cell_angle_alpha 90.000000
_cell_angle_beta 122.265377
_cell_angle_gamma 90.000000
_cell_volume 2895.409102
_symmetry_space_group_name_H-M "C 2/C"
_symmetry_group_IT_number 15
_symmetry_cell_setting 'monoclinic'
loop_
_space_group_symop_operation_xyz
x,y,z
-x,y,1/2-z
-x,-y,-z
x,-y,1/2+z
1/2+x,1/2+y,z
1/2-x,1/2+y,1/2-z
1/2-x,1/2-y,-z
1/2+x,1/2-y,1/2+z
loop_
_atom_site_type_symbol
_atom_site_label
_atom_site_fract_x
_atom_site_fract_y
_atom_site_fract_z
Si Si1 0.161538 0.468215 0.973995
Si Si2 0.065863 0.151705 0.547338
Si Si3 0.211291 0.987855 0.933515
Si Si4 0.169233 0.278243 0.172063
Si Si5 0.153728 0.728280 0.275108
Si Si6 0.247955 0.046357 0.186170
Si Si7 0.114598 0.210657 0.401807
Si Si8 0.442262 0.670458 0.351878
O O1 0.227063 0.525619 0.048352
O O2 0.155395 0.348237 0.052996
O O3 0.151756 0.385414 0.862404
O O4 0.120901 0.612864 0.934237
O O5 0.097236 0.262707 0.653905
O O6 0.102184 0.127852 0.488939
O O7 0.005451 0.217116 0.449235
O O8 0.061931 0.994267 0.601666
O O9 0.173388 0.110602 0.837992
O O10 0.173470 0.841070 0.914236
O O11 0.224878 0.052948 0.053454
O O12 0.196967 0.110284 0.195951
O O13 0.218346 0.389859 0.264235
O O14 0.110405 0.270210 0.165920
O O15 0.202522 0.671259 0.255927
O O16 0.067242 0.169940 0.272515
#
# Coordination Sequence:
#
# PCOD9301908 Si02
#       8
#     8   8   8   8   8   8   8   8
#     4  11  24  42  66 107 147 184 221 283 355 427
#     4  11  26  47  75  96 135 188 242 290 346 410
#     4  11  21  40  65  97 142 178 223 280 342 416
#     4  12  25  41  69 105 146 187 231 279 357 425
#     4  11  21  46  65  99 138 183 228 284 346 416
#     4  11  24  38  64 103 145 178 224 279 349 425
#     4  12  25  43  71 103 138 179 238 294 350 406
#     4  11  26  48  70 104 135 180 243 298 337 414
#
# _framework density 22.103959
#
# number of rings (size 3 to 8) (size 9 to 14) (size 15 to 20)
#    0.000    0.750    3.750    4.500    7.000    0.000 
#    0.000    7.500    0.000    0.000    0.000    0.000 
#    0.000    0.000    0.000    0.000    0.000    0.000 
#
# Total GULP energy -178963.812992 kJ/mol
# GULP energy per Si atom -5592.619156 kJ/mol
# Density = 2.205365 g / cm^3
# Si number density = 22.103959 Si / 1000 Ang^3
#
#
#
# Elastic Constant Matrix: (Units=GPa)
#
#
# Indices 1 2 3 4 5 6 
#
# 1 64.8716 18.0611 29.7583 0.0000 3.6950 0.0000
# 2 18.0611 64.8577 36.2234 0.0000 9.0931 0.0000
# 3 29.7583 36.2234 134.3200 0.0000 15.5656 0.0000
# 4 0.0000 0.0000 0.0000 54.2470 0.0000 15.7545
# 5 3.6950 9.0931 15.5656 0.0000 26.0192 0.0000
# 6 0.0000 0.0000 0.0000 15.7545 0.0000 46.1665
#
#
#
# Elastic Compliance Matrix: (Units=1/GPa)
#
#
# Indices 1 2 3 4 5 6 
#
# 1 0.017720 -0.003271 -0.003099 0.000000 0.000481 0.000000
# 2 -0.003271 0.019088 -0.003980 0.000000 -0.003826 0.000000
# 3 -0.003099 -0.003980 0.009663 0.000000 -0.003949 0.000000
# 4 0.000000 0.000000 0.000000 0.020462 0.000000 -0.006983
# 5 0.000481 -0.003826 -0.003949 0.000000 0.042065 0.000000
# 6 0.000000 0.000000 0.000000 -0.006983 0.000000 0.024044
#
#
# Mechanical properties :
#
#
# Convention : Reuss Voigt Hill
#
# Bulk Modulus (GPa) = 38.80380 48.01500 43.40940
# Shear Modulus (GPa) = 30.80110 37.28697 34.04403
#
# Velocity S-wave (km/s) = 3.73696 4.11163 3.92877
# Velocity P-wave (km/s) = 6.01773 6.65659 6.34521
#
# Compressibility (1/GPa) = 0.02577067
#
# Stress axis : x y z
#
# Youngs Moduli (GPa) = 56.43292 52.38812 103.49256
#
# Poissons Ratio (x) = 0.17136 0.32077
# Poissons Ratio (y) = 0.18459 0.41187
# Poissons Ratio (z) = 0.17491 0.20849
#
# Static dielectric constant tensor:
#      x y z
#    x 1.822040 0.000000 -0.002040 
#    y 0.000000 1.824850 0.000000 
#    z -0.002040 0.000000 1.821950 
# 
# From -- ./inp_files/180826.got.cif
#   From: 2010.05.17/outbox.cif.g08.bks.cpg/sg15_91_cif.got.tgz:180826.got - 2010.06.03 18:47:42.
