data_PCOD9301474
_publ_section_title
;
Structure prediction by ZEFSAII (Michael W. Deem and Ramdas Pophale) SiO2 
 PCOD9301474
Probable space group: C 2/C
;
_chemical_formula_sum "Si O2"
_cell_formula_units_Z 56
_cell_length_a 9.264899
_cell_length_b 12.659347
_cell_length_c 27.004446
_cell_angle_alpha 90.000000
_cell_angle_beta 123.224559
_cell_angle_gamma 90.000000
_cell_volume 2649.528180
_symmetry_space_group_name_H-M "C 2/C"
_symmetry_group_IT_number 15
_symmetry_cell_setting 'monoclinic'
loop_
_space_group_symop_operation_xyz
x,y,z
-x,y,1/2-z
-x,-y,-z
x,-y,1/2+z
1/2+x,1/2+y,z
1/2-x,1/2+y,1/2-z
1/2-x,1/2-y,-z
1/2+x,1/2-y,1/2+z
loop_
_atom_site_type_symbol
_atom_site_label
_atom_site_fract_x
_atom_site_fract_y
_atom_site_fract_z
Si Si1 0.962191 0.945678 0.185926
Si Si2 0.199183 0.026875 0.546398
Si Si3 0.093777 0.819951 0.858474
Si Si4 0.151279 0.303368 0.935194
Si Si5 0.385828 0.106296 0.490581
Si Si6 0.679146 0.338677 0.141205
Si Si7 0.348514 0.792548 0.391625
O O1 0.770456 0.895832 0.140419
O O2 0.000000 0.923801 0.250000
O O3 0.104048 0.892940 0.176170
O O4 0.969416 0.070024 0.175854
O O5 0.258581 0.102866 0.513972
O O6 0.211663 0.077181 0.603075
O O7 0.323705 0.928271 0.557237
O O8 0.000000 0.000000 0.500000
O O9 0.258255 0.856783 0.923236
O O10 0.156312 0.737699 0.828443
O O11 0.956299 0.758147 0.867350
O O12 0.216594 0.288186 0.891126
O O13 0.973838 0.240784 0.902953
O O14 0.250000 0.250000 0.000000
O O15 0.528338 0.185479 0.538323
O O16 0.500000 0.000000 0.500000
#
# Coordination Sequence:
#
# PCOD9301474 Si02
#       7
#     8   8   8   8   8   8   8
#     4  11  27  49  68  91 127 174 232 289 335 387
#     4  12  22  35  57  92 138 176 211 256 314 401
#     4  12  24  42  70 101 136 176 219 270 341 404
#     4  11  21  34  56  91 134 176 210 249 318 390
#     4  12  22  37  62 102 144 172 206 260 334 408
#     4  11  24  41  63  94 127 169 219 270 327 392
#     4  11  23  41  64  96 135 173 218 273 331 403
#
# _framework density 21.135838
#
# number of rings (size 3 to 8) (size 9 to 14) (size 15 to 20)
#    0.000    0.571    4.286    5.571    0.000    1.143 
#    0.000    0.000    0.000    0.000    0.000    0.000 
#    0.000    0.000    0.000    0.000    0.000    0.000 
#
# Total GULP energy -156085.247460 kJ/mol
# GULP energy per Si atom -5574.473124 kJ/mol
# Density = 2.108773 g / cm^3
# Si number density = 21.135838 Si / 1000 Ang^3
#
#
#
# Elastic Constant Matrix: (Units=GPa)
#
#
# Indices 1 2 3 4 5 6 
#
# 1 158.1836 59.6510 37.0099 0.0000 -38.9789 0.0000
# 2 59.6510 106.7698 16.3824 0.0000 -19.2000 0.0000
# 3 37.0099 16.3824 45.0350 0.0000 -24.2460 0.0000
# 4 0.0000 0.0000 0.0000 8.7780 0.0000 -3.7509
# 5 -38.9789 -19.2000 -24.2460 0.0000 29.1078 0.0000
# 6 0.0000 0.0000 0.0000 -3.7509 0.0000 27.8257
#
#
#
# Elastic Compliance Matrix: (Units=1/GPa)
#
#
# Indices 1 2 3 4 5 6 
#
# 1 0.010757 -0.003872 -0.001906 0.000000 0.010263 0.000000
# 2 -0.003872 0.012021 0.000519 0.000000 0.003177 0.000000
# 3 -0.001906 0.000519 0.040600 0.000000 0.031609 0.000000
# 4 0.000000 0.000000 0.000000 0.120884 0.000000 0.016295
# 5 0.010263 0.003177 0.031609 0.000000 0.076524 0.000000
# 6 0.000000 0.000000 0.000000 0.016295 0.000000 0.038135
#
#
# Mechanical properties :
#
#
# Convention : Reuss Voigt Hill
#
# Bulk Modulus (GPa) = 18.91758 59.56388 39.24073
# Shear Modulus (GPa) = 15.28788 26.27196 20.77992
#
# Velocity S-wave (km/s) = 2.69237 3.52945 3.13894
# Velocity P-wave (km/s) = 4.31683 6.69717 5.63414
#
# Compressibility (1/GPa) = 0.05286090
#
# Stress axis : x y z
#
# Youngs Moduli (GPa) = 92.96551 83.19059 24.63052
#
# Poissons Ratio (x) = 0.32208 0.04695
# Poissons Ratio (y) = 0.35993 -0.01279
# Poissons Ratio (z) = 0.17720 -0.04321
#
# Static dielectric constant tensor:
#      x y z
#    x 1.693820 0.000000 -0.046220 
#    y 0.000000 1.767750 0.000000 
#    z -0.046220 0.000000 1.676960 
# 
# From -- ./inp_files/307388.got.cif
#   From: 2010.05.17/outbox.cif.g08.bks.cpg/sg15_154_cif.got.tgz:307388.got - 2010.06.03 18:47:42.
