data_PCOD9301536
_publ_section_title
;
Structure prediction by ZEFSAII (Michael W. Deem and Ramdas Pophale) SiO2 
 PCOD9301536
Probable space group: C 2/C
;
_chemical_formula_sum "Si O2"
_cell_formula_units_Z 56
_cell_length_a 13.046168
_cell_length_b 8.035772
_cell_length_c 24.007613
_cell_angle_alpha 90.000000
_cell_angle_beta 56.497213
_cell_angle_gamma 90.000000
_cell_volume 2098.708692
_symmetry_space_group_name_H-M "C 2/C"
_symmetry_group_IT_number 15
_symmetry_cell_setting 'monoclinic'
loop_
_space_group_symop_operation_xyz
x,y,z
-x,y,1/2-z
-x,-y,-z
x,-y,1/2+z
1/2+x,1/2+y,z
1/2-x,1/2+y,1/2-z
1/2-x,1/2-y,-z
1/2+x,1/2-y,1/2+z
loop_
_atom_site_type_symbol
_atom_site_label
_atom_site_fract_x
_atom_site_fract_y
_atom_site_fract_z
Si Si1 0.195485 0.520990 0.653394
Si Si2 0.125830 0.236965 0.083446
Si Si3 0.663057 0.080641 0.323982
Si Si4 0.719762 0.037818 0.929595
Si Si5 0.965690 0.788636 0.317961
Si Si6 0.607973 0.746029 0.280494
Si Si7 0.062967 0.843017 0.951800
O O1 0.179548 0.601053 0.597279
O O2 0.097348 0.377050 0.687276
O O3 0.151358 0.657818 0.711104
O O4 0.327215 0.431069 0.616264
O O5 0.024995 0.177137 0.162145
O O6 0.040491 0.238575 0.055444
O O7 0.236763 0.106318 0.042081
O O8 0.681418 0.063261 0.384778
O O9 0.619492 0.897802 0.320101
O O10 0.571727 0.224571 0.328334
O O11 0.789065 0.105331 0.251826
O O12 0.849802 0.129549 0.882241
O O13 0.623391 0.188351 0.968181
O O14 0.000000 0.882103 0.250000
O O15 0.000000 0.000000 0.000000
#
# Coordination Sequence:
#
# PCOD9301536 Si02
#       7
#     8   8   8   8   8   8   8
#     4  11  22  42  65  96 134 179 219 275 346 403
#     4  12  24  43  68 100 136 174 224 277 348 409
#     4  12  23  37  60  95 145 176 218 264 329 414
#     4  11  26  40  64 100 128 176 227 272 343 397
#     4  11  21  36  57  89 137 179 213 260 331 406
#     4  12  23  38  63 102 144 177 212 272 342 423
#     4  11  27  51  70  94 134 181 241 292 327 391
#
# _framework density 26.683074999999999
#
# number of rings (size 3 to 8) (size 9 to 14) (size 15 to 20)
#    0.000    0.571    5.714    2.143    6.000    1.143 
#    0.000    0.714    0.000    0.000    0.000    0.000 
#    0.000    0.000    0.000    0.000    0.000    0.000 
#
# Total GULP energy -156533.629643 kJ/mol
# GULP energy per Si atom -5590.486773 kJ/mol
# Density = 2.662234 g / cm^3
# Si number density = 26.683075 Si / 1000 Ang^3
#
#
#
# Elastic Constant Matrix: (Units=GPa)
#
#
# Indices 1 2 3 4 5 6 
#
# 1 115.3668 33.5094 21.2952 0.0000 -29.2414 0.0000
# 2 33.5094 66.2496 1.4786 0.0000 -26.8978 0.0000
# 3 21.2952 1.4786 75.1948 0.0000 -22.8977 0.0000
# 4 0.0000 0.0000 0.0000 35.7201 0.0000 -20.8902
# 5 -29.2414 -26.8978 -22.8977 0.0000 30.5156 0.0000
# 6 0.0000 0.0000 0.0000 -20.8902 0.0000 52.8284
#
#
#
# Elastic Compliance Matrix: (Units=1/GPa)
#
#
# Indices 1 2 3 4 5 6 
#
# 1 0.011657 -0.002403 -0.000645 0.000000 0.008568 0.000000
# 2 -0.002403 0.027885 0.008964 0.000000 0.029003 0.000000
# 3 -0.000645 0.008964 0.020120 0.000000 0.022381 0.000000
# 4 0.000000 0.000000 0.000000 0.036417 0.000000 0.014401
# 5 0.008568 0.029003 0.022381 0.000000 0.083338 0.000000
# 6 0.000000 0.000000 0.000000 0.014401 0.000000 0.024624
#
#
# Mechanical properties :
#
#
# Convention : Reuss Voigt Hill
#
# Bulk Modulus (GPa) = 13.98714 41.04197 27.51456
# Shear Modulus (GPa) = 23.14375 37.18135 30.16255
#
# Velocity S-wave (km/s) = 2.94829 3.73693 3.36579
# Velocity P-wave (km/s) = 4.10405 5.83389 5.04368
#
# Compressibility (1/GPa) = 0.07149422
#
# Stress axis : x y z
#
# Youngs Moduli (GPa) = 85.78757 35.86146 49.70097
#
# Poissons Ratio (x) = 0.08617 0.03205
# Poissons Ratio (y) = 0.20614 -0.44551
# Poissons Ratio (z) = 0.05532 -0.32146
#
# Static dielectric constant tensor:
#      x y z
#    x 2.172430 0.000000 0.050610 
#    y 0.000000 2.077100 0.000000 
#    z 0.050610 0.000000 2.194710 
# 
# From -- ./inp_files/310210.got.cif
#   From: 2010.05.17/outbox.cif.g08.bks.cpg/sg15_156_cif.got.tgz:310210.got - 2010.06.03 18:47:42.
