data_PCOD9301593
_publ_section_title
;
Structure prediction by ZEFSAII (Michael W. Deem and Ramdas Pophale) SiO2 
 PCOD9301593
Probable space group: C 2/C
;
_chemical_formula_sum "Si O2"
_cell_formula_units_Z 52
_cell_length_a 11.698595
_cell_length_b 24.360790
_cell_length_c 15.328964
_cell_angle_alpha 90.000000
_cell_angle_beta 40.771995
_cell_angle_gamma 90.000000
_cell_volume 2852.887588
_symmetry_space_group_name_H-M "C 2/C"
_symmetry_group_IT_number 15
_symmetry_cell_setting 'monoclinic'
loop_
_space_group_symop_operation_xyz
x,y,z
-x,y,1/2-z
-x,-y,-z
x,-y,1/2+z
1/2+x,1/2+y,z
1/2-x,1/2+y,1/2-z
1/2-x,1/2-y,-z
1/2+x,1/2-y,1/2+z
loop_
_atom_site_type_symbol
_atom_site_label
_atom_site_fract_x
_atom_site_fract_y
_atom_site_fract_z
Si Si1 0.526290 0.353972 0.910811
Si Si2 0.963030 0.252897 0.369502
Si Si3 0.284120 0.995900 0.517987
Si Si4 0.827049 0.961907 0.602022
Si Si5 0.343966 0.866170 0.284380
Si Si6 0.331306 0.039127 0.668430
Si Si7 0.000000 0.912986 0.750000
O O1 0.551031 0.288380 0.888193
O O2 0.626177 0.397674 0.914737
O O3 0.569646 0.376285 0.788873
O O4 0.320487 0.356798 0.056859
O O5 0.750000 0.250000 0.500000
O O6 0.000000 0.233019 0.250000
O O7 0.058816 0.312559 0.312285
O O8 0.275017 0.022305 0.427694
O O9 0.269801 0.039448 0.604834
O O10 0.460873 0.964235 0.440683
O O11 0.131663 0.952510 0.622233
O O12 0.732214 0.984917 0.743238
O O13 0.000000 0.000000 0.500000
O O14 0.500000 0.893865 0.250000
O O15 0.273496 0.907086 0.252548
#
# Coordination Sequence:
#
# PCOD9301593 Si02
#       7
#     8   8   8   8   8   8   4
#     4  12  22  34  58  87 118 162 187 255 303 358
#     4  11  22  37  58  85 117 157 206 253 303 358
#     4  11  23  36  56  86 118 160 199 235 302 364
#     4  12  21  37  58  86 125 154 197 244 305 365
#     4  11  21  37  57  82 121 154 199 248 306 354
#     4  11  22  38  58  85 119 159 200 247 296 361
#     4  12  20  34  56  86 122 152 200 232 292 374
#
# _framework density 18.227146999999999
#
# number of rings (size 3 to 8) (size 9 to 14) (size 15 to 20)
#    0.000    0.615    8.462    2.308    0.000    0.000 
#    0.000    0.000    0.000    0.923    0.000    0.000 
#    0.000    0.000    0.000    0.000    0.000    0.000 
#
# Total GULP energy -144776.552665 kJ/mol
# GULP energy per Si atom -5568.328949 kJ/mol
# Density = 1.818566 g / cm^3
# Si number density = 18.227147 Si / 1000 Ang^3
#
#
#
# Elastic Constant Matrix: (Units=GPa)
#
#
# Indices 1 2 3 4 5 6 
#
# 1 55.6433 17.3311 -3.1589 -0.0001 20.8657 0.0000
# 2 17.3311 92.0180 6.8381 0.0000 5.7755 0.0000
# 3 -3.1589 6.8381 65.4879 -0.0002 3.6295 0.0001
# 4 -0.0001 0.0000 -0.0002 18.5103 0.0001 6.5123
# 5 20.8657 5.7755 3.6295 0.0001 29.1307 0.0000
# 6 0.0000 0.0000 0.0001 6.5123 0.0000 33.0217
#
#
#
# Elastic Compliance Matrix: (Units=1/GPa)
#
#
# Indices 1 2 3 4 5 6 
#
# 1 0.026248 -0.003993 0.002700 0.000000 -0.018346 0.000000
# 2 -0.003993 0.011682 -0.001453 0.000000 0.000725 0.000000
# 3 0.002700 -0.001453 0.015752 0.000000 -0.003608 0.000000
# 4 0.000000 0.000000 0.000000 0.058052 -0.000001 -0.011449
# 5 -0.018346 0.000725 -0.003608 -0.000001 0.047775 0.000000
# 6 0.000000 0.000000 0.000000 -0.011449 0.000000 0.032541
#
#
# Mechanical properties :
#
#
# Convention : Reuss Voigt Hill
#
# Bulk Modulus (GPa) = 20.75096 28.35222 24.55159
# Shear Modulus (GPa) = 23.40781 28.94179 26.17480
#
# Velocity S-wave (km/s) = 3.58750 3.98909 3.79361
# Velocity P-wave (km/s) = 5.34505 6.06678 5.71732
#
# Compressibility (1/GPa) = 0.04819054
#
# Stress axis : x y z
#
# Youngs Moduli (GPa) = 38.09815 85.60238 63.48442
#
# Poissons Ratio (x) = 0.34180 -0.17140
# Poissons Ratio (y) = 0.15212 0.09222
# Poissons Ratio (z) = -0.10286 0.12434
#
# Static dielectric constant tensor:
#      x y z
#    x 1.651290 0.000000 0.003270 
#    y 0.000000 1.681870 0.000000 
#    z 0.003270 0.000000 1.699960 
# 
# From -- ./inp_files/148354.got.cif
#   From: 2010.05.17/outbox.cif.g08.bks.cpg/sg15_75_cif.got.tgz:148354.got - 2010.06.03 18:47:42.
