data_PCOD9301568
_publ_section_title
;
Structure prediction by ZEFSAII (Michael W. Deem and Ramdas Pophale) SiO2 
 PCOD9301568
Probable space group: C 2/C
;
_chemical_formula_sum "Si O2"
_cell_formula_units_Z 40
_cell_length_a 9.477160
_cell_length_b 28.257910
_cell_length_c 10.138659
_cell_angle_alpha 90.000000
_cell_angle_beta 123.938294
_cell_angle_gamma 90.000000
_cell_volume 2252.620839
_symmetry_space_group_name_H-M "C 2/C"
_symmetry_group_IT_number 15
_symmetry_cell_setting 'monoclinic'
loop_
_space_group_symop_operation_xyz
x,y,z
-x,y,1/2-z
-x,-y,-z
x,-y,1/2+z
1/2+x,1/2+y,z
1/2-x,1/2+y,1/2-z
1/2-x,1/2-y,-z
1/2+x,1/2-y,1/2+z
loop_
_atom_site_type_symbol
_atom_site_label
_atom_site_fract_x
_atom_site_fract_y
_atom_site_fract_z
Si Si1 0.695597 0.776414 0.838586
Si Si2 0.704223 0.784032 0.355403
Si Si3 0.677000 0.885806 0.418376
Si Si4 0.018810 0.956426 0.912961
Si Si5 0.836286 0.135707 0.261603
O O1 0.500000 0.791042 0.750000
O O2 0.719104 0.738664 0.734273
O O3 0.801846 0.821778 0.843339
O O4 0.750000 0.750000 0.000000
O O5 0.500000 0.785108 0.250000
O O6 0.750000 0.750000 0.500000
O O7 0.758122 0.838381 0.397915
O O8 0.500000 0.893679 0.250000
O O9 0.800265 0.930569 0.472023
O O10 0.680107 0.872234 0.576644
O O11 0.000000 0.971347 0.750000
O O12 0.882312 0.913655 0.856133
O O13 0.000000 0.000000 0.000000
O O14 0.000000 0.145220 0.250000
#
# Coordination Sequence:
#
# PCOD9301568 Si02
#       5
#     8   8   8   8   8
#     4  12  26  36  51  88 131 154 194 247 305 330
#     4  11  21  36  62  81 111 167 207 229 272 364
#     4   9  19  35  64  85 110 147 216 233 276 353
#     4   9  20  41  65  86 111 150 200 249 299 349
#     4   9  20  41  63  79 116 165 205 230 286 371
#
# _framework density 17.757093999999999
#
# number of rings (size 3 to 8) (size 9 to 14) (size 15 to 20)
#    0.000    2.400    2.000    1.800   11.200    0.000 
#    3.600    5.000    0.000    0.000    0.000    0.000 
#    0.000    0.000    0.000    0.000    0.000    0.000 
#
# Total GULP energy -111469.404763 kJ/mol
# GULP energy per Si atom -5573.470238 kJ/mol
# Density = 1.771668 g / cm^3
# Si number density = 17.757094 Si / 1000 Ang^3
#
#
#
# Elastic Constant Matrix: (Units=GPa)
#
#
# Indices 1 2 3 4 5 6 
#
# 1 69.4006 54.8442 42.5845 0.0000 -7.8015 0.0000
# 2 54.8442 159.6224 79.7060 0.0000 -22.9684 0.0000
# 3 42.5845 79.7060 148.5213 0.0000 -3.1283 0.0000
# 4 0.0000 0.0000 0.0000 36.1208 0.0000 -12.3537
# 5 -7.8015 -22.9684 -3.1283 0.0000 33.1018 0.0000
# 6 0.0000 0.0000 0.0000 -12.3537 0.0000 29.3483
#
#
#
# Elastic Compliance Matrix: (Units=1/GPa)
#
#
# Indices 1 2 3 4 5 6 
#
# 1 0.020664 -0.005519 -0.002947 0.000000 0.000762 0.000000
# 2 -0.005519 0.011171 -0.004285 0.000000 0.006045 0.000000
# 3 -0.002947 -0.004285 0.009820 0.000000 -0.002740 0.000000
# 4 0.000000 0.000000 0.000000 0.032341 0.000000 0.013613
# 5 0.000762 0.006045 -0.002740 0.000000 0.034325 0.000000
# 6 0.000000 0.000000 0.000000 0.013613 0.000000 0.039804
#
#
# Mechanical properties :
#
#
# Convention : Reuss Voigt Hill
#
# Bulk Modulus (GPa) = 61.90838 81.31265 71.61051
# Shear Modulus (GPa) = 27.93118 33.07481 30.50299
#
# Velocity S-wave (km/s) = 3.97036 4.32050 4.14912
# Velocity P-wave (km/s) = 7.48051 8.41308 7.96046
#
# Compressibility (1/GPa) = 0.01615290
#
# Stress axis : x y z
#
# Youngs Moduli (GPa) = 48.39240 89.52107 101.83216
#
# Poissons Ratio (x) = 0.49403 0.30013
# Poissons Ratio (y) = 0.26706 0.43637
# Poissons Ratio (z) = 0.14262 0.38361
#
# Static dielectric constant tensor:
#      x y z
#    x 1.657000 0.000000 0.027170 
#    y 0.000000 1.603380 0.000000 
#    z 0.027170 0.000000 1.653570 
# 
# From -- ./inp_files/25816.got.cif
#   From: 2010.05.17/outbox.cif.g08.bks.cpg/sg15_13_cif.got.tgz:25816.got - 2010.06.03 18:47:42.
