data_PCOD9301143
_publ_section_title
;
Structure prediction by ZEFSAII (Michael W. Deem and Ramdas Pophale) SiO2 
 PCOD9301143
Probable space group: C 2/C
;
_chemical_formula_sum "Si O2"
_cell_formula_units_Z 60
_cell_length_a 20.497385
_cell_length_b 18.574622
_cell_length_c 9.669439
_cell_angle_alpha 90.000000
_cell_angle_beta 56.722331
_cell_angle_gamma 90.000000
_cell_volume 3077.776311
_symmetry_space_group_name_H-M "C 2/C"
_symmetry_group_IT_number 15
_symmetry_cell_setting 'monoclinic'
loop_
_space_group_symop_operation_xyz
x,y,z
-x,y,1/2-z
-x,-y,-z
x,-y,1/2+z
1/2+x,1/2+y,z
1/2-x,1/2+y,1/2-z
1/2-x,1/2-y,-z
1/2+x,1/2-y,1/2+z
loop_
_atom_site_type_symbol
_atom_site_label
_atom_site_fract_x
_atom_site_fract_y
_atom_site_fract_z
Si Si1 0.000000 0.601007 0.250000
Si Si2 0.902272 0.289406 0.025760
Si Si3 0.741694 0.482079 0.736519
Si Si4 0.853182 0.500341 0.845698
Si Si5 0.289417 0.229207 0.101530
Si Si6 0.414250 0.152829 0.795566
Si Si7 0.770378 0.144321 0.813016
Si Si8 0.330789 0.352268 0.557752
O O1 0.074580 0.549833 0.193036
O O2 0.971343 0.657304 0.399721
O O3 0.905808 0.288135 0.186746
O O4 0.820371 0.328551 0.076759
O O5 0.900405 0.207026 0.975296
O O6 0.807858 0.464702 0.772563
O O7 0.787476 0.480102 0.537003
O O8 0.721765 0.566420 0.765678
O O9 0.670047 0.430237 0.864706
O O10 0.887007 0.577415 0.763157
O O11 0.312115 0.299193 0.163066
O O12 0.231198 0.187787 0.270837
O O13 0.250000 0.250000 0.000000
O O14 0.359927 0.177286 0.983376
O O15 0.500000 0.143973 0.750000
O O16 0.802135 0.141941 0.932537
#
# Coordination Sequence:
#
# PCOD9301143 Si02
#       8
#     4   8   8   8   8   8   8   8
#     4  12  24  38  60  84 134 174 206 246 312 396
#     4  11  23  39  56  87 125 170 211 254 308 378
#     4  12  22  38  59  91 122 155 214 260 315 370
#     4  12  23  36  56  90 128 169 196 247 313 378
#     4  11  20  38  62  83 124 169 208 267 306 371
#     4  12  24  36  58  93 127 167 208 245 318 389
#     4  11  22  38  60  91 120 159 219 258 323 369
#     4  11  23  38  62  87 123 163 217 271 311 364
#
# _framework density 19.494592999999998
#
# number of rings (size 3 to 8) (size 9 to 14) (size 15 to 20)
#    0.000    0.533    8.667    1.600    1.867    3.200 
#    0.000    0.000    0.000    0.000    1.733    1.867 
#    0.000    0.000    0.000    0.000    0.000    0.000 
#
# Total GULP energy -167211.908665 kJ/mol
# GULP energy per Si atom -5573.730289 kJ/mol
# Density = 1.945022 g / cm^3
# Si number density = 19.494593 Si / 1000 Ang^3
#
#
#
# Elastic Constant Matrix: (Units=GPa)
#
#
# Indices 1 2 3 4 5 6 
#
# 1 17.9838 4.7085 5.6827 0.0000 10.2031 0.0000
# 2 4.7085 102.1888 13.8695 0.0000 -4.9184 0.0000
# 3 5.6827 13.8695 72.7301 0.0000 11.7206 0.0000
# 4 0.0000 0.0000 0.0000 37.9853 0.0000 3.0292
# 5 10.2031 -4.9184 11.7206 0.0000 23.8468 0.0000
# 6 0.0000 0.0000 0.0000 3.0292 0.0000 15.4325
#
#
#
# Elastic Compliance Matrix: (Units=1/GPa)
#
#
# Indices 1 2 3 4 5 6 
#
# 1 0.076007 -0.005200 0.000506 0.000000 -0.033842 0.000000
# 2 -0.005200 0.010642 -0.002536 0.000000 0.005666 0.000000
# 3 0.000506 -0.002536 0.015544 0.000000 -0.008380 0.000000
# 4 0.000000 0.000000 0.000000 0.026745 0.000000 -0.005250
# 5 -0.033842 0.005666 -0.008380 0.000000 0.061701 0.000000
# 6 0.000000 0.000000 0.000000 -0.005250 0.000000 0.065829
#
#
# Mechanical properties :
#
#
# Convention : Reuss Voigt Hill
#
# Bulk Modulus (GPa) = 11.39806 26.82488 19.11147
# Shear Modulus (GPa) = 16.65715 26.69572 21.67643
#
# Velocity S-wave (km/s) = 2.92627 3.70454 3.33816
# Velocity P-wave (km/s) = 4.15654 5.66465 4.96815
#
# Compressibility (1/GPa) = 0.08773426
#
# Stress axis : x y z
#
# Youngs Moduli (GPa) = 13.15669 93.96416 64.33368
#
# Poissons Ratio (x) = 0.48858 -0.03258
# Poissons Ratio (y) = 0.06841 0.16317
# Poissons Ratio (z) = -0.00666 0.23833
#
# Static dielectric constant tensor:
#      x y z
#    x 1.706520 0.000000 -0.026490 
#    y 0.000000 1.775750 0.000000 
#    z -0.026490 0.000000 1.741030 
# 
# From -- ./inp_files/62719.got.cif
#   From: 2010.05.17/outbox.cif.g08.bks.cpg/sg15_32_cif.got.tgz:62719.got - 2010.06.03 18:47:42.
