data_PCOD9301727
_publ_section_title
;
Structure prediction by ZEFSAII (Michael W. Deem and Ramdas Pophale) SiO2 
 PCOD9301727
Probable space group: C 2/C
;
_chemical_formula_sum "Si O2"
_cell_formula_units_Z 48
_cell_length_a 14.114614
_cell_length_b 22.222560
_cell_length_c 11.876705
_cell_angle_alpha 90.000000
_cell_angle_beta 30.533279
_cell_angle_gamma 90.000000
_cell_volume 1892.587159
_symmetry_space_group_name_H-M "C 2/C"
_symmetry_group_IT_number 15
_symmetry_cell_setting 'monoclinic'
loop_
_space_group_symop_operation_xyz
x,y,z
-x,y,1/2-z
-x,-y,-z
x,-y,1/2+z
1/2+x,1/2+y,z
1/2-x,1/2+y,1/2-z
1/2-x,1/2-y,-z
1/2+x,1/2-y,1/2+z
loop_
_atom_site_type_symbol
_atom_site_label
_atom_site_fract_x
_atom_site_fract_y
_atom_site_fract_z
Si Si1 0.707737 0.986136 0.910526
Si Si2 0.508201 0.298136 0.453588
Si Si3 0.312222 0.156859 0.084396
Si Si4 0.246932 0.335048 0.099456
Si Si5 0.764495 0.478871 0.368240
Si Si6 0.839772 0.696135 0.481397
O O1 0.712100 0.914179 0.903598
O O2 0.791871 0.006300 0.703888
O O3 0.484387 0.997535 0.140471
O O4 0.790205 0.003830 0.949787
O O5 0.310117 0.326811 0.683005
O O6 0.623886 0.297425 0.450216
O O7 0.656209 0.333438 0.222178
O O8 0.455771 0.234359 0.454058
O O9 0.227286 0.182745 0.056022
O O10 0.530474 0.170287 0.854787
O O11 0.278960 0.407131 0.079360
O O12 0.750000 0.750000 0.500000
O O13 0.000000 0.660798 0.250000
#
# Coordination Sequence:
#
# PCOD9301727 Si02
#       6
#     8   8   8   8   8   8
#     4   8  14  28  51  78 117 160 201 243 293 347
#     4  11  21  38  66  81 110 148 193 235 296 366
#     4   9  19  35  56  87 121 156 192 242 293 353
#     4   9  19  35  56  86 122 156 193 239 298 350
#     4   8  14  28  51  78 116 162 201 242 294 347
#     4   9  22  42  62  80 107 147 185 238 303 359
#
# _framework density 25.362109
#
# number of rings (size 3 to 8) (size 9 to 14) (size 15 to 20)
#    0.000    3.000    0.000    2.500    4.667    0.000 
#    0.000    9.167    3.667    0.000    0.000    0.000 
#    0.000    0.000    0.000    0.000    0.000    0.000 
#
# Total GULP energy -133789.239927 kJ/mol
# GULP energy per Si atom -5574.551664 kJ/mol
# Density = 2.530438 g / cm^3
# Si number density = 25.362109 Si / 1000 Ang^3
#
#
#
# Elastic Constant Matrix: (Units=GPa)
#
#
# Indices 1 2 3 4 5 6 
#
# 1 153.9136 31.2176 47.5680 0.0175 23.7945 0.0107
# 2 31.2176 23.6129 11.7014 -0.0041 11.4152 0.0034
# 3 47.5680 11.7014 188.5266 0.0245 8.8721 0.0104
# 4 0.0175 -0.0041 0.0245 3.6879 -0.0155 7.1936
# 5 23.7945 11.4152 8.8721 -0.0155 52.8997 -0.0111
# 6 0.0107 0.0034 0.0104 7.1936 -0.0111 -30.0071
#
#
#
# Elastic Compliance Matrix: (Units=1/GPa)
#
#
# Indices 1 2 3 4 5 6 
#
# 1 0.009469 -0.010922 -0.001635 -0.000039 -0.001628 -0.000007
# 2 -0.010922 0.061052 -0.000650 0.000054 -0.008153 0.000019
# 3 -0.001635 -0.000650 0.005761 -0.000023 -0.000091 -0.000004
# 4 -0.000039 0.000054 -0.000023 0.184760 0.000073 0.044292
# 5 -0.001628 -0.008153 -0.000091 0.000073 0.021411 0.000008
# 6 -0.000007 0.000019 -0.000004 0.044292 0.000008 -0.022707
#
#
# Mechanical properties :
#
#
# Convention : Reuss Voigt Hill
#
# Bulk Modulus (GPa) = 20.05209 60.78079 40.41644
# Shear Modulus (GPa) = 16.51348 23.68719 20.10034
#
# Velocity S-wave (km/s) = 2.55445 3.05939 2.81825
# Velocity P-wave (km/s) = 4.07723 6.04128 5.15368
#
# Compressibility (1/GPa) = 0.04987012
#
# Stress axis : x y z
#
# Youngs Moduli (GPa) = 105.60415 16.37941 173.56981
#
# Poissons Ratio (x) = 0.17889 0.28374
# Poissons Ratio (y) = 1.15338 0.11282
# Poissons Ratio (z) = 0.17263 0.01065
#
# Static dielectric constant tensor:
#      x y z
#    x 2.110740 0.000010 0.046560 
#    y 0.000010 2.001500 0.000000 
#    z 0.046560 0.000000 2.071380 
# 
# From -- ./inp_files/101604.got.cif
#   From: 2010.05.17/outbox.cif.g08.bks.cpg/sg15_51_cif.got.tgz:101604.got - 2010.06.03 18:47:42.
