data_PCOD9301732
_publ_section_title
;
Structure prediction by ZEFSAII (Michael W. Deem and Ramdas Pophale) SiO2 
 PCOD9301732
Probable space group: C 2/C
;
_chemical_formula_sum "Si O2"
_cell_formula_units_Z 44
_cell_length_a 16.731425
_cell_length_b 12.975545
_cell_length_c 13.506780
_cell_angle_alpha 90.000000
_cell_angle_beta 144.849588
_cell_angle_gamma 90.000000
_cell_volume 1688.205712
_symmetry_space_group_name_H-M "C 2/C"
_symmetry_group_IT_number 15
_symmetry_cell_setting 'monoclinic'
loop_
_space_group_symop_operation_xyz
x,y,z
-x,y,1/2-z
-x,-y,-z
x,-y,1/2+z
1/2+x,1/2+y,z
1/2-x,1/2+y,1/2-z
1/2-x,1/2-y,-z
1/2+x,1/2-y,1/2+z
loop_
_atom_site_type_symbol
_atom_site_label
_atom_site_fract_x
_atom_site_fract_y
_atom_site_fract_z
Si Si1 0.939850 0.736547 0.589129
Si Si2 0.327795 0.620089 0.209899
Si Si3 0.000000 0.115318 0.750000
Si Si4 0.278024 0.899769 0.483478
Si Si5 0.909076 0.603796 0.914917
Si Si6 0.287904 0.537872 0.385001
O O1 0.777670 0.712410 0.424862
O O2 0.000000 0.684636 0.750000
O O3 0.018518 0.845505 0.664624
O O4 0.003092 0.684946 0.555861
O O5 0.272110 0.515348 0.102517
O O6 0.310824 0.603251 0.309545
O O7 0.137139 0.169097 0.846256
O O8 0.929940 0.051234 0.590094
O O9 0.373325 0.864837 0.490510
O O10 0.268720 0.929469 0.213631
O O11 0.818964 0.419083 0.639114
O O12 0.000000 0.500000 0.000000
#
# Coordination Sequence:
#
# PCOD9301732 Si02
#       6
#     8   8   4   8   8   8
#     4  12  26  42  66 101 139 176 216 282 342 404
#     4  11  24  43  65 100 137 178 218 273 349 393
#     4   8  20  36  64 100 124 162 218 274 332 370
#     4   9  20  40  67  95 126 171 222 275 319 393
#     4  11  21  38  66  95 130 170 233 267 324 397
#     4   9  20  41  66  93 131 167 228 270 320 400
#
# _framework density 26.063174
#
# number of rings (size 3 to 8) (size 9 to 14) (size 15 to 20)
#    1.091    0.727    3.636    1.636    1.273    5.818 
#    0.000    0.909    0.000    0.000    0.000    0.000 
#    0.000    0.000    0.000    0.000    0.000    0.000 
#
# Total GULP energy -122779.702148 kJ/mol
# GULP energy per Si atom -5580.895552 kJ/mol
# Density = 2.600385 g / cm^3
# Si number density = 26.063174 Si / 1000 Ang^3
#
#
#
# Elastic Constant Matrix: (Units=GPa)
#
#
# Indices 1 2 3 4 5 6 
#
# 1 181.4630 9.1854 10.4014 0.0000 -48.6909 0.0000
# 2 9.1854 56.1405 -1.5639 0.0000 -8.1977 0.0000
# 3 10.4014 -1.5639 120.5936 0.0000 -4.7279 0.0000
# 4 0.0000 0.0000 0.0000 11.5713 0.0000 8.5409
# 5 -48.6909 -8.1977 -4.7279 0.0000 51.1072 0.0000
# 6 0.0000 0.0000 0.0000 8.5409 0.0000 31.9493
#
#
#
# Elastic Compliance Matrix: (Units=1/GPa)
#
#
# Indices 1 2 3 4 5 6 
#
# 1 0.007421 -0.000202 -0.000368 0.000000 0.007004 0.000000
# 2 -0.000202 0.018260 0.000363 0.000000 0.002770 0.000000
# 3 -0.000368 0.000363 0.008348 0.000000 0.000480 0.000000
# 4 0.000000 0.000000 0.000000 0.107664 0.000000 -0.028781
# 5 0.007004 0.002770 0.000480 0.000000 0.026728 0.000000
# 6 0.000000 0.000000 0.000000 -0.028781 0.000000 0.038994
#
#
# Mechanical properties :
#
#
# Convention : Reuss Voigt Hill
#
# Bulk Modulus (GPa) = 29.74864 43.80477 36.77670
# Shear Modulus (GPa) = 22.82746 41.60387 32.21566
#
# Velocity S-wave (km/s) = 2.96269 3.99967 3.51958
# Velocity P-wave (km/s) = 4.81063 6.17847 5.53695
#
# Compressibility (1/GPa) = 0.03361498
#
# Stress axis : x y z
#
# Youngs Moduli (GPa) = 134.74433 54.76427 119.79521
#
# Poissons Ratio (x) = 0.01105 0.04410
# Poissons Ratio (y) = 0.02719 -0.04346
# Poissons Ratio (z) = 0.04960 -0.01987
#
# Static dielectric constant tensor:
#      x y z
#    x 2.063010 0.000000 0.056060 
#    y 0.000000 2.146980 0.000000 
#    z 0.056060 0.000000 2.076500 
# 
# From -- ./inp_files/162077.got.cif
#   From: 2010.05.17/outbox.cif.g08.bks.cpg/sg15_82_cif.got.tgz:162077.got - 2010.06.03 18:47:42.
