data_PCOD9301892
_publ_section_title
;
Structure prediction by ZEFSAII (Michael W. Deem and Ramdas Pophale) SiO2 
 PCOD9301892
Probable space group: C 2/C
;
_chemical_formula_sum "Si O2"
_cell_formula_units_Z 40
_cell_length_a 15.840610
_cell_length_b 9.306893
_cell_length_c 14.231961
_cell_angle_alpha 90.000000
_cell_angle_beta 65.127017
_cell_angle_gamma 90.000000
_cell_volume 1903.551928
_symmetry_space_group_name_H-M "C 2/C"
_symmetry_group_IT_number 15
_symmetry_cell_setting 'monoclinic'
loop_
_space_group_symop_operation_xyz
x,y,z
-x,y,1/2-z
-x,-y,-z
x,-y,1/2+z
1/2+x,1/2+y,z
1/2-x,1/2+y,1/2-z
1/2-x,1/2-y,-z
1/2+x,1/2-y,1/2+z
loop_
_atom_site_type_symbol
_atom_site_label
_atom_site_fract_x
_atom_site_fract_y
_atom_site_fract_z
Si Si1 0.596880 0.708266 0.152938
Si Si2 0.910751 0.901564 0.049065
Si Si3 0.335486 0.784136 0.736100
Si Si4 0.706745 0.998591 0.099909
Si Si5 0.245662 0.988153 0.137011
O O1 0.500000 0.729702 0.250000
O O2 0.588474 0.695780 0.044595
O O3 0.664866 0.841770 0.138664
O O4 0.813381 0.009218 0.588413
O O5 0.854942 0.938318 0.834046
O O6 0.910734 0.808447 0.144018
O O7 0.000000 0.000000 0.000000
O O8 0.353466 0.882164 0.818312
O O9 0.297970 0.897223 0.677235
O O10 0.736498 0.336249 0.192717
O O11 0.710654 0.025854 0.986829
#
# Coordination Sequence:
#
# PCOD9301892 Si02
#       5
#     8   8   8   8   8
#     4  11  22  41  65  94 139 176 220 280 338 388
#     4  11  22  39  68  98 131 176 229 271 330 407
#     4  12  21  40  69  95 133 171 228 267 337 396
#     4  11  23  43  65  98 135 175 222 282 340 390
#     4  11  21  40  64 100 129 178 218 275 332 400
#
# _framework density 21.013349999999999
#
# number of rings (size 3 to 8) (size 9 to 14) (size 15 to 20)
#    0.000    0.800    6.000    3.000    0.000    0.000 
#    0.000    8.000    0.000    0.000    0.000    0.000 
#    0.000    0.000    0.000    0.000    0.000    0.000 
#
# Total GULP energy -111739.316915 kJ/mol
# GULP energy per Si atom -5586.965846 kJ/mol
# Density = 2.096552 g / cm^3
# Si number density = 21.013350 Si / 1000 Ang^3
#
#
#
# Elastic Constant Matrix: (Units=GPa)
#
#
# Indices 1 2 3 4 5 6 
#
# 1 39.6222 16.9839 27.2892 0.0000 -4.4698 0.0000
# 2 16.9839 114.0423 54.4600 0.0000 12.1901 0.0000
# 3 27.2892 54.4600 147.4591 0.0000 7.3355 0.0000
# 4 0.0000 0.0000 0.0000 52.2469 0.0000 5.2368
# 5 -4.4698 12.1901 7.3355 0.0000 25.2590 0.0000
# 6 0.0000 0.0000 0.0000 5.2368 0.0000 8.8148
#
#
#
# Elastic Compliance Matrix: (Units=1/GPa)
#
#
# Indices 1 2 3 4 5 6 
#
# 1 0.030973 -0.003129 -0.004996 0.000000 0.008442 0.000000
# 2 -0.003129 0.011388 -0.003375 0.000000 -0.005070 0.000000
# 3 -0.004996 -0.003375 0.009046 0.000000 -0.001883 0.000000
# 4 0.000000 0.000000 0.000000 0.020352 0.000000 -0.012091
# 5 0.008442 -0.005070 -0.001883 0.000000 0.044077 0.000000
# 6 0.000000 0.000000 0.000000 -0.012091 0.000000 0.120628
#
#
# Mechanical properties :
#
#
# Convention : Reuss Voigt Hill
#
# Bulk Modulus (GPa) = 35.20220 55.39884 45.30052
# Shear Modulus (GPa) = 18.59193 30.75684 24.67438
#
# Velocity S-wave (km/s) = 2.97773 3.82996 3.43041
# Velocity P-wave (km/s) = 5.34894 6.78078 6.10697
#
# Compressibility (1/GPa) = 0.02840731
#
# Stress axis : x y z
#
# Youngs Moduli (GPa) = 32.28606 87.81087 110.54451
#
# Poissons Ratio (x) = 0.27478 0.55231
# Poissons Ratio (y) = 0.10103 0.37304
# Poissons Ratio (z) = 0.16131 0.29633
#
# Static dielectric constant tensor:
#      x y z
#    x 1.771060 0.000000 0.022750 
#    y 0.000000 1.749060 0.000000 
#    z 0.022750 0.000000 1.772660 
# 
# From -- ./inp_files/165621.got.cif
#   From: 2010.05.17/outbox.cif.g08.bks.cpg/sg15_83_cif.got.tgz:165621.got - 2010.06.03 18:47:42.
