data_PCOD9301457
_publ_section_title
;
Structure prediction by ZEFSAII (Michael W. Deem and Ramdas Pophale) SiO2 
 PCOD9301457
Probable space group: C 2/C
;
_chemical_formula_sum "Si O2"
_cell_formula_units_Z 56
_cell_length_a 27.140148
_cell_length_b 13.860151
_cell_length_c 6.795290
_cell_angle_alpha 90.000000
_cell_angle_beta 78.101347
_cell_angle_gamma 90.000000
_cell_volume 2501.238693
_symmetry_space_group_name_H-M "C 2/C"
_symmetry_group_IT_number 15
_symmetry_cell_setting 'monoclinic'
loop_
_space_group_symop_operation_xyz
x,y,z
-x,y,1/2-z
-x,-y,-z
x,-y,1/2+z
1/2+x,1/2+y,z
1/2-x,1/2+y,1/2-z
1/2-x,1/2-y,-z
1/2+x,1/2-y,1/2+z
loop_
_atom_site_type_symbol
_atom_site_label
_atom_site_fract_x
_atom_site_fract_y
_atom_site_fract_z
Si Si1 0.287568 0.270186 0.170608
Si Si2 0.666850 0.009086 0.879775
Si Si3 0.459144 0.868368 0.069438
Si Si4 0.691930 0.656222 0.439792
Si Si5 0.137364 0.714724 0.732408
Si Si6 0.254238 0.022089 0.928400
Si Si7 0.935444 0.587515 0.146161
O O1 0.326160 0.221340 0.987508
O O2 0.317602 0.298047 0.340384
O O3 0.241859 0.206658 0.300046
O O4 0.262830 0.366571 0.094324
O O5 0.618446 0.935601 0.911144
O O6 0.656196 0.124394 0.853441
O O7 0.731239 0.991618 0.832658
O O8 0.518954 0.856416 0.998365
O O9 0.436348 0.869797 0.865253
O O10 0.422048 0.801719 0.225298
O O11 0.453199 0.976684 0.156158
O O12 0.647885 0.684871 0.332552
O O13 0.705890 0.547113 0.468651
O O14 0.180564 0.495921 0.616601
#
# Coordination Sequence:
#
# PCOD9301457 Si02
#       7
#     8   8   8   8   8   8   8
#     4  11  24  40  58  86 125 167 220 272 304 387
#     4  11  21  32  54  87 114 171 208 246 306 382
#     4   9  19  37  55  83 116 162 204 267 316 365
#     4  11  23  41  58  87 119 170 222 267 315 379
#     4  11  22  38  57  86 120 165 218 264 319 368
#     4  12  22  38  57  87 124 171 218 253 318 376
#     4   9  18  35  57  81 118 154 217 250 305 387
#
# _framework density 22.388905000000001
#
# number of rings (size 3 to 8) (size 9 to 14) (size 15 to 20)
#    0.000    1.429    2.857    3.857    2.000    0.000 
#    5.143    0.000    0.000    0.000    0.000    0.000 
#    0.000    4.714    0.571    3.000    4.286    0.000 
#
# Total GULP energy -156138.962806 kJ/mol
# GULP energy per Si atom -5576.391529 kJ/mol
# Density = 2.233795 g / cm^3
# Si number density = 22.388905 Si / 1000 Ang^3
#
#
#
# Elastic Constant Matrix: (Units=GPa)
#
#
# Indices 1 2 3 4 5 6 
#
# 1 139.7031 54.1594 78.3268 0.0000 -3.8150 0.0000
# 2 54.1594 83.7910 31.6746 0.0000 -4.9187 0.0000
# 3 78.3268 31.6746 169.5439 0.0000 -11.7749 0.0000
# 4 0.0000 0.0000 0.0000 40.6680 0.0000 0.1576
# 5 -3.8150 -4.9187 -11.7749 0.0000 45.4223 0.0000
# 6 0.0000 0.0000 0.0000 0.1576 0.0000 31.6301
#
#
#
# Elastic Compliance Matrix: (Units=1/GPa)
#
#
# Indices 1 2 3 4 5 6 
#
# 1 0.012012 -0.006125 -0.004461 0.000000 -0.000811 0.000000
# 2 -0.006125 0.015992 -0.000075 0.000000 0.001198 0.000000
# 3 -0.004461 -0.000075 0.008092 0.000000 0.001715 0.000000
# 4 0.000000 0.000000 0.000000 0.024590 0.000000 -0.000123
# 5 -0.000811 0.001198 0.001715 0.000000 0.022522 0.000000
# 6 0.000000 0.000000 0.000000 -0.000123 0.000000 0.031616
#
#
# Mechanical properties :
#
#
# Convention : Reuss Voigt Hill
#
# Bulk Modulus (GPa) = 67.68723 80.15105 73.91914
# Shear Modulus (GPa) = 35.44324 38.80256 37.12290
#
# Velocity S-wave (km/s) = 3.98310 4.16759 4.07639
# Velocity P-wave (km/s) = 7.17297 7.68346 7.43260
#
# Compressibility (1/GPa) = 0.01477384
#
# Stress axis : x y z
#
# Youngs Moduli (GPa) = 83.25205 62.53101 123.57441
#
# Poissons Ratio (x) = 0.38301 0.55130
# Poissons Ratio (y) = 0.50993 0.00924
# Poissons Ratio (z) = 0.37141 0.00468
#
# Static dielectric constant tensor:
#      x y z
#    x 1.908630 0.000000 0.074920 
#    y 0.000000 1.767530 0.000000 
#    z 0.074920 0.000000 2.069760 
# 
# From -- ./inp_files/126128.got.cif
#   From: 2010.05.17/outbox.cif.g08.bks.cpg/sg15_64_cif.got.tgz:126128.got - 2010.06.03 18:47:42.
