data_PCOD9301104
_publ_section_title
;
Structure prediction by ZEFSAII (Michael W. Deem and Ramdas Pophale) SiO2 
 PCOD9301104
Probable space group: C 2/C
;
_chemical_formula_sum "Si O2"
_cell_formula_units_Z 64
_cell_length_a 11.923288
_cell_length_b 16.180848
_cell_length_c 28.078811
_cell_angle_alpha 90.000000
_cell_angle_beta 41.093417
_cell_angle_gamma 90.000000
_cell_volume 3560.673613
_symmetry_space_group_name_H-M "C 2/C"
_symmetry_group_IT_number 15
_symmetry_cell_setting 'monoclinic'
loop_
_space_group_symop_operation_xyz
x,y,z
-x,y,1/2-z
-x,-y,-z
x,-y,1/2+z
1/2+x,1/2+y,z
1/2-x,1/2+y,1/2-z
1/2-x,1/2-y,-z
1/2+x,1/2-y,1/2+z
loop_
_atom_site_type_symbol
_atom_site_label
_atom_site_fract_x
_atom_site_fract_y
_atom_site_fract_z
Si Si1 0.135982 0.013070 0.062502
Si Si2 0.082120 0.870518 0.421361
Si Si3 0.088943 0.135429 0.420605
Si Si4 0.120460 0.494847 0.165869
Si Si5 0.928825 0.274089 0.917769
Si Si6 0.349746 0.728425 0.834791
Si Si7 0.990390 0.469013 0.903148
Si Si8 0.159105 0.031080 0.664798
O O1 0.127426 0.000542 0.121525
O O2 0.036094 0.937545 0.068421
O O3 0.329798 0.008685 0.982177
O O4 0.041914 0.095706 0.074827
O O5 0.267087 0.911688 0.366902
O O6 0.003485 0.858236 0.498887
O O7 0.068695 0.785706 0.396674
O O8 0.178427 0.220854 0.378187
O O9 0.242494 0.069413 0.377604
O O10 0.020614 0.501851 0.148201
O O11 0.000000 0.501833 0.250000
O O12 0.907616 0.254853 0.868976
O O13 0.965922 0.370225 0.912863
O O14 0.750000 0.250000 0.000000
O O15 0.500000 0.749732 0.750000
O O16 0.322640 0.630436 0.842751
O O17 0.167679 0.493857 0.869860
O O18 0.000000 0.011564 0.750000
#
# Coordination Sequence:
#
# PCOD9301104 Si02
#       8
#     8   8   8   8   8   8   8   8
#     4  11  20  39  61  88 122 158 198 252 303 361
#     4  11  20  38  63  94 122 153 206 258 303 357
#     4  11  20  37  66  94 120 151 210 264 298 353
#     4  11  22  35  62  95 124 155 201 262 314 350
#     4  12  20  36  66  89 119 157 213 248 293 364
#     4  11  22  38  59  93 122 160 212 255 297 357
#     4  12  23  40  62  92 119 163 207 247 303 376
#     4  11  27  42  59  86 128 168 200 246 315 372
#
# _framework density 17.974126999999999
#
# number of rings (size 3 to 8) (size 9 to 14) (size 15 to 20)
#    0.000    0.750    7.500    1.500    3.500    0.000 
#    0.000    2.500    0.000    0.000    0.000    0.000 
#    0.000    0.000    0.000    0.000    0.000    0.000 
#
# Total GULP energy -178867.302417 kJ/mol
# GULP energy per Si atom -5589.603201 kJ/mol
# Density = 1.793322 g / cm^3
# Si number density = 17.974127 Si / 1000 Ang^3
#
#
#
# Elastic Constant Matrix: (Units=GPa)
#
#
# Indices 1 2 3 4 5 6 
#
# 1 128.1335 64.2116 69.4032 0.0000 7.4200 0.0000
# 2 64.2116 83.0195 50.6935 0.0002 0.4569 -0.0001
# 3 69.4032 50.6935 121.6758 0.0005 28.3860 0.0001
# 4 0.0000 0.0002 0.0005 10.7086 -0.0001 -16.0493
# 5 7.4200 0.4569 28.3860 -0.0001 26.4942 -0.0003
# 6 0.0000 -0.0001 0.0001 -16.0493 -0.0003 16.1720
#
#
#
# Elastic Compliance Matrix: (Units=1/GPa)
#
#
# Indices 1 2 3 4 5 6 
#
# 1 0.014679 -0.008023 -0.005471 -0.000001 0.001889 -0.000001
# 2 -0.008023 0.022438 -0.006940 -0.000001 0.009296 -0.000001
# 3 -0.005471 -0.006940 0.018459 0.000003 -0.018125 0.000003
# 4 -0.000001 -0.000001 0.000003 -0.191611 -0.000006 -0.190157
# 5 0.001889 0.009296 -0.018125 -0.000006 0.056474 -0.000005
# 6 -0.000001 -0.000001 0.000003 -0.190157 -0.000005 -0.126878
#
#
# Mechanical properties :
#
#
# Convention : Reuss Voigt Hill
#
# Bulk Modulus (GPa) = 67.99504 77.93839 72.96672
# Shear Modulus (GPa) = -31.11994 20.57632 -5.27181
#
# Velocity S-wave (km/s) = -4.16549 3.38712 -1.71446
# Velocity P-wave (km/s) = 3.84401 7.66501 6.06336
#
# Compressibility (1/GPa) = 0.01470695
#
# Stress axis : x y z
#
# Youngs Moduli (GPa) = 68.12506 44.56754 54.17406
#
# Poissons Ratio (x) = 0.35758 0.29637
# Poissons Ratio (y) = 0.54659 0.37599
# Poissons Ratio (z) = 0.37269 0.30932
#
# Static dielectric constant tensor:
#      x y z
#    x 1.601430 0.000000 -0.001280 
#    y 0.000000 1.618650 0.000000 
#    z -0.001280 0.000000 1.595750 
# 
# From -- ./inp_files/293036.got.cif
#   From: 2010.05.17/outbox.cif.g08.bks.cpg/sg15_147_cif.got.tgz:293036.got - 2010.06.03 18:47:42.
