data_PCOD9301652
_publ_section_title
;
Structure prediction by ZEFSAII (Michael W. Deem and Ramdas Pophale) SiO2 
 PCOD9301652
Probable space group: C 2/C
;
_chemical_formula_sum "Si O2"
_cell_formula_units_Z 48
_cell_length_a 26.469356
_cell_length_b 11.897300
_cell_length_c 21.470879
_cell_angle_alpha 90.000000
_cell_angle_beta 162.138277
_cell_angle_gamma 90.000000
_cell_volume 2073.885998
_symmetry_space_group_name_H-M "C 2/C"
_symmetry_group_IT_number 15
_symmetry_cell_setting 'monoclinic'
loop_
_space_group_symop_operation_xyz
x,y,z
-x,y,1/2-z
-x,-y,-z
x,-y,1/2+z
1/2+x,1/2+y,z
1/2-x,1/2+y,1/2-z
1/2-x,1/2-y,-z
1/2+x,1/2-y,1/2+z
loop_
_atom_site_type_symbol
_atom_site_label
_atom_site_fract_x
_atom_site_fract_y
_atom_site_fract_z
Si Si1 0.364052 0.108250 0.964119
Si Si2 0.471363 0.491304 0.789186
Si Si3 0.919959 0.850343 0.462823
Si Si4 0.721696 0.858630 0.648416
Si Si5 0.189827 0.339747 0.478146
Si Si6 0.143997 0.222009 0.814022
O O1 0.250145 0.116596 0.769285
O O2 0.259519 0.169614 0.895955
O O3 0.369349 0.973744 0.976506
O O4 0.538851 0.170903 0.167638
O O5 0.500000 0.465966 0.750000
O O6 0.281874 0.455954 0.575414
O O7 0.485047 0.622854 0.819162
O O8 0.555751 0.417742 0.943261
O O9 0.888203 0.717610 0.436338
O O10 0.081553 0.875130 0.608992
O O11 0.734037 0.792889 0.597610
O O12 0.250000 0.250000 0.500000
O O13 0.000000 0.354046 0.250000
O O14 0.250000 0.250000 0.000000
#
# Coordination Sequence:
#
# PCOD9301652 Si02
#       6
#     8   8   8   8   8   8
#     4  12  26  48  76 103 150 195 248 306 368 444
#     4  11  24  44  69 105 148 186 242 309 360 438
#     4  11  24  45  75 106 148 193 244 303 375 438
#     4  11  24  44  67 105 143 190 240 303 367 433
#     4  11  21  37  67 100 140 179 230 290 366 432
#     4  12  27  50  73 108 144 201 251 303 368 442
#
# _framework density 23.144957000000002
#
# number of rings (size 3 to 8) (size 9 to 14) (size 15 to 20)
#    0.000    0.667    3.333    6.500    4.667    0.000 
#    3.000    1.667    0.000    0.000    0.000    0.000 
#    0.000    0.000    0.000    0.000    0.000    0.000 
#
# Total GULP energy -134047.912816 kJ/mol
# GULP energy per Si atom -5585.329701 kJ/mol
# Density = 2.309228 g / cm^3
# Si number density = 23.144957 Si / 1000 Ang^3
#
#
#
# Elastic Constant Matrix: (Units=GPa)
#
#
# Indices 1 2 3 4 5 6 
#
# 1 51.7820 24.0631 12.1272 0.0001 -5.9257 0.0004
# 2 24.0631 136.1405 33.6572 0.0007 2.9674 0.0013
# 3 12.1272 33.6572 109.3607 0.0006 -11.0045 0.0008
# 4 0.0001 0.0007 0.0006 22.4746 0.0001 3.9028
# 5 -5.9257 2.9674 -11.0045 0.0001 27.1878 0.0005
# 6 0.0004 0.0013 0.0008 3.9028 0.0005 36.6734
#
#
#
# Elastic Compliance Matrix: (Units=1/GPa)
#
#
# Indices 1 2 3 4 5 6 
#
# 1 0.021798 -0.003768 -0.000769 0.000000 0.004851 0.000000
# 2 -0.003768 0.008701 -0.002542 0.000000 -0.002800 0.000000
# 3 -0.000769 -0.002542 0.010448 0.000000 0.004339 0.000000
# 4 0.000000 0.000000 0.000000 0.045332 0.000000 -0.004824
# 5 0.004851 -0.002800 0.004339 0.000000 0.039900 -0.000001
# 6 0.000000 0.000000 0.000000 -0.004824 -0.000001 0.027781
#
#
# Mechanical properties :
#
#
# Convention : Reuss Voigt Hill
#
# Bulk Modulus (GPa) = 37.32954 48.55315 42.94135
# Shear Modulus (GPa) = 28.24074 32.42954 30.33514
#
# Velocity S-wave (km/s) = 3.49688 3.74725 3.62423
# Velocity P-wave (km/s) = 5.69805 6.30444 6.00890
#
# Compressibility (1/GPa) = 0.02678843
#
# Stress axis : x y z
#
# Youngs Moduli (GPa) = 45.87532 114.93185 95.71050
#
# Poissons Ratio (x) = 0.43311 0.07363
# Poissons Ratio (y) = 0.17288 0.24326
# Poissons Ratio (z) = 0.03529 0.29211
#
# Static dielectric constant tensor:
#      x y z
#    x 1.936740 0.000000 -0.011680 
#    y 0.000000 2.112330 0.000000 
#    z -0.011680 0.000000 1.855720 
# 
# From -- ./inp_files/257647.got.cif
#   From: 2010.05.17/outbox.cif.g08.bks.cpg/sg15_129_cif.got.tgz:257647.got - 2010.06.03 18:47:42.
