data_PCOD9301144
_publ_section_title
;
Structure prediction by ZEFSAII (Michael W. Deem and Ramdas Pophale) SiO2 
 PCOD9301144
Probable space group: C 2/C
;
_chemical_formula_sum "Si O2"
_cell_formula_units_Z 52
_cell_length_a 13.575636
_cell_length_b 27.512024
_cell_length_c 10.097989
_cell_angle_alpha 90.000000
_cell_angle_beta 130.925617
_cell_angle_gamma 90.000000
_cell_volume 2849.620039
_symmetry_space_group_name_H-M "C 2/C"
_symmetry_group_IT_number 15
_symmetry_cell_setting 'monoclinic'
loop_
_space_group_symop_operation_xyz
x,y,z
-x,y,1/2-z
-x,-y,-z
x,-y,1/2+z
1/2+x,1/2+y,z
1/2-x,1/2+y,1/2-z
1/2-x,1/2-y,-z
1/2+x,1/2-y,1/2+z
loop_
_atom_site_type_symbol
_atom_site_label
_atom_site_fract_x
_atom_site_fract_y
_atom_site_fract_z
Si Si1 0.943263 0.708918 0.009155
Si Si2 0.135517 0.770459 0.804080
Si Si3 0.328009 0.960483 0.469710
Si Si4 0.213939 0.140053 0.886232
Si Si5 0.500000 0.292278 0.250000
Si Si6 0.219331 0.344017 0.754239
Si Si7 0.634500 0.951189 0.684853
O O1 0.909223 0.727557 0.834010
O O2 0.845113 0.666326 0.957351
O O3 0.922483 0.754966 0.087556
O O4 0.089166 0.688878 0.155393
O O5 0.192844 0.814843 0.770210
O O6 0.000000 0.786204 0.750000
O O7 0.250000 0.750000 0.000000
O O8 0.229055 0.915723 0.356053
O O9 0.476776 0.947827 0.556944
O O10 0.326420 0.964777 0.628790
O O11 0.309497 0.009207 0.368331
O O12 0.091147 0.173273 0.740387
O O13 0.214600 0.146013 0.045858
O O14 0.179418 0.398177 0.677958
#
# Coordination Sequence:
#
# PCOD9301144 Si02
#       7
#     8   8   8   8   4   8   8
#     4  12  21  37  59  89 117 152 196 243 292 350
#     4  12  26  41  54  81 126 169 199 231 288 363
#     4   9  18  35  57  83 116 143 190 247 297 353
#     4  11  21  35  61  89 115 148 196 253 297 341
#     4  12  22  32  58  90 116 148 194 246 288 342
#     4  11  20  38  62  84 117 154 195 245 301 344
#     4   9  18  35  58  86 111 146 190 246 302 348
#
# _framework density 18.248047
#
# number of rings (size 3 to 8) (size 9 to 14) (size 15 to 20)
#    0.000    1.231    6.154    1.385    0.000    0.000 
#    2.769    1.538    1.692    1.846    0.000    0.000 
#    0.000    0.000    0.000    0.000    0.000    0.000 
#
# Total GULP energy -144920.912522 kJ/mol
# GULP energy per Si atom -5573.881251 kJ/mol
# Density = 1.820651 g / cm^3
# Si number density = 18.248047 Si / 1000 Ang^3
#
#
#
# Elastic Constant Matrix: (Units=GPa)
#
#
# Indices 1 2 3 4 5 6 
#
# 1 99.0188 45.4686 5.8580 0.0000 -3.1693 0.0000
# 2 45.4686 138.7064 19.1034 0.0000 -11.0121 0.0000
# 3 5.8580 19.1034 30.3891 0.0000 -3.9117 0.0000
# 4 0.0000 0.0000 0.0000 19.7462 0.0000 -10.9171
# 5 -3.1693 -11.0121 -3.9117 0.0000 19.6601 0.0000
# 6 0.0000 0.0000 0.0000 -10.9171 0.0000 24.2081
#
#
#
# Elastic Compliance Matrix: (Units=1/GPa)
#
#
# Indices 1 2 3 4 5 6 
#
# 1 0.011891 -0.003939 0.000151 0.000000 -0.000260 0.000000
# 2 -0.003939 0.009443 -0.004698 0.000000 0.003720 0.000000
# 3 0.000151 -0.004698 0.036428 0.000000 0.004641 0.000000
# 4 0.000000 0.000000 0.000000 0.067463 0.000000 0.030423
# 5 -0.000260 0.003720 0.004641 0.000000 0.053829 0.000000
# 6 0.000000 0.000000 0.000000 0.030423 0.000000 0.055029
#
#
# Mechanical properties :
#
#
# Convention : Reuss Voigt Hill
#
# Bulk Modulus (GPa) = 24.51646 45.44160 34.97903
# Shear Modulus (GPa) = 18.89273 25.90182 22.39728
#
# Velocity S-wave (km/s) = 3.22114 3.77162 3.50720
# Velocity P-wave (km/s) = 5.22481 6.62745 5.96748
#
# Compressibility (1/GPa) = 0.04078892
#
# Stress axis : x y z
#
# Youngs Moduli (GPa) = 84.09921 105.89738 27.45131
#
# Poissons Ratio (x) = 0.41715 -0.00414
# Poissons Ratio (y) = 0.33128 0.12897
# Poissons Ratio (z) = -0.01268 0.49751
#
# Static dielectric constant tensor:
#      x y z
#    x 1.666920 0.000000 0.007200 
#    y 0.000000 1.628190 0.000000 
#    z 0.007200 0.000000 1.689440 
# 
# From -- ./inp_files/34436.got.cif
#   From: 2010.05.17/outbox.cif.g08.bks.cpg/sg15_18_cif.got.tgz:34436.got - 2010.06.03 18:47:42.
