data_PCOD9301581
_publ_section_title
;
Structure prediction by ZEFSAII (Michael W. Deem and Ramdas Pophale) SiO2 
 PCOD9301581
Probable space group: C 2/C
;
_chemical_formula_sum "Si O2"
_cell_formula_units_Z 60
_cell_length_a 13.425525
_cell_length_b 15.179677
_cell_length_c 16.253922
_cell_angle_alpha 90.000000
_cell_angle_beta 51.323691
_cell_angle_gamma 90.000000
_cell_volume 2586.008614
_symmetry_space_group_name_H-M "C 2/C"
_symmetry_group_IT_number 15
_symmetry_cell_setting 'monoclinic'
loop_
_space_group_symop_operation_xyz
x,y,z
-x,y,1/2-z
-x,-y,-z
x,-y,1/2+z
1/2+x,1/2+y,z
1/2-x,1/2+y,1/2-z
1/2-x,1/2-y,-z
1/2+x,1/2-y,1/2+z
loop_
_atom_site_type_symbol
_atom_site_label
_atom_site_fract_x
_atom_site_fract_y
_atom_site_fract_z
Si Si1 0.638820 0.261684 0.489664
Si Si2 0.105604 0.316244 0.544301
Si Si3 0.533261 0.007578 0.137318
Si Si4 0.713776 0.701517 0.231727
Si Si5 0.500000 0.588220 0.250000
Si Si6 0.333539 0.462123 0.986853
Si Si7 0.389765 0.852327 0.138108
Si Si8 0.171720 0.148623 0.441335
O O1 0.750000 0.250000 0.500000
O O2 0.675109 0.201864 0.392542
O O3 0.631529 0.368184 0.489674
O O4 0.508845 0.215656 0.585256
O O5 0.010053 0.392226 0.621234
O O6 0.070861 0.216828 0.535625
O O7 0.205875 0.324308 0.566618
O O8 0.162006 0.349613 0.427744
O O9 0.500000 0.998363 0.250000
O O10 0.680238 0.974362 0.049441
O O11 0.439149 0.946878 0.134939
O O12 0.599132 0.650853 0.246222
O O13 0.702778 0.807688 0.249363
O O14 0.710378 0.666065 0.327043
O O15 0.416401 0.535453 0.360184
O O16 0.363139 0.547932 0.026086
#
# Coordination Sequence:
#
# PCOD9301581 Si02
#       8
#     8   8   8   8   4   8   8   8
#     4  12  21  38  64 100 134 160 213 272 350 396
#     4   9  21  43  62  86 128 177 219 272 313 391
#     4  11  22  37  65  97 132 169 221 282 340 389
#     4  11  22  39  65  93 133 172 204 279 336 394
#     4  12  22  40  66 100 130 172 224 266 344 396
#     4  11  23  41  66  99 133 176 214 279 328 405
#     4  11  21  36  64  93 127 165 211 275 335 392
#     4   9  22  45  65  86 137 175 225 266 317 400
#
# _framework density 23.201778000000001
#
# number of rings (size 3 to 8) (size 9 to 14) (size 15 to 20)
#    0.000    1.333    4.000    1.200    0.933    2.667 
#    1.200   14.667    0.000    0.000    0.000    0.000 
#    0.000    0.000    0.000    0.000    0.000    0.000 
#
# Total GULP energy -167359.701415 kJ/mol
# GULP energy per Si atom -5578.656714 kJ/mol
# Density = 2.314897 g / cm^3
# Si number density = 23.201778 Si / 1000 Ang^3
#
#
#
# Elastic Constant Matrix: (Units=GPa)
#
#
# Indices 1 2 3 4 5 6 
#
# 1 46.3203 27.9515 16.2742 0.0000 23.3976 0.0000
# 2 27.9515 142.9405 39.1515 0.0000 22.8787 0.0000
# 3 16.2742 39.1515 123.8649 0.0000 1.1385 0.0000
# 4 0.0000 0.0000 0.0000 26.6716 0.0000 9.3360
# 5 23.3976 22.8787 1.1385 0.0000 29.2901 0.0000
# 6 0.0000 0.0000 0.0000 9.3360 0.0000 25.3317
#
#
#
# Elastic Compliance Matrix: (Units=1/GPa)
#
#
# Indices 1 2 3 4 5 6 
#
# 1 0.039202 -0.001706 -0.004337 0.000000 -0.029815 0.000000
# 2 -0.001706 0.008905 -0.002540 0.000000 -0.005494 0.000000
# 3 -0.004337 -0.002540 0.009399 0.000000 0.005083 0.000000
# 4 0.000000 0.000000 0.000000 0.043046 0.000000 -0.015865
# 5 -0.029815 -0.005494 0.005083 0.000000 0.062052 0.000000
# 6 0.000000 0.000000 0.000000 -0.015865 0.000000 0.045323
#
#
# Mechanical properties :
#
#
# Convention : Reuss Voigt Hill
#
# Bulk Modulus (GPa) = 24.78949 53.32002 39.05475
# Shear Modulus (GPa) = 20.96087 31.57526 26.26806
#
# Velocity S-wave (km/s) = 3.00895 3.69304 3.36840
# Velocity P-wave (km/s) = 4.77276 6.41994 5.65662
#
# Compressibility (1/GPa) = 0.04033967
#
# Stress axis : x y z
#
# Youngs Moduli (GPa) = 25.50880 112.30236 106.39086
#
# Poissons Ratio (x) = 0.19156 0.46146
# Poissons Ratio (y) = 0.04351 0.27023
# Poissons Ratio (z) = 0.11064 0.28524
#
# Static dielectric constant tensor:
#      x y z
#    x 2.039730 0.000000 -0.126890 
#    y 0.000000 1.934340 0.000000 
#    z -0.126890 0.000000 2.045050 
# 
# From -- ./inp_files/154260.got.cif
#   From: 2010.05.17/outbox.cif.g08.bks.cpg/sg15_78_cif.got.tgz:154260.got - 2010.06.03 18:47:42.
