data_PCOD9301755
_publ_section_title
;
Structure prediction by ZEFSAII (Michael W. Deem and Ramdas Pophale) SiO2 
 PCOD9301755
Probable space group: C 2/C
;
_chemical_formula_sum "Si O2"
_cell_formula_units_Z 48
_cell_length_a 16.162578
_cell_length_b 6.317193
_cell_length_c 22.882033
_cell_angle_alpha 90.000000
_cell_angle_beta 104.252300
_cell_angle_gamma 90.000000
_cell_volume 2264.395143
_symmetry_space_group_name_H-M "C 2/C"
_symmetry_group_IT_number 15
_symmetry_cell_setting 'monoclinic'
loop_
_space_group_symop_operation_xyz
x,y,z
-x,y,1/2-z
-x,-y,-z
x,-y,1/2+z
1/2+x,1/2+y,z
1/2-x,1/2+y,1/2-z
1/2-x,1/2-y,-z
1/2+x,1/2-y,1/2+z
loop_
_atom_site_type_symbol
_atom_site_label
_atom_site_fract_x
_atom_site_fract_y
_atom_site_fract_z
Si Si1 0.232373 0.079409 0.313676
Si Si2 0.371174 0.604096 0.876061
Si Si3 0.497016 0.857255 0.682502
Si Si4 0.825717 0.227107 0.594353
Si Si5 0.623115 0.220984 0.703205
Si Si6 0.307182 0.557212 0.984799
O O1 0.213116 0.931382 0.364832
O O2 0.300722 0.951295 0.286599
O O3 0.281088 0.289073 0.342903
O O4 0.148576 0.133105 0.262159
O O5 0.442674 0.726375 0.851218
O O6 0.374558 0.364698 0.853992
O O7 0.373664 0.626624 0.946313
O O8 0.500000 0.776371 0.750000
O O9 0.403412 0.844614 0.639358
O O10 0.536133 0.092548 0.691823
O O11 0.757669 0.394971 0.558500
O O12 0.850460 0.075708 0.544339
O O13 0.250000 0.750000 0.000000
#
# Coordination Sequence:
#
# PCOD9301755 Si02
#       6
#     8   8   8   8   8   8
#     4  11  21  38  71  97 129 176 230 283 331 422
#     4  11  23  43  68  99 132 179 231 278 345 405
#     4  11  28  43  63 104 143 175 219 285 357 413
#     4  11  25  44  67 102 139 173 238 287 340 412
#     4  11  23  39  66  99 136 176 223 280 348 408
#     4  11  24  44  74  98 130 186 238 284 336 407
#
# _framework density 21.197713
#
# number of rings (size 3 to 8) (size 9 to 14) (size 15 to 20)
#    0.000    1.000    5.000    1.000    4.667    4.000 
#    0.000    1.667    0.000    0.000    0.000    0.000 
#    0.000    0.000    0.000    0.000    0.000    0.000 
#
# Total GULP energy -134161.832386 kJ/mol
# GULP energy per Si atom -5590.076349 kJ/mol
# Density = 2.114947 g / cm^3
# Si number density = 21.197713 Si / 1000 Ang^3
#
#
#
# Elastic Constant Matrix: (Units=GPa)
#
#
# Indices 1 2 3 4 5 6 
#
# 1 66.9297 22.0914 37.1137 0.0000 -3.9116 0.0000
# 2 22.0914 76.7358 25.9577 0.0000 -7.7399 0.0000
# 3 37.1137 25.9577 122.1253 0.0000 -15.1193 0.0000
# 4 0.0000 0.0000 0.0000 43.3791 0.0000 -6.6817
# 5 -3.9116 -7.7399 -15.1193 0.0000 41.5865 0.0000
# 6 0.0000 0.0000 0.0000 -6.6817 0.0000 25.9989
#
#
#
# Elastic Compliance Matrix: (Units=1/GPa)
#
#
# Indices 1 2 3 4 5 6 
#
# 1 0.018956 -0.003829 -0.005041 0.000000 -0.000762 0.000000
# 2 -0.003829 0.014917 -0.001788 0.000000 0.001766 0.000000
# 3 -0.005041 -0.001788 0.010472 0.000000 0.003000 0.000000
# 4 0.000000 0.000000 0.000000 0.024003 0.000000 0.006169
# 5 -0.000762 0.001766 0.003000 0.000000 0.025394 0.000000
# 6 0.000000 0.000000 0.000000 0.006169 0.000000 0.040048
#
#
# Mechanical properties :
#
#
# Convention : Reuss Voigt Hill
#
# Bulk Modulus (GPa) = 43.42560 48.45740 45.94150
# Shear Modulus (GPa) = 30.71584 34.23477 32.47530
#
# Velocity S-wave (km/s) = 3.81072 4.02309 3.91835
# Velocity P-wave (km/s) = 6.31606 6.67006 6.49547
#
# Compressibility (1/GPa) = 0.02302789
#
# Stress axis : x y z
#
# Youngs Moduli (GPa) = 52.75472 67.03729 95.49381
#
# Poissons Ratio (x) = 0.25667 0.48140
# Poissons Ratio (y) = 0.20198 0.17079
# Poissons Ratio (z) = 0.26595 0.11989
#
# Static dielectric constant tensor:
#      x y z
#    x 1.759340 0.000000 -0.033720 
#    y 0.000000 1.782130 0.000000 
#    z -0.033720 0.000000 1.786380 
# 
# From -- ./inp_files/275708.got.cif
#   From: 2010.05.17/outbox.cif.g08.bks.cpg/sg15_138_cif.got.tgz:275708.got - 2010.06.03 18:47:42.
