data_PCOD9301501
_publ_section_title
;
Structure prediction by ZEFSAII (Michael W. Deem and Ramdas Pophale) SiO2 
 PCOD9301501
Probable space group: C 2/C
;
_chemical_formula_sum "Si O2"
_cell_formula_units_Z 48
_cell_length_a 19.484048
_cell_length_b 14.364814
_cell_length_c 16.175507
_cell_angle_alpha 90.000000
_cell_angle_beta 146.042120
_cell_angle_gamma 90.000000
_cell_volume 2528.861514
_symmetry_space_group_name_H-M "C 2/C"
_symmetry_group_IT_number 15
_symmetry_cell_setting 'monoclinic'
loop_
_space_group_symop_operation_xyz
x,y,z
-x,y,1/2-z
-x,-y,-z
x,-y,1/2+z
1/2+x,1/2+y,z
1/2-x,1/2+y,1/2-z
1/2-x,1/2-y,-z
1/2+x,1/2-y,1/2+z
loop_
_atom_site_type_symbol
_atom_site_label
_atom_site_fract_x
_atom_site_fract_y
_atom_site_fract_z
Si Si1 0.623162 0.250844 0.070907
Si Si2 0.374826 0.052117 0.399769
Si Si3 0.371016 0.926517 0.096578
Si Si4 0.625319 0.526035 0.332985
Si Si5 0.626645 0.744885 0.286254
Si Si6 0.126045 0.049154 0.653485
O O1 0.627001 0.158835 0.131081
O O2 0.748933 0.255120 0.142817
O O3 0.618751 0.345591 0.117067
O O4 0.497959 0.243072 0.891476
O O5 0.366759 0.067160 0.492280
O O6 0.500000 0.000000 0.500000
O O7 0.252923 0.998132 0.248908
O O8 0.500000 0.969423 0.250000
O O9 0.369164 0.823809 0.137961
O O10 0.251791 0.981049 0.009384
O O11 0.500000 0.500447 0.250000
O O12 0.621132 0.637846 0.310664
O O13 0.633739 0.466779 0.258753
O O14 0.000000 0.000000 0.500000
#
# Coordination Sequence:
#
# PCOD9301501 Si02
#       6
#     8   8   8   8   8   8
#     4  12  22  38  62  89 127 165 207 258 316 375
#     4  11  24  41  59  91 131 167 206 253 317 381
#     4  11  21  35  57  93 125 154 200 255 322 369
#     4  11  22  36  56  88 130 160 205 258 314 377
#     4  12  20  35  59  93 124 156 200 267 327 365
#     4  11  23  39  57  89 127 168 211 251 315 385
#
# _framework density 18.980874
#
# number of rings (size 3 to 8) (size 9 to 14) (size 15 to 20)
#    0.000    0.667    6.667    3.000    0.000    0.000 
#    0.000    0.000    0.000    1.000    0.000    7.000 
#    0.000    0.000    0.000    0.000    0.000    0.000 
#
# Total GULP energy -133918.417941 kJ/mol
# GULP energy per Si atom -5579.934081 kJ/mol
# Density = 1.893767 g / cm^3
# Si number density = 18.980874 Si / 1000 Ang^3
#
#
#
# Elastic Constant Matrix: (Units=GPa)
#
#
# Indices 1 2 3 4 5 6 
#
# 1 109.9857 53.9512 46.5424 0.0000 37.5230 0.0000
# 2 53.9512 128.1316 53.3440 0.0000 11.0375 0.0000
# 3 46.5424 53.3440 130.5888 0.0000 37.2486 0.0000
# 4 0.0000 0.0000 0.0000 21.6662 0.0000 -10.6429
# 5 37.5230 11.0375 37.2486 0.0000 43.9866 0.0000
# 6 0.0000 0.0000 0.0000 -10.6429 0.0000 29.8428
#
#
#
# Elastic Compliance Matrix: (Units=1/GPa)
#
#
# Indices 1 2 3 4 5 6 
#
# 1 0.016091 -0.005775 0.000166 0.000000 -0.012418 0.000000
# 2 -0.005775 0.011523 -0.004257 0.000000 0.005640 0.000000
# 3 0.000166 -0.004257 0.011963 0.000000 -0.009204 0.000000
# 4 0.000000 0.000000 0.000000 0.055958 0.000000 0.019956
# 5 -0.012418 0.005640 -0.009204 0.000000 0.039706 0.000000
# 6 0.000000 0.000000 0.000000 0.019956 0.000000 0.040626
#
#
# Mechanical properties :
#
#
# Convention : Reuss Voigt Hill
#
# Bulk Modulus (GPa) = 50.39250 75.15348 62.77299
# Shear Modulus (GPa) = 24.72636 33.42370 29.07503
#
# Velocity S-wave (km/s) = 3.61321 4.20088 3.91808
# Velocity P-wave (km/s) = 6.63429 7.95048 7.32202
#
# Compressibility (1/GPa) = 0.01984422
#
# Stress axis : x y z
#
# Youngs Moduli (GPa) = 62.14617 86.78567 83.59259
#
# Poissons Ratio (x) = 0.50117 -0.01388
# Poissons Ratio (y) = 0.35888 0.35589
# Poissons Ratio (z) = -0.01032 0.36949
#
# Static dielectric constant tensor:
#      x y z
#    x 1.708630 0.000000 0.034970 
#    y 0.000000 1.652180 0.000000 
#    z 0.034970 0.000000 1.755670 
# 
# From -- ./inp_files/162367.got.cif
#   From: 2010.05.17/outbox.cif.g08.bks.cpg/sg15_82_cif.got.tgz:162367.got - 2010.06.03 18:47:42.
