data_PCOD9301907
_publ_section_title
;
Structure prediction by ZEFSAII (Michael W. Deem and Ramdas Pophale) SiO2 
 PCOD9301907
Probable space group: C 2/C
;
_chemical_formula_sum "Si O2"
_cell_formula_units_Z 56
_cell_length_a 11.651459
_cell_length_b 14.214664
_cell_length_c 16.890872
_cell_angle_alpha 90.000000
_cell_angle_beta 95.418786
_cell_angle_gamma 90.000000
_cell_volume 2784.990979
_symmetry_space_group_name_H-M "C 2/C"
_symmetry_group_IT_number 15
_symmetry_cell_setting 'monoclinic'
loop_
_space_group_symop_operation_xyz
x,y,z
-x,y,1/2-z
-x,-y,-z
x,-y,1/2+z
1/2+x,1/2+y,z
1/2-x,1/2+y,1/2-z
1/2-x,1/2-y,-z
1/2+x,1/2-y,1/2+z
loop_
_atom_site_type_symbol
_atom_site_label
_atom_site_fract_x
_atom_site_fract_y
_atom_site_fract_z
Si Si1 0.735765 0.563153 0.288790
Si Si2 0.256704 0.557914 0.865838
Si Si3 0.115818 0.449162 0.977983
Si Si4 0.033608 0.641019 0.160568
Si Si5 0.230636 0.125097 0.873158
Si Si6 0.139400 0.725847 0.764426
Si Si7 0.017566 0.847318 0.156391
O O1 0.757070 0.522688 0.202247
O O2 0.857626 0.574231 0.341025
O O3 0.685289 0.474150 0.332253
O O4 0.673222 0.664416 0.281913
O O5 0.204397 0.522259 0.944083
O O6 0.186304 0.650244 0.831878
O O7 0.392964 0.579939 0.874289
O O8 0.068873 0.384382 0.903968
O O9 0.181647 0.393461 0.050535
O O10 0.000000 0.500000 0.000000
O O11 0.000000 0.634111 0.250000
O O12 0.076980 0.746255 0.151196
O O13 0.294679 0.187785 0.810513
O O14 0.107715 0.166367 0.889853
O O15 0.000000 0.718229 0.750000
O O16 0.000000 0.861763 0.250000
#
# Coordination Sequence:
#
# PCOD9301907 Si02
#       7
#     8   8   8   8   8   8   8
#     4  11  21  40  65  97 120 170 217 261 323 385
#     4  11  24  40  67  95 127 173 218 263 326 389
#     4  12  25  41  64  96 134 169 215 275 326 375
#     4  11  21  40  68  91 121 175 222 257 319 392
#     4  11  25  42  64  96 134 166 212 275 322 376
#     4  11  23  40  66  98 129 163 221 271 318 388
#     4  11  21  43  67  92 128 166 219 270 313 390
#
# _framework density 20.107785
#
# number of rings (size 3 to 8) (size 9 to 14) (size 15 to 20)
#    0.000    0.857    7.143    1.714    4.000    1.143 
#    0.000    4.286    0.000    0.000    0.000    0.000 
#    0.000    0.000    0.000    0.000    0.000    0.000 
#
# Total GULP energy -156156.146449 kJ/mol
# GULP energy per Si atom -5577.005230 kJ/mol
# Density = 2.006202 g / cm^3
# Si number density = 20.107785 Si / 1000 Ang^3
#
#
#
# Elastic Constant Matrix: (Units=GPa)
#
#
# Indices 1 2 3 4 5 6 
#
# 1 109.8023 22.7853 14.8516 0.0000 13.5832 0.0000
# 2 22.7853 86.5692 14.3260 0.0000 -0.7165 0.0000
# 3 14.8516 14.3260 74.4103 0.0000 13.6977 0.0000
# 4 0.0000 0.0000 0.0000 1.9887 0.0000 7.2049
# 5 13.5832 -0.7165 13.6977 0.0000 34.5330 0.0000
# 6 0.0000 0.0000 0.0000 7.2049 0.0000 32.3726
#
#
#
# Elastic Compliance Matrix: (Units=1/GPa)
#
#
# Indices 1 2 3 4 5 6 
#
# 1 0.010220 -0.002579 -0.000856 0.000000 -0.003734 0.000000
# 2 -0.002579 0.012633 -0.002322 0.000000 0.002198 0.000000
# 3 -0.000856 -0.002322 0.015107 0.000000 -0.005704 0.000000
# 4 0.000000 0.000000 0.000000 2.596171 0.000000 -0.577809
# 5 -0.003734 0.002198 -0.005704 0.000000 0.032735 0.000000
# 6 0.000000 0.000000 0.000000 -0.577809 0.000000 0.159489
#
#
# Mechanical properties :
#
#
# Convention : Reuss Voigt Hill
#
# Bulk Modulus (GPa) = 37.81340 41.63418 39.72379
# Shear Modulus (GPa) = 1.75643 28.36679 15.06161
#
# Velocity S-wave (km/s) = 0.93563 3.76005 2.73984
# Velocity P-wave (km/s) = 4.47363 6.29294 5.45960
#
# Compressibility (1/GPa) = 0.02644565
#
# Stress axis : x y z
#
# Youngs Moduli (GPa) = 97.84545 79.15932 66.19529
#
# Poissons Ratio (x) = 0.20417 0.05666
# Poissons Ratio (y) = 0.25237 0.15370
# Poissons Ratio (z) = 0.08375 0.18380
#
# Static dielectric constant tensor:
#      x y z
#    x 1.718610 0.000000 0.007790 
#    y 0.000000 1.734430 0.000000 
#    z 0.007790 0.000000 1.716920 
# 
# From -- ./inp_files/197946.got.cif
#   From: 2010.05.17/outbox.cif.g08.bks.cpg/sg15_99_cif.got.tgz:197946.got - 2010.06.03 18:47:42.
