data_PCOD9301780
_publ_section_title
;
Structure prediction by ZEFSAII (Michael W. Deem and Ramdas Pophale) SiO2 
 PCOD9301780
Probable space group: C 2/C
;
_chemical_formula_sum "Si O2"
_cell_formula_units_Z 52
_cell_length_a 14.599912
_cell_length_b 15.228334
_cell_length_c 18.213460
_cell_angle_alpha 90.000000
_cell_angle_beta 40.014446
_cell_angle_gamma 90.000000
_cell_volume 2603.712613
_symmetry_space_group_name_H-M "C 2/C"
_symmetry_group_IT_number 15
_symmetry_cell_setting 'monoclinic'
loop_
_space_group_symop_operation_xyz
x,y,z
-x,y,1/2-z
-x,-y,-z
x,-y,1/2+z
1/2+x,1/2+y,z
1/2-x,1/2+y,1/2-z
1/2-x,1/2-y,-z
1/2+x,1/2-y,1/2+z
loop_
_atom_site_type_symbol
_atom_site_label
_atom_site_fract_x
_atom_site_fract_y
_atom_site_fract_z
Si Si1 0.000000 0.251741 0.250000
Si Si2 0.923720 0.890442 0.689827
Si Si3 0.255061 0.366080 0.154848
Si Si4 0.600838 0.127211 0.903352
Si Si5 0.687213 0.959660 0.945036
Si Si6 0.670014 0.518351 0.493806
Si Si7 0.586638 0.681707 0.456169
O O1 0.015653 0.188210 0.169478
O O2 0.859857 0.309653 0.320598
O O3 0.815036 0.917506 0.819866
O O4 0.853913 0.853134 0.658738
O O5 0.019190 0.972776 0.606973
O O6 0.200335 0.368315 0.271286
O O7 0.267057 0.462718 0.112532
O O8 0.415477 0.329326 0.055040
O O9 0.616357 0.215509 0.940850
O O10 0.638583 0.043610 0.928532
O O11 0.440311 0.110448 0.973062
O O12 0.734359 0.996380 0.994687
O O13 0.644808 0.617932 0.483903
#
# Coordination Sequence:
#
# PCOD9301780 Si02
#       7
#     4   8   8   8   8   8   8
#     4  12  20  34  66  96 118 156 204 266 314 370
#     4  11  21  39  63  94 121 158 199 260 320 375
#     4  11  23  40  61  94 127 154 207 259 319 378
#     4  11  24  40  63  89 127 169 206 264 318 364
#     4  11  23  41  63  92 127 164 211 261 314 378
#     4  11  23  39  65  89 125 165 207 254 313 380
#     4  11  24  40  63  91 124 168 206 256 314 382
#
# _framework density 19.971481000000001
#
# number of rings (size 3 to 8) (size 9 to 14) (size 15 to 20)
#    0.000    0.923    3.077    5.538    0.000    1.846 
#    0.000    0.000    0.000    0.000    0.000    0.000 
#    0.000    0.000    0.000    0.000    0.000    0.000 
#
# Total GULP energy -145299.878587 kJ/mol
# GULP energy per Si atom -5588.456869 kJ/mol
# Density = 1.992603 g / cm^3
# Si number density = 19.971481 Si / 1000 Ang^3
#
#
#
# Elastic Constant Matrix: (Units=GPa)
#
#
# Indices 1 2 3 4 5 6 
#
# 1 30.4844 20.9009 8.6947 0.0000 -4.1851 0.0000
# 2 20.9009 107.8006 42.6299 0.0000 -6.6939 0.0000
# 3 8.6947 42.6299 79.1343 0.0000 4.3333 0.0000
# 4 0.0000 0.0000 0.0000 16.8109 0.0000 8.0078
# 5 -4.1851 -6.6939 4.3333 0.0000 15.7591 0.0000
# 6 0.0000 0.0000 0.0000 8.0078 0.0000 38.2969
#
#
#
# Elastic Compliance Matrix: (Units=1/GPa)
#
#
# Indices 1 2 3 4 5 6 
#
# 1 0.038704 -0.006568 -0.001141 0.000000 0.007803 0.000000
# 2 -0.006568 0.013680 -0.006975 0.000000 0.005984 0.000000
# 3 -0.001141 -0.006975 0.016954 0.000000 -0.007928 0.000000
# 4 0.000000 0.000000 0.000000 0.066065 0.000000 -0.013814
# 5 0.007803 0.005984 -0.007928 0.000000 0.070250 0.000000
# 6 0.000000 0.000000 0.000000 -0.013814 0.000000 0.029000
#
#
# Mechanical properties :
#
#
# Convention : Reuss Voigt Hill
#
# Bulk Modulus (GPa) = 25.02037 40.20781 32.61409
# Shear Modulus (GPa) = 18.02806 23.85298 20.94052
#
# Velocity S-wave (km/s) = 3.00774 3.45969 3.24160
# Velocity P-wave (km/s) = 4.96158 6.01129 5.51148
#
# Compressibility (1/GPa) = 0.03996744
#
# Stress axis : x y z
#
# Youngs Moduli (GPa) = 25.83733 73.09992 58.98323
#
# Poissons Ratio (x) = 0.48013 0.06733
# Poissons Ratio (y) = 0.16970 0.41143
# Poissons Ratio (z) = 0.02949 0.50990
#
# Static dielectric constant tensor:
#      x y z
#    x 1.726490 0.000000 -0.015770 
#    y 0.000000 1.702180 0.000000 
#    z -0.015770 0.000000 1.698330 
# 
# From -- ./inp_files/205635.got.cif
#   From: 2010.05.17/outbox.cif.g08.bks.cpg/sg15_103_cif.got.tgz:205635.got - 2010.06.03 18:47:42.
