data_PCOD9301764
_publ_section_title
;
Structure prediction by ZEFSAII (Michael W. Deem and Ramdas Pophale) SiO2 
 PCOD9301764
Probable space group: C 2/C
;
_chemical_formula_sum "Si O2"
_cell_formula_units_Z 64
_cell_length_a 13.922121
_cell_length_b 24.384221
_cell_length_c 9.207417
_cell_angle_alpha 90.000000
_cell_angle_beta 107.137101
_cell_angle_gamma 90.000000
_cell_volume 2986.959542
_symmetry_space_group_name_H-M "C 2/C"
_symmetry_group_IT_number 15
_symmetry_cell_setting 'monoclinic'
loop_
_space_group_symop_operation_xyz
x,y,z
-x,y,1/2-z
-x,-y,-z
x,-y,1/2+z
1/2+x,1/2+y,z
1/2-x,1/2+y,1/2-z
1/2-x,1/2-y,-z
1/2+x,1/2-y,1/2+z
loop_
_atom_site_type_symbol
_atom_site_label
_atom_site_fract_x
_atom_site_fract_y
_atom_site_fract_z
Si Si1 0.608666 0.582592 0.227216
Si Si2 0.902930 0.772668 0.129926
Si Si3 0.202209 0.876772 0.501684
Si Si4 0.886430 0.043673 0.761695
Si Si5 0.401929 0.155855 0.614125
Si Si6 0.607613 0.847224 0.735129
Si Si7 0.037459 0.776406 0.917791
Si Si8 0.682405 0.371465 0.042849
O O1 0.500000 0.580224 0.250000
O O2 0.613095 0.615100 0.079221
O O3 0.639234 0.519343 0.218878
O O4 0.680288 0.612495 0.372953
O O5 0.880119 0.717652 0.211864
O O6 0.000000 0.799651 0.250000
O O7 0.815853 0.817582 0.080068
O O8 0.947306 0.760076 0.988033
O O9 0.187336 0.926230 0.384207
O O10 0.303513 0.877113 0.639305
O O11 0.872945 0.079577 0.899152
O O12 0.000000 0.046568 0.750000
O O13 0.500000 0.137675 0.750000
O O14 0.399118 0.142874 0.440307
O O15 0.406910 0.221804 0.611051
O O16 0.297806 0.136395 0.638444
O O17 0.500000 0.863363 0.750000
O O18 0.000000 0.802603 0.750000
O O19 0.117184 0.816541 0.027730
#
# Coordination Sequence:
#
# PCOD9301764 Si02
#       8
#     8   8   8   8   8   8   8   8
#     4  11  23  43  66  97 132 165 207 266 327 386
#     4  11  21  39  60  94 136 168 209 261 307 385
#     4  12  23  39  68  96 125 176 217 254 322 382
#     4  11  25  41  66 100 133 164 206 265 328 386
#     4  11  25  44  63  92 130 174 217 264 318 369
#     4  11  24  44  63  91 132 173 217 267 311 373
#     4  11  22  37  61  93 132 169 207 253 317 381
#     4  12  23  41  67  94 129 170 216 260 314 392
#
# _framework density 21.426469999999998
#
# number of rings (size 3 to 8) (size 9 to 14) (size 15 to 20)
#    0.000    0.750    3.750    6.000    1.750    2.000 
#    0.000    0.000    0.000    4.500    0.000    0.000 
#    0.000    0.000    0.000    0.000    0.000    0.000 
#
# Total GULP energy -178875.989861 kJ/mol
# GULP energy per Si atom -5589.874683 kJ/mol
# Density = 2.137770 g / cm^3
# Si number density = 21.426470 Si / 1000 Ang^3
#
#
#
# Elastic Constant Matrix: (Units=GPa)
#
#
# Indices 1 2 3 4 5 6 
#
# 1 81.7172 9.1024 19.1073 0.0000 18.0772 0.0000
# 2 9.1024 41.5447 -3.4097 0.0000 2.5654 0.0000
# 3 19.1073 -3.4097 103.4332 0.0000 11.4087 0.0000
# 4 0.0000 0.0000 0.0000 16.0201 0.0000 -7.9590
# 5 18.0772 2.5654 11.4087 0.0000 43.2374 0.0000
# 6 0.0000 0.0000 0.0000 -7.9590 0.0000 9.2136
#
#
#
# Elastic Compliance Matrix: (Units=1/GPa)
#
#
# Indices 1 2 3 4 5 6 
#
# 1 0.014222 -0.002971 -0.002151 0.000000 -0.005202 0.000000
# 2 -0.002971 0.024877 0.001437 0.000000 -0.000613 0.000000
# 3 -0.002151 0.001437 0.010324 0.000000 -0.001910 0.000000
# 4 0.000000 0.000000 0.000000 0.109352 0.000000 0.094462
# 5 -0.005202 -0.000613 -0.001910 0.000000 0.025843 0.000000
# 6 0.000000 0.000000 0.000000 0.094462 0.000000 0.190134
#
#
# Mechanical properties :
#
#
# Convention : Reuss Voigt Hill
#
# Bulk Modulus (GPa) = 23.78099 30.69949 27.24024
# Shear Modulus (GPa) = 12.62175 27.15389 19.88782
#
# Velocity S-wave (km/s) = 2.42972 3.56379 3.04992
# Velocity P-wave (km/s) = 4.35825 5.59402 5.01435
#
# Compressibility (1/GPa) = 0.04205040
#
# Stress axis : x y z
#
# Youngs Moduli (GPa) = 70.31275 40.19745 96.86630
#
# Poissons Ratio (x) = 0.11944 0.20840
# Poissons Ratio (y) = 0.20893 -0.13916
# Poissons Ratio (z) = 0.15127 -0.05775
#
# Static dielectric constant tensor:
#      x y z
#    x 1.784820 0.000000 -0.003230 
#    y 0.000000 1.759100 0.000000 
#    z -0.003230 0.000000 1.871060 
# 
# From -- ./inp_files/43562.got.cif
#   From: 2010.05.17/outbox.cif.g08.bks.cpg/sg15_22_cif.got.tgz:43562.got - 2010.06.03 18:47:42.
