data_PCOD9301328
_publ_section_title
;
Structure prediction by ZEFSAII (Michael W. Deem and Ramdas Pophale) SiO2 
 PCOD9301328
Probable space group: C 2/C
;
_chemical_formula_sum "Si O2"
_cell_formula_units_Z 40
_cell_length_a 14.281637
_cell_length_b 13.385610
_cell_length_c 14.253451
_cell_angle_alpha 90.000000
_cell_angle_beta 33.285869
_cell_angle_gamma 90.000000
_cell_volume 1495.420998
_symmetry_space_group_name_H-M "C 2/C"
_symmetry_group_IT_number 15
_symmetry_cell_setting 'monoclinic'
loop_
_space_group_symop_operation_xyz
x,y,z
-x,y,1/2-z
-x,-y,-z
x,-y,1/2+z
1/2+x,1/2+y,z
1/2-x,1/2+y,1/2-z
1/2-x,1/2-y,-z
1/2+x,1/2-y,1/2+z
loop_
_atom_site_type_symbol
_atom_site_label
_atom_site_fract_x
_atom_site_fract_y
_atom_site_fract_z
Si Si1 0.834595 0.858014 0.452990
Si Si2 0.588691 0.692935 0.088368
Si Si3 0.152515 0.470683 0.461062
Si Si4 0.725582 0.813099 0.239887
Si Si5 0.213645 0.396541 0.750906
O O1 0.750000 0.750000 0.500000
O O2 0.718704 0.945213 0.507072
O O3 0.844214 0.882855 0.555510
O O4 0.000000 0.860698 0.250000
O O5 0.500000 0.639183 0.250000
O O6 0.447537 0.769775 0.163086
O O7 0.750000 0.750000 0.000000
O O8 0.664570 0.636559 0.934905
O O9 0.191525 0.379523 0.357954
O O10 0.245709 0.560288 0.328254
O O11 0.947281 0.466436 0.641026
O O12 0.831156 0.718292 0.190427
#
# Coordination Sequence:
#
# PCOD9301328 Si02
#       5
#     8   8   8   8   8
#     4  12  26  46  74 106 143 192 245 297 358 428
#     4   9  20  38  60  93 131 176 228 274 349 424
#     4  11  25  46  71 103 142 185 240 298 360 427
#     4  11  20  41  68  96 133 184 233 294 355 418
#     4  11  25  46  71 104 141 187 237 300 359 425
#
# _framework density 26.74832
#
# number of rings (size 3 to 8) (size 9 to 14) (size 15 to 20)
#    0.000    1.200    4.000    1.800    2.800    0.800 
#   10.800    0.000    0.000    0.000    0.000    0.000 
#    0.000    0.000    0.000    0.000    0.000    0.000 
#
# Total GULP energy -111771.713393 kJ/mol
# GULP energy per Si atom -5588.585670 kJ/mol
# Density = 2.668744 g / cm^3
# Si number density = 26.748320 Si / 1000 Ang^3
#
#
#
# Elastic Constant Matrix: (Units=GPa)
#
#
# Indices 1 2 3 4 5 6 
#
# 1 94.6936 1.9925 36.4057 -0.0001 10.6767 0.0001
# 2 1.9925 85.5035 14.9484 0.0000 11.7098 0.0000
# 3 36.4057 14.9484 194.0554 0.0001 35.2708 -0.0001
# 4 -0.0001 0.0000 0.0001 34.6252 0.0000 6.2086
# 5 10.6767 11.7098 35.2708 0.0000 44.4482 0.0000
# 6 0.0001 0.0000 -0.0001 6.2086 0.0000 35.5291
#
#
#
# Elastic Compliance Matrix: (Units=1/GPa)
#
#
# Indices 1 2 3 4 5 6 
#
# 1 0.011443 0.000247 -0.001933 0.000000 -0.001280 0.000000
# 2 0.000247 0.012167 -0.000456 0.000000 -0.002903 0.000000
# 3 -0.001933 -0.000456 0.006362 0.000000 -0.004464 0.000000
# 4 0.000000 0.000000 0.000000 0.029815 0.000000 -0.005210
# 5 -0.001280 -0.002903 -0.004464 0.000000 0.027113 0.000000
# 6 0.000000 0.000000 0.000000 -0.005210 0.000000 0.029056
#
#
# Mechanical properties :
#
#
# Convention : Reuss Voigt Hill
#
# Bulk Modulus (GPa) = 38.93014 53.43841 46.18428
# Shear Modulus (GPa) = 38.81891 44.31421 41.56656
#
# Velocity S-wave (km/s) = 3.81368 4.07469 3.94634
# Velocity P-wave (km/s) = 5.82907 6.49300 6.16997
#
# Compressibility (1/GPa) = 0.02568704
#
# Stress axis : x y z
#
# Youngs Moduli (GPa) = 87.39220 82.19000 157.17457
#
# Poissons Ratio (x) = -0.02026 0.30384
# Poissons Ratio (y) = -0.02155 0.07165
# Poissons Ratio (z) = 0.16894 0.03747
#
# Static dielectric constant tensor:
#      x y z
#    x 2.221570 0.000000 -0.118320 
#    y 0.000000 2.033440 0.000000 
#    z -0.118320 0.000000 2.098500 
# 
# From -- ./inp_files/162429.got.cif
#   From: 2010.05.17/outbox.cif.g08.bks.cpg/sg15_82_cif.got.tgz:162429.got - 2010.06.03 18:47:42.
