data_PCOD9301480
_publ_section_title
;
Structure prediction by ZEFSAII (Michael W. Deem and Ramdas Pophale) SiO2 
 PCOD9301480
Probable space group: C 2/C
;
_chemical_formula_sum "Si O2"
_cell_formula_units_Z 48
_cell_length_a 18.807489
_cell_length_b 6.762105
_cell_length_c 21.017502
_cell_angle_alpha 90.000000
_cell_angle_beta 85.991511
_cell_angle_gamma 90.000000
_cell_volume 2666.429525
_symmetry_space_group_name_H-M "C 2/C"
_symmetry_group_IT_number 15
_symmetry_cell_setting 'monoclinic'
loop_
_space_group_symop_operation_xyz
x,y,z
-x,y,1/2-z
-x,-y,-z
x,-y,1/2+z
1/2+x,1/2+y,z
1/2-x,1/2+y,1/2-z
1/2-x,1/2-y,-z
1/2+x,1/2-y,1/2+z
loop_
_atom_site_type_symbol
_atom_site_label
_atom_site_fract_x
_atom_site_fract_y
_atom_site_fract_z
Si Si1 0.823093 0.396144 0.805166
Si Si2 0.328330 0.789513 0.190892
Si Si3 0.083480 0.986778 0.230721
Si Si4 0.558727 0.028462 0.904590
Si Si5 0.413646 0.185804 0.877101
Si Si6 0.474102 0.278593 0.001773
O O1 0.746708 0.302182 0.824409
O O2 0.815485 0.550244 0.747387
O O3 0.876521 0.220144 0.781973
O O4 0.856292 0.524663 0.860038
O O5 0.378350 0.615825 0.216440
O O6 0.369907 0.902485 0.132634
O O7 0.000000 0.958909 0.250000
O O8 0.091228 0.123253 0.167299
O O9 0.492229 0.086587 0.863513
O O10 0.551364 0.804551 0.929107
O O11 0.541041 0.151652 0.970136
O O12 0.414668 0.245275 0.951025
O O13 0.500000 0.500000 0.000000
#
# Coordination Sequence:
#
# PCOD9301480 Si02
#       6
#     8   8   8   8   8   8
#     4  11  24  36  58  82 128 153 192 236 298 356
#     4  11  22  41  53  89 120 160 188 237 300 352
#     4  11  21  34  59  85 115 154 196 244 285 359
#     4   9  20  36  62  84 118 145 203 242 285 350
#     4   9  21  35  56  87 111 148 198 244 285 343
#     4   9  19  37  60  90 112 150 198 255 292 337
#
# _framework density 18.001598999999999
#
# number of rings (size 3 to 8) (size 9 to 14) (size 15 to 20)
#    1.000    1.000    3.333    0.000    4.667    1.333 
#    0.000    0.833    0.000    2.000    0.000    0.000 
#    0.000    0.000    0.000    0.000    0.000    0.000 
#
# Total GULP energy -133730.825862 kJ/mol
# GULP energy per Si atom -5572.117744 kJ/mol
# Density = 1.796063 g / cm^3
# Si number density = 18.001599 Si / 1000 Ang^3
#
#
#
# Elastic Constant Matrix: (Units=GPa)
#
#
# Indices 1 2 3 4 5 6 
#
# 1 125.3334 46.1801 26.3601 0.0000 2.9690 0.0000
# 2 46.1801 103.2863 24.3372 0.0000 14.2036 0.0000
# 3 26.3601 24.3372 44.5666 0.0000 3.7017 0.0000
# 4 0.0000 0.0000 0.0000 13.6644 0.0000 4.4248
# 5 2.9690 14.2036 3.7017 0.0000 17.1855 0.0000
# 6 0.0000 0.0000 0.0000 4.4248 0.0000 26.4245
#
#
#
# Elastic Compliance Matrix: (Units=1/GPa)
#
#
# Indices 1 2 3 4 5 6 
#
# 1 0.010235 -0.003935 -0.004102 0.000000 0.002368 0.000000
# 2 -0.003935 0.013828 -0.004410 0.000000 -0.009799 0.000000
# 3 -0.004102 -0.004410 0.027401 0.000000 -0.001549 0.000000
# 4 0.000000 0.000000 0.000000 0.077379 0.000000 -0.012957
# 5 0.002368 -0.009799 -0.001549 0.000000 0.066212 0.000000
# 6 0.000000 0.000000 0.000000 -0.012957 0.000000 0.040013
#
#
# Mechanical properties :
#
#
# Convention : Reuss Voigt Hill
#
# Bulk Modulus (GPa) = 37.63494 51.88232 44.75863
# Shear Modulus (GPa) = 18.59994 23.20882 20.90438
#
# Velocity S-wave (km/s) = 3.21789 3.59453 3.41141
# Velocity P-wave (km/s) = 5.89561 6.79051 6.35882
#
# Compressibility (1/GPa) = 0.02657105
#
# Stress axis : x y z
#
# Youngs Moduli (GPa) = 97.70100 72.31738 36.49504
#
# Poissons Ratio (x) = 0.28460 0.14968
# Poissons Ratio (y) = 0.38450 0.16093
# Poissons Ratio (z) = 0.40072 0.31889
#
# Static dielectric constant tensor:
#      x y z
#    x 1.600060 0.000000 0.011520 
#    y 0.000000 1.650010 0.000000 
#    z 0.011520 0.000000 1.628420 
# 
# From -- ./inp_files/275667.got.cif
#   From: 2010.05.17/outbox.cif.g08.bks.cpg/sg15_138_cif.got.tgz:275667.got - 2010.06.03 18:47:42.
