data_PCOD9301729
_publ_section_title
;
Structure prediction by ZEFSAII (Michael W. Deem and Ramdas Pophale) SiO2 
 PCOD9301729
Probable space group: C 2/C
;
_chemical_formula_sum "Si O2"
_cell_formula_units_Z 48
_cell_length_a 21.504204
_cell_length_b 4.877404
_cell_length_c 20.512329
_cell_angle_alpha 90.000000
_cell_angle_beta 119.290305
_cell_angle_gamma 90.000000
_cell_volume 1876.373497
_symmetry_space_group_name_H-M "C 2/C"
_symmetry_group_IT_number 15
_symmetry_cell_setting 'monoclinic'
loop_
_space_group_symop_operation_xyz
x,y,z
-x,y,1/2-z
-x,-y,-z
x,-y,1/2+z
1/2+x,1/2+y,z
1/2-x,1/2+y,1/2-z
1/2-x,1/2-y,-z
1/2+x,1/2-y,1/2+z
loop_
_atom_site_type_symbol
_atom_site_label
_atom_site_fract_x
_atom_site_fract_y
_atom_site_fract_z
Si Si1 0.634364 0.679209 0.560330
Si Si2 0.001778 0.434707 0.320031
Si Si3 0.374632 0.739180 0.189320
Si Si4 0.741964 0.952515 0.701771
Si Si5 0.051955 0.656384 0.476914
Si Si6 0.235852 0.505864 0.445788
O O1 0.664946 0.833694 0.639494
O O2 0.573670 0.450392 0.516979
O O3 0.701993 0.505020 0.574363
O O4 0.617211 0.940472 0.506089
O O5 0.062677 0.202287 0.334161
O O6 0.016365 0.628324 0.388047
O O7 0.000000 0.596567 0.250000
O O8 0.923317 0.299181 0.277589
O O9 0.304989 0.569990 0.178613
O O10 0.336146 0.991392 0.132180
O O11 0.764796 0.752068 0.772144
O O12 0.000000 0.500000 0.500000
O O13 0.250000 0.250000 0.500000
O O14 0.250000 0.750000 0.500000
#
# Coordination Sequence:
#
# PCOD9301729 Si02
#       6
#     8   8   8   8   8   8
#     4  11  25  40  67  96 130 177 225 280 337 391
#     4   8  20  41  69  91 141 169 227 265 336 392
#     4   8  20  39  62  99 125 178 210 278 327 396
#     4  11  24  42  68  97 137 175 225 274 336 405
#     4  12  25  46  67  98 134 182 232 279 334 406
#     4  11  21  38  66  93 131 163 217 275 336 401
#
# _framework density 25.581258999999999
#
# number of rings (size 3 to 8) (size 9 to 14) (size 15 to 20)
#    1.000    0.667    0.000    4.500    4.667    4.000 
#    0.000    4.167    0.000    0.000    0.000    0.000 
#    0.000    0.000    0.000    0.000    0.000    0.000 
#
# Total GULP energy -133635.867932 kJ/mol
# GULP energy per Si atom -5568.161164 kJ/mol
# Density = 2.552303 g / cm^3
# Si number density = 25.581259 Si / 1000 Ang^3
#
#
#
# Elastic Constant Matrix: (Units=GPa)
#
#
# Indices 1 2 3 4 5 6 
#
# 1 85.0704 4.2345 27.9276 0.0002 12.1389 -0.0001
# 2 4.2345 114.5256 25.2553 -0.0006 0.2403 0.0008
# 3 27.9276 25.2553 114.1287 0.0013 -6.0705 0.0013
# 4 0.0002 -0.0006 0.0013 28.9820 0.0005 -6.6183
# 5 12.1389 0.2403 -6.0705 0.0005 43.1610 0.0008
# 6 -0.0001 0.0008 0.0013 -6.6183 0.0008 23.9203
#
#
#
# Elastic Compliance Matrix: (Units=1/GPa)
#
#
# Indices 1 2 3 4 5 6 
#
# 1 0.013541 0.000305 -0.003611 0.000000 -0.004318 0.000000
# 2 0.000305 0.009191 -0.002132 0.000000 -0.000437 0.000000
# 3 -0.003611 -0.002132 0.010249 -0.000001 0.002469 -0.000001
# 4 0.000000 0.000000 -0.000001 0.036831 -0.000001 0.010190
# 5 -0.004318 -0.000437 0.002469 -0.000001 0.024733 -0.000001
# 6 0.000000 0.000000 -0.000001 0.010190 -0.000001 0.044625
#
#
# Mechanical properties :
#
#
# Convention : Reuss Voigt Hill
#
# Bulk Modulus (GPa) = 45.23709 47.61775 46.42742
# Shear Modulus (GPa) = 31.76321 36.29983 34.03152
#
# Velocity S-wave (km/s) = 3.52754 3.77105 3.65133
# Velocity P-wave (km/s) = 5.85777 6.13317 5.99705
#
# Compressibility (1/GPa) = 0.02210576
#
# Stress axis : x y z
#
# Youngs Moduli (GPa) = 73.84823 108.79722 97.57414
#
# Poissons Ratio (x) = -0.03314 0.35231
# Poissons Ratio (y) = -0.02249 0.20800
# Poissons Ratio (z) = 0.26664 0.23192
#
# Static dielectric constant tensor:
#      x y z
#    x 2.262410 0.000000 0.132550 
#    y 0.000000 2.046390 0.000000 
#    z 0.132550 0.000000 2.150180 
# 
# From -- ./inp_files/281064.got.cif
#   From: 2010.05.17/outbox.cif.g08.bks.cpg/sg15_141_cif.got.tgz:281064.got - 2010.06.03 18:47:42.
