data_PCOD9301122
_publ_section_title
;
Structure prediction by ZEFSAII (Michael W. Deem and Ramdas Pophale) SiO2 
 PCOD9301122
Probable space group: C 2/C
;
_chemical_formula_sum "Si O2"
_cell_formula_units_Z 64
_cell_length_a 28.086808
_cell_length_b 14.037979
_cell_length_c 9.034078
_cell_angle_alpha 90.000000
_cell_angle_beta 99.626633
_cell_angle_gamma 90.000000
_cell_volume 3511.816269
_symmetry_space_group_name_H-M "C 2/C"
_symmetry_group_IT_number 15
_symmetry_cell_setting 'monoclinic'
loop_
_space_group_symop_operation_xyz
x,y,z
-x,y,1/2-z
-x,-y,-z
x,-y,1/2+z
1/2+x,1/2+y,z
1/2-x,1/2+y,1/2-z
1/2-x,1/2-y,-z
1/2+x,1/2-y,1/2+z
loop_
_atom_site_type_symbol
_atom_site_label
_atom_site_fract_x
_atom_site_fract_y
_atom_site_fract_z
Si Si1 0.948138 0.104048 0.652399
Si Si2 0.694487 0.613857 0.566656
Si Si3 0.948002 0.101448 0.293355
Si Si4 0.806676 0.397311 0.582690
Si Si5 0.648812 0.705961 0.283383
Si Si6 0.804307 0.600914 0.724975
Si Si7 0.695239 0.393407 0.550089
Si Si8 0.355807 0.707952 0.715592
O O1 0.950599 0.096589 0.474564
O O2 0.908303 0.178560 0.686976
O O3 0.000000 0.127664 0.750000
O O4 0.934774 0.001500 0.716814
O O5 0.686621 0.639686 0.391621
O O6 0.749679 0.627497 0.645907
O O7 0.683282 0.502187 0.581462
O O8 0.655682 0.684853 0.620643
O O9 0.905949 0.173576 0.224465
O O10 0.000000 0.125722 0.250000
O O11 0.817064 0.499640 0.659889
O O12 0.806933 0.404225 0.404617
O O13 0.751515 0.374017 0.600584
O O14 0.840199 0.313095 0.660262
O O15 0.660797 0.815630 0.312613
O O16 0.662488 0.679550 0.122582
O O17 0.681184 0.369159 0.375780
#
# Coordination Sequence:
#
# PCOD9301122 Si02
#       8
#     8   8   8   8   8   8   8   8
#     4  11  23  38  60  87 117 149 189 235 291 352
#     4  11  24  33  59  89 120 153 194 234 284 355
#     4  11  23  39  59  86 118 152 184 239 292 347
#     4  11  24  39  59  81 119 155 199 242 285 333
#     4  12  24  38  60  83 121 155 198 236 287 347
#     4  11  24  41  55  85 117 156 199 244 282 332
#     4  11  20  38  56  85 119 157 186 236 285 346
#     4  12  22  39  60  83 116 160 192 235 292 341
#
# _framework density 18.224188999999999
#
# number of rings (size 3 to 8) (size 9 to 14) (size 15 to 20)
#    0.000    0.750    3.750    5.250   10.500    0.000 
#    0.000    0.000    0.000    0.750    0.000    3.500 
#    0.000    0.000    0.000    0.000    0.000    0.000 
#
# Total GULP energy -178728.931787 kJ/mol
# GULP energy per Si atom -5585.279118 kJ/mol
# Density = 1.818271 g / cm^3
# Si number density = 18.224189 Si / 1000 Ang^3
#
#
#
# Elastic Constant Matrix: (Units=GPa)
#
#
# Indices 1 2 3 4 5 6 
#
# 1 104.4195 75.8851 25.5151 0.0000 2.5823 0.0000
# 2 75.8851 107.5772 24.8348 0.0000 7.9754 0.0000
# 3 25.5151 24.8348 64.8684 0.0000 1.1085 0.0000
# 4 0.0000 0.0000 0.0000 22.7095 0.0000 -0.5969
# 5 2.5823 7.9754 1.1085 0.0000 19.6018 0.0000
# 6 0.0000 0.0000 0.0000 -0.5969 0.0000 33.2431
#
#
#
# Elastic Compliance Matrix: (Units=1/GPa)
#
#
# Indices 1 2 3 4 5 6 
#
# 1 0.020262 -0.013902 -0.002701 0.000000 0.003140 0.000000
# 2 -0.013902 0.020047 -0.002101 0.000000 -0.006207 0.000000
# 3 -0.002701 -0.002101 0.017279 0.000000 0.000233 0.000000
# 4 0.000000 0.000000 0.000000 0.044055 0.000000 0.000791
# 5 0.003140 -0.006207 0.000233 0.000000 0.053114 0.000000
# 6 0.000000 0.000000 0.000000 0.000791 0.000000 0.030096
#
#
# Mechanical properties :
#
#
# Convention : Reuss Voigt Hill
#
# Bulk Modulus (GPa) = 49.55407 58.81500 54.18453
# Shear Modulus (GPa) = 21.83514 25.15289 23.49402
#
# Velocity S-wave (km/s) = 3.46517 3.71912 3.59439
# Velocity P-wave (km/s) = 6.57726 7.12640 6.85733
#
# Compressibility (1/GPa) = 0.02017998
#
# Stress axis : x y z
#
# Youngs Moduli (GPa) = 49.35251 49.88160 57.87515
#
# Poissons Ratio (x) = 0.69347 0.15633
# Poissons Ratio (y) = 0.68611 0.12158
# Poissons Ratio (z) = 0.13331 0.10479
#
# Static dielectric constant tensor:
#      x y z
#    x 1.613410 0.000000 -0.001940 
#    y 0.000000 1.600730 0.000000 
#    z -0.001940 0.000000 1.637710 
# 
# From -- ./inp_files/66232.got.cif
#   From: 2010.05.17/outbox.cif.g08.bks.cpg/sg15_34_cif.got.tgz:66232.got - 2010.06.03 18:47:42.
