data_PCOD9301162
_publ_section_title
;
Structure prediction by ZEFSAII (Michael W. Deem and Ramdas Pophale) SiO2 
 PCOD9301162
Probable space group: C 2/C
;
_chemical_formula_sum "Si O2"
_cell_formula_units_Z 48
_cell_length_a 20.098665
_cell_length_b 9.168280
_cell_length_c 11.206584
_cell_angle_alpha 90.000000
_cell_angle_beta 56.864182
_cell_angle_gamma 90.000000
_cell_volume 1729.216785
_symmetry_space_group_name_H-M "C 2/C"
_symmetry_group_IT_number 15
_symmetry_cell_setting 'monoclinic'
loop_
_space_group_symop_operation_xyz
x,y,z
-x,y,1/2-z
-x,-y,-z
x,-y,1/2+z
1/2+x,1/2+y,z
1/2-x,1/2+y,1/2-z
1/2-x,1/2-y,-z
1/2+x,1/2-y,1/2+z
loop_
_atom_site_type_symbol
_atom_site_label
_atom_site_fract_x
_atom_site_fract_y
_atom_site_fract_z
Si Si1 0.088590 0.742936 0.778278
Si Si2 0.233659 0.584490 0.985568
Si Si3 0.937455 0.917758 0.157497
Si Si4 0.074306 0.274346 0.620172
Si Si5 0.704265 0.027836 0.769545
Si Si6 0.412051 0.802124 0.495324
O O1 0.158387 0.681633 0.793434
O O2 0.113534 0.710856 0.617121
O O3 0.006195 0.660977 0.893874
O O4 0.067799 0.913343 0.808564
O O5 0.139625 0.603189 0.041149
O O6 0.242724 0.502758 0.102086
O O7 0.250000 0.750000 0.000000
O O8 0.261840 0.526457 0.828801
O O9 0.895414 0.836731 0.308403
O O10 0.907274 0.856920 0.062269
O O11 0.973604 0.160100 0.917721
O O12 0.000000 0.358702 0.750000
O O13 0.639415 0.901857 0.864250
#
# Coordination Sequence:
#
# PCOD9301162 Si02
#       6
#     8   8   8   8   8   8
#     4  11  23  36  68 118 146 192 241 305 356 443
#     4  12  27  52  78 106 146 199 249 308 371 446
#     4   9  19  38  65 105 150 191 233 292 360 431
#     4   8  18  39  72 103 140 190 240 280 365 428
#     4  12  25  49  72 105 141 196 247 304 375 432
#     4  11  20  38  65 105 156 186 238 289 368 435
#
# _framework density 27.758230999999999
#
# number of rings (size 3 to 8) (size 9 to 14) (size 15 to 20)
#    1.000    0.333    3.333    4.000    0.000    2.667 
#    3.000    4.167    0.000    0.000    0.000    0.000 
#    0.000    0.000    0.000    0.000    0.000    0.000 
#
# Total GULP energy -133946.783123 kJ/mol
# GULP energy per Si atom -5581.115963 kJ/mol
# Density = 2.769505 g / cm^3
# Si number density = 27.758231 Si / 1000 Ang^3
#
#
#
# Elastic Constant Matrix: (Units=GPa)
#
#
# Indices 1 2 3 4 5 6 
#
# 1 71.2081 16.6025 43.4261 0.0000 27.2966 0.0000
# 2 16.6025 133.5331 38.8911 0.0000 14.8948 0.0000
# 3 43.4261 38.8911 165.0304 0.0000 57.7670 0.0000
# 4 0.0000 0.0000 0.0000 44.0541 0.0000 -4.4181
# 5 27.2966 14.8948 57.7670 0.0000 55.9201 0.0000
# 6 0.0000 0.0000 0.0000 -4.4181 0.0000 33.1836
#
#
#
# Elastic Compliance Matrix: (Units=1/GPa)
#
#
# Indices 1 2 3 4 5 6 
#
# 1 0.018051 -0.000862 -0.002417 0.000000 -0.006085 0.000000
# 2 -0.000862 0.008085 -0.001679 0.000000 0.000002 0.000000
# 3 -0.002417 -0.001679 0.010216 0.000000 -0.008926 0.000000
# 4 0.000000 0.000000 0.000000 0.023007 0.000000 0.003063
# 5 -0.006085 0.000002 -0.008926 0.000000 0.030073 0.000000
# 6 0.000000 0.000000 0.000000 0.003063 0.000000 0.030543
#
#
# Mechanical properties :
#
#
# Convention : Reuss Voigt Hill
#
# Bulk Modulus (GPa) = 37.82727 63.06786 50.44757
# Shear Modulus (GPa) = 36.04869 44.68837 40.36853
#
# Velocity S-wave (km/s) = 3.60761 4.01673 3.81765
# Velocity P-wave (km/s) = 5.56867 6.65446 6.13563
#
# Compressibility (1/GPa) = 0.02643595
#
# Stress axis : x y z
#
# Youngs Moduli (GPa) = 55.39935 123.68957 97.88955
#
# Poissons Ratio (x) = 0.10658 0.23658
# Poissons Ratio (y) = 0.04773 0.16437
# Poissons Ratio (z) = 0.13389 0.20769
#
# Static dielectric constant tensor:
#      x y z
#    x 2.429540 0.000000 -0.132510 
#    y 0.000000 2.064550 0.000000 
#    z -0.132510 0.000000 2.374090 
# 
# From -- ./inp_files/116726.got.cif
#   From: 2010.05.17/outbox.cif.g08.bks.cpg/sg15_59_cif.got.tgz:116726.got - 2010.06.03 18:47:42.
