data_PCOD9301087
_publ_section_title
;
Structure prediction by ZEFSAII (Michael W. Deem and Ramdas Pophale) SiO2 
 PCOD9301087
Probable space group: C 2/C
;
_chemical_formula_sum "Si O2"
_cell_formula_units_Z 48
_cell_length_a 33.541398
_cell_length_b 8.931242
_cell_length_c 18.879005
_cell_angle_alpha 90.000000
_cell_angle_beta 152.966355
_cell_angle_gamma 90.000000
_cell_volume 2570.508442
_symmetry_space_group_name_H-M "C 2/C"
_symmetry_group_IT_number 15
_symmetry_cell_setting 'monoclinic'
loop_
_space_group_symop_operation_xyz
x,y,z
-x,y,1/2-z
-x,-y,-z
x,-y,1/2+z
1/2+x,1/2+y,z
1/2-x,1/2+y,1/2-z
1/2-x,1/2-y,-z
1/2+x,1/2-y,1/2+z
loop_
_atom_site_type_symbol
_atom_site_label
_atom_site_fract_x
_atom_site_fract_y
_atom_site_fract_z
Si Si1 0.998208 0.629665 0.605314
Si Si2 0.338044 0.668566 0.113660
Si Si3 0.683865 0.718644 0.681437
Si Si4 0.248313 0.980850 0.153913
Si Si5 0.899600 0.965942 0.856373
Si Si6 0.435850 0.150125 0.947389
O O1 0.082929 0.710968 0.772813
O O2 0.008185 0.661536 0.536347
O O3 0.907164 0.701434 0.487068
O O4 0.986613 0.449016 0.586032
O O5 0.362423 0.572299 0.220728
O O6 0.250000 0.750000 0.000000
O O7 0.316192 0.566731 0.011394
O O8 0.726408 0.626541 0.685133
O O9 0.653582 0.597952 0.691576
O O10 0.746264 0.847473 0.812200
O O11 0.347819 0.940980 0.288492
O O12 0.903087 0.817338 0.911151
O O13 0.000000 0.000000 0.000000
#
# Coordination Sequence:
#
# PCOD9301087 Si02
#       6
#     8   8   8   8   8   8
#     4   9  18  35  60  87 119 167 204 247 311 385
#     4  11  21  37  64  97 124 160 215 270 309 374
#     4  11  23  40  63  91 127 170 210 260 333 385
#     4  11  23  38  63  93 127 165 213 272 316 377
#     4  11  20  37  63  92 120 163 208 256 319 386
#     4   9  17  35  59  86 118 161 209 239 307 385
#
# _framework density 18.673349000000002
#
# number of rings (size 3 to 8) (size 9 to 14) (size 15 to 20)
#    0.000    1.667    6.667    1.000    0.000    1.333 
#    0.000    0.000    0.000    0.000    4.333    0.000 
#    0.000    0.000    0.000    0.000    0.000    0.000 
#
# Total GULP energy -133698.343352 kJ/mol
# GULP energy per Si atom -5570.764306 kJ/mol
# Density = 1.863085 g / cm^3
# Si number density = 18.673349 Si / 1000 Ang^3
#
#
#
# Elastic Constant Matrix: (Units=GPa)
#
#
# Indices 1 2 3 4 5 6 
#
# 1 69.5953 49.2741 37.9727 0.0000 -4.8705 0.0000
# 2 49.2741 157.8725 56.8593 0.0000 -16.5489 0.0000
# 3 37.9727 56.8593 114.4206 0.0000 -12.3208 0.0000
# 4 0.0000 0.0000 0.0000 42.3960 0.0000 3.2496
# 5 -4.8705 -16.5489 -12.3208 0.0000 16.9927 0.0000
# 6 0.0000 0.0000 0.0000 3.2496 0.0000 36.8281
#
#
#
# Elastic Compliance Matrix: (Units=1/GPa)
#
#
# Indices 1 2 3 4 5 6 
#
# 1 0.020131 -0.004904 -0.004487 0.000000 -0.002259 0.000000
# 2 -0.004904 0.009346 -0.002373 0.000000 0.005975 0.000000
# 3 -0.004487 -0.002373 0.011954 0.000000 0.005070 0.000000
# 4 0.000000 0.000000 0.000000 0.023748 0.000000 -0.002095
# 5 -0.002259 0.005975 0.005070 0.000000 0.067696 0.000000
# 6 0.000000 0.000000 0.000000 -0.002095 0.000000 0.027338
#
#
# Mechanical properties :
#
#
# Convention : Reuss Voigt Hill
#
# Bulk Modulus (GPa) = 55.85939 70.01116 62.93527
# Shear Modulus (GPa) = 26.35603 32.42887 29.39245
#
# Velocity S-wave (km/s) = 3.76097 4.17182 3.97171
# Velocity P-wave (km/s) = 6.98847 7.79611 7.40332
#
# Compressibility (1/GPa) = 0.01790209
#
# Stress axis : x y z
#
# Youngs Moduli (GPa) = 49.67467 106.99814 83.65221
#
# Poissons Ratio (x) = 0.52470 0.37537
# Poissons Ratio (y) = 0.24360 0.19854
# Poissons Ratio (z) = 0.22290 0.25395
#
# Static dielectric constant tensor:
#      x y z
#    x 1.637720 0.000000 0.022950 
#    y 0.000000 1.736180 0.000000 
#    z 0.022950 0.000000 1.632300 
# 
# From -- ./inp_files/224685.got.cif
#   From: 2010.05.17/outbox.cif.g08.bks.cpg/sg15_113_cif.got.tgz:224685.got - 2010.06.03 18:47:42.
