data_PCOD9301821
_publ_section_title
;
Structure prediction by ZEFSAII (Michael W. Deem and Ramdas Pophale) SiO2 
 PCOD9301821
Probable space group: C 2/C
;
_chemical_formula_sum "Si O2"
_cell_formula_units_Z 56
_cell_length_a 9.206106
_cell_length_b 16.143602
_cell_length_c 29.939176
_cell_angle_alpha 90.000000
_cell_angle_beta 33.930943
_cell_angle_gamma 90.000000
_cell_volume 2483.709861
_symmetry_space_group_name_H-M "C 2/C"
_symmetry_group_IT_number 15
_symmetry_cell_setting 'monoclinic'
loop_
_space_group_symop_operation_xyz
x,y,z
-x,y,1/2-z
-x,-y,-z
x,-y,1/2+z
1/2+x,1/2+y,z
1/2-x,1/2+y,1/2-z
1/2-x,1/2-y,-z
1/2+x,1/2-y,1/2+z
loop_
_atom_site_type_symbol
_atom_site_label
_atom_site_fract_x
_atom_site_fract_y
_atom_site_fract_z
Si Si1 0.392634 0.518755 0.095709
Si Si2 0.310155 0.887893 0.672515
Si Si3 0.742879 0.611643 0.935021
Si Si4 0.761371 0.357101 0.786179
Si Si5 0.180741 0.712063 0.412587
Si Si6 0.251340 0.568283 0.844170
Si Si7 0.695557 0.923534 0.455960
O O1 0.204012 0.460771 0.114820
O O2 0.298873 0.567394 0.163789
O O3 0.607742 0.451994 0.056478
O O4 0.530767 0.580668 0.025206
O O5 0.372779 0.882793 0.708857
O O6 0.389306 0.811675 0.620786
O O7 0.000000 0.884809 0.750000
O O8 0.362597 0.974705 0.634027
O O9 0.654973 0.693405 0.932232
O O10 0.012006 0.626586 0.892374
O O11 0.480215 0.315170 0.848144
O O12 0.000000 0.309620 0.750000
O O13 0.979157 0.656088 0.491205
O O14 0.500000 0.577280 0.750000
O O15 0.338408 0.582476 0.872298
O O16 0.500000 0.000000 0.500000
#
# Coordination Sequence:
#
# PCOD9301821 Si02
#       7
#     8   8   8   8   8   8   8
#     4  11  23  43  67  95 128 174 225 266 327 389
#     4   9  18  37  62  87 122 166 210 254 317 383
#     4  11  25  42  64  97 134 167 215 282 324 386
#     4  11  22  39  66  96 129 170 211 265 328 391
#     4  11  23  42  66  93 130 173 218 268 332 385
#     4  11  21  39  66  95 126 173 220 264 325 398
#     4  12  20  41  68  94 125 175 226 270 316 408
#
# _framework density 22.546917000000001
#
# number of rings (size 3 to 8) (size 9 to 14) (size 15 to 20)
#    0.000    1.143    4.286    2.571    0.000    4.571 
#    0.000   12.143    0.000    0.000    0.000    0.000 
#    0.000    0.000    0.000    0.000    0.000    0.000 
#
# Total GULP energy -156383.121612 kJ/mol
# GULP energy per Si atom -5585.111486 kJ/mol
# Density = 2.249560 g / cm^3
# Si number density = 22.546917 Si / 1000 Ang^3
#
#
#
# Elastic Constant Matrix: (Units=GPa)
#
#
# Indices 1 2 3 4 5 6 
#
# 1 105.0690 34.8723 28.2092 0.0099 26.3261 0.0336
# 2 34.8723 115.9813 44.8912 -0.0171 23.7275 -0.0257
# 3 28.2092 44.8912 93.8330 0.0005 34.0585 -0.1175
# 4 0.0099 -0.0171 0.0005 7.6839 0.0066 3.3884
# 5 26.3261 23.7275 34.0585 0.0066 45.1138 0.0337
# 6 0.0336 -0.0257 -0.1175 3.3884 0.0337 28.7675
#
#
#
# Elastic Compliance Matrix: (Units=1/GPa)
#
#
# Indices 1 2 3 4 5 6 
#
# 1 0.011723 -0.002239 -0.000548 -0.000011 -0.005250 -0.000010
# 2 -0.002239 0.011201 -0.004162 0.000032 -0.001443 -0.000007
# 3 -0.000548 -0.004162 0.016395 -0.000036 -0.009869 0.000080
# 4 -0.000011 0.000032 -0.000036 0.137273 0.000009 -0.016169
# 5 -0.005250 -0.001443 -0.009869 0.000009 0.033439 -0.000076
# 6 -0.000010 -0.000007 0.000080 -0.016169 -0.000076 0.036666
#
#
# Mechanical properties :
#
#
# Convention : Reuss Voigt Hill
#
# Bulk Modulus (GPa) = 39.33524 58.98098 49.15811
# Shear Modulus (GPa) = 18.58250 30.10707 24.34478
#
# Velocity S-wave (km/s) = 2.87395 3.65815 3.28950
# Velocity P-wave (km/s) = 5.33822 6.63768 6.02310
#
# Compressibility (1/GPa) = 0.02542250
#
# Stress axis : x y z
#
# Youngs Moduli (GPa) = 85.30170 89.27472 60.99256
#
# Poissons Ratio (x) = 0.19987 0.03340
# Poissons Ratio (y) = 0.19097 0.25387
# Poissons Ratio (z) = 0.04672 0.37158
#
# Static dielectric constant tensor:
#      x y z
#    x -4.110050 0.017210 7.342760 
#    y 0.017210 1.852070 -0.021020 
#    z 7.342760 -0.021020 -7.103440 
# 
# From -- ./inp_files/308616.got.cif
#   From: 2010.05.17/outbox.cif.g08.bks.cpg/sg15_155_cif.got.tgz:308616.got - 2010.06.03 18:47:42.
