data_PCOD9301182
_publ_section_title
;
Structure prediction by ZEFSAII (Michael W. Deem and Ramdas Pophale) SiO2 
 PCOD9301182
Probable space group: C 2/C
;
_chemical_formula_sum "Si O2"
_cell_formula_units_Z 56
_cell_length_a 22.371689
_cell_length_b 5.341378
_cell_length_c 26.822992
_cell_angle_alpha 90.000000
_cell_angle_beta 127.185832
_cell_angle_gamma 90.000000
_cell_volume 2553.541340
_symmetry_space_group_name_H-M "C 2/C"
_symmetry_group_IT_number 15
_symmetry_cell_setting 'monoclinic'
loop_
_space_group_symop_operation_xyz
x,y,z
-x,y,1/2-z
-x,-y,-z
x,-y,1/2+z
1/2+x,1/2+y,z
1/2-x,1/2+y,1/2-z
1/2-x,1/2-y,-z
1/2+x,1/2-y,1/2+z
loop_
_atom_site_type_symbol
_atom_site_label
_atom_site_fract_x
_atom_site_fract_y
_atom_site_fract_z
Si Si1 0.886073 0.685709 0.434234
Si Si2 0.690798 0.191618 0.664021
Si Si3 0.295334 0.998984 0.038407
Si Si4 0.044590 0.344847 0.426335
Si Si5 0.725265 0.911586 0.360414
Si Si6 0.546663 0.345695 0.134637
Si Si7 0.337740 0.408531 0.748973
O O1 0.868757 0.407658 0.405651
O O2 0.943617 0.686935 0.508214
O O3 0.804111 0.772512 0.412025
O O4 0.910223 0.845030 0.397652
O O5 0.745855 0.390176 0.665906
O O6 0.650138 0.253957 0.694512
O O7 0.749746 0.975870 0.708087
O O8 0.375879 0.942876 0.054762
O O9 0.302984 0.018582 0.102040
O O10 0.250000 0.250000 0.000000
O O11 0.250000 0.750000 0.000000
O O12 0.991448 0.575760 0.385886
O O13 0.012530 0.075965 0.392260
O O14 0.662441 0.738077 0.302784
O O15 0.604269 0.370996 0.210155
#
# Coordination Sequence:
#
# PCOD9301182 Si02
#       7
#     8   8   8   8   8   8   8
#     4  11  23  40  67 109 137 178 232 290 358 409
#     4  11  20  38  68 104 139 174 232 296 343 406
#     4  12  26  50  75 100 137 177 242 300 337 408
#     4  12  27  45  69 101 141 188 229 274 357 423
#     4  11  24  40  75 101 132 184 239 298 344 399
#     4  12  26  43  68 100 152 184 217 281 352 441
#     4  11  22  39  65 101 141 180 228 280 352 408
#
# _framework density 21.930329
#
# number of rings (size 3 to 8) (size 9 to 14) (size 15 to 20)
#    0.000    0.571    4.286    4.286    6.000    0.000 
#    0.000    0.714    0.000    0.000    0.000    0.000 
#    0.000    0.000    0.000    0.000    0.000    0.000 
#
# Total GULP energy -156304.803857 kJ/mol
# GULP energy per Si atom -5582.314423 kJ/mol
# Density = 2.188041 g / cm^3
# Si number density = 21.930329 Si / 1000 Ang^3
#
#
#
# Elastic Constant Matrix: (Units=GPa)
#
#
# Indices 1 2 3 4 5 6 
#
# 1 89.1737 20.9826 27.1416 0.0008 0.0758 0.0002
# 2 20.9826 104.7333 40.8653 0.0022 4.5509 -0.0017
# 3 27.1416 40.8653 115.4249 0.0007 -4.6178 -0.0001
# 4 0.0008 0.0022 0.0007 48.5616 -0.0010 9.3403
# 5 0.0758 4.5509 -4.6178 -0.0010 33.7030 0.0017
# 6 0.0002 -0.0017 -0.0001 9.3403 0.0017 27.4928
#
#
#
# Elastic Compliance Matrix: (Units=1/GPa)
#
#
# Indices 1 2 3 4 5 6 
#
# 1 0.012292 -0.001539 -0.002351 0.000000 -0.000142 0.000000
# 2 -0.001539 0.011413 -0.003761 -0.000001 -0.002053 0.000001
# 3 -0.002351 -0.003761 0.010627 0.000000 0.001969 0.000000
# 4 0.000000 -0.000001 0.000000 0.022032 0.000001 -0.007485
# 5 -0.000142 -0.002053 0.001969 0.000001 0.030218 -0.000002
# 6 0.000000 0.000001 0.000000 -0.007485 -0.000002 0.038916
#
#
# Mechanical properties :
#
#
# Convention : Reuss Voigt Hill
#
# Bulk Modulus (GPa) = 52.54999 54.14565 53.34782
# Shear Modulus (GPa) = 33.98037 36.64098 35.31068
#
# Velocity S-wave (km/s) = 3.94060 4.09196 4.01700
# Velocity P-wave (km/s) = 6.68720 6.86069 6.77450
#
# Compressibility (1/GPa) = 0.01902950
#
# Stress axis : x y z
#
# Youngs Moduli (GPa) = 81.35409 87.61886 94.10152
#
# Poissons Ratio (x) = 0.13485 0.22125
# Poissons Ratio (y) = 0.12521 0.35391
# Poissons Ratio (z) = 0.19128 0.32953
#
# Static dielectric constant tensor:
#      x y z
#    x 1.879150 0.000020 0.038040 
#    y 0.000020 1.935400 0.000010 
#    z 0.038040 0.000010 1.823890 
# 
# From -- ./inp_files/301720.got.cif
#   From: 2010.05.17/outbox.cif.g08.bks.cpg/sg15_151_cif.got.tgz:301720.got - 2010.06.03 18:47:42.
