data_PCOD9301151
_publ_section_title
;
Structure prediction by ZEFSAII (Michael W. Deem and Ramdas Pophale) SiO2 
 PCOD9301151
Probable space group: C 2/C
;
_chemical_formula_sum "Si O2"
_cell_formula_units_Z 44
_cell_length_a 12.179621
_cell_length_b 8.765557
_cell_length_c 19.375361
_cell_angle_alpha 90.000000
_cell_angle_beta 98.276263
_cell_angle_gamma 90.000000
_cell_volume 2046.993307
_symmetry_space_group_name_H-M "C 2/C"
_symmetry_group_IT_number 15
_symmetry_cell_setting 'monoclinic'
loop_
_space_group_symop_operation_xyz
x,y,z
-x,y,1/2-z
-x,-y,-z
x,-y,1/2+z
1/2+x,1/2+y,z
1/2-x,1/2+y,1/2-z
1/2-x,1/2-y,-z
1/2+x,1/2-y,1/2+z
loop_
_atom_site_type_symbol
_atom_site_label
_atom_site_fract_x
_atom_site_fract_y
_atom_site_fract_z
Si Si1 0.343328 0.946732 0.633328
Si Si2 0.019041 0.648336 0.050196
Si Si3 0.000000 0.400746 0.250000
Si Si4 0.311946 0.255794 0.800843
Si Si5 0.859999 0.766409 0.554736
Si Si6 0.754998 0.424841 0.844079
O O1 0.413798 0.834527 0.590517
O O2 0.225498 0.879655 0.645856
O O3 0.410049 0.986961 0.708925
O O4 0.352148 0.108313 0.596213
O O5 0.126854 0.616188 0.108598
O O6 0.043864 0.773833 0.993713
O O7 0.000000 0.500000 0.000000
O O8 0.939679 0.292618 0.300485
O O9 0.270018 0.314698 0.722737
O O10 0.256122 0.097478 0.818198
O O11 0.750000 0.750000 0.500000
O O12 0.840198 0.899028 0.607498
#
# Coordination Sequence:
#
# PCOD9301151 Si02
#       6
#     8   8   4   8   8   8
#     4  11  20  40  65  91 120 171 220 258 332 390
#     4   9  19  37  66  90 123 179 216 257 325 392
#     4  12  22  40  68  88 138 172 208 272 338 382
#     4  12  23  38  66  96 126 171 214 276 325 393
#     4   9  19  37  64  87 126 169 207 271 318 380
#     4  11  20  38  62  97 130 166 223 269 332 387
#
# _framework density 21.49494
#
# number of rings (size 3 to 8) (size 9 to 14) (size 15 to 20)
#    0.000    1.455    5.455    0.000    0.000    0.000 
#    0.000   15.455    0.000    0.000    0.000    0.000 
#    0.000    0.000    0.000    0.000    0.000    0.000 
#
# Total GULP energy -122602.070465 kJ/mol
# GULP energy per Si atom -5572.821385 kJ/mol
# Density = 2.144602 g / cm^3
# Si number density = 21.494940 Si / 1000 Ang^3
#
#
#
# Elastic Constant Matrix: (Units=GPa)
#
#
# Indices 1 2 3 4 5 6 
#
# 1 72.0926 6.6378 12.1475 0.0000 -33.4512 0.0000
# 2 6.6378 39.9855 8.5974 0.0000 7.1763 0.0000
# 3 12.1475 8.5974 68.1651 0.0000 -8.2641 0.0000
# 4 0.0000 0.0000 0.0000 11.6223 0.0000 -11.1340
# 5 -33.4512 7.1763 -8.2641 0.0000 31.0884 0.0000
# 6 0.0000 0.0000 0.0000 -11.1340 0.0000 32.4267
#
#
#
# Elastic Compliance Matrix: (Units=1/GPa)
#
#
# Indices 1 2 3 4 5 6 
#
# 1 0.032560 -0.012295 0.000351 0.000000 0.037966 0.000000
# 2 -0.012295 0.031923 -0.004477 0.000000 -0.021788 0.000000
# 3 0.000351 -0.004477 0.015854 0.000000 0.005626 0.000000
# 4 0.000000 0.000000 0.000000 0.128216 0.000000 0.044024
# 5 0.037966 -0.021788 0.005626 0.000000 0.079543 0.000000
# 6 0.000000 0.000000 0.000000 0.044024 0.000000 0.045955
#
#
# Mechanical properties :
#
#
# Convention : Reuss Voigt Hill
#
# Bulk Modulus (GPa) = 21.05393 26.11207 23.58300
# Shear Modulus (GPa) = 13.06423 25.21819 19.14121
#
# Velocity S-wave (km/s) = 2.46800 3.42894 2.98736
# Velocity P-wave (km/s) = 4.23526 5.27742 4.78480
#
# Compressibility (1/GPa) = 0.04749707
#
# Stress axis : x y z
#
# Youngs Moduli (GPa) = 30.71211 31.32549 63.07411
#
# Poissons Ratio (x) = 0.38513 -0.02214
# Poissons Ratio (y) = 0.37759 0.28237
# Poissons Ratio (z) = -0.01078 0.14024
#
# Static dielectric constant tensor:
#      x y z
#    x 1.813010 0.000000 -0.073960 
#    y 0.000000 1.868400 0.000000 
#    z -0.073960 0.000000 1.773830 
# 
# From -- ./inp_files/202736.got.cif
#   From: 2010.05.17/outbox.cif.g08.bks.cpg/sg15_102_cif.got.tgz:202736.got - 2010.06.03 18:47:42.
