data_PCOD9301973
_publ_section_title
;
Structure prediction by ZEFSAII (Michael W. Deem and Ramdas Pophale) SiO2 
 PCOD9301973
Probable space group: C 2/C
;
_chemical_formula_sum "Si O2"
_cell_formula_units_Z 44
_cell_length_a 20.813704
_cell_length_b 8.862693
_cell_length_c 12.453856
_cell_angle_alpha 90.000000
_cell_angle_beta 124.888292
_cell_angle_gamma 90.000000
_cell_volume 1884.408689
_symmetry_space_group_name_H-M "C 2/C"
_symmetry_group_IT_number 15
_symmetry_cell_setting 'monoclinic'
loop_
_space_group_symop_operation_xyz
x,y,z
-x,y,1/2-z
-x,-y,-z
x,-y,1/2+z
1/2+x,1/2+y,z
1/2-x,1/2+y,1/2-z
1/2-x,1/2-y,-z
1/2+x,1/2-y,1/2+z
loop_
_atom_site_type_symbol
_atom_site_label
_atom_site_fract_x
_atom_site_fract_y
_atom_site_fract_z
Si Si1 0.686311 0.285903 0.694351
Si Si2 0.000000 0.794719 0.750000
Si Si3 0.126722 0.444691 0.289534
Si Si4 0.647145 0.262472 0.259650
Si Si5 0.787068 0.965353 0.559352
Si Si6 0.901865 0.050243 0.987110
O O1 0.659606 0.121395 0.708014
O O2 0.767007 0.283209 0.705512
O O3 0.701653 0.373432 0.820848
O O4 0.619899 0.380340 0.568197
O O5 0.067169 0.679925 0.775545
O O6 0.976089 0.904172 0.629055
O O7 0.098766 0.614681 0.244074
O O8 0.197146 0.468199 0.441156
O O9 0.670400 0.375619 0.377195
O O10 0.602520 0.352747 0.124541
O O11 0.831003 0.898777 0.498109
#
# Coordination Sequence:
#
# PCOD9301973 Si02
#       6
#     8   4   8   8   8   8
#     4  11  21  40  71 100 129 175 230 293 327 390
#     4  12  28  44  66  96 150 196 216 270 356 426
#     4  12  23  42  70 103 141 177 222 291 345 403
#     4  11  23  41  73 110 126 167 242 293 341 386
#     4  11  21  43  72 100 133 176 233 289 333 400
#     4  11  24  45  67  97 136 183 229 276 341 415
#
# _framework density 23.349499000000002
#
# number of rings (size 3 to 8) (size 9 to 14) (size 15 to 20)
#    0.000    0.727    5.455    3.273    0.000    1.455 
#    0.000    0.909    0.000    0.000    0.000    0.000 
#    0.000    0.000    0.000    0.000    0.000    0.000 
#
# Total GULP energy -123083.285059 kJ/mol
# GULP energy per Si atom -5594.694775 kJ/mol
# Density = 2.329635 g / cm^3
# Si number density = 23.349499 Si / 1000 Ang^3
#
#
#
# Elastic Constant Matrix: (Units=GPa)
#
#
# Indices 1 2 3 4 5 6 
#
# 1 36.6839 -11.5134 14.5864 0.0000 -6.0483 0.0000
# 2 -11.5134 103.5864 56.7785 0.0000 9.1836 0.0000
# 3 14.5864 56.7785 152.4573 0.0000 9.6216 0.0000
# 4 0.0000 0.0000 0.0000 28.1605 0.0000 2.4173
# 5 -6.0483 9.1836 9.6216 0.0000 24.7935 0.0000
# 6 0.0000 0.0000 0.0000 2.4173 0.0000 28.8657
#
#
#
# Elastic Compliance Matrix: (Units=1/GPa)
#
#
# Indices 1 2 3 4 5 6 
#
# 1 0.032913 0.006219 -0.005973 0.000000 0.008043 0.000000
# 2 0.006219 0.013499 -0.005538 0.000000 -0.001334 0.000000
# 3 -0.005973 -0.005538 0.009385 0.000000 -0.003048 0.000000
# 4 0.000000 0.000000 0.000000 0.035768 0.000000 -0.002995
# 5 0.008043 -0.001334 -0.003048 0.000000 0.043972 0.000000
# 6 0.000000 0.000000 0.000000 -0.002995 0.000000 0.034894
#
#
# Mechanical properties :
#
#
# Convention : Reuss Voigt Hill
#
# Bulk Modulus (GPa) = 22.11736 45.82560 33.97148
# Shear Modulus (GPa) = 25.49908 31.88904 28.69406
#
# Velocity S-wave (km/s) = 3.30822 3.69958 3.50936
# Velocity P-wave (km/s) = 4.90768 6.15774 5.56790
#
# Compressibility (1/GPa) = 0.04521336
#
# Stress axis : x y z
#
# Youngs Moduli (GPa) = 30.38342 74.08070 106.54749
#
# Poissons Ratio (x) = -0.46069 0.63636
# Poissons Ratio (y) = -0.18895 0.59007
# Poissons Ratio (z) = 0.18147 0.41026
#
# Static dielectric constant tensor:
#      x y z
#    x 1.912290 0.000000 0.020100 
#    y 0.000000 1.927020 0.000000 
#    z 0.020100 0.000000 1.853610 
# 
# From -- ./inp_files/116860.got.cif
#   From: 2010.05.17/outbox.cif.g08.bks.cpg/sg15_59_cif.got.tgz:116860.got - 2010.06.03 18:47:42.
