data_PCOD9301394
_publ_section_title
;
Structure prediction by ZEFSAII (Michael W. Deem and Ramdas Pophale) SiO2 
 PCOD9301394
Probable space group: C 2/C
;
_chemical_formula_sum "Si O2"
_cell_formula_units_Z 64
_cell_length_a 26.944989
_cell_length_b 9.446219
_cell_length_c 18.474089
_cell_angle_alpha 90.000000
_cell_angle_beta 138.275087
_cell_angle_gamma 90.000000
_cell_volume 3129.557704
_symmetry_space_group_name_H-M "C 2/C"
_symmetry_group_IT_number 15
_symmetry_cell_setting 'monoclinic'
loop_
_space_group_symop_operation_xyz
x,y,z
-x,y,1/2-z
-x,-y,-z
x,-y,1/2+z
1/2+x,1/2+y,z
1/2-x,1/2+y,1/2-z
1/2-x,1/2-y,-z
1/2+x,1/2-y,1/2+z
loop_
_atom_site_type_symbol
_atom_site_label
_atom_site_fract_x
_atom_site_fract_y
_atom_site_fract_z
Si Si1 0.340176 0.057281 0.536758
Si Si2 0.689568 0.217943 0.264356
Si Si3 0.641791 0.771114 0.294496
Si Si4 0.330552 0.456083 0.144497
Si Si5 0.055604 0.492645 0.627547
Si Si6 0.845375 0.904371 0.992038
Si Si7 0.459123 0.816541 0.634621
Si Si8 0.802895 0.794867 0.392047
O O1 0.350983 0.153447 0.619546
O O2 0.343878 0.158907 0.471028
O O3 0.257769 0.991440 0.450011
O O4 0.399094 0.932182 0.596351
O O5 0.656066 0.333458 0.282942
O O6 0.632485 0.088408 0.193648
O O7 0.767417 0.163976 0.381999
O O8 0.703456 0.283740 0.200729
O O9 0.630244 0.604133 0.292698
O O10 0.721019 0.793098 0.340029
O O11 0.578274 0.853347 0.181807
O O12 0.347809 0.410868 0.081751
O O13 0.000000 0.500000 0.500000
O O14 0.015956 0.400737 0.646300
O O15 0.844665 0.062528 0.960605
O O16 0.913961 0.805495 0.044047
O O17 0.500000 0.758091 0.750000
#
# Coordination Sequence:
#
# PCOD9301394 Si02
#       8
#     8   8   8   8   8   8   8   8
#     4  11  20  43  67 102 133 175 231 285 339 410
#     4  12  26  42  70 102 141 178 232 288 350 410
#     4  11  22  42  70 100 138 176 226 287 344 411
#     4  11  22  41  71 104 131 176 233 294 339 398
#     4  12  27  47  67 100 143 186 224 286 356 420
#     4  12  24  43  69 102 138 178 235 290 336 417
#     4  12  26  42  69  99 137 183 228 277 351 416
#     4  11  24  40  69 105 132 174 235 290 342 399
#
# _framework density 20.450172999999999
#
# number of rings (size 3 to 8) (size 9 to 14) (size 15 to 20)
#    0.000    0.500    6.250    2.625    5.250    0.000 
#    0.000    6.875    0.000    0.000    0.000    0.000 
#    0.000    0.000    0.000    0.000    0.000    0.000 
#
# Total GULP energy -179095.378826 kJ/mol
# GULP energy per Si atom -5596.730588 kJ/mol
# Density = 2.040363 g / cm^3
# Si number density = 20.450173 Si / 1000 Ang^3
#
#
#
# Elastic Constant Matrix: (Units=GPa)
#
#
# Indices 1 2 3 4 5 6 
#
# 1 41.9374 1.9789 15.5196 0.0000 -10.3387 0.0000
# 2 1.9789 74.2150 38.2075 0.0000 1.4244 0.0000
# 3 15.5196 38.2075 123.2612 0.0000 -9.3797 0.0000
# 4 0.0000 0.0000 0.0000 40.9386 0.0000 4.3208
# 5 -10.3387 1.4244 -9.3797 0.0000 39.0331 0.0000
# 6 0.0000 0.0000 0.0000 4.3208 0.0000 19.6312
#
#
#
# Elastic Compliance Matrix: (Units=1/GPa)
#
#
# Indices 1 2 3 4 5 6 
#
# 1 0.026495 0.000769 -0.003099 0.000000 0.006245 0.000000
# 2 0.000769 0.016182 -0.005238 0.000000 -0.001646 0.000000
# 3 -0.003099 -0.005238 0.010267 0.000000 0.001837 0.000000
# 4 0.000000 0.000000 0.000000 0.025008 0.000000 -0.005504
# 5 0.006245 -0.001646 0.001837 0.000000 0.027775 0.000000
# 6 0.000000 0.000000 0.000000 -0.005504 0.000000 0.052151
#
#
# Mechanical properties :
#
#
# Convention : Reuss Voigt Hill
#
# Bulk Modulus (GPa) = 26.44963 38.98064 32.71514
# Shear Modulus (GPa) = 26.93731 32.16775 29.55253
#
# Velocity S-wave (km/s) = 3.63329 3.97039 3.80557
# Velocity P-wave (km/s) = 5.52836 6.33414 5.94492
#
# Compressibility (1/GPa) = 0.03780771
#
# Stress axis : x y z
#
# Youngs Moduli (GPa) = 37.74269 61.79662 97.40385
#
# Poissons Ratio (x) = -0.04753 0.30187
# Poissons Ratio (y) = -0.02903 0.51021
# Poissons Ratio (z) = 0.11697 0.32369
#
# Static dielectric constant tensor:
#      x y z
#    x 1.735750 0.000000 -0.004280 
#    y 0.000000 1.727140 0.000000 
#    z -0.004280 0.000000 1.711000 
# 
# From -- ./inp_files/224622.got.cif
#   From: 2010.05.17/outbox.cif.g08.bks.cpg/sg15_113_cif.got.tgz:224622.got - 2010.06.03 18:47:42.
