data_PCOD9301419
_publ_section_title
;
Structure prediction by ZEFSAII (Michael W. Deem and Ramdas Pophale) SiO2 
 PCOD9301419
Probable space group: C 2/C
;
_chemical_formula_sum "Si O2"
_cell_formula_units_Z 52
_cell_length_a 7.280768
_cell_length_b 17.485833
_cell_length_c 17.147280
_cell_angle_alpha 90.000000
_cell_angle_beta 71.413637
_cell_angle_gamma 90.000000
_cell_volume 2069.168035
_symmetry_space_group_name_H-M "C 2/C"
_symmetry_group_IT_number 15
_symmetry_cell_setting 'monoclinic'
loop_
_space_group_symop_operation_xyz
x,y,z
-x,y,1/2-z
-x,-y,-z
x,-y,1/2+z
1/2+x,1/2+y,z
1/2-x,1/2+y,1/2-z
1/2-x,1/2-y,-z
1/2+x,1/2-y,1/2+z
loop_
_atom_site_type_symbol
_atom_site_label
_atom_site_fract_x
_atom_site_fract_y
_atom_site_fract_z
Si Si1 0.856475 0.562511 0.704160
Si Si2 0.090116 0.810303 0.407725
Si Si3 0.692585 0.846434 0.905969
Si Si4 0.500000 0.669266 0.750000
Si Si5 0.784714 0.452215 0.448910
Si Si6 0.271202 0.105238 0.266111
Si Si7 0.233321 0.871119 0.942028
O O1 0.685773 0.618052 0.704448
O O2 0.767033 0.486560 0.755882
O O3 0.000000 0.596993 0.750000
O O4 0.992870 0.541748 0.612032
O O5 0.226394 0.742511 0.419572
O O6 0.048632 0.789100 0.323602
O O7 0.182273 0.894521 0.402077
O O8 0.899465 0.819746 0.485568
O O9 0.787612 0.864585 0.810030
O O10 0.458837 0.853763 0.926415
O O11 0.739313 0.906729 0.967050
O O12 0.707924 0.538227 0.462884
O O13 0.500000 0.120121 0.250000
O O14 0.178817 0.136240 0.357876
#
# Coordination Sequence:
#
# PCOD9301419 Si02
#       7
#     8   8   8   4   8   8   8
#     4  11  20  44  69 104 133 181 233 298 338 413
#     4  12  27  42  64 106 145 180 232 291 353 426
#     4  11  24  42  68  97 140 187 227 287 362 417
#     4  12  26  40  74 100 142 182 244 280 360 412
#     4  12  23  45  71  97 140 185 234 294 349 409
#     4   9  19  40  70  91 136 176 233 282 354 403
#     4  11  22  43  71 101 132 186 240 292 341 417
#
# _framework density 25.130875
#
# number of rings (size 3 to 8) (size 9 to 14) (size 15 to 20)
#    0.000    0.923    6.154    2.769    5.385    0.000 
#    0.000    0.000    0.000    0.000    0.000    0.000 
#    0.000    0.000    0.000    0.000    0.000    0.000 
#
# Total GULP energy -145591.111376 kJ/mol
# GULP energy per Si atom -5599.658130 kJ/mol
# Density = 2.507368 g / cm^3
# Si number density = 25.130875 Si / 1000 Ang^3
#
#
#
# Elastic Constant Matrix: (Units=GPa)
#
#
# Indices 1 2 3 4 5 6 
#
# 1 41.0921 4.9542 9.1710 0.0000 9.4431 0.0000
# 2 4.9542 110.7270 24.0909 0.0000 9.2725 0.0000
# 3 9.1710 24.0909 172.6226 0.0000 18.4380 0.0000
# 4 0.0000 0.0000 0.0000 15.6859 0.0000 3.5000
# 5 9.4431 9.2725 18.4380 0.0000 48.1377 0.0000
# 6 0.0000 0.0000 0.0000 3.5000 0.0000 16.2459
#
#
#
# Elastic Compliance Matrix: (Units=1/GPa)
#
#
# Indices 1 2 3 4 5 6 
#
# 1 0.025643 -0.000590 -0.000787 0.000000 -0.004615 0.000000
# 2 -0.000590 0.009413 -0.001148 0.000000 -0.001258 0.000000
# 3 -0.000787 -0.001148 0.006209 0.000000 -0.002003 0.000000
# 4 0.000000 0.000000 0.000000 0.066971 0.000000 -0.014428
# 5 -0.004615 -0.001258 -0.002003 0.000000 0.022688 0.000000
# 6 0.000000 0.000000 0.000000 -0.014428 0.000000 0.064662
#
#
# Mechanical properties :
#
#
# Convention : Reuss Voigt Hill
#
# Bulk Modulus (GPa) = 27.61268 44.54155 36.07712
# Shear Modulus (GPa) = 23.50650 35.09562 29.30106
#
# Velocity S-wave (km/s) = 3.06169 3.74105 3.41829
# Velocity P-wave (km/s) = 4.84871 6.03514 5.47416
#
# Compressibility (1/GPa) = 0.03621524
#
# Stress axis : x y z
#
# Youngs Moduli (GPa) = 38.99713 106.23958 161.05881
#
# Poissons Ratio (x) = 0.06264 0.12677
# Poissons Ratio (y) = 0.02299 0.18489
# Poissons Ratio (z) = 0.03069 0.12196
#
# Static dielectric constant tensor:
#      x y z
#    x 2.014370 0.000000 0.004010 
#    y 0.000000 1.938390 0.000000 
#    z 0.004010 0.000000 2.005290 
# 
# From -- ./inp_files/190831.got.cif
#   From: 2010.05.17/outbox.cif.g08.bks.cpg/sg15_96_cif.got.tgz:190831.got - 2010.06.03 18:47:42.
