data_PCOD9301297
_publ_section_title
;
Structure prediction by ZEFSAII (Michael W. Deem and Ramdas Pophale) SiO2 
 PCOD9301297
Probable space group: C 2/C
;
_chemical_formula_sum "Si O2"
_cell_formula_units_Z 48
_cell_length_a 15.381744
_cell_length_b 21.050488
_cell_length_c 11.955405
_cell_angle_alpha 90.000000
_cell_angle_beta 35.922436
_cell_angle_gamma 90.000000
_cell_volume 2271.121470
_symmetry_space_group_name_H-M "C 2/C"
_symmetry_group_IT_number 15
_symmetry_cell_setting 'monoclinic'
loop_
_space_group_symop_operation_xyz
x,y,z
-x,y,1/2-z
-x,-y,-z
x,-y,1/2+z
1/2+x,1/2+y,z
1/2-x,1/2+y,1/2-z
1/2-x,1/2-y,-z
1/2+x,1/2-y,1/2+z
loop_
_atom_site_type_symbol
_atom_site_label
_atom_site_fract_x
_atom_site_fract_y
_atom_site_fract_z
Si Si1 0.823145 0.088307 0.100847
Si Si2 0.428119 0.185030 0.575820
Si Si3 0.500000 0.514796 0.750000
Si Si4 0.494027 0.063008 0.379856
Si Si5 0.000000 0.341440 0.250000
Si Si6 0.225224 0.271110 0.653348
Si Si7 0.772306 0.445963 0.562124
O O1 0.667247 0.054787 0.226873
O O2 0.808406 0.161910 0.084724
O O3 0.818558 0.078810 0.236932
O O4 0.964175 0.058416 0.893948
O O5 0.429675 0.110432 0.540306
O O6 0.465095 0.193365 0.668589
O O7 0.283417 0.219219 0.680800
O O8 0.557653 0.214117 0.363301
O O9 0.647398 0.474803 0.613776
O O10 0.500000 0.094336 0.250000
O O11 0.393094 0.000399 0.470653
O O12 0.861833 0.387715 0.417804
O O13 0.250000 0.250000 0.500000
#
# Coordination Sequence:
#
# PCOD9301297 Si02
#       7
#     8   8   4   8   4   8   8
#     4  11  24  43  63 101 132 171 223 276 338 403
#     4  11  26  42  71 100 131 181 224 281 335 402
#     4  12  26  40  65 101 140 174 212 286 352 390
#     4  11  20  40  71  97 127 176 232 272 326 398
#     4  12  24  48  67  97 138 184 234 256 336 430
#     4  11  24  46  69  98 132 169 232 290 335 385
#     4  12  24  43  66  98 138 176 222 276 334 416
#
# _framework density 21.134933
#
# number of rings (size 3 to 8) (size 9 to 14) (size 15 to 20)
#    0.000    0.667    5.833    3.500    4.667    0.667 
#    3.000    0.000    0.000    0.000    0.000    0.000 
#    0.000    0.000    0.000    0.000    0.000    0.000 
#
# Total GULP energy -134086.762015 kJ/mol
# GULP energy per Si atom -5586.948417 kJ/mol
# Density = 2.108683 g / cm^3
# Si number density = 21.134933 Si / 1000 Ang^3
#
#
#
# Elastic Constant Matrix: (Units=GPa)
#
#
# Indices 1 2 3 4 5 6 
#
# 1 53.9504 23.4879 2.6375 -0.0077 25.0192 -0.0069
# 2 23.4879 56.6072 18.1812 -0.0065 3.5512 -0.0027
# 3 2.6375 18.1812 65.8597 -0.0029 29.8535 -0.0020
# 4 -0.0077 -0.0065 -0.0029 76.4521 0.0096 38.1837
# 5 25.0192 3.5512 29.8535 0.0096 44.2850 0.0061
# 6 -0.0069 -0.0027 -0.0020 38.1837 0.0061 53.1565
#
#
#
# Elastic Compliance Matrix: (Units=1/GPa)
#
#
# Indices 1 2 3 4 5 6 
#
# 1 0.046091 -0.023913 0.022594 0.000005 -0.039353 0.000006
# 2 -0.023913 0.032063 -0.018507 -0.000001 0.023415 -0.000004
# 3 0.022594 -0.018507 0.035283 0.000004 -0.035066 0.000004
# 4 0.000005 -0.000001 0.000004 0.020398 -0.000008 -0.014653
# 5 -0.039353 0.023415 -0.035066 -0.000008 0.066575 -0.000007
# 6 0.000006 -0.000004 0.000004 -0.014653 -0.000007 0.029338
#
#
# Mechanical properties :
#
#
# Convention : Reuss Voigt Hill
#
# Bulk Modulus (GPa) = 13.55281 29.44783 21.50032
# Shear Modulus (GPa) = 17.00709 43.58610 30.29660
#
# Velocity S-wave (km/s) = 2.83979 4.54616 3.79025
# Velocity P-wave (km/s) = 4.14475 6.44362 5.41753
#
# Compressibility (1/GPa) = 0.07378541
#
# Stress axis : x y z
#
# Youngs Moduli (GPa) = 21.69599 31.18874 28.34236
#
# Poissons Ratio (x) = 0.74580 -0.64036
# Poissons Ratio (y) = 0.51881 0.52454
# Poissons Ratio (z) = -0.49020 0.57722
#
# Static dielectric constant tensor:
#      x y z
#    x 1.856850 0.000000 0.052040 
#    y 0.000000 1.783580 0.000000 
#    z 0.052040 0.000000 1.782080 
# 
# From -- ./inp_files/100018.got.cif
#   From: 2010.05.17/outbox.cif.g08.bks.cpg/sg15_51_cif.got.tgz:100018.got - 2010.06.03 18:47:42.
