data_PCOD9301268
_publ_section_title
;
Structure prediction by ZEFSAII (Michael W. Deem and Ramdas Pophale) SiO2 
 PCOD9301268
Probable space group: C 2/C
;
_chemical_formula_sum "Si O2"
_cell_formula_units_Z 48
_cell_length_a 9.038446
_cell_length_b 13.838828
_cell_length_c 29.422207
_cell_angle_alpha 90.000000
_cell_angle_beta 138.273688
_cell_angle_gamma 90.000000
_cell_volume 2449.424902
_symmetry_space_group_name_H-M "C 2/C"
_symmetry_group_IT_number 15
_symmetry_cell_setting 'monoclinic'
loop_
_space_group_symop_operation_xyz
x,y,z
-x,y,1/2-z
-x,-y,-z
x,-y,1/2+z
1/2+x,1/2+y,z
1/2-x,1/2+y,1/2-z
1/2-x,1/2-y,-z
1/2+x,1/2-y,1/2+z
loop_
_atom_site_type_symbol
_atom_site_label
_atom_site_fract_x
_atom_site_fract_y
_atom_site_fract_z
Si Si1 0.307656 0.493328 0.286909
Si Si2 0.545736 0.297882 0.209265
Si Si3 0.773576 0.298207 0.078236
Si Si4 0.811775 0.506713 0.640032
Si Si5 0.492506 0.315836 0.799588
Si Si6 0.390288 0.294695 0.919301
O O1 0.440862 0.412607 0.290531
O O2 0.267767 0.455589 0.328800
O O3 0.435674 0.593472 0.317710
O O4 0.072226 0.514878 0.208677
O O5 0.500000 0.263475 0.250000
O O6 0.788671 0.259332 0.252783
O O7 0.346462 0.258354 0.133237
O O8 0.795576 0.410502 0.098063
O O9 0.799222 0.238412 0.130807
O O10 0.970308 0.256053 0.090307
O O11 0.547317 0.283203 0.998933
O O12 0.674275 0.408229 0.600136
O O13 0.500000 0.351839 0.750000
#
# Coordination Sequence:
#
# PCOD9301268 Si02
#       6
#     8   8   8   8   8   8
#     4  11  22  36  66  95 124 163 220 272 321 388
#     4  12  21  40  64  94 123 169 218 266 323 392
#     4  11  23  40  65  98 130 170 219 274 329 393
#     4  11  20  40  65  95 124 170 217 266 330 394
#     4  12  23  40  63  95 130 165 217 275 324 386
#     4  11  23  41  67  92 132 172 220 267 332 396
#
# _framework density 19.596435
#
# number of rings (size 3 to 8) (size 9 to 14) (size 15 to 20)
#    0.000    0.667    6.667    2.000    0.000    0.000 
#    0.000    4.167    0.000    0.000    0.000    0.000 
#    0.000    0.000    0.000    0.000    0.000    0.000 
#
# Total GULP energy -133944.558655 kJ/mol
# GULP energy per Si atom -5581.023277 kJ/mol
# Density = 1.955183 g / cm^3
# Si number density = 19.596435 Si / 1000 Ang^3
#
#
#
# Elastic Constant Matrix: (Units=GPa)
#
#
# Indices 1 2 3 4 5 6 
#
# 1 32.2886 20.6486 34.7431 0.0000 -12.8746 0.0000
# 2 20.6486 115.5431 42.8879 0.0000 -0.8694 0.0000
# 3 34.7431 42.8879 125.4944 0.0000 2.5128 0.0000
# 4 0.0000 0.0000 0.0000 28.3256 0.0000 -1.0186
# 5 -12.8746 -0.8694 2.5128 0.0000 16.0184 0.0000
# 6 0.0000 0.0000 0.0000 -1.0186 0.0000 37.5829
#
#
#
# Elastic Compliance Matrix: (Units=1/GPa)
#
#
# Indices 1 2 3 4 5 6 
#
# 1 0.094275 -0.006840 -0.025352 0.000000 0.079378 0.000000
# 2 -0.006840 0.010427 -0.001576 0.000000 -0.004685 0.000000
# 3 -0.025352 -0.001576 0.015986 0.000000 -0.022969 0.000000
# 4 0.000000 0.000000 0.000000 0.035338 0.000000 0.000958
# 5 0.079378 -0.004685 -0.022969 0.000000 0.129576 0.000000
# 6 0.000000 0.000000 0.000000 0.000958 0.000000 0.026634
#
#
# Mechanical properties :
#
#
# Convention : Reuss Voigt Hill
#
# Bulk Modulus (GPa) = 18.81411 52.20947 35.51179
# Shear Modulus (GPa) = 12.57897 28.05513 20.31705
#
# Velocity S-wave (km/s) = 2.53632 3.78781 3.22339
# Velocity P-wave (km/s) = 4.26601 6.76980 5.65814
#
# Compressibility (1/GPa) = 0.05315159
#
# Stress axis : x y z
#
# Youngs Moduli (GPa) = 10.60727 95.90586 62.55629
#
# Poissons Ratio (x) = 0.65603 1.58591
# Poissons Ratio (y) = 0.07256 0.09858
# Poissons Ratio (z) = 0.26891 0.15113
#
# Static dielectric constant tensor:
#      x y z
#    x 1.707050 0.000000 -0.011160 
#    y 0.000000 1.690610 0.000000 
#    z -0.011160 0.000000 1.655200 
# 
# From -- ./inp_files/289001.got.cif
#   From: 2010.05.17/outbox.cif.g08.bks.cpg/sg15_145_cif.got.tgz:289001.got - 2010.06.03 18:47:42.
