data_PCOD9301564
_publ_section_title
;
Structure prediction by ZEFSAII (Michael W. Deem and Ramdas Pophale) SiO2 
 PCOD9301564
Probable space group: C 2/C
;
_chemical_formula_sum "Si O2"
_cell_formula_units_Z 56
_cell_length_a 21.142442
_cell_length_b 6.419681
_cell_length_c 22.278763
_cell_angle_alpha 90.000000
_cell_angle_beta 98.966990
_cell_angle_gamma 90.000000
_cell_volume 2986.889473
_symmetry_space_group_name_H-M "C 2/C"
_symmetry_group_IT_number 15
_symmetry_cell_setting 'monoclinic'
loop_
_space_group_symop_operation_xyz
x,y,z
-x,y,1/2-z
-x,-y,-z
x,-y,1/2+z
1/2+x,1/2+y,z
1/2-x,1/2+y,1/2-z
1/2-x,1/2-y,-z
1/2+x,1/2-y,1/2+z
loop_
_atom_site_type_symbol
_atom_site_label
_atom_site_fract_x
_atom_site_fract_y
_atom_site_fract_z
Si Si1 0.760714 0.404049 0.608865
Si Si2 0.368918 0.572872 0.602577
Si Si3 0.804988 0.202684 0.187726
Si Si4 0.973966 0.199085 0.534178
Si Si5 0.316395 0.334488 0.486295
Si Si6 0.595359 0.005374 0.065557
Si Si7 0.313313 0.104779 0.815311
O O1 0.815277 0.254767 0.589869
O O2 0.790887 0.616880 0.637586
O O3 0.703652 0.466684 0.555930
O O4 0.727754 0.284359 0.658528
O O5 0.353472 0.461626 0.663718
O O6 0.437897 0.652809 0.591719
O O7 0.356802 0.404483 0.548811
O O8 0.829305 0.314385 0.251445
O O9 0.736979 0.088651 0.191981
O O10 0.924985 0.319239 0.482182
O O11 0.032682 0.350119 0.558700
O O12 0.000000 0.000000 0.500000
O O13 0.250000 0.250000 0.500000
O O14 0.350549 0.152611 0.455273
O O15 0.625272 0.937499 0.133602
#
# Coordination Sequence:
#
# PCOD9301564 Si02
#       7
#     8   8   8   8   8   8   8
#     4  11  21  36  61  92 133 159 195 260 327 383
#     4  11  23  37  60  94 126 169 205 258 320 377
#     4  11  22  37  63  94 130 164 202 258 317 395
#     4  11  24  44  64  91 125 175 218 263 315 371
#     4  12  19  35  60  96 131 151 197 262 332 383
#     4  11  24  39  66  95 124 168 216 268 312 381
#     4  11  22  40  61  97 124 166 210 252 323 384
#
# _framework density 18.748602000000002
#
# number of rings (size 3 to 8) (size 9 to 14) (size 15 to 20)
#    0.000    0.857    5.714    3.000    0.000    0.000 
#    0.000    0.000    0.000    5.143    0.000    0.000 
#    0.000    0.000    0.000    0.000    0.000    0.000 
#
# Total GULP energy -156259.850929 kJ/mol
# GULP energy per Si atom -5580.708962 kJ/mol
# Density = 1.870593 g / cm^3
# Si number density = 18.748602 Si / 1000 Ang^3
#
#
#
# Elastic Constant Matrix: (Units=GPa)
#
#
# Indices 1 2 3 4 5 6 
#
# 1 96.1849 30.3313 42.2772 0.0000 -3.8194 0.0000
# 2 30.3313 80.2774 34.8641 0.0000 -1.2062 0.0000
# 3 42.2772 34.8641 115.0296 0.0000 -1.6763 0.0000
# 4 0.0000 0.0000 0.0000 35.9175 0.0000 1.2589
# 5 -3.8194 -1.2062 -1.6763 0.0000 21.5923 0.0000
# 6 0.0000 0.0000 0.0000 1.2589 0.0000 27.1516
#
#
#
# Elastic Compliance Matrix: (Units=1/GPa)
#
#
# Indices 1 2 3 4 5 6 
#
# 1 0.013189 -0.003296 -0.003822 0.000000 0.001852 0.000000
# 2 -0.003296 0.015173 -0.003388 0.000000 0.000002 0.000000
# 3 -0.003822 -0.003388 0.011125 0.000000 -0.000002 0.000000
# 4 0.000000 0.000000 0.000000 0.027887 0.000000 -0.001293
# 5 0.001852 0.000002 -0.000002 0.000000 0.046640 0.000000
# 6 0.000000 0.000000 0.000000 -0.001293 0.000000 0.036890
#
#
# Mechanical properties :
#
#
# Convention : Reuss Voigt Hill
#
# Bulk Modulus (GPa) = 54.12007 56.27078 55.19543
# Shear Modulus (GPa) = 28.07830 29.20025 28.63928
#
# Velocity S-wave (km/s) = 3.87411 3.95075 3.91262
# Velocity P-wave (km/s) = 6.99575 7.13370 7.06506
#
# Compressibility (1/GPa) = 0.01847744
#
# Stress axis : x y z
#
# Youngs Moduli (GPa) = 75.81944 65.90546 89.89040
#
# Poissons Ratio (x) = 0.21721 0.34352
# Poissons Ratio (y) = 0.24988 0.30450
# Poissons Ratio (z) = 0.28975 0.22326
#
# Static dielectric constant tensor:
#      x y z
#    x 1.687900 0.000000 0.009270 
#    y 0.000000 1.768810 0.000000 
#    z 0.009270 0.000000 1.685260 
# 
# From -- ./inp_files/278691.got.cif
#   From: 2010.05.17/outbox.cif.g08.bks.cpg/sg15_140_cif.got.tgz:278691.got - 2010.06.03 18:47:42.
