data_PCOD9301107
_publ_section_title
;
Structure prediction by ZEFSAII (Michael W. Deem and Ramdas Pophale) SiO2 
 PCOD9301107
Probable space group: C 2/C
;
_chemical_formula_sum "Si O2"
_cell_formula_units_Z 64
_cell_length_a 32.217381
_cell_length_b 10.307855
_cell_length_c 19.389163
_cell_angle_alpha 90.000000
_cell_angle_beta 33.481329
_cell_angle_gamma 90.000000
_cell_volume 3552.165548
_symmetry_space_group_name_H-M "C 2/C"
_symmetry_group_IT_number 15
_symmetry_cell_setting 'monoclinic'
loop_
_space_group_symop_operation_xyz
x,y,z
-x,y,1/2-z
-x,-y,-z
x,-y,1/2+z
1/2+x,1/2+y,z
1/2-x,1/2+y,1/2-z
1/2-x,1/2-y,-z
1/2+x,1/2-y,1/2+z
loop_
_atom_site_type_symbol
_atom_site_label
_atom_site_fract_x
_atom_site_fract_y
_atom_site_fract_z
Si Si1 0.789061 0.623045 0.138769
Si Si2 0.403445 0.102365 0.455420
Si Si3 0.570841 0.965413 0.741580
Si Si4 0.933464 0.776406 0.751075
Si Si5 0.215666 0.128777 0.089773
Si Si6 0.272696 0.120579 0.427968
Si Si7 0.899945 0.149699 0.456682
Si Si8 0.821434 0.875555 0.580306
O O1 0.751943 0.619941 0.114505
O O2 0.725348 0.619971 0.284540
O O3 0.845449 0.501393 0.067069
O O4 0.838635 0.753475 0.073584
O O5 0.410703 0.066483 0.364111
O O6 0.486846 0.086194 0.370963
O O7 0.371232 0.246007 0.507486
O O8 0.637651 0.902938 0.693388
O O9 0.570536 0.120975 0.750005
O O10 0.873234 0.844862 0.785499
O O11 0.909234 0.812236 0.863066
O O12 0.018394 0.824226 0.624046
O O13 0.250000 0.250000 0.000000
O O14 0.236141 0.000528 0.019024
O O15 0.250000 0.250000 0.500000
O O16 0.237839 0.126088 0.400495
O O17 0.872530 0.003087 0.501501
#
# Coordination Sequence:
#
# PCOD9301107 Si02
#       8
#     8   8   8   8   8   8   8   8
#     4  12  22  42  61  88 128 164 194 242 313 367
#     4  11  21  40  61  90 121 168 193 243 311 358
#     4  11  20  38  68  87 121 154 210 254 296 352
#     4  11  20  37  67  93 114 152 215 263 284 345
#     4  12  20  37  65  91 114 153 210 251 286 348
#     4  12  22  39  59  93 122 156 204 248 295 355
#     4  11  21  38  62  91 118 157 205 253 296 350
#     4  12  26  38  59  95 130 156 197 250 306 367
#
# _framework density 18.017177
#
# number of rings (size 3 to 8) (size 9 to 14) (size 15 to 20)
#    0.000    0.500    8.750    1.500    0.000    3.000 
#    0.000    2.500    0.000    0.000    0.000    0.000 
#    0.000    0.000    0.000    0.000    0.000    0.000 
#
# Total GULP energy -178886.920203 kJ/mol
# GULP energy per Si atom -5590.216256 kJ/mol
# Density = 1.797617 g / cm^3
# Si number density = 18.017177 Si / 1000 Ang^3
#
#
#
# Elastic Constant Matrix: (Units=GPa)
#
#
# Indices 1 2 3 4 5 6 
#
# 1 99.8482 53.6758 56.2183 0.0001 -31.6898 -0.0001
# 2 53.6758 154.1474 42.5881 0.0018 -19.7775 -0.0009
# 3 56.2183 42.5881 78.6729 0.0006 -18.2620 -0.0003
# 4 0.0001 0.0018 0.0006 18.1913 -0.0002 -11.2958
# 5 -31.6898 -19.7775 -18.2620 -0.0002 41.5465 0.0001
# 6 -0.0001 -0.0009 -0.0003 -11.2958 0.0001 18.9902
#
#
#
# Elastic Compliance Matrix: (Units=1/GPa)
#
#
# Indices 1 2 3 4 5 6 
#
# 1 0.020940 -0.002983 -0.011104 0.000001 0.009672 0.000000
# 2 -0.002983 0.008209 -0.002153 -0.000001 0.000686 0.000000
# 3 -0.011104 -0.002153 0.021835 -0.000001 0.000103 0.000000
# 4 0.000001 -0.000001 -0.000001 0.087166 0.000000 0.051849
# 5 0.009672 0.000686 0.000103 0.000000 0.031819 0.000000
# 6 0.000000 0.000000 0.000000 0.051849 0.000000 0.083499
#
#
# Mechanical properties :
#
#
# Convention : Reuss Voigt Hill
#
# Bulk Modulus (GPa) = 54.04022 70.84808 62.44415
# Shear Modulus (GPa) = 17.11655 27.75802 22.43728
#
# Velocity S-wave (km/s) = 3.08557 3.92936 3.53275
# Velocity P-wave (km/s) = 6.53859 7.74560 7.16755
#
# Compressibility (1/GPa) = 0.01850473
#
# Stress axis : x y z
#
# Youngs Moduli (GPa) = 47.75537 121.82020 45.79861
#
# Poissons Ratio (x) = 0.36338 0.50853
# Poissons Ratio (y) = 0.14245 0.09860
# Poissons Ratio (z) = 0.53026 0.26226
#
# Static dielectric constant tensor:
#      x y z
#    x 1.630670 0.000000 -0.022460 
#    y 0.000000 1.602070 0.000000 
#    z -0.022460 0.000000 1.600700 
# 
# From -- ./inp_files/224612.got.cif
#   From: 2010.05.17/outbox.cif.g08.bks.cpg/sg15_113_cif.got.tgz:224612.got - 2010.06.03 18:47:42.
