data_PCOD9301944
_publ_section_title
;
Structure prediction by ZEFSAII (Michael W. Deem and Ramdas Pophale) SiO2 
 PCOD9301944
Probable space group: C 2/C
;
_chemical_formula_sum "Si O2"
_cell_formula_units_Z 60
_cell_length_a 15.679804
_cell_length_b 9.329835
_cell_length_c 22.768054
_cell_angle_alpha 90.000000
_cell_angle_beta 120.738889
_cell_angle_gamma 90.000000
_cell_volume 2862.788009
_symmetry_space_group_name_H-M "C 2/C"
_symmetry_group_IT_number 15
_symmetry_cell_setting 'monoclinic'
loop_
_space_group_symop_operation_xyz
x,y,z
-x,y,1/2-z
-x,-y,-z
x,-y,1/2+z
1/2+x,1/2+y,z
1/2-x,1/2+y,1/2-z
1/2-x,1/2-y,-z
1/2+x,1/2-y,1/2+z
loop_
_atom_site_type_symbol
_atom_site_label
_atom_site_fract_x
_atom_site_fract_y
_atom_site_fract_z
Si Si1 0.942416 0.824625 0.847339
Si Si2 0.780174 0.615550 0.832353
Si Si3 0.000000 0.655519 0.750000
Si Si4 0.556113 0.614550 0.711494
Si Si5 0.271644 0.250905 0.939705
Si Si6 0.460716 0.073620 0.426047
Si Si7 0.496965 0.331125 0.992272
Si Si8 0.424976 0.096725 0.147276
O O1 0.835895 0.761158 0.830664
O O2 0.010087 0.787980 0.928239
O O3 0.960545 0.750466 0.790489
O O4 0.956476 0.994382 0.842820
O O5 0.674270 0.613450 0.764217
O O6 0.759105 0.611290 0.895100
O O7 0.866568 0.495838 0.859153
O O8 0.067152 0.540028 0.808167
O O9 0.500000 0.559746 0.750000
O O10 0.503800 0.770538 0.684498
O O11 0.384036 0.294304 0.969664
O O12 0.185850 0.349437 0.883352
O O13 0.250000 0.250000 0.000000
O O14 0.439409 0.235428 0.440483
O O15 0.549879 0.060238 0.411017
O O16 0.500000 0.000000 0.500000
O O17 0.500000 0.500000 0.000000
#
# Coordination Sequence:
#
# PCOD9301944 Si02
#       8
#     8   8   4   8   8   8   8   8
#     4  11  25  42  66  98 139 175 221 288 340 400
#     4  11  24  41  67  98 130 179 227 270 344 405
#     4  12  22  42  66  94 138 172 232 278 344 406
#     4  12  25  44  67  96 137 176 227 281 342 406
#     4  11  21  40  68  97 129 172 231 275 330 408
#     4  12  21  43  68  95 133 176 223 276 336 404
#     4  11  24  44  68 101 135 174 226 286 343 402
#     4  12  23  41  70  96 127 185 227 275 339 409
#
# _framework density 20.958590999999998
#
# number of rings (size 3 to 8) (size 9 to 14) (size 15 to 20)
#    0.000    0.533    8.000    0.800    1.867    2.133 
#    2.400    0.000    0.000    3.200    0.000    0.000 
#    0.000    0.000    0.000    0.000    0.000    0.000 
#
# Total GULP energy -167004.802836 kJ/mol
# GULP energy per Si atom -5566.826761 kJ/mol
# Density = 2.091089 g / cm^3
# Si number density = 20.958591 Si / 1000 Ang^3
#
#
#
# Elastic Constant Matrix: (Units=GPa)
#
#
# Indices 1 2 3 4 5 6 
#
# 1 60.2668 3.2146 23.5632 0.0000 -15.9111 0.0000
# 2 3.2146 77.5013 15.9763 0.0000 -9.6722 0.0000
# 3 23.5632 15.9763 63.5567 0.0000 -19.2536 0.0000
# 4 0.0000 0.0000 0.0000 40.5859 0.0000 -10.4109
# 5 -15.9111 -9.6722 -19.2536 0.0000 41.9886 0.0000
# 6 0.0000 0.0000 0.0000 -10.4109 0.0000 20.8655
#
#
#
# Elastic Compliance Matrix: (Units=1/GPa)
#
#
# Indices 1 2 3 4 5 6 
#
# 1 0.020327 0.001083 -0.006270 0.000000 0.005077 0.000000
# 2 0.001083 0.013787 -0.003229 0.000000 0.002105 0.000000
# 3 -0.006270 -0.003229 0.020817 0.000000 0.006426 0.000000
# 4 0.000000 0.000000 0.000000 0.028255 0.000000 0.014098
# 5 0.005077 0.002105 0.006426 0.000000 0.029171 0.000000
# 6 0.000000 0.000000 0.000000 0.014098 0.000000 0.054960
#
#
# Mechanical properties :
#
#
# Convention : Reuss Voigt Hill
#
# Bulk Modulus (GPa) = 26.24850 31.87033 29.05941
# Shear Modulus (GPa) = 25.40010 31.25941 28.32975
#
# Velocity S-wave (km/s) = 3.48504 3.86616 3.68054
# Velocity P-wave (km/s) = 5.36145 5.93034 5.65306
#
# Compressibility (1/GPa) = 0.03809742
#
# Stress axis : x y z
#
# Youngs Moduli (GPa) = 49.19549 72.53456 48.03785
#
# Poissons Ratio (x) = -0.07856 0.30121
# Poissons Ratio (y) = -0.05328 0.15513
# Poissons Ratio (z) = 0.30847 0.23423
#
# Static dielectric constant tensor:
#      x y z
#    x 1.757930 0.000000 -0.003810 
#    y 0.000000 1.720280 0.000000 
#    z -0.003810 0.000000 1.870520 
# 
# From -- ./inp_files/276595.got.cif
#   From: 2010.05.17/outbox.cif.g08.bks.cpg/sg15_139_cif.got.tgz:276595.got - 2010.06.03 18:47:42.
