data_PCOD9301375
_publ_section_title
;
Structure prediction by ZEFSAII (Michael W. Deem and Ramdas Pophale) SiO2 
 PCOD9301375
Probable space group: C 2/C
;
_chemical_formula_sum "Si O2"
_cell_formula_units_Z 60
_cell_length_a 12.902029
_cell_length_b 16.867973
_cell_length_c 13.253569
_cell_angle_alpha 90.000000
_cell_angle_beta 67.423430
_cell_angle_gamma 90.000000
_cell_volume 2663.349986
_symmetry_space_group_name_H-M "C 2/C"
_symmetry_group_IT_number 15
_symmetry_cell_setting 'monoclinic'
loop_
_space_group_symop_operation_xyz
x,y,z
-x,y,1/2-z
-x,-y,-z
x,-y,1/2+z
1/2+x,1/2+y,z
1/2-x,1/2+y,1/2-z
1/2-x,1/2-y,-z
1/2+x,1/2-y,1/2+z
loop_
_atom_site_type_symbol
_atom_site_label
_atom_site_fract_x
_atom_site_fract_y
_atom_site_fract_z
Si Si1 0.104805 0.586359 0.638478
Si Si2 0.781607 0.598945 0.619276
Si Si3 0.891560 0.775117 0.856188
Si Si4 0.792509 0.741164 0.238556
Si Si5 0.300795 0.633981 0.073358
Si Si6 0.000000 0.500000 0.500000
Si Si7 0.668078 0.470767 0.335953
Si Si8 0.539909 0.325370 0.455202
O O1 0.102281 0.680778 0.625597
O O2 0.220444 0.562603 0.649636
O O3 0.000000 0.563403 0.750000
O O4 0.094606 0.538137 0.539387
O O5 0.762420 0.679996 0.690962
O O6 0.742340 0.613959 0.520659
O O7 0.908482 0.568274 0.572804
O O8 0.700591 0.536276 0.706553
O O9 0.785149 0.788443 0.824415
O O10 0.000000 0.798090 0.750000
O O11 0.895488 0.816703 0.962816
O O12 0.793897 0.675636 0.324278
O O13 0.909274 0.765531 0.145569
O O14 0.345395 0.558407 0.118016
O O15 0.409552 0.689631 0.022011
O O16 0.566289 0.412411 0.401096
#
# Coordination Sequence:
#
# PCOD9301375 Si02
#       8
#     8   8   8   8   8   4   8   8
#     4  11  21  40  67  97 139 171 229 299 363 407
#     4  11  24  45  70 100 145 183 228 302 360 426
#     4  11  20  42  72 101 134 182 240 308 354 422
#     4  11  24  45  69  99 142 191 244 293 364 423
#     4  12  26  46  68 103 146 191 241 289 366 445
#     4  12  22  38  72 102 128 184 226 292 374 412
#     4  11  24  44  67  99 141 188 232 292 367 433
#     4  11  25  44  71 101 141 188 237 301 357 427
#
# _framework density 22.528020000000001
#
# number of rings (size 3 to 8) (size 9 to 14) (size 15 to 20)
#    0.000    0.800    6.667    2.000    0.000    4.267 
#    0.000    0.000    0.000    0.000    0.000    0.000 
#    0.000    0.000    0.000    0.000    0.000    0.000 
#
# Total GULP energy -167392.743588 kJ/mol
# GULP energy per Si atom -5579.758120 kJ/mol
# Density = 2.247675 g / cm^3
# Si number density = 22.528020 Si / 1000 Ang^3
#
#
#
# Elastic Constant Matrix: (Units=GPa)
#
#
# Indices 1 2 3 4 5 6 
#
# 1 34.0366 2.0284 28.3594 0.0000 2.4215 0.0000
# 2 2.0284 23.2801 42.1332 0.0000 -1.5930 0.0000
# 3 28.3594 42.1332 138.6060 0.0000 14.7174 0.0000
# 4 0.0000 0.0000 0.0000 29.0919 0.0000 5.6729
# 5 2.4215 -1.5930 14.7174 0.0000 43.1819 0.0000
# 6 0.0000 0.0000 0.0000 5.6729 0.0000 22.6632
#
#
#
# Elastic Compliance Matrix: (Units=1/GPa)
#
#
# Indices 1 2 3 4 5 6 
#
# 1 0.042419 0.029545 -0.018181 0.000000 0.004908 0.000000
# 2 0.029545 0.124873 -0.045981 0.000000 0.018621 0.000000
# 3 -0.018181 -0.045981 0.025922 0.000000 -0.009511 0.000000
# 4 0.000000 0.000000 0.000000 0.036138 0.000000 -0.009046
# 5 0.004908 0.018621 -0.009511 0.000000 0.026811 0.000000
# 6 0.000000 0.000000 0.000000 -0.009046 0.000000 0.046389
#
#
# Mechanical properties :
#
#
# Convention : Reuss Voigt Hill
#
# Bulk Modulus (GPa) = 8.06584 37.88496 22.97540
# Shear Modulus (GPa) = 12.10322 27.21418 19.65870
#
# Velocity S-wave (km/s) = 2.32038 3.47942 2.95724
# Velocity P-wave (km/s) = 3.28132 5.74414 4.67772
#
# Compressibility (1/GPa) = 0.12397964
#
# Stress axis : x y z
#
# Youngs Moduli (GPa) = 23.57436 8.00811 38.57749
#
# Poissons Ratio (x) = -0.23660 0.70139
# Poissons Ratio (y) = -0.69650 1.77384
# Poissons Ratio (z) = 0.42861 0.36822
#
# Static dielectric constant tensor:
#      x y z
#    x 1.810320 0.000000 -0.006240 
#    y 0.000000 1.858380 0.000000 
#    z -0.006240 0.000000 1.850190 
# 
# From -- ./inp_files/98755.got.cif
#   From: 2010.05.17/outbox.cif.g08.bks.cpg/sg15_50_cif.got.tgz:98755.got - 2010.06.03 18:47:42.
