data_PCOD9301299
_publ_section_title
;
Structure prediction by ZEFSAII (Michael W. Deem and Ramdas Pophale) SiO2 
 PCOD9301299
Probable space group: C 2/C
;
_chemical_formula_sum "Si O2"
_cell_formula_units_Z 48
_cell_length_a 11.681586
_cell_length_b 9.450689
_cell_length_c 23.034028
_cell_angle_alpha 90.000000
_cell_angle_beta 115.770754
_cell_angle_gamma 90.000000
_cell_volume 2290.016296
_symmetry_space_group_name_H-M "C 2/C"
_symmetry_group_IT_number 15
_symmetry_cell_setting 'monoclinic'
loop_
_space_group_symop_operation_xyz
x,y,z
-x,y,1/2-z
-x,-y,-z
x,-y,1/2+z
1/2+x,1/2+y,z
1/2-x,1/2+y,1/2-z
1/2-x,1/2-y,-z
1/2+x,1/2-y,1/2+z
loop_
_atom_site_type_symbol
_atom_site_label
_atom_site_fract_x
_atom_site_fract_y
_atom_site_fract_z
Si Si1 0.721204 0.399400 0.314557
Si Si2 0.943920 0.918075 0.644041
Si Si3 0.975850 0.592739 0.938454
Si Si4 0.151889 0.394670 0.374734
Si Si5 0.598651 0.604548 0.491783
Si Si6 0.748594 0.581276 0.208606
O O1 0.600081 0.467793 0.319049
O O2 0.830839 0.392395 0.387344
O O3 0.767332 0.504642 0.274057
O O4 0.705061 0.242927 0.284909
O O5 0.900789 0.760585 0.654029
O O6 0.873999 0.948615 0.567390
O O7 0.094939 0.918614 0.666415
O O8 0.779473 0.122715 0.940999
O O9 0.033172 0.745404 0.966064
O O10 0.000000 0.500000 0.000000
O O11 0.051138 0.459924 0.397819
O O12 0.184221 0.490506 0.326909
O O13 0.500000 0.500000 0.500000
#
# Coordination Sequence:
#
# PCOD9301299 Si02
#       6
#     8   8   8   8   8   8
#     4  12  25  46  69  98 137 181 225 279 336 399
#     4  11  23  46  67  98 139 178 225 278 337 391
#     4  11  23  42  68 102 135 173 226 277 337 401
#     4  11  22  44  73  98 140 180 216 284 340 396
#     4  11  20  40  71  99 135 172 220 276 336 398
#     4  12  26  47  67 101 137 179 232 275 332 410
#
# _framework density 20.960550999999999
#
# number of rings (size 3 to 8) (size 9 to 14) (size 15 to 20)
#    0.000    0.667    5.000    5.500    0.000    2.000 
#    9.000    3.333    0.000    0.000    0.000    0.000 
#    0.000    0.000    0.000    0.000    0.000    0.000 
#
# Total GULP energy -134274.037873 kJ/mol
# GULP energy per Si atom -5594.751578 kJ/mol
# Density = 2.091284 g / cm^3
# Si number density = 20.960551 Si / 1000 Ang^3
#
#
#
# Elastic Constant Matrix: (Units=GPa)
#
#
# Indices 1 2 3 4 5 6 
#
# 1 89.7021 44.6863 -9.3985 0.0000 -28.6726 0.0000
# 2 44.6863 104.9010 30.5596 0.0000 -41.4007 0.0000
# 3 -9.3985 30.5596 51.5958 0.0000 -21.9001 0.0000
# 4 0.0000 0.0000 0.0000 35.6880 0.0000 -13.4981
# 5 -28.6726 -41.4007 -21.9001 0.0000 45.8929 0.0000
# 6 0.0000 0.0000 0.0000 -13.4981 0.0000 40.3330
#
#
#
# Elastic Compliance Matrix: (Units=1/GPa)
#
#
# Indices 1 2 3 4 5 6 
#
# 1 0.020294 -0.007802 0.013433 0.000000 0.012051 0.000000
# 2 -0.007802 0.018452 -0.009222 0.000000 0.007370 0.000000
# 3 0.013433 -0.009222 0.034261 0.000000 0.016423 0.000000
# 4 0.000000 0.000000 0.000000 0.032081 0.000000 0.010737
# 5 0.012051 0.007370 0.016423 0.000000 0.043805 0.000000
# 6 0.000000 0.000000 0.000000 0.010737 0.000000 0.028387
#
#
# Mechanical properties :
#
#
# Convention : Reuss Voigt Hill
#
# Bulk Modulus (GPa) = 15.19176 41.98818 28.58997
# Shear Modulus (GPa) = 24.22444 36.40623 30.31533
#
# Velocity S-wave (km/s) = 3.40327 4.17213 3.80716
# Velocity P-wave (km/s) = 4.76514 6.57908 5.74416
#
# Compressibility (1/GPa) = 0.06582518
#
# Stress axis : x y z
#
# Youngs Moduli (GPa) = 49.27514 54.19561 29.18782
#
# Poissons Ratio (x) = 0.42285 -0.39208
# Poissons Ratio (y) = 0.38446 0.26916
# Poissons Ratio (z) = -0.66191 0.49977
#
# Static dielectric constant tensor:
#      x y z
#    x 1.780440 0.000000 0.004820 
#    y 0.000000 1.743640 0.000000 
#    z 0.004820 0.000000 1.788280 
# 
# From -- ./inp_files/268095.got.cif
#   From: 2010.05.17/outbox.cif.g08.bks.cpg/sg15_135_cif.got.tgz:268095.got - 2010.06.03 18:47:42.
