data_PCOD9301336
_publ_section_title
;
Structure prediction by ZEFSAII (Michael W. Deem and Ramdas Pophale) SiO2 
 PCOD9301336
Probable space group: C 2/C
;
_chemical_formula_sum "Si O2"
_cell_formula_units_Z 60
_cell_length_a 25.879231
_cell_length_b 19.694268
_cell_length_c 10.742885
_cell_angle_alpha 90.000000
_cell_angle_beta 150.358023
_cell_angle_gamma 90.000000
_cell_volume 2707.993372
_symmetry_space_group_name_H-M "C 2/C"
_symmetry_group_IT_number 15
_symmetry_cell_setting 'monoclinic'
loop_
_space_group_symop_operation_xyz
x,y,z
-x,y,1/2-z
-x,-y,-z
x,-y,1/2+z
1/2+x,1/2+y,z
1/2-x,1/2+y,1/2-z
1/2-x,1/2-y,-z
1/2+x,1/2-y,1/2+z
loop_
_atom_site_type_symbol
_atom_site_label
_atom_site_fract_x
_atom_site_fract_y
_atom_site_fract_z
Si Si1 0.500000 0.033324 0.750000
Si Si2 0.890856 0.899110 0.579203
Si Si3 0.409531 0.861276 0.856815
Si Si4 0.377514 0.191390 0.751992
Si Si5 0.620601 0.700836 0.034927
Si Si6 0.303684 0.590403 0.147418
Si Si7 0.172097 0.746643 0.123731
Si Si8 0.700536 0.961526 0.045523
O O1 0.448319 0.082148 0.537591
O O2 0.593727 0.989893 0.883928
O O3 0.894592 0.904449 0.736305
O O4 0.867584 0.823084 0.478518
O O5 0.790455 0.943054 0.331090
O O6 0.000000 0.922435 0.750000
O O7 0.372161 0.794847 0.852800
O O8 0.325847 0.896226 0.593111
O O9 0.510389 0.840453 0.988960
O O10 0.364368 0.258328 0.804892
O O11 0.288784 0.137899 0.598952
O O12 0.366692 0.208148 0.583210
O O13 0.658379 0.624774 0.144392
O O14 0.702282 0.737179 0.114029
O O15 0.500000 0.703413 0.750000
O O16 0.251668 0.518894 0.065590
#
# Coordination Sequence:
#
# PCOD9301336 Si02
#       8
#     4   8   8   8   8   8   8   8
#     4  12  22  46  72 104 144 186 224 294 370 416
#     4  12  27  46  71  95 137 199 236 288 348 424
#     4  12  24  41  74 106 140 178 230 302 352 415
#     4  11  20  41  70 101 131 183 223 288 367 406
#     4  11  24  40  71 107 133 181 234 303 346 412
#     4  11  23  47  69  94 145 190 232 273 364 429
#     4  11  22  45  68  97 141 181 234 279 363 419
#     4  12  29  42  70 111 140 189 240 288 341 428
#
# _framework density 22.156628000000001
#
# number of rings (size 3 to 8) (size 9 to 14) (size 15 to 20)
#    0.000    0.533    5.333    3.600    3.733    2.667 
#    0.000    0.000    0.000    0.000    0.000    0.000 
#    0.000    0.000    0.000    0.000    0.000    0.000 
#
# Total GULP energy -167877.671737 kJ/mol
# GULP energy per Si atom -5595.922391 kJ/mol
# Density = 2.210620 g / cm^3
# Si number density = 22.156628 Si / 1000 Ang^3
#
#
#
# Elastic Constant Matrix: (Units=GPa)
#
#
# Indices 1 2 3 4 5 6 
#
# 1 74.6711 18.3955 -0.5427 0.0000 22.1770 0.0000
# 2 18.3955 70.6329 3.8682 0.0000 6.0928 0.0000
# 3 -0.5427 3.8682 77.0024 0.0000 19.2116 0.0000
# 4 0.0000 0.0000 0.0000 26.8436 0.0000 7.2741
# 5 22.1770 6.0928 19.2116 0.0000 27.8915 0.0000
# 6 0.0000 0.0000 0.0000 7.2741 0.0000 26.4182
#
#
#
# Elastic Compliance Matrix: (Units=1/GPa)
#
#
# Indices 1 2 3 4 5 6 
#
# 1 0.019804 -0.003849 0.004892 0.000000 -0.018275 0.000000
# 2 -0.003849 0.015178 -0.000877 0.000000 0.000349 0.000000
# 3 0.004892 -0.000877 0.016891 0.000000 -0.015333 0.000000
# 4 0.000000 0.000000 0.000000 0.040256 0.000000 -0.011084
# 5 -0.018275 0.000349 -0.015333 0.000000 0.060869 0.000000
# 6 0.000000 0.000000 0.000000 -0.011084 0.000000 0.040905
#
#
# Mechanical properties :
#
#
# Convention : Reuss Voigt Hill
#
# Bulk Modulus (GPa) = 19.15498 29.52760 24.34129
# Shear Modulus (GPa) = 23.69998 29.60304 26.65151
#
# Velocity S-wave (km/s) = 3.27411 3.65921 3.47200
# Velocity P-wave (km/s) = 4.79135 5.58648 5.20413
#
# Compressibility (1/GPa) = 0.05220575
#
# Stress axis : x y z
#
# Youngs Moduli (GPa) = 50.49604 65.88448 59.20470
#
# Poissons Ratio (x) = 0.25360 -0.28966
# Poissons Ratio (y) = 0.19436 0.05190
# Poissons Ratio (z) = -0.24705 0.05775
#
# Static dielectric constant tensor:
#      x y z
#    x 1.813540 0.000000 0.013920 
#    y 0.000000 1.814270 0.000000 
#    z 0.013920 0.000000 1.823300 
# 
# From -- ./inp_files/124014.got.cif
#   From: 2010.05.17/outbox.cif.g08.bks.cpg/sg15_63_cif.got.tgz:124014.got - 2010.06.03 18:47:42.
