data_PCOD9301643
_publ_section_title
;
Structure prediction by ZEFSAII (Michael W. Deem and Ramdas Pophale) SiO2 
 PCOD9301643
Probable space group: C 2/C
;
_chemical_formula_sum "Si O2"
_cell_formula_units_Z 40
_cell_length_a 9.912894
_cell_length_b 11.959304
_cell_length_c 17.686055
_cell_angle_alpha 90.000000
_cell_angle_beta 71.204216
_cell_angle_gamma 90.000000
_cell_volume 1984.893989
_symmetry_space_group_name_H-M "C 2/C"
_symmetry_group_IT_number 15
_symmetry_cell_setting 'monoclinic'
loop_
_space_group_symop_operation_xyz
x,y,z
-x,y,1/2-z
-x,-y,-z
x,-y,1/2+z
1/2+x,1/2+y,z
1/2-x,1/2+y,1/2-z
1/2-x,1/2-y,-z
1/2+x,1/2-y,1/2+z
loop_
_atom_site_type_symbol
_atom_site_label
_atom_site_fract_x
_atom_site_fract_y
_atom_site_fract_z
Si Si1 0.117781 0.803152 0.567391
Si Si2 0.869842 0.001612 0.830280
Si Si3 0.428300 0.913570 0.117944
Si Si4 0.885086 0.611380 0.447611
Si Si5 0.935375 0.140444 0.966640
O O1 0.250000 0.750000 0.500000
O O2 0.166547 0.880434 0.627616
O O3 0.006961 0.705701 0.613434
O O4 0.046674 0.877488 0.513523
O O5 0.000000 0.990921 0.750000
O O6 0.728701 0.060856 0.820943
O O7 0.927412 0.070260 0.892077
O O8 0.538382 0.014665 0.113389
O O9 0.394158 0.921090 0.034415
O O10 0.956998 0.732402 0.433208
O O11 0.718260 0.630360 0.464094
#
# Coordination Sequence:
#
# PCOD9301643 Si02
#       5
#     8   8   8   8   8
#     4  11  21  37  65  90 113 159 212 256 295 360
#     4  11  23  39  56  86 127 160 193 255 318 364
#     4   9  18  35  55  85 116 150 193 242 302 355
#     4   8  14  30  60  85 109 141 194 248 283 342
#     4   9  17  32  59  87 111 150 202 241 292 362
#
# _framework density 20.152208999999999
#
# number of rings (size 3 to 8) (size 9 to 14) (size 15 to 20)
#    0.000    2.400    0.000    6.600    0.000    0.000 
#    7.200    0.000    0.000    0.000    0.000    0.000 
#    0.000    0.000    0.000    0.000    0.000    0.000 
#
# Total GULP energy -111428.732137 kJ/mol
# GULP energy per Si atom -5571.436607 kJ/mol
# Density = 2.010634 g / cm^3
# Si number density = 20.152209 Si / 1000 Ang^3
#
#
#
# Elastic Constant Matrix: (Units=GPa)
#
#
# Indices 1 2 3 4 5 6 
#
# 1 68.3985 21.6374 9.9321 0.0000 -12.6219 0.0000
# 2 21.6374 76.6261 33.3152 0.0000 -16.9669 0.0000
# 3 9.9321 33.3152 51.4579 0.0000 -25.6581 0.0000
# 4 0.0000 0.0000 0.0000 12.8398 0.0000 -6.8548
# 5 -12.6219 -16.9669 -25.6581 0.0000 22.4613 0.0000
# 6 0.0000 0.0000 0.0000 -6.8548 0.0000 32.4441
#
#
#
# Elastic Compliance Matrix: (Units=1/GPa)
#
#
# Indices 1 2 3 4 5 6 
#
# 1 0.017746 -0.004812 0.006622 0.000000 0.013902 0.000000
# 2 -0.004812 0.019472 -0.013225 0.000000 -0.003102 0.000000
# 3 0.006622 -0.013225 0.054812 0.000000 0.056345 0.000000
# 4 0.000000 0.000000 0.000000 0.087785 0.000000 0.018547
# 5 0.013902 -0.003102 0.056345 0.000000 0.114354 0.000000
# 6 0.000000 0.000000 0.000000 0.018547 0.000000 0.034741
#
#
# Mechanical properties :
#
#
# Convention : Reuss Voigt Hill
#
# Bulk Modulus (GPa) = 14.45069 36.25020 25.35045
# Shear Modulus (GPa) = 13.34023 22.32223 17.83123
#
# Velocity S-wave (km/s) = 2.57568 3.33180 2.97783
# Velocity P-wave (km/s) = 4.00398 5.72961 4.94268
#
# Compressibility (1/GPa) = 0.06920084
#
# Stress axis : x y z
#
# Youngs Moduli (GPa) = 56.34994 51.35556 18.24414
#
# Poissons Ratio (x) = 0.24712 -0.12081
# Poissons Ratio (y) = 0.27115 0.24127
# Poissons Ratio (z) = -0.37314 0.67917
#
# Static dielectric constant tensor:
#      x y z
#    x 1.760930 0.000000 -0.026850 
#    y 0.000000 1.789490 0.000000 
#    z -0.026850 0.000000 1.689440 
# 
# From -- ./inp_files/229773.got.cif
#   From: 2010.05.17/outbox.cif.g08.bks.cpg/sg15_115_cif.got.tgz:229773.got - 2010.06.03 18:47:42.
