data_PCOD9301130
_publ_section_title
;
Structure prediction by ZEFSAII (Michael W. Deem and Ramdas Pophale) SiO2 
 PCOD9301130
Probable space group: C 2/C
;
_chemical_formula_sum "Si O2"
_cell_formula_units_Z 56
_cell_length_a 23.445319
_cell_length_b 13.668782
_cell_length_c 23.306562
_cell_angle_alpha 90.000000
_cell_angle_beta 21.199239
_cell_angle_gamma 90.000000
_cell_volume 2700.892111
_symmetry_space_group_name_H-M "C 2/C"
_symmetry_group_IT_number 15
_symmetry_cell_setting 'monoclinic'
loop_
_space_group_symop_operation_xyz
x,y,z
-x,y,1/2-z
-x,-y,-z
x,-y,1/2+z
1/2+x,1/2+y,z
1/2-x,1/2+y,1/2-z
1/2-x,1/2-y,-z
1/2+x,1/2-y,1/2+z
loop_
_atom_site_type_symbol
_atom_site_label
_atom_site_fract_x
_atom_site_fract_y
_atom_site_fract_z
Si Si1 0.709485 0.529665 0.623390
Si Si2 0.862958 0.666606 0.680805
Si Si3 0.925514 0.130912 0.951715
Si Si4 0.454303 0.158204 0.466709
Si Si5 0.231288 0.363375 0.856492
Si Si6 0.687604 0.144321 0.079545
Si Si7 0.274198 0.543218 0.197992
O O1 0.546007 0.574066 0.798615
O O2 0.843362 0.586039 0.535045
O O3 0.719453 0.416070 0.631037
O O4 0.742331 0.561172 0.527808
O O5 0.871374 0.688530 0.604640
O O6 0.797616 0.756999 0.778316
O O7 0.757711 0.569899 0.784555
O O8 0.041837 0.642212 0.531109
O O9 0.980489 0.242441 0.907422
O O10 0.756667 0.129734 0.078201
O O11 0.907840 0.083878 0.030887
O O12 0.613734 0.102523 0.333508
O O13 0.294537 0.433482 0.745857
O O14 0.500000 0.142778 0.250000
O O15 0.750000 0.250000 0.000000
#
# Coordination Sequence:
#
# PCOD9301130 Si02
#       7
#     8   8   8   8   8   8   8
#     4  12  24  41  62  96 133 165 217 265 330 382
#     4  11  23  39  61  92 133 176 221 257 328 380
#     4  12  25  37  66  96 133 171 215 262 326 395
#     4  11  20  38  59  93 137 176 208 264 317 390
#     4  11  24  40  65  93 134 173 216 278 314 395
#     4  12  26  43  66  95 130 169 214 269 332 390
#     4  11  22  40  60  96 135 178 213 261 330 379
#
# _framework density 20.733891
#
# number of rings (size 3 to 8) (size 9 to 14) (size 15 to 20)
#    0.000    0.571    5.714    3.857    4.000    0.571 
#    0.000    0.000    0.000    0.857    0.000    0.000 
#    0.000    0.000    0.000    0.000    0.000    0.000 
#
# Total GULP energy -156772.148534 kJ/mol
# GULP energy per Si atom -5599.005305 kJ/mol
# Density = 2.068670 g / cm^3
# Si number density = 20.733891 Si / 1000 Ang^3
#
#
#
# Elastic Constant Matrix: (Units=GPa)
#
#
# Indices 1 2 3 4 5 6 
#
# 1 55.0456 16.8955 -3.3964 -0.0003 5.3494 0.0006
# 2 16.8955 141.6875 20.8316 0.0047 12.6041 -0.0023
# 3 -3.3964 20.8316 63.8835 -0.0015 1.0076 0.0004
# 4 -0.0003 0.0047 -0.0015 28.8187 -0.0016 3.7034
# 5 5.3494 12.6041 1.0076 -0.0016 31.5097 0.0012
# 6 0.0006 -0.0023 0.0004 3.7034 0.0012 27.2542
#
#
#
# Elastic Compliance Matrix: (Units=1/GPa)
#
#
# Indices 1 2 3 4 5 6 
#
# 1 0.019232 -0.002350 0.001826 0.000001 -0.002384 -0.000001
# 2 -0.002350 0.007973 -0.002682 -0.000002 -0.002705 0.000001
# 3 0.001826 -0.002682 0.016622 0.000001 0.000231 -0.000001
# 4 0.000001 -0.000002 0.000001 0.035316 0.000003 -0.004799
# 5 -0.002384 -0.002705 0.000231 0.000003 0.033215 -0.000002
# 6 -0.000001 0.000001 -0.000001 -0.004799 -0.000002 0.037344
#
#
# Mechanical properties :
#
#
# Convention : Reuss Voigt Hill
#
# Bulk Modulus (GPa) = 26.72687 36.58644 31.65665
# Shear Modulus (GPa) = 29.65856 32.60224 31.13040
#
# Velocity S-wave (km/s) = 3.78622 3.96967 3.87903
# Velocity P-wave (km/s) = 5.65971 6.22053 5.94674
#
# Compressibility (1/GPa) = 0.03741553
#
# Stress axis : x y z
#
# Youngs Moduli (GPa) = 51.99576 125.42454 60.16285
#
# Poissons Ratio (x) = 0.29473 -0.10988
# Poissons Ratio (y) = 0.12218 0.16137
# Poissons Ratio (z) = -0.09496 0.33641
#
# Static dielectric constant tensor:
#      x y z
#    x 1.753750 0.000000 0.000840 
#    y 0.000000 1.731230 0.000000 
#    z 0.000840 0.000000 1.753720 
# 
# From -- ./inp_files/282076.got.cif
#   From: 2010.05.17/outbox.cif.g08.bks.cpg/sg15_142_cif.got.tgz:282076.got - 2010.06.03 18:47:42.
