data_PCOD9301496
_publ_section_title
;
Structure prediction by ZEFSAII (Michael W. Deem and Ramdas Pophale) SiO2 
 PCOD9301496
Probable space group: C 2/C
;
_chemical_formula_sum "Si O2"
_cell_formula_units_Z 48
_cell_length_a 15.909245
_cell_length_b 21.748971
_cell_length_c 10.024349
_cell_angle_alpha 90.000000
_cell_angle_beta 144.492255
_cell_angle_gamma 90.000000
_cell_volume 2014.562707
_symmetry_space_group_name_H-M "C 2/C"
_symmetry_group_IT_number 15
_symmetry_cell_setting 'monoclinic'
loop_
_space_group_symop_operation_xyz
x,y,z
-x,y,1/2-z
-x,-y,-z
x,-y,1/2+z
1/2+x,1/2+y,z
1/2-x,1/2+y,1/2-z
1/2-x,1/2-y,-z
1/2+x,1/2-y,1/2+z
loop_
_atom_site_type_symbol
_atom_site_label
_atom_site_fract_x
_atom_site_fract_y
_atom_site_fract_z
Si Si1 0.875442 0.331303 0.979894
Si Si2 0.136144 0.303731 0.828858
Si Si3 0.397013 0.382732 0.235208
Si Si4 0.310502 0.488207 0.576317
Si Si5 0.860193 0.475235 0.894299
Si Si6 0.575791 0.649962 0.217700
O O1 0.906867 0.297942 0.881561
O O2 0.867735 0.402150 0.920244
O O3 0.718787 0.317630 0.842986
O O4 0.000000 0.325571 0.250000
O O5 0.000000 0.301239 0.750000
O O6 0.250000 0.250000 0.000000
O O7 0.233515 0.363818 0.988720
O O8 0.500000 0.358970 0.250000
O O9 0.410897 0.456328 0.254713
O O10 0.456319 0.356434 0.448898
O O11 0.173454 0.495516 0.498700
O O12 0.266988 0.501863 0.368235
O O13 0.370695 0.419577 0.673976
O O14 0.000000 0.500000 0.000000
O O15 0.500000 0.677788 0.250000
#
# Coordination Sequence:
#
# PCOD9301496 Si02
#       6
#     8   8   8   8   8   8
#     4  11  25  47  70 107 145 188 233 302 359 428
#     4  12  29  52  81 107 135 182 243 310 374 432
#     4  12  22  43  69 100 146 186 244 298 351 418
#     4  11  21  35  57 101 141 196 242 279 337 415
#     4  11  21  35  59  96 152 190 236 283 344 424
#     4  11  23  39  66 104 153 195 235 281 344 424
#
# _framework density 23.826512000000001
#
# number of rings (size 3 to 8) (size 9 to 14) (size 15 to 20)
#    0.000    0.667    3.333    6.000    4.667    0.000 
#    0.000    1.667    0.000    0.000    0.000    0.000 
#    0.000    0.000    0.000    0.000    0.000    0.000 
#
# Total GULP energy -134369.065490 kJ/mol
# GULP energy per Si atom -5598.711062 kJ/mol
# Density = 2.377228 g / cm^3
# Si number density = 23.826512 Si / 1000 Ang^3
#
#
#
# Elastic Constant Matrix: (Units=GPa)
#
#
# Indices 1 2 3 4 5 6 
#
# 1 218.5150 9.3999 64.6466 0.0000 6.9894 0.0000
# 2 9.3999 54.3747 0.9597 0.0000 -3.9004 0.0000
# 3 64.6466 0.9597 156.4432 0.0000 -26.6312 0.0000
# 4 0.0000 0.0000 0.0000 11.7397 0.0000 2.4904
# 5 6.9894 -3.9004 -26.6312 0.0000 52.7066 0.0000
# 6 0.0000 0.0000 0.0000 2.4904 0.0000 0.6017
#
#
#
# Elastic Compliance Matrix: (Units=1/GPa)
#
#
# Indices 1 2 3 4 5 6 
#
# 1 0.005462 -0.001050 -0.002612 0.000000 -0.002122 0.000000
# 2 -0.001050 0.018693 0.000633 0.000000 0.001842 0.000000
# 3 -0.002612 0.000633 0.008243 0.000000 0.004558 0.000000
# 4 0.000000 0.000000 0.000000 0.698471 0.000000 -2.891098
# 5 -0.002122 0.001842 0.004558 0.000000 0.021694 0.000000
# 6 0.000000 0.000000 0.000000 -2.891098 0.000000 13.628870
#
#
# Mechanical properties :
#
#
# Convention : Reuss Voigt Hill
#
# Bulk Modulus (GPa) = 37.96407 64.37171 51.16789
# Shear Modulus (GPa) = 0.34731 36.63137 18.48934
#
# Velocity S-wave (km/s) = 0.38221 3.92525 2.78870
# Velocity P-wave (km/s) = 4.02031 6.90065 5.64720
#
# Compressibility (1/GPa) = 0.02634069
#
# Stress axis : x y z
#
# Youngs Moduli (GPa) = 183.08018 53.49460 121.30831
#
# Poissons Ratio (x) = 0.05619 0.31684
# Poissons Ratio (y) = 0.19230 -0.07679
# Poissons Ratio (z) = 0.47817 -0.03386
#
# Static dielectric constant tensor:
#      x y z
#    x 1.931240 0.000000 0.020540 
#    y 0.000000 1.985350 0.000000 
#    z 0.020540 0.000000 1.897930 
# 
# From -- ./inp_files/43909.got.cif
#   From: 2010.05.17/outbox.cif.g08.bks.cpg/sg15_22_cif.got.tgz:43909.got - 2010.06.03 18:47:42.
