data_PCOD9301848
_publ_section_title
;
Structure prediction by ZEFSAII (Michael W. Deem and Ramdas Pophale) SiO2 
 PCOD9301848
Probable space group: C 2/C
;
_chemical_formula_sum "Si O2"
_cell_formula_units_Z 52
_cell_length_a 24.333043
_cell_length_b 20.205267
_cell_length_c 10.855548
_cell_angle_alpha 90.000000
_cell_angle_beta 151.392150
_cell_angle_gamma 90.000000
_cell_volume 2555.512011
_symmetry_space_group_name_H-M "C 2/C"
_symmetry_group_IT_number 15
_symmetry_cell_setting 'monoclinic'
loop_
_space_group_symop_operation_xyz
x,y,z
-x,y,1/2-z
-x,-y,-z
x,-y,1/2+z
1/2+x,1/2+y,z
1/2-x,1/2+y,1/2-z
1/2-x,1/2-y,-z
1/2+x,1/2-y,1/2+z
loop_
_atom_site_type_symbol
_atom_site_label
_atom_site_fract_x
_atom_site_fract_y
_atom_site_fract_z
Si Si1 0.494495 0.170506 0.556002
Si Si2 0.883873 0.272868 0.595252
Si Si3 0.308254 0.629027 0.771036
Si Si4 0.247952 0.004148 0.242150
Si Si5 0.000000 0.224037 0.250000
Si Si6 0.745543 0.636452 0.123579
Si Si7 0.118213 0.461079 0.242926
O O1 0.427909 0.209280 0.317860
O O2 0.553466 0.225688 0.755939
O O3 0.385043 0.135986 0.408999
O O4 0.582611 0.115866 0.682184
O O5 0.807947 0.336177 0.405957
O O6 0.805093 0.207737 0.440608
O O7 0.000000 0.262818 0.750000
O O8 0.329883 0.557604 0.871809
O O9 0.288132 0.624382 0.585121
O O10 0.409084 0.678753 0.002671
O O11 0.311276 0.980110 0.241078
O O12 0.197637 0.075793 0.109176
O O13 0.324359 0.016358 0.515286
O O14 0.000000 0.500000 0.000000
#
# Coordination Sequence:
#
# PCOD9301848 Si02
#       7
#     8   8   8   8   4   8   8
#     4  11  21  39  68  97 126 170 220 276 334 389
#     4  11  22  43  67  95 132 171 224 274 332 389
#     4  11  23  44  68  95 131 177 223 279 331 396
#     4  12  24  43  63  99 139 175 222 271 334 401
#     4  12  22  42  70  92 128 174 230 272 328 392
#     4  11  21  44  66  91 134 177 220 272 338 396
#     4  12  23  37  67 102 138 170 215 282 339 390
#
# _framework density 20.348174
#
# number of rings (size 3 to 8) (size 9 to 14) (size 15 to 20)
#    0.000    0.615    6.154    4.154    0.000    0.000 
#    4.154    2.308    0.000    0.000    0.000    0.000 
#    0.000    0.000    0.000    0.000    0.000    0.000 
#
# Total GULP energy -145168.179487 kJ/mol
# GULP energy per Si atom -5583.391519 kJ/mol
# Density = 2.030186 g / cm^3
# Si number density = 20.348174 Si / 1000 Ang^3
#
#
#
# Elastic Constant Matrix: (Units=GPa)
#
#
# Indices 1 2 3 4 5 6 
#
# 1 48.8186 16.8922 24.1529 0.0000 -16.2832 0.0000
# 2 16.8922 136.9192 27.7818 0.0000 -19.1707 0.0000
# 3 24.1529 27.7818 57.2560 0.0000 -23.7923 0.0000
# 4 0.0000 0.0000 0.0000 27.6529 0.0000 -6.3954
# 5 -16.2832 -19.1707 -23.7923 0.0000 24.9747 0.0000
# 6 0.0000 0.0000 0.0000 -6.3954 0.0000 25.4117
#
#
#
# Elastic Compliance Matrix: (Units=1/GPa)
#
#
# Indices 1 2 3 4 5 6 
#
# 1 0.027770 -0.000468 -0.006808 0.000000 0.011261 0.000000
# 2 -0.000468 0.008370 -0.002186 0.000000 0.004037 0.000000
# 3 -0.006808 -0.002186 0.031212 0.000000 0.023617 0.000000
# 4 0.000000 0.000000 0.000000 0.038397 0.000000 0.009664
# 5 0.011261 0.004037 0.023617 0.000000 0.072980 0.000000
# 6 0.000000 0.000000 0.000000 0.009664 0.000000 0.041784
#
#
# Mechanical properties :
#
#
# Convention : Reuss Voigt Hill
#
# Bulk Modulus (GPa) = 20.64944 42.29418 31.47181
# Shear Modulus (GPa) = 19.56316 27.21899 23.39108
#
# Velocity S-wave (km/s) = 3.10404 3.66137 3.39417
# Velocity P-wave (km/s) = 4.79759 6.22130 5.55524
#
# Compressibility (1/GPa) = 0.04842745
#
# Stress axis : x y z
#
# Youngs Moduli (GPa) = 36.00972 119.47160 32.03865
#
# Poissons Ratio (x) = 0.05591 0.21813
# Poissons Ratio (y) = 0.01685 0.07005
# Poissons Ratio (z) = 0.24516 0.26122
#
# Static dielectric constant tensor:
#      x y z
#    x 1.926590 0.000000 -0.012080 
#    y 0.000000 1.757640 0.000000 
#    z -0.012080 0.000000 1.712210 
# 
# From -- ./inp_files/123899.got.cif
#   From: 2010.05.17/outbox.cif.g08.bks.cpg/sg15_62_cif.got.tgz:123899.got - 2010.06.03 18:47:42.
