data_PCOD9301146
_publ_section_title
;
Structure prediction by ZEFSAII (Michael W. Deem and Ramdas Pophale) SiO2 
 PCOD9301146
Probable space group: C 2/C
;
_chemical_formula_sum "Si O2"
_cell_formula_units_Z 40
_cell_length_a 15.510546
_cell_length_b 10.723286
_cell_length_c 12.387108
_cell_angle_alpha 90.000000
_cell_angle_beta 125.010726
_cell_angle_gamma 90.000000
_cell_volume 1687.456085
_symmetry_space_group_name_H-M "C 2/C"
_symmetry_group_IT_number 15
_symmetry_cell_setting 'monoclinic'
loop_
_space_group_symop_operation_xyz
x,y,z
-x,y,1/2-z
-x,-y,-z
x,-y,1/2+z
1/2+x,1/2+y,z
1/2-x,1/2+y,1/2-z
1/2-x,1/2-y,-z
1/2+x,1/2-y,1/2+z
loop_
_atom_site_type_symbol
_atom_site_label
_atom_site_fract_x
_atom_site_fract_y
_atom_site_fract_z
Si Si1 0.615904 0.563560 0.888613
Si Si2 0.327917 0.706270 0.965345
Si Si3 0.733116 0.925470 0.199083
Si Si4 0.521970 0.847275 0.140838
Si Si5 0.093696 0.897919 0.593634
O O1 0.500000 0.564619 0.750000
O O2 0.712573 0.592879 0.878184
O O3 0.636316 0.426797 0.955817
O O4 0.611070 0.657512 0.986958
O O5 0.391042 0.924670 0.362731
O O6 0.409053 0.819948 0.008283
O O7 0.250000 0.750000 0.000000
O O8 0.277718 0.677420 0.814547
O O9 0.798142 0.043891 0.288908
O O10 0.500000 0.883197 0.250000
O O11 0.562739 0.703742 0.159569
O O12 0.000000 0.000000 0.500000
#
# Coordination Sequence:
#
# PCOD9301146 Si02
#       5
#     8   8   8   8   8
#     4  11  20  38  62  88 119 154 199 255 300 357
#     4  11  21  36  62  91 115 157 212 243 292 372
#     4  11  23  35  62  94 118 154 198 260 305 339
#     4  12  22  38  64  89 119 156 206 251 296 359
#     4  11  21  37  62  90 114 157 210 248 294 368
#
# _framework density 23.704319000000002
#
# number of rings (size 3 to 8) (size 9 to 14) (size 15 to 20)
#    0.000    0.800    8.000    1.800    0.000    0.800 
#    0.000    1.000    0.000    1.200    0.000    0.000 
#    0.000    0.000    0.000    0.000    0.000    0.000 
#
# Total GULP energy -111413.815479 kJ/mol
# GULP energy per Si atom -5570.690774 kJ/mol
# Density = 2.365037 g / cm^3
# Si number density = 23.704319 Si / 1000 Ang^3
#
#
#
# Elastic Constant Matrix: (Units=GPa)
#
#
# Indices 1 2 3 4 5 6 
#
# 1 203.5765 33.2763 27.9573 0.0000 -34.5340 0.0000
# 2 33.2763 49.2010 -8.6968 0.0000 -4.8543 0.0000
# 3 27.9573 -8.6968 63.3752 0.0000 -33.6115 0.0000
# 4 0.0000 0.0000 0.0000 18.3595 0.0000 -9.2448
# 5 -34.5340 -4.8543 -33.6115 0.0000 51.2239 0.0000
# 6 0.0000 0.0000 0.0000 -9.2448 0.0000 49.0558
#
#
#
# Elastic Compliance Matrix: (Units=1/GPa)
#
#
# Indices 1 2 3 4 5 6 
#
# 1 0.006342 -0.004411 -0.002081 0.000000 0.002492 0.000000
# 2 -0.004411 0.025132 0.007792 0.000000 0.004521 0.000000
# 3 -0.002081 0.007792 0.026709 0.000000 0.016861 0.000000
# 4 0.000000 0.000000 0.000000 0.060178 0.000000 0.011341
# 5 0.002492 0.004521 0.016861 0.000000 0.032694 0.000000
# 6 0.000000 0.000000 0.000000 0.011341 0.000000 0.022522
#
#
# Mechanical properties :
#
#
# Convention : Reuss Voigt Hill
#
# Bulk Modulus (GPa) = 16.45240 46.80293 31.62767
# Shear Modulus (GPa) = 26.14549 41.30225 33.72387
#
# Velocity S-wave (km/s) = 3.32472 4.17873 3.77595
# Velocity P-wave (km/s) = 4.65770 6.56275 5.69051
#
# Compressibility (1/GPa) = 0.06078140
#
# Stress axis : x y z
#
# Youngs Moduli (GPa) = 157.68568 39.79042 37.44095
#
# Poissons Ratio (x) = 0.17552 0.07793
# Poissons Ratio (y) = 0.69559 -0.29175
# Poissons Ratio (z) = 0.32822 -0.31006
#
# Static dielectric constant tensor:
#      x y z
#    x 2.102410 0.000000 0.000700 
#    y 0.000000 1.983510 0.000000 
#    z 0.000700 0.000000 1.952280 
# 
# From -- ./inp_files/150979.got.cif
#   From: 2010.05.17/outbox.cif.g08.bks.cpg/sg15_76_cif.got.tgz:150979.got - 2010.06.03 18:47:42.
