data_PCOD9301733
_publ_section_title
;
Structure prediction by ZEFSAII (Michael W. Deem and Ramdas Pophale) SiO2 
 PCOD9301733
Probable space group: C 2/C
;
_chemical_formula_sum "Si O2"
_cell_formula_units_Z 56
_cell_length_a 28.688211
_cell_length_b 7.080091
_cell_length_c 14.434264
_cell_angle_alpha 90.000000
_cell_angle_beta 134.194141
_cell_angle_gamma 90.000000
_cell_volume 2102.060152
_symmetry_space_group_name_H-M "C 2/C"
_symmetry_group_IT_number 15
_symmetry_cell_setting 'monoclinic'
loop_
_space_group_symop_operation_xyz
x,y,z
-x,y,1/2-z
-x,-y,-z
x,-y,1/2+z
1/2+x,1/2+y,z
1/2-x,1/2+y,1/2-z
1/2-x,1/2-y,-z
1/2+x,1/2-y,1/2+z
loop_
_atom_site_type_symbol
_atom_site_label
_atom_site_fract_x
_atom_site_fract_y
_atom_site_fract_z
Si Si1 0.940557 0.197733 0.736882
Si Si2 0.581575 0.953965 0.631399
Si Si3 0.108386 0.211205 0.275114
Si Si4 0.224484 0.133543 0.318711
Si Si5 0.621815 0.207677 0.997130
Si Si6 0.777953 0.702544 0.137801
Si Si7 0.847425 0.874460 0.954212
O O1 0.957548 0.330543 0.847133
O O2 0.882483 0.247047 0.582212
O O3 0.000000 0.173625 0.750000
O O4 0.917088 0.000480 0.748804
O O5 0.585160 0.901095 0.528477
O O6 0.654048 0.898241 0.766255
O O7 0.571393 0.169617 0.646094
O O8 0.185582 0.195332 0.357516
O O9 0.097376 0.313280 0.358283
O O10 0.300461 0.164292 0.402459
O O11 0.176297 0.218387 0.173223
O O12 0.216262 0.905173 0.304511
O O13 0.614067 0.432285 0.007468
O O14 0.723412 0.569417 0.104995
O O15 0.750000 0.750000 0.000000
#
# Coordination Sequence:
#
# PCOD9301733 Si02
#       7
#     8   8   8   8   8   8   8
#     4  11  26  49  70  95 134 183 240 287 330 395
#     4  12  23  42  69 101 136 171 231 281 344 412
#     4  11  25  43  67  97 140 183 223 278 344 401
#     4  12  21  37  63 105 145 177 214 265 346 419
#     4  11  23  39  61 105 141 175 220 271 339 427
#     4  12  20  35  62  98 139 172 210 266 342 412
#     4  11  21  38  66  96 137 182 220 274 340 402
#
# _framework density 26.640530999999999
#
# number of rings (size 3 to 8) (size 9 to 14) (size 15 to 20)
#    0.000    0.571    5.714    3.000    2.000    0.571 
#    0.000    6.429    0.000    5.143    0.000    0.000 
#    0.000    0.000    0.000    0.000    0.000    0.000 
#
# Total GULP energy -156659.827476 kJ/mol
# GULP energy per Si atom -5594.993838 kJ/mol
# Density = 2.657990 g / cm^3
# Si number density = 26.640531 Si / 1000 Ang^3
#
#
#
# Elastic Constant Matrix: (Units=GPa)
#
#
# Indices 1 2 3 4 5 6 
#
# 1 152.8755 25.9075 43.6343 0.0000 -21.0994 0.0000
# 2 25.9075 81.8359 -0.7411 0.0000 -9.7206 0.0000
# 3 43.6343 -0.7411 102.3889 0.0000 -18.8637 0.0000
# 4 0.0000 0.0000 0.0000 -8.5639 0.0000 -26.6231
# 5 -21.0994 -9.7206 -18.8637 0.0000 49.1055 0.0000
# 6 0.0000 0.0000 0.0000 -26.6231 0.0000 22.5409
#
#
#
# Elastic Compliance Matrix: (Units=1/GPa)
#
#
# Indices 1 2 3 4 5 6 
#
# 1 0.008086 -0.002374 -0.003131 0.000000 0.001802 0.000000
# 2 -0.002374 0.013244 0.001510 0.000000 0.002181 0.000000
# 3 -0.003131 0.001510 0.011751 0.000000 0.003467 0.000000
# 4 0.000000 0.000000 0.000000 -0.024995 0.000000 -0.029521
# 5 0.001802 0.002181 0.003467 0.000000 0.022902 0.000000
# 6 0.000000 0.000000 0.000000 -0.029521 0.000000 0.009496
#
#
# Mechanical properties :
#
#
# Convention : Reuss Voigt Hill
#
# Bulk Modulus (GPa) = 39.85803 52.74465 46.30134
# Shear Modulus (GPa) = 87.96732 30.50314 59.23523
#
# Velocity S-wave (km/s) = 5.75255 3.38744 4.72052
# Velocity P-wave (km/s) = 7.68871 5.92801 6.86504
#
# Compressibility (1/GPa) = 0.02508905
#
# Stress axis : x y z
#
# Youngs Moduli (GPa) = 123.67069 75.50597 85.10023
#
# Poissons Ratio (x) = 0.17927 0.26647
# Poissons Ratio (y) = 0.29362 -0.12846
# Poissons Ratio (z) = 0.38724 -0.11398
#
# Static dielectric constant tensor:
#      x y z
#    x 2.116890 0.000000 -0.025970 
#    y 0.000000 2.124990 0.000000 
#    z -0.025970 0.000000 2.150960 
# 
# From -- ./inp_files/176660.got.cif
#   From: 2010.05.17/outbox.cif.g08.bks.cpg/sg15_89_cif.got.tgz:176660.got - 2010.06.03 18:47:42.
