data_PCOD9301001
_publ_section_title
;
Structure prediction by ZEFSAII (Michael W. Deem and Ramdas Pophale) SiO2 
 PCOD9301001
Probable space group: C 2/C
;
_chemical_formula_sum "Si O2"
_cell_formula_units_Z 56
_cell_length_a 18.018012
_cell_length_b 18.865962
_cell_length_c 14.250710
_cell_angle_alpha 90.000000
_cell_angle_beta 144.069957
_cell_angle_gamma 90.000000
_cell_volume 2842.563857
_symmetry_space_group_name_H-M "C 2/C"
_symmetry_group_IT_number 15
_symmetry_cell_setting 'monoclinic'
loop_
_space_group_symop_operation_xyz
x,y,z
-x,y,1/2-z
-x,-y,-z
x,-y,1/2+z
1/2+x,1/2+y,z
1/2-x,1/2+y,1/2-z
1/2-x,1/2-y,-z
1/2+x,1/2-y,1/2+z
loop_
_atom_site_type_symbol
_atom_site_label
_atom_site_fract_x
_atom_site_fract_y
_atom_site_fract_z
Si Si1 0.000000 0.005784 0.250000
Si Si2 0.133261 0.459664 0.126115
Si Si3 0.701124 0.377108 0.914885
Si Si4 0.000000 0.763741 0.750000
Si Si5 0.047278 0.303303 0.095859
Si Si6 0.803742 0.940872 0.924116
Si Si7 0.144453 0.507044 0.421734
Si Si8 0.744628 0.811014 0.732136
O O1 0.060120 0.960817 0.395489
O O2 0.899480 0.058970 0.193613
O O3 0.099659 0.381306 0.127242
O O4 0.242510 0.496222 0.299391
O O5 0.168926 0.472054 0.054154
O O6 0.000000 0.500000 0.000000
O O7 0.623970 0.315379 0.891392
O O8 0.739667 0.344513 0.855507
O O9 0.819498 0.425154 0.067239
O O10 0.969951 0.718213 0.811738
O O11 0.154637 0.252171 0.163519
O O12 0.904622 0.294503 0.908809
O O13 0.720779 0.940705 0.933043
O O14 0.788511 0.870051 0.850496
O O15 0.000000 0.516152 0.250000
#
# Coordination Sequence:
#
# PCOD9301001 Si02
#       8
#     4   8   8   4   8   8   8   8
#     4   9  22  38  64 102 125 178 222 274 343 402
#     4  12  22  41  68 100 132 173 228 280 335 395
#     4   9  19  39  61  94 137 167 212 271 333 417
#     4   9  22  40  60  94 141 174 210 262 351 418
#     4  11  25  42  66  99 136 183 223 278 348 405
#     4  11  23  43  67  95 137 170 228 281 337 405
#     4  11  20  35  65 102 128 170 225 277 330 390
#     4  11  23  44  63  94 137 174 222 279 341 409
#
# _framework density 19.700524999999999
#
# number of rings (size 3 to 8) (size 9 to 14) (size 15 to 20)
#    0.000    1.429    4.286    0.000    0.000   10.857 
#    5.143    0.714    1.571    0.000    0.000    0.000 
#    0.000    0.000    0.000    0.000    0.000    0.000 
#
# Total GULP energy -156209.413331 kJ/mol
# GULP energy per Si atom -5578.907619 kJ/mol
# Density = 1.965569 g / cm^3
# Si number density = 19.700525 Si / 1000 Ang^3
#
#
#
# Elastic Constant Matrix: (Units=GPa)
#
#
# Indices 1 2 3 4 5 6 
#
# 1 90.6118 51.5230 21.1146 0.0000 -12.3815 0.0000
# 2 51.5230 156.7327 51.5584 0.0000 -0.5657 0.0000
# 3 21.1146 51.5584 97.0477 0.0000 -3.2263 0.0000
# 4 0.0000 0.0000 0.0000 -12.9088 0.0000 -18.6235
# 5 -12.3815 -0.5657 -3.2263 0.0000 26.5007 0.0000
# 6 0.0000 0.0000 0.0000 -18.6235 0.0000 16.5817
#
#
#
# Elastic Compliance Matrix: (Units=1/GPa)
#
#
# Indices 1 2 3 4 5 6 
#
# 1 0.014713 -0.004645 -0.000510 0.000000 0.006713 0.000000
# 2 -0.004645 0.009201 -0.003959 0.000000 -0.002456 0.000000
# 3 -0.000510 -0.003959 0.012559 0.000000 0.001206 0.000000
# 4 0.000000 0.000000 0.000000 -0.029563 0.000000 -0.033204
# 5 0.006713 -0.002456 0.001206 0.000000 0.040966 0.000000
# 6 0.000000 0.000000 0.000000 -0.033204 0.000000 0.023015
#
#
# Mechanical properties :
#
#
# Convention : Reuss Voigt Hill
#
# Bulk Modulus (GPa) = 54.81163 65.86490 60.33827
# Shear Modulus (GPa) = 52.52120 20.71446 36.61783
#
# Velocity S-wave (km/s) = 5.16891 3.24615 4.31597
# Velocity P-wave (km/s) = 7.96909 6.89606 7.45191
#
# Compressibility (1/GPa) = 0.01824430
#
# Stress axis : x y z
#
# Youngs Moduli (GPa) = 67.96582 108.68822 79.62592
#
# Poissons Ratio (x) = 0.50481 0.04065
# Poissons Ratio (y) = 0.31567 0.31525
# Poissons Ratio (z) = 0.03469 0.43031
#
# Static dielectric constant tensor:
#      x y z
#    x 1.717350 0.000000 0.028660 
#    y 0.000000 1.702050 0.000000 
#    z 0.028660 0.000000 1.726790 
# 
# From -- ./inp_files/163127.got.cif
#   From: 2010.05.17/outbox.cif.g08.bks.cpg/sg15_82_cif.got.tgz:163127.got - 2010.06.03 18:47:42.
