data_PCOD9301899
_publ_section_title
;
Structure prediction by ZEFSAII (Michael W. Deem and Ramdas Pophale) SiO2 
 PCOD9301899
Probable space group: C 2/C
;
_chemical_formula_sum "Si O2"
_cell_formula_units_Z 48
_cell_length_a 9.720152
_cell_length_b 16.842490
_cell_length_c 20.062978
_cell_angle_alpha 90.000000
_cell_angle_beta 141.589430
_cell_angle_gamma 90.000000
_cell_volume 2040.660486
_symmetry_space_group_name_H-M "C 2/C"
_symmetry_group_IT_number 15
_symmetry_cell_setting 'monoclinic'
loop_
_space_group_symop_operation_xyz
x,y,z
-x,y,1/2-z
-x,-y,-z
x,-y,1/2+z
1/2+x,1/2+y,z
1/2-x,1/2+y,1/2-z
1/2-x,1/2-y,-z
1/2+x,1/2-y,1/2+z
loop_
_atom_site_type_symbol
_atom_site_label
_atom_site_fract_x
_atom_site_fract_y
_atom_site_fract_z
Si Si1 0.876411 0.903127 0.994455
Si Si2 0.439545 0.145297 0.543335
Si Si3 0.113235 0.112916 0.859289
Si Si4 0.671365 0.059719 0.873632
Si Si5 0.991540 0.213592 0.323217
Si Si6 0.514198 0.792748 0.677513
O O1 0.704457 0.831738 0.935772
O O2 0.766830 0.970967 0.908110
O O3 0.911874 0.935821 0.082720
O O4 0.114910 0.883054 0.054416
O O5 0.635218 0.132300 0.565377
O O6 0.430548 0.074075 0.592814
O O7 0.204379 0.159143 0.418708
O O8 0.493436 0.219704 0.612913
O O9 0.000000 0.078892 0.750000
O O10 0.994659 0.197252 0.830433
O O11 0.500000 0.072192 0.750000
O O12 0.000000 0.243297 0.250000
O O13 0.747244 0.176504 0.238547
O O14 0.500000 0.811398 0.750000
#
# Coordination Sequence:
#
# PCOD9301899 Si02
#       6
#     8   8   8   8   8   8
#     4  11  25  42  66  94 126 172 218 258 318 378
#     4  11  23  40  62  95 129 168 216 258 324 378
#     4  11  22  40  61  95 126 166 210 264 326 377
#     4  11  25  44  66  93 129 172 214 263 314 384
#     4  11  23  38  63  97 130 167 212 269 321 376
#     4  11  21  40  64  95 130 163 210 269 319 379
#
# _framework density 23.521795999999998
#
# number of rings (size 3 to 8) (size 9 to 14) (size 15 to 20)
#    0.000    1.000    3.333    4.500    4.667    2.000 
#    0.000    0.833    0.000    0.000    0.000    0.000 
#    0.000    0.000    0.000    0.000    0.000    0.000 
#
# Total GULP energy -134276.687250 kJ/mol
# GULP energy per Si atom -5594.861969 kJ/mol
# Density = 2.346826 g / cm^3
# Si number density = 23.521796 Si / 1000 Ang^3
#
#
#
# Elastic Constant Matrix: (Units=GPa)
#
#
# Indices 1 2 3 4 5 6 
#
# 1 113.1488 -4.1970 36.3766 0.0001 7.8515 0.0001
# 2 -4.1970 18.9991 17.5701 0.0001 3.2166 -0.0001
# 3 36.3766 17.5701 128.8481 0.0004 10.3767 -0.0001
# 4 0.0001 0.0001 0.0004 15.8561 0.0001 -10.1721
# 5 7.8515 3.2166 10.3767 0.0001 52.0037 0.0000
# 6 0.0001 -0.0001 -0.0001 -10.1721 0.0000 -15.4029
#
#
#
# Elastic Compliance Matrix: (Units=1/GPa)
#
#
# Indices 1 2 3 4 5 6 
#
# 1 0.010294 0.005807 -0.003602 0.000000 -0.001195 0.000000
# 2 0.005807 0.063736 -0.010105 0.000000 -0.002803 0.000000
# 3 -0.003602 -0.010105 0.010226 0.000000 -0.000872 0.000000
# 4 0.000000 0.000000 0.000000 0.044299 0.000000 -0.029255
# 5 -0.001195 -0.002803 -0.000872 0.000000 0.019757 0.000000
# 6 0.000000 0.000000 0.000000 -0.029255 0.000000 -0.045603
#
#
# Mechanical properties :
#
#
# Convention : Reuss Voigt Hill
#
# Bulk Modulus (GPa) = 14.60763 40.05505 27.33134
# Shear Modulus (GPa) = 35.37844 24.57447 29.97646
#
# Velocity S-wave (km/s) = 3.88244 3.23577 3.57376
# Velocity P-wave (km/s) = 5.13045 5.57011 5.35480
#
# Compressibility (1/GPa) = 0.06845738
#
# Stress axis : x y z
#
# Youngs Moduli (GPa) = 97.14159 15.68961 97.78846
#
# Poissons Ratio (x) = -0.09112 0.35223
# Poissons Ratio (y) = -0.56414 0.98816
# Poissons Ratio (z) = 0.34990 0.15855
#
# Static dielectric constant tensor:
#      x y z
#    x 1.859580 0.000000 0.005670 
#    y 0.000000 1.928000 0.000000 
#    z 0.005670 0.000000 1.939930 
# 
# From -- ./inp_files/233964.got.cif
#   From: 2010.05.17/outbox.cif.g08.bks.cpg/sg15_117_cif.got.tgz:233964.got - 2010.06.03 18:47:42.
