data_PCOD9301433
_publ_section_title
;
Structure prediction by ZEFSAII (Michael W. Deem and Ramdas Pophale) SiO2 
 PCOD9301433
Probable space group: C 2/C
;
_chemical_formula_sum "Si O2"
_cell_formula_units_Z 40
_cell_length_a 11.164761
_cell_length_b 12.035034
_cell_length_c 14.043633
_cell_angle_alpha 90.000000
_cell_angle_beta 71.181318
_cell_angle_gamma 90.000000
_cell_volume 1786.146557
_symmetry_space_group_name_H-M "C 2/C"
_symmetry_group_IT_number 15
_symmetry_cell_setting 'monoclinic'
loop_
_space_group_symop_operation_xyz
x,y,z
-x,y,1/2-z
-x,-y,-z
x,-y,1/2+z
1/2+x,1/2+y,z
1/2-x,1/2+y,1/2-z
1/2-x,1/2-y,-z
1/2+x,1/2-y,1/2+z
loop_
_atom_site_type_symbol
_atom_site_label
_atom_site_fract_x
_atom_site_fract_y
_atom_site_fract_z
Si Si1 0.748743 0.785875 0.891558
Si Si2 0.977054 0.765684 0.369034
Si Si3 0.632258 0.480686 0.172518
Si Si4 0.944519 0.476120 0.909873
Si Si5 0.168590 0.413435 0.225752
O O1 0.610062 0.752463 0.888471
O O2 0.785000 0.914961 0.880269
O O3 0.842971 0.716232 0.798454
O O4 0.750000 0.750000 0.000000
O O5 0.907555 0.653294 0.417404
O O6 0.000000 0.753379 0.250000
O O7 0.904460 0.883339 0.393390
O O8 0.500000 0.521403 0.250000
O O9 0.708469 0.427054 0.240925
O O10 0.061638 0.523125 0.814834
O O11 0.830605 0.533001 0.880035
O O12 0.000000 0.500000 0.000000
#
# Coordination Sequence:
#
# PCOD9301433 Si02
#       5
#     8   8   8   8   8
#     4  12  25  44  67 101 144 186 244 309 361 437
#     4  11  20  45  69  91 139 186 230 295 370 423
#     4  11  24  44  71 100 138 193 243 288 383 441
#     4  11  23  43  70 101 139 193 244 303 376 439
#     4  11  23  42  68 100 141 187 245 306 360 441
#
# _framework density 22.394579
#
# number of rings (size 3 to 8) (size 9 to 14) (size 15 to 20)
#    0.000    0.800    8.000    1.200    2.800    0.800 
#    0.000    1.000    0.000    0.000    0.000    0.000 
#    0.000    0.000    0.000    0.000    0.000    0.000 
#
# Total GULP energy -111372.460212 kJ/mol
# GULP energy per Si atom -5568.623011 kJ/mol
# Density = 2.234361 g / cm^3
# Si number density = 22.394579 Si / 1000 Ang^3
#
#
#
# Elastic Constant Matrix: (Units=GPa)
#
#
# Indices 1 2 3 4 5 6 
#
# 1 130.9765 51.0304 41.5377 0.0000 34.5286 0.0000
# 2 51.0304 202.9315 47.9315 0.0000 20.5418 0.0000
# 3 41.5377 47.9315 112.9517 0.0000 33.9754 0.0000
# 4 0.0000 0.0000 0.0000 24.9888 0.0000 3.7409
# 5 34.5286 20.5418 33.9754 0.0000 37.6620 0.0000
# 6 0.0000 0.0000 0.0000 3.7409 0.0000 36.6947
#
#
#
# Elastic Compliance Matrix: (Units=1/GPa)
#
#
# Indices 1 2 3 4 5 6 
#
# 1 0.010692 -0.001681 -0.000749 0.000000 -0.008210 0.000000
# 2 -0.001681 0.005782 -0.001853 0.000000 0.000059 0.000000
# 3 -0.000749 -0.001853 0.012907 0.000000 -0.009946 0.000000
# 4 0.000000 0.000000 0.000000 0.040638 0.000000 -0.004143
# 5 -0.008210 0.000059 -0.009946 0.000000 0.043019 0.000000
# 6 0.000000 0.000000 0.000000 -0.004143 0.000000 0.027674
#
#
# Mechanical properties :
#
#
# Convention : Reuss Voigt Hill
#
# Bulk Modulus (GPa) = 48.04387 80.87322 64.45854
# Shear Modulus (GPa) = 32.00690 40.29311 36.15001
#
# Velocity S-wave (km/s) = 3.78461 4.24634 4.02211
# Velocity P-wave (km/s) = 6.37163 7.76100 7.10038
#
# Compressibility (1/GPa) = 0.02081431
#
# Stress axis : x y z
#
# Youngs Moduli (GPa) = 93.53144 172.94527 77.47720
#
# Poissons Ratio (x) = 0.29065 0.05805
# Poissons Ratio (y) = 0.15719 0.14360
# Poissons Ratio (z) = 0.07008 0.32054
#
# Static dielectric constant tensor:
#      x y z
#    x 2.015710 0.000000 -0.097250 
#    y 0.000000 1.938400 0.000000 
#    z -0.097250 0.000000 1.907380 
# 
# From -- ./inp_files/141716.got.cif
#   From: 2010.05.17/outbox.cif.g08.bks.cpg/sg15_71_cif.got.tgz:141716.got - 2010.06.03 18:47:42.
