data_PCOD9301808
_publ_section_title
;
Structure prediction by ZEFSAII (Michael W. Deem and Ramdas Pophale) SiO2 
 PCOD9301808
Probable space group: C 2/C
;
_chemical_formula_sum "Si O2"
_cell_formula_units_Z 52
_cell_length_a 22.757480
_cell_length_b 14.908030
_cell_length_c 10.691950
_cell_angle_alpha 90.000000
_cell_angle_beta 41.623389
_cell_angle_gamma 90.000000
_cell_volume 2409.465775
_symmetry_space_group_name_H-M "C 2/C"
_symmetry_group_IT_number 15
_symmetry_cell_setting 'monoclinic'
loop_
_space_group_symop_operation_xyz
x,y,z
-x,y,1/2-z
-x,-y,-z
x,-y,1/2+z
1/2+x,1/2+y,z
1/2-x,1/2+y,1/2-z
1/2-x,1/2-y,-z
1/2+x,1/2-y,1/2+z
loop_
_atom_site_type_symbol
_atom_site_label
_atom_site_fract_x
_atom_site_fract_y
_atom_site_fract_z
Si Si1 0.096480 0.106211 0.231583
Si Si2 0.651707 0.367347 0.907915
Si Si3 0.195384 0.433320 0.105407
Si Si4 0.401807 0.791805 0.411649
Si Si5 0.500000 0.463322 0.250000
Si Si6 0.279471 0.038229 0.661035
Si Si7 0.778173 0.769469 0.312178
O O1 0.093290 0.138820 0.377648
O O2 0.091242 0.191050 0.150483
O O3 0.020563 0.034020 0.327071
O O4 0.196979 0.069051 0.055351
O O5 0.721320 0.449029 0.781256
O O6 0.698956 0.275206 0.859300
O O7 0.584779 0.400747 0.118034
O O8 0.160736 0.345706 0.086241
O O9 0.167482 0.443287 0.294604
O O10 0.171042 0.512838 0.047074
O O11 0.500000 0.832365 0.250000
O O12 0.361698 0.781276 0.615483
O O13 0.220955 0.125197 0.720200
O O14 0.750000 0.750000 0.500000
#
# Coordination Sequence:
#
# PCOD9301808 Si02
#       7
#     8   8   8   8   4   8   8
#     4  11  21  39  65  96 132 170 222 272 348 412
#     4  11  24  40  66  98 141 174 222 281 350 419
#     4  11  22  42  71  96 135 185 232 280 353 414
#     4  12  24  43  69 102 132 179 240 286 335 422
#     4  12  22  38  64 108 134 166 216 292 356 416
#     4  11  22  41  72  97 132 185 230 280 341 427
#     4  12  25  42  69 101 142 186 231 284 353 413
#
# _framework density 21.581548000000002
#
# number of rings (size 3 to 8) (size 9 to 14) (size 15 to 20)
#    0.000    0.615    6.923    2.769    2.154    1.231 
#    0.000    0.769    1.692    0.000    0.000    0.000 
#    0.000    0.000    0.000    0.000    0.000    0.000 
#
# Total GULP energy -144921.814104 kJ/mol
# GULP energy per Si atom -5573.915927 kJ/mol
# Density = 2.153243 g / cm^3
# Si number density = 21.581548 Si / 1000 Ang^3
#
#
#
# Elastic Constant Matrix: (Units=GPa)
#
#
# Indices 1 2 3 4 5 6 
#
# 1 71.1449 2.2831 35.6997 0.0000 25.7545 0.0000
# 2 2.2831 52.6429 21.1407 0.0000 -1.5180 0.0000
# 3 35.6997 21.1407 48.8214 0.0000 19.7152 0.0000
# 4 0.0000 0.0000 0.0000 20.6880 0.0000 7.8296
# 5 25.7545 -1.5180 19.7152 0.0000 37.1335 0.0000
# 6 0.0000 0.0000 0.0000 7.8296 0.0000 23.0249
#
#
#
# Elastic Compliance Matrix: (Units=1/GPa)
#
#
# Indices 1 2 3 4 5 6 
#
# 1 0.025983 0.006016 -0.018364 0.000000 -0.008025 0.000000
# 2 0.006016 0.026379 -0.018549 0.000000 0.006754 0.000000
# 3 -0.018364 -0.018549 0.047233 0.000000 -0.013099 0.000000
# 4 0.000000 0.000000 0.000000 0.055477 0.000000 -0.018865
# 5 -0.008025 0.006754 -0.013099 0.000000 0.039726 0.000000
# 6 0.000000 0.000000 0.000000 -0.018865 0.000000 0.049846
#
#
# Mechanical properties :
#
#
# Convention : Reuss Voigt Hill
#
# Bulk Modulus (GPa) = 26.45454 32.31737 29.38595
# Shear Modulus (GPa) = 15.67214 23.73500 19.70357
#
# Velocity S-wave (km/s) = 2.69770 3.31989 3.02484
# Velocity P-wave (km/s) = 4.68914 5.45001 5.08383
#
# Compressibility (1/GPa) = 0.03780070
#
# Stress axis : x y z
#
# Youngs Moduli (GPa) = 38.48743 37.90910 21.17165
#
# Poissons Ratio (x) = -0.22808 0.38879
# Poissons Ratio (y) = -0.23156 0.39272
# Poissons Ratio (z) = 0.70678 0.70319
#
# Static dielectric constant tensor:
#      x y z
#    x 1.811970 0.000000 0.051090 
#    y 0.000000 1.769670 0.000000 
#    z 0.051090 0.000000 1.929950 
# 
# From -- ./inp_files/118757.got.cif
#   From: 2010.05.17/outbox.cif.g08.bks.cpg/sg15_60_cif.got.tgz:118757.got - 2010.06.03 18:47:42.
