data_PCOD9301311
_publ_section_title
;
Structure prediction by ZEFSAII (Michael W. Deem and Ramdas Pophale) SiO2 
 PCOD9301311
Probable space group: C 2/C
;
_chemical_formula_sum "Si O2"
_cell_formula_units_Z 40
_cell_length_a 16.187321
_cell_length_b 19.048310
_cell_length_c 9.896919
_cell_angle_alpha 90.000000
_cell_angle_beta 39.160416
_cell_angle_gamma 90.000000
_cell_volume 1927.083408
_symmetry_space_group_name_H-M "C 2/C"
_symmetry_group_IT_number 15
_symmetry_cell_setting 'monoclinic'
loop_
_space_group_symop_operation_xyz
x,y,z
-x,y,1/2-z
-x,-y,-z
x,-y,1/2+z
1/2+x,1/2+y,z
1/2-x,1/2+y,1/2-z
1/2-x,1/2-y,-z
1/2+x,1/2-y,1/2+z
loop_
_atom_site_type_symbol
_atom_site_label
_atom_site_fract_x
_atom_site_fract_y
_atom_site_fract_z
Si Si1 0.643660 0.951837 0.003318
Si Si2 0.000000 0.099377 0.250000
Si Si3 0.221021 0.711629 0.393883
Si Si4 0.000000 0.868489 0.250000
Si Si5 0.498907 0.706947 0.490872
Si Si6 0.787342 0.984023 0.560072
O O1 0.691095 0.870759 0.952743
O O2 0.671632 0.976054 0.814871
O O3 0.500000 0.954417 0.250000
O O4 0.730152 0.004366 0.984202
O O5 0.031534 0.147781 0.337565
O O6 0.881799 0.051344 0.453337
O O7 0.250000 0.750000 0.500000
O O8 0.097749 0.741516 0.466184
O O9 0.356361 0.730705 0.146774
O O10 0.058758 0.824886 0.299603
O O11 0.884469 0.918384 0.451244
#
# Coordination Sequence:
#
# PCOD9301311 Si02
#       6
#     8   4   8   4   8   8
#     4  12  24  41  66  98 136 176 222 278 347 403
#     4  11  20  40  74  98 126 179 228 286 324 403
#     4  12  23  43  69  99 134 185 231 279 330 410
#     4  11  24  42  70 100 136 179 224 290 340 397
#     4  12  23  42  68 101 137 178 235 279 340 406
#     4  11  22  42  67 100 136 171 228 279 338 406
#
# _framework density 20.756754999999998
#
# number of rings (size 3 to 8) (size 9 to 14) (size 15 to 20)
#    0.000    0.400    6.000    3.000    0.000    4.000 
#    0.000    2.000    0.000    0.000    0.000    0.000 
#    0.000    0.000    0.000    0.000    0.000    0.000 
#
# Total GULP energy -111572.511259 kJ/mol
# GULP energy per Si atom -5578.625563 kJ/mol
# Density = 2.070951 g / cm^3
# Si number density = 20.756755 Si / 1000 Ang^3
#
#
#
# Elastic Constant Matrix: (Units=GPa)
#
#
# Indices 1 2 3 4 5 6 
#
# 1 70.3220 22.3036 14.7409 0.0000 5.3888 0.0000
# 2 22.3036 45.2143 13.0612 0.0000 14.9745 0.0000
# 3 14.7409 13.0612 99.2933 0.0000 -2.5373 0.0000
# 4 0.0000 0.0000 0.0000 5.5182 0.0000 3.7501
# 5 5.3888 14.9745 -2.5373 0.0000 49.3320 0.0000
# 6 0.0000 0.0000 0.0000 3.7501 0.0000 30.3448
#
#
#
# Elastic Compliance Matrix: (Units=1/GPa)
#
#
# Indices 1 2 3 4 5 6 
#
# 1 0.017078 -0.008188 -0.001444 0.000000 0.000546 0.000000
# 2 -0.008188 0.029739 -0.002908 0.000000 -0.008282 0.000000
# 3 -0.001444 -0.002908 0.010709 0.000000 0.001591 0.000000
# 4 0.000000 0.000000 0.000000 0.197832 0.000000 -0.024449
# 5 0.000546 -0.008282 0.001591 0.000000 0.022807 0.000000
# 6 0.000000 0.000000 0.000000 -0.024449 0.000000 0.035976
#
#
# Mechanical properties :
#
#
# Convention : Reuss Voigt Hill
#
# Bulk Modulus (GPa) = 30.82105 35.00455 32.91280
# Shear Modulus (GPa) = 14.28421 28.02060 21.15241
#
# Velocity S-wave (km/s) = 2.62615 3.67815 3.19574
# Velocity P-wave (km/s) = 4.90678 5.91094 5.43211
#
# Compressibility (1/GPa) = 0.03244535
#
# Stress axis : x y z
#
# Youngs Moduli (GPa) = 58.55430 33.62601 93.38126
#
# Poissons Ratio (x) = 0.27532 0.13488
# Poissons Ratio (y) = 0.47943 0.27155
# Poissons Ratio (z) = 0.08458 0.09778
#
# Static dielectric constant tensor:
#      x y z
#    x 1.841000 0.000000 -0.184230 
#    y 0.000000 1.755900 0.000000 
#    z -0.184230 0.000000 2.009330 
# 
# From -- ./inp_files/41977.got.cif
#   From: 2010.05.17/outbox.cif.g08.bks.cpg/sg15_21_cif.got.tgz:41977.got - 2010.06.03 18:47:42.
