data_PCOD9301331
_publ_section_title
;
Structure prediction by ZEFSAII (Michael W. Deem and Ramdas Pophale) SiO2 
 PCOD9301331
Probable space group: C 2/C
;
_chemical_formula_sum "Si O2"
_cell_formula_units_Z 52
_cell_length_a 12.788480
_cell_length_b 14.096983
_cell_length_c 12.941776
_cell_angle_alpha 90.000000
_cell_angle_beta 111.358236
_cell_angle_gamma 90.000000
_cell_volume 2172.894438
_symmetry_space_group_name_H-M "C 2/C"
_symmetry_group_IT_number 15
_symmetry_cell_setting 'monoclinic'
loop_
_space_group_symop_operation_xyz
x,y,z
-x,y,1/2-z
-x,-y,-z
x,-y,1/2+z
1/2+x,1/2+y,z
1/2-x,1/2+y,1/2-z
1/2-x,1/2-y,-z
1/2+x,1/2-y,1/2+z
loop_
_atom_site_type_symbol
_atom_site_label
_atom_site_fract_x
_atom_site_fract_y
_atom_site_fract_z
Si Si1 0.548871 0.235798 0.155543
Si Si2 0.298761 0.318601 0.783336
Si Si3 0.031099 0.053199 0.641961
Si Si4 0.500000 0.050882 0.750000
Si Si5 0.484662 0.796753 0.071078
Si Si6 0.240719 0.496374 0.869076
Si Si7 0.856089 0.109512 0.077082
O O1 0.500000 0.213408 0.250000
O O2 0.683328 0.234201 0.214778
O O3 0.502715 0.338823 0.102141
O O4 0.515169 0.170563 0.047444
O O5 0.399998 0.250939 0.849544
O O6 0.276154 0.386888 0.873059
O O7 0.334389 0.376766 0.691666
O O8 0.162534 0.043803 0.666392
O O9 0.000000 0.053767 0.750000
O O10 0.960246 0.960466 0.582394
O O11 0.528262 0.117295 0.856486
O O12 0.616996 0.997696 0.776818
O O13 0.388335 0.715625 0.051541
O O14 0.256961 0.553538 0.982212
#
# Coordination Sequence:
#
# PCOD9301331 Si02
#       7
#     8   8   8   4   8   8   8
#     4  11  27  44  68 101 148 188 233 292 362 426
#     4  12  25  46  72 105 144 186 240 299 353 427
#     4  11  20  41  69 102 132 174 233 297 346 401
#     4  12  28  44  68 108 144 188 232 290 370 440
#     4  12  23  45  75 104 139 185 247 295 353 420
#     4  12  25  43  69 101 146 183 233 292 361 422
#     4  12  22  43  75 108 132 184 248 308 344 411
#
# _framework density 23.931211999999999
#
# number of rings (size 3 to 8) (size 9 to 14) (size 15 to 20)
#    0.000    0.308    6.154    3.231    1.077    1.846 
#    2.769    1.538    0.000    0.000    0.000    0.000 
#    0.000    0.000    0.000    0.000    0.000    0.000 
#
# Total GULP energy -145258.978162 kJ/mol
# GULP energy per Si atom -5586.883775 kJ/mol
# Density = 2.387674 g / cm^3
# Si number density = 23.931212 Si / 1000 Ang^3
#
#
#
# Elastic Constant Matrix: (Units=GPa)
#
#
# Indices 1 2 3 4 5 6 
#
# 1 114.5608 20.6656 49.4746 0.0000 24.2949 0.0000
# 2 20.6656 41.0278 -3.6588 0.0000 8.0184 0.0000
# 3 49.4746 -3.6588 115.5819 0.0000 -0.1109 0.0000
# 4 0.0000 0.0000 0.0000 11.5660 0.0000 15.0096
# 5 24.2949 8.0184 -0.1109 0.0000 42.1431 0.0000
# 6 0.0000 0.0000 0.0000 15.0096 0.0000 23.6677
#
#
#
# Elastic Compliance Matrix: (Units=1/GPa)
#
#
# Indices 1 2 3 4 5 6 
#
# 1 0.013995 -0.006254 -0.006195 0.000000 -0.006894 0.000000
# 2 -0.006254 0.028184 0.003568 0.000000 -0.001748 0.000000
# 3 -0.006195 0.003568 0.011419 0.000000 0.002923 0.000000
# 4 0.000000 0.000000 0.000000 0.488471 0.000000 -0.309779
# 5 -0.006894 -0.001748 0.002923 0.000000 0.028043 0.000000
# 6 0.000000 0.000000 0.000000 -0.309779 0.000000 0.238708
#
#
# Mechanical properties :
#
#
# Convention : Reuss Voigt Hill
#
# Bulk Modulus (GPa) = 27.90609 44.90371 36.40490
# Shear Modulus (GPa) = 5.96284 29.12129 17.54206
#
# Velocity S-wave (km/s) = 1.58021 3.49216 2.71037
# Velocity P-wave (km/s) = 3.87501 5.92154 5.00401
#
# Compressibility (1/GPa) = 0.03583447
#
# Stress axis : x y z
#
# Youngs Moduli (GPa) = 71.45644 35.48164 87.57077
#
# Poissons Ratio (x) = 0.22191 0.54249
# Poissons Ratio (y) = 0.44690 -0.31241
# Poissons Ratio (z) = 0.44267 -0.12658
#
# Static dielectric constant tensor:
#      x y z
#    x 1.971960 0.000000 -0.009720 
#    y 0.000000 1.979040 0.000000 
#    z -0.009720 0.000000 1.963750 
# 
# From -- ./inp_files/144325.got.cif
#   From: 2010.05.17/outbox.cif.g08.bks.cpg/sg15_73_cif.got.tgz:144325.got - 2010.06.03 18:47:42.
