data_PCOD9301350
_publ_section_title
;
Structure prediction by ZEFSAII (Michael W. Deem and Ramdas Pophale) SiO2 
 PCOD9301350
Probable space group: C 2/C
;
_chemical_formula_sum "Si O2"
_cell_formula_units_Z 60
_cell_length_a 25.318709
_cell_length_b 17.969459
_cell_length_c 8.185385
_cell_angle_alpha 90.000000
_cell_angle_beta 45.143881
_cell_angle_gamma 90.000000
_cell_volume 2639.906454
_symmetry_space_group_name_H-M "C 2/C"
_symmetry_group_IT_number 15
_symmetry_cell_setting 'monoclinic'
loop_
_space_group_symop_operation_xyz
x,y,z
-x,y,1/2-z
-x,-y,-z
x,-y,1/2+z
1/2+x,1/2+y,z
1/2-x,1/2+y,1/2-z
1/2-x,1/2-y,-z
1/2+x,1/2-y,1/2+z
loop_
_atom_site_type_symbol
_atom_site_label
_atom_site_fract_x
_atom_site_fract_y
_atom_site_fract_z
Si Si1 0.279111 0.693271 0.301773
Si Si2 0.190560 0.206551 0.786837
Si Si3 0.726008 0.953413 0.798324
Si Si4 0.830151 0.601534 0.408034
Si Si5 0.390772 0.464154 0.291245
Si Si6 0.920947 0.891548 0.875148
Si Si7 0.500000 0.645100 0.750000
Si Si8 0.407407 0.751949 0.806195
O O1 0.250000 0.750000 0.500000
O O2 0.229087 0.718613 0.256153
O O3 0.254914 0.607466 0.369618
O O4 0.361183 0.717276 0.061752
O O5 0.256439 0.150216 0.604861
O O6 0.136082 0.221677 0.756716
O O7 0.139907 0.169015 0.036039
O O8 0.671049 0.920557 0.779670
O O9 0.804814 0.970412 0.534971
O O10 0.685406 0.024822 0.962301
O O11 0.896097 0.658620 0.320527
O O12 0.426512 0.545991 0.225607
O O13 0.437224 0.412375 0.316116
O O14 0.394175 0.433381 0.099944
O O15 0.000000 0.859538 0.750000
O O16 0.486493 0.709902 0.639033
#
# Coordination Sequence:
#
# PCOD9301350 Si02
#       8
#     8   8   8   8   8   8   4   8
#     4  11  23  36  61  93 125 154 208 271 312 368
#     4  11  20  42  59  82 128 171 201 256 310 381
#     4  12  21  40  62  93 124 156 209 262 318 372
#     4  11  22  37  65  89 123 160 209 260 318 373
#     4  12  23  37  55  91 127 167 199 252 301 375
#     4  12  24  36  55  87 131 170 204 238 306 384
#     4  12  22  38  70  82 122 172 220 242 296 392
#     4  11  22  43  62  87 121 175 211 249 320 375
#
# _framework density 22.728078
#
# number of rings (size 3 to 8) (size 9 to 14) (size 15 to 20)
#    0.000    0.533    8.667    1.200    3.733    2.133 
#    0.000    0.000    0.000    0.800    1.733    0.000 
#    0.000    0.000    0.000    0.000    0.000    0.000 
#
# Total GULP energy -167305.371092 kJ/mol
# GULP energy per Si atom -5576.845703 kJ/mol
# Density = 2.267635 g / cm^3
# Si number density = 22.728078 Si / 1000 Ang^3
#
#
#
# Elastic Constant Matrix: (Units=GPa)
#
#
# Indices 1 2 3 4 5 6 
#
# 1 67.2752 7.7852 -5.6653 0.0000 -6.7067 0.0000
# 2 7.7852 135.0917 18.1147 0.0000 0.8268 0.0000
# 3 -5.6653 18.1147 50.0811 0.0000 8.0399 0.0000
# 4 0.0000 0.0000 0.0000 30.7708 0.0000 4.0665
# 5 -6.7067 0.8268 8.0399 0.0000 28.1699 0.0000
# 6 0.0000 0.0000 0.0000 4.0665 0.0000 42.4955
#
#
#
# Elastic Compliance Matrix: (Units=1/GPa)
#
#
# Indices 1 2 3 4 5 6 
#
# 1 0.015456 -0.001130 0.001636 0.000000 0.003246 0.000000
# 2 -0.001130 0.007872 -0.003034 0.000000 0.000366 0.000000
# 3 0.001636 -0.003034 0.022190 0.000000 -0.005855 0.000000
# 4 0.000000 0.000000 0.000000 0.032915 0.000000 -0.003150
# 5 0.003246 0.000366 -0.005855 0.000000 0.037932 0.000000
# 6 0.000000 0.000000 0.000000 -0.003150 0.000000 0.023833
#
#
# Mechanical properties :
#
#
# Convention : Reuss Voigt Hill
#
# Bulk Modulus (GPa) = 24.71404 32.54634 28.63019
# Shear Modulus (GPa) = 31.49774 35.76815 33.63295
#
# Velocity S-wave (km/s) = 3.72674 3.97135 3.85099
# Velocity P-wave (km/s) = 5.42361 5.94809 5.69189
#
# Compressibility (1/GPa) = 0.04046283
#
# Stress axis : x y z
#
# Youngs Moduli (GPa) = 64.69787 127.03108 45.06540
#
# Poissons Ratio (x) = 0.14354 -0.07373
# Poissons Ratio (y) = 0.07311 0.13673
# Poissons Ratio (z) = -0.10585 0.38541
#
# Static dielectric constant tensor:
#      x y z
#    x 1.934780 0.000000 0.025700 
#    y 0.000000 1.920180 0.000000 
#    z 0.025700 0.000000 1.980020 
# 
# From -- ./inp_files/67018.got.cif
#   From: 2010.05.17/outbox.cif.g08.bks.cpg/sg15_34_cif.got.tgz:67018.got - 2010.06.03 18:47:42.
