data_PCOD9301915
_publ_section_title
;
Structure prediction by ZEFSAII (Michael W. Deem and Ramdas Pophale) SiO2 
 PCOD9301915
Probable space group: C 2/C
;
_chemical_formula_sum "Si O2"
_cell_formula_units_Z 36
_cell_length_a 7.267728
_cell_length_b 22.843482
_cell_length_c 11.232016
_cell_angle_alpha 90.000000
_cell_angle_beta 68.930447
_cell_angle_gamma 90.000000
_cell_volume 1740.073842
_symmetry_space_group_name_H-M "C 2/C"
_symmetry_group_IT_number 15
_symmetry_cell_setting 'monoclinic'
loop_
_space_group_symop_operation_xyz
x,y,z
-x,y,1/2-z
-x,-y,-z
x,-y,1/2+z
1/2+x,1/2+y,z
1/2-x,1/2+y,1/2-z
1/2-x,1/2-y,-z
1/2+x,1/2-y,1/2+z
loop_
_atom_site_type_symbol
_atom_site_label
_atom_site_fract_x
_atom_site_fract_y
_atom_site_fract_z
Si Si1 0.500000 0.674994 0.250000
Si Si2 0.803693 0.072726 0.447515
Si Si3 0.422886 0.911569 0.896039
Si Si4 0.980343 0.947263 0.385565
Si Si5 0.680091 0.221009 0.138952
O O1 0.381599 0.630954 0.364762
O O2 0.353599 0.710209 0.196080
O O3 0.582163 0.067248 0.454217
O O4 0.830350 0.071801 0.582754
O O5 0.938547 0.016697 0.383058
O O6 0.500000 0.934994 0.750000
O O7 0.407839 0.841831 0.881761
O O8 0.207819 0.927843 0.992929
O O9 0.000000 0.922078 0.250000
O O10 0.500000 0.252309 0.250000
O O11 0.750000 0.250000 0.000000
#
# Coordination Sequence:
#
# PCOD9301915 Si02
#       5
#     4   8   8   8   8
#     4  12  20  46  74  90 132 180 212 260 352 394
#     4  11  21  40  66  93 135 180 212 253 334 388
#     4  11  22  42  66  94 133 175 216 264 326 397
#     4  11  24  37  63 101 135 172 221 263 302 388
#     4  11  25  45  72  99 124 169 228 281 333 396
#
# _framework density 20.688777999999999
#
# number of rings (size 3 to 8) (size 9 to 14) (size 15 to 20)
#    0.000    0.889    7.778    0.667    3.111    2.667 
#    0.000    0.000    0.000    0.000    0.000    0.000 
#    0.000    0.000    0.000    0.000    0.000    0.000 
#
# Total GULP energy -100389.046563 kJ/mol
# GULP energy per Si atom -5577.169253 kJ/mol
# Density = 2.064169 g / cm^3
# Si number density = 20.688778 Si / 1000 Ang^3
#
#
#
# Elastic Constant Matrix: (Units=GPa)
#
#
# Indices 1 2 3 4 5 6 
#
# 1 118.9497 35.2444 35.4343 0.0000 22.2561 0.0000
# 2 35.2444 42.6660 49.5487 0.0000 9.9167 0.0000
# 3 35.4343 49.5487 143.3865 0.0000 3.5044 0.0000
# 4 0.0000 0.0000 0.0000 15.9263 0.0000 1.0401
# 5 22.2561 9.9167 3.5044 0.0000 42.7030 0.0000
# 6 0.0000 0.0000 0.0000 1.0401 0.0000 17.7981
#
#
#
# Elastic Compliance Matrix: (Units=1/GPa)
#
#
# Indices 1 2 3 4 5 6 
#
# 1 0.011785 -0.009239 0.000379 0.000000 -0.004028 0.000000
# 2 -0.009239 0.049320 -0.014627 0.000000 -0.005438 0.000000
# 3 0.000379 -0.014627 0.011881 0.000000 0.002224 0.000000
# 4 0.000000 0.000000 0.000000 0.063030 0.000000 -0.003683
# 5 -0.004028 -0.005438 0.002224 0.000000 0.026597 0.000000
# 6 0.000000 0.000000 0.000000 -0.003683 0.000000 0.056401
#
#
# Mechanical properties :
#
#
# Convention : Reuss Voigt Hill
#
# Bulk Modulus (GPa) = 38.44423 60.60635 49.52529
# Shear Modulus (GPa) = 18.20441 27.60379 22.90410
#
# Velocity S-wave (km/s) = 2.96956 3.65669 3.33089
# Velocity P-wave (km/s) = 5.51182 6.86924 6.22762
#
# Compressibility (1/GPa) = 0.02601171
#
# Stress axis : x y z
#
# Youngs Moduli (GPa) = 84.85254 20.27573 84.16955
#
# Poissons Ratio (x) = 0.18732 -0.03186
# Poissons Ratio (y) = 0.78392 1.23115
# Poissons Ratio (z) = -0.03212 0.29657
#
# Static dielectric constant tensor:
#      x y z
#    x 1.777770 0.000000 -0.005200 
#    y 0.000000 1.791070 0.000000 
#    z -0.005200 0.000000 1.803650 
# 
# From -- ./inp_files/24365.got.cif
#   From: 2010.05.17/outbox.cif.g08.bks.cpg/sg15_13_cif.got.tgz:24365.got - 2010.06.03 18:47:42.
