data_PCOD9301411
_publ_section_title
;
Structure prediction by ZEFSAII (Michael W. Deem and Ramdas Pophale) SiO2 
 PCOD9301411
Probable space group: C 2/C
;
_chemical_formula_sum "Si O2"
_cell_formula_units_Z 40
_cell_length_a 26.711320
_cell_length_b 9.384489
_cell_length_c 17.581435
_cell_angle_alpha 90.000000
_cell_angle_beta 25.194004
_cell_angle_gamma 90.000000
_cell_volume 1876.066538
_symmetry_space_group_name_H-M "C 2/C"
_symmetry_group_IT_number 15
_symmetry_cell_setting 'monoclinic'
loop_
_space_group_symop_operation_xyz
x,y,z
-x,y,1/2-z
-x,-y,-z
x,-y,1/2+z
1/2+x,1/2+y,z
1/2-x,1/2+y,1/2-z
1/2-x,1/2-y,-z
1/2+x,1/2-y,1/2+z
loop_
_atom_site_type_symbol
_atom_site_label
_atom_site_fract_x
_atom_site_fract_y
_atom_site_fract_z
Si Si1 0.309256 0.274692 0.243862
Si Si2 0.968106 0.104073 0.643655
Si Si3 0.784541 0.909975 0.972540
Si Si4 0.214188 0.012637 0.855749
Si Si5 0.385413 0.863129 0.864240
O O1 0.427231 0.344816 0.116547
O O2 0.316130 0.106213 0.220163
O O3 0.267909 0.357447 0.225883
O O4 0.210313 0.303424 0.444359
O O5 0.926791 0.232132 0.755652
O O6 0.102919 0.072698 0.474520
O O7 0.893531 0.966817 0.772746
O O8 0.750000 0.750000 0.000000
O O9 0.811547 0.931588 0.024331
O O10 0.678017 0.015604 0.096894
O O11 0.500000 0.919074 0.750000
#
# Coordination Sequence:
#
# PCOD9301411 Si02
#       5
#     8   8   8   8   8
#     4  11  24  40  66 100 131 168 217 274 331 388
#     4  11  21  46  71  91 123 186 225 260 326 409
#     4  11  24  41  66  96 131 169 228 275 317 392
#     4  12  24  43  66  99 138 171 214 278 339 388
#     4  11  20  43  72  91 121 178 228 258 320 404
#
# _framework density 21.321206
#
# number of rings (size 3 to 8) (size 9 to 14) (size 15 to 20)
#    0.000    0.800    6.000    2.400    5.600    1.600 
#    0.000    2.000    0.000    0.000    0.000    0.000 
#    0.000    0.000    0.000    0.000    0.000    0.000 
#
# Total GULP energy -111907.228414 kJ/mol
# GULP energy per Si atom -5595.361421 kJ/mol
# Density = 2.127268 g / cm^3
# Si number density = 21.321206 Si / 1000 Ang^3
#
#
#
# Elastic Constant Matrix: (Units=GPa)
#
#
# Indices 1 2 3 4 5 6 
#
# 1 115.9251 14.7396 7.7214 0.0000 0.0278 0.0000
# 2 14.7396 98.1400 6.9187 -0.0001 6.6566 0.0000
# 3 7.7214 6.9187 22.2148 0.0000 -5.4106 0.0000
# 4 0.0000 -0.0001 0.0000 18.8916 0.0000 8.8595
# 5 0.0278 6.6566 -5.4106 0.0000 32.2357 0.0000
# 6 0.0000 0.0000 0.0000 8.8595 0.0000 33.0899
#
#
#
# Elastic Compliance Matrix: (Units=1/GPa)
#
#
# Indices 1 2 3 4 5 6 
#
# 1 0.008958 -0.001130 -0.002822 0.000000 -0.000248 0.000000
# 2 -0.001130 0.010811 -0.003668 0.000000 -0.002847 0.000000
# 3 -0.002822 -0.003668 0.049340 0.000000 0.009041 0.000000
# 4 0.000000 0.000000 0.000000 0.060534 0.000000 -0.016208
# 5 -0.000248 -0.002847 0.009041 0.000000 0.033127 0.000000
# 6 0.000000 0.000000 0.000000 -0.016208 0.000000 0.034560
#
#
# Mechanical properties :
#
#
# Convention : Reuss Voigt Hill
#
# Bulk Modulus (GPa) = 18.56324 32.78214 25.67269
# Shear Modulus (GPa) = 21.68947 30.63679 26.16313
#
# Velocity S-wave (km/s) = 3.19293 3.79478 3.50679
# Velocity P-wave (km/s) = 4.72424 5.88296 5.33515
#
# Compressibility (1/GPa) = 0.05386990
#
# Stress axis : x y z
#
# Youngs Moduli (GPa) = 111.63305 92.49960 20.26742
#
# Poissons Ratio (x) = 0.10449 0.05720
# Poissons Ratio (y) = 0.12610 0.07434
# Poissons Ratio (z) = 0.31505 0.33927
#
# Static dielectric constant tensor:
#      x y z
#    x 1.810390 0.000000 -0.022600 
#    y 0.000000 1.769180 0.000000 
#    z -0.022600 0.000000 1.755590 
# 
# From -- ./inp_files/150548.got.cif
#   From: 2010.05.17/outbox.cif.g08.bks.cpg/sg15_76_cif.got.tgz:150548.got - 2010.06.03 18:47:42.
