data_PCOD9301896
_publ_section_title
;
Structure prediction by ZEFSAII (Michael W. Deem and Ramdas Pophale) SiO2 
 PCOD9301896
Probable space group: C 2/C
;
_chemical_formula_sum "Si O2"
_cell_formula_units_Z 52
_cell_length_a 16.095050
_cell_length_b 9.492802
_cell_length_c 17.442444
_cell_angle_alpha 90.000000
_cell_angle_beta 114.940346
_cell_angle_gamma 90.000000
_cell_volume 2416.464198
_symmetry_space_group_name_H-M "C 2/C"
_symmetry_group_IT_number 15
_symmetry_cell_setting 'monoclinic'
loop_
_space_group_symop_operation_xyz
x,y,z
-x,y,1/2-z
-x,-y,-z
x,-y,1/2+z
1/2+x,1/2+y,z
1/2-x,1/2+y,1/2-z
1/2-x,1/2-y,-z
1/2+x,1/2-y,1/2+z
loop_
_atom_site_type_symbol
_atom_site_label
_atom_site_fract_x
_atom_site_fract_y
_atom_site_fract_z
Si Si1 0.836377 0.732494 0.425014
Si Si2 0.000000 0.125342 0.750000
Si Si3 0.757779 0.859631 0.754885
Si Si4 0.805317 0.528791 0.008087
Si Si5 0.646545 0.436086 0.562872
Si Si6 0.477118 0.778484 0.579635
Si Si7 0.801299 0.108587 0.684907
O O1 0.751608 0.713930 0.332362
O O2 0.814880 0.636597 0.490476
O O3 0.927042 0.671147 0.418718
O O4 0.864909 0.895145 0.443849
O O5 0.009517 0.215577 0.830814
O O6 0.096944 0.044703 0.781698
O O7 0.842905 0.874937 0.846946
O O8 0.690082 0.765846 0.779835
O O9 0.742840 0.021006 0.724422
O O10 0.751783 0.596096 0.914784
O O11 0.743502 0.570544 0.055959
O O12 0.904177 0.596739 0.053254
O O13 0.571015 0.346366 0.488715
#
# Coordination Sequence:
#
# PCOD9301896 Si02
#       7
#     8   4   8   8   8   8   8
#     4  11  25  41  62  92 130 159 200 255 309 362
#     4  12  22  40  62  96 118 160 212 260 292 360
#     4  11  21  40  64  90 121 167 202 246 308 369
#     4  11  24  41  63  92 124 161 202 257 306 363
#     4  12  22  41  66  91 119 167 208 247 305 365
#     4  12  23  39  66  90 124 162 210 252 300 362
#     4  11  22  41  63  89 125 161 205 252 306 362
#
# _framework density 21.519043
#
# number of rings (size 3 to 8) (size 9 to 14) (size 15 to 20)
#    0.000    0.615    6.154    2.769    0.000    0.000 
#    0.000    0.000    0.000    1.846    0.000    0.000 
#    0.000    0.000    0.000    0.000    0.000    0.000 
#
# Total GULP energy -144903.765780 kJ/mol
# GULP energy per Si atom -5573.221761 kJ/mol
# Density = 2.147006 g / cm^3
# Si number density = 21.519043 Si / 1000 Ang^3
#
#
#
# Elastic Constant Matrix: (Units=GPa)
#
#
# Indices 1 2 3 4 5 6 
#
# 1 69.1083 25.4148 0.7662 0.0000 6.9720 0.0000
# 2 25.4148 74.6570 18.6553 0.0000 7.4178 0.0000
# 3 0.7662 18.6553 78.2535 0.0000 3.9210 0.0000
# 4 0.0000 0.0000 0.0000 6.2781 0.0000 -6.1771
# 5 6.9720 7.4178 3.9210 0.0000 22.8555 0.0000
# 6 0.0000 0.0000 0.0000 -6.1771 0.0000 24.0622
#
#
#
# Elastic Compliance Matrix: (Units=1/GPa)
#
#
# Indices 1 2 3 4 5 6 
#
# 1 0.016928 -0.005758 0.001384 0.000000 -0.003533 0.000000
# 2 -0.005758 0.016588 -0.003749 0.000000 -0.002984 0.000000
# 3 0.001384 -0.003749 0.013737 0.000000 -0.001562 0.000000
# 4 0.000000 0.000000 0.000000 0.213110 0.000000 0.054708
# 5 -0.003533 -0.002984 -0.001562 0.000000 0.046067 0.000000
# 6 0.000000 0.000000 0.000000 0.054708 0.000000 0.055603
#
#
# Mechanical properties :
#
#
# Convention : Reuss Voigt Hill
#
# Bulk Modulus (GPa) = 32.24870 34.63237 33.44054
# Shear Modulus (GPa) = 12.86619 22.45135 17.65877
#
# Velocity S-wave (km/s) = 2.44785 3.23356 2.86774
# Velocity P-wave (km/s) = 4.79666 5.48361 5.15160
#
# Compressibility (1/GPa) = 0.03100901
#
# Stress axis : x y z
#
# Youngs Moduli (GPa) = 59.07205 60.28534 72.79427
#
# Poissons Ratio (x) = 0.34710 -0.10074
# Poissons Ratio (y) = 0.34011 0.27287
# Poissons Ratio (z) = -0.08175 0.22598
#
# Static dielectric constant tensor:
#      x y z
#    x 1.807360 0.000000 -0.010740 
#    y 0.000000 1.834580 0.000000 
#    z -0.010740 0.000000 1.782420 
# 
# From -- ./inp_files/209446.got.cif
#   From: 2010.05.17/outbox.cif.g08.bks.cpg/sg15_105_cif.got.tgz:209446.got - 2010.06.03 18:47:42.
