data_PCOD9301523
_publ_section_title
;
Structure prediction by ZEFSAII (Michael W. Deem and Ramdas Pophale) SiO2 
 PCOD9301523
Probable space group: C 2/C
;
_chemical_formula_sum "Si O2"
_cell_formula_units_Z 64
_cell_length_a 11.860391
_cell_length_b 22.171809
_cell_length_c 12.661123
_cell_angle_alpha 90.000000
_cell_angle_beta 110.091787
_cell_angle_gamma 90.000000
_cell_volume 3126.830374
_symmetry_space_group_name_H-M "C 2/C"
_symmetry_group_IT_number 15
_symmetry_cell_setting 'monoclinic'
loop_
_space_group_symop_operation_xyz
x,y,z
-x,y,1/2-z
-x,-y,-z
x,-y,1/2+z
1/2+x,1/2+y,z
1/2-x,1/2+y,1/2-z
1/2-x,1/2-y,-z
1/2+x,1/2-y,1/2+z
loop_
_atom_site_type_symbol
_atom_site_label
_atom_site_fract_x
_atom_site_fract_y
_atom_site_fract_z
Si Si1 0.865182 0.385745 0.169644
Si Si2 0.387418 0.177033 0.274462
Si Si3 0.502549 0.362517 0.122636
Si Si4 0.663915 0.476079 0.186029
Si Si5 0.452424 0.907207 0.979665
Si Si6 0.210839 0.775977 0.104622
Si Si7 0.681401 0.031763 0.573596
Si Si8 0.289250 0.593142 0.416345
O O1 0.780137 0.440978 0.175043
O O2 0.810668 0.321537 0.183515
O O3 0.000000 0.395466 0.250000
O O4 0.869154 0.381420 0.044057
O O5 0.500000 0.206924 0.250000
O O6 0.452519 0.131844 0.376092
O O7 0.310984 0.221587 0.322103
O O8 0.298208 0.138179 0.173439
O O9 0.500000 0.349548 0.250000
O O10 0.557288 0.430026 0.130009
O O11 0.588802 0.316922 0.082921
O O12 0.375453 0.368744 0.021981
O O13 0.698794 0.473692 0.320455
O O14 0.647703 0.544458 0.141584
O O15 0.393016 0.971123 0.933173
O O16 0.585951 0.915831 0.068793
O O17 0.250000 0.750000 0.000000
O O18 0.713660 0.047591 0.465236
#
# Coordination Sequence:
#
# PCOD9301523 Si02
#       8
#     8   8   8   8   8   8   8   8
#     4  11  22  38  67  94 128 170 221 266 336 397
#     4  12  25  44  66  99 132 172 226 290 338 391
#     4  11  25  46  69  95 134 181 225 273 334 410
#     4  11  22  39  65  99 137 175 214 264 330 411
#     4  11  21  36  64 101 134 171 214 271 336 404
#     4  11  26  47  70  90 129 174 231 288 333 391
#     4  11  21  35  65 102 139 173 210 267 338 415
#     4  12  24  41  67 102 137 179 219 271 341 408
#
# _framework density 20.468011000000001
#
# number of rings (size 3 to 8) (size 9 to 14) (size 15 to 20)
#    0.000    0.750    7.500    0.750    0.000    1.500 
#    0.000    1.250    0.000    0.000    0.000    0.000 
#    0.000    0.000    0.000    0.000    0.000    0.000 
#
# Total GULP energy -178318.557896 kJ/mol
# GULP energy per Si atom -5572.454934 kJ/mol
# Density = 2.042143 g / cm^3
# Si number density = 20.468011 Si / 1000 Ang^3
#
#
#
# Elastic Constant Matrix: (Units=GPa)
#
#
# Indices 1 2 3 4 5 6 
#
# 1 51.9660 16.9171 20.2485 0.0000 -13.3238 0.0000
# 2 16.9171 76.5351 32.4387 0.0000 -7.2900 0.0000
# 3 20.2485 32.4387 91.5060 0.0000 -7.1020 0.0000
# 4 0.0000 0.0000 0.0000 12.3523 0.0000 -8.7914
# 5 -13.3238 -7.2900 -7.1020 0.0000 28.8169 0.0000
# 6 0.0000 0.0000 0.0000 -8.7914 0.0000 22.8314
#
#
#
# Elastic Compliance Matrix: (Units=1/GPa)
#
#
# Indices 1 2 3 4 5 6 
#
# 1 0.024002 -0.002898 -0.003547 0.000000 0.009490 0.000000
# 2 -0.002898 0.015919 -0.004887 0.000000 0.001483 0.000000
# 3 -0.003547 -0.004887 0.013480 0.000000 0.000446 0.000000
# 4 0.000000 0.000000 0.000000 0.111518 0.000000 0.042941
# 5 0.009490 0.001483 0.000446 0.000000 0.039575 0.000000
# 6 0.000000 0.000000 0.000000 0.042941 0.000000 0.060334
#
#
# Mechanical properties :
#
#
# Convention : Reuss Voigt Hill
#
# Bulk Modulus (GPa) = 32.53403 39.91286 36.22345
# Shear Modulus (GPa) = 16.79326 22.82696 19.81011
#
# Velocity S-wave (km/s) = 2.86748 3.34316 3.11442
# Velocity P-wave (km/s) = 5.18583 5.86896 5.53794
#
# Compressibility (1/GPa) = 0.03073704
#
# Stress axis : x y z
#
# Youngs Moduli (GPa) = 41.66283 62.81816 74.18288
#
# Poissons Ratio (x) = 0.18204 0.26315
# Poissons Ratio (y) = 0.12074 0.36252
# Poissons Ratio (z) = 0.14779 0.30699
#
# Static dielectric constant tensor:
#      x y z
#    x 1.837540 0.000000 -0.101170 
#    y 0.000000 1.737860 0.000000 
#    z -0.101170 0.000000 1.826810 
# 
# From -- ./inp_files/90846.got.cif
#   From: 2010.05.17/outbox.cif.g08.bks.cpg/sg15_46_cif.got.tgz:90846.got - 2010.06.03 18:47:42.
