data_PCOD9301042
_publ_section_title
;
Structure prediction by ZEFSAII (Michael W. Deem and Ramdas Pophale) SiO2 
 PCOD9301042
Probable space group: C 2/C
;
_chemical_formula_sum "Si O2"
_cell_formula_units_Z 48
_cell_length_a 18.253282
_cell_length_b 17.113223
_cell_length_c 14.563609
_cell_angle_alpha 90.000000
_cell_angle_beta 148.968147
_cell_angle_gamma 90.000000
_cell_volume 2345.215161
_symmetry_space_group_name_H-M "C 2/C"
_symmetry_group_IT_number 15
_symmetry_cell_setting 'monoclinic'
loop_
_space_group_symop_operation_xyz
x,y,z
-x,y,1/2-z
-x,-y,-z
x,-y,1/2+z
1/2+x,1/2+y,z
1/2-x,1/2+y,1/2-z
1/2-x,1/2-y,-z
1/2+x,1/2-y,1/2+z
loop_
_atom_site_type_symbol
_atom_site_label
_atom_site_fract_x
_atom_site_fract_y
_atom_site_fract_z
Si Si1 0.680886 0.639793 0.048118
Si Si2 0.661327 0.492256 0.903534
Si Si3 0.533818 0.231556 0.182040
Si Si4 0.666594 0.483858 0.694033
Si Si5 0.424374 0.902410 0.456481
Si Si6 0.061383 0.457945 0.214747
O O1 0.805481 0.704398 0.168406
O O2 0.701916 0.586635 0.161646
O O3 0.682801 0.581959 0.961658
O O4 0.526316 0.680689 0.889915
O O5 0.500000 0.471834 0.750000
O O6 0.690528 0.473596 0.828814
O O7 0.772124 0.448680 0.087352
O O8 0.500000 0.207716 0.250000
O O9 0.432851 0.182106 0.006985
O O10 0.500000 0.500000 0.500000
O O11 0.771756 0.556242 0.786754
O O12 0.485562 0.903281 0.419061
O O13 0.516442 0.957713 0.624214
O O14 0.000000 0.449313 0.250000
#
# Coordination Sequence:
#
# PCOD9301042 Si02
#       6
#     8   8   8   8   8   8
#     4  12  26  45  64 105 134 185 219 275 350 404
#     4  12  22  40  64  97 129 166 225 279 335 383
#     4  12  26  42  67  96 147 181 216 272 349 421
#     4  12  24  40  69  95 134 176 231 288 326 392
#     4  11  21  39  64  99 126 170 230 273 333 392
#     4  11  20  36  65  94 127 164 222 284 324 381
#
# _framework density 20.467205
#
# number of rings (size 3 to 8) (size 9 to 14) (size 15 to 20)
#    0.000    0.333    6.667    3.500    2.333    0.000 
#    0.000    0.000    0.000    2.000    0.000    0.000 
#    0.000    0.000    0.000    0.000    0.000    0.000 
#
# Total GULP energy -133913.866092 kJ/mol
# GULP energy per Si atom -5579.744420 kJ/mol
# Density = 2.042062 g / cm^3
# Si number density = 20.467205 Si / 1000 Ang^3
#
#
#
# Elastic Constant Matrix: (Units=GPa)
#
#
# Indices 1 2 3 4 5 6 
#
# 1 130.5388 27.0344 57.3373 0.0000 -24.1168 0.0000
# 2 27.0344 45.5968 19.4478 0.0000 -17.2374 0.0000
# 3 57.3373 19.4478 133.5206 0.0000 -6.2347 0.0000
# 4 0.0000 0.0000 0.0000 34.7236 0.0000 -1.3957
# 5 -24.1168 -17.2374 -6.2347 0.0000 54.3574 0.0000
# 6 0.0000 0.0000 0.0000 -1.3957 0.0000 25.8437
#
#
#
# Elastic Compliance Matrix: (Units=1/GPa)
#
#
# Indices 1 2 3 4 5 6 
#
# 1 0.010698 -0.003452 -0.003942 0.000000 0.003200 0.000000
# 2 -0.003452 0.027546 -0.002205 0.000000 0.006951 0.000000
# 3 -0.003942 -0.002205 0.009440 0.000000 -0.001365 0.000000
# 4 0.000000 0.000000 0.000000 0.028862 0.000000 0.001559
# 5 0.003200 0.006951 -0.001365 0.000000 0.021864 0.000000
# 6 0.000000 0.000000 0.000000 0.001559 0.000000 0.038778
#
#
# Mechanical properties :
#
#
# Convention : Reuss Voigt Hill
#
# Bulk Modulus (GPa) = 35.10525 57.47724 46.29124
# Shear Modulus (GPa) = 30.14206 36.70738 33.42472
#
# Velocity S-wave (km/s) = 3.84174 4.23954 4.04553
# Velocity P-wave (km/s) = 6.07189 7.21862 6.66994
#
# Compressibility (1/GPa) = 0.02848577
#
# Stress axis : x y z
#
# Youngs Moduli (GPa) = 93.47573 36.30246 105.93626
#
# Poissons Ratio (x) = 0.12532 0.41758
# Poissons Ratio (y) = 0.32268 0.23362
# Poissons Ratio (z) = 0.36846 0.08006
#
# Static dielectric constant tensor:
#      x y z
#    x 1.809590 0.000000 0.046000 
#    y 0.000000 1.770600 0.000000 
#    z 0.046000 0.000000 1.769680 
# 
# From -- ./inp_files/168917.got.cif
#   From: 2010.05.17/outbox.cif.g08.bks.cpg/sg15_85_cif.got.tgz:168917.got - 2010.06.03 18:47:42.
