data_PCOD9301674
_publ_section_title
;
Structure prediction by ZEFSAII (Michael W. Deem and Ramdas Pophale) SiO2 
 PCOD9301674
Probable space group: C 2/C
;
_chemical_formula_sum "Si O2"
_cell_formula_units_Z 60
_cell_length_a 20.600652
_cell_length_b 20.018844
_cell_length_c 14.668571
_cell_angle_alpha 90.000000
_cell_angle_beta 32.126105
_cell_angle_gamma 90.000000
_cell_volume 3216.943503
_symmetry_space_group_name_H-M "C 2/C"
_symmetry_group_IT_number 15
_symmetry_cell_setting 'monoclinic'
loop_
_space_group_symop_operation_xyz
x,y,z
-x,y,1/2-z
-x,-y,-z
x,-y,1/2+z
1/2+x,1/2+y,z
1/2-x,1/2+y,1/2-z
1/2-x,1/2-y,-z
1/2+x,1/2-y,1/2+z
loop_
_atom_site_type_symbol
_atom_site_label
_atom_site_fract_x
_atom_site_fract_y
_atom_site_fract_z
Si Si1 0.761928 0.966973 0.989447
Si Si2 0.401656 0.414178 0.646385
Si Si3 0.028818 0.175797 0.580659
Si Si4 0.437220 0.947712 0.005892
Si Si5 0.000000 0.476259 0.250000
Si Si6 0.949081 0.674730 0.212906
Si Si7 0.332956 0.539976 0.611513
Si Si8 0.189503 0.874432 0.058416
O O1 0.830631 0.932465 0.823210
O O2 0.769575 0.048528 0.978093
O O3 0.823278 0.953179 0.014101
O O4 0.620661 0.943393 0.150982
O O5 0.405452 0.342801 0.591923
O O6 0.349159 0.464821 0.631871
O O7 0.543524 0.427317 0.499570
O O8 0.106192 0.140973 0.569311
O O9 0.007675 0.253959 0.621328
O O10 0.893370 0.144690 0.756346
O O11 0.296957 0.934813 0.197218
O O12 0.443638 0.981888 0.899692
O O13 0.513957 0.879867 0.906015
O O14 0.500000 0.000000 0.000000
O O15 0.805271 0.672288 0.401756
O O16 0.000000 0.652853 0.250000
#
# Coordination Sequence:
#
# PCOD9301674 Si02
#       8
#     8   8   8   8   4   8   8   8
#     4  12  22  39  61  92 126 164 212 267 314 374
#     4  11  24  36  59  89 124 172 206 257 318 374
#     4  11  25  38  57  88 127 168 205 245 314 387
#     4  12  23  39  62  93 126 159 208 264 322 372
#     4  12  22  36  62  92 126 158 202 266 328 380
#     4  12  24  39  62  92 125 168 204 256 322 387
#     4  11  22  37  59  88 123 162 208 261 315 371
#     4  11  21  38  58  85 128 160 203 250 311 370
#
# _framework density 18.651244999999999
#
# number of rings (size 3 to 8) (size 9 to 14) (size 15 to 20)
#    0.000    0.533    7.333    2.400    3.733    0.000 
#    0.000    0.000    0.000    0.800    3.467    0.000 
#    0.000    0.000    0.000    0.000    0.000    0.000 
#
# Total GULP energy -167266.624535 kJ/mol
# GULP energy per Si atom -5575.554151 kJ/mol
# Density = 1.860879 g / cm^3
# Si number density = 18.651245 Si / 1000 Ang^3
#
#
#
# Elastic Constant Matrix: (Units=GPa)
#
#
# Indices 1 2 3 4 5 6 
#
# 1 84.3289 30.3785 52.9795 0.0002 12.4206 -0.0001
# 2 30.3785 54.7903 32.4376 0.0001 9.7789 0.0000
# 3 52.9795 32.4376 116.0530 0.0003 -0.1080 -0.0001
# 4 0.0002 0.0001 0.0003 26.5807 -0.0003 14.4364
# 5 12.4206 9.7789 -0.1080 -0.0003 41.5041 0.0001
# 6 -0.0001 0.0000 -0.0001 14.4364 0.0001 20.0868
#
#
#
# Elastic Compliance Matrix: (Units=1/GPa)
#
#
# Indices 1 2 3 4 5 6 
#
# 1 0.018966 -0.005516 -0.007121 0.000000 -0.004395 0.000000
# 2 -0.005516 0.024643 -0.004374 0.000000 -0.004167 0.000000
# 3 -0.007121 -0.004374 0.013093 0.000000 0.003195 0.000000
# 4 0.000000 0.000000 0.000000 0.061708 0.000001 -0.044350
# 5 -0.004395 -0.004167 0.003195 0.000001 0.026399 -0.000001
# 6 0.000000 0.000000 0.000000 -0.044350 -0.000001 0.081658
#
#
# Mechanical properties :
#
#
# Convention : Reuss Voigt Hill
#
# Bulk Modulus (GPa) = 44.08879 54.08482 49.08681
# Shear Modulus (GPa) = 18.65335 26.92608 22.78971
#
# Velocity S-wave (km/s) = 3.16589 3.80368 3.49934
# Velocity P-wave (km/s) = 6.08717 6.95353 6.53472
#
# Compressibility (1/GPa) = 0.02268150
#
# Stress axis : x y z
#
# Youngs Moduli (GPa) = 52.72549 40.58007 76.37752
#
# Poissons Ratio (x) = 0.22383 0.54386
# Poissons Ratio (y) = 0.29082 0.33405
# Poissons Ratio (z) = 0.37544 0.17748
#
# Static dielectric constant tensor:
#      x y z
#    x 1.735680 0.000000 -0.080200 
#    y 0.000000 1.641200 0.000000 
#    z -0.080200 0.000000 1.748280 
# 
# From -- ./inp_files/169468.got.cif
#   From: 2010.05.17/outbox.cif.g08.bks.cpg/sg15_85_cif.got.tgz:169468.got - 2010.06.03 18:47:42.
