data_PCOD9301872
_publ_section_title
;
Structure prediction by ZEFSAII (Michael W. Deem and Ramdas Pophale) SiO2 
 PCOD9301872
Probable space group: C 2/C
;
_chemical_formula_sum "Si O2"
_cell_formula_units_Z 40
_cell_length_a 13.919094
_cell_length_b 11.240953
_cell_length_c 16.439560
_cell_angle_alpha 90.000000
_cell_angle_beta 144.322599
_cell_angle_gamma 90.000000
_cell_volume 1500.159156
_symmetry_space_group_name_H-M "C 2/C"
_symmetry_group_IT_number 15
_symmetry_cell_setting 'monoclinic'
loop_
_space_group_symop_operation_xyz
x,y,z
-x,y,1/2-z
-x,-y,-z
x,-y,1/2+z
1/2+x,1/2+y,z
1/2-x,1/2+y,1/2-z
1/2-x,1/2-y,-z
1/2+x,1/2-y,1/2+z
loop_
_atom_site_type_symbol
_atom_site_label
_atom_site_fract_x
_atom_site_fract_y
_atom_site_fract_z
Si Si1 0.998858 0.490420 0.846984
Si Si2 0.993557 0.779554 0.125756
Si Si3 0.991812 0.134890 0.456704
Si Si4 0.833565 0.935276 0.150207
Si Si5 0.141370 0.727572 0.777211
O O1 0.949200 0.355207 0.829480
O O2 0.900737 0.606983 0.801783
O O3 0.000000 0.492397 0.750000
O O4 0.173275 0.500995 0.012467
O O5 0.924773 0.796775 0.989345
O O6 0.141662 0.871355 0.247220
O O7 0.866171 0.828821 0.106173
O O8 0.173664 0.194255 0.564772
O O9 0.000000 0.000000 0.500000
O O10 0.882038 0.162981 0.301876
O O11 0.000000 0.009551 0.250000
O O12 0.000000 0.735242 0.750000
#
# Coordination Sequence:
#
# PCOD9301872 Si02
#       5
#     8   8   8   8   8
#     4  11  21  39  74 107 152 196 252 310 385 477
#     4   9  22  38  71 108 156 186 266 305 394 433
#     4  12  30  52  80 114 159 203 271 334 381 467
#     4   8  20  36  66 111 152 200 245 312 393 462
#     4  11  30  53  80 110 160 215 259 313 413 477
#
# _framework density 26.663837000000001
#
# number of rings (size 3 to 8) (size 9 to 14) (size 15 to 20)
#    1.200    0.400    2.000    1.200   11.200    2.400 
#    3.600    0.000    0.000    0.000    0.000    0.000 
#    0.000    0.000    0.000    0.000    0.000    0.000 
#
# Total GULP energy -111568.398311 kJ/mol
# GULP energy per Si atom -5578.419916 kJ/mol
# Density = 2.660315 g / cm^3
# Si number density = 26.663837 Si / 1000 Ang^3
#
#
#
# Elastic Constant Matrix: (Units=GPa)
#
#
# Indices 1 2 3 4 5 6 
#
# 1 113.8417 19.4681 -2.9365 0.0000 0.0148 0.0000
# 2 19.4681 153.2688 -16.5035 0.0000 -5.0911 0.0000
# 3 -2.9365 -16.5035 114.8701 -0.0002 0.9853 -0.0001
# 4 0.0000 0.0000 -0.0002 108.3859 0.0000 -32.3529
# 5 0.0148 -5.0911 0.9853 0.0000 39.6056 0.0000
# 6 0.0000 0.0000 -0.0001 -32.3529 0.0000 24.4061
#
#
#
# Elastic Compliance Matrix: (Units=1/GPa)
#
#
# Indices 1 2 3 4 5 6 
#
# 1 0.008981 -0.001138 0.000067 0.000000 -0.000151 0.000000
# 2 -0.001138 0.006799 0.000940 0.000000 0.000851 0.000000
# 3 0.000067 0.000940 0.008843 0.000000 -0.000099 0.000000
# 4 0.000000 0.000000 0.000000 0.015267 0.000000 0.020239
# 5 -0.000151 0.000851 -0.000099 0.000000 0.025361 0.000000
# 6 0.000000 0.000000 0.000000 0.020239 0.000000 0.067802
#
#
# Mechanical properties :
#
#
# Convention : Reuss Voigt Hill
#
# Bulk Modulus (GPa) = 41.04968 42.44851 41.74909
# Shear Modulus (GPa) = 35.35210 59.94303 47.64756
#
# Velocity S-wave (km/s) = 3.64516 4.74656 4.23185
# Velocity P-wave (km/s) = 5.75717 6.78190 6.29044
#
# Compressibility (1/GPa) = 0.02436073
#
# Stress axis : x y z
#
# Youngs Moduli (GPa) = 111.35139 147.08874 113.08174
#
# Poissons Ratio (x) = 0.16746 -0.00761
# Poissons Ratio (y) = 0.12677 -0.10634
# Poissons Ratio (z) = -0.00750 -0.13832
#
# Static dielectric constant tensor:
#      x y z
#    x 2.188730 0.000000 0.092380 
#    y 0.000000 2.181340 0.000000 
#    z 0.092380 0.000000 2.255000 
# 
# From -- ./inp_files/301063.got.cif
#   From: 2010.05.17/outbox.cif.g08.bks.cpg/sg15_151_cif.got.tgz:301063.got - 2010.06.03 18:47:42.
