data_PCOD9301298
_publ_section_title
;
Structure prediction by ZEFSAII (Michael W. Deem and Ramdas Pophale) SiO2 
 PCOD9301298
Probable space group: C 2/C
;
_chemical_formula_sum "Si O2"
_cell_formula_units_Z 56
_cell_length_a 11.213100
_cell_length_b 8.404376
_cell_length_c 26.196248
_cell_angle_alpha 90.000000
_cell_angle_beta 74.234039
_cell_angle_gamma 90.000000
_cell_volume 2375.837120
_symmetry_space_group_name_H-M "C 2/C"
_symmetry_group_IT_number 15
_symmetry_cell_setting 'monoclinic'
loop_
_space_group_symop_operation_xyz
x,y,z
-x,y,1/2-z
-x,-y,-z
x,-y,1/2+z
1/2+x,1/2+y,z
1/2-x,1/2+y,1/2-z
1/2-x,1/2-y,-z
1/2+x,1/2-y,1/2+z
loop_
_atom_site_type_symbol
_atom_site_label
_atom_site_fract_x
_atom_site_fract_y
_atom_site_fract_z
Si Si1 0.616022 0.548487 0.021458
Si Si2 0.660197 0.607049 0.621871
Si Si3 0.915236 0.411783 0.137535
Si Si4 0.011069 0.124045 0.302899
Si Si5 0.749063 0.923140 0.249972
Si Si6 0.628019 0.143928 0.206889
Si Si7 0.905036 0.566603 0.967145
O O1 0.607212 0.443656 0.074051
O O2 0.601265 0.739461 0.030584
O O3 0.500000 0.500000 0.000000
O O4 0.759508 0.517359 0.987119
O O5 0.808276 0.604240 0.607442
O O6 0.609513 0.472313 0.666490
O O7 0.623716 0.771179 0.653264
O O8 0.956301 0.242451 0.155632
O O9 0.844977 0.489283 0.194613
O O10 0.031095 0.481362 0.093847
O O11 0.115778 0.993778 0.277652
O O12 0.000000 0.211892 0.250000
O O13 0.679031 0.965416 0.205422
O O14 0.777006 0.749725 0.269457
O O15 0.500000 0.156232 0.250000
O O16 0.000000 0.500000 0.000000
#
# Coordination Sequence:
#
# PCOD9301298 Si02
#       7
#     8   8   8   8   8   8   8
#     4  11  26  48  76 108 136 184 242 298 363 428
#     4  11  20  40  71  97 137 186 227 282 361 410
#     4  11  23  41  69 103 138 189 231 284 354 416
#     4  12  20  38  70  96 135 187 228 276 346 425
#     4  11  21  39  63  94 137 177 228 276 337 410
#     4  11  22  40  61  95 137 179 222 281 339 411
#     4  11  24  48  77 103 142 181 239 305 360 418
#
# _framework density 23.570637999999999
#
# number of rings (size 3 to 8) (size 9 to 14) (size 15 to 20)
#    0.000    0.857   10.000    0.000    0.000    1.143 
#    2.571    4.286    0.000    0.000    0.000    0.000 
#    0.000    0.000    0.000    0.000    0.000    0.000 
#
# Total GULP energy -156109.378079 kJ/mol
# GULP energy per Si atom -5575.334931 kJ/mol
# Density = 2.351699 g / cm^3
# Si number density = 23.570638 Si / 1000 Ang^3
#
#
#
# Elastic Constant Matrix: (Units=GPa)
#
#
# Indices 1 2 3 4 5 6 
#
# 1 145.8840 53.6604 62.8302 0.0000 -6.3754 0.0000
# 2 53.6604 59.8580 14.7205 0.0000 11.8208 0.0000
# 3 62.8302 14.7205 90.2418 0.0000 -12.5715 0.0000
# 4 0.0000 0.0000 0.0000 22.5949 0.0000 11.6730
# 5 -6.3754 11.8208 -12.5715 0.0000 45.9062 0.0000
# 6 0.0000 0.0000 0.0000 11.6730 0.0000 46.8550
#
#
#
# Elastic Compliance Matrix: (Units=1/GPa)
#
#
# Indices 1 2 3 4 5 6 
#
# 1 0.014764 -0.011863 -0.007936 0.000000 0.002932 0.000000
# 2 -0.011863 0.028365 0.002480 0.000000 -0.008272 0.000000
# 3 -0.007936 0.002480 0.016593 0.000000 0.002803 0.000000
# 4 0.000000 0.000000 0.000000 0.050795 0.000000 -0.012655
# 5 0.002932 -0.008272 0.002803 0.000000 0.025088 0.000000
# 6 0.000000 0.000000 0.000000 -0.012655 0.000000 0.024495
#
#
# Mechanical properties :
#
#
# Convention : Reuss Voigt Hill
#
# Bulk Modulus (GPa) = 39.86600 62.04511 50.95556
# Shear Modulus (GPa) = 24.61845 34.05607 29.33726
#
# Velocity S-wave (km/s) = 3.23531 3.80524 3.53179
# Velocity P-wave (km/s) = 5.55935 6.75919 6.18842
#
# Compressibility (1/GPa) = 0.02508403
#
# Stress axis : x y z
#
# Youngs Moduli (GPa) = 67.73038 35.25515 60.26762
#
# Poissons Ratio (x) = 0.41823 0.47829
# Poissons Ratio (y) = 0.80349 -0.14948
# Poissons Ratio (z) = 0.53751 -0.08744
#
# Static dielectric constant tensor:
#      x y z
#    x 1.993970 0.000000 0.052120 
#    y 0.000000 1.923860 0.000000 
#    z 0.052120 0.000000 1.921810 
# 
# From -- ./inp_files/309908.got.cif
#   From: 2010.05.17/outbox.cif.g08.bks.cpg/sg15_155_cif.got.tgz:309908.got - 2010.06.03 18:47:42.
