data_PCOD9301812
_publ_section_title
;
Structure prediction by ZEFSAII (Michael W. Deem and Ramdas Pophale) SiO2 
 PCOD9301812
Probable space group: C 2/C
;
_chemical_formula_sum "Si O2"
_cell_formula_units_Z 60
_cell_length_a 6.638331
_cell_length_b 18.525997
_cell_length_c 24.422259
_cell_angle_alpha 90.000000
_cell_angle_beta 93.772169
_cell_angle_gamma 90.000000
_cell_volume 2996.983999
_symmetry_space_group_name_H-M "C 2/C"
_symmetry_group_IT_number 15
_symmetry_cell_setting 'monoclinic'
loop_
_space_group_symop_operation_xyz
x,y,z
-x,y,1/2-z
-x,-y,-z
x,-y,1/2+z
1/2+x,1/2+y,z
1/2-x,1/2+y,1/2-z
1/2-x,1/2-y,-z
1/2+x,1/2-y,1/2+z
loop_
_atom_site_type_symbol
_atom_site_label
_atom_site_fract_x
_atom_site_fract_y
_atom_site_fract_z
Si Si1 0.332551 0.257063 0.286952
Si Si2 0.232755 0.052592 0.544220
Si Si3 0.364973 0.541253 0.078647
Si Si4 0.940404 0.194626 0.135107
Si Si5 0.840857 0.217625 0.946961
Si Si6 0.673027 0.277870 0.378728
Si Si7 0.500000 0.126288 0.750000
Si Si8 0.395145 0.071957 0.867767
O O1 0.500000 0.224189 0.250000
O O2 0.176812 0.199810 0.309602
O O3 0.482960 0.289731 0.335392
O O4 0.194406 0.320931 0.260122
O O5 0.267848 0.042424 0.479751
O O6 0.136074 0.132176 0.547698
O O7 0.421992 0.055154 0.587868
O O8 0.075486 0.993343 0.562729
O O9 0.400238 0.620653 0.103132
O O10 0.264645 0.491263 0.123093
O O11 0.827878 0.258193 0.099597
O O12 0.173097 0.217704 0.140688
O O13 0.060135 0.246358 0.932254
O O14 0.750000 0.250000 0.000000
O O15 0.792423 0.352592 0.383855
O O16 0.467006 0.082498 0.806026
#
# Coordination Sequence:
#
# PCOD9301812 Si02
#       8
#     8   8   8   8   8   8   4   8
#     4  11  21  40  71 101 128 167 225 289 339 386
#     4  11  23  44  68  98 139 184 229 278 345 415
#     4  11  26  44  64  98 149 182 218 287 347 406
#     4  11  23  42  65 101 136 174 228 276 335 407
#     4  11  21  39  65  98 131 175 235 274 324 403
#     4  11  22  39  70  97 133 171 226 283 330 401
#     4  12  24  42  76 104 128 172 242 292 332 414
#     4  12  23  43  70 101 132 184 232 281 345 411
#
# _framework density 20.020128
#
# number of rings (size 3 to 8) (size 9 to 14) (size 15 to 20)
#    0.000    0.800    6.667    1.200    0.000    2.667 
#    6.000    0.000    2.933    0.000    0.000    0.000 
#    0.000    0.000    0.000    0.000    0.000    0.000 
#
# Total GULP energy -167373.086928 kJ/mol
# GULP energy per Si atom -5579.102898 kJ/mol
# Density = 1.997456 g / cm^3
# Si number density = 20.020128 Si / 1000 Ang^3
#
#
#
# Elastic Constant Matrix: (Units=GPa)
#
#
# Indices 1 2 3 4 5 6 
#
# 1 121.7304 34.7107 63.8707 0.0000 -13.5615 0.0000
# 2 34.7107 83.0770 40.3405 0.0000 -9.8951 0.0000
# 3 63.8707 40.3405 108.0050 0.0000 -15.4913 0.0000
# 4 0.0000 0.0000 0.0000 25.6685 0.0000 -8.9302
# 5 -13.5615 -9.8951 -15.4913 0.0000 44.5935 0.0000
# 6 0.0000 0.0000 0.0000 -8.9302 0.0000 22.2586
#
#
#
# Elastic Compliance Matrix: (Units=1/GPa)
#
#
# Indices 1 2 3 4 5 6 
#
# 1 0.012211 -0.001883 -0.006362 0.000000 0.001085 0.000000
# 2 -0.001883 0.015081 -0.004337 0.000000 0.001267 0.000000
# 3 -0.006362 -0.004337 0.014972 0.000000 0.002304 0.000000
# 4 0.000000 0.000000 0.000000 0.045278 0.000000 0.018166
# 5 0.001085 0.001267 0.002304 0.000000 0.023836 0.000000
# 6 0.000000 0.000000 0.000000 0.018166 0.000000 0.052215
#
#
# Mechanical properties :
#
#
# Convention : Reuss Voigt Hill
#
# Bulk Modulus (GPa) = 58.48631 65.62847 62.05739
# Shear Modulus (GPa) = 25.71257 30.09682 27.90469
#
# Velocity S-wave (km/s) = 3.58765 3.88148 3.73746
# Velocity P-wave (km/s) = 6.81460 7.27601 7.04908
#
# Compressibility (1/GPa) = 0.01709802
#
# Stress axis : x y z
#
# Youngs Moduli (GPa) = 81.89397 66.30884 66.79321
#
# Poissons Ratio (x) = 0.12488 0.42494
# Poissons Ratio (y) = 0.15423 0.28971
# Poissons Ratio (z) = 0.52101 0.28761
#
# Static dielectric constant tensor:
#      x y z
#    x 1.727340 0.000000 -0.025240 
#    y 0.000000 1.661790 0.000000 
#    z -0.025240 0.000000 1.877860 
# 
# From -- ./inp_files/286077.got.cif
#   From: 2010.05.17/outbox.cif.g08.bks.cpg/sg15_144_cif.got.tgz:286077.got - 2010.06.03 18:47:42.
