data_PCOD9301562
_publ_section_title
;
Structure prediction by ZEFSAII (Michael W. Deem and Ramdas Pophale) SiO2 
 PCOD9301562
Probable space group: C 2/C
;
_chemical_formula_sum "Si O2"
_cell_formula_units_Z 56
_cell_length_a 29.861723
_cell_length_b 14.079606
_cell_length_c 12.036913
_cell_angle_alpha 90.000000
_cell_angle_beta 32.841851
_cell_angle_gamma 90.000000
_cell_volume 2744.591704
_symmetry_space_group_name_H-M "C 2/C"
_symmetry_group_IT_number 15
_symmetry_cell_setting 'monoclinic'
loop_
_space_group_symop_operation_xyz
x,y,z
-x,y,1/2-z
-x,-y,-z
x,-y,1/2+z
1/2+x,1/2+y,z
1/2-x,1/2+y,1/2-z
1/2-x,1/2-y,-z
1/2+x,1/2-y,1/2+z
loop_
_atom_site_type_symbol
_atom_site_label
_atom_site_fract_x
_atom_site_fract_y
_atom_site_fract_z
Si Si1 0.088750 0.335873 0.575768
Si Si2 0.889223 0.451262 0.527220
Si Si3 0.817267 0.820606 0.301047
Si Si4 0.948870 0.681569 0.099073
Si Si5 0.226096 0.192842 0.868204
Si Si6 0.753858 0.006878 0.546644
Si Si7 0.872086 0.364887 0.327392
O O1 0.082008 0.440506 0.537703
O O2 0.095898 0.347133 0.693640
O O3 0.174259 0.296121 0.349899
O O4 0.000000 0.284426 0.750000
O O5 0.926432 0.392544 0.549944
O O6 0.904059 0.406017 0.377579
O O7 0.791701 0.453283 0.756754
O O8 0.750000 0.750000 0.500000
O O9 0.906950 0.780102 0.148965
O O10 0.806131 0.813470 0.191372
O O11 0.801726 0.927431 0.377382
O O12 0.047751 0.675442 0.903603
O O13 0.204245 0.097076 0.981856
O O14 0.187925 0.279733 0.014056
O O15 0.681194 0.054746 0.623556
#
# Coordination Sequence:
#
# PCOD9301562 Si02
#       7
#     8   8   8   8   8   8   8
#     4  11  23  38  60  93 127 163 210 264 324 382
#     4  11  21  36  61  92 126 164 200 254 325 383
#     4  12  22  42  64  94 129 172 213 254 325 395
#     4  12  23  39  64  94 134 166 212 265 323 390
#     4  11  23  41  64  90 128 171 214 261 319 388
#     4  11  23  40  63  94 128 168 212 268 317 383
#     4  12  24  39  63  96 130 166 215 269 321 376
#
# _framework density 20.403763999999999
#
# number of rings (size 3 to 8) (size 9 to 14) (size 15 to 20)
#    0.000    0.571    4.286    6.000    0.000    1.714 
#    0.000    0.714    0.000    0.000    0.000    0.000 
#    0.000    0.000    0.000    0.000    0.000    0.000 
#
# Total GULP energy -156428.883286 kJ/mol
# GULP energy per Si atom -5586.745832 kJ/mol
# Density = 2.035732 g / cm^3
# Si number density = 20.403764 Si / 1000 Ang^3
#
#
#
# Elastic Constant Matrix: (Units=GPa)
#
#
# Indices 1 2 3 4 5 6 
#
# 1 80.2935 42.8820 17.1211 0.0000 7.0594 0.0000
# 2 42.8820 112.5626 68.1445 0.0000 -6.9784 0.0000
# 3 17.1211 68.1445 106.2908 0.0000 -6.2371 0.0000
# 4 0.0000 0.0000 0.0000 33.2422 0.0000 8.0332
# 5 7.0594 -6.9784 -6.2371 0.0000 28.9091 0.0000
# 6 0.0000 0.0000 0.0000 8.0332 0.0000 23.9817
#
#
#
# Elastic Compliance Matrix: (Units=1/GPa)
#
#
# Indices 1 2 3 4 5 6 
#
# 1 0.016774 -0.008012 0.002107 0.000000 -0.005575 0.000000
# 2 -0.008012 0.018412 -0.010268 0.000000 0.004185 0.000000
# 3 0.002107 -0.010268 0.015674 0.000000 0.000389 0.000000
# 4 0.000000 0.000000 0.000000 0.032732 0.000000 -0.010964
# 5 -0.005575 0.004185 0.000389 0.000000 0.037047 0.000000
# 6 0.000000 0.000000 0.000000 -0.010964 0.000000 0.045371
#
#
# Mechanical properties :
#
#
# Convention : Reuss Voigt Hill
#
# Bulk Modulus (GPa) = 54.00863 61.71579 57.86221
# Shear Modulus (GPa) = 24.44681 28.62657 26.53669
#
# Velocity S-wave (km/s) = 3.46519 3.74973 3.61027
# Velocity P-wave (km/s) = 6.52207 7.00430 6.76748
#
# Compressibility (1/GPa) = 0.01851556
#
# Stress axis : x y z
#
# Youngs Moduli (GPa) = 59.61664 54.31365 63.79839
#
# Poissons Ratio (x) = 0.43514 -0.13444
# Poissons Ratio (y) = 0.47762 0.65507
# Poissons Ratio (z) = -0.12563 0.55768
#
# Static dielectric constant tensor:
#      x y z
#    x 1.799600 0.000000 -0.012780 
#    y 0.000000 1.713240 0.000000 
#    z -0.012780 0.000000 1.761600 
# 
# From -- ./inp_files/126958.got.cif
#   From: 2010.05.17/outbox.cif.g08.bks.cpg/sg15_64_cif.got.tgz:126958.got - 2010.06.03 18:47:42.
