data_PCOD9301081
_publ_section_title
;
Structure prediction by ZEFSAII (Michael W. Deem and Ramdas Pophale) SiO2 
 PCOD9301081
Probable space group: C 2/C
;
_chemical_formula_sum "Si O2"
_cell_formula_units_Z 48
_cell_length_a 8.923623
_cell_length_b 17.179053
_cell_length_c 21.895250
_cell_angle_alpha 90.000000
_cell_angle_beta 129.950289
_cell_angle_gamma 90.000000
_cell_volume 2573.120977
_symmetry_space_group_name_H-M "C 2/C"
_symmetry_group_IT_number 15
_symmetry_cell_setting 'monoclinic'
loop_
_space_group_symop_operation_xyz
x,y,z
-x,y,1/2-z
-x,-y,-z
x,-y,1/2+z
1/2+x,1/2+y,z
1/2-x,1/2+y,1/2-z
1/2-x,1/2-y,-z
1/2+x,1/2-y,1/2+z
loop_
_atom_site_type_symbol
_atom_site_label
_atom_site_fract_x
_atom_site_fract_y
_atom_site_fract_z
Si Si1 0.952350 0.924015 0.949853
Si Si2 0.953304 0.553618 0.892712
Si Si3 0.994827 0.593017 0.176096
Si Si4 0.285701 0.804985 0.067886
Si Si5 0.716739 0.325128 0.832637
Si Si6 0.719015 0.469445 0.920209
O O1 0.732198 0.897224 0.899756
O O2 0.010593 0.949207 0.895771
O O3 0.099648 0.860705 0.014721
O O4 0.000000 0.000000 0.000000
O O5 0.762039 0.541016 0.885631
O O6 0.942119 0.491327 0.834989
O O7 0.023208 0.639275 0.890172
O O8 0.130298 0.525656 0.983849
O O9 0.000000 0.593096 0.250000
O O10 0.129061 0.659742 0.181084
O O11 0.285886 0.754508 0.129559
O O12 0.250000 0.750000 0.000000
O O13 0.500000 0.338898 0.750000
O O14 0.769962 0.392742 0.894903
#
# Coordination Sequence:
#
# PCOD9301081 Si02
#       6
#     8   8   8   8   8   8
#     4  11  20  37  62  93 125 157 209 261 306 381
#     4   9  18  35  60  90 117 160 211 252 297 382
#     4  11  23  38  63  93 126 168 213 265 317 380
#     4  11  21  37  64  93 124 167 209 263 324 378
#     4  11  23  40  63  91 128 168 210 265 331 381
#     4   9  17  35  61  87 117 158 207 248 304 376
#
# _framework density 18.654388999999998
#
# number of rings (size 3 to 8) (size 9 to 14) (size 15 to 20)
#    0.000    1.667    6.667    1.000    0.000    1.333 
#    0.000    0.000    0.000    0.000    0.000    0.000 
#    0.000    0.000    0.000    0.000    0.000    0.000 
#
# Total GULP energy -133663.991115 kJ/mol
# GULP energy per Si atom -5569.332963 kJ/mol
# Density = 1.861193 g / cm^3
# Si number density = 18.654389 Si / 1000 Ang^3
#
#
#
# Elastic Constant Matrix: (Units=GPa)
#
#
# Indices 1 2 3 4 5 6 
#
# 1 129.9711 40.1915 32.1893 0.0000 -11.4689 0.0000
# 2 40.1915 101.5167 26.3156 0.0000 -13.8181 0.0000
# 3 32.1893 26.3156 59.3864 0.0000 -11.9230 0.0000
# 4 0.0000 0.0000 0.0000 19.8643 0.0000 -6.8757
# 5 -11.4689 -13.8181 -11.9230 0.0000 39.2828 0.0000
# 6 0.0000 0.0000 0.0000 -6.8757 0.0000 41.8411
#
#
#
# Elastic Compliance Matrix: (Units=1/GPa)
#
#
# Indices 1 2 3 4 5 6 
#
# 1 0.009536 -0.002688 -0.003843 0.000000 0.000672 0.000000
# 2 -0.002688 0.012137 -0.003431 0.000000 0.002443 0.000000
# 3 -0.003843 -0.003431 0.021271 0.000000 0.004127 0.000000
# 4 0.000000 0.000000 0.000000 0.053378 0.000000 0.008771
# 5 0.000672 0.002443 0.004127 0.000000 0.027765 0.000000
# 6 0.000000 0.000000 0.000000 0.008771 0.000000 0.025341
#
#
# Mechanical properties :
#
#
# Convention : Reuss Voigt Hill
#
# Bulk Modulus (GPa) = 43.43901 54.25189 48.84545
# Shear Modulus (GPa) = 28.24480 33.00950 30.62715
#
# Velocity S-wave (km/s) = 3.89538 4.21114 4.05633
# Velocity P-wave (km/s) = 6.60066 7.26572 6.94116
#
# Compressibility (1/GPa) = 0.02302078
#
# Stress axis : x y z
#
# Youngs Moduli (GPa) = 104.86291 82.39545 47.01304
#
# Poissons Ratio (x) = 0.22146 0.18067
# Poissons Ratio (y) = 0.28185 0.16129
# Poissons Ratio (z) = 0.40298 0.28267
#
# Static dielectric constant tensor:
#      x y z
#    x 1.747580 0.000000 -0.013350 
#    y 0.000000 1.625800 0.000000 
#    z -0.013350 0.000000 1.642530 
# 
# From -- ./inp_files/232880.got.cif
#   From: 2010.05.17/outbox.cif.g08.bks.cpg/sg15_117_cif.got.tgz:232880.got - 2010.06.03 18:47:42.
