data_PCOD9301061
_publ_section_title
;
Structure prediction by ZEFSAII (Michael W. Deem and Ramdas Pophale) SiO2 
 PCOD9301061
Probable space group: C 2/C
;
_chemical_formula_sum "Si O2"
_cell_formula_units_Z 56
_cell_length_a 18.398904
_cell_length_b 16.381440
_cell_length_c 21.694650
_cell_angle_alpha 90.000000
_cell_angle_beta 158.225691
_cell_angle_gamma 90.000000
_cell_volume 2425.569795
_symmetry_space_group_name_H-M "C 2/C"
_symmetry_group_IT_number 15
_symmetry_cell_setting 'monoclinic'
loop_
_space_group_symop_operation_xyz
x,y,z
-x,y,1/2-z
-x,-y,-z
x,-y,1/2+z
1/2+x,1/2+y,z
1/2-x,1/2+y,1/2-z
1/2-x,1/2-y,-z
1/2+x,1/2-y,1/2+z
loop_
_atom_site_type_symbol
_atom_site_label
_atom_site_fract_x
_atom_site_fract_y
_atom_site_fract_z
Si Si1 0.586688 0.571845 0.887775
Si Si2 0.345375 0.715627 0.967027
Si Si3 0.263729 0.619246 0.064478
Si Si4 0.830525 0.772413 0.207352
Si Si5 0.404817 0.185461 0.385217
Si Si6 0.148427 0.929089 0.738810
Si Si7 0.000000 0.637203 0.250000
Si Si8 0.000000 0.381865 0.250000
O O1 0.500000 0.553208 0.750000
O O2 0.495519 0.659649 0.832349
O O3 0.490708 0.507221 0.861043
O O4 0.820204 0.586378 0.078639
O O5 0.315776 0.789657 0.990787
O O6 0.379949 0.761201 0.928910
O O7 0.144670 0.665819 0.817266
O O8 0.509610 0.650722 0.117615
O O9 0.500000 0.624290 0.250000
O O10 0.229022 0.574114 0.101176
O O11 0.159087 0.581003 0.923087
O O12 0.797923 0.737864 0.249546
O O13 0.894747 0.697369 0.215694
O O14 0.624745 0.815761 0.032247
O O15 0.314685 0.094462 0.320131
#
# Coordination Sequence:
#
# PCOD9301061 Si02
#       8
#     8   8   8   8   8   8   4   4
#     4  12  27  49  78 118 158 193 256 338 398 452
#     4  11  22  38  61  98 144 205 254 298 370 463
#     4  11  20  37  57  90 135 196 257 304 343 440
#     4  12  23  49  84 111 143 194 277 326 378 468
#     4  11  24  43  74 110 150 203 257 317 381 473
#     4  11  25  44  64 108 161 194 247 312 402 466
#     4  12  26  53  86 119 140 206 272 328 390 465
#     4  12  22  31  62  89 134 196 258 298 340 437
#
# _framework density 23.08736
#
# number of rings (size 3 to 8) (size 9 to 14) (size 15 to 20)
#    0.000    0.571    5.714    3.857    2.000    1.143 
#    0.000    2.857    0.000    0.000    0.000    0.000 
#    0.000    0.000    0.000    0.000    0.000    0.000 
#
# Total GULP energy -156046.184923 kJ/mol
# GULP energy per Si atom -5573.078033 kJ/mol
# Density = 2.303481 g / cm^3
# Si number density = 23.087360 Si / 1000 Ang^3
#
#
#
# Elastic Constant Matrix: (Units=GPa)
#
#
# Indices 1 2 3 4 5 6 
#
# 1 90.5418 39.1148 36.7156 -0.0047 -1.9391 0.0000
# 2 39.1148 122.7104 43.2017 0.0986 -1.0887 -0.0167
# 3 36.7156 43.2017 179.7083 0.0541 14.2802 -0.0098
# 4 -0.0047 0.0986 0.0541 0.7235 0.0025 19.8193
# 5 -1.9391 -1.0887 14.2802 0.0025 31.4823 0.0060
# 6 0.0000 -0.0167 -0.0098 19.8193 0.0060 40.2448
#
#
#
# Elastic Compliance Matrix: (Units=1/GPa)
#
#
# Indices 1 2 3 4 5 6 
#
# 1 0.013435 -0.003557 -0.002018 -0.000062 0.001620 0.000028
# 2 -0.003557 0.009898 -0.001725 0.000108 0.000906 -0.000049
# 3 -0.002018 -0.001725 0.006646 0.000024 -0.003198 -0.000011
# 4 -0.000062 0.000108 0.000024 -0.110657 -0.000013 0.054495
# 5 0.001620 0.000906 -0.003198 -0.000013 0.033346 0.000001
# 6 0.000028 -0.000049 -0.000011 0.054495 0.000001 -0.001989
#
#
# Mechanical properties :
#
#
# Convention : Reuss Voigt Hill
#
# Bulk Modulus (GPa) = 65.02880 70.11387 67.57134
# Shear Modulus (GPa) = -168.94908 32.75202 -68.09853
#
# Velocity S-wave (km/s) = -8.56370 3.77053 -5.43692
# Velocity P-wave (km/s) = 8.33997 7.02786 3.17525
#
# Compressibility (1/GPa) = 0.01537780
#
# Stress axis : x y z
#
# Youngs Moduli (GPa) = 74.43488 101.02674 150.47329
#
# Poissons Ratio (x) = 0.35939 0.30370
# Poissons Ratio (y) = 0.26479 0.25953
# Poissons Ratio (z) = 0.15023 0.17425
#
# Static dielectric constant tensor:
#      x y z
#    x 1.698420 0.000360 0.181100 
#    y 0.000360 1.875580 -0.000210 
#    z 0.181100 -0.000210 1.947960 
# 
# From -- ./inp_files/280471.got.cif
#   From: 2010.05.17/outbox.cif.g08.bks.cpg/sg15_141_cif.got.tgz:280471.got - 2010.06.03 18:47:42.
