data_PCOD9301023
_publ_section_title
;
Structure prediction by ZEFSAII (Michael W. Deem and Ramdas Pophale) SiO2 
 PCOD9301023
Probable space group: C 2/C
;
_chemical_formula_sum "Si O2"
_cell_formula_units_Z 64
_cell_length_a 19.834046
_cell_length_b 19.121375
_cell_length_c 9.079720
_cell_angle_alpha 90.000000
_cell_angle_beta 79.356991
_cell_angle_gamma 90.000000
_cell_volume 3384.283280
_symmetry_space_group_name_H-M "C 2/C"
_symmetry_group_IT_number 15
_symmetry_cell_setting 'monoclinic'
loop_
_space_group_symop_operation_xyz
x,y,z
-x,y,1/2-z
-x,-y,-z
x,-y,1/2+z
1/2+x,1/2+y,z
1/2-x,1/2+y,1/2-z
1/2-x,1/2-y,-z
1/2+x,1/2-y,1/2+z
loop_
_atom_site_type_symbol
_atom_site_label
_atom_site_fract_x
_atom_site_fract_y
_atom_site_fract_z
Si Si1 0.230395 0.643742 0.689317
Si Si2 0.247078 0.985915 0.789584
Si Si3 0.880124 0.782187 0.130829
Si Si4 0.648030 0.497942 0.589857
Si Si5 0.801199 0.767821 0.616050
Si Si6 0.961141 0.880374 0.921085
Si Si7 0.582858 0.645865 0.595029
Si Si8 0.302478 0.146122 0.143796
O O1 0.231281 0.565398 0.750598
O O2 0.306664 0.677612 0.668182
O O3 0.184021 0.695616 0.804924
O O4 0.210776 0.641195 0.525262
O O5 0.303593 0.929196 0.722228
O O6 0.178782 0.965841 0.725267
O O7 0.215990 0.989339 0.964974
O O8 0.922089 0.807006 0.256877
O O9 0.864865 0.700062 0.139891
O O10 0.916854 0.810598 0.969695
O O11 0.592013 0.445173 0.545836
O O12 0.615777 0.572844 0.632524
O O13 0.750000 0.750000 0.500000
O O14 0.865442 0.810367 0.529188
O O15 0.760695 0.815492 0.749077
O O16 0.000000 0.883326 0.750000
O O17 0.017917 0.877887 0.025939
#
# Coordination Sequence:
#
# PCOD9301023 Si02
#       8
#     8   8   8   8   8   8   8   8
#     4  11  22  36  60  86 126 155 203 262 324 374
#     4  12  21  36  61  87 122 166 197 257 322 375
#     4  11  22  41  57  84 120 163 206 266 304 368
#     4  12  22  39  54  84 127 163 213 249 296 365
#     4  11  20  36  60  90 113 160 208 261 316 379
#     4  12  27  39  58  85 121 176 220 250 294 360
#     4  12  23  38  60  83 121 165 212 252 301 372
#     4  11  23  36  61  87 124 158 202 262 333 366
#
# _framework density 18.910947
#
# number of rings (size 3 to 8) (size 9 to 14) (size 15 to 20)
#    0.000    0.500    7.500    3.000    3.500    1.000 
#    0.000    0.000    0.000    0.000    0.000    0.875 
#    0.000    0.000    0.000    0.000    0.000    0.000 
#
# Total GULP energy -178657.431973 kJ/mol
# GULP energy per Si atom -5583.044749 kJ/mol
# Density = 1.886790 g / cm^3
# Si number density = 18.910947 Si / 1000 Ang^3
#
#
#
# Elastic Constant Matrix: (Units=GPa)
#
#
# Indices 1 2 3 4 5 6 
#
# 1 31.5688 30.8665 15.7404 0.0000 1.6046 0.0000
# 2 30.8665 130.4322 37.9886 0.0000 -0.9680 0.0000
# 3 15.7404 37.9886 92.6235 0.0000 -2.2869 0.0000
# 4 0.0000 0.0000 0.0000 31.2756 0.0000 1.6391
# 5 1.6046 -0.9680 -2.2869 0.0000 24.0371 0.0000
# 6 0.0000 0.0000 0.0000 1.6391 0.0000 20.0198
#
#
#
# Elastic Compliance Matrix: (Units=1/GPa)
#
#
# Indices 1 2 3 4 5 6 
#
# 1 0.042483 -0.009030 -0.003603 0.000000 -0.003542 0.000000
# 2 -0.009030 0.010626 -0.002805 0.000000 0.000764 0.000000
# 3 -0.003603 -0.002805 0.012592 0.000000 0.001326 0.000000
# 4 0.000000 0.000000 0.000000 0.032112 0.000000 -0.002629
# 5 -0.003542 0.000764 0.001326 0.000000 0.041996 0.000000
# 6 0.000000 0.000000 0.000000 -0.002629 0.000000 0.050166
#
#
# Mechanical properties :
#
#
# Convention : Reuss Voigt Hill
#
# Bulk Modulus (GPa) = 28.71559 47.09059 37.90309
# Shear Modulus (GPa) = 21.50915 26.40178 23.95546
#
# Velocity S-wave (km/s) = 3.37618 3.74051 3.56301
# Velocity P-wave (km/s) = 5.51505 6.60383 6.08384
#
# Compressibility (1/GPa) = 0.03482429
#
# Stress axis : x y z
#
# Youngs Moduli (GPa) = 23.53885 94.10522 79.41646
#
# Poissons Ratio (x) = 0.84980 0.28616
# Poissons Ratio (y) = 0.21256 0.22275
# Poissons Ratio (z) = 0.08482 0.26395
#
# Static dielectric constant tensor:
#      x y z
#    x 1.686110 0.000000 -0.007590 
#    y 0.000000 1.689800 0.000000 
#    z -0.007590 0.000000 1.702320 
# 
# From -- ./inp_files/56628.got.cif
#   From: 2010.05.17/outbox.cif.g08.bks.cpg/sg15_29_cif.got.tgz:56628.got - 2010.06.03 18:47:42.
