data_PCOD9301514
_publ_section_title
;
Structure prediction by ZEFSAII (Michael W. Deem and Ramdas Pophale) SiO2 
 PCOD9301514
Probable space group: C 2/C
;
_chemical_formula_sum "Si O2"
_cell_formula_units_Z 52
_cell_length_a 13.456254
_cell_length_b 26.916181
_cell_length_c 10.421583
_cell_angle_alpha 90.000000
_cell_angle_beta 131.493011
_cell_angle_gamma 90.000000
_cell_volume 2827.315758
_symmetry_space_group_name_H-M "C 2/C"
_symmetry_group_IT_number 15
_symmetry_cell_setting 'monoclinic'
loop_
_space_group_symop_operation_xyz
x,y,z
-x,y,1/2-z
-x,-y,-z
x,-y,1/2+z
1/2+x,1/2+y,z
1/2-x,1/2+y,1/2-z
1/2-x,1/2-y,-z
1/2+x,1/2-y,1/2+z
loop_
_atom_site_type_symbol
_atom_site_label
_atom_site_fract_x
_atom_site_fract_y
_atom_site_fract_z
Si Si1 0.864514 0.468734 0.904616
Si Si2 0.844747 0.354043 0.890132
Si Si3 0.226551 0.650526 0.471953
Si Si4 0.661609 0.040317 0.400974
Si Si5 0.555110 0.220795 0.510168
Si Si6 0.500000 0.295143 0.250000
Si Si7 0.849926 0.219054 0.175208
O O1 0.884997 0.410597 0.952045
O O2 0.791479 0.469292 0.704565
O O3 0.800402 0.496694 0.969736
O O4 0.000000 0.500000 0.000000
O O5 0.818738 0.349050 0.714981
O O6 0.716434 0.334546 0.855817
O O7 0.961680 0.314810 0.013828
O O8 0.210879 0.592996 0.496156
O O9 0.136693 0.685756 0.483421
O O10 0.373529 0.671509 0.611391
O O11 0.500000 0.044264 0.250000
O O12 0.476831 0.259471 0.352696
O O13 0.643193 0.252678 0.682466
O O14 0.000000 0.216086 0.250000
O O15 0.750000 0.250000 0.000000
#
# Coordination Sequence:
#
# PCOD9301514 Si02
#       7
#     8   8   8   8   8   4   8
#     4   9  18  35  58  87 116 143 193 254 311 357
#     4  11  21  39  64  88 120 163 197 256 317 360
#     4  11  21  35  61  88 117 150 199 259 312 357
#     4   9  18  36  57  83 116 144 189 254 305 356
#     4  12  21  37  60  89 120 154 206 248 308 357
#     4  12  22  32  58  88 114 154 196 248 296 364
#     4  12  26  43  56  84 133 178 209 245 298 379
#
# _framework density 18.392002999999999
#
# number of rings (size 3 to 8) (size 9 to 14) (size 15 to 20)
#    0.000    1.231    4.615    4.154    0.000    0.000 
#   11.077    0.000    1.692    1.846    0.000    0.000 
#    0.000    0.000    0.000    0.000    0.000    0.000 
#
# Total GULP energy -145072.898179 kJ/mol
# GULP energy per Si atom -5579.726853 kJ/mol
# Density = 1.835014 g / cm^3
# Si number density = 18.392003 Si / 1000 Ang^3
#
#
#
# Elastic Constant Matrix: (Units=GPa)
#
#
# Indices 1 2 3 4 5 6 
#
# 1 61.8083 34.9248 4.7248 0.0000 9.8073 0.0000
# 2 34.9248 146.3895 42.4495 0.0000 -0.1988 0.0000
# 3 4.7248 42.4495 42.2983 0.0000 -0.7581 0.0000
# 4 0.0000 0.0000 0.0000 25.4384 0.0000 -8.3940
# 5 9.8073 -0.1988 -0.7581 0.0000 30.7234 0.0000
# 6 0.0000 0.0000 0.0000 -8.3940 0.0000 26.2745
#
#
#
# Elastic Compliance Matrix: (Units=1/GPa)
#
#
# Indices 1 2 3 4 5 6 
#
# 1 0.020234 -0.005850 0.003496 0.000000 -0.006411 0.000000
# 2 -0.005850 0.011327 -0.010684 0.000000 0.001677 0.000000
# 3 0.003496 -0.010684 0.033967 0.000000 -0.000347 0.000000
# 4 0.000000 0.000000 0.000000 0.043943 0.000000 0.014039
# 5 -0.006411 0.001677 -0.000347 0.000000 0.034597 0.000000
# 6 0.000000 0.000000 0.000000 0.014039 0.000000 0.042545
#
#
# Mechanical properties :
#
#
# Convention : Reuss Voigt Hill
#
# Bulk Modulus (GPa) = 25.34718 46.07716 35.71217
# Shear Modulus (GPa) = 22.13948 27.71373 24.92660
#
# Velocity S-wave (km/s) = 3.47328 3.88601 3.68543
# Velocity P-wave (km/s) = 5.46777 6.72622 6.12937
#
# Compressibility (1/GPa) = 0.03945212
#
# Stress axis : x y z
#
# Youngs Moduli (GPa) = 49.42064 88.28374 29.44014
#
# Poissons Ratio (x) = 0.51644 -0.10291
# Poissons Ratio (y) = 0.28910 0.31454
# Poissons Ratio (z) = -0.17275 0.94323
#
# Static dielectric constant tensor:
#      x y z
#    x 1.676600 0.000000 -0.031200 
#    y 0.000000 1.635090 0.000000 
#    z -0.031200 0.000000 1.599070 
# 
# From -- ./inp_files/100989.got.cif
#   From: 2010.05.17/outbox.cif.g08.bks.cpg/sg15_51_cif.got.tgz:100989.got - 2010.06.03 18:47:42.
