data_PCOD9301736
_publ_section_title
;
Structure prediction by ZEFSAII (Michael W. Deem and Ramdas Pophale) SiO2 
 PCOD9301736
Probable space group: C 2/C
;
_chemical_formula_sum "Si O2"
_cell_formula_units_Z 56
_cell_length_a 10.651117
_cell_length_b 19.018684
_cell_length_c 13.880793
_cell_angle_alpha 90.000000
_cell_angle_beta 119.749303
_cell_angle_gamma 90.000000
_cell_volume 2441.249142
_symmetry_space_group_name_H-M "C 2/C"
_symmetry_group_IT_number 15
_symmetry_cell_setting 'monoclinic'
loop_
_space_group_symop_operation_xyz
x,y,z
-x,y,1/2-z
-x,-y,-z
x,-y,1/2+z
1/2+x,1/2+y,z
1/2-x,1/2+y,1/2-z
1/2-x,1/2-y,-z
1/2+x,1/2-y,1/2+z
loop_
_atom_site_type_symbol
_atom_site_label
_atom_site_fract_x
_atom_site_fract_y
_atom_site_fract_z
Si Si1 0.288571 0.925276 0.596774
Si Si2 0.899302 0.336922 0.346979
Si Si3 0.474788 0.618483 0.060421
Si Si4 0.097475 0.161464 0.663742
Si Si5 0.093679 0.289520 0.936659
Si Si6 0.000000 0.784021 0.750000
Si Si7 0.500000 0.958404 0.250000
Si Si8 0.092119 0.975289 0.377068
O O1 0.144847 0.891865 0.594232
O O2 0.392343 0.859512 0.619686
O O3 0.252089 0.952056 0.473121
O O4 0.363430 0.989422 0.682139
O O5 0.729912 0.353612 0.282920
O O6 0.947935 0.310663 0.469615
O O7 0.978086 0.404586 0.331194
O O8 0.903011 0.271298 0.273233
O O9 0.448795 0.663881 0.146221
O O10 0.427423 0.538955 0.056700
O O11 0.377239 0.654206 0.940822
O O12 0.021182 0.235206 0.648693
O O13 0.990147 0.097084 0.637105
O O14 0.250000 0.250000 0.000000
O O15 0.000000 0.002843 0.250000
#
# Coordination Sequence:
#
# PCOD9301736 Si02
#       8
#     8   8   8   8   8   4   4   8
#     4  11  24  42  68  97 136 178 224 286 339 402
#     4  11  25  45  69  96 134 184 221 282 347 403
#     4  11  21  41  65  99 129 174 229 277 330 402
#     4  11  23  41  68  97 131 178 225 274 339 408
#     4  12  23  44  68 101 143 171 229 283 336 409
#     4  11  22  42  64  93 136 166 230 277 326 408
#     4  11  26  50  68  97 140 180 228 285 342 408
#     4  11  21  38  66  99 130 175 220 276 333 400
#
# _framework density 22.939077000000001
#
# number of rings (size 3 to 8) (size 9 to 14) (size 15 to 20)
#    0.000    0.857    5.000    4.286    0.000    3.429 
#    2.571    0.000    0.000    0.000    0.000    0.000 
#    0.000    0.000    0.000    0.000    0.000    0.000 
#
# Total GULP energy -156090.802730 kJ/mol
# GULP energy per Si atom -5574.671526 kJ/mol
# Density = 2.288687 g / cm^3
# Si number density = 22.939077 Si / 1000 Ang^3
#
#
#
# Elastic Constant Matrix: (Units=GPa)
#
#
# Indices 1 2 3 4 5 6 
#
# 1 23.6569 21.9180 -6.8449 0.0000 -9.5946 0.0000
# 2 21.9180 147.5473 18.5771 0.0000 -11.1544 0.0000
# 3 -6.8449 18.5771 74.3121 0.0000 -16.3441 0.0000
# 4 0.0000 0.0000 0.0000 42.5804 0.0000 -2.4961
# 5 -9.5946 -11.1544 -16.3441 0.0000 30.9297 0.0000
# 6 0.0000 0.0000 0.0000 -2.4961 0.0000 26.9735
#
#
#
# Elastic Compliance Matrix: (Units=1/GPa)
#
#
# Indices 1 2 3 4 5 6 
#
# 1 0.064665 -0.009515 0.013569 0.000000 0.023798 0.000000
# 2 -0.009515 0.008489 -0.003366 0.000000 -0.001669 0.000000
# 3 0.013569 -0.003366 0.018338 0.000000 0.012686 0.000000
# 4 0.000000 0.000000 0.000000 0.023613 0.000000 0.002185
# 5 0.023798 -0.001669 0.012686 0.000000 0.045815 0.000000
# 6 0.000000 0.000000 0.000000 0.002185 0.000000 0.037276
#
#
# Mechanical properties :
#
#
# Convention : Reuss Voigt Hill
#
# Bulk Modulus (GPa) = 10.76797 34.75742 22.76270
# Shear Modulus (GPa) = 21.95151 34.22111 28.08631
#
# Velocity S-wave (km/s) = 3.09681 3.86661 3.50292
# Velocity P-wave (km/s) = 4.18227 5.92614 5.12886
#
# Compressibility (1/GPa) = 0.09286801
#
# Stress axis : x y z
#
# Youngs Moduli (GPa) = 15.46439 117.80593 54.53142
#
# Poissons Ratio (x) = 1.12095 -0.73994
# Poissons Ratio (y) = 0.14715 0.18353
# Poissons Ratio (z) = -0.20984 0.39648
#
# Static dielectric constant tensor:
#      x y z
#    x 1.953320 0.000000 -0.031590 
#    y 0.000000 1.819390 0.000000 
#    z -0.031590 0.000000 2.038180 
# 
# From -- ./inp_files/146202.got.cif
#   From: 2010.05.17/outbox.cif.g08.bks.cpg/sg15_74_cif.got.tgz:146202.got - 2010.06.03 18:47:42.
