data_PCOD9301152
_publ_section_title
;
Structure prediction by ZEFSAII (Michael W. Deem and Ramdas Pophale) SiO2 
 PCOD9301152
Probable space group: C 2/C
;
_chemical_formula_sum "Si O2"
_cell_formula_units_Z 36
_cell_length_a 12.346070
_cell_length_b 14.109746
_cell_length_c 8.135378
_cell_angle_alpha 90.000000
_cell_angle_beta 90.322131
_cell_angle_gamma 90.000000
_cell_volume 1417.159732
_symmetry_space_group_name_H-M "C 2/C"
_symmetry_group_IT_number 15
_symmetry_cell_setting 'monoclinic'
loop_
_space_group_symop_operation_xyz
x,y,z
-x,y,1/2-z
-x,-y,-z
x,-y,1/2+z
1/2+x,1/2+y,z
1/2-x,1/2+y,1/2-z
1/2-x,1/2-y,-z
1/2+x,1/2-y,1/2+z
loop_
_atom_site_type_symbol
_atom_site_label
_atom_site_fract_x
_atom_site_fract_y
_atom_site_fract_z
Si Si1 0.776111 0.875598 0.247010
Si Si2 0.964521 0.891721 0.003776
Si Si3 0.000000 0.434375 0.750000
Si Si4 0.840790 0.474019 0.985845
Si Si5 0.891730 0.218781 0.199852
O O1 0.891737 0.869893 0.160858
O O2 0.715528 0.777090 0.279382
O O3 0.759081 0.932113 0.415404
O O4 0.703757 0.936812 0.116046
O O5 0.895346 0.864421 0.837987
O O6 0.068452 0.824446 0.971545
O O7 0.000000 0.000000 0.000000
O O8 0.926792 0.492752 0.622052
O O9 0.095817 0.398004 0.629856
O O10 0.000000 0.279917 0.250000
#
# Coordination Sequence:
#
# PCOD9301152 Si02
#       5
#     8   8   4   8   8
#     4  11  20  38  63 102 124 169 219 265 317 395
#     4   9  21  38  63  88 123 170 220 268 316 384
#     4   8  16  30  42  82 122 166 190 248 310 370
#     4   9  20  29  59  90 132 160 211 258 321 383
#     4   8  22  36  63  88 123 170 223 265 318 376
#
# _framework density 25.402922
#
# number of rings (size 3 to 8) (size 9 to 14) (size 15 to 20)
#    1.333    1.333    0.000    0.667   15.556    0.000 
#    0.000    0.000    0.000   17.333    0.000    1.556 
#    0.000    0.000    0.000    0.000    0.000    0.000 
#
# Total GULP energy -100345.062592 kJ/mol
# GULP energy per Si atom -5574.725700 kJ/mol
# Density = 2.534510 g / cm^3
# Si number density = 25.402922 Si / 1000 Ang^3
#
#
#
# Elastic Constant Matrix: (Units=GPa)
#
#
# Indices 1 2 3 4 5 6 
#
# 1 147.2620 59.2657 71.8369 0.0000 -40.8562 0.0000
# 2 59.2657 117.5148 51.2418 0.0000 -34.3420 0.0000
# 3 71.8369 51.2418 189.8700 0.0000 -81.0022 0.0000
# 4 0.0000 0.0000 0.0000 38.3415 0.0000 -23.2863
# 5 -40.8562 -34.3420 -81.0022 0.0000 63.1462 0.0000
# 6 0.0000 0.0000 0.0000 -23.2863 0.0000 74.2188
#
#
#
# Elastic Compliance Matrix: (Units=1/GPa)
#
#
# Indices 1 2 3 4 5 6 
#
# 1 0.009646 -0.003478 -0.001889 0.000000 0.001926 0.000000
# 2 -0.003478 0.011434 -0.000170 0.000000 0.003750 0.000000
# 3 -0.001889 -0.000170 0.012074 0.000000 0.014174 0.000000
# 4 0.000000 0.000000 0.000000 0.032221 0.000000 0.010110
# 5 0.001926 0.003750 0.014174 0.000000 0.037303 0.000000
# 6 0.000000 0.000000 0.000000 0.010110 0.000000 0.016646
#
#
# Mechanical properties :
#
#
# Convention : Reuss Voigt Hill
#
# Bulk Modulus (GPa) = 45.29158 91.03728 68.16443
# Shear Modulus (GPa) = 36.29522 53.29480 44.79501
#
# Velocity S-wave (km/s) = 3.78402 4.58534 4.20382
# Velocity P-wave (km/s) = 6.07945 7.99681 7.10312
#
# Compressibility (1/GPa) = 0.02207916
#
# Stress axis : x y z
#
# Youngs Moduli (GPa) = 103.66499 87.46113 82.82145
#
# Poissons Ratio (x) = 0.30421 0.15647
# Poissons Ratio (y) = 0.36057 0.01409
# Poissons Ratio (z) = 0.19585 0.01487
#
# Static dielectric constant tensor:
#      x y z
#    x 2.139050 0.000000 0.019750 
#    y 0.000000 1.999600 0.000000 
#    z 0.019750 0.000000 2.057210 
# 
# From -- ./inp_files/37424.got.cif
#   From: 2010.05.17/outbox.cif.g08.bks.cpg/sg15_19_cif.got.tgz:37424.got - 2010.06.03 18:47:42.
