data_PCOD9301168
_publ_section_title
;
Structure prediction by ZEFSAII (Michael W. Deem and Ramdas Pophale) SiO2 
 PCOD9301168
Probable space group: C 2/C
;
_chemical_formula_sum "Si O2"
_cell_formula_units_Z 48
_cell_length_a 8.279176
_cell_length_b 25.929537
_cell_length_c 10.845464
_cell_angle_alpha 90.000000
_cell_angle_beta 60.711180
_cell_angle_gamma 90.000000
_cell_volume 2030.619456
_symmetry_space_group_name_H-M "C 2/C"
_symmetry_group_IT_number 15
_symmetry_cell_setting 'monoclinic'
loop_
_space_group_symop_operation_xyz
x,y,z
-x,y,1/2-z
-x,-y,-z
x,-y,1/2+z
1/2+x,1/2+y,z
1/2-x,1/2+y,1/2-z
1/2-x,1/2-y,-z
1/2+x,1/2-y,1/2+z
loop_
_atom_site_type_symbol
_atom_site_label
_atom_site_fract_x
_atom_site_fract_y
_atom_site_fract_z
Si Si1 0.601567 0.692906 0.900336
Si Si2 0.809780 0.464098 0.860904
Si Si3 0.095693 0.305248 0.842954
Si Si4 0.236336 0.652182 0.890351
Si Si5 0.060797 0.876433 0.856644
Si Si6 0.215260 0.968483 0.166250
O O1 0.608263 0.753593 0.919868
O O2 0.404451 0.675930 0.909797
O O3 0.757110 0.682123 0.740788
O O4 0.603113 0.654693 0.015309
O O5 0.647160 0.421911 0.906677
O O6 0.794747 0.507355 0.761185
O O7 0.000000 0.436251 0.750000
O O8 0.801863 0.485605 0.002498
O O9 0.283133 0.334113 0.736452
O O10 0.000000 0.288391 0.750000
O O11 0.952399 0.342113 0.965584
O O12 0.269206 0.593109 0.844004
O O13 0.000000 0.899892 0.750000
O O14 0.000000 0.981662 0.250000
#
# Coordination Sequence:
#
# PCOD9301168 Si02
#       6
#     8   8   8   8   8   8
#     4  11  21  39  67  99 132 168 222 266 327 388
#     4  12  26  46  70  98 132 174 227 279 336 398
#     4  12  21  38  70 100 127 176 224 271 325 392
#     4  11  20  38  66 101 130 165 220 278 315 392
#     4  12  26  44  64  95 140 176 220 273 333 395
#     4  12  23  43  69  98 136 174 220 276 336 400
#
# _framework density 23.638107000000002
#
# number of rings (size 3 to 8) (size 9 to 14) (size 15 to 20)
#    0.000    0.333    6.667    4.500    0.000    2.000 
#    0.000    0.833    0.000    0.000    0.000    0.000 
#    0.000    0.000    0.000    0.000    0.000    0.000 
#
# Total GULP energy -134338.254194 kJ/mol
# GULP energy per Si atom -5597.427258 kJ/mol
# Density = 2.358431 g / cm^3
# Si number density = 23.638107 Si / 1000 Ang^3
#
#
#
# Elastic Constant Matrix: (Units=GPa)
#
#
# Indices 1 2 3 4 5 6 
#
# 1 19.0832 4.5261 4.9005 0.0000 10.1054 0.0000
# 2 4.5261 110.7530 11.6641 0.0000 8.9984 0.0000
# 3 4.9005 11.6641 125.5985 0.0000 -2.7896 0.0000
# 4 0.0000 0.0000 0.0000 32.9278 0.0000 5.7120
# 5 10.1054 8.9984 -2.7896 0.0000 29.8079 0.0000
# 6 0.0000 0.0000 0.0000 5.7120 0.0000 13.2708
#
#
#
# Elastic Compliance Matrix: (Units=1/GPa)
#
#
# Indices 1 2 3 4 5 6 
#
# 1 0.065032 -0.000543 -0.002979 0.000000 -0.022162 0.000000
# 2 -0.000543 0.009369 -0.000909 0.000000 -0.002729 0.000000
# 3 -0.002979 -0.000909 0.008208 0.000000 0.002053 0.000000
# 4 0.000000 0.000000 0.000000 0.032820 0.000000 -0.014126
# 5 -0.022162 -0.002729 0.002053 0.000000 0.042077 0.000000
# 6 0.000000 0.000000 0.000000 -0.014126 0.000000 0.081434
#
#
# Mechanical properties :
#
#
# Convention : Reuss Voigt Hill
#
# Bulk Modulus (GPa) = 13.56026 33.06844 23.31435
# Shear Modulus (GPa) = 18.35637 30.82421 24.59029
#
# Velocity S-wave (km/s) = 2.78970 3.61502 3.22884
# Velocity P-wave (km/s) = 4.01568 5.60752 4.87699
#
# Compressibility (1/GPa) = 0.07374488
#
# Stress axis : x y z
#
# Youngs Moduli (GPa) = 15.37712 106.73691 121.82978
#
# Poissons Ratio (x) = 0.05799 0.36295
# Poissons Ratio (y) = 0.00835 0.11080
# Poissons Ratio (z) = 0.04581 0.09708
#
# Static dielectric constant tensor:
#      x y z
#    x 1.987410 0.000000 0.023520 
#    y 0.000000 1.853470 0.000000 
#    z 0.023520 0.000000 1.891430 
# 
# From -- ./inp_files/80534.got.cif
#   From: 2010.05.17/outbox.cif.g08.bks.cpg/sg15_41_cif.got.tgz:80534.got - 2010.06.03 18:47:42.
