data_PCOD9301625
_publ_section_title
;
Structure prediction by ZEFSAII (Michael W. Deem and Ramdas Pophale) SiO2 
 PCOD9301625
Probable space group: C 2/C
;
_chemical_formula_sum "Si O2"
_cell_formula_units_Z 44
_cell_length_a 12.189527
_cell_length_b 18.915697
_cell_length_c 11.627633
_cell_angle_alpha 90.000000
_cell_angle_beta 46.110855
_cell_angle_gamma 90.000000
_cell_volume 1932.166175
_symmetry_space_group_name_H-M "C 2/C"
_symmetry_group_IT_number 15
_symmetry_cell_setting 'monoclinic'
loop_
_space_group_symop_operation_xyz
x,y,z
-x,y,1/2-z
-x,-y,-z
x,-y,1/2+z
1/2+x,1/2+y,z
1/2-x,1/2+y,1/2-z
1/2-x,1/2-y,-z
1/2+x,1/2-y,1/2+z
loop_
_atom_site_type_symbol
_atom_site_label
_atom_site_fract_x
_atom_site_fract_y
_atom_site_fract_z
Si Si1 0.351868 0.719525 0.280813
Si Si2 0.902176 0.384989 0.588574
Si Si3 0.331267 0.358588 0.581118
Si Si4 0.308623 0.502745 0.711813
Si Si5 0.000000 0.906240 0.250000
Si Si6 0.860064 0.378285 0.265947
O O1 0.500000 0.707411 0.250000
O O2 0.214420 0.664677 0.400208
O O3 0.150393 0.637701 0.243989
O O4 0.299453 0.799961 0.333007
O O5 0.606721 0.296661 0.882747
O O6 0.840038 0.464659 0.625209
O O7 0.065962 0.376356 0.416181
O O8 0.385615 0.433573 0.598907
O O9 0.391009 0.359444 0.410056
O O10 0.399038 0.543534 0.743148
O O11 0.257557 0.558120 0.651756
O O12 0.000000 0.392781 0.250000
#
# Coordination Sequence:
#
# PCOD9301625 Si02
#       6
#     8   8   8   8   4   8
#     4   8  19  37  61  90 120 158 201 260 304 349
#     4   8  21  37  53  87 128 151 196 249 305 356
#     4   8  22  37  59  87 123 157 205 253 293 358
#     4   9  23  35  59  91 121 161 203 251 300 358
#     4  12  20  40  62  88 116 170 212 244 298 358
#     4  11  21  37  63  94 122 161 200 254 313 363
#
# _framework density 22.772368
#
# number of rings (size 3 to 8) (size 9 to 14) (size 15 to 20)
#    2.182    0.364    0.000    1.091    7.636    5.818 
#    0.000    1.818    0.000    0.000    0.000    0.000 
#    0.000    0.000    0.000    0.000    0.000    0.000 
#
# Total GULP energy -122488.646263 kJ/mol
# GULP energy per Si atom -5567.665739 kJ/mol
# Density = 2.272054 g / cm^3
# Si number density = 22.772368 Si / 1000 Ang^3
#
#
#
# Elastic Constant Matrix: (Units=GPa)
#
#
# Indices 1 2 3 4 5 6 
#
# 1 52.6039 36.3057 -14.7248 0.0000 3.0844 0.0000
# 2 36.3057 111.6432 -25.8569 0.0000 1.7488 0.0000
# 3 -14.7248 -25.8569 108.9407 -0.0001 14.6600 0.0000
# 4 0.0000 0.0000 -0.0001 12.4924 0.0001 0.7528
# 5 3.0844 1.7488 14.6600 0.0001 29.0158 0.0000
# 6 0.0000 0.0000 0.0000 0.7528 0.0000 21.4146
#
#
#
# Elastic Compliance Matrix: (Units=1/GPa)
#
#
# Indices 1 2 3 4 5 6 
#
# 1 0.025020 -0.007622 0.002005 0.000000 -0.003213 0.000000
# 2 -0.007622 0.011892 0.001910 0.000000 -0.000871 0.000000
# 3 0.002005 0.001910 0.010673 0.000000 -0.005721 0.000000
# 4 0.000000 0.000000 0.000000 0.080219 0.000000 -0.002820
# 5 -0.003213 -0.000871 -0.005721 0.000000 0.037749 0.000000
# 6 0.000000 0.000000 0.000000 -0.002820 0.000000 0.046796
#
#
# Mechanical properties :
#
#
# Convention : Reuss Voigt Hill
#
# Bulk Modulus (GPa) = 24.89346 29.40398 27.14872
# Shear Modulus (GPa) = 21.44520 31.08213 26.26367
#
# Velocity S-wave (km/s) = 3.07208 3.69847 3.39973
# Velocity P-wave (km/s) = 4.85167 5.58376 5.23054
#
# Compressibility (1/GPa) = 0.04017119
#
# Stress axis : x y z
#
# Youngs Moduli (GPa) = 39.96815 84.09364 93.69074
#
# Poissons Ratio (x) = 0.64093 -0.18787
# Poissons Ratio (y) = 0.30462 -0.17890
# Poissons Ratio (z) = -0.08015 -0.16058
#
# Static dielectric constant tensor:
#      x y z
#    x 1.821210 0.000000 0.011620 
#    y 0.000000 1.818470 0.000000 
#    z 0.011620 0.000000 2.010660 
# 
# From -- ./inp_files/88737.got.cif
#   From: 2010.05.17/outbox.cif.g08.bks.cpg/sg15_45_cif.got.tgz:88737.got - 2010.06.03 18:47:42.
