data_PCOD9301194
_publ_section_title
;
Structure prediction by ZEFSAII (Michael W. Deem and Ramdas Pophale) SiO2 
 PCOD9301194
Probable space group: C 2/C
;
_chemical_formula_sum "Si O2"
_cell_formula_units_Z 32
_cell_length_a 11.466849
_cell_length_b 18.466905
_cell_length_c 12.464770
_cell_angle_alpha 90.000000
_cell_angle_beta 144.809724
_cell_angle_gamma 90.000000
_cell_volume 1521.129867
_symmetry_space_group_name_H-M "C 2/C"
_symmetry_group_IT_number 15
_symmetry_cell_setting 'monoclinic'
loop_
_space_group_symop_operation_xyz
x,y,z
-x,y,1/2-z
-x,-y,-z
x,-y,1/2+z
1/2+x,1/2+y,z
1/2-x,1/2+y,1/2-z
1/2-x,1/2-y,-z
1/2+x,1/2-y,1/2+z
loop_
_atom_site_type_symbol
_atom_site_label
_atom_site_fract_x
_atom_site_fract_y
_atom_site_fract_z
Si Si1 0.670884 0.275183 0.559202
Si Si2 0.755592 0.140510 0.757650
Si Si3 0.500000 0.864129 0.750000
Si Si4 0.260317 0.473383 0.079506
Si Si5 0.500000 0.914137 0.250000
O O1 0.750000 0.250000 0.500000
O O2 0.644308 0.207204 0.616093
O O3 0.486013 0.330727 0.423906
O O4 0.875432 0.318669 0.744119
O O5 0.734279 0.064899 0.676002
O O6 0.666587 0.129419 0.808225
O O7 0.325977 0.911258 0.564105
O O8 0.500000 0.487942 0.250000
O O9 0.124319 0.539613 0.933689
#
# Coordination Sequence:
#
# PCOD9301194 Si02
#       5
#     8   8   4   8   4
#     4  12  20  38  73 100 124 165 220 289 334 374
#     4  12  23  44  68 100 137 170 225 279 331 401
#     4  11  20  38  70 108 120 157 226 288 334 363
#     4  11  22  45  69  93 132 176 231 273 318 392
#     4  11  30  44  60  98 142 189 212 258 346 401
#
# _framework density 21.036994
#
# number of rings (size 3 to 8) (size 9 to 14) (size 15 to 20)
#    0.000    0.500    7.500    0.750    0.000    2.000 
#    9.000    0.000    0.000    0.000    0.000    0.000 
#    0.000    0.000    0.000    0.000    0.000    0.000 
#
# Total GULP energy -89132.225735 kJ/mol
# GULP energy per Si atom -5570.764108 kJ/mol
# Density = 2.098911 g / cm^3
# Si number density = 21.036994 Si / 1000 Ang^3
#
#
#
# Elastic Constant Matrix: (Units=GPa)
#
#
# Indices 1 2 3 4 5 6 
#
# 1 142.5664 51.5749 45.0076 0.0000 25.3028 0.0000
# 2 51.5749 65.6921 31.8583 0.0000 11.1736 0.0000
# 3 45.0076 31.8583 145.9446 0.0000 25.3379 0.0000
# 4 0.0000 0.0000 0.0000 24.9732 0.0000 -4.5111
# 5 25.3028 11.1736 25.3379 0.0000 19.8801 0.0000
# 6 0.0000 0.0000 0.0000 -4.5111 0.0000 2.3548
#
#
#
# Elastic Compliance Matrix: (Units=1/GPa)
#
#
# Indices 1 2 3 4 5 6 
#
# 1 0.011514 -0.007186 -0.000179 0.000000 -0.010388 0.000000
# 2 -0.007186 0.022128 -0.002623 0.000000 0.000053 0.000000
# 3 -0.000179 -0.002623 0.009226 0.000000 -0.010057 0.000000
# 4 0.000000 0.000000 0.000000 0.061231 0.000000 0.117299
# 5 -0.010388 0.000053 -0.010057 0.000000 0.076311 0.000000
# 6 0.000000 0.000000 0.000000 0.117299 0.000000 0.649363
#
#
# Mechanical properties :
#
#
# Convention : Reuss Voigt Hill
#
# Bulk Modulus (GPa) = 43.68516 67.89830 55.79173
# Shear Modulus (GPa) = 5.83172 24.49245 15.16209
#
# Velocity S-wave (km/s) = 1.66678 3.41582 2.68756
# Velocity P-wave (km/s) = 4.95128 6.92119 6.01739
#
# Compressibility (1/GPa) = 0.02289107
#
# Stress axis : x y z
#
# Youngs Moduli (GPa) = 86.85083 45.19255 108.39402
#
# Poissons Ratio (x) = 0.32476 0.01936
# Poissons Ratio (y) = 0.62412 0.28435
# Poissons Ratio (z) = 0.01551 0.11855
#
# Static dielectric constant tensor:
#      x y z
#    x 1.710500 0.000000 -0.013430 
#    y 0.000000 1.879590 0.000000 
#    z -0.013430 0.000000 1.944490 
# 
# From -- ./inp_files/78915.got.cif
#   From: 2010.05.17/outbox.cif.g08.bks.cpg/sg15_40_cif.got.tgz:78915.got - 2010.06.03 18:47:42.
