data_PCOD9301503
_publ_section_title
;
Structure prediction by ZEFSAII (Michael W. Deem and Ramdas Pophale) SiO2 
 PCOD9301503
Probable space group: C 2/C
;
_chemical_formula_sum "Si O2"
_cell_formula_units_Z 48
_cell_length_a 21.097125
_cell_length_b 11.720597
_cell_length_c 14.153822
_cell_angle_alpha 90.000000
_cell_angle_beta 39.005885
_cell_angle_gamma 90.000000
_cell_volume 2202.792671
_symmetry_space_group_name_H-M "C 2/C"
_symmetry_group_IT_number 15
_symmetry_cell_setting 'monoclinic'
loop_
_space_group_symop_operation_xyz
x,y,z
-x,y,1/2-z
-x,-y,-z
x,-y,1/2+z
1/2+x,1/2+y,z
1/2-x,1/2+y,1/2-z
1/2-x,1/2-y,-z
1/2+x,1/2-y,1/2+z
loop_
_atom_site_type_symbol
_atom_site_label
_atom_site_fract_x
_atom_site_fract_y
_atom_site_fract_z
Si Si1 0.902337 0.363421 0.968461
Si Si2 0.770643 0.354085 0.406003
Si Si3 0.935018 0.793978 0.921820
Si Si4 0.603350 0.304578 0.866913
Si Si5 0.367818 0.915486 0.810408
Si Si6 0.812785 0.413669 0.656553
O O1 0.857884 0.339307 0.915894
O O2 0.011803 0.423103 0.838677
O O3 0.918569 0.246228 0.005351
O O4 0.836629 0.457307 0.099553
O O5 0.750000 0.250000 0.500000
O O6 0.662280 0.373019 0.483913
O O7 0.854889 0.305679 0.238671
O O8 0.815482 0.466019 0.399886
O O9 0.000000 0.779410 0.750000
O O10 0.007747 0.843572 0.918214
O O11 0.886631 0.675422 0.016552
O O12 0.698306 0.386926 0.761368
O O13 0.327520 0.890552 0.751837
#
# Coordination Sequence:
#
# PCOD9301503 Si02
#       6
#     8   8   8   8   8   8
#     4  11  23  37  64  93 122 159 207 254 305 358
#     4  11  21  35  58  92 122 154 200 249 313 354
#     4  11  22  35  60  91 123 156 197 255 313 354
#     4  11  22  39  58  91 123 162 206 252 306 358
#     4  11  22  39  62  92 123 158 206 254 301 366
#     4  11  23  37  63  89 122 157 207 254 299 365
#
# _framework density 21.790521999999999
#
# number of rings (size 3 to 8) (size 9 to 14) (size 15 to 20)
#    0.000    1.000    5.000    3.500    2.333    0.667 
#    0.000    0.833    0.000    0.000    0.000    0.000 
#    0.000    0.000    0.000    0.000    0.000    0.000 
#
# Total GULP energy -134004.609866 kJ/mol
# GULP energy per Si atom -5583.525411 kJ/mol
# Density = 2.174093 g / cm^3
# Si number density = 21.790522 Si / 1000 Ang^3
#
#
#
# Elastic Constant Matrix: (Units=GPa)
#
#
# Indices 1 2 3 4 5 6 
#
# 1 125.9280 -3.0919 26.6087 0.0000 -6.5164 0.0000
# 2 -3.0919 15.8805 5.7895 0.0000 -2.8846 0.0000
# 3 26.6087 5.7895 48.8951 0.0000 -4.9031 0.0000
# 4 0.0000 0.0000 0.0000 9.9264 0.0000 2.7511
# 5 -6.5164 -2.8846 -4.9031 0.0000 52.8387 0.0000
# 6 0.0000 0.0000 0.0000 2.7511 0.0000 16.5786
#
#
#
# Elastic Compliance Matrix: (Units=1/GPa)
#
#
# Indices 1 2 3 4 5 6 
#
# 1 0.009222 0.003917 -0.005397 0.000000 0.000850 0.000000
# 2 0.003917 0.067918 -0.009845 0.000000 0.003277 0.000000
# 3 -0.005397 -0.009845 0.024664 0.000000 0.001086 0.000000
# 4 0.000000 0.000000 0.000000 0.105599 0.000000 -0.017524
# 5 0.000850 0.003277 0.001086 0.000000 0.019310 0.000000
# 6 0.000000 0.000000 0.000000 -0.017524 0.000000 0.063227
#
#
# Mechanical properties :
#
#
# Convention : Reuss Voigt Hill
#
# Bulk Modulus (GPa) = 12.63368 27.70180 20.16774
# Shear Modulus (GPa) = 14.75048 26.62854 20.68951
#
# Velocity S-wave (km/s) = 2.60459 3.49954 3.08469
# Velocity P-wave (km/s) = 3.85429 5.39160 4.68642
#
# Compressibility (1/GPa) = 0.07915350
#
# Stress axis : x y z
#
# Youngs Moduli (GPa) = 108.44079 14.72370 40.54557
#
# Poissons Ratio (x) = -0.05768 0.21882
# Poissons Ratio (y) = -0.42481 0.39918
# Poissons Ratio (z) = 0.58525 0.14496
#
# Static dielectric constant tensor:
#      x y z
#    x 1.860640 0.000000 0.062240 
#    y 0.000000 1.763110 0.000000 
#    z 0.062240 0.000000 1.827020 
# 
# From -- ./inp_files/167845.got.cif
#   From: 2010.05.17/outbox.cif.g08.bks.cpg/sg15_84_cif.got.tgz:167845.got - 2010.06.03 18:47:42.
