data_PCOD9301078
_publ_section_title
;
Structure prediction by ZEFSAII (Michael W. Deem and Ramdas Pophale) SiO2 
 PCOD9301078
Probable space group: C 2/C
;
_chemical_formula_sum "Si O2"
_cell_formula_units_Z 56
_cell_length_a 11.276595
_cell_length_b 26.926889
_cell_length_c 15.181001
_cell_angle_alpha 90.000000
_cell_angle_beta 37.143780
_cell_angle_gamma 90.000000
_cell_volume 2783.364524
_symmetry_space_group_name_H-M "C 2/C"
_symmetry_group_IT_number 15
_symmetry_cell_setting 'monoclinic'
loop_
_space_group_symop_operation_xyz
x,y,z
-x,y,1/2-z
-x,-y,-z
x,-y,1/2+z
1/2+x,1/2+y,z
1/2-x,1/2+y,1/2-z
1/2-x,1/2-y,-z
1/2+x,1/2-y,1/2+z
loop_
_atom_site_type_symbol
_atom_site_label
_atom_site_fract_x
_atom_site_fract_y
_atom_site_fract_z
Si Si1 0.938229 0.608385 0.511515
Si Si2 0.218343 0.549677 0.212538
Si Si3 0.990258 0.445335 0.162072
Si Si4 0.032980 0.293760 0.870579
Si Si5 0.933927 0.980423 0.886352
Si Si6 0.868772 0.908732 0.452340
Si Si7 0.344708 0.693528 0.036033
O O1 0.011165 0.664654 0.458370
O O2 0.733337 0.603132 0.580358
O O3 0.086736 0.575561 0.364357
O O4 0.934293 0.587352 0.611604
O O5 0.441989 0.549070 0.114776
O O6 0.150424 0.492950 0.245123
O O7 0.212913 0.576440 0.121751
O O8 0.000000 0.417922 0.250000
O O9 0.204872 0.469138 0.022034
O O10 0.844795 0.302779 0.917335
O O11 0.233417 0.302290 0.696280
O O12 0.992206 0.238859 0.931190
O O13 0.000000 0.966436 0.750000
O O14 0.976425 0.038945 0.876195
O O15 0.950590 0.857923 0.445412
#
# Coordination Sequence:
#
# PCOD9301078 Si02
#       7
#     8   8   8   8   8   8   8
#     4  11  20  37  62  81 118 166 199 233 307 361
#     4  12  21  38  59  85 123 163 199 243 294 364
#     4  12  24  40  58  83 123 165 208 251 289 352
#     4   9  18  34  55  82 113 148 187 237 294 360
#     4  12  24  38  56  86 124 162 208 246 285 352
#     4  11  21  37  58  86 120 163 192 240 304 363
#     4   9  18  34  55  81 116 147 186 235 298 359
#
# _framework density 20.119534999999999
#
# number of rings (size 3 to 8) (size 9 to 14) (size 15 to 20)
#    0.000    1.143    5.714    2.143    0.000    0.000 
#   10.286    0.000    0.000    0.000    0.000    5.000 
#    0.000    0.000    0.000    0.000    0.000    0.000 
#
# Total GULP energy -156325.347461 kJ/mol
# GULP energy per Si atom -5583.048124 kJ/mol
# Density = 2.007374 g / cm^3
# Si number density = 20.119535 Si / 1000 Ang^3
#
#
#
# Elastic Constant Matrix: (Units=GPa)
#
#
# Indices 1 2 3 4 5 6 
#
# 1 75.4808 33.3013 36.2606 0.0000 17.1799 0.0000
# 2 33.3013 104.6678 13.1733 0.0000 23.6740 0.0000
# 3 36.2606 13.1733 43.6656 0.0000 25.5867 0.0000
# 4 0.0000 0.0000 0.0000 27.8052 0.0000 7.2127
# 5 17.1799 23.6740 25.5867 0.0000 40.1730 0.0000
# 6 0.0000 0.0000 0.0000 7.2127 0.0000 7.0250
#
#
#
# Elastic Compliance Matrix: (Units=1/GPa)
#
#
# Indices 1 2 3 4 5 6 
#
# 1 0.026423 -0.007275 -0.024950 0.000000 0.008878 0.000000
# 2 -0.007275 0.013042 0.007637 0.000000 -0.009439 0.000000
# 3 -0.024950 0.007637 0.060149 0.000000 -0.032141 0.000000
# 4 0.000000 0.000000 0.000000 0.049020 0.000000 -0.050331
# 5 0.008878 -0.009439 -0.032141 0.000000 0.047129 0.000000
# 6 0.000000 0.000000 0.000000 -0.050331 0.000000 0.194025
#
#
# Mechanical properties :
#
#
# Convention : Reuss Voigt Hill
#
# Bulk Modulus (GPa) = 19.82514 43.25386 31.53950
# Shear Modulus (GPa) = 10.97028 24.40589 17.68809
#
# Velocity S-wave (km/s) = 2.33760 3.48666 2.96826
# Velocity P-wave (km/s) = 4.14257 6.14444 5.23999
#
# Compressibility (1/GPa) = 0.05044101
#
# Stress axis : x y z
#
# Youngs Moduli (GPa) = 37.84602 76.67361 16.62526
#
# Poissons Ratio (x) = 0.55777 0.41479
# Poissons Ratio (y) = 0.27532 -0.12697
# Poissons Ratio (z) = 0.94424 -0.58559
#
# Static dielectric constant tensor:
#      x y z
#    x 1.716440 0.000000 -0.012560 
#    y 0.000000 1.723940 0.000000 
#    z -0.012560 0.000000 1.769930 
# 
# From -- ./inp_files/148510.got.cif
#   From: 2010.05.17/outbox.cif.g08.bks.cpg/sg15_75_cif.got.tgz:148510.got - 2010.06.03 18:47:42.
