data_PCOD9301685
_publ_section_title
;
Structure prediction by ZEFSAII (Michael W. Deem and Ramdas Pophale) SiO2 
 PCOD9301685
Probable space group: C 2/C
;
_chemical_formula_sum "Si O2"
_cell_formula_units_Z 48
_cell_length_a 13.014740
_cell_length_b 18.275654
_cell_length_c 8.217582
_cell_angle_alpha 90.000000
_cell_angle_beta 109.455917
_cell_angle_gamma 90.000000
_cell_volume 1842.965492
_symmetry_space_group_name_H-M "C 2/C"
_symmetry_group_IT_number 15
_symmetry_cell_setting 'monoclinic'
loop_
_space_group_symop_operation_xyz
x,y,z
-x,y,1/2-z
-x,-y,-z
x,-y,1/2+z
1/2+x,1/2+y,z
1/2-x,1/2+y,1/2-z
1/2-x,1/2-y,-z
1/2+x,1/2-y,1/2+z
loop_
_atom_site_type_symbol
_atom_site_label
_atom_site_fract_x
_atom_site_fract_y
_atom_site_fract_z
Si Si1 0.085143 0.288463 0.528634
Si Si2 0.065161 0.879628 0.036742
Si Si3 0.585550 0.977650 0.682140
Si Si4 0.627198 0.190836 0.439684
Si Si5 0.347846 0.362911 0.048597
Si Si6 0.284837 0.912956 0.021887
O O1 0.073034 0.203922 0.478428
O O2 0.110095 0.294487 0.736523
O O3 0.171599 0.329648 0.462189
O O4 0.966414 0.326017 0.476266
O O5 0.107799 0.875189 0.245755
O O6 0.157711 0.922878 0.990038
O O7 0.937565 0.900639 0.979642
O O8 0.500000 0.933162 0.750000
O O9 0.641542 0.041666 0.814067
O O10 0.500000 0.000000 0.500000
O O11 0.682798 0.938607 0.640676
O O12 0.651031 0.276465 0.500114
O O13 0.718542 0.127534 0.494397
#
# Coordination Sequence:
#
# PCOD9301685 Si02
#       6
#     8   8   8   8   8   8
#     4   9  18  31  56  95 126 153 200 251 326 385
#     4   9  18  33  57  91 124 163 199 250 317 389
#     4   9  22  41  58  85 121 164 221 268 315 367
#     4   8  15  29  51  86 127 164 192 235 309 384
#     4   8  15  31  52  82 128 166 197 235 301 385
#     4  11  21  38  60  86 122 160 204 268 317 363
#
# _framework density 26.044981
#
# number of rings (size 3 to 8) (size 9 to 14) (size 15 to 20)
#    0.000    3.000    0.000    2.500    2.333    4.000 
#    3.000    0.833    0.000   12.000    0.000    0.000 
#    0.000    0.000    0.000    0.000    0.000    0.000 
#
# Total GULP energy -133842.630396 kJ/mol
# GULP energy per Si atom -5576.776266 kJ/mol
# Density = 2.598570 g / cm^3
# Si number density = 26.044981 Si / 1000 Ang^3
#
#
#
# Elastic Constant Matrix: (Units=GPa)
#
#
# Indices 1 2 3 4 5 6 
#
# 1 231.7943 4.8256 18.1181 0.0000 -20.7136 0.0000
# 2 4.8256 36.7190 7.9365 0.0000 -11.6202 0.0000
# 3 18.1181 7.9365 37.0186 0.0000 -4.1418 0.0000
# 4 0.0000 0.0000 0.0000 17.5217 0.0000 -3.9929
# 5 -20.7136 -11.6202 -4.1418 0.0000 31.0447 0.0000
# 6 0.0000 0.0000 0.0000 -3.9929 0.0000 37.8607
#
#
#
# Elastic Compliance Matrix: (Units=1/GPa)
#
#
# Indices 1 2 3 4 5 6 
#
# 1 0.004751 0.000854 -0.002150 0.000000 0.003202 0.000000
# 2 0.000854 0.032152 -0.005990 0.000000 0.011805 0.000000
# 3 -0.002150 -0.005990 0.029377 0.000000 0.000243 0.000000
# 4 0.000000 0.000000 0.000000 0.058477 0.000000 0.006167
# 5 0.003202 0.011805 0.000243 0.000000 0.038799 0.000000
# 6 0.000000 0.000000 0.000000 0.006167 0.000000 0.027063
#
#
# Mechanical properties :
#
#
# Convention : Reuss Voigt Hill
#
# Bulk Modulus (GPa) = 19.33957 40.81025 30.07491
# Shear Modulus (GPa) = 22.47916 35.59555 29.03736
#
# Velocity S-wave (km/s) = 2.94103 3.70089 3.34262
# Velocity P-wave (km/s) = 4.35596 5.82798 5.14489
#
# Compressibility (1/GPa) = 0.05170745
#
# Stress axis : x y z
#
# Youngs Moduli (GPa) = 210.49912 31.10197 34.04018
#
# Poissons Ratio (x) = -0.02656 0.07318
# Poissons Ratio (y) = -0.17973 0.20391
# Poissons Ratio (z) = 0.45254 0.18631
#
# Static dielectric constant tensor:
#      x y z
#    x 2.212300 0.000000 0.097240 
#    y 0.000000 2.126360 0.000000 
#    z 0.097240 0.000000 2.087090 
# 
# From -- ./inp_files/32116.got.cif
#   From: 2010.05.17/outbox.cif.g08.bks.cpg/sg15_17_cif.got.tgz:32116.got - 2010.06.03 18:47:42.
