data_PCOD9301772
_publ_section_title
;
Structure prediction by ZEFSAII (Michael W. Deem and Ramdas Pophale) SiO2 
 PCOD9301772
Probable space group: C 2/C
;
_chemical_formula_sum "Si O2"
_cell_formula_units_Z 48
_cell_length_a 13.746856
_cell_length_b 34.287463
_cell_length_c 14.899915
_cell_angle_alpha 90.000000
_cell_angle_beta 160.337149
_cell_angle_gamma 90.000000
_cell_volume 2363.131725
_symmetry_space_group_name_H-M "C 2/C"
_symmetry_group_IT_number 15
_symmetry_cell_setting 'monoclinic'
loop_
_space_group_symop_operation_xyz
x,y,z
-x,y,1/2-z
-x,-y,-z
x,-y,1/2+z
1/2+x,1/2+y,z
1/2-x,1/2+y,1/2-z
1/2-x,1/2-y,-z
1/2+x,1/2-y,1/2+z
loop_
_atom_site_type_symbol
_atom_site_label
_atom_site_fract_x
_atom_site_fract_y
_atom_site_fract_z
Si Si1 0.838169 0.226969 0.867763
Si Si2 0.321027 0.915017 0.506991
Si Si3 0.725458 0.360041 0.259159
Si Si4 0.845952 0.107370 0.277206
Si Si5 0.730721 0.027986 0.243516
Si Si6 0.000000 0.155047 0.250000
Si Si7 0.500000 0.206064 0.750000
O O1 0.796359 0.185919 0.780409
O O2 0.704193 0.225645 0.852534
O O3 0.667973 0.260782 0.667717
O O4 0.244175 0.878442 0.374923
O O5 0.539169 0.946140 0.648253
O O6 0.000000 0.932120 0.250000
O O7 0.500000 0.902508 0.750000
O O8 0.025181 0.376824 0.480504
O O9 0.463357 0.379060 0.975832
O O10 0.847149 0.061138 0.277556
O O11 0.034797 0.128265 0.366892
O O12 0.000000 0.000000 0.500000
O O13 0.500000 0.000000 0.000000
O O14 0.280233 0.181996 0.496607
#
# Coordination Sequence:
#
# PCOD9301772 Si02
#       7
#     8   8   8   8   8   4   4
#     4  12  23  37  58  89 127 164 204 259 321 376
#     4  11  23  43  71  96 121 165 221 268 308 381
#     4  11  22  41  64  87 121 163 215 256 314 371
#     4  11  21  39  62  87 118 174 207 251 298 374
#     4  11  23  42  65  95 133 162 200 259 333 375
#     4  12  20  37  60  84 126 162 222 242 290 368
#     4  12  22  37  56  88 126 172 210 260 294 376
#
# _framework density 20.312028000000002
#
# number of rings (size 3 to 8) (size 9 to 14) (size 15 to 20)
#    0.000    0.667    3.333    7.500    0.000    0.000 
#    4.500    0.000    0.000    3.000    0.000    0.000 
#    0.000    0.000    0.000    0.000    0.000    0.000 
#
# Total GULP energy -133854.691660 kJ/mol
# GULP energy per Si atom -5577.278819 kJ/mol
# Density = 2.026580 g / cm^3
# Si number density = 20.312028 Si / 1000 Ang^3
#
#
#
# Elastic Constant Matrix: (Units=GPa)
#
#
# Indices 1 2 3 4 5 6 
#
# 1 57.7197 19.9021 15.4463 -0.0042 -12.0859 -0.0002
# 2 19.9021 120.3609 43.2599 -0.0005 -16.9043 -0.0001
# 3 15.4463 43.2599 126.6610 -0.0095 -7.6448 -0.0040
# 4 -0.0042 -0.0005 -0.0095 42.3109 -0.0093 -5.4846
# 5 -12.0859 -16.9043 -7.6448 -0.0093 36.3050 -0.0032
# 6 -0.0002 -0.0001 -0.0040 -5.4846 -0.0032 24.1180
#
#
#
# Elastic Compliance Matrix: (Units=1/GPa)
#
#
# Indices 1 2 3 4 5 6 
#
# 1 0.019483 -0.001985 -0.001380 0.000003 0.005271 0.000001
# 2 -0.001985 0.010214 -0.003038 0.000000 0.003455 0.000000
# 3 -0.001380 -0.003038 0.009103 0.000002 0.000043 0.000002
# 4 0.000003 0.000000 0.000002 0.024352 0.000008 0.005538
# 5 0.005271 0.003455 0.000043 0.000008 0.030917 0.000006
# 6 0.000001 0.000000 0.000002 0.005538 0.000006 0.042722
#
#
# Mechanical properties :
#
#
# Convention : Reuss Voigt Hill
#
# Bulk Modulus (GPa) = 38.47023 51.32869 44.89946
# Shear Modulus (GPa) = 31.59326 35.62232 33.60779
#
# Velocity S-wave (km/s) = 3.94813 4.19233 4.07206
# Velocity P-wave (km/s) = 6.30590 6.98277 6.65295
#
# Compressibility (1/GPa) = 0.02599412
#
# Stress axis : x y z
#
# Youngs Moduli (GPa) = 51.32804 97.90751 109.84835
#
# Poissons Ratio (x) = 0.19438 0.15156
# Poissons Ratio (y) = 0.10191 0.33369
# Poissons Ratio (z) = 0.07082 0.29742
#
# Static dielectric constant tensor:
#      x y z
#    x 1.824220 0.000000 0.017590 
#    y 0.000000 1.713600 0.000000 
#    z 0.017590 0.000000 1.735510 
# 
# From -- ./inp_files/157740.got.cif
#   From: 2010.05.17/outbox.cif.g08.bks.cpg/sg15_79_cif.got.tgz:157740.got - 2010.06.03 18:47:42.
