data_PCOD9301241
_publ_section_title
;
Structure prediction by ZEFSAII (Michael W. Deem and Ramdas Pophale) SiO2 
 PCOD9301241
Probable space group: C 2/C
;
_chemical_formula_sum "Si O2"
_cell_formula_units_Z 36
_cell_length_a 11.451355
_cell_length_b 15.195000
_cell_length_c 16.897145
_cell_angle_alpha 90.000000
_cell_angle_beta 147.673114
_cell_angle_gamma 90.000000
_cell_volume 1572.247226
_symmetry_space_group_name_H-M "C 2/C"
_symmetry_group_IT_number 15
_symmetry_cell_setting 'monoclinic'
loop_
_space_group_symop_operation_xyz
x,y,z
-x,y,1/2-z
-x,-y,-z
x,-y,1/2+z
1/2+x,1/2+y,z
1/2-x,1/2+y,1/2-z
1/2-x,1/2-y,-z
1/2+x,1/2-y,1/2+z
loop_
_atom_site_type_symbol
_atom_site_label
_atom_site_fract_x
_atom_site_fract_y
_atom_site_fract_z
Si Si1 0.121246 0.392477 0.897436
Si Si2 0.000000 0.264568 0.250000
Si Si3 0.555462 0.906672 0.393093
Si Si4 0.432043 0.546613 0.878230
Si Si5 0.225821 0.384347 0.666734
O O1 0.109514 0.498873 0.888654
O O2 0.977685 0.368001 0.891160
O O3 0.000000 0.357294 0.750000
O O4 0.382024 0.385031 0.044010
O O5 0.858779 0.329246 0.113379
O O6 0.868801 0.201548 0.233743
O O7 0.293829 0.901475 0.242622
O O8 0.638453 0.907139 0.529741
O O9 0.369560 0.465326 0.783658
O O10 0.500000 0.500000 0.000000
#
# Coordination Sequence:
#
# PCOD9301241 Si02
#       5
#     8   4   8   8   8
#     4  11  20  41  68  99 129 171 223 274 331 397
#     4  12  24  46  66  96 140 180 226 276 340 392
#     4  11  23  41  66  99 133 174 226 276 327 399
#     4  11  20  39  69  98 133 175 219 271 335 399
#     4  11  25  39  66 103 133 173 224 279 333 399
#
# _framework density 22.89716
#
# number of rings (size 3 to 8) (size 9 to 14) (size 15 to 20)
#    0.000    0.889    5.556    4.667    0.000    4.444 
#    0.000    1.111    0.000    0.000    0.000    0.000 
#    0.000    0.000    0.000    0.000    0.000    0.000 
#
# Total GULP energy -100633.370696 kJ/mol
# GULP energy per Si atom -5590.742816 kJ/mol
# Density = 2.284505 g / cm^3
# Si number density = 22.897160 Si / 1000 Ang^3
#
#
#
# Elastic Constant Matrix: (Units=GPa)
#
#
# Indices 1 2 3 4 5 6 
#
# 1 101.9912 17.2885 32.6387 0.0003 -9.7891 -0.0005
# 2 17.2885 63.7604 8.7306 0.0021 -12.3381 0.0009
# 3 32.6387 8.7306 145.3969 0.0040 -29.5544 0.0017
# 4 0.0003 0.0021 0.0040 21.3631 0.0015 -14.2732
# 5 -9.7891 -12.3381 -29.5544 0.0015 59.0016 0.0002
# 6 -0.0005 0.0009 0.0017 -14.2732 0.0002 22.9071
#
#
#
# Elastic Compliance Matrix: (Units=1/GPa)
#
#
# Indices 1 2 3 4 5 6 
#
# 1 0.010996 -0.002644 -0.002284 0.000002 0.000128 0.000001
# 2 -0.002644 0.016994 0.000230 -0.000004 0.003230 -0.000003
# 3 -0.002284 0.000230 0.008138 -0.000004 0.003745 -0.000003
# 4 0.000002 -0.000004 -0.000004 0.080195 -0.000005 0.049969
# 5 0.000128 0.003230 0.003745 -0.000005 0.019521 -0.000004
# 6 0.000001 -0.000003 -0.000003 0.049969 -0.000004 0.074790
#
#
# Mechanical properties :
#
#
# Convention : Reuss Voigt Hill
#
# Bulk Modulus (GPa) = 37.40855 47.60713 42.50784
# Shear Modulus (GPa) = 21.83961 37.48708 29.66334
#
# Velocity S-wave (km/s) = 3.09174 4.05061 3.60321
# Velocity P-wave (km/s) = 5.39613 6.53556 5.99298
#
# Compressibility (1/GPa) = 0.02673186
#
# Stress axis : x y z
#
# Youngs Moduli (GPa) = 90.94185 58.84336 122.88159
#
# Poissons Ratio (x) = 0.15559 0.28062
# Poissons Ratio (y) = 0.24047 -0.02822
# Poissons Ratio (z) = 0.20768 -0.01352
#
# Static dielectric constant tensor:
#      x y z
#    x 1.977300 0.000000 0.112810 
#    y 0.000000 1.842810 0.000000 
#    z 0.112810 0.000000 1.938770 
# 
# From -- ./inp_files/145295.got.cif
#   From: 2010.05.17/outbox.cif.g08.bks.cpg/sg15_73_cif.got.tgz:145295.got - 2010.06.03 18:47:42.
