data_PCOD9301017
_publ_section_title
;
Structure prediction by ZEFSAII (Michael W. Deem and Ramdas Pophale) SiO2 
 PCOD9301017
Probable space group: C 2/C
;
_chemical_formula_sum "Si O2"
_cell_formula_units_Z 48
_cell_length_a 25.514829
_cell_length_b 20.618828
_cell_length_c 14.307276
_cell_angle_alpha 90.000000
_cell_angle_beta 19.082583
_cell_angle_gamma 90.000000
_cell_volume 2460.759726
_symmetry_space_group_name_H-M "C 2/C"
_symmetry_group_IT_number 15
_symmetry_cell_setting 'monoclinic'
loop_
_space_group_symop_operation_xyz
x,y,z
-x,y,1/2-z
-x,-y,-z
x,-y,1/2+z
1/2+x,1/2+y,z
1/2-x,1/2+y,1/2-z
1/2-x,1/2-y,-z
1/2+x,1/2-y,1/2+z
loop_
_atom_site_type_symbol
_atom_site_label
_atom_site_fract_x
_atom_site_fract_y
_atom_site_fract_z
Si Si1 0.203194 0.463650 0.261671
Si Si2 0.804987 0.876703 0.405871
Si Si3 0.810592 0.334296 0.094353
Si Si4 0.841667 0.931195 0.645727
Si Si5 0.307274 0.690491 0.089170
Si Si6 0.145311 0.487132 0.150629
O O1 0.213758 0.394957 0.296123
O O2 0.339022 0.511137 0.073803
O O3 0.189873 0.453040 0.173199
O O4 0.042362 0.505837 0.555834
O O5 0.790411 0.844507 0.329780
O O6 0.750804 0.828444 0.579900
O O7 0.690190 0.938306 0.594305
O O8 0.980130 0.907192 0.128864
O O9 0.768570 0.261039 0.194982
O O10 0.000000 0.335317 0.750000
O O11 0.761619 0.867956 0.734198
O O12 0.748218 0.958050 0.893138
O O13 0.500000 0.689204 0.750000
#
# Coordination Sequence:
#
# PCOD9301017 Si02
#       6
#     8   8   8   8   8   8
#     4  11  22  37  59  85 115 149 194 233 279 335
#     4  11  20  36  58  90 114 143 189 241 286 330
#     4  11  20  37  58  85 116 151 193 234 280 336
#     4  11  21  38  57  86 118 147 183 234 292 337
#     4   9  21  36  58  85 117 149 185 235 287 337
#     4  11  22  36  58  89 111 148 194 235 280 336
#
# _framework density 19.506170999999998
#
# number of rings (size 3 to 8) (size 9 to 14) (size 15 to 20)
#    0.000    1.333    5.000    1.500    0.000    0.000 
#    0.000    0.833    0.000    2.000    0.000    0.000 
#    0.000    0.000    0.000    0.000    0.000    0.000 
#
# Total GULP energy -133878.586667 kJ/mol
# GULP energy per Si atom -5578.274444 kJ/mol
# Density = 1.946177 g / cm^3
# Si number density = 19.506171 Si / 1000 Ang^3
#
#
#
# Elastic Constant Matrix: (Units=GPa)
#
#
# Indices 1 2 3 4 5 6 
#
# 1 104.2889 50.6293 22.9732 0.0003 0.9797 -0.0012
# 2 50.6293 156.1166 11.6582 -0.0148 4.2207 0.0067
# 3 22.9732 11.6582 46.8465 -0.0115 -2.7781 0.0066
# 4 0.0003 -0.0148 -0.0115 2.3252 -0.0014 21.2916
# 5 0.9797 4.2207 -2.7781 -0.0014 15.3983 0.0015
# 6 -0.0012 0.0067 0.0066 21.2916 0.0015 23.6142
#
#
#
# Elastic Compliance Matrix: (Units=1/GPa)
#
#
# Indices 1 2 3 4 5 6 
#
# 1 0.012531 -0.003649 -0.005281 0.000011 -0.000750 -0.000007
# 2 -0.003649 0.007658 -0.000229 -0.000009 -0.001908 0.000006
# 3 -0.005281 -0.000229 0.024277 -0.000026 0.004779 0.000016
# 4 0.000011 -0.000009 -0.000026 -0.059269 -0.000013 0.053439
# 5 -0.000750 -0.001908 0.004779 -0.000013 0.066375 0.000007
# 6 -0.000007 0.000006 0.000016 0.053439 0.000007 -0.005836
#
#
# Mechanical properties :
#
#
# Convention : Reuss Voigt Hill
#
# Bulk Modulus (GPa) = 38.24753 53.08592 45.66672
# Shear Modulus (GPa) = 68.70969 23.06698 45.88833
#
# Velocity S-wave (km/s) = 5.94147 3.44255 4.85552
# Velocity P-wave (km/s) = 8.16814 6.56320 7.40925
#
# Compressibility (1/GPa) = 0.02614548
#
# Stress axis : x y z
#
# Youngs Moduli (GPa) = 79.80387 130.58923 41.19180
#
# Poissons Ratio (x) = 0.47653 0.21755
# Poissons Ratio (y) = 0.29121 0.00945
# Poissons Ratio (z) = 0.42147 0.02995
#
# Static dielectric constant tensor:
#      x y z
#    x 1.916850 0.000000 -0.047510 
#    y 0.000000 1.705340 0.000010 
#    z -0.047510 0.000010 1.701870 
# 
# From -- ./inp_files/146497.got.cif
#   From: 2010.05.17/outbox.cif.g08.bks.cpg/sg15_74_cif.got.tgz:146497.got - 2010.06.03 18:47:42.
