data_PCOD9301156
_publ_section_title
;
Structure prediction by ZEFSAII (Michael W. Deem and Ramdas Pophale) SiO2 
 PCOD9301156
Probable space group: C 2/C
;
_chemical_formula_sum "Si O2"
_cell_formula_units_Z 32
_cell_length_a 7.378013
_cell_length_b 12.615426
_cell_length_c 21.576790
_cell_angle_alpha 90.000000
_cell_angle_beta 44.172788
_cell_angle_gamma 90.000000
_cell_volume 1399.431371
_symmetry_space_group_name_H-M "C 2/C"
_symmetry_group_IT_number 15
_symmetry_cell_setting 'monoclinic'
loop_
_space_group_symop_operation_xyz
x,y,z
-x,y,1/2-z
-x,-y,-z
x,-y,1/2+z
1/2+x,1/2+y,z
1/2-x,1/2+y,1/2-z
1/2-x,1/2-y,-z
1/2+x,1/2-y,1/2+z
loop_
_atom_site_type_symbol
_atom_site_label
_atom_site_fract_x
_atom_site_fract_y
_atom_site_fract_z
Si Si1 0.564997 0.672115 0.165615
Si Si2 0.685572 0.881066 0.069686
Si Si3 0.830445 0.059922 0.852509
Si Si4 0.350881 0.470731 0.626170
O O1 0.500000 0.710559 0.250000
O O2 0.696581 0.766055 0.096670
O O3 0.735001 0.566079 0.132795
O O4 0.321293 0.619892 0.186547
O O5 0.438199 0.880554 0.085390
O O6 0.642509 0.969772 0.134665
O O7 0.940926 0.915804 0.970515
O O8 0.000000 0.084953 0.750000
O O9 0.003775 0.065438 0.871516
#
# Coordination Sequence:
#
# PCOD9301156 Si02
#       4
#     8   8   8   8
#     4   9  21  37  55  85 115 144 189 230 271 336
#     4  11  20  38  64  76 116 154 176 235 285 323
#     4   9  21  39  53  86 116 140 190 233 265 336
#     4   9  21  39  55  90 109 143 196 225 276 335
#
# _framework density 22.866430999999999
#
# number of rings (size 3 to 8) (size 9 to 14) (size 15 to 20)
#    1.500    1.000    0.000    1.500    3.500    0.000 
#    4.500    2.500    0.000    0.000    0.000    0.000 
#    0.000    0.000    0.000    0.000    0.000    0.000 
#
# Total GULP energy -89091.171064 kJ/mol
# GULP energy per Si atom -5568.198191 kJ/mol
# Density = 2.281439 g / cm^3
# Si number density = 22.866431 Si / 1000 Ang^3
#
#
#
# Elastic Constant Matrix: (Units=GPa)
#
#
# Indices 1 2 3 4 5 6 
#
# 1 68.0142 2.7163 13.2015 -0.0019 12.6402 0.0007
# 2 2.7163 38.0329 27.3600 -0.0021 -1.9838 -0.0013
# 3 13.2015 27.3600 53.1129 -0.0017 14.8188 0.0004
# 4 -0.0019 -0.0021 -0.0017 -14.4207 0.0006 5.1534
# 5 12.6402 -1.9838 14.8188 0.0006 25.9654 -0.0012
# 6 0.0007 -0.0013 0.0004 5.1534 -0.0012 12.3676
#
#
#
# Elastic Compliance Matrix: (Units=1/GPa)
#
#
# Indices 1 2 3 4 5 6 
#
# 1 0.016378 0.000115 -0.002269 -0.000002 -0.006669 -0.000001
# 2 0.000115 0.050757 -0.032400 0.000000 0.022313 0.000008
# 3 -0.002269 -0.032400 0.043371 -0.000003 -0.026123 -0.000006
# 4 -0.000002 0.000000 -0.000003 -0.060357 0.000005 0.025150
# 5 -0.006669 0.022313 -0.026123 0.000005 0.058373 0.000007
# 6 -0.000001 0.000008 -0.000006 0.025150 0.000007 0.070377
#
#
# Mechanical properties :
#
#
# Convention : Reuss Voigt Hill
#
# Bulk Modulus (GPa) = 24.15692 27.30171 25.72932
# Shear Modulus (GPa) = 19.09808 12.50794 15.80301
#
# Velocity S-wave (km/s) = 2.89312 2.34134 2.63173
# Velocity P-wave (km/s) = 4.66342 4.39030 4.52892
#
# Compressibility (1/GPa) = 0.04139601
#
# Stress axis : x y z
#
# Youngs Moduli (GPa) = 61.05698 19.70181 23.05705
#
# Poissons Ratio (x) = -0.00226 0.05232
# Poissons Ratio (y) = -0.00702 0.74706
# Poissons Ratio (z) = 0.13856 0.63835
#
# Static dielectric constant tensor:
#      x y z
#    x 1.897580 0.000000 0.017410 
#    y 0.000000 1.828110 0.000000 
#    z 0.017410 0.000000 1.936480 
# 
# From -- ./inp_files/184041.got.cif
#   From: 2010.05.17/outbox.cif.g08.bks.cpg/sg15_93_cif.got.tgz:184041.got - 2010.06.03 18:47:42.
