data_PCOD9301233
_publ_section_title
;
Structure prediction by ZEFSAII (Michael W. Deem and Ramdas Pophale) SiO2 
 PCOD9301233
Probable space group: C 2/C
;
_chemical_formula_sum "Si O2"
_cell_formula_units_Z 40
_cell_length_a 11.758224
_cell_length_b 15.204667
_cell_length_c 11.880016
_cell_angle_alpha 90.000000
_cell_angle_beta 81.419462
_cell_angle_gamma 90.000000
_cell_volume 2100.135189
_symmetry_space_group_name_H-M "C 2/C"
_symmetry_group_IT_number 15
_symmetry_cell_setting 'monoclinic'
loop_
_space_group_symop_operation_xyz
x,y,z
-x,y,1/2-z
-x,-y,-z
x,-y,1/2+z
1/2+x,1/2+y,z
1/2-x,1/2+y,1/2-z
1/2-x,1/2-y,-z
1/2+x,1/2-y,1/2+z
loop_
_atom_site_type_symbol
_atom_site_label
_atom_site_fract_x
_atom_site_fract_y
_atom_site_fract_z
Si Si1 0.802747 0.278354 0.614183
Si Si2 0.254361 0.835075 0.157354
Si Si3 0.704308 0.462938 0.703350
Si Si4 0.061634 0.240391 0.519056
Si Si5 0.469543 0.564677 0.103433
O O1 0.750000 0.250000 0.500000
O O2 0.752298 0.215896 0.721587
O O3 0.775041 0.379237 0.651194
O O4 0.940773 0.270511 0.587578
O O5 0.143169 0.801738 0.103033
O O6 0.250713 0.940004 0.174225
O O7 0.363217 0.809153 0.063939
O O8 0.660930 0.455238 0.838136
O O9 0.579875 0.450830 0.664982
O O10 0.030217 0.164336 0.435730
O O11 0.500000 0.500000 0.000000
#
# Coordination Sequence:
#
# PCOD9301233 Si02
#       5
#     8   8   8   8   8
#     4  12  25  42  67  98 135 174 219 271 333 392
#     4  11  25  43  65  98 130 171 221 276 329 391
#     4  11  24  38  66  97 130 168 222 269 328 396
#     4  11  23  43  68  91 135 168 216 277 333 381
#     4  11  20  39  67  96 122 169 225 276 320 380
#
# _framework density 19.046393999999999
#
# number of rings (size 3 to 8) (size 9 to 14) (size 15 to 20)
#    0.000    0.800    6.000    1.800    2.800    1.600 
#    0.000    0.000    4.400    0.000    0.000    0.000 
#    0.000    0.000    0.000    0.000    0.000    0.000 
#
# Total GULP energy -111511.170018 kJ/mol
# GULP energy per Si atom -5575.558501 kJ/mol
# Density = 1.900304 g / cm^3
# Si number density = 19.046394 Si / 1000 Ang^3
#
#
#
# Elastic Constant Matrix: (Units=GPa)
#
#
# Indices 1 2 3 4 5 6 
#
# 1 46.3812 26.8597 8.0658 0.0000 -21.2222 0.0000
# 2 26.8597 184.8217 51.5484 0.0000 -27.3185 0.0000
# 3 8.0658 51.5484 69.6294 0.0000 -21.1429 0.0000
# 4 0.0000 0.0000 0.0000 26.6405 0.0000 -8.6461
# 5 -21.2222 -27.3185 -21.1429 0.0000 35.7685 0.0000
# 6 0.0000 0.0000 0.0000 -8.6461 0.0000 26.2168
#
#
#
# Elastic Compliance Matrix: (Units=1/GPa)
#
#
# Indices 1 2 3 4 5 6 
#
# 1 0.031086 -0.002939 0.004258 0.000000 0.018716 0.000000
# 2 -0.002939 0.007319 -0.004765 0.000000 0.001029 0.000000
# 3 0.004258 -0.004765 0.020790 0.000000 0.011176 0.000000
# 4 0.000000 0.000000 0.000000 0.042036 0.000000 0.013863
# 5 0.018716 0.001029 0.011176 0.000000 0.046455 0.000000
# 6 0.000000 0.000000 0.000000 0.013863 0.000000 0.042716
#
#
# Mechanical properties :
#
#
# Convention : Reuss Voigt Hill
#
# Bulk Modulus (GPa) = 19.11970 52.64222 35.88096
# Shear Modulus (GPa) = 23.28531 32.01569 27.65050
#
# Velocity S-wave (km/s) = 3.50030 4.10436 3.81431
# Velocity P-wave (km/s) = 5.13775 7.08237 6.18694
#
# Compressibility (1/GPa) = 0.05230207
#
# Stress axis : x y z
#
# Youngs Moduli (GPa) = 32.16917 136.63103 48.10005
#
# Poissons Ratio (x) = 0.40152 -0.20480
# Poissons Ratio (y) = 0.09454 0.22922
# Poissons Ratio (z) = -0.13697 0.65110
#
# Static dielectric constant tensor:
#      x y z
#    x 1.650810 0.000000 0.044780 
#    y 0.000000 1.650170 0.000000 
#    z 0.044780 0.000000 1.123850 
# 
# From -- ./inp_files/85489.got.cif
#   From: 2010.05.17/outbox.cif.g08.bks.cpg/sg15_43_cif.got.tgz:85489.got - 2010.06.03 18:47:42.
