data_PCOD9301018
_publ_section_title
;
Structure prediction by ZEFSAII (Michael W. Deem and Ramdas Pophale) SiO2 
 PCOD9301018
Probable space group: C 2/C
;
_chemical_formula_sum "Si O2"
_cell_formula_units_Z 56
_cell_length_a 11.189683
_cell_length_b 26.964803
_cell_length_c 14.790268
_cell_angle_alpha 90.000000
_cell_angle_beta 137.701825
_cell_angle_gamma 90.000000
_cell_volume 3003.302065
_symmetry_space_group_name_H-M "C 2/C"
_symmetry_group_IT_number 15
_symmetry_cell_setting 'monoclinic'
loop_
_space_group_symop_operation_xyz
x,y,z
-x,y,1/2-z
-x,-y,-z
x,-y,1/2+z
1/2+x,1/2+y,z
1/2-x,1/2+y,1/2-z
1/2-x,1/2-y,-z
1/2+x,1/2-y,1/2+z
loop_
_atom_site_type_symbol
_atom_site_label
_atom_site_fract_x
_atom_site_fract_y
_atom_site_fract_z
Si Si1 0.184051 0.585131 0.986758
Si Si2 0.006333 0.888094 0.539903
Si Si3 0.434903 0.815276 0.113576
Si Si4 0.717205 0.462411 0.777618
Si Si5 0.925684 0.478717 0.611886
Si Si6 0.524459 0.438236 0.362800
Si Si7 0.520686 0.707194 0.370248
O O1 0.068432 0.633866 0.944706
O O2 0.076658 0.538228 0.892562
O O3 0.319136 0.600072 0.983127
O O4 0.298790 0.565198 0.135405
O O5 0.063381 0.834468 0.611782
O O6 0.137924 0.928724 0.654753
O O7 0.993391 0.899692 0.426702
O O8 0.500000 0.828029 0.250000
O O9 0.532411 0.764264 0.139727
O O10 0.229801 0.799188 0.004770
O O11 0.928420 0.464830 0.880636
O O12 0.613533 0.514874 0.712684
O O13 0.000000 0.461831 0.750000
O O14 0.725856 0.459551 0.484298
O O15 0.500000 0.415484 0.250000
O O16 0.500000 0.698094 0.250000
#
# Coordination Sequence:
#
# PCOD9301018 Si02
#       7
#     8   8   8   8   8   8   8
#     4  11  21  35  56  87 120 153 191 240 304 356
#     4  11  20  36  59  81 115 159 198 239 298 357
#     4   9  18  33  53  85 121 143 185 243 298 362
#     4  12  22  38  58  83 119 164 201 243 294 361
#     4  12  23  38  56  82 121 162 206 248 284 349
#     4  12  24  40  55  81 121 163 210 250 285 349
#     4   9  18  34  58  85 116 149 185 239 305 365
#
# _framework density 18.646142000000001
#
# number of rings (size 3 to 8) (size 9 to 14) (size 15 to 20)
#    0.000    1.143    4.286    4.286    0.000    1.143 
#    0.000    0.000    0.000    0.000    0.000    2.000 
#    0.000    0.000    0.000    0.000    0.000    0.000 
#
# Total GULP energy -156060.979339 kJ/mol
# GULP energy per Si atom -5573.606405 kJ/mol
# Density = 1.860370 g / cm^3
# Si number density = 18.646142 Si / 1000 Ang^3
#
#
#
# Elastic Constant Matrix: (Units=GPa)
#
#
# Indices 1 2 3 4 5 6 
#
# 1 80.4711 39.1716 34.1798 0.0000 -13.3442 0.0000
# 2 39.1716 96.8105 16.9991 0.0000 -14.9686 0.0000
# 3 34.1798 16.9991 103.5068 0.0000 -25.9695 0.0000
# 4 0.0000 0.0000 0.0000 22.5656 0.0000 -4.5747
# 5 -13.3442 -14.9686 -25.9695 0.0000 28.5158 0.0000
# 6 0.0000 0.0000 0.0000 -4.5747 0.0000 10.2533
#
#
#
# Elastic Compliance Matrix: (Units=1/GPa)
#
#
# Indices 1 2 3 4 5 6 
#
# 1 0.017494 -0.006153 -0.004566 0.000000 0.000798 0.000000
# 2 -0.006153 0.013424 0.001131 0.000000 0.005197 0.000000
# 3 -0.004566 0.001131 0.013734 0.000000 0.010965 0.000000
# 4 0.000000 0.000000 0.000000 0.048722 0.000000 0.021738
# 5 0.000798 0.005197 0.010965 0.000000 0.048156 0.000000
# 6 0.000000 0.000000 0.000000 0.021738 0.000000 0.107228
#
#
# Mechanical properties :
#
#
# Convention : Reuss Voigt Hill
#
# Bulk Modulus (GPa) = 39.25209 51.27658 45.26434
# Shear Modulus (GPa) = 18.08800 24.96282 21.52541
#
# Velocity S-wave (km/s) = 3.11797 3.66288 3.40136
# Velocity P-wave (km/s) = 5.83601 6.74155 6.30506
#
# Compressibility (1/GPa) = 0.02547635
#
# Stress axis : x y z
#
# Youngs Moduli (GPa) = 57.16306 74.49250 72.81071
#
# Poissons Ratio (x) = 0.45837 0.33245
# Poissons Ratio (y) = 0.35174 -0.08237
# Poissons Ratio (z) = 0.26100 -0.08427
#
# Static dielectric constant tensor:
#      x y z
#    x 1.690860 0.000000 -0.001400 
#    y 0.000000 1.729960 0.000000 
#    z -0.001400 0.000000 1.692010 
# 
# From -- ./inp_files/148569.got.cif
#   From: 2010.05.17/outbox.cif.g08.bks.cpg/sg15_75_cif.got.tgz:148569.got - 2010.06.03 18:47:42.
