data_PCOD9301720
_publ_section_title
;
Structure prediction by ZEFSAII (Michael W. Deem and Ramdas Pophale) SiO2 
 PCOD9301720
Probable space group: C 2/C
;
_chemical_formula_sum "Si O2"
_cell_formula_units_Z 64
_cell_length_a 22.167596
_cell_length_b 18.399843
_cell_length_c 14.292551
_cell_angle_alpha 90.000000
_cell_angle_beta 153.672832
_cell_angle_gamma 90.000000
_cell_volume 2585.427698
_symmetry_space_group_name_H-M "C 2/C"
_symmetry_group_IT_number 15
_symmetry_cell_setting 'monoclinic'
loop_
_space_group_symop_operation_xyz
x,y,z
-x,y,1/2-z
-x,-y,-z
x,-y,1/2+z
1/2+x,1/2+y,z
1/2-x,1/2+y,1/2-z
1/2-x,1/2-y,-z
1/2+x,1/2-y,1/2+z
loop_
_atom_site_type_symbol
_atom_site_label
_atom_site_fract_x
_atom_site_fract_y
_atom_site_fract_z
Si Si1 0.586424 0.830012 0.456734
Si Si2 0.690780 0.550706 0.249543
Si Si3 0.390684 0.042040 0.286387
Si Si4 0.492998 0.804711 0.528749
Si Si5 0.693378 0.327265 0.109952
Si Si6 0.928220 0.140549 0.863032
Si Si7 0.356168 0.923528 0.545191
Si Si8 0.853816 0.954863 0.588229
O O1 0.500000 0.856512 0.250000
O O2 0.704694 0.887693 0.638391
O O3 0.492572 0.811390 0.415039
O O4 0.656873 0.753875 0.530337
O O5 0.780103 0.475831 0.362444
O O6 0.661348 0.548499 0.321137
O O7 0.543269 0.578680 0.005326
O O8 0.407554 0.128292 0.312555
O O9 0.406576 0.022552 0.198937
O O10 0.500000 0.000000 0.500000
O O11 0.241562 0.013340 0.095835
O O12 0.345690 0.826341 0.362681
O O13 0.529297 0.722524 0.606385
O O14 0.594854 0.353113 0.056274
O O15 0.687724 0.377760 0.012739
O O16 0.779312 0.121660 0.614994
O O17 0.500000 0.878345 0.750000
O O18 0.000000 0.969607 0.750000
#
# Coordination Sequence:
#
# PCOD9301720 Si02
#       8
#     8   8   8   8   8   8   8   8
#     4  11  24  36  61  99 137 170 214 269 334 400
#     4  11  23  41  64 100 132 168 213 277 332 392
#     4  11  25  44  65  94 128 172 223 271 323 392
#     4  11  24  43  65  94 131 179 220 269 329 390
#     4  11  21  38  65  94 132 177 214 267 330 403
#     4  11  24  44  66  98 132 171 222 269 331 394
#     4  11  26  44  70  98 128 177 224 271 333 391
#     4  11  22  38  64  95 129 168 218 266 330 391
#
# _framework density 24.754123
#
# number of rings (size 3 to 8) (size 9 to 14) (size 15 to 20)
#    0.000    1.000    3.750    2.625    5.250    1.500 
#    4.500    0.625    0.000    0.000    0.000    0.000 
#    0.000    0.000    0.000    0.000    0.000    0.000 
#
# Total GULP energy -178574.494091 kJ/mol
# GULP energy per Si atom -5580.452940 kJ/mol
# Density = 2.469778 g / cm^3
# Si number density = 24.754123 Si / 1000 Ang^3
#
#
#
# Elastic Constant Matrix: (Units=GPa)
#
#
# Indices 1 2 3 4 5 6 
#
# 1 41.5360 2.0769 11.0325 0.0000 2.6907 0.0000
# 2 2.0769 133.3468 36.8250 0.0000 10.0966 0.0000
# 3 11.0325 36.8250 148.8140 0.0000 21.4421 0.0000
# 4 0.0000 0.0000 0.0000 40.3481 0.0000 12.8729
# 5 2.6907 10.0966 21.4421 0.0000 39.7566 0.0000
# 6 0.0000 0.0000 0.0000 12.8729 0.0000 14.8383
#
#
#
# Elastic Compliance Matrix: (Units=1/GPa)
#
#
# Indices 1 2 3 4 5 6 
#
# 1 0.024582 0.000159 -0.001752 0.000000 -0.000759 0.000000
# 2 0.000159 0.008091 -0.001861 0.000000 -0.001062 0.000000
# 3 -0.001752 -0.001861 0.007834 0.000000 -0.003634 0.000000
# 4 0.000000 0.000000 0.000000 0.034270 0.000000 -0.029731
# 5 -0.000759 -0.001062 -0.003634 0.000000 0.027434 0.000000
# 6 0.000000 0.000000 0.000000 -0.029731 0.000000 0.093186
#
#
# Mechanical properties :
#
#
# Convention : Reuss Voigt Hill
#
# Bulk Modulus (GPa) = 29.76407 47.06285 38.41346
# Shear Modulus (GPa) = 23.41860 37.23941 30.32901
#
# Velocity S-wave (km/s) = 3.07913 3.88283 3.50410
# Velocity P-wave (km/s) = 4.96904 6.25741 5.65007
#
# Compressibility (1/GPa) = 0.03359756
#
# Stress axis : x y z
#
# Youngs Moduli (GPa) = 40.67990 123.59273 127.65201
#
# Poissons Ratio (x) = -0.01959 0.22369
# Poissons Ratio (y) = -0.00645 0.23755
# Poissons Ratio (z) = 0.07128 0.23000
#
# Static dielectric constant tensor:
#      x y z
#    x 2.128000 0.000000 0.047310 
#    y 0.000000 1.995550 0.000000 
#    z 0.047310 0.000000 2.062020 
# 
# From -- ./inp_files/223174.got.cif
#   From: 2010.05.17/outbox.cif.g08.bks.cpg/sg15_112_cif.got.tgz:223174.got - 2010.06.03 18:47:42.
