data_PCOD9301020
_publ_section_title
;
Structure prediction by ZEFSAII (Michael W. Deem and Ramdas Pophale) SiO2 
 PCOD9301020
Probable space group: C 2/C
;
_chemical_formula_sum "Si O2"
_cell_formula_units_Z 56
_cell_length_a 13.244286
_cell_length_b 22.544586
_cell_length_c 13.891101
_cell_angle_alpha 90.000000
_cell_angle_beta 136.830931
_cell_angle_gamma 90.000000
_cell_volume 2837.664327
_symmetry_space_group_name_H-M "C 2/C"
_symmetry_group_IT_number 15
_symmetry_cell_setting 'monoclinic'
loop_
_space_group_symop_operation_xyz
x,y,z
-x,y,1/2-z
-x,-y,-z
x,-y,1/2+z
1/2+x,1/2+y,z
1/2-x,1/2+y,1/2-z
1/2-x,1/2-y,-z
1/2+x,1/2-y,1/2+z
loop_
_atom_site_type_symbol
_atom_site_label
_atom_site_fract_x
_atom_site_fract_y
_atom_site_fract_z
Si Si1 0.094802 0.088317 0.089571
Si Si2 0.088635 0.971775 0.209832
Si Si3 0.825289 0.650505 0.127076
Si Si4 0.923168 0.798988 0.797720
Si Si5 0.886186 0.771995 0.251225
Si Si6 0.814693 0.624144 0.898486
Si Si7 0.433398 0.796330 0.968821
O O1 0.249173 0.106536 0.148472
O O2 0.040329 0.147956 0.103150
O O3 0.103132 0.037240 0.175515
O O4 0.997829 0.065393 0.932560
O O5 0.246872 0.939661 0.330187
O O6 0.000000 0.970950 0.250000
O O7 0.794972 0.718051 0.139025
O O8 0.000000 0.644555 0.250000
O O9 0.783841 0.636638 0.989534
O O10 0.745167 0.798151 0.656523
O O11 0.000000 0.810440 0.750000
O O12 0.994166 0.739513 0.892771
O O13 0.786105 0.824749 0.219793
O O14 0.968974 0.740574 0.396576
O O15 0.000000 0.793816 0.250000
O O16 0.981455 0.641107 0.985546
#
# Coordination Sequence:
#
# PCOD9301020 Si02
#       7
#     8   8   8   8   8   8   8
#     4  11  23  43  67  90 126 172 218 263 324 375
#     4  11  24  41  67  95 123 171 222 267 310 380
#     4  11  20  36  59  93 132 160 200 263 327 386
#     4  12  26  45  65  92 131 175 219 266 315 389
#     4  11  21  32  61  99 132 161 195 253 331 395
#     4  12  21  36  62  96 133 160 209 261 320 382
#     4  12  23  40  65  97 130 170 207 261 328 381
#
# _framework density 19.734539000000002
#
# number of rings (size 3 to 8) (size 9 to 14) (size 15 to 20)
#    0.000    0.571    7.143    2.571    2.000    0.000 
#    0.000    2.857    0.000    0.000    0.000    0.000 
#    0.000    0.000    0.000    0.000    0.000    0.000 
#
# Total GULP energy -156360.197973 kJ/mol
# GULP energy per Si atom -5584.292785 kJ/mol
# Density = 1.968962 g / cm^3
# Si number density = 19.734539 Si / 1000 Ang^3
#
#
#
# Elastic Constant Matrix: (Units=GPa)
#
#
# Indices 1 2 3 4 5 6 
#
# 1 111.7145 29.4719 39.4437 0.0000 -0.9540 0.0000
# 2 29.4719 72.3452 33.2286 0.0000 -3.4586 0.0000
# 3 39.4437 33.2286 75.5621 0.0000 2.2283 0.0000
# 4 0.0000 0.0000 0.0000 -22.1319 0.0000 -51.3492
# 5 -0.9540 -3.4586 2.2283 0.0000 32.9476 0.0000
# 6 0.0000 0.0000 0.0000 -51.3492 0.0000 -17.5658
#
#
#
# Elastic Compliance Matrix: (Units=1/GPa)
#
#
# Indices 1 2 3 4 5 6 
#
# 1 0.011295 -0.002341 -0.004879 0.000000 0.000411 0.000000
# 2 -0.002341 0.017988 -0.006755 0.000000 0.002277 0.000000
# 3 -0.004879 -0.006755 0.018814 0.000000 -0.002123 0.000000
# 4 0.000000 0.000000 0.000000 0.007814 0.000000 -0.022842
# 5 0.000411 0.002277 -0.002123 0.000000 0.030746 0.000000
# 6 0.000000 0.000000 0.000000 -0.022842 0.000000 0.009845
#
#
# Mechanical properties :
#
#
# Convention : Reuss Voigt Hill
#
# Bulk Modulus (GPa) = 49.63518 51.54559 50.59038
# Shear Modulus (GPa) = 38.11902 9.14848 23.63375
#
# Velocity S-wave (km/s) = 4.39975 2.15542 3.46437
# Velocity P-wave (km/s) = 7.14258 5.68952 6.45705
#
# Compressibility (1/GPa) = 0.02014700
#
# Stress axis : x y z
#
# Youngs Moduli (GPa) = 88.53452 55.59286 53.15129
#
# Poissons Ratio (x) = 0.13013 0.25931
# Poissons Ratio (y) = 0.20725 0.35906
# Poissons Ratio (z) = 0.43194 0.37556
#
# Static dielectric constant tensor:
#      x y z
#    x 1.689640 0.000000 0.011940 
#    y 0.000000 1.701060 0.000000 
#    z 0.011940 0.000000 1.769830 
# 
# From -- ./inp_files/156222.got.cif
#   From: 2010.05.17/outbox.cif.g08.bks.cpg/sg15_79_cif.got.tgz:156222.got - 2010.06.03 18:47:42.
