data_PCOD9301438
_publ_section_title
;
Structure prediction by ZEFSAII (Michael W. Deem and Ramdas Pophale) SiO2 
 PCOD9301438
Probable space group: C 2/C
;
_chemical_formula_sum "Si O2"
_cell_formula_units_Z 56
_cell_length_a 11.924973
_cell_length_b 12.641422
_cell_length_c 16.569948
_cell_angle_alpha 90.000000
_cell_angle_beta 117.217159
_cell_angle_gamma 90.000000
_cell_volume 2221.328207
_symmetry_space_group_name_H-M "C 2/C"
_symmetry_group_IT_number 15
_symmetry_cell_setting 'monoclinic'
loop_
_space_group_symop_operation_xyz
x,y,z
-x,y,1/2-z
-x,-y,-z
x,-y,1/2+z
1/2+x,1/2+y,z
1/2-x,1/2+y,1/2-z
1/2-x,1/2-y,-z
1/2+x,1/2-y,1/2+z
loop_
_atom_site_type_symbol
_atom_site_label
_atom_site_fract_x
_atom_site_fract_y
_atom_site_fract_z
Si Si1 0.535735 0.404836 0.450095
Si Si2 0.766788 0.627480 0.489554
Si Si3 0.996945 0.337286 0.965250
Si Si4 0.489763 0.418133 0.839378
Si Si5 0.148148 0.425102 0.302573
Si Si6 0.686420 0.869063 0.887248
Si Si7 0.178844 0.716475 0.663228
O O1 0.500000 0.500000 0.500000
O O2 0.477927 0.289505 0.447810
O O3 0.469001 0.457522 0.350203
O O4 0.685983 0.385106 0.516180
O O5 0.750000 0.750000 0.500000
O O6 0.631208 0.589040 0.419480
O O7 0.809766 0.589589 0.591218
O O8 0.867925 0.609988 0.451937
O O9 0.068238 0.375842 0.908695
O O10 0.089700 0.348412 0.072858
O O11 0.500000 0.394511 0.750000
O O12 0.399941 0.325919 0.844912
O O13 0.174767 0.550068 0.308136
O O14 0.000000 0.404182 0.250000
O O15 0.797106 0.348586 0.247755
O O16 0.702825 0.754939 0.850699
#
# Coordination Sequence:
#
# PCOD9301438 Si02
#       7
#     8   8   8   8   8   8   8
#     4  11  20  45  75 105 144 197 246 311 376 441
#     4  12  22  44  79 103 142 200 251 306 376 449
#     4  11  24  45  77 106 154 198 244 317 395 445
#     4  12  24  44  73 113 137 185 263 318 362 444
#     4  12  25  48  72 107 153 200 247 308 374 458
#     4  11  26  48  70 112 158 193 249 317 391 452
#     4  11  22  47  76 107 149 193 250 321 370 443
#
# _framework density 25.210142999999999
#
# number of rings (size 3 to 8) (size 9 to 14) (size 15 to 20)
#    0.000    0.571    7.143    3.000    0.000    0.571 
#   10.286    0.714    0.000    0.000    0.000    0.000 
#    0.000    0.000    0.000    0.000    0.000    0.000 
#
# Total GULP energy -156538.736527 kJ/mol
# GULP energy per Si atom -5590.669162 kJ/mol
# Density = 2.515276 g / cm^3
# Si number density = 25.210143 Si / 1000 Ang^3
#
#
#
# Elastic Constant Matrix: (Units=GPa)
#
#
# Indices 1 2 3 4 5 6 
#
# 1 154.9569 30.1444 56.8291 0.0000 -14.6553 0.0000
# 2 30.1444 91.1298 29.3753 0.0000 -7.5996 0.0000
# 3 56.8291 29.3753 102.7928 0.0000 -4.2746 0.0000
# 4 0.0000 0.0000 0.0000 18.7183 0.0000 3.3862
# 5 -14.6553 -7.5996 -4.2746 0.0000 32.5454 0.0000
# 6 0.0000 0.0000 0.0000 3.3862 0.0000 24.3421
#
#
#
# Elastic Compliance Matrix: (Units=1/GPa)
#
#
# Indices 1 2 3 4 5 6 
#
# 1 0.008529 -0.001202 -0.004247 0.000000 0.003002 0.000000
# 2 -0.001202 0.012443 -0.002808 0.000000 0.001995 0.000000
# 3 -0.004247 -0.002808 0.012842 0.000000 -0.000881 0.000000
# 4 0.000000 0.000000 0.000000 0.054803 0.000000 -0.007623
# 5 0.003002 0.001995 -0.000881 0.000000 0.032428 0.000000
# 6 0.000000 0.000000 0.000000 -0.007623 0.000000 0.042142
#
#
# Mechanical properties :
#
#
# Convention : Reuss Voigt Hill
#
# Bulk Modulus (GPa) = 57.80569 64.61968 61.21269
# Shear Modulus (GPa) = 26.95913 30.62322 28.79117
#
# Velocity S-wave (km/s) = 3.27368 3.48906 3.38309
# Velocity P-wave (km/s) = 6.10480 6.47452 6.29238
#
# Compressibility (1/GPa) = 0.01729934
#
# Stress axis : x y z
#
# Youngs Moduli (GPa) = 117.25272 80.36923 77.86949
#
# Poissons Ratio (x) = 0.09659 0.33069
# Poissons Ratio (y) = 0.14092 0.21868
# Poissons Ratio (z) = 0.49794 0.22570
#
# Static dielectric constant tensor:
#      x y z
#    x 2.049360 0.000000 -0.112050 
#    y 0.000000 2.287070 0.000000 
#    z -0.112050 0.000000 2.049190 
# 
# From -- ./inp_files/198418.got.cif
#   From: 2010.05.17/outbox.cif.g08.bks.cpg/sg15_100_cif.got.tgz:198418.got - 2010.06.03 18:47:42.
