data_PCOD9301980
_publ_section_title
;
Structure prediction by ZEFSAII (Michael W. Deem and Ramdas Pophale) SiO2 
 PCOD9301980
Probable space group: C 2/C
;
_chemical_formula_sum "Si O2"
_cell_formula_units_Z 48
_cell_length_a 22.006377
_cell_length_b 16.257764
_cell_length_c 18.103062
_cell_angle_alpha 90.000000
_cell_angle_beta 19.201184
_cell_angle_gamma 90.000000
_cell_volume 2130.134387
_symmetry_space_group_name_H-M "C 2/C"
_symmetry_group_IT_number 15
_symmetry_cell_setting 'monoclinic'
loop_
_space_group_symop_operation_xyz
x,y,z
-x,y,1/2-z
-x,-y,-z
x,-y,1/2+z
1/2+x,1/2+y,z
1/2-x,1/2+y,1/2-z
1/2-x,1/2-y,-z
1/2+x,1/2-y,1/2+z
loop_
_atom_site_type_symbol
_atom_site_label
_atom_site_fract_x
_atom_site_fract_y
_atom_site_fract_z
Si Si1 0.459319 0.177330 0.635152
Si Si2 0.297325 0.424458 0.962863
Si Si3 0.350474 0.400163 0.474075
Si Si4 0.649538 0.362244 0.754781
Si Si5 0.928491 0.868046 0.144354
Si Si6 0.959895 0.321763 0.965055
O O1 0.425567 0.274024 0.686389
O O2 0.673077 0.157343 0.399363
O O3 0.410805 0.155707 0.606323
O O4 0.347932 0.127379 0.823906
O O5 0.500000 0.390813 0.750000
O O6 0.282920 0.414929 0.891831
O O7 0.294787 0.517414 0.994660
O O8 0.472114 0.420876 0.406841
O O9 0.500000 0.353531 0.250000
O O10 0.159906 0.356015 0.712659
O O11 0.496729 0.396933 0.985615
O O12 0.708020 0.854113 0.393122
O O13 0.015343 0.776994 0.060607
#
# Coordination Sequence:
#
# PCOD9301980 Si02
#       6
#     8   8   8   8   8   8
#     4  11  21  40  72 104 136 176 226 286 339 409
#     4  11  24  43  60  96 144 182 222 276 343 417
#     4  11  26  47  64  97 143 179 229 285 342 407
#     4  11  21  41  72 103 136 177 227 281 345 407
#     4  11  21  44  74 103 129 178 227 291 339 400
#     4  11  21  43  74 103 133 173 237 282 342 403
#
# _framework density 22.533788999999999
#
# number of rings (size 3 to 8) (size 9 to 14) (size 15 to 20)
#    0.000    1.000    3.333    6.000    0.000    2.000 
#   12.000    4.167    0.000    0.000    0.000    0.000 
#    0.000    0.000    0.000    0.000    0.000    0.000 
#
# Total GULP energy -134178.363976 kJ/mol
# GULP energy per Si atom -5590.765166 kJ/mol
# Density = 2.248250 g / cm^3
# Si number density = 22.533789 Si / 1000 Ang^3
#
#
#
# Elastic Constant Matrix: (Units=GPa)
#
#
# Indices 1 2 3 4 5 6 
#
# 1 84.7720 38.3722 35.0471 -0.0164 3.6075 0.0182
# 2 38.3722 62.7499 27.9078 0.0065 15.2349 -0.0147
# 3 35.0471 27.9078 147.6869 -0.0007 7.1728 -0.0068
# 4 -0.0164 0.0065 -0.0007 29.6873 -0.0002 30.9071
# 5 3.6075 15.2349 7.1728 -0.0002 52.8152 0.0054
# 6 0.0182 -0.0147 -0.0068 30.9071 0.0054 27.8826
#
#
#
# Elastic Compliance Matrix: (Units=1/GPa)
#
#
# Indices 1 2 3 4 5 6 
#
# 1 0.017170 -0.009971 -0.002288 -0.000193 0.002014 0.000197
# 2 -0.009971 0.024376 -0.001944 0.000206 -0.006086 -0.000209
# 3 -0.002288 -0.001944 0.007697 0.000021 -0.000328 -0.000020
# 4 -0.000193 0.000206 0.000021 -0.218707 -0.000075 0.242431
# 5 0.002014 -0.006086 -0.000328 -0.000075 0.020597 0.000075
# 6 0.000197 -0.000209 -0.000020 0.242431 0.000075 -0.232863
#
#
# Mechanical properties :
#
#
# Convention : Reuss Voigt Hill
#
# Bulk Modulus (GPa) = 47.99324 55.31810 51.65567
# Shear Modulus (GPa) = -14.43509 35.00248 10.28369
#
# Velocity S-wave (km/s) = -2.53375 3.94551 2.13859
# Velocity P-wave (km/s) = 3.57558 6.73486 5.39180
#
# Compressibility (1/GPa) = 0.02083627
#
# Stress axis : x y z
#
# Youngs Moduli (GPa) = 58.24159 41.02406 129.91288
#
# Poissons Ratio (x) = 0.40904 0.29727
# Poissons Ratio (y) = 0.58072 0.25262
# Poissons Ratio (z) = 0.13327 0.07977
#
# Static dielectric constant tensor:
#      x y z
#    x 1.876110 0.000000 0.021100 
#    y 0.000000 1.848290 0.000000 
#    z 0.021100 0.000000 1.836730 
# 
# From -- ./inp_files/216258.got.cif
#   From: 2010.05.17/outbox.cif.g08.bks.cpg/sg15_109_cif.got.tgz:216258.got - 2010.06.03 18:47:42.
