data_PCOD9301653
_publ_section_title
;
Structure prediction by ZEFSAII (Michael W. Deem and Ramdas Pophale) SiO2 
 PCOD9301653
Probable space group: C 2/C
;
_chemical_formula_sum "Si O2"
_cell_formula_units_Z 44
_cell_length_a 29.451903
_cell_length_b 7.595594
_cell_length_c 20.625141
_cell_angle_alpha 90.000000
_cell_angle_beta 157.475802
_cell_angle_gamma 90.000000
_cell_volume 1767.478893
_symmetry_space_group_name_H-M "C 2/C"
_symmetry_group_IT_number 15
_symmetry_cell_setting 'monoclinic'
loop_
_space_group_symop_operation_xyz
x,y,z
-x,y,1/2-z
-x,-y,-z
x,-y,1/2+z
1/2+x,1/2+y,z
1/2-x,1/2+y,1/2-z
1/2-x,1/2-y,-z
1/2+x,1/2-y,1/2+z
loop_
_atom_site_type_symbol
_atom_site_label
_atom_site_fract_x
_atom_site_fract_y
_atom_site_fract_z
Si Si1 0.000000 0.108073 0.750000
Si Si2 0.659721 0.048101 0.120819
Si Si3 0.241366 0.396671 0.876777
Si Si4 0.880639 0.084914 0.721345
Si Si5 0.596125 0.317828 0.587480
Si Si6 0.417960 0.801685 0.285997
O O1 0.934539 0.177806 0.728423
O O2 0.877470 0.036548 0.555090
O O3 0.784011 0.072625 0.249557
O O4 0.687529 0.099460 0.232950
O O5 0.622545 0.845987 0.075037
O O6 0.553303 0.153272 0.946026
O O7 0.221135 0.202940 0.880733
O O8 0.166033 0.527702 0.823713
O O9 0.865044 0.876886 0.685898
O O10 0.985860 0.083072 0.912738
O O11 0.570030 0.234143 0.621627
#
# Coordination Sequence:
#
# PCOD9301653 Si02
#       6
#     4   8   8   8   8   8
#     4  12  28  46  68  94 130 186 232 262 306 402
#     4  11  21  38  67 104 134 160 217 275 338 396
#     4  11  24  47  65  96 137 173 219 271 323 391
#     4  12  24  45  69  94 136 176 219 265 331 391
#     4  11  21  37  67 103 131 165 210 273 338 398
#     4  11  24  41  70 102 129 167 214 283 343 384
#
# _framework density 24.894214999999999
#
# number of rings (size 3 to 8) (size 9 to 14) (size 15 to 20)
#    0.000    0.727    5.455    3.273    5.091    0.727 
#    0.000    1.818    0.000    0.000    0.000    0.000 
#    0.000    0.000    0.000    0.000    0.000    0.000 
#
# Total GULP energy -122802.560155 kJ/mol
# GULP energy per Si atom -5581.934553 kJ/mol
# Density = 2.483756 g / cm^3
# Si number density = 24.894215 Si / 1000 Ang^3
#
#
#
# Elastic Constant Matrix: (Units=GPa)
#
#
# Indices 1 2 3 4 5 6 
#
# 1 29.2999 -6.7416 -0.8399 0.0000 -1.7109 0.0000
# 2 -6.7416 121.7797 37.9624 0.0000 2.7330 0.0000
# 3 -0.8399 37.9624 154.6040 0.0000 8.6505 0.0000
# 4 0.0000 0.0000 0.0000 18.8797 0.0000 14.0012
# 5 -1.7109 2.7330 8.6505 0.0000 30.8370 0.0000
# 6 0.0000 0.0000 0.0000 14.0012 0.0000 11.4931
#
#
#
# Elastic Compliance Matrix: (Units=1/GPa)
#
#
# Indices 1 2 3 4 5 6 
#
# 1 0.034688 0.002006 -0.000408 0.000000 0.001861 0.000000
# 2 0.002006 0.009009 -0.002197 0.000000 -0.000071 0.000000
# 3 -0.000408 -0.002197 0.007107 0.000000 -0.001822 0.000000
# 4 0.000000 0.000000 0.000000 0.548550 0.000000 -0.668260
# 5 0.001861 -0.000071 -0.001822 0.000000 0.033049 0.000000
# 6 0.000000 0.000000 0.000000 -0.668260 0.000000 0.901104
#
#
# Mechanical properties :
#
#
# Convention : Reuss Voigt Hill
#
# Bulk Modulus (GPa) = 20.15910 40.71615 30.43763
# Shear Modulus (GPa) = 3.22322 30.59547 16.90935
#
# Velocity S-wave (km/s) = 1.13911 3.50954 2.60907
# Velocity P-wave (km/s) = 3.13777 5.72832 4.61840
#
# Compressibility (1/GPa) = 0.04960538
#
# Stress axis : x y z
#
# Youngs Moduli (GPa) = 28.82817 110.99835 140.69869
#
# Poissons Ratio (x) = -0.22264 0.05743
# Poissons Ratio (y) = -0.05782 0.30916
# Poissons Ratio (z) = 0.01177 0.24390
#
# Static dielectric constant tensor:
#      x y z
#    x 1.970300 0.000000 -0.005730 
#    y 0.000000 2.048630 0.000000 
#    z -0.005730 0.000000 2.050480 
# 
# From -- ./inp_files/284500.got.cif
#   From: 2010.05.17/outbox.cif.g08.bks.cpg/sg15_143_cif.got.tgz:284500.got - 2010.06.03 18:47:42.
