data_PCOD9301493
_publ_section_title
;
Structure prediction by ZEFSAII (Michael W. Deem and Ramdas Pophale) SiO2 
 PCOD9301493
Probable space group: C 2/C
;
_chemical_formula_sum "Si O2"
_cell_formula_units_Z 64
_cell_length_a 10.372790
_cell_length_b 24.661926
_cell_length_c 12.532478
_cell_angle_alpha 90.000000
_cell_angle_beta 100.197288
_cell_angle_gamma 90.000000
_cell_volume 3155.328990
_symmetry_space_group_name_H-M "C 2/C"
_symmetry_group_IT_number 15
_symmetry_cell_setting 'monoclinic'
loop_
_space_group_symop_operation_xyz
x,y,z
-x,y,1/2-z
-x,-y,-z
x,-y,1/2+z
1/2+x,1/2+y,z
1/2-x,1/2+y,1/2-z
1/2-x,1/2-y,-z
1/2+x,1/2-y,1/2+z
loop_
_atom_site_type_symbol
_atom_site_label
_atom_site_fract_x
_atom_site_fract_y
_atom_site_fract_z
Si Si1 0.607245 0.063706 0.683297
Si Si2 0.521617 0.202801 0.489201
Si Si3 0.854200 0.560406 0.268629
Si Si4 0.118844 0.595819 0.991501
Si Si5 0.748316 0.342143 0.628613
Si Si6 0.785929 0.130731 0.826280
Si Si7 0.547271 0.683544 0.913007
Si Si8 0.276670 0.228102 0.794704
O O1 0.500000 0.088026 0.750000
O O2 0.519017 0.066575 0.563885
O O3 0.735012 0.100741 0.711172
O O4 0.646723 0.004859 0.733187
O O5 0.414028 0.158428 0.494108
O O6 0.622529 0.175668 0.419093
O O7 0.476869 0.260757 0.439496
O O8 0.604457 0.214430 0.608233
O O9 0.834991 0.572781 0.390001
O O10 0.762823 0.599210 0.184328
O O11 0.000000 0.575656 0.250000
O O12 0.226972 0.595645 0.914591
O O13 0.632517 0.337760 0.525034
O O14 0.731232 0.293092 0.711714
O O15 0.718580 0.190216 0.807484
O O16 0.939178 0.140707 0.861863
O O17 0.647393 0.705522 0.837873
#
# Coordination Sequence:
#
# PCOD9301493 Si02
#       8
#     8   8   8   8   8   8   8   8
#     4   9  21  38  56  82 111 143 185 234 283 327
#     4   9  17  34  56  84 112 140 177 235 275 320
#     4  11  21  36  60  82 105 145 195 236 278 322
#     4  11  21  35  55  85 115 141 180 234 289 325
#     4   9  19  36  57  85 110 142 188 234 266 316
#     4  11  21  35  56  81 118 150 179 221 277 342
#     4   9  20  35  55  84 117 146 185 219 270 333
#     4   9  18  34  57  81 115 147 179 227 271 323
#
# _framework density 20.283145999999999
#
# number of rings (size 3 to 8) (size 9 to 14) (size 15 to 20)
#    0.000    2.250    2.500    2.250    1.750    0.500 
#    0.000    1.250    0.000    1.500    0.000    0.000 
#    0.000    0.000    0.000    0.000    0.000    0.000 
#
# Total GULP energy -178358.082098 kJ/mol
# GULP energy per Si atom -5573.690066 kJ/mol
# Density = 2.023698 g / cm^3
# Si number density = 20.283146 Si / 1000 Ang^3
#
#
#
# Elastic Constant Matrix: (Units=GPa)
#
#
# Indices 1 2 3 4 5 6 
#
# 1 38.7803 26.2300 14.7842 0.0000 16.0672 0.0000
# 2 26.2300 94.3652 27.5988 0.0000 19.2380 0.0000
# 3 14.7842 27.5988 65.0263 0.0000 9.2185 0.0000
# 4 0.0000 0.0000 0.0000 23.5414 0.0000 1.5087
# 5 16.0672 19.2380 9.2185 0.0000 24.2856 0.0000
# 6 0.0000 0.0000 0.0000 1.5087 0.0000 24.2067
#
#
#
# Elastic Compliance Matrix: (Units=1/GPa)
#
#
# Indices 1 2 3 4 5 6 
#
# 1 0.039429 -0.005791 -0.003656 0.000000 -0.020111 0.000000
# 2 -0.005791 0.014657 -0.004018 0.000000 -0.006254 0.000000
# 3 -0.003656 -0.004018 0.018094 0.000000 -0.001267 0.000000
# 4 0.000000 0.000000 0.000000 0.042649 0.000000 -0.002658
# 5 -0.020111 -0.006254 -0.001267 0.000000 0.059918 0.000000
# 6 0.000000 0.000000 0.000000 -0.002658 0.000000 0.041477
#
#
# Mechanical properties :
#
#
# Convention : Reuss Voigt Hill
#
# Bulk Modulus (GPa) = 22.09824 37.26643 29.68234
# Shear Modulus (GPa) = 19.36222 23.04397 21.20310
#
# Velocity S-wave (km/s) = 3.09301 3.37429 3.23670
# Velocity P-wave (km/s) = 4.86561 5.79604 5.35108
#
# Compressibility (1/GPa) = 0.04525247
#
# Stress axis : x y z
#
# Youngs Moduli (GPa) = 25.36212 68.22784 55.26595
#
# Poissons Ratio (x) = 0.39508 0.20203
# Poissons Ratio (y) = 0.14686 0.22203
# Poissons Ratio (z) = 0.09272 0.27411
#
# Static dielectric constant tensor:
#      x y z
#    x 1.748880 0.000000 -0.009080 
#    y 0.000000 1.748080 0.000000 
#    z -0.009080 0.000000 1.790710 
# 
# From -- ./inp_files/147877.got.cif
#   From: 2010.05.17/outbox.cif.g08.bks.cpg/sg15_74_cif.got.tgz:147877.got - 2010.06.03 18:47:42.
