data_PCOD9301832
_publ_section_title
;
Structure prediction by ZEFSAII (Michael W. Deem and Ramdas Pophale) SiO2 
 PCOD9301832
Probable space group: C 2/C
;
_chemical_formula_sum "Si O2"
_cell_formula_units_Z 32
_cell_length_a 22.292590
_cell_length_b 6.884246
_cell_length_c 8.805429
_cell_angle_alpha 90.000000
_cell_angle_beta 69.857729
_cell_angle_gamma 90.000000
_cell_volume 1268.700832
_symmetry_space_group_name_H-M "C 2/C"
_symmetry_group_IT_number 15
_symmetry_cell_setting 'monoclinic'
loop_
_space_group_symop_operation_xyz
x,y,z
-x,y,1/2-z
-x,-y,-z
x,-y,1/2+z
1/2+x,1/2+y,z
1/2-x,1/2+y,1/2-z
1/2-x,1/2-y,-z
1/2+x,1/2-y,1/2+z
loop_
_atom_site_type_symbol
_atom_site_label
_atom_site_fract_x
_atom_site_fract_y
_atom_site_fract_z
Si Si1 0.772181 0.008797 0.391378
Si Si2 0.452722 0.569885 0.409865
Si Si3 0.682412 0.096772 0.725560
Si Si4 0.385152 0.256370 0.247745
O O1 0.749718 0.065046 0.577403
O O2 0.820904 0.171523 0.283425
O O3 0.704518 0.981366 0.368457
O O4 0.811793 0.814144 0.343205
O O5 0.500000 0.676666 0.250000
O O6 0.500000 0.500000 0.500000
O O7 0.423101 0.387116 0.339575
O O8 0.403308 0.688277 0.558137
O O9 0.619929 0.976850 0.732628
#
# Coordination Sequence:
#
# PCOD9301832 Si02
#       4
#     8   8   8   8
#     4  11  23  39  58  99 136 166 204 250 306 402
#     4   9  21  41  66  91 119 163 224 277 320 360
#     4  11  24  37  60  92 140 168 203 246 310 390
#     4  11  21  39  67  91 125 176 203 259 325 376
#
# _framework density 25.222652
#
# number of rings (size 3 to 8) (size 9 to 14) (size 15 to 20)
#    0.000    1.500    2.500    2.250    7.000    0.000 
#    0.000    0.000    0.000   30.000    0.000    0.000 
#    0.000    0.000    0.000    0.000    0.000    0.000 
#
# Total GULP energy -89234.630811 kJ/mol
# GULP energy per Si atom -5577.164426 kJ/mol
# Density = 2.516524 g / cm^3
# Si number density = 25.222652 Si / 1000 Ang^3
#
#
#
# Elastic Constant Matrix: (Units=GPa)
#
#
# Indices 1 2 3 4 5 6 
#
# 1 86.1213 23.5205 20.0809 0.0000 10.5511 0.0000
# 2 23.5205 118.7231 18.8447 0.0000 5.7011 0.0000
# 3 20.0809 18.8447 139.7985 0.0000 -0.7781 0.0000
# 4 0.0000 0.0000 0.0000 25.7973 0.0000 0.2958
# 5 10.5511 5.7011 -0.7781 0.0000 34.4754 0.0000
# 6 0.0000 0.0000 0.0000 0.2958 0.0000 20.0998
#
#
#
# Elastic Compliance Matrix: (Units=1/GPa)
#
#
# Indices 1 2 3 4 5 6 
#
# 1 0.013021 -0.002149 -0.001601 0.000000 -0.003666 0.000000
# 2 -0.002149 0.009035 -0.000914 0.000000 -0.000857 0.000000
# 3 -0.001601 -0.000914 0.007511 0.000000 0.000811 0.000000
# 4 0.000000 0.000000 0.000000 0.038770 0.000000 -0.000571
# 5 -0.003666 -0.000857 0.000811 0.000000 0.030288 0.000000
# 6 0.000000 0.000000 0.000000 -0.000571 0.000000 0.049760
#
#
# Mechanical properties :
#
#
# Convention : Reuss Voigt Hill
#
# Bulk Modulus (GPa) = 49.41192 52.17054 50.79123
# Shear Modulus (GPa) = 30.40253 34.88764 32.64508
#
# Velocity S-wave (km/s) = 3.47560 3.72316 3.60151
# Velocity P-wave (km/s) = 5.97823 6.26190 6.12171
#
# Compressibility (1/GPa) = 0.02023803
#
# Stress axis : x y z
#
# Youngs Moduli (GPa) = 76.79911 110.68058 133.14101
#
# Poissons Ratio (x) = 0.23790 0.21316
# Poissons Ratio (y) = 0.16508 0.12168
# Poissons Ratio (z) = 0.12296 0.10115
#
# Static dielectric constant tensor:
#      x y z
#    x 1.986240 0.000000 0.032030 
#    y 0.000000 2.053650 0.000000 
#    z 0.032030 0.000000 2.050620 
# 
# From -- ./inp_files/59593.got.cif
#   From: 2010.05.17/outbox.cif.g08.bks.cpg/sg15_30_cif.got.tgz:59593.got - 2010.06.03 18:47:42.
