data_PCOD9301582
_publ_section_title
;
Structure prediction by ZEFSAII (Michael W. Deem and Ramdas Pophale) SiO2 
 PCOD9301582
Probable space group: C 2/C
;
_chemical_formula_sum "Si O2"
_cell_formula_units_Z 40
_cell_length_a 9.595061
_cell_length_b 11.011222
_cell_length_c 20.281200
_cell_angle_alpha 90.000000
_cell_angle_beta 75.095513
_cell_angle_gamma 90.000000
_cell_volume 2070.684949
_symmetry_space_group_name_H-M "C 2/C"
_symmetry_group_IT_number 15
_symmetry_cell_setting 'monoclinic'
loop_
_space_group_symop_operation_xyz
x,y,z
-x,y,1/2-z
-x,-y,-z
x,-y,1/2+z
1/2+x,1/2+y,z
1/2-x,1/2+y,1/2-z
1/2-x,1/2-y,-z
1/2+x,1/2-y,1/2+z
loop_
_atom_site_type_symbol
_atom_site_label
_atom_site_fract_x
_atom_site_fract_y
_atom_site_fract_z
Si Si1 0.989522 0.859057 0.116986
Si Si2 0.774975 0.683001 0.065758
Si Si3 0.250537 0.787089 0.891476
Si Si4 0.228310 0.426399 0.486089
Si Si5 0.478624 0.614701 0.175669
O O1 0.875090 0.770420 0.097401
O O2 0.100419 0.777034 0.145208
O O3 0.098417 0.917919 0.048900
O O4 0.941003 0.973812 0.164860
O O5 0.832296 0.549443 0.037404
O O6 0.626360 0.654363 0.121716
O O7 0.750000 0.750000 0.000000
O O8 0.173832 0.690051 0.950802
O O9 0.150655 0.813293 0.842705
O O10 0.287886 0.901041 0.934519
O O11 0.500000 0.634081 0.250000
#
# Coordination Sequence:
#
# PCOD9301582 Si02
#       5
#     8   8   8   8   8
#     4   9  20  38  59  84 116 155 192 242 293 351
#     4  11  21  36  64  94 117 150 206 247 296 355
#     4   9  18  39  59  83 124 155 186 246 302 348
#     4   8  18  36  59  89 123 143 189 250 300 347
#     4  11  24  41  58  83 122 163 200 243 298 363
#
# _framework density 19.31728
#
# number of rings (size 3 to 8) (size 9 to 14) (size 15 to 20)
#    1.200    1.200    0.000    2.400    0.000    5.600 
#    3.600    0.000    0.000    0.000    0.000    0.000 
#    0.000    0.000    0.000    0.000    0.000    0.000 
#
# Total GULP energy -111374.983881 kJ/mol
# GULP energy per Si atom -5568.749194 kJ/mol
# Density = 1.927331 g / cm^3
# Si number density = 19.317280 Si / 1000 Ang^3
#
#
#
# Elastic Constant Matrix: (Units=GPa)
#
#
# Indices 1 2 3 4 5 6 
#
# 1 82.0692 55.1895 45.5938 0.0000 32.0231 0.0000
# 2 55.1895 89.7080 66.7623 0.0000 21.2040 0.0000
# 3 45.5938 66.7623 118.0903 0.0000 36.6565 0.0000
# 4 0.0000 0.0000 0.0000 12.4510 0.0000 9.7919
# 5 32.0231 21.2040 36.6565 0.0000 34.4972 0.0000
# 6 0.0000 0.0000 0.0000 9.7919 0.0000 30.4306
#
#
#
# Elastic Compliance Matrix: (Units=1/GPa)
#
#
# Indices 1 2 3 4 5 6 
#
# 1 0.029054 -0.016241 0.004831 0.000000 -0.022121 0.000000
# 2 -0.016241 0.028326 -0.013458 0.000000 0.011966 0.000000
# 3 0.004831 -0.013458 0.019452 0.000000 -0.016882 0.000000
# 4 0.000000 0.000000 0.000000 0.107525 0.000000 -0.034599
# 5 -0.022121 0.011966 -0.016882 0.000000 0.060106 0.000000
# 6 0.000000 0.000000 0.000000 -0.034599 0.000000 0.043995
#
#
# Mechanical properties :
#
#
# Convention : Reuss Voigt Hill
#
# Bulk Modulus (GPa) = 36.90603 69.43987 53.17295
# Shear Modulus (GPa) = 14.39979 23.63054 19.01517
#
# Velocity S-wave (km/s) = 2.73323 3.50134 3.14086
# Velocity P-wave (km/s) = 5.39513 7.23678 6.38272
#
# Compressibility (1/GPa) = 0.02709585
#
# Stress axis : x y z
#
# Youngs Moduli (GPa) = 34.41827 35.30268 51.40955
#
# Poissons Ratio (x) = 0.57336 -0.24835
# Poissons Ratio (y) = 0.55899 0.69187
# Poissons Ratio (z) = -0.16627 0.47510
#
# Static dielectric constant tensor:
#      x y z
#    x 1.681420 0.000000 0.003620 
#    y 0.000000 1.733480 0.000000 
#    z 0.003620 0.000000 1.620800 
# 
# From -- ./inp_files/262841.got.cif
#   From: 2010.05.17/outbox.cif.g08.bks.cpg/sg15_132_cif.got.tgz:262841.got - 2010.06.03 18:47:42.
