data_PCOD9301737
_publ_section_title
;
Structure prediction by ZEFSAII (Michael W. Deem and Ramdas Pophale) SiO2 
 PCOD9301737
Probable space group: C 2/C
;
_chemical_formula_sum "Si O2"
_cell_formula_units_Z 64
_cell_length_a 26.476759
_cell_length_b 19.041664
_cell_length_c 10.763244
_cell_angle_alpha 90.000000
_cell_angle_beta 144.534630
_cell_angle_gamma 90.000000
_cell_volume 3148.463828
_symmetry_space_group_name_H-M "C 2/C"
_symmetry_group_IT_number 15
_symmetry_cell_setting 'monoclinic'
loop_
_space_group_symop_operation_xyz
x,y,z
-x,y,1/2-z
-x,-y,-z
x,-y,1/2+z
1/2+x,1/2+y,z
1/2-x,1/2+y,1/2-z
1/2-x,1/2-y,-z
1/2+x,1/2-y,1/2+z
loop_
_atom_site_type_symbol
_atom_site_label
_atom_site_fract_x
_atom_site_fract_y
_atom_site_fract_z
Si Si1 0.289878 0.206362 0.224920
Si Si2 0.729552 0.859816 0.170361
Si Si3 0.015387 0.721027 0.925482
Si Si4 0.486897 0.609842 0.080587
Si Si5 0.772136 0.190073 0.144133
Si Si6 0.422764 0.210590 0.996875
Si Si7 0.700571 0.419580 0.414242
Si Si8 0.327332 0.426917 0.585604
O O1 0.253111 0.285770 0.150667
O O2 0.383114 0.203643 0.346858
O O3 0.298144 0.193397 0.388717
O O4 0.224841 0.146595 0.047766
O O5 0.731633 0.916148 0.064964
O O6 0.804999 0.881680 0.418097
O O7 0.643839 0.847072 0.080063
O O8 0.005792 0.805646 0.908768
O O9 0.000000 0.699248 0.750000
O O10 0.957931 0.695377 0.927965
O O11 0.500000 0.587403 0.250000
O O12 0.570470 0.577310 0.180801
O O13 0.395046 0.589581 0.837234
O O14 0.865432 0.217909 0.379984
O O15 0.779025 0.114585 0.097802
O O16 0.750000 0.250000 0.000000
O O17 0.500000 0.217791 0.250000
O O18 0.703067 0.493592 0.487996
#
# Coordination Sequence:
#
# PCOD9301737 Si02
#       8
#     8   8   8   8   8   8   8   8
#     4  11  23  39  69  97 132 174 234 273 330 407
#     4  11  23  44  65  92 134 176 223 282 334 400
#     4  11  21  38  67 101 131 174 226 286 335 395
#     4  11  22  40  63  94 142 182 216 267 341 412
#     4  11  22  40  64  97 125 173 225 274 330 403
#     4  11  23  37  66 100 129 167 223 291 342 383
#     4  12  26  40  66  99 137 182 223 274 337 415
#     4  12  24  42  64  94 137 179 221 273 343 408
#
# _framework density 20.327373999999999
#
# number of rings (size 3 to 8) (size 9 to 14) (size 15 to 20)
#    0.000    0.750    6.250    3.000    5.250    0.000 
#    0.000    0.625    0.000    3.750    0.000    0.000 
#    0.000    0.000    0.000    0.000    0.000    0.000 
#
# Total GULP energy -178644.285845 kJ/mol
# GULP energy per Si atom -5582.633933 kJ/mol
# Density = 2.028111 g / cm^3
# Si number density = 20.327374 Si / 1000 Ang^3
#
#
#
# Elastic Constant Matrix: (Units=GPa)
#
#
# Indices 1 2 3 4 5 6 
#
# 1 103.1984 24.5140 17.9461 0.0000 16.6904 0.0000
# 2 24.5140 94.7269 33.9240 0.0000 3.1785 0.0000
# 3 17.9461 33.9240 99.5583 0.0000 3.8946 0.0000
# 4 0.0000 0.0000 0.0000 16.7081 0.0000 -0.5346
# 5 16.6904 3.1785 3.8946 0.0000 28.8899 0.0000
# 6 0.0000 0.0000 0.0000 -0.5346 0.0000 20.7766
#
#
#
# Elastic Compliance Matrix: (Units=1/GPa)
#
#
# Indices 1 2 3 4 5 6 
#
# 1 0.011437 -0.002392 -0.001004 0.000000 -0.006209 0.000000
# 2 -0.002392 0.012541 -0.003863 0.000000 0.000523 0.000000
# 3 -0.001004 -0.003863 0.011563 0.000000 -0.000554 0.000000
# 4 0.000000 0.000000 0.000000 0.059900 0.000000 0.001541
# 5 -0.006209 0.000523 -0.000554 0.000000 0.038218 0.000000
# 6 0.000000 0.000000 0.000000 0.001541 0.000000 0.048171
#
#
# Mechanical properties :
#
#
# Convention : Reuss Voigt Hill
#
# Bulk Modulus (GPa) = 47.56262 50.02796 48.79529
# Shear Modulus (GPa) = 24.58741 28.01490 26.30116
#
# Velocity S-wave (km/s) = 3.48166 3.71642 3.60095
# Velocity P-wave (km/s) = 6.29379 6.56356 6.43009
#
# Compressibility (1/GPa) = 0.02102491
#
# Stress axis : x y z
#
# Youngs Moduli (GPa) = 87.43567 79.73559 86.48159
#
# Poissons Ratio (x) = 0.19072 0.08680
# Poissons Ratio (y) = 0.20914 0.33405
# Poissons Ratio (z) = 0.08776 0.30800
#
# Static dielectric constant tensor:
#      x y z
#    x 1.785330 0.000000 -0.018390 
#    y 0.000000 1.688210 0.000000 
#    z -0.018390 0.000000 1.797450 
# 
# From -- ./inp_files/127308.got.cif
#   From: 2010.05.17/outbox.cif.g08.bks.cpg/sg15_64_cif.got.tgz:127308.got - 2010.06.03 18:47:42.
