data_PCOD9301814
_publ_section_title
;
Structure prediction by ZEFSAII (Michael W. Deem and Ramdas Pophale) SiO2 
 PCOD9301814
Probable space group: C 2/C
;
_chemical_formula_sum "Si O2"
_cell_formula_units_Z 64
_cell_length_a 28.552694
_cell_length_b 9.222921
_cell_length_c 18.212258
_cell_angle_alpha 90.000000
_cell_angle_beta 138.852893
_cell_angle_gamma 90.000000
_cell_volume 3155.743465
_symmetry_space_group_name_H-M "C 2/C"
_symmetry_group_IT_number 15
_symmetry_cell_setting 'monoclinic'
loop_
_space_group_symop_operation_xyz
x,y,z
-x,y,1/2-z
-x,-y,-z
x,-y,1/2+z
1/2+x,1/2+y,z
1/2-x,1/2+y,1/2-z
1/2-x,1/2-y,-z
1/2+x,1/2-y,1/2+z
loop_
_atom_site_type_symbol
_atom_site_label
_atom_site_fract_x
_atom_site_fract_y
_atom_site_fract_z
Si Si1 0.050155 0.428010 0.695619
Si Si2 0.400299 0.291150 0.569657
Si Si3 0.189650 0.298985 0.136143
Si Si4 0.329638 0.458114 0.356326
Si Si5 0.073280 0.313024 0.114397
Si Si6 0.940604 0.875213 0.776482
Si Si7 0.946435 0.852071 0.380307
Si Si8 0.105963 0.543797 0.421825
O O1 0.045953 0.550142 0.628100
O O2 0.083375 0.287887 0.696285
O O3 0.095618 0.460674 0.821931
O O4 0.969967 0.408863 0.632120
O O5 0.352900 0.385075 0.459843
O O6 0.402323 0.360144 0.653450
O O7 0.483240 0.295995 0.642964
O O8 0.378384 0.123353 0.539910
O O9 0.263521 0.373114 0.243544
O O10 0.130912 0.360965 0.123601
O O11 0.187168 0.126623 0.148262
O O12 0.163468 0.348274 0.024711
O O13 0.395464 0.427592 0.379007
O O14 0.103801 0.208520 0.213975
O O15 0.013988 0.216367 0.002731
O O16 0.960206 0.031820 0.832175
#
# Coordination Sequence:
#
# PCOD9301814 Si02
#       8
#     8   8   8   8   8   8   8   8
#     4  11  23  37  68 102 136 168 214 272 327 381
#     4  11  22  40  67  95 138 169 214 269 332 385
#     4  12  28  44  68  92 133 173 221 267 328 390
#     4  12  27  46  65  95 129 175 217 269 328 389
#     4  12  21  42  67 101 128 173 217 269 321 386
#     4  11  21  39  66 101 132 168 211 272 328 379
#     4  12  24  39  69 101 133 165 226 273 316 384
#     4  11  22  42  63 100 136 170 213 266 332 387
#
# _framework density 20.280484000000001
#
# number of rings (size 3 to 8) (size 9 to 14) (size 15 to 20)
#    0.000    0.500    6.250    3.000    5.250    1.000 
#    0.000    2.500    0.000    0.000    0.000    0.000 
#    0.000    0.000    0.000    0.000    0.000    0.000 
#
# Total GULP energy -178732.764601 kJ/mol
# GULP energy per Si atom -5585.398894 kJ/mol
# Density = 2.023432 g / cm^3
# Si number density = 20.280484 Si / 1000 Ang^3
#
#
#
# Elastic Constant Matrix: (Units=GPa)
#
#
# Indices 1 2 3 4 5 6 
#
# 1 34.9140 9.5135 13.3988 0.0000 -13.1620 0.0000
# 2 9.5135 126.5730 20.8432 0.0000 -12.6471 0.0000
# 3 13.3988 20.8432 87.4823 0.0000 -10.7593 0.0000
# 4 0.0000 0.0000 0.0000 28.1145 0.0000 -4.4754
# 5 -13.1620 -12.6471 -10.7593 0.0000 28.6566 0.0000
# 6 0.0000 0.0000 0.0000 -4.4754 0.0000 26.9455
#
#
#
# Elastic Compliance Matrix: (Units=1/GPa)
#
#
# Indices 1 2 3 4 5 6 
#
# 1 0.035746 -0.000629 -0.003502 0.000000 0.014826 0.000000
# 2 -0.000629 0.008494 -0.001575 0.000000 0.002869 0.000000
# 3 -0.003502 -0.001575 0.012643 0.000000 0.002444 0.000000
# 4 0.000000 0.000000 0.000000 0.036535 0.000000 0.006068
# 5 0.014826 0.002869 0.002444 0.000000 0.043889 0.000000
# 6 0.000000 0.000000 0.000000 0.006068 0.000000 0.038120
#
#
# Mechanical properties :
#
#
# Convention : Reuss Voigt Hill
#
# Bulk Modulus (GPa) = 21.99114 37.38670 29.68892
# Shear Modulus (GPa) = 24.75321 30.42423 27.58872
#
# Velocity S-wave (km/s) = 3.49742 3.87741 3.69230
# Velocity P-wave (km/s) = 5.21309 6.20649 5.73135
#
# Compressibility (1/GPa) = 0.04547285
#
# Stress axis : x y z
#
# Youngs Moduli (GPa) = 27.97505 117.73349 79.09585
#
# Poissons Ratio (x) = 0.07402 0.27697
# Poissons Ratio (y) = 0.01759 0.12454
# Poissons Ratio (z) = 0.09796 0.18538
#
# Static dielectric constant tensor:
#      x y z
#    x 1.737910 0.000000 -0.020580 
#    y 0.000000 1.761080 0.000000 
#    z -0.020580 0.000000 1.719330 
# 
# From -- ./inp_files/224653.got.cif
#   From: 2010.05.17/outbox.cif.g08.bks.cpg/sg15_113_cif.got.tgz:224653.got - 2010.06.03 18:47:42.
