data_PCOD9301062
_publ_section_title
;
Structure prediction by ZEFSAII (Michael W. Deem and Ramdas Pophale) SiO2 
 PCOD9301062
Probable space group: C 2/C
;
_chemical_formula_sum "Si O2"
_cell_formula_units_Z 52
_cell_length_a 13.315104
_cell_length_b 19.297994
_cell_length_c 15.916864
_cell_angle_alpha 90.000000
_cell_angle_beta 136.291086
_cell_angle_gamma 90.000000
_cell_volume 2826.110024
_symmetry_space_group_name_H-M "C 2/C"
_symmetry_group_IT_number 15
_symmetry_cell_setting 'monoclinic'
loop_
_space_group_symop_operation_xyz
x,y,z
-x,y,1/2-z
-x,-y,-z
x,-y,1/2+z
1/2+x,1/2+y,z
1/2-x,1/2+y,1/2-z
1/2-x,1/2-y,-z
1/2+x,1/2-y,1/2+z
loop_
_atom_site_type_symbol
_atom_site_label
_atom_site_fract_x
_atom_site_fract_y
_atom_site_fract_z
Si Si1 0.600491 0.485579 0.188029
Si Si2 0.991057 0.389880 0.533234
Si Si3 0.500000 0.626516 0.750000
Si Si4 0.231662 0.728224 0.585361
Si Si5 0.657861 0.872268 0.798530
Si Si6 0.314790 0.973318 0.964455
Si Si7 0.690386 0.485044 0.066432
O O1 0.509076 0.423772 0.175497
O O2 0.684632 0.522452 0.315983
O O3 0.701670 0.460729 0.170994
O O4 0.475704 0.528162 0.064302
O O5 0.912525 0.315778 0.483188
O O6 0.877985 0.448582 0.495773
O O7 0.115861 0.388449 0.678217
O O8 0.063578 0.420050 0.493806
O O9 0.362329 0.675063 0.678009
O O10 0.250000 0.750000 0.500000
O O11 0.257013 0.800087 0.647661
O O12 0.500000 0.865541 0.750000
O O13 0.752422 0.935270 0.892187
O O14 0.276653 0.957106 0.037581
#
# Coordination Sequence:
#
# PCOD9301062 Si02
#       7
#     8   8   4   8   8   8   8
#     4  11  21  34  58  84 119 153 188 241 290 347
#     4  11  22  35  54  86 114 158 190 235 304 345
#     4  12  20  36  54  84 118 144 194 234 288 348
#     4  12  21  34  55  83 116 154 188 241 293 350
#     4  12  21  35  55  85 123 150 188 239 294 355
#     4  11  20  37  58  79 127 151 191 247 285 362
#     4  11  22  36  56  90 119 153 192 233 298 350
#
# _framework density 18.399849
#
# number of rings (size 3 to 8) (size 9 to 14) (size 15 to 20)
#    0.000    0.615    8.462    0.923    0.000    0.000 
#    0.000    0.000    0.000    0.000    0.000   25.846 
#    0.000    0.000    0.000    0.000    0.000    0.000 
#
# Total GULP energy -144841.296482 kJ/mol
# GULP energy per Si atom -5570.819095 kJ/mol
# Density = 1.835797 g / cm^3
# Si number density = 18.399849 Si / 1000 Ang^3
#
#
#
# Elastic Constant Matrix: (Units=GPa)
#
#
# Indices 1 2 3 4 5 6 
#
# 1 102.2538 19.2598 18.3414 0.0005 -27.6590 0.0003
# 2 19.2598 55.8805 21.0435 0.0002 -0.5411 0.0001
# 3 18.3414 21.0435 65.0439 0.0006 -0.8614 0.0003
# 4 0.0005 0.0002 0.0006 336.2049 0.0004 192.3089
# 5 -27.6590 -0.5411 -0.8614 0.0004 31.5184 0.0002
# 6 0.0003 0.0001 0.0003 192.3089 0.0002 135.2476
#
#
#
# Elastic Compliance Matrix: (Units=1/GPa)
#
#
# Indices 1 2 3 4 5 6 
#
# 1 0.014341 -0.003828 -0.002641 0.000000 0.012447 0.000000
# 2 -0.003828 0.021401 -0.005886 0.000000 -0.003153 0.000000
# 3 -0.002641 -0.005886 0.017998 0.000000 -0.001927 0.000000
# 4 0.000000 0.000000 0.000000 0.015934 0.000000 -0.022656
# 5 0.012447 -0.003153 -0.001927 0.000000 0.042544 0.000000
# 6 0.000000 0.000000 0.000000 -0.022656 0.000000 0.039609
#
#
# Mechanical properties :
#
#
# Convention : Reuss Voigt Hill
#
# Bulk Modulus (GPa) = 34.44687 37.82972 36.13830
# Shear Modulus (GPa) = 26.85120 111.56308 69.20714
#
# Velocity S-wave (km/s) = 3.82424 7.79514 6.13959
# Velocity P-wave (km/s) = 6.18561 10.08084 8.36317
#
# Compressibility (1/GPa) = 0.02903021
#
# Stress axis : x y z
#
# Youngs Moduli (GPa) = 69.72951 46.72743 55.56272
#
# Poissons Ratio (x) = 0.17887 0.14673
# Poissons Ratio (y) = 0.26691 0.32705
# Poissons Ratio (z) = 0.18414 0.27504
#
# Static dielectric constant tensor:
#      x y z
#    x 1.712510 0.000000 0.001370 
#    y 0.000000 1.555320 0.000000 
#    z 0.001370 0.000000 1.705740 
# 
# From -- ./inp_files/147218.got.cif
#   From: 2010.05.17/outbox.cif.g08.bks.cpg/sg15_74_cif.got.tgz:147218.got - 2010.06.03 18:47:42.
