data_PCOD9301692
_publ_section_title
;
Structure prediction by ZEFSAII (Michael W. Deem and Ramdas Pophale) SiO2 
 PCOD9301692
Probable space group: C 2/C
;
_chemical_formula_sum "Si O2"
_cell_formula_units_Z 60
_cell_length_a 23.063682
_cell_length_b 16.328080
_cell_length_c 11.817266
_cell_angle_alpha 90.000000
_cell_angle_beta 41.385637
_cell_angle_gamma 90.000000
_cell_volume 2942.141579
_symmetry_space_group_name_H-M "C 2/C"
_symmetry_group_IT_number 15
_symmetry_cell_setting 'monoclinic'
loop_
_space_group_symop_operation_xyz
x,y,z
-x,y,1/2-z
-x,-y,-z
x,-y,1/2+z
1/2+x,1/2+y,z
1/2-x,1/2+y,1/2-z
1/2-x,1/2-y,-z
1/2+x,1/2-y,1/2+z
loop_
_atom_site_type_symbol
_atom_site_label
_atom_site_fract_x
_atom_site_fract_y
_atom_site_fract_z
Si Si1 0.126492 0.804850 0.734974
Si Si2 0.154340 0.247072 0.778830
Si Si3 0.394889 0.179934 0.914616
Si Si4 0.743502 0.948311 0.898539
Si Si5 0.259999 0.385172 0.495210
Si Si6 0.617132 0.538171 0.501510
Si Si7 0.481664 0.690919 0.905012
Si Si8 0.500000 0.607064 0.250000
O O1 0.142995 0.722855 0.641993
O O2 0.197987 0.876585 0.629475
O O3 0.042042 0.841885 0.791128
O O4 0.104114 0.782726 0.897937
O O5 0.195606 0.329692 0.664922
O O6 0.214876 0.172079 0.648314
O O7 0.062401 0.224855 0.856535
O O8 0.136695 0.262538 0.935942
O O9 0.500000 0.173028 0.750000
O O10 0.347494 0.093567 0.001739
O O11 0.804708 0.971762 0.702360
O O12 0.727980 0.027338 0.998099
O O13 0.343473 0.408829 0.452038
O O14 0.537149 0.592973 0.569064
O O15 0.577066 0.452039 0.593962
O O16 0.500000 0.717282 0.750000
#
# Coordination Sequence:
#
# PCOD9301692 Si02
#       8
#     8   8   8   8   8   8   8   4
#     4  11  24  37  66  98 132 171 218 276 340 397
#     4  11  23  42  69  95 132 172 222 270 333 389
#     4  12  24  46  68  93 133 178 232 277 323 390
#     4  11  26  41  65  96 135 176 220 275 338 392
#     4  11  23  42  65  95 132 178 214 273 330 396
#     4  11  22  37  63  98 138 159 214 277 336 407
#     4  11  21  38  61  96 129 165 208 268 332 394
#     4  12  20  36  64 104 126 174 208 272 350 402
#
# _framework density 20.393308000000001
#
# number of rings (size 3 to 8) (size 9 to 14) (size 15 to 20)
#    0.000    0.800    6.667    0.400    3.733    1.067 
#    0.000    2.667    0.000    0.000    0.000    0.000 
#    0.000    0.000    0.000    0.000    0.000    0.000 
#
# Total GULP energy -167465.879200 kJ/mol
# GULP energy per Si atom -5582.195973 kJ/mol
# Density = 2.034689 g / cm^3
# Si number density = 20.393308 Si / 1000 Ang^3
#
#
#
# Elastic Constant Matrix: (Units=GPa)
#
#
# Indices 1 2 3 4 5 6 
#
# 1 36.8751 16.8160 21.4126 0.0000 1.2940 0.0000
# 2 16.8160 77.5965 41.6026 0.0000 -9.9509 0.0000
# 3 21.4126 41.6026 112.5573 0.0000 7.7964 0.0000
# 4 0.0000 0.0000 0.0000 24.9816 0.0000 -7.3834
# 5 1.2940 -9.9509 7.7964 0.0000 30.7485 0.0000
# 6 0.0000 0.0000 0.0000 -7.3834 0.0000 29.6573
#
#
#
# Elastic Compliance Matrix: (Units=1/GPa)
#
#
# Indices 1 2 3 4 5 6 
#
# 1 0.031817 -0.004944 -0.004094 0.000000 -0.001901 0.000000
# 2 -0.004944 0.018384 -0.006393 0.000000 0.007778 0.000000
# 3 -0.004094 -0.006393 0.012375 0.000000 -0.005034 0.000000
# 4 0.000000 0.000000 0.000000 0.043209 0.000000 0.010757
# 5 -0.001901 0.007778 -0.005034 0.000000 0.036396 0.000000
# 6 0.000000 0.000000 0.000000 0.010757 0.000000 0.036397
#
#
# Mechanical properties :
#
#
# Convention : Reuss Voigt Hill
#
# Bulk Modulus (GPa) = 31.53204 42.96571 37.24888
# Shear Modulus (GPa) = 22.72631 26.89067 24.80849
#
# Velocity S-wave (km/s) = 3.34188 3.63520 3.49162
# Velocity P-wave (km/s) = 5.51239 6.22365 5.87879
#
# Compressibility (1/GPa) = 0.03171377
#
# Stress axis : x y z
#
# Youngs Moduli (GPa) = 31.42972 54.39608 80.80942
#
# Poissons Ratio (x) = 0.26894 0.33081
# Poissons Ratio (y) = 0.15539 0.51662
# Poissons Ratio (z) = 0.12866 0.34776
#
# Static dielectric constant tensor:
#      x y z
#    x 1.750510 0.000000 0.012480 
#    y 0.000000 1.701460 0.000000 
#    z 0.012480 0.000000 1.792000 
# 
# From -- ./inp_files/119456.got.cif
#   From: 2010.05.17/outbox.cif.g08.bks.cpg/sg15_60_cif.got.tgz:119456.got - 2010.06.03 18:47:42.
