data_PCOD9301718
_publ_section_title
;
Structure prediction by ZEFSAII (Michael W. Deem and Ramdas Pophale) SiO2 
 PCOD9301718
Probable space group: C 2/C
;
_chemical_formula_sum "Si O2"
_cell_formula_units_Z 48
_cell_length_a 18.133737
_cell_length_b 14.928252
_cell_length_c 10.340853
_cell_angle_alpha 90.000000
_cell_angle_beta 123.228107
_cell_angle_gamma 90.000000
_cell_volume 2341.619338
_symmetry_space_group_name_H-M "C 2/C"
_symmetry_group_IT_number 15
_symmetry_cell_setting 'monoclinic'
loop_
_space_group_symop_operation_xyz
x,y,z
-x,y,1/2-z
-x,-y,-z
x,-y,1/2+z
1/2+x,1/2+y,z
1/2-x,1/2+y,1/2-z
1/2-x,1/2-y,-z
1/2+x,1/2-y,1/2+z
loop_
_atom_site_type_symbol
_atom_site_label
_atom_site_fract_x
_atom_site_fract_y
_atom_site_fract_z
Si Si1 0.932511 0.747963 0.069498
Si Si2 0.177089 0.589521 0.474743
Si Si3 0.072057 0.921901 0.593727
Si Si4 0.728443 0.045273 0.245181
Si Si5 0.000000 0.797594 0.750000
Si Si6 0.500000 0.995665 0.250000
Si Si7 0.063037 0.655024 0.992589
O O1 0.842717 0.694123 0.016307
O O2 0.000000 0.750655 0.250000
O O3 0.920480 0.849396 0.013565
O O4 0.989871 0.694424 0.018150
O O5 0.236037 0.555010 0.409931
O O6 0.192615 0.540605 0.627958
O O7 0.084391 0.556457 0.326431
O O8 0.171803 0.952637 0.709975
O O9 0.042374 0.862213 0.686047
O O10 0.000000 0.000000 0.500000
O O11 0.658320 0.123726 0.137027
O O12 0.930734 0.730812 0.613088
O O13 0.483523 0.931443 0.113711
#
# Coordination Sequence:
#
# PCOD9301718 Si02
#       7
#     8   8   8   8   4   4   8
#     4  11  21  40  67  95 134 170 215 269 337 394
#     4  11  21  38  65 105 136 170 214 276 339 396
#     4  11  28  46  65  87 130 187 229 273 333 399
#     4  11  24  40  66 102 136 173 224 276 330 400
#     4   9  22  44  65  88 124 180 231 274 340 403
#     4   9  16  32  65  94 144 162 197 256 350 409
#     4   9  18  38  64  98 128 170 211 276 332 396
#
# _framework density 20.498636000000001
#
# number of rings (size 3 to 8) (size 9 to 14) (size 15 to 20)
#    0.000    1.667    2.500    1.000    3.500    5.333 
#    6.000    0.000    0.000    0.000    0.000    0.000 
#    0.000    0.000    0.000    0.000    0.000    0.000 
#
# Total GULP energy -133626.595476 kJ/mol
# GULP energy per Si atom -5567.774812 kJ/mol
# Density = 2.045198 g / cm^3
# Si number density = 20.498636 Si / 1000 Ang^3
#
#
#
# Elastic Constant Matrix: (Units=GPa)
#
#
# Indices 1 2 3 4 5 6 
#
# 1 67.3902 38.3166 28.9621 0.0000 7.2911 0.0000
# 2 38.3166 101.6578 41.1052 0.0000 -0.8059 0.0000
# 3 28.9621 41.1052 60.3197 0.0000 -3.7038 0.0000
# 4 0.0000 0.0000 0.0000 32.4302 0.0000 -16.9110
# 5 7.2911 -0.8059 -3.7038 0.0000 37.9311 0.0000
# 6 0.0000 0.0000 0.0000 -16.9110 0.0000 37.4469
#
#
#
# Elastic Compliance Matrix: (Units=1/GPa)
#
#
# Indices 1 2 3 4 5 6 
#
# 1 0.021360 -0.005275 -0.006962 0.000000 -0.004898 0.000000
# 2 -0.005275 0.014895 -0.007582 0.000000 0.000590 0.000000
# 3 -0.006962 -0.007582 0.025312 0.000000 0.003649 0.000000
# 4 0.000000 0.000000 0.000000 0.040334 0.000000 0.018215
# 5 -0.004898 0.000590 0.003649 0.000000 0.027674 0.000000
# 6 0.000000 0.000000 0.000000 0.018215 0.000000 0.034930
#
#
# Mechanical properties :
#
#
# Convention : Reuss Voigt Hill
#
# Bulk Modulus (GPa) = 45.59933 49.57060 47.58497
# Shear Modulus (GPa) = 23.64604 29.62724 26.63664
#
# Velocity S-wave (km/s) = 3.40007 3.80587 3.60868
# Velocity P-wave (km/s) = 6.14063 6.59907 6.37397
#
# Compressibility (1/GPa) = 0.02193014
#
# Stress axis : x y z
#
# Youngs Moduli (GPa) = 46.81653 67.13499 39.50732
#
# Poissons Ratio (x) = 0.35411 0.27505
# Poissons Ratio (y) = 0.24694 0.29953
# Poissons Ratio (z) = 0.32594 0.50900
#
# Static dielectric constant tensor:
#      x y z
#    x -0.939240 0.000000 3.190160 
#    y 0.000000 1.773610 0.000000 
#    z 3.190160 0.000000 -2.100210 
# 
# From -- ./inp_files/112505.got.cif
#   From: 2010.05.17/outbox.cif.g08.bks.cpg/sg15_57_cif.got.tgz:112505.got - 2010.06.03 18:47:42.
