data_PCOD9301464
_publ_section_title
;
Structure prediction by ZEFSAII (Michael W. Deem and Ramdas Pophale) SiO2 
 PCOD9301464
Probable space group: C 2/C
;
_chemical_formula_sum "Si O2"
_cell_formula_units_Z 32
_cell_length_a 9.710409
_cell_length_b 10.209431
_cell_length_c 14.782426
_cell_angle_alpha 90.000000
_cell_angle_beta 64.374618
_cell_angle_gamma 90.000000
_cell_volume 1321.351732
_symmetry_space_group_name_H-M "C 2/C"
_symmetry_group_IT_number 15
_symmetry_cell_setting 'monoclinic'
loop_
_space_group_symop_operation_xyz
x,y,z
-x,y,1/2-z
-x,-y,-z
x,-y,1/2+z
1/2+x,1/2+y,z
1/2-x,1/2+y,1/2-z
1/2-x,1/2-y,-z
1/2+x,1/2-y,1/2+z
loop_
_atom_site_type_symbol
_atom_site_label
_atom_site_fract_x
_atom_site_fract_y
_atom_site_fract_z
Si Si1 0.313437 0.097915 0.403713
Si Si2 0.002559 0.198364 0.527534
Si Si3 0.842612 0.171926 0.753947
Si Si4 0.998882 0.336055 0.151810
O O1 0.135523 0.090018 0.480276
O O2 0.401781 0.180133 0.455611
O O3 0.328139 0.186667 0.308695
O O4 0.394679 0.961206 0.372637
O O5 0.874688 0.175250 0.638372
O O6 0.952373 0.241588 0.442879
O O7 0.675273 0.114729 0.818024
O O8 0.000000 0.112709 0.750000
O O9 0.000000 0.269457 0.250000
#
# Coordination Sequence:
#
# PCOD9301464 Si02
#       4
#     8   8   8   8
#     4   9  18  34  58  87 115 151 199 241 290 355
#     4   9  18  34  57  83 118 156 189 243 299 341
#     4   9  19  37  58  83 120 156 191 245 296 343
#     4  11  21  33  58  89 116 154 199 241 294 354
#
# _framework density 24.217627
#
# number of rings (size 3 to 8) (size 9 to 14) (size 15 to 20)
#    0.000    2.500    0.000    4.500    0.000    1.000 
#    0.000    1.250    0.000   30.000    0.000    0.000 
#    0.000    0.000    0.000    0.000    0.000    0.000 
#
# Total GULP energy -89471.932015 kJ/mol
# GULP energy per Si atom -5591.995751 kJ/mol
# Density = 2.416251 g / cm^3
# Si number density = 24.217627 Si / 1000 Ang^3
#
#
#
# Elastic Constant Matrix: (Units=GPa)
#
#
# Indices 1 2 3 4 5 6 
#
# 1 112.2760 48.1042 54.2856 0.0000 -7.6291 0.0000
# 2 48.1042 49.7349 39.8296 0.0000 1.9583 0.0000
# 3 54.2856 39.8296 195.8602 0.0000 12.5353 0.0000
# 4 0.0000 0.0000 0.0000 7.6084 0.0000 9.3809
# 5 -7.6291 1.9583 12.5353 0.0000 51.7959 0.0000
# 6 0.0000 0.0000 0.0000 9.3809 0.0000 22.5779
#
#
#
# Elastic Compliance Matrix: (Units=1/GPa)
#
#
# Indices 1 2 3 4 5 6 
#
# 1 0.016119 -0.014302 -0.001773 0.000000 0.003344 0.000000
# 2 -0.014302 0.036712 -0.003330 0.000000 -0.002689 0.000000
# 3 -0.001773 -0.003330 0.006382 0.000000 -0.001680 0.000000
# 4 0.000000 0.000000 0.000000 0.269489 0.000000 -0.111970
# 5 0.003344 -0.002689 -0.001680 0.000000 0.020307 0.000000
# 6 0.000000 0.000000 0.000000 -0.111970 0.000000 0.090813
#
#
# Mechanical properties :
#
#
# Convention : Reuss Voigt Hill
#
# Bulk Modulus (GPa) = 49.01210 71.36775 60.18992
# Shear Modulus (GPa) = 10.30009 30.77320 20.53664
#
# Velocity S-wave (km/s) = 2.06455 3.56855 2.91521
# Velocity P-wave (km/s) = 5.09561 6.82002 6.01988
#
# Compressibility (1/GPa) = 0.02040313
#
# Stress axis : x y z
#
# Youngs Moduli (GPa) = 62.03925 27.23905 156.69695
#
# Poissons Ratio (x) = 0.38957 0.27785
# Poissons Ratio (y) = 0.88728 0.52173
# Poissons Ratio (z) = 0.11001 0.09069
#
# Static dielectric constant tensor:
#      x y z
#    x 1.966450 0.000000 0.000150 
#    y 0.000000 1.917790 0.000000 
#    z 0.000150 0.000000 1.949310 
# 
# From -- ./inp_files/195503.got.cif
#   From: 2010.05.17/outbox.cif.g08.bks.cpg/sg15_98_cif.got.tgz:195503.got - 2010.06.03 18:47:42.
