data_PCOD9301639
_publ_section_title
;
Structure prediction by ZEFSAII (Michael W. Deem and Ramdas Pophale) SiO2 
 PCOD9301639
Probable space group: C 2/C
;
_chemical_formula_sum "Si O2"
_cell_formula_units_Z 40
_cell_length_a 26.039751
_cell_length_b 7.648015
_cell_length_c 11.439555
_cell_angle_alpha 90.000000
_cell_angle_beta 56.054156
_cell_angle_gamma 90.000000
_cell_volume 1889.929060
_symmetry_space_group_name_H-M "C 2/C"
_symmetry_group_IT_number 15
_symmetry_cell_setting 'monoclinic'
loop_
_space_group_symop_operation_xyz
x,y,z
-x,y,1/2-z
-x,-y,-z
x,-y,1/2+z
1/2+x,1/2+y,z
1/2-x,1/2+y,1/2-z
1/2-x,1/2-y,-z
1/2+x,1/2-y,1/2+z
loop_
_atom_site_type_symbol
_atom_site_label
_atom_site_fract_x
_atom_site_fract_y
_atom_site_fract_z
Si Si1 0.865984 0.237603 0.103721
Si Si2 0.314491 0.170849 0.885022
Si Si3 0.034241 0.041725 0.080363
Si Si4 0.877876 0.640907 0.050075
Si Si5 0.766828 0.313807 0.848218
O O1 0.856965 0.203544 0.253244
O O2 0.890352 0.438212 0.067130
O O3 0.796702 0.215556 0.140143
O O4 0.910883 0.101975 0.985397
O O5 0.291410 0.008944 0.837206
O O6 0.250000 0.250000 0.000000
O O7 0.349267 0.121030 0.957638
O O8 0.000000 0.031896 0.250000
O O9 0.062977 0.235212 0.029898
O O10 0.000000 0.000000 0.000000
O O11 0.826091 0.745540 0.195117
O O12 0.750000 0.250000 0.000000
#
# Coordination Sequence:
#
# PCOD9301639 Si02
#       5
#     8   8   8   8   8
#     4  11  25  43  70 104 140 185 227 292 353 417
#     4  11  21  37  65 100 144 179 215 278 355 428
#     4  12  30  50  73  99 140 197 247 290 336 418
#     4  11  25  44  69 104 139 182 231 291 352 416
#     4  11  23  38  67 108 144 171 218 287 365 423
#
# _framework density 21.164815999999998
#
# number of rings (size 3 to 8) (size 9 to 14) (size 15 to 20)
#    0.000    0.800    4.000    2.400    8.400    1.600 
#    0.000    0.000    0.000    0.000    0.000    0.000 
#    0.000    0.000    0.000    0.000    0.000    0.000 
#
# Total GULP energy -111459.069383 kJ/mol
# GULP energy per Si atom -5572.953469 kJ/mol
# Density = 2.111664 g / cm^3
# Si number density = 21.164816 Si / 1000 Ang^3
#
#
#
# Elastic Constant Matrix: (Units=GPa)
#
#
# Indices 1 2 3 4 5 6 
#
# 1 57.5817 19.6442 20.3716 0.0000 4.3193 0.0000
# 2 19.6442 73.8135 21.5360 0.0000 -4.6313 0.0000
# 3 20.3716 21.5360 154.8264 0.0000 5.7789 0.0000
# 4 0.0000 0.0000 0.0000 38.1838 0.0000 -6.8617
# 5 4.3193 -4.6313 5.7789 0.0000 24.0265 0.0000
# 6 0.0000 0.0000 0.0000 -6.8617 0.0000 33.8030
#
#
#
# Elastic Compliance Matrix: (Units=1/GPa)
#
#
# Indices 1 2 3 4 5 6 
#
# 1 0.020038 -0.005075 -0.001776 0.000000 -0.004154 0.000000
# 2 -0.005075 0.015658 -0.001672 0.000000 0.004333 0.000000
# 3 -0.001776 -0.001672 0.006988 0.000000 -0.001684 0.000000
# 4 0.000000 0.000000 0.000000 0.027181 0.000000 0.005517
# 5 -0.004154 0.004333 -0.001684 0.000000 0.043608 0.000000
# 6 0.000000 0.000000 0.000000 0.005517 0.000000 0.030703
#
#
# Mechanical properties :
#
#
# Convention : Reuss Voigt Hill
#
# Bulk Modulus (GPa) = 39.00425 45.48055 42.24240
# Shear Modulus (GPa) = 29.45220 34.18064 31.81642
#
# Velocity S-wave (km/s) = 3.73441 4.02303 3.88141
# Velocity P-wave (km/s) = 6.08796 6.56621 6.33160
#
# Compressibility (1/GPa) = 0.02563823
#
# Stress axis : x y z
#
# Youngs Moduli (GPa) = 49.90567 63.86510 143.10507
#
# Poissons Ratio (x) = 0.32413 0.25409
# Poissons Ratio (y) = 0.25329 0.23926
# Poissons Ratio (z) = 0.08861 0.10678
#
# Static dielectric constant tensor:
#      x y z
#    x 1.720870 0.000000 -0.075780 
#    y 0.000000 1.957300 0.000000 
#    z -0.075780 0.000000 1.612390 
# 
# From -- ./inp_files/102721.got.cif
#   From: 2010.05.17/outbox.cif.g08.bks.cpg/sg15_52_cif.got.tgz:102721.got - 2010.06.03 18:47:42.
