data_PCOD9301287
_publ_section_title
;
Structure prediction by ZEFSAII (Michael W. Deem and Ramdas Pophale) SiO2 
 PCOD9301287
Probable space group: C 2/C
;
_chemical_formula_sum "Si O2"
_cell_formula_units_Z 44
_cell_length_a 8.977110
_cell_length_b 16.044504
_cell_length_c 15.554067
_cell_angle_alpha 90.000000
_cell_angle_beta 124.153571
_cell_angle_gamma 90.000000
_cell_volume 1853.931095
_symmetry_space_group_name_H-M "C 2/C"
_symmetry_group_IT_number 15
_symmetry_cell_setting 'monoclinic'
loop_
_space_group_symop_operation_xyz
x,y,z
-x,y,1/2-z
-x,-y,-z
x,-y,1/2+z
1/2+x,1/2+y,z
1/2-x,1/2+y,1/2-z
1/2-x,1/2-y,-z
1/2+x,1/2-y,1/2+z
loop_
_atom_site_type_symbol
_atom_site_label
_atom_site_fract_x
_atom_site_fract_y
_atom_site_fract_z
Si Si1 0.718307 0.686986 0.409744
Si Si2 0.500000 0.057467 0.750000
Si Si3 0.560749 0.928230 0.621480
Si Si4 0.313622 0.323465 0.827398
Si Si5 0.693253 0.653717 0.980893
Si Si6 0.683338 0.322022 0.197550
O O1 0.750000 0.750000 0.500000
O O2 0.804864 0.596117 0.414849
O O3 0.503963 0.675831 0.341049
O O4 0.808189 0.744397 0.365504
O O5 0.675367 0.114651 0.796509
O O6 0.508098 0.009248 0.660902
O O7 0.659995 0.878304 0.732329
O O8 0.371811 0.897613 0.521650
O O9 0.350955 0.360556 0.932885
O O10 0.247846 0.226511 0.804229
O O11 0.750000 0.750000 0.000000
O O12 0.515294 0.640662 0.867435
#
# Coordination Sequence:
#
# PCOD9301287 Si02
#       6
#     8   4   8   8   8   8
#     4  11  20  40  71  98 123 174 241 279 325 398
#     4  12  24  44  62  98 146 184 210 274 366 414
#     4  11  23  40  65  94 134 178 217 278 342 402
#     4  11  20  40  68  95 125 175 234 278 326 396
#     4  12  21  38  69 102 127 169 239 286 326 388
#     4  11  23  37  68  95 134 178 221 278 343 401
#
# _framework density 23.733352
#
# number of rings (size 3 to 8) (size 9 to 14) (size 15 to 20)
#    0.000    0.727    9.091    1.636    0.000    0.727 
#    0.000    0.909    8.000    0.000    0.000    0.000 
#    0.000    0.000    0.000    0.000    0.000    0.000 
#
# Total GULP energy -122494.980901 kJ/mol
# GULP energy per Si atom -5567.953677 kJ/mol
# Density = 2.367933 g / cm^3
# Si number density = 23.733352 Si / 1000 Ang^3
#
#
#
# Elastic Constant Matrix: (Units=GPa)
#
#
# Indices 1 2 3 4 5 6 
#
# 1 104.1464 1.9358 58.6587 0.0000 31.9413 0.0000
# 2 1.9358 42.2867 17.2976 0.0000 12.2492 0.0000
# 3 58.6587 17.2976 74.0316 0.0000 29.5474 0.0000
# 4 0.0000 0.0000 0.0000 7.9645 0.0000 -29.1373
# 5 31.9413 12.2492 29.5474 0.0000 65.0820 0.0000
# 6 0.0000 0.0000 0.0000 -29.1373 0.0000 -17.0789
#
#
#
# Elastic Compliance Matrix: (Units=1/GPa)
#
#
# Indices 1 2 3 4 5 6 
#
# 1 0.019203 0.006429 -0.015233 0.000000 -0.003719 0.000000
# 2 0.006429 0.028672 -0.010235 0.000000 -0.003905 0.000000
# 3 -0.015233 -0.010235 0.029576 0.000000 -0.004025 0.000000
# 4 0.000000 0.000000 0.000000 0.017339 0.000000 -0.029581
# 5 -0.003719 -0.003905 -0.004025 0.000000 0.019753 0.000000
# 6 0.000000 0.000000 0.000000 -0.029581 0.000000 -0.008086
#
#
# Mechanical properties :
#
#
# Convention : Reuss Voigt Hill
#
# Bulk Modulus (GPa) = 25.39857 41.80545 33.60201
# Shear Modulus (GPa) = 31.71437 20.69836 26.20637
#
# Velocity S-wave (km/s) = 3.65948 2.95637 3.32656
# Velocity P-wave (km/s) = 5.34608 5.41354 5.37992
#
# Compressibility (1/GPa) = 0.03937230
#
# Stress axis : x y z
#
# Youngs Moduli (GPa) = 52.07594 34.87772 33.81167
#
# Poissons Ratio (x) = -0.22424 0.51506
# Poissons Ratio (y) = -0.33482 0.34606
# Poissons Ratio (z) = 0.79329 0.35697
#
# Static dielectric constant tensor:
#      x y z
#    x 1.924660 0.000000 -0.119070 
#    y 0.000000 2.016640 0.000000 
#    z -0.119070 0.000000 2.059480 
# 
# From -- ./inp_files/191185.got.cif
#   From: 2010.05.17/outbox.cif.g08.bks.cpg/sg15_96_cif.got.tgz:191185.got - 2010.06.03 18:47:42.
