data_PCOD9301765
_publ_section_title
;
Structure prediction by ZEFSAII (Michael W. Deem and Ramdas Pophale) SiO2 
 PCOD9301765
Probable space group: C 2/C
;
_chemical_formula_sum "Si O2"
_cell_formula_units_Z 56
_cell_length_a 8.074246
_cell_length_b 12.465660
_cell_length_c 27.585905
_cell_angle_alpha 90.000000
_cell_angle_beta 119.030907
_cell_angle_gamma 90.000000
_cell_volume 2427.693236
_symmetry_space_group_name_H-M "C 2/C"
_symmetry_group_IT_number 15
_symmetry_cell_setting 'monoclinic'
loop_
_space_group_symop_operation_xyz
x,y,z
-x,y,1/2-z
-x,-y,-z
x,-y,1/2+z
1/2+x,1/2+y,z
1/2-x,1/2+y,1/2-z
1/2-x,1/2-y,-z
1/2+x,1/2-y,1/2+z
loop_
_atom_site_type_symbol
_atom_site_label
_atom_site_fract_x
_atom_site_fract_y
_atom_site_fract_z
Si Si1 0.440026 0.889891 0.393399
Si Si2 0.939891 0.795866 0.658873
Si Si3 0.899581 0.400327 0.622190
Si Si4 0.512544 0.516270 0.107250
Si Si5 0.497160 0.590113 0.699508
Si Si6 0.280149 0.689784 0.554258
Si Si7 0.703796 0.811140 0.724413
O O1 0.546458 0.813180 0.370178
O O2 0.410078 0.838787 0.442317
O O3 0.222138 0.897442 0.344952
O O4 0.526370 0.008170 0.403465
O O5 0.146239 0.824064 0.711021
O O6 0.809544 0.795497 0.687669
O O7 0.887216 0.888949 0.613129
O O8 0.683734 0.431007 0.603009
O O9 0.894852 0.278874 0.601714
O O10 0.040858 0.397889 0.688714
O O11 0.595721 0.460073 0.167111
O O12 0.395225 0.421725 0.064937
O O13 0.500000 0.524663 0.750000
O O14 0.600850 0.700850 0.722552
O O15 0.250000 0.750000 0.500000
#
# Coordination Sequence:
#
# PCOD9301765 Si02
#       7
#     8   8   8   8   8   8   8
#     4  11  23  43  67  98 137 177 227 286 338 406
#     4  11  23  39  67 104 141 190 229 273 339 413
#     4  12  25  46  71 101 139 185 228 285 348 411
#     4  11  24  44  69  99 140 179 227 289 342 412
#     4  11  21  39  60  95 141 182 227 275 326 400
#     4  11  26  51  75 100 133 176 235 302 354 410
#     4  11  22  38  66 101 142 188 233 269 335 412
#
# _framework density 23.067163000000001
#
# number of rings (size 3 to 8) (size 9 to 14) (size 15 to 20)
#    0.000    0.857    5.714    2.571    4.000    1.143 
#    0.000    0.714    0.000    0.000    0.000    0.000 
#    0.000    0.000    0.000    0.000    0.000    0.000 
#
# Total GULP energy -156447.711970 kJ/mol
# GULP energy per Si atom -5587.418285 kJ/mol
# Density = 2.301466 g / cm^3
# Si number density = 23.067163 Si / 1000 Ang^3
#
#
#
# Elastic Constant Matrix: (Units=GPa)
#
#
# Indices 1 2 3 4 5 6 
#
# 1 71.7426 23.4208 -6.0007 0.0000 -5.9388 0.0000
# 2 23.4208 101.1314 -22.6636 0.0000 3.2277 0.0000
# 3 -6.0007 -22.6636 20.0283 0.0000 -5.3467 0.0000
# 4 0.0000 0.0000 0.0000 14.9809 0.0000 -5.5376
# 5 -5.9388 3.2277 -5.3467 0.0000 15.3448 0.0000
# 6 0.0000 0.0000 0.0000 -5.5376 0.0000 20.9899
#
#
#
# Elastic Compliance Matrix: (Units=1/GPa)
#
#
# Indices 1 2 3 4 5 6 
#
# 1 0.015920 -0.003209 0.003267 0.000000 0.007975 0.000000
# 2 -0.003209 0.013996 0.015169 0.000000 0.001099 0.000000
# 3 0.003267 0.015169 0.074487 0.000000 0.024028 0.000000
# 4 0.000000 0.000000 0.000000 0.073965 0.000000 0.019514
# 5 0.007975 0.001099 0.024028 0.000000 0.076396 0.000000
# 6 0.000000 0.000000 0.000000 0.019514 0.000000 0.052790
#
#
# Mechanical properties :
#
#
# Convention : Reuss Voigt Hill
#
# Bulk Modulus (GPa) = 7.41526 20.26839 13.84182
# Shear Modulus (GPa) = 15.52546 23.47284 19.49915
#
# Velocity S-wave (km/s) = 2.59714 3.19342 2.91059
# Velocity P-wave (km/s) = 3.49502 4.73318 4.16042
#
# Compressibility (1/GPa) = 0.13485706
#
# Stress axis : x y z
#
# Youngs Moduli (GPa) = 62.81490 71.45082 13.42509
#
# Poissons Ratio (x) = 0.22930 -0.04386
# Poissons Ratio (y) = 0.20158 -0.20365
# Poissons Ratio (z) = -0.20523 -1.08385
#
# Static dielectric constant tensor:
#      x y z
#    x 1.879830 0.000000 -0.031020 
#    y 0.000000 1.915540 0.000000 
#    z -0.031020 0.000000 1.972160 
# 
# From -- ./inp_files/307245.got.cif
#   From: 2010.05.17/outbox.cif.g08.bks.cpg/sg15_154_cif.got.tgz:307245.got - 2010.06.03 18:47:42.
