data_PCOD9301181
_publ_section_title
;
Structure prediction by ZEFSAII (Michael W. Deem and Ramdas Pophale) SiO2 
 PCOD9301181
Probable space group: C 2/C
;
_chemical_formula_sum "Si O2"
_cell_formula_units_Z 40
_cell_length_a 9.557124
_cell_length_b 9.635733
_cell_length_c 20.956976
_cell_angle_alpha 90.000000
_cell_angle_beta 105.203089
_cell_angle_gamma 90.000000
_cell_volume 1862.382871
_symmetry_space_group_name_H-M "C 2/C"
_symmetry_group_IT_number 15
_symmetry_cell_setting 'monoclinic'
loop_
_space_group_symop_operation_xyz
x,y,z
-x,y,1/2-z
-x,-y,-z
x,-y,1/2+z
1/2+x,1/2+y,z
1/2-x,1/2+y,1/2-z
1/2-x,1/2-y,-z
1/2+x,1/2-y,1/2+z
loop_
_atom_site_type_symbol
_atom_site_label
_atom_site_fract_x
_atom_site_fract_y
_atom_site_fract_z
Si Si1 0.426218 0.322100 0.358564
Si Si2 0.768433 0.706662 0.236106
Si Si3 0.884450 0.462105 0.177460
Si Si4 0.172299 0.995359 0.323881
Si Si5 0.042931 0.559976 0.072841
O O1 0.409901 0.214493 0.298020
O O2 0.257174 0.363301 0.345989
O O3 0.529622 0.441699 0.343594
O O4 0.486134 0.225710 0.422095
O O5 0.802223 0.605428 0.182755
O O6 0.760908 0.862071 0.206740
O O7 0.660869 0.618689 0.269852
O O8 0.000000 0.431315 0.250000
O O9 0.961959 0.474877 0.119050
O O10 0.287588 0.040705 0.390696
O O11 0.000000 0.500000 0.000000
#
# Coordination Sequence:
#
# PCOD9301181 Si02
#       5
#     8   8   8   8   8
#     4  11  23  42  66  96 142 168 226 277 338 407
#     4  11  20  38  68 102 135 167 220 277 346 393
#     4  12  21  42  67  99 135 171 216 285 335 394
#     4  11  22  42  69 101 135 179 219 285 341 397
#     4  11  26  47  67  94 139 185 227 278 340 401
#
# _framework density 21.477858999999999
#
# number of rings (size 3 to 8) (size 9 to 14) (size 15 to 20)
#    0.000    0.800    8.000    0.600    0.000    1.600 
#   18.000    1.000    0.000    0.000    0.000    0.000 
#    0.000    0.000    0.000    0.000    0.000    0.000 
#
# Total GULP energy -111346.001585 kJ/mol
# GULP energy per Si atom -5567.300079 kJ/mol
# Density = 2.142897 g / cm^3
# Si number density = 21.477859 Si / 1000 Ang^3
#
#
#
# Elastic Constant Matrix: (Units=GPa)
#
#
# Indices 1 2 3 4 5 6 
#
# 1 154.0860 34.8615 38.5677 0.0000 -10.3930 0.0000
# 2 34.8615 95.7789 6.7915 0.0000 -3.0687 0.0000
# 3 38.5677 6.7915 97.7773 0.0000 -8.7772 0.0000
# 4 0.0000 0.0000 0.0000 23.6350 0.0000 0.2237
# 5 -10.3930 -3.0687 -8.7772 0.0000 19.5563 0.0000
# 6 0.0000 0.0000 0.0000 0.2237 0.0000 38.0238
#
#
#
# Elastic Compliance Matrix: (Units=1/GPa)
#
#
# Indices 1 2 3 4 5 6 
#
# 1 0.007935 -0.002613 -0.002716 0.000000 0.002588 0.000000
# 2 -0.002613 0.011388 0.000287 0.000000 0.000527 0.000000
# 3 -0.002716 0.000287 0.011621 0.000000 0.003817 0.000000
# 4 0.000000 0.000000 0.000000 0.042312 0.000000 -0.000249
# 5 0.002588 0.000527 0.003817 0.000000 0.054306 0.000000
# 6 0.000000 0.000000 0.000000 -0.000249 0.000000 0.026301
#
#
# Mechanical properties :
#
#
# Convention : Reuss Voigt Hill
#
# Bulk Modulus (GPa) = 47.93662 56.45373 52.19518
# Shear Modulus (GPa) = 29.25646 34.07112 31.66379
#
# Velocity S-wave (km/s) = 3.69476 3.98721 3.84377
# Velocity P-wave (km/s) = 6.36940 6.89484 6.63732
#
# Compressibility (1/GPa) = 0.02086088
#
# Stress axis : x y z
#
# Youngs Moduli (GPa) = 126.01638 87.80967 86.04744
#
# Poissons Ratio (x) = 0.22943 0.23373
# Poissons Ratio (y) = 0.32926 -0.02469
# Poissons Ratio (z) = 0.34230 -0.02519
#
# Static dielectric constant tensor:
#      x y z
#    x 1.912820 0.000000 -0.041600 
#    y 0.000000 1.900900 0.000000 
#    z -0.041600 0.000000 1.784390 
# 
# From -- ./inp_files/262839.got.cif
#   From: 2010.05.17/outbox.cif.g08.bks.cpg/sg15_132_cif.got.tgz:262839.got - 2010.06.03 18:47:42.
