data_PCOD9301432
_publ_section_title
;
Structure prediction by ZEFSAII (Michael W. Deem and Ramdas Pophale) SiO2 
 PCOD9301432
Probable space group: C 2/C
;
_chemical_formula_sum "Si O2"
_cell_formula_units_Z 64
_cell_length_a 9.759612
_cell_length_b 10.211430
_cell_length_c 28.754855
_cell_angle_alpha 90.000000
_cell_angle_beta 82.251451
_cell_angle_gamma 90.000000
_cell_volume 2839.531410
_symmetry_space_group_name_H-M "C 2/C"
_symmetry_group_IT_number 15
_symmetry_cell_setting 'monoclinic'
loop_
_space_group_symop_operation_xyz
x,y,z
-x,y,1/2-z
-x,-y,-z
x,-y,1/2+z
1/2+x,1/2+y,z
1/2-x,1/2+y,1/2-z
1/2-x,1/2-y,-z
1/2+x,1/2-y,1/2+z
loop_
_atom_site_type_symbol
_atom_site_label
_atom_site_fract_x
_atom_site_fract_y
_atom_site_fract_z
Si Si1 0.918916 0.466506 0.711437
Si Si2 0.868524 0.277088 0.087693
Si Si3 0.853375 0.722695 0.127566
Si Si4 0.957010 0.736626 0.830421
Si Si5 0.880560 0.996444 0.285159
Si Si6 0.619510 0.053700 0.461227
Si Si7 0.420810 0.416338 0.965546
Si Si8 0.395138 0.383319 0.382819
O O1 0.894988 0.380459 0.666083
O O2 0.762750 0.494519 0.735556
O O3 0.000000 0.399492 0.750000
O O4 0.001943 0.599950 0.695527
O O5 0.868499 0.430187 0.074646
O O6 0.701156 0.262571 0.094509
O O7 0.927013 0.244669 0.135553
O O8 0.976070 0.204624 0.048647
O O9 0.693159 0.761982 0.137742
O O10 0.895375 0.672367 0.074306
O O11 0.948073 0.845350 0.132852
O O12 0.941191 0.861918 0.797848
O O13 0.841004 0.926469 0.335182
O O14 0.000000 0.929583 0.250000
O O15 0.500000 0.000000 0.500000
O O16 0.757206 0.092348 0.484438
O O17 0.405658 0.498281 0.918511
O O18 0.500000 0.500000 0.000000
#
# Coordination Sequence:
#
# PCOD9301432 Si02
#       8
#     8   8   8   8   8   8   8   8
#     4  11  24  44  67  94 128 170 218 267 329 389
#     4  11  21  44  70  85 130 174 210 263 322 386
#     4  11  25  42  64  97 132 167 215 269 319 389
#     4  11  20  45  69  90 123 176 218 260 329 382
#     4  11  24  43  65  96 129 167 218 270 321 388
#     4  11  25  42  64  96 131 167 215 268 318 385
#     4  11  25  43  66  96 127 168 218 262 322 391
#     4  11  25  42  65  95 131 168 213 266 323 386
#
# _framework density 22.538930000000001
#
# number of rings (size 3 to 8) (size 9 to 14) (size 15 to 20)
#    0.000    1.000    5.000    1.875    5.250    5.000 
#    2.250    0.000    0.000    0.000    0.000    0.000 
#    0.000    0.000    0.000    0.000    0.000    0.000 
#
# Total GULP energy -178472.482014 kJ/mol
# GULP energy per Si atom -5577.265063 kJ/mol
# Density = 2.248763 g / cm^3
# Si number density = 22.538930 Si / 1000 Ang^3
#
#
#
# Elastic Constant Matrix: (Units=GPa)
#
#
# Indices 1 2 3 4 5 6 
#
# 1 122.1878 18.5311 29.1551 0.0000 3.7370 0.0000
# 2 18.5311 60.1662 -12.8002 0.0000 -2.6611 0.0000
# 3 29.1551 -12.8002 50.6691 0.0000 -4.8364 0.0000
# 4 0.0000 0.0000 0.0000 -0.3144 0.0000 -2.0431
# 5 3.7370 -2.6611 -4.8364 0.0000 41.0208 0.0000
# 6 0.0000 0.0000 0.0000 -2.0431 0.0000 38.5176
#
#
#
# Elastic Compliance Matrix: (Units=1/GPa)
#
#
# Indices 1 2 3 4 5 6 
#
# 1 0.010878 -0.005101 -0.007761 0.000000 -0.002237 0.000000
# 2 -0.005101 0.020072 0.008267 0.000000 0.002741 0.000000
# 3 -0.007761 0.008267 0.026709 0.000000 0.004392 0.000000
# 4 0.000000 0.000000 0.000000 -2.365157 0.000000 -0.125456
# 5 -0.002237 0.002741 0.004392 0.000000 0.025277 0.000000
# 6 0.000000 0.000000 0.000000 -0.125456 0.000000 0.019308
#
#
# Mechanical properties :
#
#
# Convention : Reuss Voigt Hill
#
# Bulk Modulus (GPa) = 20.63143 33.64391 27.13767
# Shear Modulus (GPa) = -2.23457 29.05392 13.40968
#
# Velocity S-wave (km/s) = -0.99678 3.59424 2.44182
# Velocity P-wave (km/s) = 2.80157 5.67311 4.47398
#
# Compressibility (1/GPa) = 0.04846975
#
# Stress axis : x y z
#
# Youngs Moduli (GPa) = 91.92869 49.82154 37.43988
#
# Poissons Ratio (x) = 0.25412 0.29058
# Poissons Ratio (y) = 0.46889 -0.30952
# Poissons Ratio (z) = 0.71348 -0.41188
#
# Static dielectric constant tensor:
#      x y z
#    x 2.036060 0.000000 -0.118940 
#    y 0.000000 1.848210 0.000000 
#    z -0.118940 0.000000 1.862500 
# 
# From -- ./inp_files/307486.got.cif
#   From: 2010.05.17/outbox.cif.g08.bks.cpg/sg15_154_cif.got.tgz:307486.got - 2010.06.03 18:47:42.
