data_PCOD9301707
_publ_section_title
;
Structure prediction by ZEFSAII (Michael W. Deem and Ramdas Pophale) SiO2 
 PCOD9301707
Probable space group: C 2/C
;
_chemical_formula_sum "Si O2"
_cell_formula_units_Z 64
_cell_length_a 19.558262
_cell_length_b 14.256118
_cell_length_c 25.927631
_cell_angle_alpha 90.000000
_cell_angle_beta 26.535728
_cell_angle_gamma 90.000000
_cell_volume 3229.717672
_symmetry_space_group_name_H-M "C 2/C"
_symmetry_group_IT_number 15
_symmetry_cell_setting 'monoclinic'
loop_
_space_group_symop_operation_xyz
x,y,z
-x,y,1/2-z
-x,-y,-z
x,-y,1/2+z
1/2+x,1/2+y,z
1/2-x,1/2+y,1/2-z
1/2-x,1/2-y,-z
1/2+x,1/2-y,1/2+z
loop_
_atom_site_type_symbol
_atom_site_label
_atom_site_fract_x
_atom_site_fract_y
_atom_site_fract_z
Si Si1 0.673219 0.620315 0.365899
Si Si2 0.247803 0.668292 0.794266
Si Si3 0.322204 0.336884 0.126908
Si Si4 0.041586 0.826733 0.661354
Si Si5 0.161412 0.975098 0.763060
Si Si6 0.108824 0.480470 0.225694
Si Si7 0.586316 0.869723 0.955465
Si Si8 0.108853 0.632012 0.561829
O O1 0.755181 0.719279 0.295901
O O2 0.501741 0.634421 0.504018
O O3 0.647736 0.557948 0.331545
O O4 0.784361 0.566510 0.330115
O O5 0.243899 0.648075 0.735350
O O6 0.365916 0.585362 0.729672
O O7 0.093041 0.646564 0.929915
O O8 0.228623 0.392783 0.146223
O O9 0.326061 0.226369 0.116490
O O10 0.035890 0.729172 0.633165
O O11 0.215699 0.862134 0.539606
O O12 0.000000 0.811661 0.750000
O O13 0.939164 0.906951 0.704486
O O14 0.336392 0.950611 0.629543
O O15 0.000000 0.490717 0.250000
O O16 0.985951 0.454058 0.352040
O O17 0.608349 0.878529 0.001321
#
# Coordination Sequence:
#
# PCOD9301707 Si02
#       8
#     8   8   8   8   8   8   8   8
#     4  11  25  44  64  95 129 165 217 268 313 377
#     4  11  23  40  63  93 121 167 213 266 314 373
#     4  11  22  40  65  97 125 160 214 265 323 376
#     4  11  23  37  56  94 132 170 201 262 324 391
#     4  12  22  39  66  90 128 164 218 256 320 379
#     4  12  26  41  65  94 127 170 215 260 328 382
#     4  11  21  38  63  94 128 160 202 263 327 381
#     4  11  23  38  61  90 136 162 204 255 333 386
#
# _framework density 19.815973
#
# number of rings (size 3 to 8) (size 9 to 14) (size 15 to 20)
#    0.000    0.750    5.000    3.375    5.250    0.000 
#    0.000    0.625    0.000    1.500    0.000    0.000 
#    0.000    0.000    0.000    0.000    0.000    0.000 
#
# Total GULP energy -178553.404765 kJ/mol
# GULP energy per Si atom -5579.793899 kJ/mol
# Density = 1.977087 g / cm^3
# Si number density = 19.815973 Si / 1000 Ang^3
#
#
#
# Elastic Constant Matrix: (Units=GPa)
#
#
# Indices 1 2 3 4 5 6 
#
# 1 48.1183 4.9469 8.4081 -0.0019 -10.0430 -0.0006
# 2 4.9469 100.8154 11.8862 -0.0095 -16.8976 -0.0018
# 3 8.4081 11.8862 83.3835 -0.0144 -4.6449 -0.0018
# 4 -0.0019 -0.0095 -0.0144 25.3795 -0.0006 -4.0467
# 5 -10.0430 -16.8976 -4.6449 -0.0006 28.7030 -0.0001
# 6 -0.0006 -0.0018 -0.0018 -4.0467 -0.0001 15.0470
#
#
#
# Elastic Compliance Matrix: (Units=1/GPa)
#
#
# Indices 1 2 3 4 5 6 
#
# 1 0.022720 0.000434 -0.001913 0.000001 0.007895 0.000001
# 2 0.000434 0.011137 -0.001269 0.000004 0.006503 0.000002
# 3 -0.001913 -0.001269 0.012399 0.000007 0.000590 0.000003
# 4 0.000001 0.000004 0.000007 0.041167 0.000005 0.011071
# 5 0.007895 0.006503 0.000590 0.000005 0.041526 0.000003
# 6 0.000001 0.000002 0.000003 0.011071 0.000003 0.069436
#
#
# Mechanical properties :
#
#
# Convention : Reuss Voigt Hill
#
# Bulk Modulus (GPa) = 24.53365 31.42218 27.97792
# Shear Modulus (GPa) = 22.99182 27.63097 25.31139
#
# Velocity S-wave (km/s) = 3.40996 3.73819 3.57784
# Velocity P-wave (km/s) = 5.28313 5.87567 5.58726
#
# Compressibility (1/GPa) = 0.04076034
#
# Stress axis : x y z
#
# Youngs Moduli (GPa) = 44.01473 89.78720 80.64858
#
# Poissons Ratio (x) = -0.03897 0.15428
# Poissons Ratio (y) = -0.01911 0.10235
# Poissons Ratio (z) = 0.08420 0.11395
#
# Static dielectric constant tensor:
#      x y z
#    x 1.727670 0.000000 -0.023150 
#    y 0.000000 1.734530 0.000000 
#    z -0.023150 0.000000 1.751350 
# 
# From -- ./inp_files/277632.got.cif
#   From: 2010.05.17/outbox.cif.g08.bks.cpg/sg15_139_cif.got.tgz:277632.got - 2010.06.03 18:47:42.
