data_PCOD9301180
_publ_section_title
;
Structure prediction by ZEFSAII (Michael W. Deem and Ramdas Pophale) SiO2 
 PCOD9301180
Probable space group: C 2/C
;
_chemical_formula_sum "Si O2"
_cell_formula_units_Z 56
_cell_length_a 13.294861
_cell_length_b 18.717783
_cell_length_c 11.339689
_cell_angle_alpha 90.000000
_cell_angle_beta 67.302784
_cell_angle_gamma 90.000000
_cell_volume 2603.349559
_symmetry_space_group_name_H-M "C 2/C"
_symmetry_group_IT_number 15
_symmetry_cell_setting 'monoclinic'
loop_
_space_group_symop_operation_xyz
x,y,z
-x,y,1/2-z
-x,-y,-z
x,-y,1/2+z
1/2+x,1/2+y,z
1/2-x,1/2+y,1/2-z
1/2-x,1/2-y,-z
1/2+x,1/2-y,1/2+z
loop_
_atom_site_type_symbol
_atom_site_label
_atom_site_fract_x
_atom_site_fract_y
_atom_site_fract_z
Si Si1 0.207945 0.201188 0.726073
Si Si2 0.118848 0.669668 0.656217
Si Si3 0.469559 0.263772 0.005676
Si Si4 0.218328 0.579190 0.409641
Si Si5 0.507042 0.888387 0.606406
Si Si6 0.751038 0.072655 0.963368
Si Si7 0.688173 0.343987 0.846262
O O1 0.314383 0.190387 0.759164
O O2 0.107525 0.201473 0.861314
O O3 0.203569 0.138320 0.634046
O O4 0.225922 0.279991 0.663186
O O5 0.096916 0.736420 0.578646
O O6 0.186388 0.612920 0.549654
O O7 0.000000 0.642360 0.750000
O O8 0.510312 0.190265 0.047277
O O9 0.568717 0.313550 0.923795
O O10 0.278734 0.504599 0.400336
O O11 0.288395 0.632738 0.297715
O O12 0.102086 0.574583 0.393904
O O13 0.500000 0.884094 0.750000
O O14 0.619552 0.925401 0.521211
O O15 0.788215 0.089534 0.079110
#
# Coordination Sequence:
#
# PCOD9301180 Si02
#       7
#     8   8   8   8   8   8   8
#     4  12  23  42  72 102 133 176 231 285 336 397
#     4  11  22  42  72 103 136 173 224 284 348 397
#     4  11  24  39  68 107 129 175 229 286 334 394
#     4  11  26  43  64 101 140 182 224 276 351 414
#     4  11  20  38  68 100 135 169 222 284 349 395
#     4  12  26  42  66  98 141 185 220 281 349 412
#     4  12  24  45  69  98 137 177 233 280 336 408
#
# _framework density 21.510748
#
# number of rings (size 3 to 8) (size 9 to 14) (size 15 to 20)
#    0.000    0.571    7.143    2.143    4.000    0.571 
#    0.000    0.714    3.143    0.000    0.000    0.000 
#    0.000    0.000    0.000    0.000    0.000    0.000 
#
# Total GULP energy -156736.877139 kJ/mol
# GULP energy per Si atom -5597.745612 kJ/mol
# Density = 2.146179 g / cm^3
# Si number density = 21.510748 Si / 1000 Ang^3
#
#
#
# Elastic Constant Matrix: (Units=GPa)
#
#
# Indices 1 2 3 4 5 6 
#
# 1 24.6693 -0.3112 -3.3787 0.0000 -1.7332 0.0000
# 2 -0.3112 97.3427 30.2193 0.0000 -4.1363 0.0000
# 3 -3.3787 30.2193 102.3877 0.0000 -15.8143 0.0000
# 4 0.0000 0.0000 0.0000 22.7450 0.0000 -3.1272
# 5 -1.7332 -4.1363 -15.8143 0.0000 44.2893 0.0000
# 6 0.0000 0.0000 0.0000 -3.1272 0.0000 12.9190
#
#
#
# Elastic Compliance Matrix: (Units=1/GPa)
#
#
# Indices 1 2 3 4 5 6 
#
# 1 0.040932 -0.000331 0.001790 0.000000 0.002210 0.000000
# 2 -0.000331 0.011313 -0.003375 0.000000 -0.000161 0.000000
# 3 0.001790 -0.003375 0.011414 0.000000 0.003830 0.000000
# 4 0.000000 0.000000 0.000000 0.045479 0.000000 0.011009
# 5 0.002210 -0.000161 0.003830 0.000000 0.024018 0.000000
# 6 0.000000 0.000000 0.000000 0.011009 0.000000 0.080070
#
#
# Mechanical properties :
#
#
# Convention : Reuss Voigt Hill
#
# Bulk Modulus (GPa) = 16.71487 30.82871 23.77179
# Shear Modulus (GPa) = 21.09703 29.18202 25.13953
#
# Velocity S-wave (km/s) = 3.13512 3.68723 3.42233
# Velocity P-wave (km/s) = 4.57085 5.70004 5.16639
#
# Compressibility (1/GPa) = 0.05982697
#
# Stress axis : x y z
#
# Youngs Moduli (GPa) = 24.43051 88.39594 87.61548
#
# Poissons Ratio (x) = 0.02924 -0.15681
# Poissons Ratio (y) = 0.00808 0.29568
# Poissons Ratio (z) = -0.04372 0.29832
#
# Static dielectric constant tensor:
#      x y z
#    x 1.780650 0.000000 -0.005180 
#    y 0.000000 1.787260 0.000000 
#    z -0.005180 0.000000 1.771520 
# 
# From -- ./inp_files/98651.got.cif
#   From: 2010.05.17/outbox.cif.g08.bks.cpg/sg15_50_cif.got.tgz:98651.got - 2010.06.03 18:47:42.
