data_PCOD9301517
_publ_section_title
;
Structure prediction by ZEFSAII (Michael W. Deem and Ramdas Pophale) SiO2 
 PCOD9301517
Probable space group: C 2/C
;
_chemical_formula_sum "Si O2"
_cell_formula_units_Z 56
_cell_length_a 29.503676
_cell_length_b 11.785651
_cell_length_c 8.971984
_cell_angle_alpha 90.000000
_cell_angle_beta 122.819913
_cell_angle_gamma 90.000000
_cell_volume 2621.760513
_symmetry_space_group_name_H-M "C 2/C"
_symmetry_group_IT_number 15
_symmetry_cell_setting 'monoclinic'
loop_
_space_group_symop_operation_xyz
x,y,z
-x,y,1/2-z
-x,-y,-z
x,-y,1/2+z
1/2+x,1/2+y,z
1/2-x,1/2+y,1/2-z
1/2-x,1/2-y,-z
1/2+x,1/2-y,1/2+z
loop_
_atom_site_type_symbol
_atom_site_label
_atom_site_fract_x
_atom_site_fract_y
_atom_site_fract_z
Si Si1 0.563752 0.364563 0.348185
Si Si2 0.661395 0.728129 0.469804
Si Si3 0.631050 0.147712 0.486419
Si Si4 0.157527 0.533009 0.821782
Si Si5 0.218976 0.952102 0.855233
Si Si6 0.738020 0.709017 0.144843
Si Si7 0.613856 0.427384 0.119105
O O1 0.500000 0.375313 0.250000
O O2 0.583801 0.237836 0.423262
O O3 0.582314 0.389886 0.210811
O O4 0.591483 0.455943 0.508271
O O5 0.641128 0.845772 0.364163
O O6 0.689689 0.648397 0.395702
O O7 0.710238 0.758835 0.666195
O O8 0.617458 0.661240 0.489075
O O9 0.641240 0.048791 0.622928
O O10 0.685330 0.220380 0.592063
O O11 0.629281 0.079909 0.329732
O O12 0.221664 0.523655 0.973530
O O13 0.225259 0.915140 0.692532
O O14 0.175709 0.052191 0.780776
O O15 0.750000 0.750000 0.000000
#
# Coordination Sequence:
#
# PCOD9301517 Si02
#       7
#     8   8   8   8   8   8   8
#     4  12  28  50  73  98 129 171 235 300 354 398
#     4  11  21  40  62  97 141 181 215 262 328 407
#     4  12  25  44  66  96 138 184 226 277 326 400
#     4  11  25  40  65 100 148 184 219 256 326 411
#     4  11  21  41  62 101 143 184 212 271 325 409
#     4  11  21  35  61  95 139 183 221 256 321 400
#     4  12  24  43  75 100 133 172 224 287 356 403
#
# _framework density 21.359691000000002
#
# number of rings (size 3 to 8) (size 9 to 14) (size 15 to 20)
#    0.000    0.571    5.714    3.000    6.000    0.000 
#    0.000    0.714    0.000    0.000    0.000    0.000 
#    0.000    0.000    0.000    0.000    0.000    0.000 
#
# Total GULP energy -156588.657300 kJ/mol
# GULP energy per Si atom -5592.452046 kJ/mol
# Density = 2.131108 g / cm^3
# Si number density = 21.359691 Si / 1000 Ang^3
#
#
#
# Elastic Constant Matrix: (Units=GPa)
#
#
# Indices 1 2 3 4 5 6 
#
# 1 92.2254 33.3592 31.1827 0.0000 -11.4711 0.0000
# 2 33.3592 57.0476 -5.4128 0.0000 6.8320 0.0000
# 3 31.1827 -5.4128 57.6414 0.0000 -16.1140 0.0000
# 4 0.0000 0.0000 0.0000 231.6709 0.0000 -721.3438
# 5 -11.4711 6.8320 -16.1140 0.0000 29.8266 0.0000
# 6 0.0000 0.0000 0.0000 -721.3438 0.0000 2525.6031
#
#
#
# Elastic Compliance Matrix: (Units=1/GPa)
#
#
# Indices 1 2 3 4 5 6 
#
# 1 0.019789 -0.013163 -0.010567 0.000000 0.004917 0.000000
# 2 -0.013163 0.026799 0.007664 0.000000 -0.007061 0.000000
# 3 -0.010567 0.007664 0.026100 0.000000 0.008281 0.000000
# 4 0.000000 0.000000 0.000000 0.038992 0.000000 0.011137
# 5 0.004917 -0.007061 0.008281 0.000000 0.041509 0.000000
# 6 0.000000 0.000000 0.000000 0.011137 0.000000 0.003577
#
#
# Mechanical properties :
#
#
# Convention : Reuss Voigt Hill
#
# Bulk Modulus (GPa) = 24.65774 36.13031 30.39402
# Shear Modulus (GPa) = 24.70156 567.27247 295.98701
#
# Velocity S-wave (km/s) = 3.40436 16.31433 11.78446
# Velocity P-wave (km/s) = 5.19827 19.28285 14.12180
#
# Compressibility (1/GPa) = 0.04055522
#
# Stress axis : x y z
#
# Youngs Moduli (GPa) = 50.53425 37.31457 38.31466
#
# Poissons Ratio (x) = 0.49117 0.40486
# Poissons Ratio (y) = 0.66518 -0.29363
# Poissons Ratio (z) = 0.53398 -0.28596
#
# Static dielectric constant tensor:
#      x y z
#    x 2.100670 0.000000 -0.123220 
#    y 0.000000 1.966000 0.000000 
#    z -0.123220 0.000000 1.810770 
# 
# From -- ./inp_files/65549.got.cif
#   From: 2010.05.17/outbox.cif.g08.bks.cpg/sg15_33_cif.got.tgz:65549.got - 2010.06.03 18:47:42.
