data_PCOD9301935
_publ_section_title
;
Structure prediction by ZEFSAII (Michael W. Deem and Ramdas Pophale) SiO2 
 PCOD9301935
Probable space group: C 2/C
;
_chemical_formula_sum "Si O2"
_cell_formula_units_Z 56
_cell_length_a 17.359106
_cell_length_b 18.632942
_cell_length_c 8.705128
_cell_angle_alpha 90.000000
_cell_angle_beta 66.189624
_cell_angle_gamma 90.000000
_cell_volume 2576.031696
_symmetry_space_group_name_H-M "C 2/C"
_symmetry_group_IT_number 15
_symmetry_cell_setting 'monoclinic'
loop_
_space_group_symop_operation_xyz
x,y,z
-x,y,1/2-z
-x,-y,-z
x,-y,1/2+z
1/2+x,1/2+y,z
1/2-x,1/2+y,1/2-z
1/2-x,1/2-y,-z
1/2+x,1/2-y,1/2+z
loop_
_atom_site_type_symbol
_atom_site_label
_atom_site_fract_x
_atom_site_fract_y
_atom_site_fract_z
Si Si1 0.207186 0.188418 0.438861
Si Si2 0.365681 0.390781 0.103795
Si Si3 0.145778 0.967624 0.719044
Si Si4 0.320296 0.938817 0.743616
Si Si5 0.208780 0.706203 0.669856
Si Si6 0.400831 0.074118 0.862731
Si Si7 0.039216 0.110377 0.565796
O O1 0.250000 0.250000 0.500000
O O2 0.280449 0.127607 0.370112
O O3 0.182166 0.229399 0.301843
O O4 0.115858 0.159401 0.560514
O O5 0.352884 0.448500 0.248391
O O6 0.287031 0.338746 0.173379
O O7 0.456775 0.354797 0.053984
O O8 0.366383 0.434661 0.940140
O O9 0.239151 0.949695 0.700065
O O10 0.079982 0.936847 0.897434
O O11 0.389642 0.923907 0.557002
O O12 0.351287 0.005734 0.823575
O O13 0.250000 0.750000 0.500000
O O14 0.139937 0.647341 0.673811
O O15 0.500000 0.068185 0.750000
O O16 0.000000 0.072778 0.750000
#
# Coordination Sequence:
#
# PCOD9301935 Si02
#       7
#     8   8   8   8   8   8   8
#     4  11  26  47  72  99 144 192 238 290 358 433
#     4  12  23  40  70  99 140 177 228 286 347 424
#     4  11  21  40  68 103 136 180 221 284 352 420
#     4  11  23  48  72 108 139 188 242 290 367 427
#     4  12  24  46  71  98 142 190 235 292 363 429
#     4  12  26  46  75 109 143 186 246 306 358 424
#     4  11  24  42  64 101 137 175 231 284 346 413
#
# _framework density 21.738862999999998
#
# number of rings (size 3 to 8) (size 9 to 14) (size 15 to 20)
#    0.000    0.571    4.286    3.857    2.000    3.429 
#    2.571    0.000    0.000    0.000    0.000    0.000 
#    0.000    0.000    0.000    0.000    0.000    0.000 
#
# Total GULP energy -156132.780508 kJ/mol
# GULP energy per Si atom -5576.170732 kJ/mol
# Density = 2.168938 g / cm^3
# Si number density = 21.738863 Si / 1000 Ang^3
#
#
#
# Elastic Constant Matrix: (Units=GPa)
#
#
# Indices 1 2 3 4 5 6 
#
# 1 107.0828 45.4636 25.2992 0.0000 -11.4741 0.0000
# 2 45.4636 102.2491 31.2894 0.0000 -7.4456 0.0000
# 3 25.2992 31.2894 95.1780 0.0000 -18.0087 0.0000
# 4 0.0000 0.0000 0.0000 49.0416 0.0000 10.2633
# 5 -11.4741 -7.4456 -18.0087 0.0000 34.8391 0.0000
# 6 0.0000 0.0000 0.0000 10.2633 0.0000 26.1345
#
#
#
# Elastic Compliance Matrix: (Units=1/GPa)
#
#
# Indices 1 2 3 4 5 6 
#
# 1 0.011879 -0.004760 -0.001158 0.000000 0.002296 0.000000
# 2 -0.004760 0.012790 -0.003014 0.000000 -0.000392 0.000000
# 3 -0.001158 -0.003014 0.012870 0.000000 0.005627 0.000000
# 4 0.000000 0.000000 0.000000 0.022217 0.000000 -0.008725
# 5 0.002296 -0.000392 0.005627 0.000000 0.032285 0.000000
# 6 0.000000 0.000000 0.000000 -0.008725 0.000000 0.041690
#
#
# Mechanical properties :
#
#
# Convention : Reuss Voigt Hill
#
# Bulk Modulus (GPa) = 50.82524 56.51268 53.66896
# Shear Modulus (GPa) = 31.61486 35.50022 33.55754
#
# Velocity S-wave (km/s) = 3.81767 4.04546 3.93321
# Velocity P-wave (km/s) = 6.54702 6.91907 6.73562
#
# Compressibility (1/GPa) = 0.01967526
#
# Stress axis : x y z
#
# Youngs Moduli (GPa) = 84.17983 78.18424 77.70060
#
# Poissons Ratio (x) = 0.37218 0.08999
# Poissons Ratio (y) = 0.40072 0.23416
# Poissons Ratio (z) = 0.09750 0.23562
#
# Static dielectric constant tensor:
#      x y z
#    x 1.821290 0.000000 0.034090 
#    y 0.000000 1.710740 0.000000 
#    z 0.034090 0.000000 1.891970 
# 
# From -- ./inp_files/49028.got.cif
#   From: 2010.05.17/outbox.cif.g08.bks.cpg/sg15_25_cif.got.tgz:49028.got - 2010.06.03 18:47:42.
