data_PCOD9301513
_publ_section_title
;
Structure prediction by ZEFSAII (Michael W. Deem and Ramdas Pophale) SiO2 
 PCOD9301513
Probable space group: C 2/C
;
_chemical_formula_sum "Si O2"
_cell_formula_units_Z 56
_cell_length_a 19.591196
_cell_length_b 12.068860
_cell_length_c 11.884130
_cell_angle_alpha 90.000000
_cell_angle_beta 78.716036
_cell_angle_gamma 90.000000
_cell_volume 2755.606778
_symmetry_space_group_name_H-M "C 2/C"
_symmetry_group_IT_number 15
_symmetry_cell_setting 'monoclinic'
loop_
_space_group_symop_operation_xyz
x,y,z
-x,y,1/2-z
-x,-y,-z
x,-y,1/2+z
1/2+x,1/2+y,z
1/2-x,1/2+y,1/2-z
1/2-x,1/2-y,-z
1/2+x,1/2-y,1/2+z
loop_
_atom_site_type_symbol
_atom_site_label
_atom_site_fract_x
_atom_site_fract_y
_atom_site_fract_z
Si Si1 0.837910 0.532383 0.799094
Si Si2 0.220384 0.760245 0.635919
Si Si3 0.555020 0.896930 0.869183
Si Si4 0.187979 0.955556 0.785867
Si Si5 0.855455 0.805481 0.238657
Si Si6 0.171914 0.782501 0.991815
Si Si7 0.400039 0.929808 0.974930
O O1 0.832577 0.659979 0.828848
O O2 0.908518 0.490647 0.719793
O O3 0.768270 0.498210 0.756542
O O4 0.837750 0.459934 0.911815
O O5 0.250000 0.750000 0.500000
O O6 0.184085 0.875339 0.679310
O O7 0.283032 0.741499 0.706961
O O8 0.588075 0.779400 0.828810
O O9 0.472296 0.891322 0.895627
O O10 0.579192 0.951959 0.978593
O O11 0.173270 0.882304 0.901865
O O12 0.142235 0.066355 0.798220
O O13 0.859226 0.804143 0.373303
O O14 0.250000 0.750000 0.000000
O O15 0.130924 0.676893 0.951086
#
# Coordination Sequence:
#
# PCOD9301513 Si02
#       7
#     8   8   8   8   8   8   8
#     4  11  21  35  61  86 125 157 200 260 300 375
#     4  11  22  36  58  91 129 162 200 263 316 367
#     4  11  22  41  59  96 122 159 207 257 311 375
#     4  11  24  38  60  95 124 166 208 258 319 379
#     4  11  24  38  61  90 130 165 206 258 315 384
#     4  12  21  41  63  90 123 164 211 260 315 383
#     4  11  23  37  68  88 123 161 206 260 313 374
#
# _framework density 20.322203999999999
#
# number of rings (size 3 to 8) (size 9 to 14) (size 15 to 20)
#    0.000    0.857    5.714    2.143    6.000    0.000 
#    0.000    0.714    0.000    0.000    3.714    0.000 
#    0.000    0.000    0.000    0.000    0.000    0.000 
#
# Total GULP energy -156121.971705 kJ/mol
# GULP energy per Si atom -5575.784704 kJ/mol
# Density = 2.027595 g / cm^3
# Si number density = 20.322204 Si / 1000 Ang^3
#
#
#
# Elastic Constant Matrix: (Units=GPa)
#
#
# Indices 1 2 3 4 5 6 
#
# 1 54.0165 42.0810 23.9085 0.0000 -12.1413 0.0000
# 2 42.0810 175.3617 55.9982 0.0000 -18.9315 0.0000
# 3 23.9085 55.9982 88.3388 0.0000 -6.7726 0.0000
# 4 0.0000 0.0000 0.0000 28.9145 0.0000 4.0914
# 5 -12.1413 -18.9315 -6.7726 0.0000 24.3527 0.0000
# 6 0.0000 0.0000 0.0000 4.0914 0.0000 17.1372
#
#
#
# Elastic Compliance Matrix: (Units=1/GPa)
#
#
# Indices 1 2 3 4 5 6 
#
# 1 0.025096 -0.003949 -0.003643 0.000000 0.008429 0.000000
# 2 -0.003949 0.008262 -0.003911 0.000000 0.003367 0.000000
# 3 -0.003643 -0.003911 0.014727 0.000000 -0.000761 0.000000
# 4 0.000000 0.000000 0.000000 0.035794 0.000000 -0.008546
# 5 0.008429 0.003367 -0.000761 0.000000 0.047671 0.000000
# 6 0.000000 0.000000 0.000000 -0.008546 0.000000 0.060393
#
#
# Mechanical properties :
#
#
# Convention : Reuss Voigt Hill
#
# Bulk Modulus (GPa) = 39.87166 62.41027 51.14097
# Shear Modulus (GPa) = 22.39060 27.12950 24.76005
#
# Velocity S-wave (km/s) = 3.32291 3.65769 3.49431
# Velocity P-wave (km/s) = 5.86384 6.97247 6.44205
#
# Compressibility (1/GPa) = 0.02508047
#
# Stress axis : x y z
#
# Youngs Moduli (GPa) = 39.84664 121.03038 67.90451
#
# Poissons Ratio (x) = 0.47796 0.24735
# Poissons Ratio (y) = 0.15736 0.26555
# Poissons Ratio (z) = 0.14515 0.47331
#
# Static dielectric constant tensor:
#      x y z
#    x 1.727880 0.000000 0.067020 
#    y 0.000000 1.752540 0.000000 
#    z 0.067020 0.000000 1.895280 
# 
# From -- ./inp_files/110972.got.cif
#   From: 2010.05.17/outbox.cif.g08.bks.cpg/sg15_56_cif.got.tgz:110972.got - 2010.06.03 18:47:42.
