data_PCOD9301063
_publ_section_title
;
Structure prediction by ZEFSAII (Michael W. Deem and Ramdas Pophale) SiO2 
 PCOD9301063
Probable space group: C 2/C
;
_chemical_formula_sum "Si O2"
_cell_formula_units_Z 56
_cell_length_a 30.145166
_cell_length_b 18.345281
_cell_length_c 19.147552
_cell_angle_alpha 90.000000
_cell_angle_beta 162.434284
_cell_angle_gamma 90.000000
_cell_volume 3195.757294
_symmetry_space_group_name_H-M "C 2/C"
_symmetry_group_IT_number 15
_symmetry_cell_setting 'monoclinic'
loop_
_space_group_symop_operation_xyz
x,y,z
-x,y,1/2-z
-x,-y,-z
x,-y,1/2+z
1/2+x,1/2+y,z
1/2-x,1/2+y,1/2-z
1/2-x,1/2-y,-z
1/2+x,1/2-y,1/2+z
loop_
_atom_site_type_symbol
_atom_site_label
_atom_site_fract_x
_atom_site_fract_y
_atom_site_fract_z
Si Si1 0.850912 0.929499 0.414329
Si Si2 0.630770 0.866677 0.574366
Si Si3 0.301689 0.821093 0.118509
Si Si4 0.327616 0.023803 0.245055
Si Si5 0.145333 0.224127 0.516302
Si Si6 0.326660 0.525844 0.119314
Si Si7 0.838171 0.496537 0.484168
O O1 0.889041 0.845935 0.487782
O O2 0.997427 0.977151 0.621074
O O3 0.764223 0.963228 0.350025
O O4 0.745021 0.939155 0.189447
O O5 0.465750 0.842622 0.344872
O O6 0.688841 0.903432 0.732869
O O7 0.693833 0.793979 0.633605
O O8 0.638687 0.930916 0.528578
O O9 0.250000 0.750000 0.000000
O O10 0.272844 0.801241 0.155268
O O11 0.210773 0.891938 0.960258
O O12 0.500000 0.000000 0.500000
O O13 0.257008 0.025095 0.062367
O O14 0.000000 0.240403 0.250000
O O15 0.260123 0.513145 0.095732
O O16 0.000000 0.472330 0.750000
#
# Coordination Sequence:
#
# PCOD9301063 Si02
#       7
#     8   8   8   8   8   8   8
#     4  11  22  36  55  85 116 151 194 242 304 349
#     4  11  22  36  56  87 118 153 195 241 299 361
#     4  12  20  31  55  84 119 149 183 237 306 353
#     4  11  20  37  58  81 116 159 201 235 291 362
#     4  12  20  33  55  83 116 147 182 244 303 349
#     4  12  20  35  56  83 117 152 196 243 293 347
#     4  11  22  37  58  82 115 154 199 246 289 354
#
# _framework density 17.523233000000001
#
# number of rings (size 3 to 8) (size 9 to 14) (size 15 to 20)
#    0.000    0.571    7.143    3.000    0.000    0.000 
#    0.000    0.000    0.000    4.286    0.000    0.000 
#    0.000    0.000    0.000    0.000    0.000    0.000 
#
# Total GULP energy -156268.789059 kJ/mol
# GULP energy per Si atom -5581.028181 kJ/mol
# Density = 1.748335 g / cm^3
# Si number density = 17.523233 Si / 1000 Ang^3
#
#
#
# Elastic Constant Matrix: (Units=GPa)
#
#
# Indices 1 2 3 4 5 6 
#
# 1 116.6414 18.5822 22.9360 0.0000 -3.7647 0.0000
# 2 18.5822 72.6660 2.5034 0.0000 -18.9530 0.0000
# 3 22.9360 2.5034 51.6475 0.0000 -2.1812 0.0000
# 4 0.0000 0.0000 0.0000 21.4176 0.0000 -8.3292
# 5 -3.7647 -18.9530 -2.1812 0.0000 29.6074 0.0000
# 6 0.0000 0.0000 0.0000 -8.3292 0.0000 33.9044
#
#
#
# Elastic Compliance Matrix: (Units=1/GPa)
#
#
# Indices 1 2 3 4 5 6 
#
# 1 0.009792 -0.002538 -0.004255 0.000000 -0.000693 0.000000
# 2 -0.002538 0.017184 0.000748 0.000000 0.010733 0.000000
# 3 -0.004255 0.000748 0.021279 0.000000 0.001505 0.000000
# 4 0.000000 0.000000 0.000000 0.051623 0.000000 0.012682
# 5 -0.000693 0.010733 0.001505 0.000000 0.040669 0.000000
# 6 0.000000 0.000000 0.000000 0.012682 0.000000 0.032610
#
#
# Mechanical properties :
#
#
# Convention : Reuss Voigt Hill
#
# Bulk Modulus (GPa) = 27.65166 36.55533 32.10350
# Shear Modulus (GPa) = 25.34187 30.11476 27.72832
#
# Velocity S-wave (km/s) = 3.80700 4.15005 3.98222
# Velocity P-wave (km/s) = 5.92778 6.62346 6.28526
#
# Compressibility (1/GPa) = 0.03616419
#
# Stress axis : x y z
#
# Youngs Moduli (GPa) = 102.12510 58.19278 46.99508
#
# Poissons Ratio (x) = 0.14771 0.19995
# Poissons Ratio (y) = 0.25922 -0.03513
# Poissons Ratio (z) = 0.43451 -0.04350
#
# Static dielectric constant tensor:
#      x y z
#    x 1.652050 0.000000 0.014690 
#    y 0.000000 1.597820 0.000000 
#    z 0.014690 0.000000 1.604390 
# 
# From -- ./inp_files/200121.got.cif
#   From: 2010.05.17/outbox.cif.g08.bks.cpg/sg15_101_cif.got.tgz:200121.got - 2010.06.03 18:47:42.
