data_PCOD9301145
_publ_section_title
;
Structure prediction by ZEFSAII (Michael W. Deem and Ramdas Pophale) SiO2 
 PCOD9301145
Probable space group: C 2/C
;
_chemical_formula_sum "Si O2"
_cell_formula_units_Z 40
_cell_length_a 8.195605
_cell_length_b 14.250972
_cell_length_c 13.167309
_cell_angle_alpha 90.000000
_cell_angle_beta 77.732817
_cell_angle_gamma 90.000000
_cell_volume 1502.766538
_symmetry_space_group_name_H-M "C 2/C"
_symmetry_group_IT_number 15
_symmetry_cell_setting 'monoclinic'
loop_
_space_group_symop_operation_xyz
x,y,z
-x,y,1/2-z
-x,-y,-z
x,-y,1/2+z
1/2+x,1/2+y,z
1/2-x,1/2+y,1/2-z
1/2-x,1/2-y,-z
1/2+x,1/2-y,1/2+z
loop_
_atom_site_type_symbol
_atom_site_label
_atom_site_fract_x
_atom_site_fract_y
_atom_site_fract_z
Si Si1 0.739632 0.226871 0.326698
Si Si2 0.241980 0.584820 0.744334
Si Si3 0.112855 0.816896 0.073528
Si Si4 0.176917 0.093109 0.368877
Si Si5 0.452420 0.060833 0.100778
O O1 0.824067 0.329876 0.318288
O O2 0.450892 0.266838 0.141811
O O3 0.821616 0.172581 0.219646
O O4 0.694581 0.136738 0.403103
O O5 0.309404 0.633199 0.838537
O O6 0.360679 0.511137 0.668560
O O7 0.118002 0.509748 0.807609
O O8 0.250000 0.750000 0.000000
O O9 0.068487 0.880115 0.981163
O O10 0.369863 0.095420 0.380799
O O11 0.500000 0.000000 0.000000
#
# Coordination Sequence:
#
# PCOD9301145 Si02
#       5
#     8   8   8   8   8
#     4  11  22  38  61  91 118 154 212 249 295 372
#     4  11  21  35  60  88 125 149 199 263 296 351
#     4  12  20  37  65  90 116 160 209 254 297 364
#     4  11  23  38  62  92 118 160 207 254 306 361
#     4  11  20  38  62  87 115 161 209 247 301 368
#
# _framework density 26.617573
#
# number of rings (size 3 to 8) (size 9 to 14) (size 15 to 20)
#    0.000    0.800    6.000    4.200    0.000    0.800 
#    0.000    1.000    0.000    9.600    0.000    0.000 
#    0.000    0.000    0.000    0.000    0.000    0.000 
#
# Total GULP energy -111421.479910 kJ/mol
# GULP energy per Si atom -5571.073995 kJ/mol
# Density = 2.655699 g / cm^3
# Si number density = 26.617573 Si / 1000 Ang^3
#
#
#
# Elastic Constant Matrix: (Units=GPa)
#
#
# Indices 1 2 3 4 5 6 
#
# 1 57.7740 -0.5239 5.6310 0.0000 -12.1280 0.0000
# 2 -0.5239 178.5639 44.8249 0.0000 -5.4615 0.0000
# 3 5.6310 44.8249 154.1301 0.0000 -25.5999 0.0000
# 4 0.0000 0.0000 0.0000 20.3171 0.0000 -14.7292
# 5 -12.1280 -5.4615 -25.5999 0.0000 29.8365 0.0000
# 6 0.0000 0.0000 0.0000 -14.7292 0.0000 43.2070
#
#
#
# Elastic Compliance Matrix: (Units=1/GPa)
#
#
# Indices 1 2 3 4 5 6 
#
# 1 0.018989 0.000149 0.000641 0.000000 0.008296 0.000000
# 2 0.000149 0.006048 -0.001831 0.000000 -0.000404 0.000000
# 3 0.000641 -0.001831 0.008146 0.000000 0.006914 0.000000
# 4 0.000000 0.000000 0.000000 0.065377 0.000000 0.022287
# 5 0.008296 -0.000404 0.006914 0.000000 0.042747 0.000000
# 6 0.000000 0.000000 0.000000 0.022287 0.000000 0.030742
#
#
# Mechanical properties :
#
#
# Convention : Reuss Voigt Hill
#
# Bulk Modulus (GPa) = 32.15536 54.48131 43.31833
# Shear Modulus (GPa) = 27.10042 41.37452 34.23747
#
# Velocity S-wave (km/s) = 3.19429 3.94687 3.59036
# Velocity P-wave (km/s) = 5.07064 6.42519 5.78768
#
# Compressibility (1/GPa) = 0.03109902
#
# Stress axis : x y z
#
# Youngs Moduli (GPa) = 52.66154 165.34215 122.76484
#
# Poissons Ratio (x) = -0.02456 -0.07868
# Poissons Ratio (y) = -0.00782 0.22484
# Poissons Ratio (z) = -0.03375 0.30281
#
# Static dielectric constant tensor:
#      x y z
#    x 2.140590 0.000000 -0.200990 
#    y 0.000000 2.390650 0.000000 
#    z -0.200990 0.000000 1.438100 
# 
# From -- ./inp_files/152859.got.cif
#   From: 2010.05.17/outbox.cif.g08.bks.cpg/sg15_77_cif.got.tgz:152859.got - 2010.06.03 18:47:42.
