data_PCOD9301426
_publ_section_title
;
Structure prediction by ZEFSAII (Michael W. Deem and Ramdas Pophale) SiO2 
 PCOD9301426
Probable space group: C 2/C
;
_chemical_formula_sum "Si O2"
_cell_formula_units_Z 56
_cell_length_a 27.194736
_cell_length_b 12.030310
_cell_length_c 10.253329
_cell_angle_alpha 90.000000
_cell_angle_beta 137.269805
_cell_angle_gamma 90.000000
_cell_volume 2276.179013
_symmetry_space_group_name_H-M "C 2/C"
_symmetry_group_IT_number 15
_symmetry_cell_setting 'monoclinic'
loop_
_space_group_symop_operation_xyz
x,y,z
-x,y,1/2-z
-x,-y,-z
x,-y,1/2+z
1/2+x,1/2+y,z
1/2-x,1/2+y,1/2-z
1/2-x,1/2-y,-z
1/2+x,1/2-y,1/2+z
loop_
_atom_site_type_symbol
_atom_site_label
_atom_site_fract_x
_atom_site_fract_y
_atom_site_fract_z
Si Si1 0.040796 0.332985 0.198926
Si Si2 0.830457 0.596896 0.691573
Si Si3 0.903562 0.636150 0.308537
Si Si4 0.182023 0.028264 0.936264
Si Si5 0.671046 0.742367 0.080237
Si Si6 0.674474 0.680676 0.685219
Si Si7 0.061210 0.078260 0.278047
O O1 0.124582 0.369363 0.351195
O O2 0.036494 0.199404 0.187483
O O3 0.000000 0.373557 0.250000
O O4 0.990251 0.373337 0.981438
O O5 0.867071 0.476980 0.786643
O O6 0.745261 0.565398 0.543199
O O7 0.849401 0.700887 0.822467
O O8 0.881547 0.730581 0.369087
O O9 0.871209 0.683095 0.110237
O O10 0.167864 0.112872 0.031830
O O11 0.204758 0.113286 0.866829
O O12 0.099629 0.990120 0.739555
O O13 0.756604 0.762613 0.241108
O O14 0.633010 0.602418 0.504221
O O15 0.000000 0.026245 0.250000
#
# Coordination Sequence:
#
# PCOD9301426 Si02
#       7
#     8   8   8   8   8   8   8
#     4  11  26  46  69 103 140 183 238 295 345 426
#     4  12  25  43  75 105 139 189 234 293 355 419
#     4  11  22  45  70  97 141 187 230 289 359 410
#     4  11  24  43  70 107 137 189 237 289 354 419
#     4  11  24  44  71 106 142 179 239 297 350 425
#     4  11  20  44  71  95 141 183 233 296 349 417
#     4  11  24  46  70  97 139 190 231 293 352 413
#
# _framework density 24.602633999999998
#
# number of rings (size 3 to 8) (size 9 to 14) (size 15 to 20)
#    0.000    0.857    7.143    1.286    2.000    2.857 
#    7.714    0.000    0.000    0.000    0.000    0.000 
#    0.000    0.000    0.000    0.000    0.000    0.000 
#
# Total GULP energy -156168.746697 kJ/mol
# GULP energy per Si atom -5577.455239 kJ/mol
# Density = 2.454664 g / cm^3
# Si number density = 24.602634 Si / 1000 Ang^3
#
#
#
# Elastic Constant Matrix: (Units=GPa)
#
#
# Indices 1 2 3 4 5 6 
#
# 1 139.5224 29.9620 25.0428 0.0000 37.1450 0.0000
# 2 29.9620 50.0085 8.5839 0.0000 6.7793 0.0000
# 3 25.0428 8.5839 74.6333 0.0000 19.1314 0.0000
# 4 0.0000 0.0000 0.0000 20.9646 0.0000 11.1404
# 5 37.1450 6.7793 19.1314 0.0000 28.1072 0.0000
# 6 0.0000 0.0000 0.0000 11.1404 0.0000 21.7045
#
#
#
# Elastic Compliance Matrix: (Units=1/GPa)
#
#
# Indices 1 2 3 4 5 6 
#
# 1 0.012307 -0.005376 0.000394 0.000000 -0.015237 0.000000
# 2 -0.005376 0.023131 -0.001511 0.000000 0.002554 0.000000
# 3 0.000394 -0.001511 0.016330 0.000000 -0.011272 0.000000
# 4 0.000000 0.000000 0.000000 0.065589 0.000000 -0.033665
# 5 -0.015237 0.002554 -0.011272 0.000000 0.062770 0.000000
# 6 0.000000 0.000000 0.000000 -0.033665 0.000000 0.063353
#
#
# Mechanical properties :
#
#
# Convention : Reuss Voigt Hill
#
# Bulk Modulus (GPa) = 25.78511 43.48240 34.63376
# Shear Modulus (GPa) = 18.56024 27.52696 23.04360
#
# Velocity S-wave (km/s) = 2.74961 3.34857 3.06376
# Velocity P-wave (km/s) = 4.53695 5.71514 5.15978
#
# Compressibility (1/GPa) = 0.03878207
#
# Stress axis : x y z
#
# Youngs Moduli (GPa) = 81.25167 43.23263 61.23814
#
# Poissons Ratio (x) = 0.23242 -0.02415
# Poissons Ratio (y) = 0.43681 0.09255
# Poissons Ratio (z) = -0.03204 0.06533
#
# Static dielectric constant tensor:
#      x y z
#    x 2.167140 0.000000 -0.051050 
#    y 0.000000 2.185920 0.000000 
#    z -0.051050 0.000000 1.993580 
# 
# From -- ./inp_files/122697.got.cif
#   From: 2010.05.17/outbox.cif.g08.bks.cpg/sg15_62_cif.got.tgz:122697.got - 2010.06.03 18:47:42.
