data_PCOD9301722
_publ_section_title
;
Structure prediction by ZEFSAII (Michael W. Deem and Ramdas Pophale) SiO2 
 PCOD9301722
Probable space group: C 2/C
;
_chemical_formula_sum "Si O2"
_cell_formula_units_Z 56
_cell_length_a 17.434605
_cell_length_b 14.146385
_cell_length_c 11.053904
_cell_angle_alpha 90.000000
_cell_angle_beta 102.588656
_cell_angle_gamma 90.000000
_cell_volume 2660.757303
_symmetry_space_group_name_H-M "C 2/C"
_symmetry_group_IT_number 15
_symmetry_cell_setting 'monoclinic'
loop_
_space_group_symop_operation_xyz
x,y,z
-x,y,1/2-z
-x,-y,-z
x,-y,1/2+z
1/2+x,1/2+y,z
1/2-x,1/2+y,1/2-z
1/2-x,1/2-y,-z
1/2+x,1/2-y,1/2+z
loop_
_atom_site_type_symbol
_atom_site_label
_atom_site_fract_x
_atom_site_fract_y
_atom_site_fract_z
Si Si1 0.365524 0.628836 0.064547
Si Si2 0.220912 0.381640 0.119449
Si Si3 0.000000 0.245926 0.750000
Si Si4 0.155081 0.775350 0.191417
Si Si5 0.147838 0.076676 0.036205
Si Si6 0.734171 0.085327 0.200410
Si Si7 0.564088 0.229389 0.522107
Si Si8 0.500000 0.268973 0.750000
O O1 0.280811 0.622900 0.099025
O O2 0.427907 0.665723 0.182748
O O3 0.364016 0.700520 0.952484
O O4 0.383777 0.524712 0.018120
O O5 0.266079 0.329086 0.243047
O O6 0.196507 0.485469 0.154386
O O7 0.147916 0.321295 0.050439
O O8 0.286286 0.391841 0.038098
O O9 0.080818 0.192180 0.746346
O O10 0.982253 0.296986 0.616046
O O11 0.173434 0.665318 0.219897
O O12 0.197651 0.067766 0.176973
O O13 0.082103 0.157611 0.024577
O O14 0.524022 0.211269 0.638044
#
# Coordination Sequence:
#
# PCOD9301722 Si02
#       8
#     8   8   4   8   8   8   8   4
#     4  11  24  39  63  97 132 166 216 264 330 386
#     4  11  23  42  69  95 125 171 220 270 316 382
#     4  12  26  41  69  98 132 176 212 265 331 384
#     4  12  22  43  67  94 132 170 218 268 322 384
#     4  11  21  38  65  97 125 165 216 264 326 383
#     4  11  23  41  66  96 124 167 220 271 318 377
#     4  12  24  44  66  95 136 173 215 263 327 385
#     4  12  24  43  63  94 138 180 204 259 331 398
#
# _framework density 21.046638999999999
#
# number of rings (size 3 to 8) (size 9 to 14) (size 15 to 20)
#    0.000    0.571    7.143    1.714    0.000    1.143 
#    0.000    1.429    0.000    0.000    0.000    0.000 
#    0.000    0.000    0.000    0.000    0.000    0.000 
#
# Total GULP energy -156484.298627 kJ/mol
# GULP energy per Si atom -5588.724951 kJ/mol
# Density = 2.099874 g / cm^3
# Si number density = 21.046639 Si / 1000 Ang^3
#
#
#
# Elastic Constant Matrix: (Units=GPa)
#
#
# Indices 1 2 3 4 5 6 
#
# 1 48.9649 15.1973 23.8829 0.0000 10.5207 0.0000
# 2 15.1973 63.0748 11.2481 0.0000 5.8136 0.0000
# 3 23.8829 11.2481 139.4446 0.0000 -0.8159 0.0000
# 4 0.0000 0.0000 0.0000 11.8514 0.0000 -6.2549
# 5 10.5207 5.8136 -0.8159 0.0000 33.7142 0.0000
# 6 0.0000 0.0000 0.0000 -6.2549 0.0000 10.5492
#
#
#
# Elastic Compliance Matrix: (Units=1/GPa)
#
#
# Indices 1 2 3 4 5 6 
#
# 1 0.025398 -0.004740 -0.004010 0.000000 -0.007205 0.000000
# 2 -0.004740 0.017240 -0.000588 0.000000 -0.001508 0.000000
# 3 -0.004010 -0.000588 0.007914 0.000000 0.001544 0.000000
# 4 0.000000 0.000000 0.000000 0.122809 0.000000 0.072817
# 5 -0.007205 -0.001508 0.001544 0.000000 0.032207 0.000000
# 6 0.000000 0.000000 0.000000 0.072817 0.000000 0.137969
#
#
# Mechanical properties :
#
#
# Convention : Reuss Voigt Hill
#
# Bulk Modulus (GPa) = 31.37026 39.12677 35.24851
# Shear Modulus (GPa) = 13.41064 24.63335 19.02200
#
# Velocity S-wave (km/s) = 2.52699 3.42485 3.00959
# Velocity P-wave (km/s) = 4.84270 5.85408 5.37225
#
# Compressibility (1/GPa) = 0.03187733
#
# Stress axis : x y z
#
# Youngs Moduli (GPa) = 39.37333 58.00437 126.35046
#
# Poissons Ratio (x) = 0.27495 0.50663
# Poissons Ratio (y) = 0.18664 0.07424
# Poissons Ratio (z) = 0.15788 0.03408
#
# Static dielectric constant tensor:
#      x y z
#    x 1.755200 0.000000 -0.022640 
#    y 0.000000 1.733930 0.000000 
#    z -0.022640 0.000000 1.795270 
# 
# From -- ./inp_files/105442.got.cif
#   From: 2010.05.17/outbox.cif.g08.bks.cpg/sg15_53_cif.got.tgz:105442.got - 2010.06.03 18:47:42.
