data_PCOD9301399
_publ_section_title
;
Structure prediction by ZEFSAII (Michael W. Deem and Ramdas Pophale) SiO2 
 PCOD9301399
Probable space group: C 2/C
;
_chemical_formula_sum "Si O2"
_cell_formula_units_Z 56
_cell_length_a 22.961646
_cell_length_b 9.567707
_cell_length_c 11.459335
_cell_angle_alpha 90.000000
_cell_angle_beta 123.996837
_cell_angle_gamma 90.000000
_cell_volume 2087.183745
_symmetry_space_group_name_H-M "C 2/C"
_symmetry_group_IT_number 15
_symmetry_cell_setting 'monoclinic'
loop_
_space_group_symop_operation_xyz
x,y,z
-x,y,1/2-z
-x,-y,-z
x,-y,1/2+z
1/2+x,1/2+y,z
1/2-x,1/2+y,1/2-z
1/2-x,1/2-y,-z
1/2+x,1/2-y,1/2+z
loop_
_atom_site_type_symbol
_atom_site_label
_atom_site_fract_x
_atom_site_fract_y
_atom_site_fract_z
Si Si1 0.017150 0.946419 0.390382
Si Si2 0.842151 0.977923 0.544763
Si Si3 0.921017 0.453580 0.067521
Si Si4 0.773629 0.437375 0.424931
Si Si5 0.898320 0.251313 0.255609
Si Si6 0.020957 0.672305 0.076897
Si Si7 0.751751 0.753656 0.312366
O O1 0.970597 0.805766 0.332785
O O2 0.000000 0.026897 0.250000
O O3 0.102061 0.940058 0.471819
O O4 0.000000 0.000000 0.500000
O O5 0.774789 0.059513 0.515720
O O6 0.879737 0.908040 0.700193
O O7 0.811614 0.842581 0.444188
O O8 0.921370 0.336743 0.167069
O O9 0.915693 0.375223 0.934965
O O10 0.857644 0.556484 0.030570
O O11 0.989756 0.545683 0.116144
O O12 0.760104 0.589058 0.345809
O O13 0.749997 0.309452 0.319666
O O14 0.958050 0.277904 0.418543
O O15 0.822984 0.303513 0.217120
#
# Coordination Sequence:
#
# PCOD9301399 Si02
#       7
#     8   8   8   8   8   8   8
#     4  12  29  50  72 107 147 190 245 302 371 436
#     4  11  24  43  71  97 135 189 237 296 361 446
#     4  11  22  43  66 100 140 188 240 291 369 430
#     4  11  23  43  68 103 138 188 240 301 362 436
#     4  11  20  43  68  99 133 186 241 284 363 447
#     4  11  26  41  70 101 141 184 235 305 355 436
#     4  11  23  40  71  99 139 181 243 296 363 442
#
# _framework density 26.830411000000002
#
# number of rings (size 3 to 8) (size 9 to 14) (size 15 to 20)
#    0.000    0.857    4.286    3.000    6.000    2.286 
#    2.571    1.429    0.000    0.000    0.000    0.000 
#    0.000    0.000    0.000    0.000    0.000    0.000 
#
# Total GULP energy -156683.324822 kJ/mol
# GULP energy per Si atom -5595.833029 kJ/mol
# Density = 2.676934 g / cm^3
# Si number density = 26.830411 Si / 1000 Ang^3
#
#
#
# Elastic Constant Matrix: (Units=GPa)
#
#
# Indices 1 2 3 4 5 6 
#
# 1 188.7308 36.1452 23.8207 0.0000 -19.6910 0.0000
# 2 36.1452 89.1292 13.7483 0.0000 -23.0750 0.0000
# 3 23.8207 13.7483 74.3119 0.0000 -16.7266 0.0000
# 4 0.0000 0.0000 0.0000 37.3639 0.0000 -8.6404
# 5 -19.6910 -23.0750 -16.7266 0.0000 42.1542 0.0000
# 6 0.0000 0.0000 0.0000 -8.6404 0.0000 25.5688
#
#
#
# Elastic Compliance Matrix: (Units=1/GPa)
#
#
# Indices 1 2 3 4 5 6 
#
# 1 0.005952 -0.001897 -0.001279 0.000000 0.001234 0.000000
# 2 -0.001897 0.013730 -0.000483 0.000000 0.006438 0.000000
# 3 -0.001279 -0.000483 0.015112 0.000000 0.005134 0.000000
# 4 0.000000 0.000000 0.000000 0.029033 0.000000 0.009811
# 5 0.001234 0.006438 0.005134 0.000000 0.029861 0.000000
# 6 0.000000 0.000000 0.000000 0.009811 0.000000 0.042426
#
#
# Mechanical properties :
#
#
# Convention : Reuss Voigt Hill
#
# Bulk Modulus (GPa) = 36.39536 55.51115 45.95325
# Shear Modulus (GPa) = 32.76762 39.58124 36.17443
#
# Velocity S-wave (km/s) = 3.49848 3.84505 3.67585
# Velocity P-wave (km/s) = 5.46933 6.35980 5.93130
#
# Compressibility (1/GPa) = 0.02747603
#
# Stress axis : x y z
#
# Youngs Moduli (GPa) = 168.00855 72.83205 66.17315
#
# Poissons Ratio (x) = 0.13815 0.08464
# Poissons Ratio (y) = 0.31869 0.03196
# Poissons Ratio (z) = 0.21491 0.03518
#
# Static dielectric constant tensor:
#      x y z
#    x 2.112460 0.000000 0.060920 
#    y 0.000000 2.170630 0.000000 
#    z 0.060920 0.000000 2.242720 
# 
# From -- ./inp_files/117654.got.cif
#   From: 2010.05.17/outbox.cif.g08.bks.cpg/sg15_59_cif.got.tgz:117654.got - 2010.06.03 18:47:42.
