data_PCOD9301993
_publ_section_title
;
Structure prediction by ZEFSAII (Michael W. Deem and Ramdas Pophale) SiO2 
 PCOD9301993
Probable space group: C 2/C
;
_chemical_formula_sum "Si O2"
_cell_formula_units_Z 64
_cell_length_a 19.689049
_cell_length_b 21.756017
_cell_length_c 10.737741
_cell_angle_alpha 90.000000
_cell_angle_beta 42.099989
_cell_angle_gamma 90.000000
_cell_volume 3083.672237
_symmetry_space_group_name_H-M "C 2/C"
_symmetry_group_IT_number 15
_symmetry_cell_setting 'monoclinic'
loop_
_space_group_symop_operation_xyz
x,y,z
-x,y,1/2-z
-x,-y,-z
x,-y,1/2+z
1/2+x,1/2+y,z
1/2-x,1/2+y,1/2-z
1/2-x,1/2-y,-z
1/2+x,1/2-y,1/2+z
loop_
_atom_site_type_symbol
_atom_site_label
_atom_site_fract_x
_atom_site_fract_y
_atom_site_fract_z
Si Si1 0.432197 0.874259 0.451640
Si Si2 0.292474 0.395807 0.667377
Si Si3 0.856570 0.753228 0.927922
Si Si4 0.500405 0.168905 0.390396
Si Si5 0.770993 0.321335 0.971471
Si Si6 0.445390 0.703438 0.059167
Si Si7 0.933512 0.013032 0.467209
Si Si8 0.351470 0.645601 0.645878
O O1 0.500000 0.903386 0.250000
O O2 0.324304 0.905375 0.632075
O O3 0.391717 0.808964 0.449086
O O4 0.508896 0.867433 0.466465
O O5 0.294020 0.362787 0.531838
O O6 0.356656 0.346327 0.660881
O O7 0.351061 0.459283 0.577713
O O8 0.935490 0.772363 0.713528
O O9 0.750000 0.750000 0.000000
O O10 0.843178 0.806673 0.045768
O O11 0.500000 0.142225 0.250000
O O12 0.443180 0.234800 0.477337
O O13 0.619575 0.179812 0.237677
O O14 0.750788 0.349584 0.134402
O O15 0.750000 0.250000 0.000000
O O16 0.553810 0.670046 0.899171
O O17 0.880533 0.078917 0.557071
O O18 0.000000 0.012618 0.250000
O O19 0.000000 0.000000 0.500000
#
# Coordination Sequence:
#
# PCOD9301993 Si02
#       8
#     8   8   8   8   8   8   8   8
#     4  11  21  41  63  92 133 171 219 281 339 407
#     4  11  25  39  63  98 130 182 229 275 339 406
#     4  12  23  37  59  96 129 169 215 275 341 407
#     4  11  23  35  59  91 131 168 209 263 336 404
#     4  11  22  41  60  94 135 175 217 275 343 411
#     4  12  21  35  60  91 132 166 219 264 332 408
#     4  12  26  45  68  95 137 185 232 281 337 406
#     4  12  24  40  62  93 133 175 221 276 330 405
#
# _framework density 20.754476
#
# number of rings (size 3 to 8) (size 9 to 14) (size 15 to 20)
#    0.000    0.500    6.250    3.375    1.750    0.000 
#    0.000    0.000    0.000    0.750    0.000    5.250 
#    0.000    0.250    0.000    0.000    0.000    0.000 
#
# Total GULP energy -178537.561442 kJ/mol
# GULP energy per Si atom -5579.298795 kJ/mol
# Density = 2.070724 g / cm^3
# Si number density = 20.754476 Si / 1000 Ang^3
#
#
#
# Elastic Constant Matrix: (Units=GPa)
#
#
# Indices 1 2 3 4 5 6 
#
# 1 66.3172 18.4556 5.3372 0.0000 13.2989 0.0000
# 2 18.4556 78.6692 41.3714 0.0000 -2.4915 0.0000
# 3 5.3372 41.3714 114.5728 0.0000 24.5840 0.0000
# 4 0.0000 0.0000 0.0000 24.7543 0.0000 -6.9971
# 5 13.2989 -2.4915 24.5840 0.0000 37.2588 0.0000
# 6 0.0000 0.0000 0.0000 -6.9971 0.0000 25.7914
#
#
#
# Elastic Compliance Matrix: (Units=1/GPa)
#
#
# Indices 1 2 3 4 5 6 
#
# 1 0.018461 -0.006448 0.003465 0.000000 -0.009307 0.000000
# 2 -0.006448 0.019006 -0.008538 0.000000 0.009206 0.000000
# 3 0.003465 -0.008538 0.014023 0.000000 -0.011060 0.000000
# 4 0.000000 0.000000 0.000000 0.043752 0.000000 0.011870
# 5 -0.009307 0.009206 -0.011060 0.000000 0.038075 0.000000
# 6 0.000000 0.000000 0.000000 0.011870 0.000000 0.041993
#
#
# Mechanical properties :
#
#
# Convention : Reuss Voigt Hill
#
# Bulk Modulus (GPa) = 35.15114 43.32085 39.23600
# Shear Modulus (GPa) = 24.05783 30.52057 27.28920
#
# Velocity S-wave (km/s) = 3.40834 3.83894 3.63003
# Velocity P-wave (km/s) = 5.69759 6.36932 6.04280
#
# Compressibility (1/GPa) = 0.02844858
#
# Stress axis : x y z
#
# Youngs Moduli (GPa) = 54.16828 52.61602 71.31266
#
# Poissons Ratio (x) = 0.33927 -0.24713
# Poissons Ratio (y) = 0.34928 0.60885
# Poissons Ratio (z) = -0.18771 0.44922
#
# Static dielectric constant tensor:
#      x y z
#    x 1.831100 0.000000 0.009600 
#    y 0.000000 1.711700 0.000000 
#    z 0.009600 0.000000 1.767780 
# 
# From -- ./inp_files/114231.got.cif
#   From: 2010.05.17/outbox.cif.g08.bks.cpg/sg15_58_cif.got.tgz:114231.got - 2010.06.03 18:47:42.
