data_PCOD9301584
_publ_section_title
;
Structure prediction by ZEFSAII (Michael W. Deem and Ramdas Pophale) SiO2 
 PCOD9301584
Probable space group: C 2/C
;
_chemical_formula_sum "Si O2"
_cell_formula_units_Z 60
_cell_length_a 17.624549
_cell_length_b 8.838473
_cell_length_c 20.150918
_cell_angle_alpha 90.000000
_cell_angle_beta 76.261070
_cell_angle_gamma 90.000000
_cell_volume 3049.178231
_symmetry_space_group_name_H-M "C 2/C"
_symmetry_group_IT_number 15
_symmetry_cell_setting 'monoclinic'
loop_
_space_group_symop_operation_xyz
x,y,z
-x,y,1/2-z
-x,-y,-z
x,-y,1/2+z
1/2+x,1/2+y,z
1/2-x,1/2+y,1/2-z
1/2-x,1/2-y,-z
1/2+x,1/2-y,1/2+z
loop_
_atom_site_type_symbol
_atom_site_label
_atom_site_fract_x
_atom_site_fract_y
_atom_site_fract_z
Si Si1 0.386931 0.800944 0.638280
Si Si2 0.888422 0.923262 0.265513
Si Si3 0.000000 0.479035 0.250000
Si Si4 0.789494 0.612706 0.672891
Si Si5 0.452828 0.223842 0.363953
Si Si6 0.250336 0.186412 0.925053
Si Si7 0.269703 0.172815 0.427011
Si Si8 0.361733 0.746328 0.282246
O O1 0.384145 0.701022 0.707555
O O2 0.477379 0.768729 0.597245
O O3 0.328372 0.732149 0.596684
O O4 0.351547 0.973415 0.653914
O O5 0.798665 0.948911 0.307639
O O6 0.941527 0.862562 0.314831
O O7 0.906614 0.096747 0.247546
O O8 0.011062 0.586438 0.185321
O O9 0.075640 0.378307 0.233764
O O10 0.782676 0.736827 0.616005
O O11 0.800355 0.703832 0.738952
O O12 0.363469 0.191013 0.399806
O O13 0.320602 0.248935 0.863151
O O14 0.254577 0.005132 0.926732
O O15 0.250000 0.250000 0.000000
O O16 0.250000 0.250000 0.500000
#
# Coordination Sequence:
#
# PCOD9301584 Si02
#       8
#     8   8   4   8   8   8   8   8
#     4  12  22  41  66 104 134 169 223 283 339 398
#     4  11  21  36  65 100 135 170 212 280 343 398
#     4  12  22  40  64 106 138 174 224 286 356 386
#     4  11  21  39  70  97 128 176 231 276 336 404
#     4  11  23  41  68  98 138 172 218 282 349 393
#     4  12  26  44  67  96 136 184 229 277 337 408
#     4  11  26  48  68  95 133 187 228 274 339 419
#     4  12  24  39  65 103 137 174 228 284 335 413
#
# _framework density 19.677433000000001
#
# number of rings (size 3 to 8) (size 9 to 14) (size 15 to 20)
#    0.000    0.533    6.667    1.600    5.600    0.000 
#    0.000    4.667    0.000    0.000    0.000    0.000 
#    0.000    0.000    0.000    0.000    0.000    0.000 
#
# Total GULP energy -167122.035355 kJ/mol
# GULP energy per Si atom -5570.734512 kJ/mol
# Density = 1.963265 g / cm^3
# Si number density = 19.677433 Si / 1000 Ang^3
#
#
#
# Elastic Constant Matrix: (Units=GPa)
#
#
# Indices 1 2 3 4 5 6 
#
# 1 134.0138 37.4797 34.8326 0.0000 6.7178 0.0000
# 2 37.4797 138.1361 42.3575 0.0000 1.3341 0.0000
# 3 34.8326 42.3575 104.7307 0.0000 3.2404 0.0000
# 4 0.0000 0.0000 0.0000 -82.8781 0.0000 -75.0556
# 5 6.7178 1.3341 3.2404 0.0000 18.6717 0.0000
# 6 0.0000 0.0000 0.0000 -75.0556 0.0000 -20.9366
#
#
#
# Elastic Compliance Matrix: (Units=1/GPa)
#
#
# Indices 1 2 3 4 5 6 
#
# 1 0.008606 -0.001663 -0.002109 0.000000 -0.002612 0.000000
# 2 -0.001663 0.008586 -0.002934 0.000000 0.000494 0.000000
# 3 -0.002109 -0.002934 0.011468 0.000000 -0.001022 0.000000
# 4 0.000000 0.000000 0.000000 0.005371 0.000000 -0.019254
# 5 -0.002612 0.000494 -0.001022 0.000000 0.054639 0.000000
# 6 0.000000 0.000000 0.000000 -0.019254 0.000000 0.021261
#
#
# Mechanical properties :
#
#
# Convention : Reuss Voigt Hill
#
# Bulk Modulus (GPa) = 65.58781 67.35780 66.47280
# Shear Modulus (GPa) = 38.93311 0.45211 19.69261
#
# Velocity S-wave (km/s) = 4.45293 0.47985 3.16693
# Velocity P-wave (km/s) = 7.73576 5.88322 6.87220
#
# Compressibility (1/GPa) = 0.01524673
#
# Stress axis : x y z
#
# Youngs Moduli (GPa) = 116.19660 116.47485 87.19810
#
# Poissons Ratio (x) = 0.19372 0.18389
# Poissons Ratio (y) = 0.19325 0.25588
# Poissons Ratio (z) = 0.24504 0.34179
#
# Static dielectric constant tensor:
#      x y z
#    x 1.809770 0.000000 0.001930 
#    y 0.000000 1.707470 0.000000 
#    z 0.001930 0.000000 1.716380 
# 
# From -- ./inp_files/247437.got.cif
#   From: 2010.05.17/outbox.cif.g08.bks.cpg/sg15_124_cif.got.tgz:247437.got - 2010.06.03 18:47:42.
