data_PCOD9301603
_publ_section_title
;
Structure prediction by ZEFSAII (Michael W. Deem and Ramdas Pophale) SiO2 
 PCOD9301603
Probable space group: C 2/C
;
_chemical_formula_sum "Si O2"
_cell_formula_units_Z 64
_cell_length_a 18.199554
_cell_length_b 21.327319
_cell_length_c 11.695101
_cell_angle_alpha 90.000000
_cell_angle_beta 129.721001
_cell_angle_gamma 90.000000
_cell_volume 3491.569657
_symmetry_space_group_name_H-M "C 2/C"
_symmetry_group_IT_number 15
_symmetry_cell_setting 'monoclinic'
loop_
_space_group_symop_operation_xyz
x,y,z
-x,y,1/2-z
-x,-y,-z
x,-y,1/2+z
1/2+x,1/2+y,z
1/2-x,1/2+y,1/2-z
1/2-x,1/2-y,-z
1/2+x,1/2-y,1/2+z
loop_
_atom_site_type_symbol
_atom_site_label
_atom_site_fract_x
_atom_site_fract_y
_atom_site_fract_z
Si Si1 0.792931 0.835105 0.462731
Si Si2 0.746025 0.837523 0.910306
Si Si3 0.100287 0.223811 0.792613
Si Si4 0.309029 0.714984 0.230428
Si Si5 0.950292 0.370221 0.034816
Si Si6 0.087276 0.431791 0.748858
Si Si7 0.634411 0.923544 0.322739
Si Si8 0.537667 0.723281 0.474821
O O1 0.738114 0.784010 0.328265
O O2 0.780543 0.816964 0.582959
O O3 0.740495 0.901358 0.396224
O O4 0.903993 0.823979 0.547249
O O5 0.668922 0.783833 0.863822
O O6 0.772701 0.823347 0.804663
O O7 0.688747 0.900443 0.880111
O O8 0.840647 0.828252 0.079619
O O9 0.073916 0.207472 0.637500
O O10 0.000000 0.239406 0.750000
O O11 0.423749 0.719904 0.352368
O O12 0.888563 0.408227 0.067097
O O13 0.059577 0.379582 0.181647
O O14 0.937304 0.400046 0.897271
O O15 0.931843 0.295619 0.019581
O O16 0.105184 0.506064 0.763195
O O17 0.000000 0.419579 0.750000
#
# Coordination Sequence:
#
# PCOD9301603 Si02
#       8
#     8   8   8   8   8   8   8   8
#     4  11  22  36  57  92 117 155 196 238 301 360
#     4  11  23  37  60  88 118 161 201 240 304 357
#     4  11  22  38  57  87 125 153 199 251 295 354
#     4  11  21  37  60  86 122 152 189 249 304 349
#     4  11  22  40  58  90 120 157 193 239 303 356
#     4  12  24  40  62  86 121 165 197 244 295 354
#     4  11  24  39  60  85 126 159 197 244 285 363
#     4  12  22  37  65  90 122 156 188 251 308 353
#
# _framework density 18.329865000000002
#
# number of rings (size 3 to 8) (size 9 to 14) (size 15 to 20)
#    0.000    0.750    6.250    3.375    1.750    1.000 
#    0.000    0.000    0.000    2.250    0.000    0.000 
#    0.000    0.000    0.000    0.000    0.000    0.000 
#
# Total GULP energy -178636.841990 kJ/mol
# GULP energy per Si atom -5582.401312 kJ/mol
# Density = 1.828814 g / cm^3
# Si number density = 18.329865 Si / 1000 Ang^3
#
#
#
# Elastic Constant Matrix: (Units=GPa)
#
#
# Indices 1 2 3 4 5 6 
#
# 1 104.3677 35.9476 27.3659 0.0000 20.2365 0.0000
# 2 35.9476 48.0700 8.1681 0.0000 -0.9357 0.0000
# 3 27.3659 8.1681 73.6026 0.0000 4.6580 0.0000
# 4 0.0000 0.0000 0.0000 15.1797 0.0000 10.5004
# 5 20.2365 -0.9357 4.6580 0.0000 29.7302 0.0000
# 6 0.0000 0.0000 0.0000 10.5004 0.0000 24.3407
#
#
#
# Elastic Compliance Matrix: (Units=1/GPa)
#
#
# Indices 1 2 3 4 5 6 
#
# 1 0.017163 -0.012327 -0.004292 0.000000 -0.011398 0.000000
# 2 -0.012327 0.030089 0.000660 0.000000 0.009234 0.000000
# 3 -0.004292 0.000660 0.015072 0.000000 0.000581 0.000000
# 4 0.000000 0.000000 0.000000 0.093897 0.000000 -0.040507
# 5 -0.011398 0.009234 0.000581 0.000000 0.041594 0.000000
# 6 0.000000 0.000000 0.000000 -0.040507 0.000000 0.058558
#
#
# Mechanical properties :
#
#
# Convention : Reuss Voigt Hill
#
# Bulk Modulus (GPa) = 32.88881 41.00040 36.94460
# Shear Modulus (GPa) = 16.75455 24.15404 20.45429
#
# Velocity S-wave (km/s) = 3.02662 3.63401 3.34413
# Velocity P-wave (km/s) = 5.49505 6.32651 5.92538
#
# Compressibility (1/GPa) = 0.03040548
#
# Stress axis : x y z
#
# Youngs Moduli (GPa) = 58.26587 33.23461 66.34712
#
# Poissons Ratio (x) = 0.40969 0.28475
# Poissons Ratio (y) = 0.71825 -0.04377
# Poissons Ratio (z) = 0.25007 -0.02193
#
# Static dielectric constant tensor:
#      x y z
#    x 1.702240 0.000000 -0.014670 
#    y 0.000000 1.624890 0.000000 
#    z -0.014670 0.000000 1.667050 
# 
# From -- ./inp_files/107504.got.cif
#   From: 2010.05.17/outbox.cif.g08.bks.cpg/sg15_54_cif.got.tgz:107504.got - 2010.06.03 18:47:42.
