data_PCOD9301715
_publ_section_title
;
Structure prediction by ZEFSAII (Michael W. Deem and Ramdas Pophale) SiO2 
 PCOD9301715
Probable space group: C 2/C
;
_chemical_formula_sum "Si O2"
_cell_formula_units_Z 60
_cell_length_a 9.006663
_cell_length_b 17.865991
_cell_length_c 16.340401
_cell_angle_alpha 90.000000
_cell_angle_beta 108.512420
_cell_angle_gamma 90.000000
_cell_volume 2493.324515
_symmetry_space_group_name_H-M "C 2/C"
_symmetry_group_IT_number 15
_symmetry_cell_setting 'monoclinic'
loop_
_space_group_symop_operation_xyz
x,y,z
-x,y,1/2-z
-x,-y,-z
x,-y,1/2+z
1/2+x,1/2+y,z
1/2-x,1/2+y,1/2-z
1/2-x,1/2-y,-z
1/2+x,1/2-y,1/2+z
loop_
_atom_site_type_symbol
_atom_site_label
_atom_site_fract_x
_atom_site_fract_y
_atom_site_fract_z
Si Si1 0.176427 0.301913 0.310696
Si Si2 0.889578 0.737229 0.958913
Si Si3 0.500000 0.461509 0.750000
Si Si4 0.659839 0.360432 0.011342
Si Si5 0.720804 0.132303 0.152590
Si Si6 0.078608 0.065648 0.918807
Si Si7 0.928808 0.425800 0.527576
Si Si8 0.155873 0.196745 0.805567
O O1 0.201417 0.338811 0.402675
O O2 0.259350 0.220677 0.329214
O O3 0.272745 0.347556 0.258748
O O4 0.000000 0.296309 0.250000
O O5 0.795845 0.749037 0.858899
O O6 0.750000 0.750000 0.000000
O O7 0.936132 0.650811 0.976102
O O8 0.037929 0.790539 0.988848
O O9 0.655496 0.410875 0.769239
O O10 0.533273 0.508550 0.838496
O O11 0.557750 0.422911 0.039303
O O12 0.718228 0.377581 0.931033
O O13 0.545019 0.098261 0.122292
O O14 0.106571 0.141655 0.869723
O O15 0.242901 0.057340 0.996800
O O16 0.000000 0.500000 0.500000
O O17 0.000000 0.237337 0.750000
#
# Coordination Sequence:
#
# PCOD9301715 Si02
#       8
#     8   8   4   8   8   8   8   8
#     4  12  24  40  62 102 141 174 222 291 358 403
#     4  11  21  38  69 100 133 172 233 289 332 409
#     4  12  24  48  64  96 136 184 224 278 362 422
#     4  12  24  45  67 103 130 180 237 288 349 412
#     4  12  27  41  69  99 144 181 222 290 357 417
#     4  11  23  44  74  92 128 184 240 284 335 423
#     4  11  23  42  66  99 130 185 228 278 348 420
#     4  11  21  38  64  98 128 169 225 285 346 394
#
# _framework density 24.064253999999998
#
# number of rings (size 3 to 8) (size 9 to 14) (size 15 to 20)
#    0.000    0.533    8.000    1.200    3.733    0.533 
#    0.000    0.000    0.000    1.600    0.000    0.000 
#    0.000    0.000    0.000    0.000    0.000    0.000 
#
# Total GULP energy -167634.687707 kJ/mol
# GULP energy per Si atom -5587.822924 kJ/mol
# Density = 2.400948 g / cm^3
# Si number density = 24.064254 Si / 1000 Ang^3
#
#
#
# Elastic Constant Matrix: (Units=GPa)
#
#
# Indices 1 2 3 4 5 6 
#
# 1 123.2499 23.3903 54.4984 0.0000 21.2103 0.0000
# 2 23.3903 91.8912 17.8436 0.0000 18.3986 0.0000
# 3 54.4984 17.8436 106.5480 0.0000 36.0671 0.0000
# 4 0.0000 0.0000 0.0000 33.2635 0.0000 10.1933
# 5 21.2103 18.3986 36.0671 0.0000 73.4933 0.0000
# 6 0.0000 0.0000 0.0000 10.1933 0.0000 19.5474
#
#
#
# Elastic Compliance Matrix: (Units=1/GPa)
#
#
# Indices 1 2 3 4 5 6 
#
# 1 0.010744 -0.001704 -0.005162 0.000000 -0.000141 0.000000
# 2 -0.001704 0.011843 -0.000329 0.000000 -0.002311 0.000000
# 3 -0.005162 -0.000329 0.013850 0.000000 -0.005224 0.000000
# 4 0.000000 0.000000 0.000000 0.035781 0.000000 -0.018658
# 5 -0.000141 -0.002311 -0.005224 0.000000 0.016790 0.000000
# 6 0.000000 0.000000 0.000000 -0.018658 0.000000 0.060887
#
#
# Mechanical properties :
#
#
# Convention : Reuss Voigt Hill
#
# Bulk Modulus (GPa) = 45.36220 57.01707 51.18964
# Shear Modulus (GPa) = 29.13169 40.32462 34.72816
#
# Velocity S-wave (km/s) = 3.48311 4.09798 3.80299
# Velocity P-wave (km/s) = 5.92178 6.79238 6.37196
#
# Compressibility (1/GPa) = 0.02204479
#
# Stress axis : x y z
#
# Youngs Moduli (GPa) = 93.07583 84.43840 72.20413
#
# Poissons Ratio (x) = 0.14390 0.37275
# Poissons Ratio (y) = 0.15862 0.02377
# Poissons Ratio (z) = 0.48050 0.02780
#
# Static dielectric constant tensor:
#      x y z
#    x 2.302550 0.000000 -0.344020 
#    y 0.000000 1.957920 0.000000 
#    z -0.344020 0.000000 2.350300 
# 
# From -- ./inp_files/192234.got.cif
#   From: 2010.05.17/outbox.cif.g08.bks.cpg/sg15_97_cif.got.tgz:192234.got - 2010.06.03 18:47:42.
