data_PCOD9301851
_publ_section_title
;
Structure prediction by ZEFSAII (Michael W. Deem and Ramdas Pophale) SiO2 
 PCOD9301851
Probable space group: C 2/C
;
_chemical_formula_sum "Si O2"
_cell_formula_units_Z 64
_cell_length_a 27.459081
_cell_length_b 11.038282
_cell_length_c 15.524102
_cell_angle_alpha 90.000000
_cell_angle_beta 39.334708
_cell_angle_gamma 90.000000
_cell_volume 2982.497853
_symmetry_space_group_name_H-M "C 2/C"
_symmetry_group_IT_number 15
_symmetry_cell_setting 'monoclinic'
loop_
_space_group_symop_operation_xyz
x,y,z
-x,y,1/2-z
-x,-y,-z
x,-y,1/2+z
1/2+x,1/2+y,z
1/2-x,1/2+y,1/2-z
1/2-x,1/2-y,-z
1/2+x,1/2-y,1/2+z
loop_
_atom_site_type_symbol
_atom_site_label
_atom_site_fract_x
_atom_site_fract_y
_atom_site_fract_z
Si Si1 0.308832 0.001458 0.220130
Si Si2 0.603991 0.780821 0.318374
Si Si3 0.943895 0.364232 0.619058
Si Si4 0.852354 0.109745 0.996824
Si Si5 0.818414 0.614977 0.524568
Si Si6 0.934972 0.438531 0.269987
Si Si7 0.913523 0.024543 0.087764
Si Si8 0.153059 0.148045 0.687317
O O1 0.333553 0.877856 0.234735
O O2 0.296666 0.959551 0.139622
O O3 0.382045 0.089627 0.133479
O O4 0.233855 0.065689 0.361386
O O5 0.521272 0.805898 0.477057
O O6 0.621533 0.644419 0.319425
O O7 0.593705 0.814056 0.232588
O O8 0.965291 0.479036 0.649019
O O9 0.895899 0.270801 0.743161
O O10 0.857626 0.256838 0.997599
O O11 0.904905 0.046235 0.997458
O O12 0.867144 0.083596 0.875620
O O13 0.870025 0.521869 0.400780
O O14 0.744594 0.653984 0.570429
O O15 0.000000 0.417503 0.250000
O O16 0.869691 0.914329 0.191627
O O17 0.000000 0.000000 0.000000
#
# Coordination Sequence:
#
# PCOD9301851 Si02
#       8
#     8   8   8   8   8   8   8   8
#     4  11  22  40  70 100 132 178 221 291 352 400
#     4  11  23  43  63  96 139 176 222 284 347 412
#     4  11  21  39  68  99 135 171 228 285 344 407
#     4  12  25  45  69  99 139 179 234 288 346 421
#     4  12  22  42  71 103 141 174 231 287 349 425
#     4  11  23  39  65 103 133 173 227 287 348 406
#     4  12  27  47  67  94 138 189 231 282 348 419
#     4  12  24  43  70 106 132 182 237 282 346 420
#
# _framework density 21.458525000000002
#
# number of rings (size 3 to 8) (size 9 to 14) (size 15 to 20)
#    0.000    0.500    6.250    4.875    0.000    0.500 
#    2.250    3.750    0.000    0.000    0.000    0.000 
#    0.000    0.000    0.000    0.000    0.000    0.000 
#
# Total GULP energy -178786.783666 kJ/mol
# GULP energy per Si atom -5587.086990 kJ/mol
# Density = 2.140968 g / cm^3
# Si number density = 21.458525 Si / 1000 Ang^3
#
#
#
# Elastic Constant Matrix: (Units=GPa)
#
#
# Indices 1 2 3 4 5 6 
#
# 1 131.1755 1.9930 22.4910 0.0000 20.3852 0.0000
# 2 1.9930 37.6449 -7.7530 0.0000 12.0778 0.0000
# 3 22.4910 -7.7530 52.4973 0.0000 4.5936 0.0000
# 4 0.0000 0.0000 0.0000 35.2310 0.0000 15.2384
# 5 20.3852 12.0778 4.5936 0.0000 32.3058 0.0000
# 6 0.0000 0.0000 0.0000 15.2384 0.0000 22.0132
#
#
#
# Elastic Compliance Matrix: (Units=1/GPa)
#
#
# Indices 1 2 3 4 5 6 
#
# 1 0.009027 0.000589 -0.003304 0.000000 -0.005447 0.000000
# 2 0.000589 0.031886 0.005602 0.000000 -0.013089 0.000000
# 3 -0.003304 0.005602 0.021561 0.000000 -0.003075 0.000000
# 4 0.000000 0.000000 0.000000 0.040515 0.000000 -0.028046
# 5 -0.005447 -0.013089 -0.003075 0.000000 0.039722 0.000000
# 6 0.000000 0.000000 0.000000 -0.028046 0.000000 0.064842
#
#
# Mechanical properties :
#
#
# Convention : Reuss Voigt Hill
#
# Bulk Modulus (GPa) = 14.65238 28.30887 21.48062
# Shear Modulus (GPa) = 22.26898 31.54910 26.90904
#
# Velocity S-wave (km/s) = 3.22494 3.83853 3.54503
# Velocity P-wave (km/s) = 4.55082 5.73295 5.17575
#
# Compressibility (1/GPa) = 0.06824828
#
# Stress axis : x y z
#
# Youngs Moduli (GPa) = 110.77438 31.36173 46.38111
#
# Poissons Ratio (x) = -0.01848 0.15324
# Poissons Ratio (y) = -0.06526 -0.25983
# Poissons Ratio (z) = 0.36599 -0.17569
#
# Static dielectric constant tensor:
#      x y z
#    x 1.813410 0.000000 -0.001240 
#    y 0.000000 1.766870 0.000000 
#    z -0.001240 0.000000 1.800270 
# 
# From -- ./inp_files/177795.got.cif
#   From: 2010.05.17/outbox.cif.g08.bks.cpg/sg15_89_cif.got.tgz:177795.got - 2010.06.03 18:47:42.
