data_PCOD9301469
_publ_section_title
;
Structure prediction by ZEFSAII (Michael W. Deem and Ramdas Pophale) SiO2 
 PCOD9301469
Probable space group: C 2/C
;
_chemical_formula_sum "Si O2"
_cell_formula_units_Z 48
_cell_length_a 13.411937
_cell_length_b 20.836870
_cell_length_c 9.275890
_cell_angle_alpha 90.000000
_cell_angle_beta 67.663618
_cell_angle_gamma 90.000000
_cell_volume 2397.764680
_symmetry_space_group_name_H-M "C 2/C"
_symmetry_group_IT_number 15
_symmetry_cell_setting 'monoclinic'
loop_
_space_group_symop_operation_xyz
x,y,z
-x,y,1/2-z
-x,-y,-z
x,-y,1/2+z
1/2+x,1/2+y,z
1/2-x,1/2+y,1/2-z
1/2-x,1/2-y,-z
1/2+x,1/2-y,1/2+z
loop_
_atom_site_type_symbol
_atom_site_label
_atom_site_fract_x
_atom_site_fract_y
_atom_site_fract_z
Si Si1 0.927637 0.461900 0.160062
Si Si2 0.850678 0.190147 0.610655
Si Si3 0.732668 0.832695 0.900630
Si Si4 0.188870 0.657843 0.921715
Si Si5 0.937423 0.221212 0.137385
Si Si6 0.123289 0.405747 0.733025
O O1 0.861215 0.406031 0.122034
O O2 0.857589 0.518210 0.274929
O O3 0.000000 0.435028 0.250000
O O4 0.000000 0.500000 0.000000
O O5 0.772873 0.153856 0.539573
O O6 0.825623 0.264180 0.584127
O O7 0.805595 0.173826 0.791701
O O8 0.975837 0.183694 0.507225
O O9 0.842203 0.823794 0.748780
O O10 0.651146 0.882590 0.877267
O O11 0.114288 0.718441 0.918000
O O12 0.188812 0.640145 0.089372
O O13 0.000000 0.242927 0.250000
O O14 0.000000 0.396749 0.750000
#
# Coordination Sequence:
#
# PCOD9301469 Si02
#       6
#     8   8   8   8   8   8
#     4  11  22  36  53  80 107 147 180 225 278 325
#     4   9  19  32  56  79 103 145 184 221 268 323
#     4   9  19  34  52  77 108 145 181 221 270 318
#     4  11  21  34  54  81 112 143 179 225 274 322
#     4   9  18  35  55  81 110 144 186 221 262 325
#     4  11  22  35  51  79 114 141 176 224 269 327
#
# _framework density 20.018644999999999
#
# number of rings (size 3 to 8) (size 9 to 14) (size 15 to 20)
#    0.000    2.000    3.333    2.500    2.333    2.667 
#    0.000    2.500    0.000    1.000    0.000    0.000 
#    0.000    0.000    0.000    0.000    0.000    0.000 
#
# Total GULP energy -133916.642805 kJ/mol
# GULP energy per Si atom -5579.860117 kJ/mol
# Density = 1.997308 g / cm^3
# Si number density = 20.018645 Si / 1000 Ang^3
#
#
#
# Elastic Constant Matrix: (Units=GPa)
#
#
# Indices 1 2 3 4 5 6 
#
# 1 45.2195 6.5785 6.4755 0.0000 -0.5020 0.0000
# 2 6.5785 37.6894 1.7773 0.0000 5.9958 0.0000
# 3 6.4755 1.7773 72.6912 0.0000 -12.6329 0.0000
# 4 0.0000 0.0000 0.0000 32.9334 0.0000 8.2913
# 5 -0.5020 5.9958 -12.6329 0.0000 31.4535 0.0000
# 6 0.0000 0.0000 0.0000 8.2913 0.0000 7.0316
#
#
#
# Elastic Compliance Matrix: (Units=1/GPa)
#
#
# Indices 1 2 3 4 5 6 
#
# 1 0.022967 -0.003978 -0.001885 0.000000 0.000368 0.000000
# 2 -0.003978 0.028247 -0.001379 0.000000 -0.006002 0.000000
# 3 -0.001885 -0.001379 0.015049 0.000000 0.006277 0.000000
# 4 0.000000 0.000000 0.000000 0.043184 0.000000 -0.050921
# 5 0.000368 -0.006002 0.006277 0.000000 0.035464 0.000000
# 6 0.000000 0.000000 0.000000 -0.050921 0.000000 0.202259
#
#
# Mechanical properties :
#
#
# Convention : Reuss Voigt Hill
#
# Bulk Modulus (GPa) = 19.31306 20.58474 19.94890
# Shear Modulus (GPa) = 13.19558 23.66829 18.43193
#
# Velocity S-wave (km/s) = 2.57020 3.44221 3.03766
# Velocity P-wave (km/s) = 4.29842 5.10916 4.72122
#
# Compressibility (1/GPa) = 0.05177842
#
# Stress axis : x y z
#
# Youngs Moduli (GPa) = 43.54050 35.40199 66.44801
#
# Poissons Ratio (x) = 0.14085 0.12524
# Poissons Ratio (y) = 0.17322 0.09165
# Poissons Ratio (z) = 0.08206 0.04883
#
# Static dielectric constant tensor:
#      x y z
#    x 1.727940 0.000000 0.010610 
#    y 0.000000 1.685940 0.000000 
#    z 0.010610 0.000000 1.828970 
# 
# From -- ./inp_files/40690.got.cif
#   From: 2010.05.17/outbox.cif.g08.bks.cpg/sg15_21_cif.got.tgz:40690.got - 2010.06.03 18:47:42.
