data_PCOD9301275
_publ_section_title
;
Structure prediction by ZEFSAII (Michael W. Deem and Ramdas Pophale) SiO2 
 PCOD9301275
Probable space group: C 2/C
;
_chemical_formula_sum "Si O2"
_cell_formula_units_Z 60
_cell_length_a 8.932318
_cell_length_b 30.717636
_cell_length_c 10.552534
_cell_angle_alpha 90.000000
_cell_angle_beta 81.850749
_cell_angle_gamma 90.000000
_cell_volume 2866.163784
_symmetry_space_group_name_H-M "C 2/C"
_symmetry_group_IT_number 15
_symmetry_cell_setting 'monoclinic'
loop_
_space_group_symop_operation_xyz
x,y,z
-x,y,1/2-z
-x,-y,-z
x,-y,1/2+z
1/2+x,1/2+y,z
1/2-x,1/2+y,1/2-z
1/2-x,1/2-y,-z
1/2+x,1/2-y,1/2+z
loop_
_atom_site_type_symbol
_atom_site_label
_atom_site_fract_x
_atom_site_fract_y
_atom_site_fract_z
Si Si1 0.397801 0.491121 0.136196
Si Si2 0.276712 0.394537 0.158202
Si Si3 0.806550 0.784917 0.892601
Si Si4 0.047830 0.155805 0.509642
Si Si5 0.500000 0.220321 0.750000
Si Si6 0.380288 0.131873 0.085257
Si Si7 0.163707 0.083769 0.301334
Si Si8 0.650829 0.845447 0.413915
O O1 0.500000 0.487528 0.250000
O O2 0.310182 0.445621 0.141638
O O3 0.299724 0.534938 0.159658
O O4 0.500000 0.500000 0.000000
O O5 0.197294 0.379752 0.297966
O O6 0.431939 0.367471 0.119907
O O7 0.180587 0.380688 0.047167
O O8 0.682111 0.820271 0.873279
O O9 0.947033 0.812321 0.935002
O O10 0.861005 0.753325 0.776246
O O11 0.750000 0.750000 0.000000
O O12 0.121751 0.117432 0.416827
O O13 0.192325 0.176230 0.561048
O O14 0.462303 0.189242 0.637095
O O15 0.295311 0.100845 0.193901
O O16 0.559288 0.133487 0.042103
O O17 0.000000 0.081134 0.250000
#
# Coordination Sequence:
#
# PCOD9301275 Si02
#       8
#     8   8   8   8   4   8   8   8
#     4  11  21  36  65 103 130 164 232 290 329 402
#     4  11  20  40  66  95 125 171 217 273 334 391
#     4  11  21  39  66  91 122 167 221 268 324 389
#     4  11  23  39  67  96 125 168 224 272 321 395
#     4  12  22  42  64  90 126 174 216 268 330 398
#     4  11  22  43  65  91 133 176 214 263 343 408
#     4  11  20  40  67  94 125 175 220 272 336 395
#     4  12  24  41  65  93 133 173 217 267 341 403
#
# _framework density 20.933907000000001
#
# number of rings (size 3 to 8) (size 9 to 14) (size 15 to 20)
#    0.000    0.800    6.667    3.600    0.000    1.067 
#    0.000    0.667    2.933    0.000    0.000    0.000 
#    0.000    0.000    0.000    0.000    0.000    0.000 
#
# Total GULP energy -167478.103922 kJ/mol
# GULP energy per Si atom -5582.603464 kJ/mol
# Density = 2.088626 g / cm^3
# Si number density = 20.933907 Si / 1000 Ang^3
#
#
#
# Elastic Constant Matrix: (Units=GPa)
#
#
# Indices 1 2 3 4 5 6 
#
# 1 80.2177 24.9390 19.5598 0.0000 -18.1858 0.0000
# 2 24.9390 133.4037 38.6451 0.0000 -25.1055 0.0000
# 3 19.5598 38.6451 91.5678 0.0000 -38.0531 0.0000
# 4 0.0000 0.0000 0.0000 36.2056 0.0000 -11.6359
# 5 -18.1858 -25.1055 -38.0531 0.0000 42.8488 0.0000
# 6 0.0000 0.0000 0.0000 -11.6359 0.0000 5.8290
#
#
#
# Elastic Compliance Matrix: (Units=1/GPa)
#
#
# Indices 1 2 3 4 5 6 
#
# 1 0.014136 -0.001651 -0.000367 0.000000 0.004706 0.000000
# 2 -0.001651 0.008959 -0.002438 0.000000 0.002384 0.000000
# 3 -0.000367 -0.002438 0.018021 0.000000 0.014419 0.000000
# 4 0.000000 0.000000 0.000000 0.077055 0.000000 0.153817
# 5 0.004706 0.002384 0.014419 0.000000 0.039537 0.000000
# 6 0.000000 0.000000 0.000000 0.153817 0.000000 0.478608
#
#
# Mechanical properties :
#
#
# Convention : Reuss Voigt Hill
#
# Bulk Modulus (GPa) = 31.05177 52.38635 41.71906
# Shear Modulus (GPa) = 7.62239 31.77969 19.70104
#
# Velocity S-wave (km/s) = 1.91026 3.90050 3.07107
# Velocity P-wave (km/s) = 4.44195 6.73529 5.70504
#
# Compressibility (1/GPa) = 0.03220428
#
# Stress axis : x y z
#
# Youngs Moduli (GPa) = 70.74292 111.61379 55.49232
#
# Poissons Ratio (x) = 0.18422 0.02037
# Poissons Ratio (y) = 0.11676 0.13529
# Poissons Ratio (z) = 0.02597 0.27212
#
# Static dielectric constant tensor:
#      x y z
#    x 1.663870 0.000000 0.126300 
#    y 0.000000 1.727950 0.000000 
#    z 0.126300 0.000000 1.623430 
# 
# From -- ./inp_files/82562.got.cif
#   From: 2010.05.17/outbox.cif.g08.bks.cpg/sg15_42_cif.got.tgz:82562.got - 2010.06.03 18:47:42.
