data_PCOD9301022
_publ_section_title
;
Structure prediction by ZEFSAII (Michael W. Deem and Ramdas Pophale) SiO2 
 PCOD9301022
Probable space group: C 2/C
;
_chemical_formula_sum "Si O2"
_cell_formula_units_Z 40
_cell_length_a 23.775381
_cell_length_b 7.189004
_cell_length_c 8.961834
_cell_angle_alpha 90.000000
_cell_angle_beta 92.916081
_cell_angle_gamma 90.000000
_cell_volume 1529.784940
_symmetry_space_group_name_H-M "C 2/C"
_symmetry_group_IT_number 15
_symmetry_cell_setting 'monoclinic'
loop_
_space_group_symop_operation_xyz
x,y,z
-x,y,1/2-z
-x,-y,-z
x,-y,1/2+z
1/2+x,1/2+y,z
1/2-x,1/2+y,1/2-z
1/2-x,1/2-y,-z
1/2+x,1/2-y,1/2+z
loop_
_atom_site_type_symbol
_atom_site_label
_atom_site_fract_x
_atom_site_fract_y
_atom_site_fract_z
Si Si1 0.875944 0.715471 0.392966
Si Si2 0.288428 0.538673 0.067936
Si Si3 0.517030 0.786017 0.410404
Si Si4 0.215344 0.618356 0.323592
Si Si5 0.552165 0.635307 0.853832
O O1 0.929347 0.633654 0.491175
O O2 0.836414 0.573297 0.294181
O O3 0.899101 0.838103 0.257939
O O4 0.838313 0.852559 0.491515
O O5 0.269400 0.626938 0.221501
O O6 0.296746 0.317950 0.101990
O O7 0.234422 0.528934 0.949391
O O8 0.500000 0.872072 0.250000
O O9 0.459683 0.744720 0.495231
O O10 0.541701 0.579956 0.383729
O O11 0.500000 0.703604 0.750000
#
# Coordination Sequence:
#
# PCOD9301022 Si02
#       5
#     8   8   8   8   8
#     4  11  20  36  60  86 126 170 196 253 323 359
#     4  11  24  42  62  90 129 164 215 257 305 369
#     4   9  17  30  51  88 123 153 199 255 314 376
#     4  11  24  42  61  89 125 171 212 260 298 373
#     4   8  16  30  49  81 122 155 196 248 313 376
#
# _framework density 26.147466999999999
#
# number of rings (size 3 to 8) (size 9 to 14) (size 15 to 20)
#    0.000    2.000    2.000    3.000    0.000    0.000 
#    3.600    0.000    0.000    0.000    0.000   18.200 
#    0.000    0.000    0.000    6.600    0.000    0.000 
#
# Total GULP energy -111622.770816 kJ/mol
# GULP energy per Si atom -5581.138541 kJ/mol
# Density = 2.608795 g / cm^3
# Si number density = 26.147467 Si / 1000 Ang^3
#
#
#
# Elastic Constant Matrix: (Units=GPa)
#
#
# Indices 1 2 3 4 5 6 
#
# 1 85.2059 31.3032 53.6624 0.0000 -8.8938 0.0000
# 2 31.3032 98.9709 26.8777 0.0000 -8.7052 0.0000
# 3 53.6624 26.8777 142.6720 0.0000 -11.7794 0.0000
# 4 0.0000 0.0000 0.0000 36.5377 0.0000 -11.9151
# 5 -8.8938 -8.7052 -11.7794 0.0000 68.0925 0.0000
# 6 0.0000 0.0000 0.0000 -11.9151 0.0000 12.4284
#
#
#
# Elastic Compliance Matrix: (Units=1/GPa)
#
#
# Indices 1 2 3 4 5 6 
#
# 1 0.016638 -0.003703 -0.005498 0.000000 0.000748 0.000000
# 2 -0.003703 0.011545 -0.000710 0.000000 0.000869 0.000000
# 3 -0.005498 -0.000710 0.009277 0.000000 0.000796 0.000000
# 4 0.000000 0.000000 0.000000 0.039817 0.000000 0.038173
# 5 0.000748 0.000869 0.000796 0.000000 0.015032 0.000000
# 6 0.000000 0.000000 0.000000 0.038173 0.000000 0.117056
#
#
# Mechanical properties :
#
#
# Convention : Reuss Voigt Hill
#
# Bulk Modulus (GPa) = 56.70446 61.17059 58.93752
# Shear Modulus (GPa) = 21.27048 37.74542 29.50795
#
# Velocity S-wave (km/s) = 2.85525 3.80354 3.36299
# Velocity P-wave (km/s) = 5.70994 6.53716 6.13751
#
# Compressibility (1/GPa) = 0.01763530
#
# Stress axis : x y z
#
# Youngs Moduli (GPa) = 60.10404 86.62046 107.79724
#
# Poissons Ratio (x) = 0.32078 0.59272
# Poissons Ratio (y) = 0.22258 0.07656
# Poissons Ratio (z) = 0.33048 0.06152
#
# Static dielectric constant tensor:
#      x y z
#    x 2.249580 0.000000 -0.026590 
#    y 0.000000 2.029320 0.000000 
#    z -0.026590 0.000000 2.157570 
# 
# From -- ./inp_files/64573.got.cif
#   From: 2010.05.17/outbox.cif.g08.bks.cpg/sg15_33_cif.got.tgz:64573.got - 2010.06.03 18:47:42.
