data_PCOD9301341
_publ_section_title
;
Structure prediction by ZEFSAII (Michael W. Deem and Ramdas Pophale) SiO2 
 PCOD9301341
Probable space group: C 2/C
;
_chemical_formula_sum "Si O2"
_cell_formula_units_Z 52
_cell_length_a 12.511441
_cell_length_b 25.309359
_cell_length_c 9.177986
_cell_angle_alpha 90.000000
_cell_angle_beta 61.497958
_cell_angle_gamma 90.000000
_cell_volume 2554.029858
_symmetry_space_group_name_H-M "C 2/C"
_symmetry_group_IT_number 15
_symmetry_cell_setting 'monoclinic'
loop_
_space_group_symop_operation_xyz
x,y,z
-x,y,1/2-z
-x,-y,-z
x,-y,1/2+z
1/2+x,1/2+y,z
1/2-x,1/2+y,1/2-z
1/2-x,1/2-y,-z
1/2+x,1/2-y,1/2+z
loop_
_atom_site_type_symbol
_atom_site_label
_atom_site_fract_x
_atom_site_fract_y
_atom_site_fract_z
Si Si1 0.553172 0.801765 0.384856
Si Si2 0.462410 0.299801 0.428000
Si Si3 0.354518 0.465386 0.351714
Si Si4 0.852643 0.912344 0.843665
Si Si5 0.000000 0.345053 0.750000
Si Si6 0.766067 0.117302 0.103795
Si Si7 0.796221 0.868483 0.185865
O O1 0.500000 0.806945 0.250000
O O2 0.561793 0.740081 0.424500
O O3 0.494290 0.822201 0.580915
O O4 0.683399 0.830667 0.292821
O O5 0.500000 0.272176 0.250000
O O6 0.345223 0.336672 0.475889
O O7 0.575660 0.337851 0.385961
O O8 0.500000 0.462394 0.250000
O O9 0.319828 0.525704 0.352667
O O10 0.314836 0.440587 0.530283
O O11 0.299981 0.421750 0.279110
O O12 0.800424 0.877786 0.748267
O O13 0.000000 0.909183 0.750000
O O14 0.792723 0.889523 0.025607
O O15 0.126020 0.376413 0.662036
#
# Coordination Sequence:
#
# PCOD9301341 Si02
#       7
#     8   8   8   8   4   8   8
#     4  12  29  46  70 101 142 191 243 290 348 421
#     4  12  24  43  70  99 135 184 234 295 357 413
#     4  11  20  41  71 104 135 176 225 295 366 419
#     4  11  23  39  73 109 138 173 230 302 367 416
#     4  12  26  48  70  92 142 196 232 278 354 416
#     4  12  23  43  66  98 140 183 231 290 350 429
#     4  12  23  45  68 102 144 176 232 296 352 421
#
# _framework density 20.359981999999999
#
# number of rings (size 3 to 8) (size 9 to 14) (size 15 to 20)
#    0.000    0.308    6.923    1.846    4.308    4.308 
#    0.000    0.769    3.385    0.000    0.000    0.000 
#    0.000    0.000    0.000    0.000    0.000    0.000 
#
# Total GULP energy -144847.443690 kJ/mol
# GULP energy per Si atom -5571.055527 kJ/mol
# Density = 2.031364 g / cm^3
# Si number density = 20.359982 Si / 1000 Ang^3
#
#
#
# Elastic Constant Matrix: (Units=GPa)
#
#
# Indices 1 2 3 4 5 6 
#
# 1 99.1624 38.1984 34.2517 0.0000 -5.6427 0.0000
# 2 38.1984 73.1180 53.0942 0.0000 -9.7392 0.0000
# 3 34.2517 53.0942 114.5972 0.0000 8.5648 0.0000
# 4 0.0000 0.0000 0.0000 60.2489 0.0000 19.1497
# 5 -5.6427 -9.7392 8.5648 0.0000 44.9490 0.0000
# 6 0.0000 0.0000 0.0000 19.1497 0.0000 3.8792
#
#
#
# Elastic Compliance Matrix: (Units=1/GPa)
#
#
# Indices 1 2 3 4 5 6 
#
# 1 0.012729 -0.005690 -0.001213 0.000000 0.000596 0.000000
# 2 -0.005690 0.025128 -0.010444 0.000000 0.006720 0.000000
# 3 -0.001213 -0.010444 0.014312 0.000000 -0.005142 0.000000
# 4 0.000000 0.000000 0.000000 -0.029168 0.000000 0.143988
# 5 0.000596 0.006720 -0.005142 0.000000 0.024758 0.000000
# 6 0.000000 0.000000 0.000000 0.143988 0.000000 -0.453018
#
#
# Mechanical properties :
#
#
# Convention : Reuss Voigt Hill
#
# Bulk Modulus (GPa) = 57.22195 59.77402 58.49799
# Shear Modulus (GPa) = -13.70835 32.57096 9.43131
#
# Velocity S-wave (km/s) = -2.59762 4.00403 2.15461
# Velocity P-wave (km/s) = 4.37828 7.12732 5.91473
#
# Compressibility (1/GPa) = 0.01747581
#
# Stress axis : x y z
#
# Youngs Moduli (GPa) = 78.55989 39.79688 69.87279
#
# Poissons Ratio (x) = 0.22643 0.08476
# Poissons Ratio (y) = 0.44698 0.72972
# Poissons Ratio (z) = 0.09530 0.41562
#
# Static dielectric constant tensor:
#      x y z
#    x 1.739090 0.000000 0.174510 
#    y 0.000000 1.710280 0.000000 
#    z 0.174510 0.000000 2.081660 
# 
# From -- ./inp_files/34097.got.cif
#   From: 2010.05.17/outbox.cif.g08.bks.cpg/sg15_18_cif.got.tgz:34097.got - 2010.06.03 18:47:42.
