data_PCOD9301370
_publ_section_title
;
Structure prediction by ZEFSAII (Michael W. Deem and Ramdas Pophale) SiO2 
 PCOD9301370
Probable space group: C 2/C
;
_chemical_formula_sum "Si O2"
_cell_formula_units_Z 48
_cell_length_a 8.216533
_cell_length_b 19.040283
_cell_length_c 19.764324
_cell_angle_alpha 90.000000
_cell_angle_beta 127.672625
_cell_angle_gamma 90.000000
_cell_volume 2447.391558
_symmetry_space_group_name_H-M "C 2/C"
_symmetry_group_IT_number 15
_symmetry_cell_setting 'monoclinic'
loop_
_space_group_symop_operation_xyz
x,y,z
-x,y,1/2-z
-x,-y,-z
x,-y,1/2+z
1/2+x,1/2+y,z
1/2-x,1/2+y,1/2-z
1/2-x,1/2-y,-z
1/2+x,1/2-y,1/2+z
loop_
_atom_site_type_symbol
_atom_site_label
_atom_site_fract_x
_atom_site_fract_y
_atom_site_fract_z
Si Si1 0.241306 0.545299 0.004063
Si Si2 0.024721 0.684018 0.335906
Si Si3 0.885643 0.900727 0.984939
Si Si4 0.317808 0.915574 0.334034
Si Si5 0.767821 0.928361 0.670918
Si Si6 0.960070 0.849189 0.337405
O O1 0.460101 0.572272 0.033000
O O2 0.235654 0.554629 0.083226
O O3 0.244743 0.464460 0.978537
O O4 0.047121 0.585841 0.922176
O O5 0.246071 0.660169 0.419117
O O6 0.000000 0.668891 0.250000
O O7 0.868885 0.635468 0.338067
O O8 0.991165 0.766347 0.338464
O O9 0.022243 0.873780 0.081604
O O10 0.252930 0.870922 0.252288
O O11 0.148073 0.888898 0.345768
O O12 0.280581 0.997001 0.306431
O O13 0.000000 0.911353 0.750000
#
# Coordination Sequence:
#
# PCOD9301370 Si02
#       6
#     8   8   8   8   8   8
#     4  11  23  40  66 103 129 167 226 283 324 390
#     4  12  25  43  65  99 135 173 217 281 337 394
#     4  11  23  42  66  98 134 170 222 274 333 393
#     4  11  20  42  70  91 127 177 226 266 323 401
#     4  12  22  42  69  98 130 174 227 280 329 390
#     4  11  23  44  68  92 132 181 220 265 338 408
#
# _framework density 19.612718000000001
#
# number of rings (size 3 to 8) (size 9 to 14) (size 15 to 20)
#    0.000    0.667    6.667    3.000    0.000    2.000 
#    3.000    1.667    0.000    0.000    0.000    0.000 
#    0.000    0.000    0.000    0.000    0.000    0.000 
#
# Total GULP energy -134090.402162 kJ/mol
# GULP energy per Si atom -5587.100090 kJ/mol
# Density = 1.956808 g / cm^3
# Si number density = 19.612718 Si / 1000 Ang^3
#
#
#
# Elastic Constant Matrix: (Units=GPa)
#
#
# Indices 1 2 3 4 5 6 
#
# 1 46.1074 26.7001 9.8280 0.0000 2.4011 0.0000
# 2 26.7001 120.9482 42.9362 0.0000 5.5105 0.0000
# 3 9.8280 42.9362 101.4608 0.0000 5.2310 0.0000
# 4 0.0000 0.0000 0.0000 20.9460 0.0000 10.7498
# 5 2.4011 5.5105 5.2310 0.0000 35.3788 0.0000
# 6 0.0000 0.0000 0.0000 10.7498 0.0000 14.7884
#
#
#
# Elastic Compliance Matrix: (Units=1/GPa)
#
#
# Indices 1 2 3 4 5 6 
#
# 1 0.024893 -0.005433 -0.000069 0.000000 -0.000833 0.000000
# 2 -0.005433 0.010945 -0.004067 0.000000 -0.000735 0.000000
# 3 -0.000069 -0.004067 0.011640 0.000000 -0.001083 0.000000
# 4 0.000000 0.000000 0.000000 0.076150 0.000000 -0.055354
# 5 -0.000833 -0.000735 -0.001083 0.000000 0.028597 0.000000
# 6 0.000000 0.000000 0.000000 -0.055354 0.000000 0.107857
#
#
# Mechanical properties :
#
#
# Convention : Reuss Voigt Hill
#
# Bulk Modulus (GPa) = 35.28794 47.49390 41.39092
# Shear Modulus (GPa) = 17.32104 26.82610 22.07357
#
# Velocity S-wave (km/s) = 2.97501 3.70238 3.35845
# Velocity P-wave (km/s) = 5.46190 6.52267 6.01571
#
# Compressibility (1/GPa) = 0.02833829
#
# Stress axis : x y z
#
# Youngs Moduli (GPa) = 40.17259 91.36838 85.91189
#
# Poissons Ratio (x) = 0.49637 0.00595
# Poissons Ratio (y) = 0.21824 0.34944
# Poissons Ratio (z) = 0.00278 0.37164
#
# Static dielectric constant tensor:
#      x y z
#    x 1.706370 0.000000 0.001430 
#    y 0.000000 1.657640 0.000000 
#    z 0.001430 0.000000 1.693420 
# 
# From -- ./inp_files/232879.got.cif
#   From: 2010.05.17/outbox.cif.g08.bks.cpg/sg15_117_cif.got.tgz:232879.got - 2010.06.03 18:47:42.
