data_PCOD9301596
_publ_section_title
;
Structure prediction by ZEFSAII (Michael W. Deem and Ramdas Pophale) SiO2 
 PCOD9301596
Probable space group: C 2/C
;
_chemical_formula_sum "Si O2"
_cell_formula_units_Z 48
_cell_length_a 12.338342
_cell_length_b 24.369443
_cell_length_c 8.639795
_cell_angle_alpha 90.000000
_cell_angle_beta 99.185643
_cell_angle_gamma 90.000000
_cell_volume 2564.487365
_symmetry_space_group_name_H-M "C 2/C"
_symmetry_group_IT_number 15
_symmetry_cell_setting 'monoclinic'
loop_
_space_group_symop_operation_xyz
x,y,z
-x,y,1/2-z
-x,-y,-z
x,-y,1/2+z
1/2+x,1/2+y,z
1/2-x,1/2+y,1/2-z
1/2-x,1/2-y,-z
1/2+x,1/2-y,1/2+z
loop_
_atom_site_type_symbol
_atom_site_label
_atom_site_fract_x
_atom_site_fract_y
_atom_site_fract_z
Si Si1 0.281943 0.845561 0.646798
Si Si2 0.376701 0.953305 0.794460
Si Si3 0.844535 0.750253 0.384528
Si Si4 0.942818 0.782394 0.880946
Si Si5 0.877923 0.431729 0.159389
Si Si6 0.190324 0.674878 0.694806
O O1 0.296794 0.907072 0.708503
O O2 0.340373 0.806587 0.788194
O O3 0.160899 0.819464 0.598238
O O4 0.330320 0.843284 0.485428
O O5 0.500000 0.946924 0.750000
O O6 0.337225 0.014114 0.739621
O O7 0.382100 0.945078 0.979408
O O8 0.750000 0.750000 0.500000
O O9 0.806069 0.796029 0.253274
O O10 0.963140 0.766119 0.476853
O O11 0.893339 0.725323 0.803864
O O12 0.000000 0.811963 0.750000
O O13 0.818236 0.375594 0.190310
O O14 0.000000 0.422341 0.250000
#
# Coordination Sequence:
#
# PCOD9301596 Si02
#       6
#     8   8   8   8   8   8
#     4  11  24  37  56  89 120 158 197 239 296 350
#     4  11  23  39  61  89 119 153 194 242 295 356
#     4  11  21  37  58  86 115 162 200 241 300 342
#     4  11  22  37  59  85 123 155 200 244 290 355
#     4  11  22  38  61  87 120 153 193 243 301 349
#     4  11  23  37  58  89 122 154 197 241 296 353
#
# _framework density 18.717192000000001
#
# number of rings (size 3 to 8) (size 9 to 14) (size 15 to 20)
#    0.000    1.000    3.333    7.500    4.667    2.000 
#    0.000    0.000    0.000    1.000    0.000    0.000 
#    0.000    0.000    0.000    0.000    0.000    0.000 
#
# Total GULP energy -133931.625111 kJ/mol
# GULP energy per Si atom -5580.484380 kJ/mol
# Density = 1.867459 g / cm^3
# Si number density = 18.717192 Si / 1000 Ang^3
#
#
#
# Elastic Constant Matrix: (Units=GPa)
#
#
# Indices 1 2 3 4 5 6 
#
# 1 66.3871 19.7571 2.3350 0.0000 23.0899 0.0000
# 2 19.7571 97.4773 -11.0011 0.0000 0.4711 0.0000
# 3 2.3350 -11.0011 69.3893 0.0000 -1.5531 0.0000
# 4 0.0000 0.0000 0.0000 34.0018 0.0000 -0.5837
# 5 23.0899 0.4711 -1.5531 0.0000 38.9355 0.0000
# 6 0.0000 0.0000 0.0000 -0.5837 0.0000 8.3279
#
#
#
# Elastic Compliance Matrix: (Units=1/GPa)
#
#
# Indices 1 2 3 4 5 6 
#
# 1 0.020676 -0.004318 -0.001655 0.000000 -0.012275 0.000000
# 2 -0.004318 0.011348 0.002000 0.000000 0.002503 0.000000
# 3 -0.001655 0.002000 0.014819 0.000000 0.001548 0.000000
# 4 0.000000 0.000000 0.000000 0.029446 0.000000 0.002064
# 5 -0.012275 0.002503 0.001548 0.000000 0.032995 0.000000
# 6 0.000000 0.000000 0.000000 0.002064 0.000000 0.120223
#
#
# Mechanical properties :
#
#
# Convention : Reuss Voigt Hill
#
# Bulk Modulus (GPa) = 25.70900 28.38173 27.04536
# Shear Modulus (GPa) = 19.96672 31.06389 25.51530
#
# Velocity S-wave (km/s) = 3.26967 4.07829 3.69616
# Velocity P-wave (km/s) = 5.29336 6.11335 5.71807
#
# Compressibility (1/GPa) = 0.03889689
#
# Stress axis : x y z
#
# Youngs Moduli (GPa) = 48.36555 88.12377 67.48121
#
# Poissons Ratio (x) = 0.38053 0.11169
# Poissons Ratio (y) = 0.20885 -0.13499
# Poissons Ratio (z) = 0.08005 -0.17628
#
# Static dielectric constant tensor:
#      x y z
#    x 1.694060 0.000000 -0.042410 
#    y 0.000000 1.650010 0.000000 
#    z -0.042410 0.000000 1.734820 
# 
# From -- ./inp_files/32009.got.cif
#   From: 2010.05.17/outbox.cif.g08.bks.cpg/sg15_17_cif.got.tgz:32009.got - 2010.06.03 18:47:42.
