data_PCOD9301461
_publ_section_title
;
Structure prediction by ZEFSAII (Michael W. Deem and Ramdas Pophale) SiO2 
 PCOD9301461
Probable space group: C 2/C
;
_chemical_formula_sum "Si O2"
_cell_formula_units_Z 48
_cell_length_a 25.203983
_cell_length_b 8.904500
_cell_length_c 18.737817
_cell_angle_alpha 90.000000
_cell_angle_beta 41.974289
_cell_angle_gamma 90.000000
_cell_volume 2812.496975
_symmetry_space_group_name_H-M "C 2/C"
_symmetry_group_IT_number 15
_symmetry_cell_setting 'monoclinic'
loop_
_space_group_symop_operation_xyz
x,y,z
-x,y,1/2-z
-x,-y,-z
x,-y,1/2+z
1/2+x,1/2+y,z
1/2-x,1/2+y,1/2-z
1/2-x,1/2-y,-z
1/2+x,1/2-y,1/2+z
loop_
_atom_site_type_symbol
_atom_site_label
_atom_site_fract_x
_atom_site_fract_y
_atom_site_fract_z
Si Si1 0.170558 0.646300 0.998267
Si Si2 0.735391 0.426200 0.342042
Si Si3 0.590084 0.556540 0.745626
Si Si4 0.735395 0.573803 0.187168
Si Si5 0.670563 0.146303 0.160614
Si Si6 0.590081 0.556545 0.574207
O O1 0.191868 0.510057 0.925559
O O2 0.249997 0.750000 0.919525
O O3 0.156090 0.595089 0.093912
O O4 0.104208 0.766731 0.042611
O O5 0.726285 0.499999 0.273713
O O6 0.749997 0.250001 0.321714
O O7 0.808128 0.510061 0.309296
O O8 0.656418 0.462356 0.466714
O O9 0.656423 0.462346 0.720439
O O10 0.604214 0.733261 0.748968
O O11 0.602602 0.543794 0.647397
O O12 0.500002 0.512823 0.852193
#
# Coordination Sequence:
#
# PCOD9301461 Si02
#       6
#     8   8   8   8   8   8
#     4   8  15  30  51  72  95 126 163 201 244 295
#     4  11  21  33  51  74 102 136 172 209 248 295
#     4   9  18  34  55  77 102 132 165 204 252 302
#     4  11  21  33  51  74 102 136 172 209 248 295
#     4   8  15  30  51  72  95 126 163 201 244 295
#     4   9  18  34  55  77 102 132 165 204 252 302
#
# _framework density 17.066685
#
# number of rings (size 3 to 8) (size 9 to 14) (size 15 to 20)
#    0.000    2.667    0.000    6.000    0.000    3.333 
#    0.000    1.667    0.000    8.000    0.000    0.000 
#    0.000    0.000    0.000    0.000    0.000    0.000 
#
# Total GULP energy -133718.300865 kJ/mol
# GULP energy per Si atom -5571.595869 kJ/mol
# Density = 1.702784 g / cm^3
# Si number density = 17.066685 Si / 1000 Ang^3
#
#
#
# Elastic Constant Matrix: (Units=GPa)
#
#
# Indices 1 2 3 4 5 6 
#
# 1 67.4661 54.4643 50.8298 -0.0002 -1.2336 0.0001
# 2 54.4643 136.1602 55.0200 -0.0009 10.7354 0.0013
# 3 50.8298 55.0200 67.3647 -0.0005 -0.6902 0.0008
# 4 -0.0002 -0.0009 -0.0005 25.1345 0.0003 5.2123
# 5 -1.2336 10.7354 -0.6902 0.0003 18.7397 -0.0003
# 6 0.0001 0.0013 0.0008 5.2123 -0.0003 24.8637
#
#
#
# Elastic Compliance Matrix: (Units=1/GPa)
#
#
# Indices 1 2 3 4 5 6 
#
# 1 0.037085 -0.005878 -0.023131 -0.000001 0.004957 0.000001
# 2 -0.005878 0.012779 -0.006083 0.000001 -0.007932 -0.000001
# 3 -0.023131 -0.006083 0.037300 0.000001 0.003336 -0.000001
# 4 -0.000001 0.000001 0.000001 0.041594 -0.000001 -0.008720
# 5 0.004957 -0.007932 0.003336 -0.000001 0.058356 0.000001
# 6 0.000001 -0.000001 -0.000001 -0.008720 0.000001 0.042047
#
#
# Mechanical properties :
#
#
# Convention : Reuss Voigt Hill
#
# Bulk Modulus (GPa) = 58.89120 65.73547 62.31333
# Shear Modulus (GPa) = 16.39311 21.12606 18.75958
#
# Velocity S-wave (km/s) = 3.10261 3.52213 3.31901
# Velocity P-wave (km/s) = 6.88595 7.42570 7.16091
#
# Compressibility (1/GPa) = 0.01698047
#
# Stress axis : x y z
#
# Youngs Moduli (GPa) = 26.96483 78.25314 26.80935
#
# Poissons Ratio (x) = 0.45999 0.62012
# Poissons Ratio (y) = 0.15851 0.16308
# Poissons Ratio (z) = 0.62372 0.47602
#
# Static dielectric constant tensor:
#      x y z
#    x 1.588510 0.000000 -0.004840 
#    y 0.000000 1.576260 0.000000 
#    z -0.004840 0.000000 1.588260 
# 
# From -- ./inp_files/218141.got.cif
#   From: 2010.05.17/outbox.cif.g08.bks.cpg/sg15_110_cif.got.tgz:218141.got - 2010.06.03 18:47:42.
