data_PCOD9301463
_publ_section_title
;
Structure prediction by ZEFSAII (Michael W. Deem and Ramdas Pophale) SiO2 
 PCOD9301463
Probable space group: C 2/C
;
_chemical_formula_sum "Si O2"
_cell_formula_units_Z 64
_cell_length_a 6.553743
_cell_length_b 22.970640
_cell_length_c 22.683662
_cell_angle_alpha 90.000000
_cell_angle_beta 95.290427
_cell_angle_gamma 90.000000
_cell_volume 3400.334757
_symmetry_space_group_name_H-M "C 2/C"
_symmetry_group_IT_number 15
_symmetry_cell_setting 'monoclinic'
loop_
_space_group_symop_operation_xyz
x,y,z
-x,y,1/2-z
-x,-y,-z
x,-y,1/2+z
1/2+x,1/2+y,z
1/2-x,1/2+y,1/2-z
1/2-x,1/2-y,-z
1/2+x,1/2-y,1/2+z
loop_
_atom_site_type_symbol
_atom_site_label
_atom_site_fract_x
_atom_site_fract_y
_atom_site_fract_z
Si Si1 0.886528 0.058866 0.009806
Si Si2 0.748516 0.348083 0.515762
Si Si3 0.650791 0.119540 0.099223
Si Si4 0.712298 0.059195 0.882583
Si Si5 0.103485 0.082107 0.815865
Si Si6 0.087140 0.660049 0.613923
Si Si7 0.078322 0.474109 0.685490
Si Si8 0.596092 0.728814 0.442672
O O1 0.758360 0.067519 0.065117
O O2 0.067303 0.105180 0.011849
O O3 0.729186 0.065613 0.952646
O O4 0.000000 0.000000 0.000000
O O5 0.843737 0.347906 0.452783
O O6 0.616799 0.292068 0.532805
O O7 0.929820 0.364131 0.565927
O O8 0.636780 0.089695 0.162685
O O9 0.791547 0.175924 0.088839
O O10 0.574048 0.114339 0.863264
O O11 0.931398 0.065058 0.858623
O O12 0.604478 0.999996 0.859832
O O13 0.215513 0.140565 0.842639
O O14 0.000000 0.092178 0.750000
O O15 0.250362 0.025201 0.813906
O O16 0.970078 0.721381 0.605290
O O17 0.000000 0.471191 0.750000
O O18 0.750000 0.750000 0.500000
#
# Coordination Sequence:
#
# PCOD9301463 Si02
#       8
#     8   8   8   8   8   8   8   8
#     4  11  21  33  55  92 133 158 193 253 329 387
#     4  11  21  37  59  94 127 165 207 251 323 390
#     4  11  24  38  60  94 129 170 208 259 324 392
#     4  11  21  37  61  92 126 157 205 259 325 380
#     4  11  23  41  65  93 124 169 215 263 327 378
#     4  11  22  36  65  93 124 164 211 265 314 386
#     4  11  24  42  63  90 123 170 218 258 310 398
#     4  11  23  40  63  95 129 171 212 257 328 395
#
# _framework density 18.821677000000001
#
# number of rings (size 3 to 8) (size 9 to 14) (size 15 to 20)
#    0.000    1.000    5.000    2.625    1.750    2.000 
#    0.000    0.000    0.000    4.500    0.000    0.000 
#    0.000    0.000    0.000    0.000    0.000    0.000 
#
# Total GULP energy -178346.205447 kJ/mol
# GULP energy per Si atom -5573.318920 kJ/mol
# Density = 1.877884 g / cm^3
# Si number density = 18.821677 Si / 1000 Ang^3
#
#
#
# Elastic Constant Matrix: (Units=GPa)
#
#
# Indices 1 2 3 4 5 6 
#
# 1 76.4385 36.6543 33.8279 0.0000 0.6852 0.0000
# 2 36.6543 95.4676 27.4532 0.0000 2.5719 0.0000
# 3 33.8279 27.4532 62.1848 0.0000 -7.1260 0.0000
# 4 0.0000 0.0000 0.0000 37.5479 0.0000 -32.6329
# 5 0.6852 2.5719 -7.1260 0.0000 34.3097 0.0000
# 6 0.0000 0.0000 0.0000 -32.6329 0.0000 96.4750
#
#
#
# Elastic Compliance Matrix: (Units=1/GPa)
#
#
# Indices 1 2 3 4 5 6 
#
# 1 0.019197 -0.004880 -0.008493 0.000000 -0.001781 0.000000
# 2 -0.004880 0.013381 -0.003438 0.000000 -0.001620 0.000000
# 3 -0.008493 -0.003438 0.022811 0.000000 0.005165 0.000000
# 4 0.000000 0.000000 0.000000 0.037722 0.000000 0.012760
# 5 -0.001781 -0.001620 0.005165 0.000000 0.030376 0.000000
# 6 0.000000 0.000000 0.000000 0.012760 0.000000 0.014681
#
#
# Mechanical properties :
#
#
# Convention : Reuss Voigt Hill
#
# Bulk Modulus (GPa) = 45.94209 47.77350 46.85780
# Shear Modulus (GPa) = 27.92588 42.74356 35.33472
#
# Velocity S-wave (km/s) = 3.85607 4.77064 4.33753
# Velocity P-wave (km/s) = 6.65491 7.46878 7.07356
#
# Compressibility (1/GPa) = 0.02176653
#
# Stress axis : x y z
#
# Youngs Moduli (GPa) = 52.09130 74.73350 43.83924
#
# Poissons Ratio (x) = 0.36473 0.37231
# Poissons Ratio (y) = 0.25423 0.15072
# Poissons Ratio (z) = 0.44239 0.25694
#
# Static dielectric constant tensor:
#      x y z
#    x 1.666780 0.000000 -0.009230 
#    y 0.000000 1.829790 0.000000 
#    z -0.009230 0.000000 1.610490 
# 
# From -- ./inp_files/261710.got.cif
#   From: 2010.05.17/outbox.cif.g08.bks.cpg/sg15_131_cif.got.tgz:261710.got - 2010.06.03 18:47:42.
