data_PCOD9301615
_publ_section_title
;
Structure prediction by ZEFSAII (Michael W. Deem and Ramdas Pophale) SiO2 
 PCOD9301615
Probable space group: C 2/C
;
_chemical_formula_sum "Si O2"
_cell_formula_units_Z 32
_cell_length_a 5.408694
_cell_length_b 25.539009
_cell_length_c 11.463866
_cell_angle_alpha 90.000000
_cell_angle_beta 123.884776
_cell_angle_gamma 90.000000
_cell_volume 1314.587792
_symmetry_space_group_name_H-M "C 2/C"
_symmetry_group_IT_number 15
_symmetry_cell_setting 'monoclinic'
loop_
_space_group_symop_operation_xyz
x,y,z
-x,y,1/2-z
-x,-y,-z
x,-y,1/2+z
1/2+x,1/2+y,z
1/2-x,1/2+y,1/2-z
1/2-x,1/2-y,-z
1/2+x,1/2-y,1/2+z
loop_
_atom_site_type_symbol
_atom_site_label
_atom_site_fract_x
_atom_site_fract_y
_atom_site_fract_z
Si Si1 0.112785 0.635686 0.901638
Si Si2 0.654601 0.652095 0.172370
Si Si3 0.856720 0.520874 0.840900
Si Si4 0.298664 0.230457 0.884406
O O1 0.000000 0.658202 0.750000
O O2 0.932272 0.582735 0.867985
O O3 0.030604 0.683946 0.961439
O O4 0.462284 0.628724 0.014391
O O5 0.500000 0.631876 0.250000
O O6 0.636768 0.715641 0.166202
O O7 0.000000 0.638070 0.250000
O O8 0.500000 0.511617 0.750000
O O9 0.000000 0.504491 0.750000
O O10 0.000000 0.500000 0.000000
O O11 0.000000 0.207542 0.750000
O O12 0.250000 0.250000 0.000000
#
# Coordination Sequence:
#
# PCOD9301615 Si02
#       4
#     8   8   8   8
#     4  11  23  42  70 100 134 183 236 287 345 418
#     4  11  24  41  62  96 139 180 221 269 328 395
#     4  11  26  50  78 108 141 183 237 301 369 433
#     4  11  21  37  62  96 139 182 225 275 329 400
#
# _framework density 24.342231999999999
#
# number of rings (size 3 to 8) (size 9 to 14) (size 15 to 20)
#    0.000    1.000    0.000    7.500    0.000    7.000 
#    0.000    6.250    0.000    0.000    0.000    0.000 
#    0.000    0.000    0.000    0.000    0.000    0.000 
#
# Total GULP energy -89415.948576 kJ/mol
# GULP energy per Si atom -5588.496786 kJ/mol
# Density = 2.428683 g / cm^3
# Si number density = 24.342232 Si / 1000 Ang^3
#
#
#
# Elastic Constant Matrix: (Units=GPa)
#
#
# Indices 1 2 3 4 5 6 
#
# 1 179.9406 24.2675 99.0173 0.0000 9.2791 0.0000
# 2 24.2675 33.2272 9.3153 0.0000 -1.8907 0.0000
# 3 99.0173 9.3153 179.0320 0.0000 24.4013 0.0000
# 4 0.0000 0.0000 0.0000 25.7361 0.0000 -4.5548
# 5 9.2791 -1.8907 24.4013 0.0000 56.6358 0.0000
# 6 0.0000 0.0000 0.0000 -4.5548 0.0000 18.4830
#
#
#
# Elastic Compliance Matrix: (Units=1/GPa)
#
#
# Indices 1 2 3 4 5 6 
#
# 1 0.008779 -0.005087 -0.004644 0.000000 0.000393 0.000000
# 2 -0.005087 0.033665 0.000845 0.000000 0.001593 0.000000
# 3 -0.004644 0.000845 0.008502 0.000000 -0.002874 0.000000
# 4 0.000000 0.000000 0.000000 0.040628 0.000000 0.010012
# 5 0.000393 0.001593 -0.002874 0.000000 0.018884 0.000000
# 6 0.000000 0.000000 0.000000 0.010012 0.000000 0.056571
#
#
# Mechanical properties :
#
#
# Convention : Reuss Voigt Hill
#
# Bulk Modulus (GPa) = 30.14534 73.04444 51.59489
# Shear Modulus (GPa) = 25.52855 37.47763 31.50309
#
# Velocity S-wave (km/s) = 3.24193 3.92805 3.60137
# Velocity P-wave (km/s) = 5.14046 7.11654 6.20764
#
# Compressibility (1/GPa) = 0.03317263
#
# Stress axis : x y z
#
# Youngs Moduli (GPa) = 113.91100 29.70432 117.62121
#
# Poissons Ratio (x) = 0.15111 0.54625
# Poissons Ratio (y) = 0.57950 -0.09937
# Poissons Ratio (z) = 0.52902 -0.02509
#
# Static dielectric constant tensor:
#      x y z
#    x 2.947670 0.000000 1.075290 
#    y 0.000000 1.951600 0.000000 
#    z 1.075290 0.000000 3.449800 
# 
# From -- ./inp_files/73522.got.cif
#   From: 2010.05.17/outbox.cif.g08.bks.cpg/sg15_37_cif.got.tgz:73522.got - 2010.06.03 18:47:42.
