data_PCOD9301200
_publ_section_title
;
Structure prediction by ZEFSAII (Michael W. Deem and Ramdas Pophale) SiO2 
 PCOD9301200
Probable space group: C 2/C
;
_chemical_formula_sum "Si O2"
_cell_formula_units_Z 52
_cell_length_a 10.899544
_cell_length_b 16.065816
_cell_length_c 14.118972
_cell_angle_alpha 90.000000
_cell_angle_beta 115.546723
_cell_angle_gamma 90.000000
_cell_volume 2230.659812
_symmetry_space_group_name_H-M "C 2/C"
_symmetry_group_IT_number 15
_symmetry_cell_setting 'monoclinic'
loop_
_space_group_symop_operation_xyz
x,y,z
-x,y,1/2-z
-x,-y,-z
x,-y,1/2+z
1/2+x,1/2+y,z
1/2-x,1/2+y,1/2-z
1/2-x,1/2-y,-z
1/2+x,1/2-y,1/2+z
loop_
_atom_site_type_symbol
_atom_site_label
_atom_site_fract_x
_atom_site_fract_y
_atom_site_fract_z
Si Si1 0.078022 0.091782 0.145241
Si Si2 0.068423 0.285011 0.139903
Si Si3 0.282589 0.450318 0.624803
Si Si4 0.793115 0.348925 0.144920
Si Si5 0.725174 0.036897 0.432666
Si Si6 0.500000 0.853011 0.750000
Si Si7 0.587152 0.207175 0.085001
O O1 0.101290 0.189218 0.173277
O O2 0.170258 0.040288 0.250987
O O3 0.132594 0.072530 0.059260
O O4 0.922512 0.072192 0.116677
O O5 0.171067 0.342178 0.232016
O O6 0.919884 0.305514 0.133835
O O7 0.050094 0.296588 0.022148
O O8 0.220008 0.526230 0.544314
O O9 0.179827 0.372509 0.589678
O O10 0.785789 0.442451 0.108096
O O11 0.662324 0.292445 0.082773
O O12 0.607646 0.089932 0.342819
O O13 0.434069 0.798137 0.810162
#
# Coordination Sequence:
#
# PCOD9301200 Si02
#       7
#     8   8   8   8   8   4   8
#     4  11  22  43  66 103 132 169 222 284 326 391
#     4  11  20  38  71  97 125 177 231 267 322 392
#     4  11  21  41  70  91 132 176 218 266 338 378
#     4  11  21  39  66 104 123 167 236 278 305 401
#     4  12  25  40  65 105 138 169 220 278 337 387
#     4  12  28  46  62  98 148 180 208 274 338 400
#     4  12  23  44  69  94 135 177 224 268 332 390
#
# _framework density 23.311488000000001
#
# number of rings (size 3 to 8) (size 9 to 14) (size 15 to 20)
#    0.000    0.615    6.154    3.692    0.000    1.846 
#    0.000    6.154    0.000    0.000    0.000    0.000 
#    0.000    0.000    0.000    0.000    0.000    0.000 
#
# Total GULP energy -145496.535408 kJ/mol
# GULP energy per Si atom -5596.020593 kJ/mol
# Density = 2.325843 g / cm^3
# Si number density = 23.311488 Si / 1000 Ang^3
#
#
#
# Elastic Constant Matrix: (Units=GPa)
#
#
# Indices 1 2 3 4 5 6 
#
# 1 40.3101 10.5390 -6.0030 0.0000 -8.1793 0.0000
# 2 10.5390 54.0046 -0.3256 0.0000 -13.6979 0.0000
# 3 -6.0030 -0.3256 126.4044 0.0000 5.1582 0.0000
# 4 0.0000 0.0000 0.0000 36.2901 0.0000 -2.5783
# 5 -8.1793 -13.6979 5.1582 0.0000 26.1486 0.0000
# 6 0.0000 0.0000 0.0000 -2.5783 0.0000 18.3409
#
#
#
# Elastic Compliance Matrix: (Units=1/GPa)
#
#
# Indices 1 2 3 4 5 6 
#
# 1 0.027219 -0.003687 0.001023 0.000000 0.006381 0.000000
# 2 -0.003687 0.021874 -0.000544 0.000000 0.010413 0.000000
# 3 0.001023 -0.000544 0.008021 0.000000 -0.001547 0.000000
# 4 0.000000 0.000000 0.000000 0.027834 0.000000 0.003913
# 5 0.006381 0.010413 -0.001547 0.000000 0.045999 0.000000
# 6 0.000000 0.000000 0.000000 0.003913 0.000000 0.055073
#
#
# Mechanical properties :
#
#
# Convention : Reuss Voigt Hill
#
# Bulk Modulus (GPa) = 19.72449 25.45999 22.59224
# Shear Modulus (GPa) = 23.88510 30.58983 27.23747
#
# Velocity S-wave (km/s) = 3.20442 3.62639 3.42192
# Velocity P-wave (km/s) = 4.70858 5.33663 5.03241
#
# Compressibility (1/GPa) = 0.05069840
#
# Stress axis : x y z
#
# Youngs Moduli (GPa) = 36.73939 45.71568 124.66610
#
# Poissons Ratio (x) = 0.16856 -0.12750
# Poissons Ratio (y) = 0.13546 0.06778
# Poissons Ratio (z) = -0.03758 0.02485
#
# Static dielectric constant tensor:
#      x y z
#    x 1.864430 0.000000 0.005170 
#    y 0.000000 1.823710 0.000000 
#    z 0.005170 0.000000 1.990020 
# 
# From -- ./inp_files/144311.got.cif
#   From: 2010.05.17/outbox.cif.g08.bks.cpg/sg15_73_cif.got.tgz:144311.got - 2010.06.03 18:47:42.
