data_PCOD9301084
_publ_section_title
;
Structure prediction by ZEFSAII (Michael W. Deem and Ramdas Pophale) SiO2 
 PCOD9301084
Probable space group: C 2/C
;
_chemical_formula_sum "Si O2"
_cell_formula_units_Z 52
_cell_length_a 22.869443
_cell_length_b 14.726894
_cell_length_c 8.388527
_cell_angle_alpha 90.000000
_cell_angle_beta 52.995223
_cell_angle_gamma 90.000000
_cell_volume 2256.180200
_symmetry_space_group_name_H-M "C 2/C"
_symmetry_group_IT_number 15
_symmetry_cell_setting 'monoclinic'
loop_
_space_group_symop_operation_xyz
x,y,z
-x,y,1/2-z
-x,-y,-z
x,-y,1/2+z
1/2+x,1/2+y,z
1/2-x,1/2+y,1/2-z
1/2-x,1/2-y,-z
1/2+x,1/2-y,1/2+z
loop_
_atom_site_type_symbol
_atom_site_label
_atom_site_fract_x
_atom_site_fract_y
_atom_site_fract_z
Si Si1 0.656939 0.947070 0.883371
Si Si2 0.277448 0.584631 0.773144
Si Si3 0.053287 0.827020 0.816913
Si Si4 0.303593 0.762299 0.557413
Si Si5 0.874518 0.011780 0.866350
Si Si6 0.000000 0.845712 0.250000
Si Si7 0.553168 0.043103 0.283275
O O1 0.702816 0.863800 0.871545
O O2 0.620397 0.918503 0.775936
O O3 0.704845 0.038726 0.818920
O O4 0.590900 0.965650 0.114776
O O5 0.282188 0.690565 0.729181
O O6 0.300386 0.553520 0.910869
O O7 0.345793 0.541077 0.567178
O O8 0.117179 0.761564 0.646574
O O9 0.000000 0.833388 0.750000
O O10 0.085694 0.928729 0.790793
O O11 0.021438 0.798690 0.043639
O O12 0.250000 0.750000 0.500000
O O13 0.931848 0.090518 0.809226
O O14 0.500000 0.097607 0.250000
O O15 0.500000 0.000000 0.500000
#
# Coordination Sequence:
#
# PCOD9301084 Si02
#       7
#     8   8   8   8   8   4   8
#     4  11  21  43  71  93 135 181 226 295 351 413
#     4  11  23  40  68  99 130 182 231 273 346 423
#     4  11  23  40  67 100 139 182 231 283 349 418
#     4  11  25  43  67  96 139 185 228 286 359 414
#     4  11  20  37  62  97 134 175 225 271 336 412
#     4  12  20  36  68  98 136 184 226 278 338 418
#     4   9  20  39  70  99 123 175 236 281 346 410
#
# _framework density 23.047805
#
# number of rings (size 3 to 8) (size 9 to 14) (size 15 to 20)
#    0.000    1.231    2.308    6.000    0.000    1.846 
#    0.000    3.077   35.538    0.000    0.000    0.000 
#    0.000    0.000    0.000    0.000    0.000    0.000 
#
# Total GULP energy -145065.706045 kJ/mol
# GULP energy per Si atom -5579.450232 kJ/mol
# Density = 2.299535 g / cm^3
# Si number density = 23.047805 Si / 1000 Ang^3
#
#
#
# Elastic Constant Matrix: (Units=GPa)
#
#
# Indices 1 2 3 4 5 6 
#
# 1 99.7003 -14.9079 -8.0225 0.0000 8.8572 0.0000
# 2 -14.9079 41.9242 10.9813 0.0000 1.8261 0.0000
# 3 -8.0225 10.9813 91.6396 0.0000 6.5783 0.0000
# 4 0.0000 0.0000 0.0000 12.9765 0.0000 3.9682
# 5 8.8572 1.8261 6.5783 0.0000 38.3791 0.0000
# 6 0.0000 0.0000 0.0000 3.9682 0.0000 21.6573
#
#
#
# Elastic Compliance Matrix: (Units=1/GPa)
#
#
# Indices 1 2 3 4 5 6 
#
# 1 0.010908 0.003818 0.000700 0.000000 -0.002819 0.000000
# 2 0.003818 0.025979 -0.002660 0.000000 -0.001661 0.000000
# 3 0.000700 -0.002660 0.011435 0.000000 -0.001995 0.000000
# 4 0.000000 0.000000 0.000000 0.081636 0.000000 -0.014958
# 5 -0.002819 -0.001661 -0.001995 0.000000 0.027127 0.000000
# 6 0.000000 0.000000 0.000000 -0.014958 0.000000 0.048914
#
#
# Mechanical properties :
#
#
# Convention : Reuss Voigt Hill
#
# Bulk Modulus (GPa) = 19.21632 23.26289 21.23960
# Shear Modulus (GPa) = 22.76552 30.95013 26.85782
#
# Velocity S-wave (km/s) = 3.14626 3.66849 3.41737
# Velocity P-wave (km/s) = 4.64266 5.29707 4.98063
#
# Compressibility (1/GPa) = 0.05203911
#
# Stress axis : x y z
#
# Youngs Moduli (GPa) = 91.67824 38.49215 87.44706
#
# Poissons Ratio (x) = -0.14697 -0.06119
# Poissons Ratio (y) = -0.35005 0.23258
# Poissons Ratio (z) = -0.06415 0.10237
#
# Static dielectric constant tensor:
#      x y z
#    x 1.929490 0.000000 0.023500 
#    y 0.000000 1.823970 0.000000 
#    z 0.023500 0.000000 1.968490 
# 
# From -- ./inp_files/61450.got.cif
#   From: 2010.05.17/outbox.cif.g08.bks.cpg/sg15_31_cif.got.tgz:61450.got - 2010.06.03 18:47:42.
