data_PCOD9301537
_publ_section_title
;
Structure prediction by ZEFSAII (Michael W. Deem and Ramdas Pophale) SiO2 
 PCOD9301537
Probable space group: C 2/C
;
_chemical_formula_sum "Si O2"
_cell_formula_units_Z 32
_cell_length_a 27.801729
_cell_length_b 5.920611
_cell_length_c 9.247098
_cell_angle_alpha 90.000000
_cell_angle_beta 53.979476
_cell_angle_gamma 90.000000
_cell_volume 1231.085931
_symmetry_space_group_name_H-M "C 2/C"
_symmetry_group_IT_number 15
_symmetry_cell_setting 'monoclinic'
loop_
_space_group_symop_operation_xyz
x,y,z
-x,y,1/2-z
-x,-y,-z
x,-y,1/2+z
1/2+x,1/2+y,z
1/2-x,1/2+y,1/2-z
1/2-x,1/2-y,-z
1/2+x,1/2-y,1/2+z
loop_
_atom_site_type_symbol
_atom_site_label
_atom_site_fract_x
_atom_site_fract_y
_atom_site_fract_z
Si Si1 0.784728 0.058458 0.524289
Si Si2 0.674196 0.203854 0.291287
Si Si3 0.430212 0.773403 0.680778
Si Si4 0.451221 0.367649 0.437173
O O1 0.750000 0.250000 0.500000
O O2 0.833608 0.166091 0.544049
O O3 0.732290 0.947548 0.712506
O O4 0.808064 0.875330 0.369532
O O5 0.616540 0.078305 0.326310
O O6 0.425319 0.537494 0.598659
O O7 0.501456 0.799767 0.570887
O O8 0.412445 0.748895 0.881154
O O9 0.500000 0.505377 0.250000
#
# Coordination Sequence:
#
# PCOD9301537 Si02
#       4
#     8   8   8   8
#     4  11  23  38  53  82 113 148 194 236 278 334
#     4  11  21  36  58  79 117 151 189 234 281 336
#     4   8  14  26  47  75 105 142 177 219 273 329
#     4   7  13  25  43  78 109 133 184 219 266 340
#
# _framework density 25.993310999999999
#
# number of rings (size 3 to 8) (size 9 to 14) (size 15 to 20)
#    1.500    1.000    2.500    1.500    0.000    0.000 
#    0.000    0.000    0.000    0.000    0.000   35.000 
#    0.000    0.000    0.000    0.000    0.000    0.000 
#
# Total GULP energy -89118.300737 kJ/mol
# GULP energy per Si atom -5569.893796 kJ/mol
# Density = 2.593415 g / cm^3
# Si number density = 25.993311 Si / 1000 Ang^3
#
#
#
# Elastic Constant Matrix: (Units=GPa)
#
#
# Indices 1 2 3 4 5 6 
#
# 1 204.6795 7.2481 29.0360 0.0000 38.0329 0.0000
# 2 7.2481 29.0389 28.9682 0.0000 15.6665 0.0000
# 3 29.0360 28.9682 71.0533 0.0000 11.9072 0.0000
# 4 0.0000 0.0000 0.0000 20.7859 0.0000 12.3872
# 5 38.0329 15.6665 11.9072 0.0000 51.4498 0.0000
# 6 0.0000 0.0000 0.0000 12.3872 0.0000 29.6917
#
#
#
# Elastic Compliance Matrix: (Units=1/GPa)
#
#
# Indices 1 2 3 4 5 6 
#
# 1 0.006206 0.004943 -0.003673 0.000000 -0.005243 0.000000
# 2 0.004943 0.071211 -0.027888 0.000000 -0.018884 0.000000
# 3 -0.003673 -0.027888 0.026078 0.000000 0.005172 0.000000
# 4 0.000000 0.000000 0.000000 0.064028 0.000000 -0.026712
# 5 -0.005243 -0.018884 0.005172 0.000000 0.027865 0.000000
# 6 0.000000 0.000000 0.000000 -0.026712 0.000000 0.044824
#
#
# Mechanical properties :
#
#
# Convention : Reuss Voigt Hill
#
# Bulk Modulus (GPa) = 19.89656 48.36403 34.13030
# Shear Modulus (GPa) = 16.11860 36.35344 26.23602
#
# Velocity S-wave (km/s) = 2.49289 3.74380 3.18045
# Velocity P-wave (km/s) = 3.99464 6.11022 5.16197
#
# Compressibility (1/GPa) = 0.05025994
#
# Stress axis : x y z
#
# Youngs Moduli (GPa) = 161.13770 14.04277 38.34632
#
# Poissons Ratio (x) = -0.06942 0.14084
# Poissons Ratio (y) = -0.79658 1.06941
# Poissons Ratio (z) = 0.59184 0.39163
#
# Static dielectric constant tensor:
#      x y z
#    x 2.155730 0.000000 -0.071880 
#    y 0.000000 2.090010 0.000000 
#    z -0.071880 0.000000 2.074250 
# 
# From -- ./inp_files/124604.got.cif
#   From: 2010.05.17/outbox.cif.g08.bks.cpg/sg15_63_cif.got.tgz:124604.got - 2010.06.03 18:47:42.
