data_PCOD9301587
_publ_section_title
;
Structure prediction by ZEFSAII (Michael W. Deem and Ramdas Pophale) SiO2 
 PCOD9301587
Probable space group: C 2/C
;
_chemical_formula_sum "Si O2"
_cell_formula_units_Z 64
_cell_length_a 16.115136
_cell_length_b 16.236454
_cell_length_c 13.691162
_cell_angle_alpha 90.000000
_cell_angle_beta 54.839034
_cell_angle_gamma 90.000000
_cell_volume 2928.688006
_symmetry_space_group_name_H-M "C 2/C"
_symmetry_group_IT_number 15
_symmetry_cell_setting 'monoclinic'
loop_
_space_group_symop_operation_xyz
x,y,z
-x,y,1/2-z
-x,-y,-z
x,-y,1/2+z
1/2+x,1/2+y,z
1/2-x,1/2+y,1/2-z
1/2-x,1/2-y,-z
1/2+x,1/2-y,1/2+z
loop_
_atom_site_type_symbol
_atom_site_label
_atom_site_fract_x
_atom_site_fract_y
_atom_site_fract_z
Si Si1 0.193541 0.743989 0.313627
Si Si2 0.260373 0.007745 0.353886
Si Si3 0.404872 0.527350 0.198879
Si Si4 0.877448 0.637265 0.740759
Si Si5 0.407803 0.799070 0.435828
Si Si6 0.110313 0.104034 0.075547
Si Si7 0.491176 0.657787 0.644445
Si Si8 0.725784 0.675004 0.442091
O O1 0.279416 0.811778 0.274083
O O2 0.170880 0.687204 0.422836
O O3 0.086049 0.787205 0.364560
O O4 0.231573 0.700285 0.191439
O O5 0.187227 0.033092 0.313663
O O6 0.275008 0.083839 0.418440
O O7 0.357386 0.960135 0.244900
O O8 0.198016 0.938291 0.454749
O O9 0.505009 0.575738 0.096602
O O10 0.384405 0.566324 0.319214
O O11 0.441245 0.432878 0.184621
O O12 0.887782 0.654229 0.849073
O O13 0.976366 0.674620 0.620390
O O14 0.393383 0.702329 0.420723
O O15 0.500000 0.689115 0.750000
O O16 0.394874 0.659173 0.973041
O O17 0.750000 0.750000 0.500000
#
# Coordination Sequence:
#
# PCOD9301587 Si02
#       8
#     8   8   8   8   8   8   8   8
#     4  12  25  42  70 100 141 189 235 293 362 417
#     4  12  25  40  69 104 139 184 233 288 352 432
#     4  11  21  36  65 104 139 169 220 296 371 404
#     4  11  24  44  70 105 144 180 233 290 364 430
#     4  11  25  46  70 108 140 182 235 298 357 424
#     4  11  22  39  68 103 142 171 218 307 364 402
#     4  12  21  43  65 100 147 179 234 295 350 420
#     4  12  28  45  67 103 142 196 242 286 348 430
#
# _framework density 21.852786999999999
#
# number of rings (size 3 to 8) (size 9 to 14) (size 15 to 20)
#    0.000    0.500    6.250    3.000    5.250    0.000 
#    0.000    3.125    0.000    0.000    0.000    0.000 
#    0.000    0.000    0.000    0.000    0.000    0.000 
#
# Total GULP energy -178927.470522 kJ/mol
# GULP energy per Si atom -5591.483454 kJ/mol
# Density = 2.180305 g / cm^3
# Si number density = 21.852787 Si / 1000 Ang^3
#
#
#
# Elastic Constant Matrix: (Units=GPa)
#
#
# Indices 1 2 3 4 5 6 
#
# 1 58.2587 43.9212 2.1195 0.0000 -2.6958 0.0000
# 2 43.9212 102.6659 43.9603 0.0000 -12.2059 0.0000
# 3 2.1195 43.9603 102.4714 0.0000 -10.0846 0.0000
# 4 0.0000 0.0000 0.0000 32.7825 0.0000 -9.1052
# 5 -2.6958 -12.2059 -10.0846 0.0000 14.3088 0.0000
# 6 0.0000 0.0000 0.0000 -9.1052 0.0000 36.7880
#
#
#
# Elastic Compliance Matrix: (Units=1/GPa)
#
#
# Indices 1 2 3 4 5 6 
#
# 1 0.027819 -0.014601 0.005350 0.000000 -0.003444 0.000000
# 2 -0.014601 0.020299 -0.007492 0.000000 0.009284 0.000000
# 3 0.005350 -0.007492 0.013252 0.000000 0.003956 0.000000
# 4 0.000000 0.000000 0.000000 0.032756 0.000000 0.008107
# 5 -0.003444 0.009284 0.003956 0.000000 0.079946 0.000000
# 6 0.000000 0.000000 0.000000 0.008107 0.000000 0.029189
#
#
# Mechanical properties :
#
#
# Convention : Reuss Voigt Hill
#
# Bulk Modulus (GPa) = 35.86657 49.26646 42.56651
# Shear Modulus (GPa) = 20.32176 28.33554 24.32865
#
# Velocity S-wave (km/s) = 3.05280 3.60482 3.34023
# Velocity P-wave (km/s) = 5.37350 6.31822 5.86492
#
# Compressibility (1/GPa) = 0.02788111
#
# Stress axis : x y z
#
# Youngs Moduli (GPa) = 35.94724 49.26420 75.46150
#
# Poissons Ratio (x) = 0.71931 -0.40368
# Poissons Ratio (y) = 0.52487 0.56539
# Poissons Ratio (z) = -0.19230 0.36911
#
# Static dielectric constant tensor:
#      x y z
#    x 1.834780 0.000000 0.001610 
#    y 0.000000 1.846930 0.000000 
#    z 0.001610 0.000000 1.893490 
# 
# From -- ./inp_files/162538.got.cif
#   From: 2010.05.17/outbox.cif.g08.bks.cpg/sg15_82_cif.got.tgz:162538.got - 2010.06.03 18:47:42.
