data_PCOD9301948
_publ_section_title
;
Structure prediction by ZEFSAII (Michael W. Deem and Ramdas Pophale) SiO2 
 PCOD9301948
Probable space group: C 2/C
;
_chemical_formula_sum "Si O2"
_cell_formula_units_Z 64
_cell_length_a 16.744195
_cell_length_b 9.462696
_cell_length_c 26.728231
_cell_angle_alpha 90.000000
_cell_angle_beta 42.157019
_cell_angle_gamma 90.000000
_cell_volume 2842.355989
_symmetry_space_group_name_H-M "C 2/C"
_symmetry_group_IT_number 15
_symmetry_cell_setting 'monoclinic'
loop_
_space_group_symop_operation_xyz
x,y,z
-x,y,1/2-z
-x,-y,-z
x,-y,1/2+z
1/2+x,1/2+y,z
1/2-x,1/2+y,1/2-z
1/2-x,1/2-y,-z
1/2+x,1/2-y,1/2+z
loop_
_atom_site_type_symbol
_atom_site_label
_atom_site_fract_x
_atom_site_fract_y
_atom_site_fract_z
Si Si1 0.471601 0.108329 0.597259
Si Si2 0.934530 0.659279 0.387064
Si Si3 0.321549 0.237039 0.066046
Si Si4 0.139690 0.310715 0.720403
Si Si5 0.728884 0.460233 0.928085
Si Si6 0.152695 0.138531 0.301895
Si Si7 0.723877 0.489844 0.166663
Si Si8 0.973317 0.887507 0.080188
O O1 0.570281 0.181911 0.517535
O O2 0.424891 0.219576 0.660064
O O3 0.523884 0.970869 0.598519
O O4 0.358070 0.063075 0.616681
O O5 0.797907 0.632150 0.437007
O O6 0.973022 0.797743 0.398885
O O7 0.009215 0.655259 0.300727
O O8 0.260090 0.372080 0.069140
O O9 0.235361 0.106551 0.118341
O O10 0.380181 0.297305 0.090438
O O11 0.206618 0.418843 0.653160
O O12 0.220718 0.316464 0.733274
O O13 0.151742 0.153926 0.691694
O O14 0.589168 0.425469 0.993274
O O15 0.172840 0.067683 0.239244
O O16 0.089338 0.024479 0.367361
#
# Coordination Sequence:
#
# PCOD9301948 Si02
#       8
#     8   8   8   8   8   8   8   8
#     4  11  24  40  67 100 132 169 221 281 332 392
#     4  12  26  44  66  94 140 179 219 269 340 413
#     4  12  24  43  69 103 130 169 230 283 332 392
#     4  11  23  42  67  97 129 175 227 275 331 399
#     4  12  27  43  66  96 137 183 216 269 343 410
#     4  11  21  40  69 100 130 166 228 282 330 383
#     4  11  23  39  70 101 128 169 226 288 331 381
#     4  12  22  46  67  99 129 176 226 276 331 396
#
# _framework density 22.516532000000002
#
# number of rings (size 3 to 8) (size 9 to 14) (size 15 to 20)
#    0.000    0.500    6.250    3.000    5.250    0.500 
#    0.000    0.000    0.000    0.000    0.000    0.000 
#    0.000    0.000    0.000    0.000    0.000    0.000 
#
# Total GULP energy -179151.458619 kJ/mol
# GULP energy per Si atom -5598.483082 kJ/mol
# Density = 2.246528 g / cm^3
# Si number density = 22.516532 Si / 1000 Ang^3
#
#
#
# Elastic Constant Matrix: (Units=GPa)
#
#
# Indices 1 2 3 4 5 6 
#
# 1 40.1147 -6.1954 -7.7927 0.0000 -15.1728 0.0000
# 2 -6.1954 77.7241 5.5527 0.0000 -0.8459 0.0001
# 3 -7.7927 5.5527 95.1455 0.0000 0.5298 0.0000
# 4 0.0000 0.0000 0.0000 42.0719 0.0000 8.2434
# 5 -15.1728 -0.8459 0.5298 0.0000 23.5339 0.0000
# 6 0.0000 0.0001 0.0000 8.2434 0.0000 33.3280
#
#
#
# Elastic Compliance Matrix: (Units=1/GPa)
#
#
# Indices 1 2 3 4 5 6 
#
# 1 0.034205 0.002787 0.002516 0.000000 0.022096 0.000000
# 2 0.002787 0.013152 -0.000552 0.000000 0.002282 0.000000
# 3 0.002516 -0.000552 0.010741 0.000000 0.001360 0.000000
# 4 0.000000 0.000000 0.000000 0.024979 0.000000 -0.006178
# 5 0.022096 0.002282 0.001360 0.000000 0.056789 0.000000
# 6 0.000000 0.000000 0.000000 -0.006178 0.000000 0.031533
#
#
# Mechanical properties :
#
#
# Convention : Reuss Voigt Hill
#
# Bulk Modulus (GPa) = 14.79272 21.79042 18.29157
# Shear Modulus (GPa) = 27.11027 34.54809 30.82918
#
# Velocity S-wave (km/s) = 3.47366 3.92132 3.70426
# Velocity P-wave (km/s) = 4.76155 5.49553 5.14165
#
# Compressibility (1/GPa) = 0.06760084
#
# Stress axis : x y z
#
# Youngs Moduli (GPa) = 29.23517 76.03139 93.10197
#
# Poissons Ratio (x) = -0.21192 -0.23423
# Poissons Ratio (y) = -0.08149 0.05139
# Poissons Ratio (z) = -0.07355 0.04197
#
# Static dielectric constant tensor:
#      x y z
#    x 1.867660 0.000000 0.015790 
#    y 0.000000 1.802340 0.000000 
#    z 0.015790 0.000000 1.809560 
# 
# From -- ./inp_files/315660.got.cif
#   From: 2010.05.17/outbox.cif.g08.bks.cpg/sg15_158_cif.got.tgz:315660.got - 2010.06.03 18:47:42.
