data_PCOD9301483
_publ_section_title
;
Structure prediction by ZEFSAII (Michael W. Deem and Ramdas Pophale) SiO2 
 PCOD9301483
Probable space group: C 2/C
;
_chemical_formula_sum "Si O2"
_cell_formula_units_Z 64
_cell_length_a 25.586628
_cell_length_b 20.124556
_cell_length_c 19.204353
_cell_angle_alpha 90.000000
_cell_angle_beta 160.001154
_cell_angle_gamma 90.000000
_cell_volume 3381.946196
_symmetry_space_group_name_H-M "C 2/C"
_symmetry_group_IT_number 15
_symmetry_cell_setting 'monoclinic'
loop_
_space_group_symop_operation_xyz
x,y,z
-x,y,1/2-z
-x,-y,-z
x,-y,1/2+z
1/2+x,1/2+y,z
1/2-x,1/2+y,1/2-z
1/2-x,1/2-y,-z
1/2+x,1/2-y,1/2+z
loop_
_atom_site_type_symbol
_atom_site_label
_atom_site_fract_x
_atom_site_fract_y
_atom_site_fract_z
Si Si1 0.373371 0.058708 0.334445
Si Si2 0.332510 0.476169 0.049038
Si Si3 0.167285 0.527279 0.484562
Si Si4 0.342906 0.478220 0.340150
Si Si5 0.453784 0.835005 0.379982
Si Si6 0.134681 0.789840 0.803026
Si Si7 0.382774 0.873693 0.048340
Si Si8 0.122092 0.889183 0.978918
O O1 0.451973 0.130521 0.440704
O O2 0.500000 0.000000 0.500000
O O3 0.245450 0.039305 0.232296
O O4 0.292670 0.053009 0.159333
O O5 0.500000 0.446251 0.250000
O O6 0.283137 0.465110 0.065970
O O7 0.349622 0.552858 0.043369
O O8 0.232801 0.550210 0.641174
O O9 0.156345 0.447679 0.478583
O O10 0.000000 0.551283 0.250000
O O11 0.500000 0.500000 0.500000
O O12 0.377870 0.427838 0.446925
O O13 0.471865 0.761309 0.372791
O O14 0.520163 0.878616 0.399766
O O15 0.274706 0.845277 0.166786
O O16 0.027515 0.842559 0.708935
O O17 0.250000 0.750000 0.000000
O O18 0.234129 0.829013 0.870002
O O19 0.500000 0.842707 0.250000
#
# Coordination Sequence:
#
# PCOD9301483 Si02
#       8
#     8   8   8   8   8   8   8   8
#     4  11  21  39  58  84 116 157 202 246 306 362
#     4  11  22  36  59  88 117 155 196 249 298 361
#     4  11  21  34  60  86 117 151 198 247 305 353
#     4  11  21  38  58  85 120 155 197 255 304 364
#     4  12  23  38  58  78 118 167 199 244 291 357
#     4  12  26  40  55  86 124 163 208 247 290 359
#     4  11  21  36  52  82 116 159 199 239 290 351
#     4  11  25  39  59  84 123 163 205 240 302 358
#
# _framework density 18.924014
#
# number of rings (size 3 to 8) (size 9 to 14) (size 15 to 20)
#    0.000    0.750    5.000    6.000    1.750    0.000 
#    0.000    0.000    0.000    0.000    0.000    1.750 
#    0.000    0.000    0.000    0.000    0.000    0.000 
#
# Total GULP energy -178561.587233 kJ/mol
# GULP energy per Si atom -5580.049601 kJ/mol
# Density = 1.888094 g / cm^3
# Si number density = 18.924014 Si / 1000 Ang^3
#
#
#
# Elastic Constant Matrix: (Units=GPa)
#
#
# Indices 1 2 3 4 5 6 
#
# 1 72.0046 3.3775 2.3825 0.0000 21.0154 0.0000
# 2 3.3775 50.9895 22.4877 0.0000 -3.4479 0.0000
# 3 2.3825 22.4877 71.4566 -0.0001 5.9336 -0.0001
# 4 0.0000 0.0000 -0.0001 35.6286 0.0000 -2.4893
# 5 21.0154 -3.4479 5.9336 0.0000 37.2599 0.0000
# 6 0.0000 0.0000 -0.0001 -2.4893 0.0000 18.9894
#
#
#
# Elastic Compliance Matrix: (Units=1/GPa)
#
#
# Indices 1 2 3 4 5 6 
#
# 1 0.016835 -0.002200 0.000949 0.000000 -0.009850 0.000000
# 2 -0.002200 0.023466 -0.007696 0.000000 0.004638 0.000000
# 3 0.000949 -0.007696 0.016710 0.000000 -0.003908 0.000000
# 4 0.000000 0.000000 0.000000 0.028327 0.000000 0.003713
# 5 -0.009850 0.004638 -0.003908 0.000000 0.033446 0.000000
# 6 0.000000 0.000000 0.000000 0.003713 0.000000 0.053148
#
#
# Mechanical properties :
#
#
# Convention : Reuss Voigt Hill
#
# Bulk Modulus (GPa) = 25.56558 27.88291 26.72425
# Shear Modulus (GPa) = 24.64724 29.45578 27.05151
#
# Velocity S-wave (km/s) = 3.61284 3.94957 3.78495
# Velocity P-wave (km/s) = 5.56259 5.96363 5.76660
#
# Compressibility (1/GPa) = 0.03911509
#
# Stress axis : x y z
#
# Youngs Moduli (GPa) = 59.40174 42.61571 59.84605
#
# Poissons Ratio (x) = 0.09374 -0.05678
# Poissons Ratio (y) = 0.13066 0.46060
# Poissons Ratio (z) = -0.05636 0.32799
#
# Static dielectric constant tensor:
#      x y z
#    x 1.740490 0.000000 -0.012410 
#    y 0.000000 1.659590 0.000000 
#    z -0.012410 0.000000 1.728130 
# 
# From -- ./inp_files/220422.got.cif
#   From: 2010.05.17/outbox.cif.g08.bks.cpg/sg15_111_cif.got.tgz:220422.got - 2010.06.03 18:47:42.
