data_PCOD9301386
_publ_section_title
;
Structure prediction by ZEFSAII (Michael W. Deem and Ramdas Pophale) SiO2 
 PCOD9301386
Probable space group: C 2/C
;
_chemical_formula_sum "Si O2"
_cell_formula_units_Z 36
_cell_length_a 13.768569
_cell_length_b 6.638290
_cell_length_c 23.210908
_cell_angle_alpha 90.000000
_cell_angle_beta 129.324940
_cell_angle_gamma 90.000000
_cell_volume 1641.094732
_symmetry_space_group_name_H-M "C 2/C"
_symmetry_group_IT_number 15
_symmetry_cell_setting 'monoclinic'
loop_
_space_group_symop_operation_xyz
x,y,z
-x,y,1/2-z
-x,-y,-z
x,-y,1/2+z
1/2+x,1/2+y,z
1/2-x,1/2+y,1/2-z
1/2-x,1/2-y,-z
1/2+x,1/2-y,1/2+z
loop_
_atom_site_type_symbol
_atom_site_label
_atom_site_fract_x
_atom_site_fract_y
_atom_site_fract_z
Si Si1 0.000000 0.825195 0.250000
Si Si2 0.427571 0.570673 0.415814
Si Si3 0.230284 0.565467 0.632754
Si Si4 0.945266 0.668238 0.351460
Si Si5 0.864314 0.610783 0.522603
O O1 0.120676 0.956406 0.313417
O O2 0.045093 0.693842 0.212847
O O3 0.500000 0.500000 0.500000
O O4 0.302506 0.696241 0.382754
O O5 0.417882 0.385167 0.369505
O O6 0.519096 0.740687 0.426287
O O7 0.167179 0.469903 0.665935
O O8 0.163932 0.457493 0.553429
O O9 0.081693 0.586443 0.424705
O O10 0.750000 0.750000 0.500000
#
# Coordination Sequence:
#
# PCOD9301386 Si02
#       5
#     4   8   8   8   8
#     4  12  30  44  70 104 148 200 224 270 368 448
#     4  11  20  42  78  98 130 178 234 307 345 397
#     4  11  25  47  68 107 139 184 243 288 353 424
#     4  11  25  48  70 102 145 182 237 296 353 418
#     4  11  23  42  73 108 133 177 246 298 350 412
#
# _framework density 21.936578000000001
#
# number of rings (size 3 to 8) (size 9 to 14) (size 15 to 20)
#    0.000    0.889    4.444    2.667    6.222    1.778 
#    0.000    5.556    0.000    0.000    0.000    0.000 
#    0.000    0.000    0.000    0.000    0.000    0.000 
#
# Total GULP energy -100519.847888 kJ/mol
# GULP energy per Si atom -5584.435994 kJ/mol
# Density = 2.188665 g / cm^3
# Si number density = 21.936578 Si / 1000 Ang^3
#
#
#
# Elastic Constant Matrix: (Units=GPa)
#
#
# Indices 1 2 3 4 5 6 
#
# 1 74.3242 25.1830 22.6986 0.0000 -1.1196 0.0000
# 2 25.1830 105.5739 18.1696 0.0000 0.2947 0.0000
# 3 22.6986 18.1696 59.4309 0.0000 5.5079 0.0000
# 4 0.0000 0.0000 0.0000 6.6467 0.0000 2.5676
# 5 -1.1196 0.2947 5.5079 0.0000 55.1942 0.0000
# 6 0.0000 0.0000 0.0000 2.5676 0.0000 27.9135
#
#
#
# Elastic Compliance Matrix: (Units=1/GPa)
#
#
# Indices 1 2 3 4 5 6 
#
# 1 0.016086 -0.002922 -0.005331 0.000000 0.000874 0.000000
# 2 -0.002922 0.010532 -0.002113 0.000000 0.000095 0.000000
# 3 -0.005331 -0.002113 0.019700 0.000000 -0.002063 0.000000
# 4 0.000000 0.000000 0.000000 0.155995 0.000000 -0.014349
# 5 0.000874 0.000095 -0.002063 0.000000 0.018341 0.000000
# 6 0.000000 0.000000 0.000000 -0.014349 0.000000 0.037145
#
#
# Mechanical properties :
#
#
# Convention : Reuss Voigt Hill
#
# Bulk Modulus (GPa) = 39.08466 41.27017 40.17741
# Shear Modulus (GPa) = 17.41800 29.50274 23.46037
#
# Velocity S-wave (km/s) = 2.82089 3.67128 3.27381
# Velocity P-wave (km/s) = 5.33532 6.06839 5.71362
#
# Compressibility (1/GPa) = 0.02558548
#
# Stress axis : x y z
#
# Youngs Moduli (GPa) = 62.16599 94.94526 50.76235
#
# Poissons Ratio (x) = 0.27742 0.27064
# Poissons Ratio (y) = 0.18164 0.10726
# Poissons Ratio (z) = 0.33143 0.20061
#
# Static dielectric constant tensor:
#      x y z
#    x 1.811750 0.000000 0.062750 
#    y 0.000000 1.909020 0.000000 
#    z 0.062750 0.000000 1.833140 
# 
# From -- ./inp_files/294345.got.cif
#   From: 2010.05.17/outbox.cif.g08.bks.cpg/sg15_148_cif.got.tgz:294345.got - 2010.06.03 18:47:42.
