data_PCOD9301994
_publ_section_title
;
Structure prediction by ZEFSAII (Michael W. Deem and Ramdas Pophale) SiO2 
 PCOD9301994
Probable space group: C 2/C
;
_chemical_formula_sum "Si O2"
_cell_formula_units_Z 56
_cell_length_a 14.211469
_cell_length_b 7.732194
_cell_length_c 18.537348
_cell_angle_alpha 90.000000
_cell_angle_beta 103.601315
_cell_angle_gamma 90.000000
_cell_volume 1979.865759
_symmetry_space_group_name_H-M "C 2/C"
_symmetry_group_IT_number 15
_symmetry_cell_setting 'monoclinic'
loop_
_space_group_symop_operation_xyz
x,y,z
-x,y,1/2-z
-x,-y,-z
x,-y,1/2+z
1/2+x,1/2+y,z
1/2-x,1/2+y,1/2-z
1/2-x,1/2-y,-z
1/2+x,1/2-y,1/2+z
loop_
_atom_site_type_symbol
_atom_site_label
_atom_site_fract_x
_atom_site_fract_y
_atom_site_fract_z
Si Si1 0.972340 0.018260 0.825356
Si Si2 0.272258 0.221392 0.410567
Si Si3 0.000588 0.579148 0.332033
Si Si4 0.418489 0.682647 0.034602
Si Si5 0.294459 0.184911 0.144145
Si Si6 0.613106 0.872231 0.067497
Si Si7 0.775601 0.914596 0.273392
O O1 0.034883 0.957763 0.903678
O O2 0.000000 0.960705 0.750000
O O3 0.960551 0.225190 0.821299
O O4 0.863372 0.958165 0.811972
O O5 0.350355 0.360199 0.454639
O O6 0.167643 0.250869 0.427115
O O7 0.265068 0.249039 0.324340
O O8 0.325709 0.043958 0.443897
O O9 0.108678 0.631650 0.381889
O O10 0.000000 0.514184 0.250000
O O11 0.936868 0.447953 0.367426
O O12 0.511232 0.790760 0.020578
O O13 0.198698 0.229698 0.081623
O O14 0.294604 0.357685 0.195198
O O15 0.304313 0.036504 0.206886
#
# Coordination Sequence:
#
# PCOD9301994 Si02
#       7
#     8   8   8   8   8   8   8
#     4  11  22  42  65  96 133 173 221 285 348 404
#     4  11  25  46  69  96 142 182 236 289 335 416
#     4  11  21  41  63  96 137 172 219 284 342 403
#     4  11  26  45  68 102 134 186 236 283 347 410
#     4  12  24  40  69 104 135 176 233 279 353 412
#     4  12  24  44  71  99 138 186 226 289 345 404
#     4  12  23  42  65  99 137 177 220 289 342 407
#
# _framework density 28.284745000000001
#
# number of rings (size 3 to 8) (size 9 to 14) (size 15 to 20)
#    0.000    0.571    5.714    3.857    2.000    1.143 
#    0.000    0.000    0.000    6.000    0.000    0.000 
#    0.000    0.000    0.000    0.000    0.000    0.000 
#
# Total GULP energy -156023.885003 kJ/mol
# GULP energy per Si atom -5572.281607 kJ/mol
# Density = 2.822037 g / cm^3
# Si number density = 28.284745 Si / 1000 Ang^3
#
#
#
# Elastic Constant Matrix: (Units=GPa)
#
#
# Indices 1 2 3 4 5 6 
#
# 1 200.1917 30.2390 20.6503 0.0000 22.8310 0.0000
# 2 30.2390 99.4302 13.1054 0.0000 5.7088 0.0000
# 3 20.6503 13.1054 39.9689 0.0000 6.5715 0.0000
# 4 0.0000 0.0000 0.0000 21.0845 0.0000 -19.6254
# 5 22.8310 5.7088 6.5715 0.0000 56.5828 0.0000
# 6 0.0000 0.0000 0.0000 -19.6254 0.0000 8.4773
#
#
#
# Elastic Compliance Matrix: (Units=1/GPa)
#
#
# Indices 1 2 3 4 5 6 
#
# 1 0.005633 -0.001319 -0.002168 0.000000 -0.001888 0.000000
# 2 -0.001319 0.010846 -0.002836 0.000000 -0.000233 0.000000
# 3 -0.002168 -0.002836 0.027402 0.000000 -0.002022 0.000000
# 4 0.000000 0.000000 0.000000 -0.041068 0.000000 -0.095076
# 5 -0.001888 -0.000233 -0.002022 0.000000 0.018693 0.000000
# 6 0.000000 0.000000 0.000000 -0.095076 0.000000 -0.102144
#
#
# Mechanical properties :
#
#
# Convention : Reuss Voigt Hill
#
# Bulk Modulus (GPa) = 32.01574 51.95334 41.98454
# Shear Modulus (GPa) = -86.83474 35.60198 -25.61638
#
# Velocity S-wave (km/s) = -5.54679 3.55166 -3.01268
# Velocity P-wave (km/s) = 5.44783 5.93523 1.66555
#
# Compressibility (1/GPa) = 0.03123464
#
# Stress axis : x y z
#
# Youngs Moduli (GPa) = 177.51265 92.20250 36.49403
#
# Poissons Ratio (x) = 0.12163 0.07910
# Poissons Ratio (y) = 0.23416 0.10351
# Poissons Ratio (z) = 0.38477 0.26152
#
# Static dielectric constant tensor:
#      x y z
#    x 2.293340 0.000000 0.006880 
#    y 0.000000 2.322180 0.000000 
#    z 0.006880 0.000000 2.334040 
# 
# From -- ./inp_files/272827.got.cif
#   From: 2010.05.17/outbox.cif.g08.bks.cpg/sg15_137_cif.got.tgz:272827.got - 2010.06.03 18:47:42.
