data_PCOD9301046
_publ_section_title
;
Structure prediction by ZEFSAII (Michael W. Deem and Ramdas Pophale) SiO2 
 PCOD9301046
Probable space group: C 2/C
;
_chemical_formula_sum "Si O2"
_cell_formula_units_Z 52
_cell_length_a 12.562748
_cell_length_b 8.975330
_cell_length_c 26.766838
_cell_angle_alpha 90.000000
_cell_angle_beta 54.257248
_cell_angle_gamma 90.000000
_cell_volume 2449.626124
_symmetry_space_group_name_H-M "C 2/C"
_symmetry_group_IT_number 15
_symmetry_cell_setting 'monoclinic'
loop_
_space_group_symop_operation_xyz
x,y,z
-x,y,1/2-z
-x,-y,-z
x,-y,1/2+z
1/2+x,1/2+y,z
1/2-x,1/2+y,1/2-z
1/2-x,1/2-y,-z
1/2+x,1/2-y,1/2+z
loop_
_atom_site_type_symbol
_atom_site_label
_atom_site_fract_x
_atom_site_fract_y
_atom_site_fract_z
Si Si1 0.315874 0.249606 0.927784
Si Si2 0.000000 0.025222 0.750000
Si Si3 0.582011 0.404347 0.828680
Si Si4 0.501967 0.629533 0.926249
Si Si5 0.905564 0.562768 0.069021
Si Si6 0.749153 0.208111 0.849585
Si Si7 0.293837 0.546334 0.057542
O O1 0.459246 0.315705 0.885544
O O2 0.221420 0.352225 0.919501
O O3 0.319842 0.075261 0.913062
O O4 0.250000 0.250000 0.000000
O O5 0.887710 0.130064 0.803551
O O6 0.933545 0.922474 0.725853
O O7 0.556334 0.566535 0.859639
O O8 0.707845 0.319629 0.816059
O O9 0.517130 0.805723 0.924667
O O10 0.597354 0.546246 0.940137
O O11 0.358217 0.584334 0.986215
O O12 0.854311 0.426276 0.115752
O O13 0.000000 0.500000 0.000000
O O14 0.740395 0.306436 0.902393
#
# Coordination Sequence:
#
# PCOD9301046 Si02
#       7
#     8   4   8   8   8   8   8
#     4  11  20  37  65 103 139 173 212 282 354 413
#     4  12  28  52  68  94 142 186 244 288 332 410
#     4  11  24  47  70  93 135 185 230 283 348 410
#     4   9  18  35  66  97 135 172 204 278 351 400
#     4  11  20  36  66 103 139 171 220 281 352 418
#     4  11  24  47  70  95 133 182 229 287 343 419
#     4   9  18  36  63  99 135 165 214 272 346 414
#
# _framework density 21.227727999999999
#
# number of rings (size 3 to 8) (size 9 to 14) (size 15 to 20)
#    0.000    1.538    4.615    0.923    0.000    1.231 
#   11.077    2.308    0.000    0.000    0.000    0.000 
#    0.000    0.000    0.000    0.000    0.000    0.000 
#
# Total GULP energy -145217.514777 kJ/mol
# GULP energy per Si atom -5585.289030 kJ/mol
# Density = 2.117941 g / cm^3
# Si number density = 21.227728 Si / 1000 Ang^3
#
#
#
# Elastic Constant Matrix: (Units=GPa)
#
#
# Indices 1 2 3 4 5 6 
#
# 1 30.9867 10.6007 -1.8770 0.0000 3.0479 0.0000
# 2 10.6007 121.0335 27.7256 0.0000 -0.5701 0.0000
# 3 -1.8770 27.7256 34.6412 0.0000 3.9669 0.0000
# 4 0.0000 0.0000 0.0000 12.9093 0.0000 -2.1035
# 5 3.0479 -0.5701 3.9669 0.0000 40.3233 0.0000
# 6 0.0000 0.0000 0.0000 -2.1035 0.0000 34.1830
#
#
#
# Elastic Compliance Matrix: (Units=1/GPa)
#
#
# Indices 1 2 3 4 5 6 
#
# 1 0.034418 -0.004337 0.005705 0.000000 -0.003224 0.000000
# 2 -0.004337 0.010700 -0.008954 0.000000 0.001360 0.000000
# 3 0.005705 -0.008954 0.036822 0.000000 -0.004180 0.000000
# 4 0.000000 0.000000 0.000000 0.078248 0.000000 0.004815
# 5 -0.003224 0.001360 -0.004180 0.000000 0.025474 0.000000
# 6 0.000000 0.000000 0.000000 0.004815 0.000000 0.029551
#
#
# Mechanical properties :
#
#
# Convention : Reuss Voigt Hill
#
# Bulk Modulus (GPa) = 14.97729 28.84001 21.90865
# Shear Modulus (GPa) = 19.79101 27.49726 23.64413
#
# Velocity S-wave (km/s) = 3.05670 3.60300 3.34103
# Velocity P-wave (km/s) = 4.41913 5.56096 5.02260
#
# Compressibility (1/GPa) = 0.06676776
#
# Stress axis : x y z
#
# Youngs Moduli (GPa) = 29.05443 93.46153 27.15781
#
# Poissons Ratio (x) = 0.40530 -0.15493
# Poissons Ratio (y) = 0.12600 0.24318
# Poissons Ratio (z) = -0.16575 0.83688
#
# Static dielectric constant tensor:
#      x y z
#    x 1.829580 0.000000 0.026070 
#    y 0.000000 1.790890 0.000000 
#    z 0.026070 0.000000 1.745960 
# 
# From -- ./inp_files/295041.got.cif
#   From: 2010.05.17/outbox.cif.g08.bks.cpg/sg15_148_cif.got.tgz:295041.got - 2010.06.03 18:47:42.
