data_PCOD9301009
_publ_section_title
;
Structure prediction by ZEFSAII (Michael W. Deem and Ramdas Pophale) SiO2 
 PCOD9301009
Probable space group: C 2/C
;
_chemical_formula_sum "Si O2"
_cell_formula_units_Z 52
_cell_length_a 20.977038
_cell_length_b 18.837362
_cell_length_c 11.942135
_cell_angle_alpha 90.000000
_cell_angle_beta 143.233911
_cell_angle_gamma 90.000000
_cell_volume 2824.531035
_symmetry_space_group_name_H-M "C 2/C"
_symmetry_group_IT_number 15
_symmetry_cell_setting 'monoclinic'
loop_
_space_group_symop_operation_xyz
x,y,z
-x,y,1/2-z
-x,-y,-z
x,-y,1/2+z
1/2+x,1/2+y,z
1/2-x,1/2+y,1/2-z
1/2-x,1/2-y,-z
1/2+x,1/2-y,1/2+z
loop_
_atom_site_type_symbol
_atom_site_label
_atom_site_fract_x
_atom_site_fract_y
_atom_site_fract_z
Si Si1 0.383684 0.971061 0.267531
Si Si2 0.890628 0.762009 0.811432
Si Si3 0.653727 0.802429 0.008088
Si Si4 0.500000 0.070356 0.250000
Si Si5 0.801455 0.644597 0.518201
Si Si6 0.618927 0.250751 0.220093
Si Si7 0.103367 0.398133 0.582915
O O1 0.293521 0.923226 0.087293
O O2 0.478512 0.915205 0.428725
O O3 0.441944 0.020541 0.257669
O O4 0.347313 0.026202 0.310820
O O5 0.858506 0.730440 0.886826
O O6 0.861406 0.707318 0.670511
O O7 0.813515 0.828059 0.681049
O O8 0.016041 0.774789 0.004959
O O9 0.779536 0.799995 0.159070
O O10 0.592839 0.877232 0.923580
O O11 0.604829 0.758080 0.834032
O O12 0.869890 0.621539 0.506413
O O13 0.638841 0.169274 0.206405
#
# Coordination Sequence:
#
# PCOD9301009 Si02
#       7
#     8   8   8   4   8   8   8
#     4  11  22  34  59  86 122 155 196 257 308 359
#     4  11  22  38  58  87 130 160 205 252 299 374
#     4  11  22  35  57  89 122 160 208 253 306 354
#     4  12  20  36  56  90 116 144 202 256 300 360
#     4  11  23  36  58  90 121 164 196 247 316 358
#     4  11  21  37  59  86 125 164 200 253 306 357
#     4  11  20  36  55  88 122 154 195 251 310 360
#
# _framework density 18.410136000000001
#
# number of rings (size 3 to 8) (size 9 to 14) (size 15 to 20)
#    0.000    0.923    7.692    0.000    2.154    0.000 
#    0.000    0.000    0.000    0.923    0.000    0.000 
#    0.000    0.000    0.000    0.000    0.000    0.000 
#
# Total GULP energy -145016.558850 kJ/mol
# GULP energy per Si atom -5577.559956 kJ/mol
# Density = 1.836823 g / cm^3
# Si number density = 18.410136 Si / 1000 Ang^3
#
#
#
# Elastic Constant Matrix: (Units=GPa)
#
#
# Indices 1 2 3 4 5 6 
#
# 1 67.9680 29.9861 31.6322 0.0000 -9.7591 0.0000
# 2 29.9861 77.6978 43.8896 0.0000 3.0374 0.0000
# 3 31.6322 43.8896 124.0168 0.0000 6.2628 0.0000
# 4 0.0000 0.0000 0.0000 40.7998 0.0000 -4.2822
# 5 -9.7591 3.0374 6.2628 0.0000 33.1841 0.0000
# 6 0.0000 0.0000 0.0000 -4.2822 0.0000 25.9312
#
#
#
# Elastic Compliance Matrix: (Units=1/GPa)
#
#
# Indices 1 2 3 4 5 6 
#
# 1 0.019952 -0.006124 -0.003278 0.000000 0.007047 0.000000
# 2 -0.006124 0.017971 -0.004668 0.000000 -0.002565 0.000000
# 3 -0.003278 -0.004668 0.010680 0.000000 -0.002552 0.000000
# 4 0.000000 0.000000 0.000000 0.024942 0.000000 0.004119
# 5 0.007047 -0.002565 -0.002552 0.000000 0.032924 0.000000
# 6 0.000000 0.000000 0.000000 0.004119 0.000000 0.039244
#
#
# Mechanical properties :
#
#
# Convention : Reuss Voigt Hill
#
# Bulk Modulus (GPa) = 48.86799 53.41095 51.13947
# Shear Modulus (GPa) = 27.67408 30.92798 29.30103
#
# Velocity S-wave (km/s) = 3.88132 4.10316 3.99378
# Velocity P-wave (km/s) = 6.83285 7.17792 7.00751
#
# Compressibility (1/GPa) = 0.02046329
#
# Stress axis : x y z
#
# Youngs Moduli (GPa) = 50.12090 55.64452 93.62900
#
# Poissons Ratio (x) = 0.34077 0.30687
# Poissons Ratio (y) = 0.30695 0.43710
# Poissons Ratio (z) = 0.16427 0.25977
#
# Static dielectric constant tensor:
#      x y z
#    x 1.663310 0.000000 -0.035280 
#    y 0.000000 1.642560 0.000000 
#    z -0.035280 0.000000 1.708100 
# 
# From -- ./inp_files/113711.got.cif
#   From: 2010.05.17/outbox.cif.g08.bks.cpg/sg15_57_cif.got.tgz:113711.got - 2010.06.03 18:47:42.
