data_PCOD9301202
_publ_section_title
;
Structure prediction by ZEFSAII (Michael W. Deem and Ramdas Pophale) SiO2 
 PCOD9301202
Probable space group: C 2/C
;
_chemical_formula_sum "Si O2"
_cell_formula_units_Z 48
_cell_length_a 8.901737
_cell_length_b 20.109708
_cell_length_c 15.979786
_cell_angle_alpha 90.000000
_cell_angle_beta 121.170349
_cell_angle_gamma 90.000000
_cell_volume 2447.589700
_symmetry_space_group_name_H-M "C 2/C"
_symmetry_group_IT_number 15
_symmetry_cell_setting 'monoclinic'
loop_
_space_group_symop_operation_xyz
x,y,z
-x,y,1/2-z
-x,-y,-z
x,-y,1/2+z
1/2+x,1/2+y,z
1/2-x,1/2+y,1/2-z
1/2-x,1/2-y,-z
1/2+x,1/2-y,1/2+z
loop_
_atom_site_type_symbol
_atom_site_label
_atom_site_fract_x
_atom_site_fract_y
_atom_site_fract_z
Si Si1 0.291496 0.931273 0.679985
Si Si2 0.967335 0.714634 0.996644
Si Si3 0.878075 0.060885 0.793218
Si Si4 0.594751 0.169073 0.688835
Si Si5 0.342349 0.202879 0.272988
Si Si6 0.138987 0.855344 0.482752
O O1 0.500000 0.943848 0.750000
O O2 0.252496 0.867268 0.726861
O O3 0.239200 0.906483 0.572314
O O4 0.187021 0.995910 0.677502
O O5 0.939051 0.793993 0.986181
O O6 0.082229 0.701447 0.111763
O O7 0.028191 0.683189 0.926822
O O8 0.779182 0.680169 0.962103
O O9 0.712556 0.103541 0.713307
O O10 0.000000 0.043292 0.750000
O O11 0.989718 0.108260 0.887012
O O12 0.500000 0.164327 0.750000
O O13 0.720604 0.233445 0.727705
O O14 0.500000 0.208703 0.250000
#
# Coordination Sequence:
#
# PCOD9301202 Si02
#       6
#     8   8   8   8   8   8
#     4  11  23  42  65  97 133 173 212 270 322 388
#     4  11  20  38  72 102 121 165 220 271 325 388
#     4  12  25  43  64  93 132 180 221 262 324 393
#     4  12  25  41  64  97 137 170 216 275 323 383
#     4  11  20  41  70  97 128 168 215 270 326 391
#     4  11  20  39  72  98 125 164 225 267 324 394
#
# _framework density 19.611128999999998
#
# number of rings (size 3 to 8) (size 9 to 14) (size 15 to 20)
#    0.000    0.667    8.333    2.500    0.000    1.333 
#    0.000    5.000    0.000    0.000    0.000    0.000 
#    0.000    0.000    0.000    0.000    0.000    0.000 
#
# Total GULP energy -134135.254981 kJ/mol
# GULP energy per Si atom -5588.968958 kJ/mol
# Density = 1.956649 g / cm^3
# Si number density = 19.611129 Si / 1000 Ang^3
#
#
#
# Elastic Constant Matrix: (Units=GPa)
#
#
# Indices 1 2 3 4 5 6 
#
# 1 35.8790 25.9276 12.7624 0.0000 -16.3308 0.0000
# 2 25.9276 109.8770 13.4409 0.0000 -2.1149 0.0000
# 3 12.7624 13.4409 125.2909 0.0000 -12.6958 0.0000
# 4 0.0000 0.0000 0.0000 17.5057 0.0000 -11.0699
# 5 -16.3308 -2.1149 -12.6958 0.0000 25.7174 0.0000
# 6 0.0000 0.0000 0.0000 -11.0699 0.0000 15.9005
#
#
#
# Elastic Compliance Matrix: (Units=1/GPa)
#
#
# Indices 1 2 3 4 5 6 
#
# 1 0.050080 -0.011131 -0.000818 0.000000 0.030482 0.000000
# 2 -0.011131 0.011698 -0.000779 0.000000 -0.006490 0.000000
# 3 -0.000818 -0.000779 0.008515 0.000000 0.003620 0.000000
# 4 0.000000 0.000000 0.000000 0.102053 0.000000 0.071049
# 5 0.030482 -0.006490 0.003620 0.000000 0.059494 0.000000
# 6 0.000000 0.000000 0.000000 0.071049 0.000000 0.112356
#
#
# Mechanical properties :
#
#
# Convention : Reuss Voigt Hill
#
# Bulk Modulus (GPa) = 22.30272 41.70097 32.00185
# Shear Modulus (GPa) = 13.00061 26.41911 19.70986
#
# Velocity S-wave (km/s) = 2.57752 3.67433 3.17367
# Velocity P-wave (km/s) = 4.50059 6.26985 5.45740
#
# Compressibility (1/GPa) = 0.04483758
#
# Stress axis : x y z
#
# Youngs Moduli (GPa) = 19.96795 85.48547 117.43777
#
# Poissons Ratio (x) = 0.95150 0.09612
# Poissons Ratio (y) = 0.22225 0.09146
# Poissons Ratio (z) = 0.01634 0.06658
#
# Static dielectric constant tensor:
#      x y z
#    x 1.690280 0.000000 0.005430 
#    y 0.000000 1.661580 0.000000 
#    z 0.005430 0.000000 1.738900 
# 
# From -- ./inp_files/136198.got.cif
#   From: 2010.05.17/outbox.cif.g08.bks.cpg/sg15_69_cif.got.tgz:136198.got - 2010.06.03 18:47:42.
