data_PCOD9301090
_publ_section_title
;
Structure prediction by ZEFSAII (Michael W. Deem and Ramdas Pophale) SiO2 
 PCOD9301090
Probable space group: C 2/C
;
_chemical_formula_sum "Si O2"
_cell_formula_units_Z 48
_cell_length_a 18.591664
_cell_length_b 17.661491
_cell_length_c 14.138925
_cell_angle_alpha 90.000000
_cell_angle_beta 30.428597
_cell_angle_gamma 90.000000
_cell_volume 2351.314718
_symmetry_space_group_name_H-M "C 2/C"
_symmetry_group_IT_number 15
_symmetry_cell_setting 'monoclinic'
loop_
_space_group_symop_operation_xyz
x,y,z
-x,y,1/2-z
-x,-y,-z
x,-y,1/2+z
1/2+x,1/2+y,z
1/2-x,1/2+y,1/2-z
1/2-x,1/2-y,-z
1/2+x,1/2-y,1/2+z
loop_
_atom_site_type_symbol
_atom_site_label
_atom_site_fract_x
_atom_site_fract_y
_atom_site_fract_z
Si Si1 0.283204 0.100105 0.352175
Si Si2 0.919704 0.591968 0.001537
Si Si3 0.126627 0.772219 0.272677
Si Si4 0.353645 0.181870 0.651444
Si Si5 0.000000 0.476313 0.750000
Si Si6 0.358253 0.249498 0.962203
Si Si7 0.500000 0.627961 0.750000
O O1 0.303987 0.190903 0.327095
O O2 0.124807 0.080234 0.561436
O O3 0.390377 0.070595 0.310555
O O4 0.315697 0.075885 0.207322
O O5 0.885945 0.668729 0.981143
O O6 0.065656 0.610645 0.893907
O O7 0.928160 0.528706 0.912021
O O8 0.260349 0.820749 0.162087
O O9 0.067572 0.818248 0.252323
O O10 0.981456 0.744995 0.495116
O O11 0.224776 0.203161 0.866121
O O12 0.500000 0.277276 0.750000
O O13 0.250000 0.250000 0.000000
#
# Coordination Sequence:
#
# PCOD9301090 Si02
#       7
#     8   8   8   8   4   8   4
#     4  11  25  40  68  92 129 171 214 270 315 383
#     4  11  23  43  65  95 129 171 223 264 308 390
#     4  11  21  38  64  99 131 158 202 266 341 384
#     4  11  20  37  63  96 133 160 202 269 336 378
#     4  12  25  46  66  88 123 184 236 248 300 394
#     4  12  19  33  60  92 128 162 203 263 326 373
#     4  12  23  40  62 100 133 160 210 272 336 382
#
# _framework density 20.414110000000001
#
# number of rings (size 3 to 8) (size 9 to 14) (size 15 to 20)
#    0.000    0.667    7.500    1.500    4.667    0.000 
#    0.000    0.833   11.000    0.000    0.000    0.000 
#    0.000    0.000    0.000    0.000    0.000    0.000 
#
# Total GULP energy -133748.103996 kJ/mol
# GULP energy per Si atom -5572.837667 kJ/mol
# Density = 2.036765 g / cm^3
# Si number density = 20.414110 Si / 1000 Ang^3
#
#
#
# Elastic Constant Matrix: (Units=GPa)
#
#
# Indices 1 2 3 4 5 6 
#
# 1 134.8002 14.3518 16.1003 -0.0003 -6.2536 0.0002
# 2 14.3518 16.8300 0.0941 -0.0003 11.6475 0.0003
# 3 16.1003 0.0941 153.9299 -0.0008 7.9863 0.0005
# 4 -0.0003 -0.0003 -0.0008 10.8932 0.0003 -7.7452
# 5 -6.2536 11.6475 7.9863 0.0003 36.3157 -0.0002
# 6 0.0002 0.0003 0.0005 -7.7452 -0.0002 24.0353
#
#
#
# Elastic Compliance Matrix: (Units=1/GPa)
#
#
# Indices 1 2 3 4 5 6 
#
# 1 0.009049 -0.011536 -0.001226 0.000000 0.005528 0.000000
# 2 -0.011536 0.091308 0.002805 0.000003 -0.031889 0.000000
# 3 -0.001226 0.002805 0.006758 0.000001 -0.002597 0.000000
# 4 0.000000 0.000003 0.000001 0.119085 -0.000002 0.038374
# 5 0.005528 -0.031889 -0.002597 -0.000002 0.039287 0.000000
# 6 0.000000 0.000000 0.000000 0.038374 0.000000 0.053971
#
#
# Mechanical properties :
#
#
# Convention : Reuss Voigt Hill
#
# Bulk Modulus (GPa) = 11.46766 40.73916 26.10341
# Shear Modulus (GPa) = 13.57075 32.58311 23.07693
#
# Velocity S-wave (km/s) = 2.58112 3.99947 3.36585
# Velocity P-wave (km/s) = 3.80954 6.42863 5.28393
#
# Compressibility (1/GPa) = 0.08720178
#
# Stress axis : x y z
#
# Youngs Moduli (GPa) = 110.50358 10.95193 147.97815
#
# Poissons Ratio (x) = 0.12634 0.18146
# Poissons Ratio (y) = 1.27474 -0.41512
# Poissons Ratio (z) = 0.13551 -0.03072
#
# Static dielectric constant tensor:
#      x y z
#    x 1.639990 0.000000 -0.012780 
#    y 0.000000 1.731760 0.000000 
#    z -0.012780 0.000000 1.760150 
# 
# From -- ./inp_files/40725.got.cif
#   From: 2010.05.17/outbox.cif.g08.bks.cpg/sg15_21_cif.got.tgz:40725.got - 2010.06.03 18:47:42.
