data_PCOD9301071
_publ_section_title
;
Structure prediction by ZEFSAII (Michael W. Deem and Ramdas Pophale) SiO2 
 PCOD9301071
Probable space group: C 2/C
;
_chemical_formula_sum "Si O2"
_cell_formula_units_Z 64
_cell_length_a 8.788788
_cell_length_b 20.008161
_cell_length_c 18.920555
_cell_angle_alpha 90.000000
_cell_angle_beta 95.849131
_cell_angle_gamma 90.000000
_cell_volume 3309.809928
_symmetry_space_group_name_H-M "C 2/C"
_symmetry_group_IT_number 15
_symmetry_cell_setting 'monoclinic'
loop_
_space_group_symop_operation_xyz
x,y,z
-x,y,1/2-z
-x,-y,-z
x,-y,1/2+z
1/2+x,1/2+y,z
1/2-x,1/2+y,1/2-z
1/2-x,1/2-y,-z
1/2+x,1/2-y,1/2+z
loop_
_atom_site_type_symbol
_atom_site_label
_atom_site_fract_x
_atom_site_fract_y
_atom_site_fract_z
Si Si1 0.182325 0.312797 0.768709
Si Si2 0.122719 0.889145 0.606465
Si Si3 0.877577 0.113802 0.554761
Si Si4 0.306255 0.420894 0.674791
Si Si5 0.841192 0.161895 0.701369
Si Si6 0.821629 0.460199 0.244183
Si Si7 0.664307 0.987458 0.538806
Si Si8 0.809017 0.958637 0.408646
O O1 0.262183 0.344506 0.841960
O O2 0.260743 0.351814 0.708371
O O3 0.207856 0.233558 0.771467
O O4 0.000000 0.323911 0.750000
O O5 0.099007 0.862149 0.524995
O O6 0.966976 0.907331 0.642468
O O7 0.196462 0.961538 0.597242
O O8 0.863717 0.166429 0.617643
O O9 0.020654 0.068173 0.584546
O O10 0.740953 0.060144 0.550461
O O11 0.288522 0.478915 0.734412
O O12 0.183999 0.448084 0.612272
O O13 0.720321 0.102946 0.709332
O O14 0.000000 0.143934 0.750000
O O15 0.781365 0.435238 0.163621
O O16 0.000000 0.480415 0.250000
O O17 0.748292 0.943442 0.483243
O O18 0.500000 0.000000 0.500000
#
# Coordination Sequence:
#
# PCOD9301071 Si02
#       8
#     8   8   8   8   8   8   8   8
#     4  11  27  42  62  93 128 171 218 273 318 377
#     4  11  22  39  65  92 128 165 214 257 316 396
#     4  11  21  40  66  93 124 170 211 255 326 390
#     4  12  22  40  65  99 126 169 211 263 329 382
#     4  11  24  45  66  88 129 175 219 263 320 389
#     4  12  24  37  65  99 128 164 213 268 320 377
#     4  11  22  34  61 101 135 159 200 274 324 377
#     4  11  20  37  60  97 130 159 205 256 315 385
#
# _framework density 19.336456999999999
#
# number of rings (size 3 to 8) (size 9 to 14) (size 15 to 20)
#    0.000    0.750    6.250    2.250    3.500    1.500 
#    0.000    0.000    0.000    3.750    0.000    0.000 
#    0.000    0.000    0.000    0.000    0.000    0.000 
#
# Total GULP energy -178467.342547 kJ/mol
# GULP energy per Si atom -5577.104455 kJ/mol
# Density = 1.929245 g / cm^3
# Si number density = 19.336457 Si / 1000 Ang^3
#
#
#
# Elastic Constant Matrix: (Units=GPa)
#
#
# Indices 1 2 3 4 5 6 
#
# 1 70.4092 27.9047 25.1503 0.0000 14.6949 0.0000
# 2 27.9047 72.1945 26.3202 0.0000 -14.0516 0.0000
# 3 25.1503 26.3202 124.4777 0.0000 -0.7844 0.0000
# 4 0.0000 0.0000 0.0000 13.4615 0.0000 13.8466
# 5 14.6949 -14.0516 -0.7844 0.0000 29.8985 0.0000
# 6 0.0000 0.0000 0.0000 13.8466 0.0000 -16.5550
#
#
#
# Elastic Compliance Matrix: (Units=1/GPa)
#
#
# Indices 1 2 3 4 5 6 
#
# 1 0.022989 -0.011264 -0.002368 0.000000 -0.016655 0.000000
# 2 -0.011264 0.022136 -0.002305 0.000000 0.015879 0.000000
# 3 -0.002368 -0.002305 0.009001 0.000000 0.000317 0.000000
# 4 0.000000 0.000000 0.000000 0.039932 0.000000 0.033399
# 5 -0.016655 0.015879 0.000317 0.000000 0.049103 0.000000
# 6 0.000000 0.000000 0.000000 0.033399 0.000000 -0.032470
#
#
# Mechanical properties :
#
#
# Convention : Reuss Voigt Hill
#
# Bulk Modulus (GPa) = 44.93800 47.31463 46.12631
# Shear Modulus (GPa) = 33.33751 17.87475 25.60613
#
# Velocity S-wave (km/s) = 4.15670 3.04370 3.64296
# Velocity P-wave (km/s) = 6.80647 6.07243 6.44990
#
# Compressibility (1/GPa) = 0.02225288
#
# Stress axis : x y z
#
# Youngs Moduli (GPa) = 43.49998 45.17533 111.09475
#
# Poissons Ratio (x) = 0.50884 0.26308
# Poissons Ratio (y) = 0.48997 0.25604
# Poissons Ratio (z) = 0.10301 0.10411
#
# Static dielectric constant tensor:
#      x y z
#    x 10.617480 0.000000 2.067610 
#    y 0.000000 1.621870 0.000000 
#    z 2.067610 0.000000 2.248090 
# 
# From -- ./inp_files/192154.got.cif
#   From: 2010.05.17/outbox.cif.g08.bks.cpg/sg15_97_cif.got.tgz:192154.got - 2010.06.03 18:47:42.
