data_PCOD9301623
_publ_section_title
;
Structure prediction by ZEFSAII (Michael W. Deem and Ramdas Pophale) SiO2 
 PCOD9301623
Probable space group: C 2/C
;
_chemical_formula_sum "Si O2"
_cell_formula_units_Z 64
_cell_length_a 17.054391
_cell_length_b 14.717373
_cell_length_c 15.932839
_cell_angle_alpha 90.000000
_cell_angle_beta 121.671712
_cell_angle_gamma 90.000000
_cell_volume 3403.495551
_symmetry_space_group_name_H-M "C 2/C"
_symmetry_group_IT_number 15
_symmetry_cell_setting 'monoclinic'
loop_
_space_group_symop_operation_xyz
x,y,z
-x,y,1/2-z
-x,-y,-z
x,-y,1/2+z
1/2+x,1/2+y,z
1/2-x,1/2+y,1/2-z
1/2-x,1/2-y,-z
1/2+x,1/2-y,1/2+z
loop_
_atom_site_type_symbol
_atom_site_label
_atom_site_fract_x
_atom_site_fract_y
_atom_site_fract_z
Si Si1 0.299635 0.685265 0.094549
Si Si2 0.935216 0.845321 0.093655
Si Si3 0.890463 0.052122 0.019873
Si Si4 0.749259 0.056680 0.784923
Si Si5 0.422611 0.178360 0.760626
Si Si6 0.857242 0.815607 0.225291
Si Si7 0.736424 0.854466 0.737702
Si Si8 0.559184 0.690705 0.087041
O O1 0.334349 0.596894 0.065135
O O2 0.387024 0.738346 0.182601
O O3 0.234071 0.665736 0.137053
O O4 0.250000 0.750000 0.000000
O O5 0.866394 0.818301 0.129932
O O6 0.039317 0.831912 0.183518
O O7 0.919740 0.950627 0.060421
O O8 0.925761 0.789872 0.002306
O O9 0.978544 0.116622 0.052457
O O10 0.826360 0.051740 0.901303
O O11 0.666805 0.119857 0.770179
O O12 0.794930 0.104534 0.729724
O O13 0.710767 0.957300 0.743284
O O14 0.500000 0.128722 0.750000
O O15 0.460687 0.221070 0.868004
O O16 0.818243 0.721682 0.241200
O O17 0.844064 0.846745 0.823801
#
# Coordination Sequence:
#
# PCOD9301623 Si02
#       8
#     8   8   8   8   8   8   8   8
#     4  11  21  38  64  95 125 161 208 263 330 372
#     4  11  24  39  62  95 126 164 212 262 314 371
#     4  12  21  37  67  97 124 159 211 278 317 376
#     4  12  22  43  64  93 129 166 210 259 323 374
#     4  11  23  39  62  90 126 168 209 263 310 385
#     4  11  23  42  62  90 131 168 203 261 317 375
#     4  11  24  40  62  92 128 170 206 257 319 385
#     4  11  21  37  63  92 122 158 206 262 320 367
#
# _framework density 18.804196999999998
#
# number of rings (size 3 to 8) (size 9 to 14) (size 15 to 20)
#    0.000    0.750    7.500    1.875    0.000    3.500 
#    2.250    0.000    0.000    1.500    0.000    0.000 
#    0.000    0.000    0.000    0.000    0.000    0.000 
#
# Total GULP energy -178781.115531 kJ/mol
# GULP energy per Si atom -5586.909860 kJ/mol
# Density = 1.876140 g / cm^3
# Si number density = 18.804197 Si / 1000 Ang^3
#
#
#
# Elastic Constant Matrix: (Units=GPa)
#
#
# Indices 1 2 3 4 5 6 
#
# 1 122.2589 53.8394 51.2217 0.0000 -25.6809 0.0000
# 2 53.8394 103.4282 39.7331 0.0000 -13.1962 0.0000
# 3 51.2217 39.7331 113.8470 0.0000 -28.5954 0.0000
# 4 0.0000 0.0000 0.0000 26.9619 0.0000 -0.9686
# 5 -25.6809 -13.1962 -28.5954 0.0000 32.1403 0.0000
# 6 0.0000 0.0000 0.0000 -0.9686 0.0000 13.9178
#
#
#
# Elastic Compliance Matrix: (Units=1/GPa)
#
#
# Indices 1 2 3 4 5 6 
#
# 1 0.012590 -0.004846 -0.002506 0.000000 0.005840 0.000000
# 2 -0.004846 0.013083 -0.002587 0.000000 -0.000802 0.000000
# 3 -0.002506 -0.002587 0.012935 0.000000 0.008444 0.000000
# 4 0.000000 0.000000 0.000000 0.037182 0.000000 0.002588
# 5 0.005840 -0.000802 0.008444 0.000000 0.042963 0.000000
# 6 0.000000 0.000000 0.000000 0.002588 0.000000 0.072031
#
#
# Mechanical properties :
#
#
# Convention : Reuss Voigt Hill
#
# Bulk Modulus (GPa) = 53.39279 69.90250 61.64765
# Shear Modulus (GPa) = 23.05152 27.58665 25.31908
#
# Velocity S-wave (km/s) = 3.50504 3.83436 3.67339
# Velocity P-wave (km/s) = 6.69598 7.54040 7.13070
#
# Compressibility (1/GPa) = 0.01872912
#
# Stress axis : x y z
#
# Youngs Moduli (GPa) = 79.42702 76.43773 77.30897
#
# Poissons Ratio (x) = 0.37040 0.19377
# Poissons Ratio (y) = 0.38489 0.20001
# Poissons Ratio (z) = 0.19908 0.19776
#
# Static dielectric constant tensor:
#      x y z
#    x 1.676930 0.000000 -0.010850 
#    y 0.000000 1.644280 0.000000 
#    z -0.010850 0.000000 1.673900 
# 
# From -- ./inp_files/162282.got.cif
#   From: 2010.05.17/outbox.cif.g08.bks.cpg/sg15_82_cif.got.tgz:162282.got - 2010.06.03 18:47:42.
