data_PCOD9301259
_publ_section_title
;
Structure prediction by ZEFSAII (Michael W. Deem and Ramdas Pophale) SiO2 
 PCOD9301259
Probable space group: C 2/C
;
_chemical_formula_sum "Si O2"
_cell_formula_units_Z 48
_cell_length_a 25.197006
_cell_length_b 13.978749
_cell_length_c 9.051577
_cell_angle_alpha 90.000000
_cell_angle_beta 142.303271
_cell_angle_gamma 90.000000
_cell_volume 1949.508264
_symmetry_space_group_name_H-M "C 2/C"
_symmetry_group_IT_number 15
_symmetry_cell_setting 'monoclinic'
loop_
_space_group_symop_operation_xyz
x,y,z
-x,y,1/2-z
-x,-y,-z
x,-y,1/2+z
1/2+x,1/2+y,z
1/2-x,1/2+y,1/2-z
1/2-x,1/2-y,-z
1/2+x,1/2-y,1/2+z
loop_
_atom_site_type_symbol
_atom_site_label
_atom_site_fract_x
_atom_site_fract_y
_atom_site_fract_z
Si Si1 0.422618 0.109977 0.889249
Si Si2 0.109491 0.607674 0.239442
Si Si3 0.939890 0.951277 0.493174
Si Si4 0.164560 0.304007 0.572644
Si Si5 0.261695 0.122098 0.717806
Si Si6 0.170253 0.930185 0.511510
O O1 0.402869 0.140614 0.678637
O O2 0.342896 0.157410 0.800155
O O3 0.410363 0.995626 0.877315
O O4 0.522645 0.133114 0.138751
O O5 0.130308 0.684033 0.161474
O O6 0.192416 0.598806 0.526198
O O7 0.889356 0.030036 0.484345
O O8 0.877551 0.894616 0.242829
O O9 0.000000 0.000000 0.500000
O O10 0.000000 0.900447 0.750000
O O11 0.185421 0.197663 0.567481
O O12 0.258229 0.356626 0.774149
O O13 0.221428 0.024692 0.570045
#
# Coordination Sequence:
#
# PCOD9301259 Si02
#       6
#     8   8   8   8   8   8
#     4  11  22  42  68  97 133 174 219 275 337 388
#     4  11  22  42  68  97 133 174 219 275 337 388
#     4   9  20  38  62  88 114 168 218 250 308 382
#     4  12  24  41  65 100 131 170 218 272 334 393
#     4  12  24  41  65 100 131 170 218 272 334 393
#     4  11  20  40  63  88 129 168 211 270 325 386
#
# _framework density 24.621593000000001
#
# number of rings (size 3 to 8) (size 9 to 14) (size 15 to 20)
#    0.000    1.000    3.333    4.000    0.000    2.667 
#    0.000   16.667    0.000    0.000    0.000    0.000 
#    0.000    0.000    0.000    0.000    0.000    0.000 
#
# Total GULP energy -134245.935198 kJ/mol
# GULP energy per Si atom -5593.580633 kJ/mol
# Density = 2.456555 g / cm^3
# Si number density = 24.621593 Si / 1000 Ang^3
#
#
#
# Elastic Constant Matrix: (Units=GPa)
#
#
# Indices 1 2 3 4 5 6 
#
# 1 149.9678 7.1306 2.7160 0.0000 11.3555 0.0000
# 2 7.1306 60.8299 9.2334 0.0000 4.1926 0.0000
# 3 2.7160 9.2334 93.7870 0.0000 -4.1665 0.0000
# 4 0.0000 0.0000 0.0000 -7.9206 0.0000 -5.1654
# 5 11.3555 4.1926 -4.1665 0.0000 38.4899 0.0000
# 6 0.0000 0.0000 0.0000 -5.1654 0.0000 14.0286
#
#
#
# Elastic Compliance Matrix: (Units=1/GPa)
#
#
# Indices 1 2 3 4 5 6 
#
# 1 0.006852 -0.000633 -0.000224 0.000000 -0.001977 0.000000
# 2 -0.000633 0.016903 -0.001728 0.000000 -0.001841 0.000000
# 3 -0.000224 -0.001728 0.010903 0.000000 0.001434 0.000000
# 4 0.000000 0.000000 0.000000 -0.101807 0.000000 -0.037486
# 5 -0.001977 -0.001841 0.001434 0.000000 0.026920 0.000000
# 6 0.000000 0.000000 0.000000 -0.037486 0.000000 0.057480
#
#
# Mechanical properties :
#
#
# Convention : Reuss Voigt Hill
#
# Bulk Modulus (GPa) = 33.91161 38.08274 35.99718
# Shear Modulus (GPa) = 155.04339 27.95322 91.49831
#
# Velocity S-wave (km/s) = 7.94400 3.37310 6.10266
# Velocity P-wave (km/s) = 9.89676 5.53816 8.01926
#
# Compressibility (1/GPa) = 0.02948843
#
# Stress axis : x y z
#
# Youngs Moduli (GPa) = 145.94420 59.16238 91.71997
#
# Poissons Ratio (x) = 0.03745 0.02054
# Poissons Ratio (y) = 0.09238 0.15845
# Poissons Ratio (z) = 0.03268 0.10221
#
# Static dielectric constant tensor:
#      x y z
#    x 1.997350 0.000000 0.023710 
#    y 0.000000 1.892600 0.000000 
#    z 0.023710 0.000000 1.951560 
# 
# From -- ./inp_files/66485.got.cif
#   From: 2010.05.17/outbox.cif.g08.bks.cpg/sg15_34_cif.got.tgz:66485.got - 2010.06.03 18:47:42.
