data_PCOD9301343
_publ_section_title
;
Structure prediction by ZEFSAII (Michael W. Deem and Ramdas Pophale) SiO2 
 PCOD9301343
Probable space group: C 2/C
;
_chemical_formula_sum "Si O2"
_cell_formula_units_Z 48
_cell_length_a 28.302300
_cell_length_b 16.919619
_cell_length_c 14.104986
_cell_angle_alpha 90.000000
_cell_angle_beta 21.092420
_cell_angle_gamma 90.000000
_cell_volume 2430.718635
_symmetry_space_group_name_H-M "C 2/C"
_symmetry_group_IT_number 15
_symmetry_cell_setting 'monoclinic'
loop_
_space_group_symop_operation_xyz
x,y,z
-x,y,1/2-z
-x,-y,-z
x,-y,1/2+z
1/2+x,1/2+y,z
1/2-x,1/2+y,1/2-z
1/2-x,1/2-y,-z
1/2+x,1/2-y,1/2+z
loop_
_atom_site_type_symbol
_atom_site_label
_atom_site_fract_x
_atom_site_fract_y
_atom_site_fract_z
Si Si1 0.536314 0.587155 0.890092
Si Si2 0.306695 0.970767 0.940478
Si Si3 0.404843 0.739533 0.228992
Si Si4 0.000000 0.052617 0.750000
Si Si5 0.911236 0.396818 0.119826
Si Si6 0.000000 0.202198 0.250000
Si Si7 0.715204 0.426950 0.319224
O O1 0.694857 0.582826 0.599498
O O2 0.488237 0.596574 0.871797
O O3 0.500000 0.500000 0.000000
O O4 0.466667 0.656347 0.079906
O O5 0.453659 0.940860 0.652645
O O6 0.319290 0.057837 0.869716
O O7 0.269866 0.962599 0.119568
O O8 0.250000 0.750000 0.500000
O O9 0.457363 0.811894 0.069476
O O10 0.439672 0.748782 0.274548
O O11 0.125125 0.995868 0.531317
O O12 0.825819 0.398470 0.184367
O O13 0.885041 0.145721 0.506175
#
# Coordination Sequence:
#
# PCOD9301343 Si02
#       7
#     8   8   8   4   8   4   8
#     4  12  22  43  70  95 133 177 225 279 331 405
#     4  11  23  43  69  94 132 182 225 274 341 413
#     4  12  25  45  68  98 139 173 225 291 343 400
#     4  11  22  36  70 102 123 174 236 270 331 416
#     4  11  25  44  65 101 137 177 227 281 345 409
#     4  11  22  42  70  96 127 182 224 276 351 410
#     4  11  20  41  71  94 130 176 223 276 342 405
#
# _framework density 19.747247000000002
#
# number of rings (size 3 to 8) (size 9 to 14) (size 15 to 20)
#    0.000    0.667    6.667    2.500    0.000    0.667 
#   12.000    0.000    0.000    0.000    0.000    0.000 
#    0.000    0.000    0.000    0.000    0.000    0.000 
#
# Total GULP energy -133889.542858 kJ/mol
# GULP energy per Si atom -5578.730952 kJ/mol
# Density = 1.970230 g / cm^3
# Si number density = 19.747247 Si / 1000 Ang^3
#
#
#
# Elastic Constant Matrix: (Units=GPa)
#
#
# Indices 1 2 3 4 5 6 
#
# 1 163.9043 33.4266 31.9549 0.0000 -9.6526 0.0000
# 2 33.4266 64.9985 19.2545 0.0000 -4.9259 0.0000
# 3 31.9549 19.2545 89.5854 -0.0001 -15.9099 0.0000
# 4 0.0000 0.0000 -0.0001 27.6645 0.0000 4.5372
# 5 -9.6526 -4.9259 -15.9099 0.0000 37.3516 0.0000
# 6 0.0000 0.0000 0.0000 4.5372 0.0000 25.5557
#
#
#
# Elastic Compliance Matrix: (Units=1/GPa)
#
#
# Indices 1 2 3 4 5 6 
#
# 1 0.007113 -0.003087 -0.001752 0.000000 0.000685 0.000000
# 2 -0.003087 0.017789 -0.002648 0.000000 0.000421 0.000000
# 3 -0.001752 -0.002648 0.013214 0.000000 0.004826 0.000000
# 4 0.000000 0.000000 0.000000 0.037232 0.000000 -0.006610
# 5 0.000685 0.000421 0.004826 0.000000 0.029061 0.000000
# 6 0.000000 0.000000 0.000000 -0.006610 0.000000 0.040304
#
#
# Mechanical properties :
#
#
# Convention : Reuss Voigt Hill
#
# Bulk Modulus (GPa) = 43.21139 54.19558 48.70349
# Shear Modulus (GPa) = 29.86900 33.70451 31.78675
#
# Velocity S-wave (km/s) = 3.89339 4.13582 4.01643
# Velocity P-wave (km/s) = 6.49161 7.09302 6.79897
#
# Compressibility (1/GPa) = 0.02314204
#
# Stress axis : x y z
#
# Youngs Moduli (GPa) = 140.59663 56.21580 75.67947
#
# Poissons Ratio (x) = 0.17353 0.13259
# Poissons Ratio (y) = 0.43400 0.20036
# Poissons Ratio (z) = 0.24632 0.14883
#
# Static dielectric constant tensor:
#      x y z
#    x 1.731690 0.000000 0.031720 
#    y 0.000000 1.787390 0.000000 
#    z 0.031720 0.000000 1.487710 
# 
# From -- ./inp_files/182494.got.cif
#   From: 2010.05.17/outbox.cif.g08.bks.cpg/sg15_92_cif.got.tgz:182494.got - 2010.06.03 18:47:42.
