data_PCOD9301818
_publ_section_title
;
Structure prediction by ZEFSAII (Michael W. Deem and Ramdas Pophale) SiO2 
 PCOD9301818
Probable space group: C 2/C
;
_chemical_formula_sum "Si O2"
_cell_formula_units_Z 40
_cell_length_a 18.398650
_cell_length_b 13.980648
_cell_length_c 9.106165
_cell_angle_alpha 90.000000
_cell_angle_beta 44.348844
_cell_angle_gamma 90.000000
_cell_volume 1637.350198
_symmetry_space_group_name_H-M "C 2/C"
_symmetry_group_IT_number 15
_symmetry_cell_setting 'monoclinic'
loop_
_space_group_symop_operation_xyz
x,y,z
-x,y,1/2-z
-x,-y,-z
x,-y,1/2+z
1/2+x,1/2+y,z
1/2-x,1/2+y,1/2-z
1/2-x,1/2-y,-z
1/2+x,1/2-y,1/2+z
loop_
_atom_site_type_symbol
_atom_site_label
_atom_site_fract_x
_atom_site_fract_y
_atom_site_fract_z
Si Si1 0.212742 0.919547 0.306894
Si Si2 0.673244 0.277227 0.849201
Si Si3 0.165484 0.416988 0.976624
Si Si4 0.386796 0.572976 0.844480
Si Si5 0.489730 0.187308 0.608802
O O1 0.249355 0.812013 0.274699
O O2 0.121477 0.924709 0.317930
O O3 0.310107 0.974435 0.090663
O O4 0.180053 0.985683 0.490085
O O5 0.727233 0.359077 0.673430
O O6 0.561913 0.246108 0.944859
O O7 0.659486 0.327543 0.025357
O O8 0.094868 0.393110 0.218688
O O9 0.098425 0.367676 0.940989
O O10 0.500000 0.563707 0.750000
O O11 0.500000 0.245188 0.750000
#
# Coordination Sequence:
#
# PCOD9301818 Si02
#       5
#     8   8   8   8   8
#     4  11  23  44  67  90 139 176 214 277 325 397
#     4  11  21  39  66  93 133 173 218 273 332 376
#     4   8  20  38  59  95 129 166 227 254 331 384
#     4  11  26  44  64 101 132 174 226 268 335 390
#     4   8  19  36  61  93 125 166 223 259 320 391
#
# _framework density 24.429715000000002
#
# number of rings (size 3 to 8) (size 9 to 14) (size 15 to 20)
#    1.200    0.800    0.000    3.000    2.800    2.400 
#    7.200    0.000    0.000    0.000    0.000    0.000 
#    0.000    0.000    0.000    0.000    0.000    0.000 
#
# Total GULP energy -111704.475811 kJ/mol
# GULP energy per Si atom -5585.223791 kJ/mol
# Density = 2.437411 g / cm^3
# Si number density = 24.429715 Si / 1000 Ang^3
#
#
#
# Elastic Constant Matrix: (Units=GPa)
#
#
# Indices 1 2 3 4 5 6 
#
# 1 86.9524 1.3562 -5.6268 0.0000 6.8464 0.0000
# 2 1.3562 83.7638 -0.3692 0.0000 3.1139 0.0000
# 3 -5.6268 -0.3692 21.7595 0.0000 -3.1260 0.0000
# 4 0.0000 0.0000 0.0000 15.6464 0.0000 4.2259
# 5 6.8464 3.1139 -3.1260 0.0000 36.4982 0.0000
# 6 0.0000 0.0000 0.0000 4.2259 0.0000 26.7652
#
#
#
# Elastic Compliance Matrix: (Units=1/GPa)
#
#
# Indices 1 2 3 4 5 6 
#
# 1 0.011837 -0.000106 0.002776 0.000000 -0.001974 0.000000
# 2 -0.000106 0.011977 0.000032 0.000000 -0.000999 0.000000
# 3 0.002776 0.000032 0.047181 0.000000 0.003518 0.000000
# 4 0.000000 0.000000 0.000000 0.066759 0.000000 -0.010540
# 5 -0.001974 -0.000999 0.003518 0.000000 0.028155 0.000000
# 6 0.000000 0.000000 0.000000 -0.010540 0.000000 0.039026
#
#
# Mechanical properties :
#
#
# Convention : Reuss Voigt Hill
#
# Bulk Modulus (GPa) = 13.08920 20.35511 16.72216
# Shear Modulus (GPa) = 22.22236 28.92299 25.57267
#
# Velocity S-wave (km/s) = 3.01930 3.44456 3.23892
# Velocity P-wave (km/s) = 4.18622 4.91632 4.56589
#
# Compressibility (1/GPa) = 0.07639886
#
# Stress axis : x y z
#
# Youngs Moduli (GPa) = 84.47931 83.49102 21.19517
#
# Poissons Ratio (x) = 0.00885 -0.05883
# Poissons Ratio (y) = 0.00896 -0.00068
# Poissons Ratio (z) = -0.23449 -0.00269
#
# Static dielectric constant tensor:
#      x y z
#    x 2.025640 0.000000 0.013050 
#    y 0.000000 1.884150 0.000000 
#    z 0.013050 0.000000 1.940310 
# 
# From -- ./inp_files/55158.got.cif
#   From: 2010.05.17/outbox.cif.g08.bks.cpg/sg15_28_cif.got.tgz:55158.got - 2010.06.03 18:47:42.
