data_PCOD9301099
_publ_section_title
;
Structure prediction by ZEFSAII (Michael W. Deem and Ramdas Pophale) SiO2 
 PCOD9301099
Probable space group: C 2/C
;
_chemical_formula_sum "Si O2"
_cell_formula_units_Z 48
_cell_length_a 22.792201
_cell_length_b 5.005358
_cell_length_c 22.045933
_cell_angle_alpha 90.000000
_cell_angle_beta 129.101330
_cell_angle_gamma 90.000000
_cell_volume 1951.773397
_symmetry_space_group_name_H-M "C 2/C"
_symmetry_group_IT_number 15
_symmetry_cell_setting 'monoclinic'
loop_
_space_group_symop_operation_xyz
x,y,z
-x,y,1/2-z
-x,-y,-z
x,-y,1/2+z
1/2+x,1/2+y,z
1/2-x,1/2+y,1/2-z
1/2-x,1/2-y,-z
1/2+x,1/2-y,1/2+z
loop_
_atom_site_type_symbol
_atom_site_label
_atom_site_fract_x
_atom_site_fract_y
_atom_site_fract_z
Si Si1 0.566220 0.712255 0.038056
Si Si2 0.701803 0.646614 0.725787
Si Si3 0.633369 0.213900 0.056349
Si Si4 0.523685 0.897547 0.834049
Si Si5 0.699963 0.001673 0.486645
Si Si6 0.935639 0.904917 0.825018
O O1 0.621742 0.523178 0.033437
O O2 0.583920 0.717116 0.121370
O O3 0.563587 0.004943 0.007982
O O4 0.500000 0.500000 0.000000
O O5 0.745875 0.397057 0.724567
O O6 0.654029 0.773094 0.639819
O O7 0.646551 0.536777 0.742277
O O8 0.691639 0.061615 0.052692
O O9 0.500000 0.814535 0.750000
O O10 0.613028 0.966547 0.903691
O O11 0.493851 0.654093 0.857306
O O12 0.473712 0.162914 0.814167
O O13 0.750000 0.250000 0.500000
O O14 0.750000 0.750000 0.500000
#
# Coordination Sequence:
#
# PCOD9301099 Si02
#       6
#     8   8   8   8   8   8
#     4  11  20  37  65  94 122 158 201 268 339 399
#     4  11  23  40  65 100 137 175 218 274 342 412
#     4  11  23  40  62  94 129 168 217 271 332 402
#     4  12  26  46  69  98 134 183 234 282 335 401
#     4  12  27  47  68  97 135 183 233 284 337 400
#     4  11  23  42  66  97 132 171 221 279 335 402
#
# _framework density 24.593018000000001
#
# number of rings (size 3 to 8) (size 9 to 14) (size 15 to 20)
#    0.000    0.667    0.000   10.000    0.000    4.000 
#    0.000    0.000    0.000    0.000    0.000    0.000 
#    0.000    0.000    0.000    0.000    0.000    0.000 
#
# Total GULP energy -133753.464941 kJ/mol
# GULP energy per Si atom -5573.061039 kJ/mol
# Density = 2.453704 g / cm^3
# Si number density = 24.593018 Si / 1000 Ang^3
#
#
#
# Elastic Constant Matrix: (Units=GPa)
#
#
# Indices 1 2 3 4 5 6 
#
# 1 124.5358 70.0893 13.6611 0.0005 9.7140 0.0026
# 2 70.0893 206.9507 23.0427 -0.0017 6.7711 0.0167
# 3 13.6611 23.0427 65.6648 0.0001 13.6354 0.0025
# 4 0.0005 -0.0017 0.0001 31.4571 0.0001 8.3490
# 5 9.7140 6.7711 13.6354 0.0001 27.8915 0.0018
# 6 0.0026 0.0167 0.0025 8.3490 0.0018 63.7802
#
#
#
# Elastic Compliance Matrix: (Units=1/GPa)
#
#
# Indices 1 2 3 4 5 6 
#
# 1 0.010131 -0.003301 -0.000426 0.000000 -0.002519 0.000001
# 2 -0.003301 0.006108 -0.001544 0.000001 0.000422 -0.000002
# 3 -0.000426 -0.001544 0.017530 0.000000 -0.008047 0.000000
# 4 0.000000 0.000001 0.000000 0.032934 0.000000 -0.004311
# 5 -0.002519 0.000422 -0.008047 0.000000 0.040562 -0.000001
# 6 0.000001 -0.000002 0.000000 -0.004311 -0.000001 0.016243
#
#
# Mechanical properties :
#
#
# Convention : Reuss Voigt Hill
#
# Bulk Modulus (GPa) = 43.05499 67.85974 55.45736
# Shear Modulus (GPa) = 35.26248 43.98298 39.62273
#
# Velocity S-wave (km/s) = 3.79072 4.23358 4.01825
# Velocity P-wave (km/s) = 6.05841 7.17987 6.64285
#
# Compressibility (1/GPa) = 0.02322611
#
# Stress axis : x y z
#
# Youngs Moduli (GPa) = 98.70701 163.71247 57.04382
#
# Poissons Ratio (x) = 0.54046 0.02431
# Poissons Ratio (y) = 0.32586 0.08809
# Poissons Ratio (z) = 0.04207 0.25282
#
# Static dielectric constant tensor:
#      x y z
#    x 2.258550 0.000010 0.109230 
#    y 0.000010 1.977420 -0.000010 
#    z 0.109230 -0.000010 2.086780 
# 
# From -- ./inp_files/278723.got.cif
#   From: 2010.05.17/outbox.cif.g08.bks.cpg/sg15_140_cif.got.tgz:278723.got - 2010.06.03 18:47:42.
