data_PCOD9301437
_publ_section_title
;
Structure prediction by ZEFSAII (Michael W. Deem and Ramdas Pophale) SiO2 
 PCOD9301437
Probable space group: C 2/C
;
_chemical_formula_sum "Si O2"
_cell_formula_units_Z 60
_cell_length_a 19.345969
_cell_length_b 14.235979
_cell_length_c 14.527446
_cell_angle_alpha 90.000000
_cell_angle_beta 42.315594
_cell_angle_gamma 90.000000
_cell_volume 2693.519353
_symmetry_space_group_name_H-M "C 2/C"
_symmetry_group_IT_number 15
_symmetry_cell_setting 'monoclinic'
loop_
_space_group_symop_operation_xyz
x,y,z
-x,y,1/2-z
-x,-y,-z
x,-y,1/2+z
1/2+x,1/2+y,z
1/2-x,1/2+y,1/2-z
1/2-x,1/2-y,-z
1/2+x,1/2-y,1/2+z
loop_
_atom_site_type_symbol
_atom_site_label
_atom_site_fract_x
_atom_site_fract_y
_atom_site_fract_z
Si Si1 0.431990 0.245418 0.006040
Si Si2 0.415147 0.109918 0.549437
Si Si3 0.211617 0.527277 0.196624
Si Si4 0.107715 0.489210 0.107240
Si Si5 0.781915 0.210077 0.222836
Si Si6 0.500000 0.331113 0.750000
Si Si7 0.678500 0.571340 0.167230
Si Si8 0.600798 0.560348 0.885489
O O1 0.485119 0.155156 0.999890
O O2 0.478532 0.268856 0.861097
O O3 0.309701 0.241042 0.120674
O O4 0.437441 0.333551 0.070366
O O5 0.422755 0.066364 0.440014
O O6 0.337779 0.199423 0.627909
O O7 0.369818 0.027115 0.658046
O O8 0.167425 0.525600 0.138295
O O9 0.235280 0.635134 0.198032
O O10 0.315872 0.469311 0.118505
O O11 0.000000 0.446645 0.250000
O O12 0.200152 0.427113 0.973372
O O13 0.847514 0.143973 0.224970
O O14 0.400068 0.397002 0.833463
O O15 0.652370 0.470478 0.238092
O O16 0.500000 0.500000 0.000000
#
# Coordination Sequence:
#
# PCOD9301437 Si02
#       8
#     8   8   8   8   8   4   8   8
#     4  12  24  39  71 102 144 191 239 302 377 447
#     4  12  25  49  70 105 150 195 242 306 372 440
#     4  11  25  47  72 105 146 195 250 305 365 447
#     4  12  27  46  74 108 150 200 252 299 368 454
#     4  11  23  46  71 100 145 193 239 301 373 441
#     4  12  24  42  68 118 138 182 252 318 378 438
#     4  11  24  44  72 108 146 186 248 311 377 438
#     4  11  20  45  72 102 143 193 240 307 380 436
#
# _framework density 22.275687000000001
#
# number of rings (size 3 to 8) (size 9 to 14) (size 15 to 20)
#    0.000    0.533    6.667    2.400    1.867    3.200 
#    0.000    1.333    0.000    0.000    0.000    0.000 
#    0.000    0.000    0.000    0.000    0.000    0.000 
#
# Total GULP energy -167481.327956 kJ/mol
# GULP energy per Si atom -5582.710932 kJ/mol
# Density = 2.222499 g / cm^3
# Si number density = 22.275687 Si / 1000 Ang^3
#
#
#
# Elastic Constant Matrix: (Units=GPa)
#
#
# Indices 1 2 3 4 5 6 
#
# 1 105.8661 22.6274 39.7796 0.0000 5.9830 0.0000
# 2 22.6274 122.4071 37.7593 0.0000 6.8660 0.0000
# 3 39.7796 37.7593 108.4832 0.0000 -16.1726 0.0000
# 4 0.0000 0.0000 0.0000 30.2429 0.0000 -13.0304
# 5 5.9830 6.8660 -16.1726 0.0000 46.9184 0.0000
# 6 0.0000 0.0000 0.0000 -13.0304 0.0000 26.5224
#
#
#
# Elastic Compliance Matrix: (Units=1/GPa)
#
#
# Indices 1 2 3 4 5 6 
#
# 1 0.011388 -0.000585 -0.004402 0.000000 -0.002884 0.000000
# 2 -0.000585 0.009486 -0.003461 0.000000 -0.002506 0.000000
# 3 -0.004402 -0.003461 0.012857 0.000000 0.005499 0.000000
# 4 0.000000 0.000000 0.000000 0.041944 0.000000 0.020607
# 5 -0.002884 -0.002506 0.005499 0.000000 0.023944 0.000000
# 6 0.000000 0.000000 0.000000 0.020607 0.000000 0.047828
#
#
# Mechanical properties :
#
#
# Convention : Reuss Voigt Hill
#
# Bulk Modulus (GPa) = 59.40299 59.67657 59.53978
# Shear Modulus (GPa) = 29.41965 36.50942 32.96454
#
# Velocity S-wave (km/s) = 3.63810 4.05282 3.85105
# Velocity P-wave (km/s) = 6.66129 6.98203 6.82354
#
# Compressibility (1/GPa) = 0.01683417
#
# Stress axis : x y z
#
# Youngs Moduli (GPa) = 87.81099 105.42088 77.78118
#
# Poissons Ratio (x) = 0.06172 0.34240
# Poissons Ratio (y) = 0.05141 0.26917
# Poissons Ratio (z) = 0.38655 0.36482
#
# Static dielectric constant tensor:
#      x y z
#    x 1.869640 0.000000 -0.032030 
#    y 0.000000 1.875780 0.000000 
#    z -0.032030 0.000000 1.861360 
# 
# From -- ./inp_files/168597.got.cif
#   From: 2010.05.17/outbox.cif.g08.bks.cpg/sg15_85_cif.got.tgz:168597.got - 2010.06.03 18:47:42.
