data_PCOD9301763
_publ_section_title
;
Structure prediction by ZEFSAII (Michael W. Deem and Ramdas Pophale) SiO2 
 PCOD9301763
Probable space group: C 2/C
;
_chemical_formula_sum "Si O2"
_cell_formula_units_Z 56
_cell_length_a 24.096944
_cell_length_b 14.229043
_cell_length_c 8.669036
_cell_angle_alpha 90.000000
_cell_angle_beta 74.114692
_cell_angle_gamma 90.000000
_cell_volume 2858.896576
_symmetry_space_group_name_H-M "C 2/C"
_symmetry_group_IT_number 15
_symmetry_cell_setting 'monoclinic'
loop_
_space_group_symop_operation_xyz
x,y,z
-x,y,1/2-z
-x,-y,-z
x,-y,1/2+z
1/2+x,1/2+y,z
1/2-x,1/2+y,1/2-z
1/2-x,1/2-y,-z
1/2+x,1/2-y,1/2+z
loop_
_atom_site_type_symbol
_atom_site_label
_atom_site_fract_x
_atom_site_fract_y
_atom_site_fract_z
Si Si1 0.500000 0.331302 0.250000
Si Si2 0.378958 0.235678 0.330771
Si Si3 0.140327 0.112245 0.876182
Si Si4 0.696147 0.317066 0.830258
Si Si5 0.300156 0.069928 0.408896
Si Si6 0.000000 0.000000 0.500000
Si Si7 0.105256 0.944958 0.719629
Si Si8 0.771099 0.387556 0.284197
O O1 0.443989 0.265954 0.316538
O O2 0.506322 0.403202 0.386976
O O3 0.367244 0.282239 0.172933
O O4 0.335660 0.282657 0.489026
O O5 0.359281 0.128095 0.346440
O O6 0.205004 0.098864 0.884395
O O7 0.130953 0.048081 0.732948
O O8 0.099027 0.073088 0.042344
O O9 0.751503 0.378959 0.838475
O O10 0.650623 0.375183 0.764042
O O11 0.713613 0.222250 0.726516
O O12 0.278290 0.081380 0.600547
O O13 0.306283 0.961528 0.358570
O O14 0.954954 0.944346 0.649602
#
# Coordination Sequence:
#
# PCOD9301763 Si02
#       8
#     4   8   8   8   8   4   8   8
#     4  12  24  38  66  84 120 158 206 248 304 372
#     4  11  22  41  57  89 120 162 203 248 313 363
#     4  12  21  35  57  87 127 160 196 245 298 368
#     4  11  21  39  60  88 126 161 198 254 309 371
#     4  11  22  38  62  86 127 160 201 254 304 374
#     4  12  24  38  56  92 118 162 198 250 306 358
#     4  12  24  35  56  87 128 161 202 244 302 369
#     4  11  22  36  59  89 120 162 200 243 310 363
#
# _framework density 19.587978
#
# number of rings (size 3 to 8) (size 9 to 14) (size 15 to 20)
#    0.000    0.571    7.143    3.429    0.000    1.714 
#    0.000    0.000    0.000    3.429    0.000    0.000 
#    0.000    0.000    0.000    0.000    0.000    0.000 
#
# Total GULP energy -156043.548163 kJ/mol
# GULP energy per Si atom -5572.983863 kJ/mol
# Density = 1.954339 g / cm^3
# Si number density = 19.587978 Si / 1000 Ang^3
#
#
#
# Elastic Constant Matrix: (Units=GPa)
#
#
# Indices 1 2 3 4 5 6 
#
# 1 75.1069 18.8887 19.7080 0.0000 -10.4987 0.0000
# 2 18.8887 49.3871 11.7946 0.0000 -12.8037 0.0000
# 3 19.7080 11.7946 80.0203 0.0000 -13.3230 0.0000
# 4 0.0000 0.0000 0.0000 26.4710 0.0000 6.0513
# 5 -10.4987 -12.8037 -13.3230 0.0000 31.7907 0.0000
# 6 0.0000 0.0000 0.0000 6.0513 0.0000 33.1533
#
#
#
# Elastic Compliance Matrix: (Units=1/GPa)
#
#
# Indices 1 2 3 4 5 6 
#
# 1 0.015524 -0.004741 -0.002783 0.000000 0.002051 0.000000
# 2 -0.004741 0.024344 -0.001128 0.000000 0.007766 0.000000
# 3 -0.002783 -0.001128 0.014104 0.000000 0.004538 0.000000
# 4 0.000000 0.000000 0.000000 0.039422 0.000000 -0.007195
# 5 0.002051 0.007766 0.004538 0.000000 0.037163 0.000000
# 6 0.000000 0.000000 0.000000 -0.007195 0.000000 0.031476
#
#
# Mechanical properties :
#
#
# Convention : Reuss Voigt Hill
#
# Bulk Modulus (GPa) = 27.27111 33.92187 30.59649
# Shear Modulus (GPa) = 26.10170 28.55786 27.32978
#
# Velocity S-wave (km/s) = 3.65435 3.82242 3.73933
# Velocity P-wave (km/s) = 5.63545 6.06931 5.85640
#
# Compressibility (1/GPa) = 0.03666885
#
# Stress axis : x y z
#
# Youngs Moduli (GPa) = 64.41805 41.07758 70.90223
#
# Poissons Ratio (x) = 0.19474 0.19732
# Poissons Ratio (y) = 0.30540 0.07994
# Poissons Ratio (z) = 0.17928 0.04632
#
# Static dielectric constant tensor:
#      x y z
#    x 1.821660 0.000000 -0.001310 
#    y 0.000000 1.681080 0.000000 
#    z -0.001310 0.000000 1.674180 
# 
# From -- ./inp_files/65463.got.cif
#   From: 2010.05.17/outbox.cif.g08.bks.cpg/sg15_33_cif.got.tgz:65463.got - 2010.06.03 18:47:42.
