data_PCOD9301783
_publ_section_title
;
Structure prediction by ZEFSAII (Michael W. Deem and Ramdas Pophale) SiO2 
 PCOD9301783
Probable space group: C 2/C
;
_chemical_formula_sum "Si O2"
_cell_formula_units_Z 48
_cell_length_a 17.060193
_cell_length_b 10.115694
_cell_length_c 23.745009
_cell_angle_alpha 90.000000
_cell_angle_beta 146.010224
_cell_angle_gamma 90.000000
_cell_volume 2290.860783
_symmetry_space_group_name_H-M "C 2/C"
_symmetry_group_IT_number 15
_symmetry_cell_setting 'monoclinic'
loop_
_space_group_symop_operation_xyz
x,y,z
-x,y,1/2-z
-x,-y,-z
x,-y,1/2+z
1/2+x,1/2+y,z
1/2-x,1/2+y,1/2-z
1/2-x,1/2-y,-z
1/2+x,1/2-y,1/2+z
loop_
_atom_site_type_symbol
_atom_site_label
_atom_site_fract_x
_atom_site_fract_y
_atom_site_fract_z
Si Si1 0.103582 0.374981 0.509574
Si Si2 0.321745 0.388300 0.908852
Si Si3 0.553834 0.253747 0.869581
Si Si4 0.540302 0.495527 0.121929
Si Si5 0.702862 0.832004 0.344476
Si Si6 0.220324 0.600298 0.650291
O O1 0.121112 0.344331 0.454666
O O2 0.148197 0.241474 0.569356
O O3 0.205945 0.487036 0.594322
O O4 0.939078 0.401886 0.420403
O O5 0.388613 0.425587 0.887782
O O6 0.218296 0.511693 0.858315
O O7 0.257144 0.243972 0.863346
O O8 0.434521 0.396783 0.026815
O O9 0.545677 0.399406 0.891217
O O10 0.392871 0.210117 0.764319
O O11 0.629715 0.229977 0.855924
O O12 0.661436 0.433101 0.233192
#
# Coordination Sequence:
#
# PCOD9301783 Si02
#       6
#     8   8   8   8   8   8
#     4  11  21  39  63  95 123 173 218 263 321 395
#     4  11  23  39  63  98 128 167 214 278 329 371
#     4  11  22  41  67  95 125 179 221 263 311 410
#     4  11  22  40  64  94 133 170 217 270 325 391
#     4  11  23  40  69  93 130 171 225 261 326 395
#     4  11  24  38  64  97 135 162 216 279 334 375
#
# _framework density 20.952822000000001
#
# number of rings (size 3 to 8) (size 9 to 14) (size 15 to 20)
#    0.000    1.000    5.000    2.500    0.000    4.000 
#    0.000    0.833    7.333    0.000    0.000    0.000 
#    0.000    0.000    0.000    0.000    0.000    0.000 
#
# Total GULP energy -134017.468298 kJ/mol
# GULP energy per Si atom -5584.061179 kJ/mol
# Density = 2.090513 g / cm^3
# Si number density = 20.952822 Si / 1000 Ang^3
#
#
#
# Elastic Constant Matrix: (Units=GPa)
#
#
# Indices 1 2 3 4 5 6 
#
# 1 52.5814 35.6920 26.0945 0.0000 -8.1437 0.0000
# 2 35.6920 149.3445 75.3154 0.0000 -20.6403 0.0000
# 3 26.0945 75.3154 179.2259 0.0000 -30.2856 0.0000
# 4 0.0000 0.0000 0.0000 35.5180 0.0000 -4.3955
# 5 -8.1437 -20.6403 -30.2856 0.0000 26.8816 0.0000
# 6 0.0000 0.0000 0.0000 -4.3955 0.0000 30.7157
#
#
#
# Elastic Compliance Matrix: (Units=1/GPa)
#
#
# Indices 1 2 3 4 5 6 
#
# 1 0.023049 -0.004691 -0.001004 0.000000 0.002249 0.000000
# 2 -0.004691 0.009664 -0.002920 0.000000 0.002709 0.000000
# 3 -0.001004 -0.002920 0.008056 0.000000 0.006530 0.000000
# 4 0.000000 0.000000 0.000000 0.028662 0.000000 0.004102
# 5 0.002249 0.002709 0.006530 0.000000 0.047318 0.000000
# 6 0.000000 0.000000 0.000000 0.004102 0.000000 0.033144
#
#
# Mechanical properties :
#
#
# Convention : Reuss Voigt Hill
#
# Bulk Modulus (GPa) = 42.48458 72.81728 57.65093
# Shear Modulus (GPa) = 28.57593 34.89306 31.73449
#
# Velocity S-wave (km/s) = 3.69700 4.08525 3.89597
# Velocity P-wave (km/s) = 6.20839 7.55519 6.91466
#
# Compressibility (1/GPa) = 0.02353795
#
# Stress axis : x y z
#
# Youngs Moduli (GPa) = 43.38524 103.47420 124.12397
#
# Poissons Ratio (x) = 0.48542 0.12468
# Poissons Ratio (y) = 0.20353 0.36249
# Poissons Ratio (z) = 0.04358 0.30218
#
# Static dielectric constant tensor:
#      x y z
#    x 1.795720 0.000000 0.066010 
#    y 0.000000 1.765030 0.000000 
#    z 0.066010 0.000000 1.816100 
# 
# From -- ./inp_files/300544.got.cif
#   From: 2010.05.17/outbox.cif.g08.bks.cpg/sg15_151_cif.got.tgz:300544.got - 2010.06.03 18:47:42.
