data_PCOD9301324
_publ_section_title
;
Structure prediction by ZEFSAII (Michael W. Deem and Ramdas Pophale) SiO2 
 PCOD9301324
Probable space group: C 2/C
;
_chemical_formula_sum "Si O2"
_cell_formula_units_Z 64
_cell_length_a 15.319979
_cell_length_b 11.474923
_cell_length_c 26.456901
_cell_angle_alpha 90.000000
_cell_angle_beta 34.269619
_cell_angle_gamma 90.000000
_cell_volume 2618.925487
_symmetry_space_group_name_H-M "C 2/C"
_symmetry_group_IT_number 15
_symmetry_cell_setting 'monoclinic'
loop_
_space_group_symop_operation_xyz
x,y,z
-x,y,1/2-z
-x,-y,-z
x,-y,1/2+z
1/2+x,1/2+y,z
1/2-x,1/2+y,1/2-z
1/2-x,1/2-y,-z
1/2+x,1/2-y,1/2+z
loop_
_atom_site_type_symbol
_atom_site_label
_atom_site_fract_x
_atom_site_fract_y
_atom_site_fract_z
Si Si1 0.823758 0.650758 0.827741
Si Si2 0.138910 0.360313 0.943057
Si Si3 0.842553 0.070180 0.087734
Si Si4 0.490958 0.405648 0.622490
Si Si5 0.315526 0.999704 0.975033
Si Si6 0.799811 0.679301 0.564245
Si Si7 0.090921 0.353420 0.320063
Si Si8 0.317227 0.541341 0.792870
O O1 0.702889 0.730113 0.914896
O O2 0.798750 0.517173 0.851849
O O3 0.794950 0.660686 0.781796
O O4 0.000000 0.690384 0.750000
O O5 0.165160 0.421630 0.983496
O O6 0.239291 0.425668 0.853036
O O7 0.963156 0.364742 0.009359
O O8 0.867707 0.095578 0.135509
O O9 0.810737 0.183593 0.069250
O O10 0.000000 0.000000 0.000000
O O11 0.655827 0.458203 0.527194
O O12 0.500097 0.268920 0.632228
O O13 0.440375 0.487053 0.694306
O O14 0.299361 0.871230 0.007475
O O15 0.468733 0.040285 0.871851
O O16 0.667873 0.620318 0.663136
O O17 0.197409 0.385022 0.316368
#
# Coordination Sequence:
#
# PCOD9301324 Si02
#       8
#     8   8   8   8   8   8   8   8
#     4  12  27  42  66 100 136 176 231 298 347 404
#     4  11  20  41  68 101 130 170 223 281 354 404
#     4  12  26  44  66  92 139 191 233 280 359 427
#     4  12  25  41  67 105 135 177 232 290 347 413
#     4  11  24  41  72 103 133 175 232 294 340 421
#     4  11  22  44  70  96 139 185 226 282 357 424
#     4  12  22  42  68 100 135 177 231 285 342 413
#     4  11  21  39  67 100 134 175 221 279 349 415
#
# _framework density 24.437503
#
# number of rings (size 3 to 8) (size 9 to 14) (size 15 to 20)
#    0.000    0.500    7.500    1.875    1.750    1.500 
#    2.250    1.875    0.000    0.000    0.000    0.000 
#    0.000    0.000    0.000    0.000    0.000    0.000 
#
# Total GULP energy -178957.913288 kJ/mol
# GULP energy per Si atom -5592.434790 kJ/mol
# Density = 2.438188 g / cm^3
# Si number density = 24.437503 Si / 1000 Ang^3
#
#
#
# Elastic Constant Matrix: (Units=GPa)
#
#
# Indices 1 2 3 4 5 6 
#
# 1 75.6140 15.6362 -4.1705 0.0000 2.7343 0.0000
# 2 15.6362 151.0765 12.5118 0.0000 6.4768 0.0000
# 3 -4.1705 12.5118 70.1982 -0.0002 2.2329 0.0000
# 4 0.0000 0.0000 -0.0002 35.6732 0.0000 7.2726
# 5 2.7343 6.4768 2.2329 0.0000 32.8155 0.0000
# 6 0.0000 0.0000 0.0000 7.2726 0.0000 25.5120
#
#
#
# Elastic Compliance Matrix: (Units=1/GPa)
#
#
# Indices 1 2 3 4 5 6 
#
# 1 0.013621 -0.001461 0.001099 0.000000 -0.000921 0.000000
# 2 -0.001461 0.006926 -0.001285 0.000000 -0.001158 0.000000
# 3 0.001099 -0.001285 0.014566 0.000000 -0.000829 0.000000
# 4 0.000000 0.000000 0.000000 0.029762 0.000000 -0.008484
# 5 -0.000921 -0.001158 -0.000829 0.000000 0.030835 0.000000
# 6 0.000000 0.000000 0.000000 -0.008484 0.000000 0.041616
#
#
# Mechanical properties :
#
#
# Convention : Reuss Voigt Hill
#
# Bulk Modulus (GPa) = 31.42681 38.31597 34.87139
# Shear Modulus (GPa) = 33.06297 36.99422 35.02860
#
# Velocity S-wave (km/s) = 3.68225 3.89502 3.79013
# Velocity P-wave (km/s) = 5.56477 5.99512 5.78395
#
# Compressibility (1/GPa) = 0.03181996
#
# Stress axis : x y z
#
# Youngs Moduli (GPa) = 73.41510 144.37458 68.65307
#
# Poissons Ratio (x) = 0.21097 -0.07545
# Poissons Ratio (y) = 0.10728 0.08819
# Poissons Ratio (z) = -0.08068 0.18545
#
# Static dielectric constant tensor:
#      x y z
#    x 1.961030 0.000000 0.068920 
#    y 0.000000 1.970850 0.000000 
#    z 0.068920 0.000000 1.969590 
# 
# From -- ./inp_files/316199.got.cif
#   From: 2010.05.17/outbox.cif.g08.bks.cpg/sg15_159_cif.got.tgz:316199.got - 2010.06.03 18:47:42.
