data_PCOD9301728
_publ_section_title
;
Structure prediction by ZEFSAII (Michael W. Deem and Ramdas Pophale) SiO2 
 PCOD9301728
Probable space group: C 2/C
;
_chemical_formula_sum "Si O2"
_cell_formula_units_Z 48
_cell_length_a 7.866577
_cell_length_b 30.199507
_cell_length_c 12.412194
_cell_angle_alpha 90.000000
_cell_angle_beta 43.080817
_cell_angle_gamma 90.000000
_cell_volume 2014.065186
_symmetry_space_group_name_H-M "C 2/C"
_symmetry_group_IT_number 15
_symmetry_cell_setting 'monoclinic'
loop_
_space_group_symop_operation_xyz
x,y,z
-x,y,1/2-z
-x,-y,-z
x,-y,1/2+z
1/2+x,1/2+y,z
1/2-x,1/2+y,1/2-z
1/2-x,1/2-y,-z
1/2+x,1/2-y,1/2+z
loop_
_atom_site_type_symbol
_atom_site_label
_atom_site_fract_x
_atom_site_fract_y
_atom_site_fract_z
Si Si1 0.922735 0.545425 0.170094
Si Si2 0.643690 0.224657 0.941894
Si Si3 0.969302 0.021418 0.884241
Si Si4 0.905738 0.111705 0.626201
Si Si5 0.788227 0.796958 0.137402
Si Si6 0.415189 0.873785 0.024053
O O1 0.000000 0.564919 0.250000
O O2 0.670647 0.517558 0.292665
O O3 0.171208 0.515243 0.031906
O O4 0.909147 0.586490 0.095388
O O5 0.807092 0.212068 0.759767
O O6 0.517246 0.177276 0.027067
O O7 0.750000 0.250000 0.000000
O O8 0.441584 0.260730 0.002821
O O9 0.068288 0.060445 0.917019
O O10 0.000000 0.040585 0.750000
O O11 0.880883 0.153979 0.561954
O O12 0.668797 0.117250 0.814705
O O13 0.161983 0.120723 0.571640
O O14 0.500000 0.794177 0.250000
#
# Coordination Sequence:
#
# PCOD9301728 Si02
#       6
#     8   8   8   8   8   8
#     4  11  23  38  60  92 128 156 202 264 317 366
#     4  11  21  38  66  88 118 163 214 246 307 377
#     4  11  21  39  66  88 121 165 212 252 308 380
#     4   9  17  36  62  82 110 158 212 243 295 372
#     4  11  23  38  59  92 128 158 198 264 319 367
#     4   9  18  36  59  86 111 156 209 253 286 372
#
# _framework density 23.832395000000002
#
# number of rings (size 3 to 8) (size 9 to 14) (size 15 to 20)
#    0.000    1.667    5.000    2.000    0.000    2.000 
#    0.000    0.833    0.000    0.000    0.000    0.000 
#    0.000    0.000    0.000    0.000    0.000    0.000 
#
# Total GULP energy -133755.749049 kJ/mol
# GULP energy per Si atom -5573.156210 kJ/mol
# Density = 2.377815 g / cm^3
# Si number density = 23.832395 Si / 1000 Ang^3
#
#
#
# Elastic Constant Matrix: (Units=GPa)
#
#
# Indices 1 2 3 4 5 6 
#
# 1 42.7555 10.8225 7.5653 0.0000 -1.8933 0.0000
# 2 10.8225 198.0520 62.7714 0.0000 -18.8930 0.0000
# 3 7.5653 62.7714 77.9548 0.0000 -7.6071 0.0000
# 4 0.0000 0.0000 0.0000 30.9833 0.0000 -8.4968
# 5 -1.8933 -18.8930 -7.6071 0.0000 23.1477 0.0000
# 6 0.0000 0.0000 0.0000 -8.4968 0.0000 17.4908
#
#
#
# Elastic Compliance Matrix: (Units=1/GPa)
#
#
# Indices 1 2 3 4 5 6 
#
# 1 0.023899 -0.000694 -0.001679 0.000000 0.000837 0.000000
# 2 -0.000694 0.007151 -0.005297 0.000000 0.004039 0.000000
# 3 -0.001679 -0.005297 0.017378 0.000000 0.001250 0.000000
# 4 0.000000 0.000000 0.000000 0.037236 0.000000 0.018089
# 5 0.000837 0.004039 0.001250 0.000000 0.046977 0.000000
# 6 0.000000 0.000000 0.000000 0.018089 0.000000 0.065960
#
#
# Mechanical properties :
#
#
# Convention : Reuss Voigt Hill
#
# Bulk Modulus (GPa) = 30.22200 53.45341 41.83771
# Shear Modulus (GPa) = 22.22520 30.16458 26.19489
#
# Velocity S-wave (km/s) = 3.05710 3.56152 3.31891
# Velocity P-wave (km/s) = 5.01695 6.27616 5.68155
#
# Compressibility (1/GPa) = 0.03308848
#
# Stress axis : x y z
#
# Youngs Moduli (GPa) = 41.84351 139.83591 57.54382
#
# Poissons Ratio (x) = 0.09705 0.09660
# Poissons Ratio (y) = 0.02904 0.30480
# Poissons Ratio (z) = 0.07025 0.74069
#
# Static dielectric constant tensor:
#      x y z
#    x 2.290130 0.000000 0.227960 
#    y 0.000000 1.958890 0.000000 
#    z 0.227960 0.000000 2.059610 
# 
# From -- ./inp_files/139382.got.cif
#   From: 2010.05.17/outbox.cif.g08.bks.cpg/sg15_70_cif.got.tgz:139382.got - 2010.06.03 18:47:42.
