data_PCOD9301614
_publ_section_title
;
Structure prediction by ZEFSAII (Michael W. Deem and Ramdas Pophale) SiO2 
 PCOD9301614
Probable space group: C 2/C
;
_chemical_formula_sum "Si O2"
_cell_formula_units_Z 60
_cell_length_a 17.902813
_cell_length_b 21.390733
_cell_length_c 12.208981
_cell_angle_alpha 90.000000
_cell_angle_beta 41.252753
_cell_angle_gamma 90.000000
_cell_volume 3082.928181
_symmetry_space_group_name_H-M "C 2/C"
_symmetry_group_IT_number 15
_symmetry_cell_setting 'monoclinic'
loop_
_space_group_symop_operation_xyz
x,y,z
-x,y,1/2-z
-x,-y,-z
x,-y,1/2+z
1/2+x,1/2+y,z
1/2-x,1/2+y,1/2-z
1/2-x,1/2-y,-z
1/2+x,1/2-y,1/2+z
loop_
_atom_site_type_symbol
_atom_site_label
_atom_site_fract_x
_atom_site_fract_y
_atom_site_fract_z
Si Si1 0.518950 0.410220 0.897731
Si Si2 0.235817 0.139748 0.050251
Si Si3 0.677673 0.315859 0.391019
Si Si4 0.500000 0.065322 0.250000
Si Si5 0.056233 0.307269 0.065704
Si Si6 0.188997 0.481860 0.161077
Si Si7 0.068209 0.043802 0.574917
Si Si8 0.611198 0.120720 0.914815
O O1 0.609216 0.371219 0.730181
O O2 0.503359 0.480258 0.870467
O O3 0.398114 0.377912 0.025800
O O4 0.561139 0.414945 0.974800
O O5 0.231915 0.187298 0.952709
O O6 0.322655 0.160670 0.046364
O O7 0.280898 0.074150 0.954709
O O8 0.591558 0.258787 0.473453
O O9 0.782838 0.331145 0.197011
O O10 0.438410 0.105735 0.411831
O O11 0.589225 0.022395 0.218101
O O12 0.000000 0.300852 0.250000
O O13 0.978292 0.348181 0.071352
O O14 0.152103 0.444646 0.312281
O O15 0.302446 0.523099 0.048945
O O16 0.000000 0.074143 0.750000
#
# Coordination Sequence:
#
# PCOD9301614 Si02
#       8
#     8   8   8   4   8   8   8   8
#     4  11  22  36  59  89 129 163 203 251 312 375
#     4  11  21  37  62  96 128 155 203 262 316 376
#     4  11  23  40  65  91 126 161 207 263 321 363
#     4  12  28  42  68  84 136 172 210 256 318 382
#     4  12  23  40  67  94 129 161 210 266 322 370
#     4  11  22  40  65  92 127 166 207 255 313 381
#     4  11  22  36  59  90 127 166 203 251 308 370
#     4  11  26  45  61  98 124 166 217 261 315 386
#
# _framework density 19.462015999999998
#
# number of rings (size 3 to 8) (size 9 to 14) (size 15 to 20)
#    0.000    0.800    6.667    2.800    7.467    0.000 
#    0.000    0.667    1.467    0.000    0.000    0.000 
#    0.000    0.000    0.000    0.000    0.000    0.000 
#
# Total GULP energy -167543.322969 kJ/mol
# GULP energy per Si atom -5584.777432 kJ/mol
# Density = 1.941772 g / cm^3
# Si number density = 19.462016 Si / 1000 Ang^3
#
#
#
# Elastic Constant Matrix: (Units=GPa)
#
#
# Indices 1 2 3 4 5 6 
#
# 1 37.3189 12.8475 42.5259 0.0000 -0.2589 0.0000
# 2 12.8475 38.3335 30.9579 0.0000 5.7648 0.0000
# 3 42.5259 30.9579 124.9497 0.0000 3.3250 0.0000
# 4 0.0000 0.0000 0.0000 11.6744 0.0000 5.8236
# 5 -0.2589 5.7648 3.3250 0.0000 33.6458 0.0000
# 6 0.0000 0.0000 0.0000 5.8236 0.0000 -5.6733
#
#
#
# Elastic Compliance Matrix: (Units=1/GPa)
#
#
# Indices 1 2 3 4 5 6 
#
# 1 0.044294 -0.003723 -0.014216 0.000000 0.002384 0.000000
# 2 -0.003723 0.033718 -0.006951 0.000000 -0.005119 0.000000
# 3 -0.014216 -0.006951 0.014573 0.000000 -0.000359 0.000000
# 4 0.000000 0.000000 0.000000 0.056650 0.000000 0.058151
# 5 0.002384 -0.005119 -0.000359 0.000000 0.030652 0.000000
# 6 0.000000 0.000000 0.000000 0.058151 0.000000 -0.116573
#
#
# Mechanical properties :
#
#
# Convention : Reuss Voigt Hill
#
# Bulk Modulus (GPa) = 23.36143 41.47384 32.41764
# Shear Modulus (GPa) = 39.25800 15.54743 27.40272
#
# Velocity S-wave (km/s) = 4.49615 2.82948 3.75642
# Velocity P-wave (km/s) = 6.24368 5.65959 5.95880
#
# Compressibility (1/GPa) = 0.04280560
#
# Stress axis : x y z
#
# Youngs Moduli (GPa) = 22.57636 29.65801 68.61836
#
# Poissons Ratio (x) = 0.11041 0.97550
# Poissons Ratio (y) = 0.08404 0.47695
# Poissons Ratio (z) = 0.32095 0.20615
#
# Static dielectric constant tensor:
#      x y z
#    x 1.684050 0.000000 0.000750 
#    y 0.000000 1.697100 0.000000 
#    z 0.000750 0.000000 1.732920 
# 
# From -- ./inp_files/100667.got.cif
#   From: 2010.05.17/outbox.cif.g08.bks.cpg/sg15_51_cif.got.tgz:100667.got - 2010.06.03 18:47:42.
