data_PCOD9301044
_publ_section_title
;
Structure prediction by ZEFSAII (Michael W. Deem and Ramdas Pophale) SiO2 
 PCOD9301044
Probable space group: C 2/C
;
_chemical_formula_sum "Si O2"
_cell_formula_units_Z 56
_cell_length_a 23.338743
_cell_length_b 20.618030
_cell_length_c 12.175723
_cell_angle_alpha 90.000000
_cell_angle_beta 151.309022
_cell_angle_gamma 90.000000
_cell_volume 2812.793581
_symmetry_space_group_name_H-M "C 2/C"
_symmetry_group_IT_number 15
_symmetry_cell_setting 'monoclinic'
loop_
_space_group_symop_operation_xyz
x,y,z
-x,y,1/2-z
-x,-y,-z
x,-y,1/2+z
1/2+x,1/2+y,z
1/2-x,1/2+y,1/2-z
1/2-x,1/2-y,-z
1/2+x,1/2-y,1/2+z
loop_
_atom_site_type_symbol
_atom_site_label
_atom_site_fract_x
_atom_site_fract_y
_atom_site_fract_z
Si Si1 0.643292 0.863059 0.695247
Si Si2 0.465123 0.269132 0.502036
Si Si3 0.780026 0.175115 0.035251
Si Si4 0.141242 0.582206 0.967562
Si Si5 0.267243 0.170192 0.792898
Si Si6 0.389394 0.286100 0.123470
Si Si7 0.879960 0.564087 0.119716
O O1 0.542980 0.809140 0.492384
O O2 0.681894 0.910126 0.661547
O O3 0.603137 0.903995 0.732798
O O4 0.764308 0.823209 0.924097
O O5 0.576967 0.316300 0.713108
O O6 0.359198 0.296789 0.397601
O O7 0.432011 0.271816 0.317838
O O8 0.750000 0.250000 0.000000
O O9 0.715778 0.132581 0.019864
O O10 0.729273 0.156191 0.830365
O O11 0.153572 0.511285 0.935600
O O12 0.000000 0.593196 0.750000
O O13 0.361273 0.222595 0.000856
O O14 0.282974 0.106321 0.891574
O O15 0.500000 0.321269 0.250000
O O16 0.000000 0.570016 0.250000
#
# Coordination Sequence:
#
# PCOD9301044 Si02
#       7
#     8   8   8   8   8   8   8
#     4  11  22  42  67  93 132 167 217 271 317 385
#     4  11  21  40  64  99 128 167 215 269 331 384
#     4  12  25  40  66  97 132 164 210 274 337 386
#     4  11  27  43  63  95 132 174 213 264 329 386
#     4  11  22  40  63  97 129 168 213 273 326 382
#     4  11  20  36  65  96 128 167 219 267 324 382
#     4  11  25  41  67  94 124 175 223 265 313 391
#
# _framework density 19.909033000000001
#
# number of rings (size 3 to 8) (size 9 to 14) (size 15 to 20)
#    0.000    0.857    2.857    6.000    6.000    1.143 
#    0.000    0.714    0.000    0.000    0.000    0.000 
#    0.000    0.000    0.000    0.000    0.000    0.000 
#
# Total GULP energy -156234.172277 kJ/mol
# GULP energy per Si atom -5579.791867 kJ/mol
# Density = 1.986372 g / cm^3
# Si number density = 19.909033 Si / 1000 Ang^3
#
#
#
# Elastic Constant Matrix: (Units=GPa)
#
#
# Indices 1 2 3 4 5 6 
#
# 1 120.9892 48.0885 11.1143 0.0000 -12.7395 0.0000
# 2 48.0885 120.9382 18.0104 0.0000 0.3900 0.0000
# 3 11.1143 18.0104 47.6883 0.0000 -10.2462 0.0000
# 4 0.0000 0.0000 0.0000 16.3674 0.0000 3.9345
# 5 -12.7395 0.3900 -10.2462 0.0000 34.0970 0.0000
# 6 0.0000 0.0000 0.0000 3.9345 0.0000 34.3492
#
#
#
# Elastic Compliance Matrix: (Units=1/GPa)
#
#
# Indices 1 2 3 4 5 6 
#
# 1 0.010310 -0.004110 -0.000014 0.000000 0.003895 0.000000
# 2 -0.004110 0.010444 -0.003573 0.000000 -0.002729 0.000000
# 3 -0.000014 -0.003573 0.023871 0.000000 0.007209 0.000000
# 4 0.000000 0.000000 0.000000 0.062827 0.000000 -0.007196
# 5 0.003895 -0.002729 0.007209 0.000000 0.032981 0.000000
# 6 0.000000 0.000000 0.000000 -0.007196 0.000000 0.029937
#
#
# Mechanical properties :
#
#
# Convention : Reuss Voigt Hill
#
# Bulk Modulus (GPa) = 34.20936 49.33802 41.77369
# Shear Modulus (GPa) = 25.57453 31.12288 28.34870
#
# Velocity S-wave (km/s) = 3.58798 3.95809 3.77757
# Velocity P-wave (km/s) = 5.86386 6.76196 6.32887
#
# Compressibility (1/GPa) = 0.02923177
#
# Stress axis : x y z
#
# Youngs Moduli (GPa) = 96.99119 95.75018 41.89203
#
# Poissons Ratio (x) = 0.39355 0.00058
# Poissons Ratio (y) = 0.39865 0.14967
# Poissons Ratio (z) = 0.00134 0.34208
#
# Static dielectric constant tensor:
#      x y z
#    x 1.740930 0.000000 0.022520 
#    y 0.000000 1.688320 0.000000 
#    z 0.022520 0.000000 2.118140 
# 
# From -- ./inp_files/89046.got.cif
#   From: 2010.05.17/outbox.cif.g08.bks.cpg/sg15_45_cif.got.tgz:89046.got - 2010.06.03 18:47:42.
