data_PCOD9301642
_publ_section_title
;
Structure prediction by ZEFSAII (Michael W. Deem and Ramdas Pophale) SiO2 
 PCOD9301642
Probable space group: C 2/C
;
_chemical_formula_sum "Si O2"
_cell_formula_units_Z 56
_cell_length_a 13.518326
_cell_length_b 18.272631
_cell_length_c 12.589160
_cell_angle_alpha 90.000000
_cell_angle_beta 58.287803
_cell_angle_gamma 90.000000
_cell_volume 2645.433153
_symmetry_space_group_name_H-M "C 2/C"
_symmetry_group_IT_number 15
_symmetry_cell_setting 'monoclinic'
loop_
_space_group_symop_operation_xyz
x,y,z
-x,y,1/2-z
-x,-y,-z
x,-y,1/2+z
1/2+x,1/2+y,z
1/2-x,1/2+y,1/2-z
1/2-x,1/2-y,-z
1/2+x,1/2-y,1/2+z
loop_
_atom_site_type_symbol
_atom_site_label
_atom_site_fract_x
_atom_site_fract_y
_atom_site_fract_z
Si Si1 0.637320 0.437232 0.166737
Si Si2 0.712591 0.295044 0.739149
Si Si3 0.265780 0.877034 0.298507
Si Si4 0.520935 0.819595 0.854142
Si Si5 0.740839 0.591834 0.047018
Si Si6 0.646997 0.697429 0.512765
Si Si7 0.490440 0.078779 0.559909
O O1 0.500000 0.451240 0.250000
O O2 0.683345 0.398577 0.247368
O O3 0.704624 0.512895 0.111077
O O4 0.660673 0.381148 0.057624
O O5 0.710399 0.209713 0.711921
O O6 0.685071 0.346381 0.654518
O O7 0.643620 0.306533 0.887398
O O8 0.843699 0.316463 0.698323
O O9 0.210077 0.900142 0.441212
O O10 0.389056 0.916300 0.203634
O O11 0.500000 0.852918 0.750000
O O12 0.468917 0.738409 0.884255
O O13 0.459814 0.864579 0.982443
O O14 0.881404 0.599351 0.971493
O O15 0.750000 0.750000 0.500000
O O16 0.500000 0.000000 0.500000
#
# Coordination Sequence:
#
# PCOD9301642 Si02
#       7
#     8   8   8   8   8   8   8
#     4  12  27  47  71 104 140 186 233 290 353 408
#     4  11  24  43  68 102 139 182 231 287 350 417
#     4  12  23  48  72  98 142 183 237 292 346 420
#     4  11  21  37  65 102 131 174 230 290 340 400
#     4  11  28  45  68 103 142 188 230 282 360 428
#     4  12  21  40  71 102 133 175 236 288 338 403
#     4  11  23  42  67 103 140 177 228 291 355 406
#
# _framework density 21.168555999999999
#
# number of rings (size 3 to 8) (size 9 to 14) (size 15 to 20)
#    0.000    0.571    5.714    2.143    2.000    1.714 
#    2.571    1.429    0.000    0.000    0.000    0.000 
#    0.000    0.000    0.000    0.000    0.000    0.000 
#
# Total GULP energy -156661.470375 kJ/mol
# GULP energy per Si atom -5595.052513 kJ/mol
# Density = 2.112038 g / cm^3
# Si number density = 21.168556 Si / 1000 Ang^3
#
#
#
# Elastic Constant Matrix: (Units=GPa)
#
#
# Indices 1 2 3 4 5 6 
#
# 1 29.0438 6.7915 7.8710 0.0000 -7.5066 0.0000
# 2 6.7915 121.1065 42.5754 0.0000 21.5515 0.0000
# 3 7.8710 42.5754 124.8447 0.0000 19.0765 0.0000
# 4 0.0000 0.0000 0.0000 30.4974 0.0000 4.6659
# 5 -7.5066 21.5515 19.0765 0.0000 25.7938 0.0000
# 6 0.0000 0.0000 0.0000 4.6659 0.0000 24.7117
#
#
#
# Elastic Compliance Matrix: (Units=1/GPa)
#
#
# Indices 1 2 3 4 5 6 
#
# 1 0.041268 -0.004197 -0.003993 0.000000 0.018470 0.000000
# 2 -0.004197 0.010769 -0.002082 0.000000 -0.008680 0.000000
# 3 -0.003993 -0.002082 0.010015 0.000000 -0.006830 0.000000
# 4 0.000000 0.000000 0.000000 0.033765 0.000000 -0.006375
# 5 0.018470 -0.008680 -0.006830 0.000000 0.056447 0.000000
# 6 0.000000 0.000000 0.000000 -0.006375 0.000000 0.041670
#
#
# Mechanical properties :
#
#
# Convention : Reuss Voigt Hill
#
# Bulk Modulus (GPa) = 24.09123 43.27454 33.68288
# Shear Modulus (GPa) = 21.89961 30.71772 26.30867
#
# Velocity S-wave (km/s) = 3.21991 3.81346 3.52919
# Velocity P-wave (km/s) = 5.02286 6.31484 5.70554
#
# Compressibility (1/GPa) = 0.04150888
#
# Stress axis : x y z
#
# Youngs Moduli (GPa) = 24.23187 92.85921 99.84896
#
# Poissons Ratio (x) = 0.38977 0.39865
# Poissons Ratio (y) = 0.10171 0.20784
# Poissons Ratio (z) = 0.09675 0.19329
#
# Static dielectric constant tensor:
#      x y z
#    x 1.765220 0.000000 0.015780 
#    y 0.000000 1.743730 0.000000 
#    z 0.015780 0.000000 1.770830 
# 
# From -- ./inp_files/98654.got.cif
#   From: 2010.05.17/outbox.cif.g08.bks.cpg/sg15_50_cif.got.tgz:98654.got - 2010.06.03 18:47:42.
