data_PCOD9301953
_publ_section_title
;
Structure prediction by ZEFSAII (Michael W. Deem and Ramdas Pophale) SiO2 
 PCOD9301953
Probable space group: C 2/C
;
_chemical_formula_sum "Si O2"
_cell_formula_units_Z 48
_cell_length_a 28.487948
_cell_length_b 12.013241
_cell_length_c 20.273201
_cell_angle_alpha 90.000000
_cell_angle_beta 160.019892
_cell_angle_gamma 90.000000
_cell_volume 2370.723383
_symmetry_space_group_name_H-M "C 2/C"
_symmetry_group_IT_number 15
_symmetry_cell_setting 'monoclinic'
loop_
_space_group_symop_operation_xyz
x,y,z
-x,y,1/2-z
-x,-y,-z
x,-y,1/2+z
1/2+x,1/2+y,z
1/2-x,1/2+y,1/2-z
1/2-x,1/2-y,-z
1/2+x,1/2-y,1/2+z
loop_
_atom_site_type_symbol
_atom_site_label
_atom_site_fract_x
_atom_site_fract_y
_atom_site_fract_z
Si Si1 0.992174 0.900331 0.042086
Si Si2 0.609639 0.616103 0.949901
Si Si3 0.724888 0.846831 0.127893
Si Si4 0.947939 0.570887 0.606670
Si Si5 0.250068 0.232280 0.692694
Si Si6 0.627410 0.975288 0.218163
O O1 0.145056 0.851273 0.248431
O O2 0.936671 0.932772 0.040690
O O3 0.886776 0.807757 0.877348
O O4 0.000000 0.000000 0.000000
O O5 0.500000 0.584103 0.750000
O O6 0.618836 0.749959 0.968719
O O7 0.763547 0.575276 0.137957
O O8 0.776997 0.813770 0.269640
O O9 0.655947 0.967340 0.039172
O O10 0.870764 0.686166 0.489186
O O11 0.000000 0.570827 0.750000
O O12 0.065589 0.549873 0.708042
O O13 0.286563 0.130070 0.694166
O O14 0.500000 0.000000 0.000000
#
# Coordination Sequence:
#
# PCOD9301953 Si02
#       6
#     8   8   8   8   8   8
#     4  11  21  40  69  95 128 175 233 277 332 416
#     4  11  27  41  66 104 138 184 226 290 358 402
#     4  11  23  43  70  98 139 180 238 281 341 423
#     4  12  27  44  69 107 139 180 229 295 358 402
#     4  11  23  43  70 102 130 185 236 275 349 419
#     4  12  24  47  72  98 144 185 236 282 347 429
#
# _framework density 20.246984999999999
#
# number of rings (size 3 to 8) (size 9 to 14) (size 15 to 20)
#    0.000    0.667    3.333    5.500    4.667    2.000 
#    0.000    0.000    0.000    0.000    0.000    0.000 
#    0.000    0.000    0.000    0.000    0.000    0.000 
#
# Total GULP energy -134253.734477 kJ/mol
# GULP energy per Si atom -5593.905603 kJ/mol
# Density = 2.020090 g / cm^3
# Si number density = 20.246985 Si / 1000 Ang^3
#
#
#
# Elastic Constant Matrix: (Units=GPa)
#
#
# Indices 1 2 3 4 5 6 
#
# 1 120.3816 35.0494 48.1705 0.0000 3.4721 0.0000
# 2 35.0494 93.0439 24.4025 0.0000 -7.3399 0.0000
# 3 48.1705 24.4025 72.9757 0.0000 4.0307 0.0000
# 4 0.0000 0.0000 0.0000 30.5719 0.0000 6.2780
# 5 3.4721 -7.3399 4.0307 0.0000 40.6873 0.0000
# 6 0.0000 0.0000 0.0000 6.2780 0.0000 28.8497
#
#
#
# Elastic Compliance Matrix: (Units=1/GPa)
#
#
# Indices 1 2 3 4 5 6 
#
# 1 0.011881 -0.002736 -0.006882 0.000000 -0.000826 0.000000
# 2 -0.002736 0.012675 -0.002586 0.000000 0.002776 0.000000
# 3 -0.006882 -0.002586 0.019209 0.000000 -0.001782 0.000000
# 4 0.000000 0.000000 0.000000 0.034240 0.000000 -0.007451
# 5 -0.000826 0.002776 -0.001782 0.000000 0.025326 0.000000
# 6 0.000000 0.000000 0.000000 -0.007451 0.000000 0.036284
#
#
# Mechanical properties :
#
#
# Convention : Reuss Voigt Hill
#
# Bulk Modulus (GPa) = 51.65879 55.73846 53.69863
# Shear Modulus (GPa) = 29.32971 31.94037 30.63504
#
# Velocity S-wave (km/s) = 3.81017 3.97613 3.89404
# Velocity P-wave (km/s) = 6.70270 6.97628 6.84086
#
# Compressibility (1/GPa) = 0.01935779
#
# Stress axis : x y z
#
# Youngs Moduli (GPa) = 84.16689 78.89280 52.05825
#
# Poissons Ratio (x) = 0.21583 0.35828
# Poissons Ratio (y) = 0.23026 0.13463
# Poissons Ratio (z) = 0.57925 0.20402
#
# Static dielectric constant tensor:
#      x y z
#    x 1.700160 0.000000 0.002560 
#    y 0.000000 1.736600 0.000000 
#    z 0.002560 0.000000 1.723740 
# 
# From -- ./inp_files/257635.got.cif
#   From: 2010.05.17/outbox.cif.g08.bks.cpg/sg15_129_cif.got.tgz:257635.got - 2010.06.03 18:47:42.
