data_PCOD9301119
_publ_section_title
;
Structure prediction by ZEFSAII (Michael W. Deem and Ramdas Pophale) SiO2 
 PCOD9301119
Probable space group: C 2/C
;
_chemical_formula_sum "Si O2"
_cell_formula_units_Z 44
_cell_length_a 10.828892
_cell_length_b 18.776021
_cell_length_c 9.410219
_cell_angle_alpha 90.000000
_cell_angle_beta 64.797725
_cell_angle_gamma 90.000000
_cell_volume 1731.190169
_symmetry_space_group_name_H-M "C 2/C"
_symmetry_group_IT_number 15
_symmetry_cell_setting 'monoclinic'
loop_
_space_group_symop_operation_xyz
x,y,z
-x,y,1/2-z
-x,-y,-z
x,-y,1/2+z
1/2+x,1/2+y,z
1/2-x,1/2+y,1/2-z
1/2-x,1/2-y,-z
1/2+x,1/2-y,1/2+z
loop_
_atom_site_type_symbol
_atom_site_label
_atom_site_fract_x
_atom_site_fract_y
_atom_site_fract_z
Si Si1 0.085026 0.818001 0.087721
Si Si2 0.403479 0.203633 0.662485
Si Si3 0.144831 0.411677 0.517106
Si Si4 0.759374 0.517104 0.261540
Si Si5 0.163381 0.872981 0.421459
Si Si6 0.500000 0.408080 0.750000
O O1 0.221295 0.859859 0.057242
O O2 0.000000 0.774882 0.250000
O O3 0.972277 0.876693 0.106284
O O4 0.108536 0.769527 0.938875
O O5 0.500000 0.211240 0.750000
O O6 0.451691 0.137858 0.534968
O O7 0.260520 0.186368 0.810711
O O8 0.168774 0.482968 0.411849
O O9 0.149490 0.431405 0.682776
O O10 0.735267 0.448161 0.371677
O O11 0.610038 0.547293 0.289833
O O12 0.104057 0.862170 0.605599
#
# Coordination Sequence:
#
# PCOD9301119 Si02
#       6
#     8   8   8   8   8   4
#     4  12  23  44  71 105 141 181 236 304 354 411
#     4  11  28  50  66  97 151 197 242 283 336 427
#     4  11  23  43  70 108 143 179 228 294 368 419
#     4  11  20  37  71 109 144 170 218 303 370 415
#     4  11  24  41  70 107 141 174 234 296 357 418
#     4  12  20  36  70 114 138 174 222 304 370 406
#
# _framework density 25.416042000000001
#
# number of rings (size 3 to 8) (size 9 to 14) (size 15 to 20)
#    0.000    0.727    7.273    2.182    1.273    0.727 
#    3.273    3.636    0.000    0.000    0.000    0.000 
#    0.000    0.000    0.000    0.000    0.000    0.000 
#
# Total GULP energy -122745.720527 kJ/mol
# GULP energy per Si atom -5579.350933 kJ/mol
# Density = 2.535819 g / cm^3
# Si number density = 25.416042 Si / 1000 Ang^3
#
#
#
# Elastic Constant Matrix: (Units=GPa)
#
#
# Indices 1 2 3 4 5 6 
#
# 1 81.1298 23.1706 31.2899 0.0000 12.7274 0.0000
# 2 23.1706 70.0139 41.9542 0.0000 11.8172 0.0000
# 3 31.2899 41.9542 144.9251 0.0000 29.4586 0.0000
# 4 0.0000 0.0000 0.0000 39.5224 0.0000 6.7919
# 5 12.7274 11.8172 29.4586 0.0000 30.4886 0.0000
# 6 0.0000 0.0000 0.0000 6.7919 0.0000 21.9724
#
#
#
# Elastic Compliance Matrix: (Units=1/GPa)
#
#
# Indices 1 2 3 4 5 6 
#
# 1 0.014356 -0.003314 -0.001472 0.000000 -0.003286 0.000000
# 2 -0.003314 0.018179 -0.004226 0.000000 -0.001579 0.000000
# 3 -0.001472 -0.004226 0.009935 0.000000 -0.007346 0.000000
# 4 0.000000 0.000000 0.000000 0.026722 0.000000 -0.008260
# 5 -0.003286 -0.001579 -0.007346 0.000000 0.041881 0.000000
# 6 0.000000 0.000000 0.000000 -0.008260 0.000000 0.048065
#
#
# Mechanical properties :
#
#
# Convention : Reuss Voigt Hill
#
# Bulk Modulus (GPa) = 40.90930 54.32202 47.61566
# Shear Modulus (GPa) = 26.98197 31.70697 29.34447
#
# Velocity S-wave (km/s) = 3.26177 3.53585 3.40158
# Velocity P-wave (km/s) = 5.50603 6.17165 5.84831
#
# Compressibility (1/GPa) = 0.02444432
#
# Stress axis : x y z
#
# Youngs Moduli (GPa) = 69.65876 55.01003 100.65812
#
# Poissons Ratio (x) = 0.18231 0.14818
# Poissons Ratio (y) = 0.23086 0.42537
# Poissons Ratio (z) = 0.10255 0.23247
#
# Static dielectric constant tensor:
#      x y z
#    x 2.109970 0.000000 0.105540 
#    y 0.000000 2.010550 0.000000 
#    z 0.105540 0.000000 2.175410 
# 
# From -- ./inp_files/30697.got.cif
#   From: 2010.05.17/outbox.cif.g08.bks.cpg/sg15_16_cif.got.tgz:30697.got - 2010.06.03 18:47:42.
