data_PCOD9301467
_publ_section_title
;
Structure prediction by ZEFSAII (Michael W. Deem and Ramdas Pophale) SiO2 
 PCOD9301467
Probable space group: C 2/C
;
_chemical_formula_sum "Si O2"
_cell_formula_units_Z 48
_cell_length_a 11.525478
_cell_length_b 33.694411
_cell_length_c 7.663972
_cell_angle_alpha 90.000000
_cell_angle_beta 131.679316
_cell_angle_gamma 90.000000
_cell_volume 2222.903230
_symmetry_space_group_name_H-M "C 2/C"
_symmetry_group_IT_number 15
_symmetry_cell_setting 'monoclinic'
loop_
_space_group_symop_operation_xyz
x,y,z
-x,y,1/2-z
-x,-y,-z
x,-y,1/2+z
1/2+x,1/2+y,z
1/2-x,1/2+y,1/2-z
1/2-x,1/2-y,-z
1/2+x,1/2-y,1/2+z
loop_
_atom_site_type_symbol
_atom_site_label
_atom_site_fract_x
_atom_site_fract_y
_atom_site_fract_z
Si Si1 0.936527 0.376869 0.986910
Si Si2 0.936529 0.123131 0.386146
Si Si3 0.935909 0.290523 0.986812
Si Si4 0.934962 0.457511 0.379221
Si Si5 0.065039 0.957511 0.009297
Si Si6 0.435912 0.290523 0.885009
O O1 0.978793 0.333650 0.951700
O O2 0.000000 0.375011 0.250000
O O3 0.005465 0.416879 0.971977
O O4 0.749999 0.380402 0.805555
O O5 0.000000 0.124989 0.250000
O O6 0.005467 0.083121 0.538955
O O7 0.978797 0.166350 0.505890
O O8 0.999998 0.250000 0.968584
O O9 0.000000 0.290979 0.250000
O O10 0.749999 0.288214 0.807554
O O11 0.000000 0.453812 0.250000
O O12 0.000000 0.500000 0.500000
O O13 0.750001 0.458260 0.199945
O O14 0.000000 0.953812 0.750000
O O15 0.000000 0.000000 0.000000
O O16 0.500000 0.290979 0.750000
#
# Coordination Sequence:
#
# PCOD9301467 Si02
#       6
#     8   8   8   8   8   8
#     4   9  16  26  39  58  83 114 149 186 227 273
#     4   9  16  26  39  58  83 114 149 186 227 273
#     4   9  15  21  32  50  76 108 143 179 218 265
#     4  11  21  34  51  71  95 125 159 197 238 283
#     4  11  21  34  51  71  95 125 159 197 238 283
#     4   9  15  21  32  50  76 108 143 179 218 265
#
# _framework density 21.593382999999999
#
# number of rings (size 3 to 8) (size 9 to 14) (size 15 to 20)
#    0.000    2.333    0.000    8.000    0.000    4.000 
#    0.000    0.000    0.000    0.000    0.000    0.000 
#    0.000    1.333    0.000   14.000    0.000   12.667 
#
# Total GULP energy -133738.901993 kJ/mol
# GULP energy per Si atom -5572.454250 kJ/mol
# Density = 2.154424 g / cm^3
# Si number density = 21.593383 Si / 1000 Ang^3
#
#
#
# Elastic Constant Matrix: (Units=GPa)
#
#
# Indices 1 2 3 4 5 6 
#
# 1 32.9136 45.1547 33.1591 0.0000 10.9471 0.0000
# 2 45.1547 318.7860 77.9998 0.0000 35.8810 0.0000
# 3 33.1591 77.9998 78.0565 0.0000 38.3690 0.0000
# 4 0.0000 0.0000 0.0000 31.8466 0.0000 24.8217
# 5 10.9471 35.8810 38.3690 0.0000 34.8426 0.0000
# 6 0.0000 0.0000 0.0000 24.8217 0.0000 9.1276
#
#
#
# Elastic Compliance Matrix: (Units=1/GPa)
#
#
# Indices 1 2 3 4 5 6 
#
# 1 0.060556 -0.002819 -0.032663 0.000000 0.019846 0.000000
# 2 -0.002819 0.004290 -0.002949 0.000000 -0.000284 0.000000
# 3 -0.032663 -0.002949 0.050353 0.000000 -0.042149 0.000000
# 4 0.000000 0.000000 0.000000 -0.028047 0.000000 0.076272
# 5 0.019846 -0.000284 -0.042149 0.000000 0.069173 0.000000
# 6 0.000000 0.000000 0.000000 0.076272 0.000000 -0.097858
#
#
# Mechanical properties :
#
#
# Convention : Reuss Voigt Hill
#
# Bulk Modulus (GPa) = 26.08569 82.48702 54.28636
# Shear Modulus (GPa) = 33.75924 33.39287 33.57606
#
# Velocity S-wave (km/s) = 3.95828 3.93675 3.94753
# Velocity P-wave (km/s) = 5.74433 7.67770 6.78028
#
# Compressibility (1/GPa) = 0.03833520
#
# Stress axis : x y z
#
# Youngs Moduli (GPa) = 16.51362 233.10598 19.85994
#
# Poissons Ratio (x) = 0.65723 0.64868
# Poissons Ratio (y) = 0.04656 0.05858
# Poissons Ratio (z) = 0.53938 0.68755
#
# Static dielectric constant tensor:
#      x y z
#    x 1.877590 0.000000 -0.104220 
#    y 0.000000 1.973810 0.000000 
#    z -0.104220 0.000000 1.782190 
# 
# From -- ./inp_files/101718.got.cif
#   From: 2010.05.17/outbox.cif.g08.bks.cpg/sg15_51_cif.got.tgz:101718.got - 2010.06.03 18:47:42.
