data_PCOD9301725
_publ_section_title
;
Structure prediction by ZEFSAII (Michael W. Deem and Ramdas Pophale) SiO2 
 PCOD9301725
Probable space group: C 2/C
;
_chemical_formula_sum "Si O2"
_cell_formula_units_Z 60
_cell_length_a 10.959404
_cell_length_b 18.372244
_cell_length_c 18.790207
_cell_angle_alpha 90.000000
_cell_angle_beta 42.219291
_cell_angle_gamma 90.000000
_cell_volume 2542.322104
_symmetry_space_group_name_H-M "C 2/C"
_symmetry_group_IT_number 15
_symmetry_cell_setting 'monoclinic'
loop_
_space_group_symop_operation_xyz
x,y,z
-x,y,1/2-z
-x,-y,-z
x,-y,1/2+z
1/2+x,1/2+y,z
1/2-x,1/2+y,1/2-z
1/2-x,1/2-y,-z
1/2+x,1/2-y,1/2+z
loop_
_atom_site_type_symbol
_atom_site_label
_atom_site_fract_x
_atom_site_fract_y
_atom_site_fract_z
Si Si1 0.964776 0.272072 0.622050
Si Si2 0.000000 0.525502 0.250000
Si Si3 0.231763 0.226081 0.628595
Si Si4 0.307161 0.209522 0.859244
Si Si5 0.723780 0.630584 0.298189
Si Si6 0.709880 0.558535 0.646543
Si Si7 0.671215 0.358140 0.563086
Si Si8 0.428956 0.986219 0.438222
O O1 0.819943 0.215108 0.654434
O O2 0.865179 0.348756 0.675657
O O3 0.057798 0.248952 0.655755
O O4 0.111969 0.277427 0.497866
O O5 0.172794 0.575521 0.195691
O O6 0.058983 0.485824 0.152252
O O7 0.292383 0.290390 0.655667
O O8 0.216015 0.144156 0.663772
O O9 0.500000 0.180734 0.750000
O O10 0.215099 0.168223 0.964026
O O11 0.334540 0.290551 0.880574
O O12 0.528932 0.607440 0.354237
O O13 0.500000 0.535421 0.750000
O O14 0.793314 0.547084 0.530547
O O15 0.862764 0.515621 0.625467
O O16 0.831774 0.413509 0.509661
#
# Coordination Sequence:
#
# PCOD9301725 Si02
#       8
#     8   4   8   8   8   8   8   8
#     4  11  21  38  66 104 136 178 217 296 357 412
#     4  12  28  50  70 102 150 194 234 304 362 438
#     4  11  23  42  70 107 137 172 237 303 350 409
#     4  11  23  40  67 103 139 177 225 292 354 412
#     4  12  23  43  71 104 137 179 237 289 364 418
#     4  11  26  50  77 101 139 193 248 297 356 429
#     4  11  26  43  66 103 142 184 234 288 350 427
#     4  11  29  51  70 104 148 196 243 291 353 452
#
# _framework density 23.600470999999999
#
# number of rings (size 3 to 8) (size 9 to 14) (size 15 to 20)
#    0.000    0.800    4.000    2.400    6.533    3.200 
#    0.000    0.000    0.000    0.000    0.000    0.000 
#    0.000    0.000    0.000    0.000    0.000    0.000 
#
# Total GULP energy -167786.132863 kJ/mol
# GULP energy per Si atom -5592.871095 kJ/mol
# Density = 2.354676 g / cm^3
# Si number density = 23.600471 Si / 1000 Ang^3
#
#
#
# Elastic Constant Matrix: (Units=GPa)
#
#
# Indices 1 2 3 4 5 6 
#
# 1 100.1136 9.0080 50.6582 0.0009 -19.3708 -0.0005
# 2 9.0080 58.2336 19.9684 0.0059 -7.1481 -0.0038
# 3 50.6582 19.9684 139.4110 0.0029 -17.2982 -0.0032
# 4 0.0009 0.0059 0.0029 32.4244 -0.0012 8.3266
# 5 -19.3708 -7.1481 -17.2982 -0.0012 55.0912 0.0006
# 6 -0.0005 -0.0038 -0.0032 8.3266 0.0006 20.7850
#
#
#
# Elastic Compliance Matrix: (Units=1/GPa)
#
#
# Indices 1 2 3 4 5 6 
#
# 1 0.012744 -0.000139 -0.004222 0.000000 0.003138 -0.000001
# 2 -0.000139 0.018196 -0.002361 -0.000004 0.001571 0.000005
# 3 -0.004222 -0.002361 0.009181 0.000000 0.001092 0.000001
# 4 0.000000 -0.000004 0.000000 0.034378 0.000000 -0.013772
# 5 0.003138 0.001571 0.001092 0.000000 0.019802 0.000000
# 6 -0.000001 0.000005 0.000001 -0.013772 0.000000 0.053629
#
#
# Mechanical properties :
#
#
# Convention : Reuss Voigt Hill
#
# Bulk Modulus (GPa) = 37.48348 50.78083 44.13216
# Shear Modulus (GPa) = 29.36599 36.20169 32.78384
#
# Velocity S-wave (km/s) = 3.53129 3.92080 3.73113
# Velocity P-wave (km/s) = 5.70470 6.48541 6.10754
#
# Compressibility (1/GPa) = 0.02667842
#
# Stress axis : x y z
#
# Youngs Moduli (GPa) = 78.46538 54.95692 108.92295
#
# Poissons Ratio (x) = 0.00762 0.45986
# Poissons Ratio (y) = 0.01087 0.25717
# Poissons Ratio (z) = 0.33127 0.12975
#
# Static dielectric constant tensor:
#      x y z
#    x 1.882360 0.000000 0.003970 
#    y 0.000000 1.913150 0.000000 
#    z 0.003970 0.000000 1.924760 
# 
# From -- ./inp_files/239940.got.cif
#   From: 2010.05.17/outbox.cif.g08.bks.cpg/sg15_120_cif.got.tgz:239940.got - 2010.06.03 18:47:42.
