data_PCOD9301555
_publ_section_title
;
Structure prediction by ZEFSAII (Michael W. Deem and Ramdas Pophale) SiO2 
 PCOD9301555
Probable space group: C 2/C
;
_chemical_formula_sum "Si O2"
_cell_formula_units_Z 48
_cell_length_a 13.061441
_cell_length_b 24.786010
_cell_length_c 22.101575
_cell_angle_alpha 90.000000
_cell_angle_beta 159.977127
_cell_angle_gamma 90.000000
_cell_volume 2449.901751
_symmetry_space_group_name_H-M "C 2/C"
_symmetry_group_IT_number 15
_symmetry_cell_setting 'monoclinic'
loop_
_space_group_symop_operation_xyz
x,y,z
-x,y,1/2-z
-x,-y,-z
x,-y,1/2+z
1/2+x,1/2+y,z
1/2-x,1/2+y,1/2-z
1/2-x,1/2-y,-z
1/2+x,1/2-y,1/2+z
loop_
_atom_site_type_symbol
_atom_site_label
_atom_site_fract_x
_atom_site_fract_y
_atom_site_fract_z
Si Si1 0.285569 0.743291 0.785348
Si Si2 0.838079 0.175171 0.597772
Si Si3 0.000000 0.347663 0.750000
Si Si4 0.790070 0.429511 0.530697
Si Si5 0.500000 0.104661 0.750000
Si Si6 0.078978 0.201571 0.513410
Si Si7 0.712790 0.517799 0.674362
O O1 0.445522 0.695053 0.836551
O O2 0.000310 0.762430 0.588413
O O3 0.530964 0.791348 0.922234
O O4 0.236929 0.726920 0.828139
O O5 0.770184 0.111467 0.557162
O O6 0.000000 0.188878 0.750000
O O7 0.139433 0.387272 0.876610
O O8 0.255915 0.311393 0.863286
O O9 0.499513 0.462379 0.389960
O O10 0.068709 0.470082 0.683591
O O11 0.404429 0.066654 0.752343
O O12 0.229374 0.144323 0.582170
O O13 0.500000 0.500000 0.500000
#
# Coordination Sequence:
#
# PCOD9301555 Si02
#       7
#     8   8   4   8   4   8   8
#     4  11  21  36  61  89 127 158 204 250 304 360
#     4  11  21  36  60  91 119 162 204 251 298 362
#     4  12  17  32  58  88 110 146 194 249 296 344
#     4  12  22  35  60  88 122 147 202 255 307 355
#     4  12  23  38  60  90 132 156 202 257 316 348
#     4  12  23  37  61  93 126 162 201 252 303 368
#     4  12  21  36  59  91 119 152 198 262 308 352
#
# _framework density 19.592623
#
# number of rings (size 3 to 8) (size 9 to 14) (size 15 to 20)
#    0.000    0.333   10.000    1.000    0.000    0.667 
#    0.000    0.833    0.000    0.000    0.000    0.000 
#    0.000    0.000    0.000    0.000    0.000    0.000 
#
# Total GULP energy -134154.256253 kJ/mol
# GULP energy per Si atom -5589.760677 kJ/mol
# Density = 1.954803 g / cm^3
# Si number density = 19.592623 Si / 1000 Ang^3
#
#
#
# Elastic Constant Matrix: (Units=GPa)
#
#
# Indices 1 2 3 4 5 6 
#
# 1 54.4694 27.1171 37.6361 -0.0083 -8.5586 0.0327
# 2 27.1171 116.3441 51.3498 -0.0070 1.3639 -0.0152
# 3 37.6361 51.3498 94.1212 0.1420 -13.1763 -0.0253
# 4 -0.0083 -0.0070 0.1420 50.3330 -0.0188 2.6192
# 5 -8.5586 1.3639 -13.1763 -0.0188 36.7529 0.0115
# 6 0.0327 -0.0152 -0.0253 2.6192 0.0115 32.1833
#
#
#
# Elastic Compliance Matrix: (Units=1/GPa)
#
#
# Indices 1 2 3 4 5 6 
#
# 1 0.025990 -0.002227 -0.008758 0.000032 0.002995 -0.000038
# 2 -0.002227 0.011787 -0.005974 0.000017 -0.003098 0.000003
# 3 -0.008758 -0.005974 0.018037 -0.000053 0.004648 0.000023
# 4 0.000032 0.000017 -0.000053 0.019952 -0.000001 -0.001624
# 5 0.002995 -0.003098 0.004648 -0.000001 0.029688 -0.000011
# 6 -0.000038 0.000003 0.000023 -0.001624 -0.000011 0.031204
#
#
# Mechanical properties :
#
#
# Convention : Reuss Voigt Hill
#
# Bulk Modulus (GPa) = 45.67190 55.23785 50.45487
# Shear Modulus (GPa) = 28.10956 33.77594 30.94275
#
# Velocity S-wave (km/s) = 3.79185 4.15651 3.97836
# Velocity P-wave (km/s) = 6.52168 7.16169 6.84916
#
# Compressibility (1/GPa) = 0.02189530
#
# Stress axis : x y z
#
# Youngs Moduli (GPa) = 38.47637 84.83734 55.44234
#
# Poissons Ratio (x) = 0.18895 0.48558
# Poissons Ratio (y) = 0.08570 0.33121
# Poissons Ratio (z) = 0.33699 0.50681
#
# Static dielectric constant tensor:
#      x y z
#    x 1.728380 -0.000010 -0.005930 
#    y -0.000010 1.691950 -0.000070 
#    z -0.005930 -0.000070 1.720840 
# 
# From -- ./inp_files/108164.got.cif
#   From: 2010.05.17/outbox.cif.g08.bks.cpg/sg15_55_cif.got.tgz:108164.got - 2010.06.03 18:47:42.
