data_PCOD9301484
_publ_section_title
;
Structure prediction by ZEFSAII (Michael W. Deem and Ramdas Pophale) SiO2 
 PCOD9301484
Probable space group: C 2/C
;
_chemical_formula_sum "Si O2"
_cell_formula_units_Z 64
_cell_length_a 16.860280
_cell_length_b 10.009896
_cell_length_c 27.762187
_cell_angle_alpha 90.000000
_cell_angle_beta 140.482645
_cell_angle_gamma 90.000000
_cell_volume 2981.385127
_symmetry_space_group_name_H-M "C 2/C"
_symmetry_group_IT_number 15
_symmetry_cell_setting 'monoclinic'
loop_
_space_group_symop_operation_xyz
x,y,z
-x,y,1/2-z
-x,-y,-z
x,-y,1/2+z
1/2+x,1/2+y,z
1/2-x,1/2+y,1/2-z
1/2-x,1/2-y,-z
1/2+x,1/2-y,1/2+z
loop_
_atom_site_type_symbol
_atom_site_label
_atom_site_fract_x
_atom_site_fract_y
_atom_site_fract_z
Si Si1 0.963217 0.485318 0.585157
Si Si2 0.195970 0.080584 0.915733
Si Si3 0.989410 0.251254 0.454743
Si Si4 0.019632 0.973437 0.415692
Si Si5 0.276424 0.653454 0.418310
Si Si6 0.135302 0.254629 0.624784
Si Si7 0.901298 0.583640 0.660967
Si Si8 0.854599 0.147228 0.174026
O O1 0.823337 0.438820 0.505373
O O2 0.958169 0.531618 0.637952
O O3 0.996493 0.612048 0.567435
O O4 0.058468 0.365881 0.618321
O O5 0.076001 0.032476 0.889056
O O6 0.186212 0.235583 0.898291
O O7 0.207559 0.986418 0.874830
O O8 0.851429 0.224447 0.410808
O O9 0.077541 0.253749 0.543399
O O10 0.017464 0.122333 0.435199
O O11 0.119970 0.891016 0.494563
O O12 0.893443 0.889349 0.365098
O O13 0.204005 0.519869 0.371906
O O14 0.278497 0.296465 0.684125
O O15 0.847662 0.733234 0.631353
O O16 0.000000 0.590963 0.750000
O O17 0.000000 0.120355 0.250000
#
# Coordination Sequence:
#
# PCOD9301484 Si02
#       8
#     8   8   8   8   8   8   8   8
#     4  12  22  39  65  98 125 163 209 265 314 368
#     4  12  22  38  65  97 129 158 212 264 314 369
#     4  11  21  34  61  98 126 156 206 260 317 362
#     4  11  21  34  60  98 125 161 201 264 311 366
#     4  11  21  38  61  92 129 158 203 262 313 372
#     4  11  21  39  62  94 128 161 202 260 320 368
#     4  11  25  44  62  87 127 174 211 253 315 377
#     4  11  25  44  62  88 129 171 210 256 315 381
#
# _framework density 21.466532000000001
#
# number of rings (size 3 to 8) (size 9 to 14) (size 15 to 20)
#    0.000    0.750    5.000    6.000    0.000    1.500 
#    0.000    6.250    0.000    0.000    0.000    0.000 
#    0.000    0.000    0.000    0.000    0.000    0.000 
#
# Total GULP energy -178952.228513 kJ/mol
# GULP energy per Si atom -5592.257141 kJ/mol
# Density = 2.141767 g / cm^3
# Si number density = 21.466532 Si / 1000 Ang^3
#
#
#
# Elastic Constant Matrix: (Units=GPa)
#
#
# Indices 1 2 3 4 5 6 
#
# 1 75.9156 -7.4975 0.7054 0.0000 14.6245 0.0000
# 2 -7.4975 96.9968 -1.5856 0.0000 -1.6576 0.0000
# 3 0.7054 -1.5856 23.6512 0.0000 8.4221 0.0000
# 4 0.0000 0.0000 0.0000 -8.4009 0.0000 39.9541
# 5 14.6245 -1.6576 8.4221 0.0000 16.1587 0.0000
# 6 0.0000 0.0000 0.0000 39.9541 0.0000 -3.0236
#
#
#
# Elastic Compliance Matrix: (Units=1/GPa)
#
#
# Indices 1 2 3 4 5 6 
#
# 1 0.016725 0.001081 0.006047 0.000000 -0.018177 0.000000
# 2 0.001081 0.010400 0.000778 0.000000 -0.000317 0.000000
# 3 0.006047 0.000778 0.054118 0.000000 -0.033599 0.000000
# 4 0.000000 0.000000 0.000000 0.001925 0.000000 0.025433
# 5 -0.018177 -0.000317 -0.033599 0.000000 0.095818 0.000000
# 6 0.000000 0.000000 0.000000 0.025433 0.000000 0.005348
#
#
# Mechanical properties :
#
#
# Convention : Reuss Voigt Hill
#
# Bulk Modulus (GPa) = 10.30359 19.97872 15.14115
# Shear Modulus (GPa) = 24.89130 14.60959 19.75045
#
# Velocity S-wave (km/s) = 3.40890 2.61161 3.03654
# Velocity P-wave (km/s) = 4.50604 4.29199 4.40031
#
# Compressibility (1/GPa) = 0.09705357
#
# Stress axis : x y z
#
# Youngs Moduli (GPa) = 59.79138 96.14951 18.47829
#
# Poissons Ratio (x) = -0.10393 -0.11173
# Poissons Ratio (y) = -0.06463 -0.01437
# Poissons Ratio (z) = -0.36153 -0.07479
#
# Static dielectric constant tensor:
#      x y z
#    x 1.817220 0.000000 0.025950 
#    y 0.000000 1.776190 0.000000 
#    z 0.025950 0.000000 1.775150 
# 
# From -- ./inp_files/315725.got.cif
#   From: 2010.05.17/outbox.cif.g08.bks.cpg/sg15_158_cif.got.tgz:315725.got - 2010.06.03 18:47:42.
