data_PCOD9301799
_publ_section_title
;
Structure prediction by ZEFSAII (Michael W. Deem and Ramdas Pophale) SiO2 
 PCOD9301799
Probable space group: C 2/C
;
_chemical_formula_sum "Si O2"
_cell_formula_units_Z 40
_cell_length_a 12.690577
_cell_length_b 8.217742
_cell_length_c 23.908157
_cell_angle_alpha 90.000000
_cell_angle_beta 141.404933
_cell_angle_gamma 90.000000
_cell_volume 1555.370684
_symmetry_space_group_name_H-M "C 2/C"
_symmetry_group_IT_number 15
_symmetry_cell_setting 'monoclinic'
loop_
_space_group_symop_operation_xyz
x,y,z
-x,y,1/2-z
-x,-y,-z
x,-y,1/2+z
1/2+x,1/2+y,z
1/2-x,1/2+y,1/2-z
1/2-x,1/2-y,-z
1/2+x,1/2-y,1/2+z
loop_
_atom_site_type_symbol
_atom_site_label
_atom_site_fract_x
_atom_site_fract_y
_atom_site_fract_z
Si Si1 0.985075 0.956410 0.806663
Si Si2 0.604330 0.339953 0.062158
Si Si3 0.089727 0.505975 0.845238
Si Si4 0.227150 0.686630 0.553697
Si Si5 0.714928 0.153757 0.740897
O O1 0.854808 0.109222 0.753679
O O2 0.000000 0.895407 0.750000
O O3 0.167903 0.021672 0.899473
O O4 0.888670 0.822114 0.803646
O O5 0.765914 0.356304 0.088541
O O6 0.680505 0.352062 0.156853
O O7 0.500000 0.500000 0.000000
O O8 0.466446 0.196630 0.006639
O O9 0.174229 0.331519 0.874127
O O10 0.000000 0.541213 0.750000
O O11 0.937467 0.521891 0.825547
O O12 0.250000 0.750000 0.500000
#
# Coordination Sequence:
#
# PCOD9301799 Si02
#       5
#     8   8   8   8   8
#     4  12  26  45  72 102 139 186 239 287 351 424
#     4   9  19  38  70  99 133 179 232 285 348 412
#     4   9  19  39  67  96 126 181 234 275 344 423
#     4  11  21  39  64  97 140 179 222 295 351 403
#     4  11  23  44  71  99 140 182 235 291 343 426
#
# _framework density 25.71734
#
# number of rings (size 3 to 8) (size 9 to 14) (size 15 to 20)
#    0.000    1.600    2.000    3.600    0.000    3.200 
#    0.000    6.000    4.400    0.000    0.000    0.000 
#    0.000    0.000    0.000    0.000    0.000    0.000 
#
# Total GULP energy -111735.046680 kJ/mol
# GULP energy per Si atom -5586.752334 kJ/mol
# Density = 2.565881 g / cm^3
# Si number density = 25.717340 Si / 1000 Ang^3
#
#
#
# Elastic Constant Matrix: (Units=GPa)
#
#
# Indices 1 2 3 4 5 6 
#
# 1 64.7676 7.4570 18.9211 0.0000 33.7429 0.0000
# 2 7.4570 96.8508 36.5400 0.0000 -1.9961 0.0000
# 3 18.9211 36.5400 104.9202 0.0000 34.4044 0.0000
# 4 0.0000 0.0000 0.0000 24.3332 0.0000 11.2431
# 5 33.7429 -1.9961 34.4044 0.0000 46.1366 0.0000
# 6 0.0000 0.0000 0.0000 11.2431 0.0000 32.5322
#
#
#
# Elastic Compliance Matrix: (Units=1/GPa)
#
#
# Indices 1 2 3 4 5 6 
#
# 1 0.026462 -0.004014 0.004009 0.000000 -0.022517 0.000000
# 2 -0.004014 0.013345 -0.006718 0.000000 0.008523 0.000000
# 3 0.004009 -0.006718 0.016155 0.000000 -0.015270 0.000000
# 4 0.000000 0.000000 0.000000 0.048906 0.000000 -0.016902
# 5 -0.022517 0.008523 -0.015270 0.000000 0.049898 0.000000
# 6 0.000000 0.000000 0.000000 -0.016902 0.000000 0.036580
#
#
# Mechanical properties :
#
#
# Convention : Reuss Voigt Hill
#
# Bulk Modulus (GPa) = 23.52118 43.59719 33.55918
# Shear Modulus (GPa) = 22.83494 34.17511 28.50502
#
# Velocity S-wave (km/s) = 2.98303 3.64933 3.33287
# Velocity P-wave (km/s) = 4.58591 5.89458 5.28094
#
# Compressibility (1/GPa) = 0.04251487
#
# Stress axis : x y z
#
# Youngs Moduli (GPa) = 37.79071 74.93667 61.90065
#
# Poissons Ratio (x) = 0.30080 -0.24818
# Poissons Ratio (y) = 0.15170 0.41587
# Poissons Ratio (z) = -0.15152 0.50345
#
# Static dielectric constant tensor:
#      x y z
#    x 1.396300 0.000000 0.391110 
#    y 0.000000 6.723350 0.000000 
#    z 0.391110 0.000000 1.854740 
# 
# From -- ./inp_files/150578.got.cif
#   From: 2010.05.17/outbox.cif.g08.bks.cpg/sg15_76_cif.got.tgz:150578.got - 2010.06.03 18:47:42.
