data_PCOD9301374
_publ_section_title
;
Structure prediction by ZEFSAII (Michael W. Deem and Ramdas Pophale) SiO2 
 PCOD9301374
Probable space group: C 2/C
;
_chemical_formula_sum "Si O2"
_cell_formula_units_Z 36
_cell_length_a 18.438049
_cell_length_b 12.752552
_cell_length_c 7.029241
_cell_angle_alpha 90.000000
_cell_angle_beta 84.616122
_cell_angle_gamma 90.000000
_cell_volume 1645.509264
_symmetry_space_group_name_H-M "C 2/C"
_symmetry_group_IT_number 15
_symmetry_cell_setting 'monoclinic'
loop_
_space_group_symop_operation_xyz
x,y,z
-x,y,1/2-z
-x,-y,-z
x,-y,1/2+z
1/2+x,1/2+y,z
1/2-x,1/2+y,1/2-z
1/2-x,1/2-y,-z
1/2+x,1/2-y,1/2+z
loop_
_atom_site_type_symbol
_atom_site_label
_atom_site_fract_x
_atom_site_fract_y
_atom_site_fract_z
Si Si1 0.000000 0.411547 0.750000
Si Si2 0.914315 0.841998 0.274593
Si Si3 0.431066 0.119032 0.653375
Si Si4 0.335738 0.749115 0.452057
Si Si5 0.415993 0.582963 0.196635
O O1 0.057772 0.493126 0.833175
O O2 0.873806 0.242352 0.650972
O O3 0.547908 0.859320 0.570741
O O4 0.862520 0.858209 0.850512
O O5 0.000000 0.823943 0.250000
O O6 0.903045 0.959159 0.190649
O O7 0.500000 0.165969 0.750000
O O8 0.364039 0.162489 0.793843
O O9 0.250000 0.750000 0.500000
O O10 0.100881 0.860938 0.999423
O O11 0.500000 0.594814 0.250000
#
# Coordination Sequence:
#
# PCOD9301374 Si02
#       5
#     4   8   8   8   8
#     4   8  18  40  70  92 114 174 240 276 326 372
#     4  11  21  40  72  97 129 181 222 280 338 404
#     4   9  19  40  65  94 122 167 232 278 320 398
#     4  12  26  41  60 107 145 172 224 281 353 422
#     4  11  20  42  71  99 129 176 236 277 332 413
#
# _framework density 21.877724000000001
#
# number of rings (size 3 to 8) (size 9 to 14) (size 15 to 20)
#    0.667    0.889    4.444    2.000    0.000    2.667 
#    4.000    0.000    0.000    0.000    0.000    0.000 
#    0.000    0.000    0.000    0.000    0.000    0.000 
#
# Total GULP energy -100314.945417 kJ/mol
# GULP energy per Si atom -5573.052523 kJ/mol
# Density = 2.182793 g / cm^3
# Si number density = 21.877724 Si / 1000 Ang^3
#
#
#
# Elastic Constant Matrix: (Units=GPa)
#
#
# Indices 1 2 3 4 5 6 
#
# 1 187.6153 44.4826 84.7092 0.0000 -12.5815 0.0000
# 2 44.4826 88.0881 35.5697 0.0000 -14.5095 0.0000
# 3 84.7092 35.5697 153.2025 0.0000 -40.3890 0.0000
# 4 0.0000 0.0000 0.0000 976.6673 0.0000-2927.8666
# 5 -12.5815 -14.5095 -40.3890 0.0000 42.8015 0.0000
# 6 0.0000 0.0000 0.0000-2927.8666 0.0000 8906.0611
#
#
#
# Elastic Compliance Matrix: (Units=1/GPa)
#
#
# Indices 1 2 3 4 5 6 
#
# 1 0.007751 -0.002587 -0.004413 0.000000 -0.002763 0.000000
# 2 -0.002587 0.013520 -0.000933 0.000000 0.002943 0.000000
# 3 -0.004413 -0.000933 0.011659 0.000000 0.009389 0.000000
# 4 0.000000 0.000000 0.000000 0.070764 0.000000 0.023264
# 5 -0.002763 0.002943 0.009389 0.000000 0.032408 0.000000
# 6 0.000000 0.000000 0.000000 0.023264 0.000000 0.007760
#
#
# Mechanical properties :
#
#
# Convention : Reuss Voigt Hill
#
# Bulk Modulus (GPa) = 58.60466 84.26990 71.43728
# Shear Modulus (GPa) = 30.22664 2002.71562 1016.47113
#
# Velocity S-wave (km/s) = 3.72104 30.28862 21.57831
# Velocity P-wave (km/s) = 6.73105 35.52186 25.56472
#
# Compressibility (1/GPa) = 0.01706349
#
# Stress axis : x y z
#
# Youngs Moduli (GPa) = 129.01870 73.96442 85.76830
#
# Poissons Ratio (x) = 0.19135 0.37854
# Poissons Ratio (y) = 0.33377 0.08001
# Poissons Ratio (z) = 0.56942 0.06900
#
# Static dielectric constant tensor:
#      x y z
#    x 1.795830 0.000000 -0.129280 
#    y 0.000000 1.972940 0.000000 
#    z -0.129280 0.000000 1.975420 
# 
# From -- ./inp_files/118159.got.cif
#   From: 2010.05.17/outbox.cif.g08.bks.cpg/sg15_60_cif.got.tgz:118159.got - 2010.06.03 18:47:42.
