data_PCOD9301189
_publ_section_title
;
Structure prediction by ZEFSAII (Michael W. Deem and Ramdas Pophale) SiO2 
 PCOD9301189
Probable space group: C 2/C
;
_chemical_formula_sum "Si O2"
_cell_formula_units_Z 64
_cell_length_a 15.588447
_cell_length_b 18.361314
_cell_length_c 20.749520
_cell_angle_alpha 90.000000
_cell_angle_beta 147.382851
_cell_angle_gamma 90.000000
_cell_volume 3201.266937
_symmetry_space_group_name_H-M "C 2/C"
_symmetry_group_IT_number 15
_symmetry_cell_setting 'monoclinic'
loop_
_space_group_symop_operation_xyz
x,y,z
-x,y,1/2-z
-x,-y,-z
x,-y,1/2+z
1/2+x,1/2+y,z
1/2-x,1/2+y,1/2-z
1/2-x,1/2-y,-z
1/2+x,1/2-y,1/2+z
loop_
_atom_site_type_symbol
_atom_site_label
_atom_site_fract_x
_atom_site_fract_y
_atom_site_fract_z
Si Si1 0.530475 0.427608 0.976936
Si Si2 0.399747 0.115975 0.827825
Si Si3 0.963377 0.644338 0.017674
Si Si4 0.732312 0.075474 0.984381
Si Si5 0.825926 0.214535 0.112414
Si Si6 0.630597 0.284229 0.103507
Si Si7 0.811967 0.950831 0.126311
Si Si8 0.236110 0.469624 0.711665
O O1 0.696198 0.423316 0.042006
O O2 0.527187 0.353237 0.015171
O O3 0.500000 0.500000 0.000000
O O4 0.393375 0.430196 0.836190
O O5 0.550764 0.102352 0.877399
O O6 0.282016 0.180773 0.734740
O O7 0.301453 0.040884 0.769591
O O8 0.458005 0.131778 0.937072
O O9 0.025336 0.724509 0.073151
O O10 0.088533 0.584663 0.121781
O O11 0.789934 0.622576 0.933174
O O12 0.827598 0.130114 0.092568
O O13 0.760480 0.995590 0.030883
O O14 0.705590 0.239480 0.091556
O O15 0.000000 0.234917 0.250000
O O16 0.750000 0.250000 0.000000
O O17 0.000000 0.939688 0.250000
O O18 0.759555 0.000249 0.154373
#
# Coordination Sequence:
#
# PCOD9301189 Si02
#       8
#     8   8   8   8   8   8   8   8
#     4  12  27  43  60  97 137 186 220 270 346 419
#     4  11  22  42  64  99 131 179 219 280 341 396
#     4  11  24  40  66 101 136 173 228 279 341 403
#     4  12  22  40  69  95 134 174 226 286 336 413
#     4  12  25  39  58 101 139 175 216 273 347 413
#     4  12  26  40  64  95 144 177 218 274 347 418
#     4  11  20  38  69 103 124 172 231 290 325 387
#     4  11  21  41  68  93 136 170 230 276 330 406
#
# _framework density 19.992084999999999
#
# number of rings (size 3 to 8) (size 9 to 14) (size 15 to 20)
#    0.000    0.500    7.500    1.875    3.500    0.000 
#    0.000    0.000    0.000    8.250    0.000    0.000 
#    0.000    0.000    0.000    0.000    0.000    0.000 
#
# Total GULP energy -178780.299891 kJ/mol
# GULP energy per Si atom -5586.884372 kJ/mol
# Density = 1.994658 g / cm^3
# Si number density = 19.992085 Si / 1000 Ang^3
#
#
#
# Elastic Constant Matrix: (Units=GPa)
#
#
# Indices 1 2 3 4 5 6 
#
# 1 48.1338 43.7319 8.7252 -0.0002 12.6948 0.0001
# 2 43.7319 122.5082 37.7614 0.0017 21.0850 0.0009
# 3 8.7252 37.7614 82.5405 0.0012 16.3485 0.0012
# 4 -0.0002 0.0017 0.0012 42.1531 0.0007 1.6953
# 5 12.6948 21.0850 16.3485 0.0007 29.5504 0.0004
# 6 0.0001 0.0009 0.0012 1.6953 0.0004 23.9227
#
#
#
# Elastic Compliance Matrix: (Units=1/GPa)
#
#
# Indices 1 2 3 4 5 6 
#
# 1 0.032446 -0.011257 0.003246 0.000001 -0.007702 0.000000
# 2 -0.011257 0.014089 -0.004742 0.000000 -0.002593 0.000000
# 3 0.003246 -0.004742 0.015215 0.000000 -0.006428 -0.000001
# 4 0.000001 0.000000 0.000000 0.023791 0.000000 -0.001686
# 5 -0.007702 -0.002593 -0.006428 0.000000 0.042556 0.000000
# 6 0.000000 0.000000 -0.000001 -0.001686 0.000000 0.041921
#
#
# Mechanical properties :
#
#
# Convention : Reuss Voigt Hill
#
# Bulk Modulus (GPa) = 27.59122 48.17994 37.88558
# Shear Modulus (GPa) = 24.08406 29.98950 27.03678
#
# Velocity S-wave (km/s) = 3.47461 3.87727 3.68145
# Velocity P-wave (km/s) = 5.47068 6.64802 6.08788
#
# Compressibility (1/GPa) = 0.03624342
#
# Stress axis : x y z
#
# Youngs Moduli (GPa) = 30.82024 70.97604 65.72537
#
# Poissons Ratio (x) = 0.79899 -0.21333
# Poissons Ratio (y) = 0.34695 0.31167
# Poissons Ratio (z) = -0.10004 0.33657
#
# Static dielectric constant tensor:
#      x y z
#    x 1.806090 0.000000 0.047740 
#    y 0.000000 1.803800 0.000000 
#    z 0.047740 0.000000 1.754190 
# 
# From -- ./inp_files/277655.got.cif
#   From: 2010.05.17/outbox.cif.g08.bks.cpg/sg15_139_cif.got.tgz:277655.got - 2010.06.03 18:47:42.
