data_PCOD9301991
_publ_section_title
;
Structure prediction by ZEFSAII (Michael W. Deem and Ramdas Pophale) SiO2 
 PCOD9301991
Probable space group: C 2/C
;
_chemical_formula_sum "Si O2"
_cell_formula_units_Z 48
_cell_length_a 14.547029
_cell_length_b 20.244961
_cell_length_c 18.651812
_cell_angle_alpha 90.000000
_cell_angle_beta 25.773312
_cell_angle_gamma 90.000000
_cell_volume 2388.435346
_symmetry_space_group_name_H-M "C 2/C"
_symmetry_group_IT_number 15
_symmetry_cell_setting 'monoclinic'
loop_
_space_group_symop_operation_xyz
x,y,z
-x,y,1/2-z
-x,-y,-z
x,-y,1/2+z
1/2+x,1/2+y,z
1/2-x,1/2+y,1/2-z
1/2-x,1/2-y,-z
1/2+x,1/2-y,1/2+z
loop_
_atom_site_type_symbol
_atom_site_label
_atom_site_fract_x
_atom_site_fract_y
_atom_site_fract_z
Si Si1 0.500000 0.096168 0.750000
Si Si2 0.801121 0.175975 0.623473
Si Si3 0.858912 0.562023 0.576240
Si Si4 0.018926 0.939768 0.042865
Si Si5 0.000000 0.097460 0.250000
Si Si6 0.733217 0.005667 0.010871
Si Si7 0.916394 0.675163 0.007347
O O1 0.701600 0.141447 0.623070
O O2 0.539693 0.045542 0.656798
O O3 0.985128 0.128482 0.524071
O O4 0.873298 0.250021 0.559955
O O5 0.598815 0.175975 0.818756
O O6 0.666030 0.562451 0.767524
O O7 0.790431 0.549640 0.542748
O O8 0.000000 0.500000 0.500000
O O9 0.992127 0.628548 0.494354
O O10 0.224207 0.952625 0.947608
O O11 0.000000 0.000000 0.000000
O O12 0.800687 0.141585 0.367470
O O13 0.926020 0.046047 0.363362
#
# Coordination Sequence:
#
# PCOD9301991 Si02
#       7
#     4   8   8   8   4   8   8
#     4  12  23  38  62  94 127 156 208 266 309 368
#     4  11  25  41  58  90 129 166 203 255 308 373
#     4  11  21  41  63  90 125 164 206 256 309 373
#     4  11  22  39  64  92 124 160 209 259 307 366
#     4  12  21  38  66  92 117 166 204 254 321 374
#     4  12  22  39  67  96 122 160 211 261 315 365
#     4  11  25  40  60  89 128 166 206 249 312 373
#
# _framework density 20.096838999999999
#
# number of rings (size 3 to 8) (size 9 to 14) (size 15 to 20)
#    0.000    0.667    6.667    1.500    2.333    2.667 
#    0.000    0.833    0.000    0.000    0.000    0.000 
#    0.000    0.000    0.000    0.000    0.000    0.000 
#
# Total GULP energy -134065.093806 kJ/mol
# GULP energy per Si atom -5586.045575 kJ/mol
# Density = 2.005110 g / cm^3
# Si number density = 20.096839 Si / 1000 Ang^3
#
#
#
# Elastic Constant Matrix: (Units=GPa)
#
#
# Indices 1 2 3 4 5 6 
#
# 1 142.0567 83.3763 15.1356 -0.0008 3.4025 0.0098
# 2 83.3763 170.7543 37.9533 -0.0567 -9.8926 0.0403
# 3 15.1356 37.9533 40.0623 -0.0412 -4.2763 0.0455
# 4 -0.0008 -0.0567 -0.0412 37.5195 0.0083 -6.5131
# 5 3.4025 -9.8926 -4.2763 0.0083 25.0295 -0.0183
# 6 0.0098 0.0403 0.0455 -6.5131 -0.0183 34.8914
#
#
#
# Elastic Compliance Matrix: (Units=1/GPa)
#
#
# Indices 1 2 3 4 5 6 
#
# 1 0.010169 -0.005353 0.000872 -0.000006 -0.003349 -0.000001
# 2 -0.005353 0.010314 -0.007370 0.000007 0.003545 0.000002
# 3 0.000872 -0.007370 0.031871 0.000018 0.002414 -0.000029
# 4 -0.000006 0.000007 0.000018 0.027545 0.000001 0.005142
# 5 -0.003349 0.003545 0.002414 0.000001 0.042221 0.000016
# 6 -0.000001 0.000002 -0.000029 0.005142 0.000016 0.029620
#
#
# Mechanical properties :
#
#
# Convention : Reuss Voigt Hill
#
# Bulk Modulus (GPa) = 34.90194 69.53374 52.21784
# Shear Modulus (GPa) = 27.02806 33.91528 30.47167
#
# Velocity S-wave (km/s) = 3.67125 4.11249 3.89812
# Velocity P-wave (km/s) = 5.94772 7.56469 6.80441
#
# Compressibility (1/GPa) = 0.02865170
#
# Stress axis : x y z
#
# Youngs Moduli (GPa) = 98.34277 96.95942 31.37615
#
# Poissons Ratio (x) = 0.51902 -0.02736
# Poissons Ratio (y) = 0.52642 0.23124
# Poissons Ratio (z) = -0.08575 0.71458
#
# Static dielectric constant tensor:
#      x y z
#    x 1.737840 -0.000020 0.015510 
#    y -0.000020 1.677650 0.000080 
#    z 0.015510 0.000080 1.818940 
# 
# From -- ./inp_files/67567.got.cif
#   From: 2010.05.17/outbox.cif.g08.bks.cpg/sg15_34_cif.got.tgz:67567.got - 2010.06.03 18:47:42.
