data_PCOD9301332
_publ_section_title
;
Structure prediction by ZEFSAII (Michael W. Deem and Ramdas Pophale) SiO2 
 PCOD9301332
Probable space group: C 2/C
;
_chemical_formula_sum "Si O2"
_cell_formula_units_Z 60
_cell_length_a 18.993700
_cell_length_b 11.986156
_cell_length_c 10.767330
_cell_angle_alpha 90.000000
_cell_angle_beta 100.359236
_cell_angle_gamma 90.000000
_cell_volume 2411.348841
_symmetry_space_group_name_H-M "C 2/C"
_symmetry_group_IT_number 15
_symmetry_cell_setting 'monoclinic'
loop_
_space_group_symop_operation_xyz
x,y,z
-x,y,1/2-z
-x,-y,-z
x,-y,1/2+z
1/2+x,1/2+y,z
1/2-x,1/2+y,1/2-z
1/2-x,1/2-y,-z
1/2+x,1/2-y,1/2+z
loop_
_atom_site_type_symbol
_atom_site_label
_atom_site_fract_x
_atom_site_fract_y
_atom_site_fract_z
Si Si1 0.829697 0.961437 0.628017
Si Si2 0.246164 0.846212 0.272132
Si Si3 0.000000 0.659839 0.750000
Si Si4 0.310257 0.907355 0.045322
Si Si5 0.438046 0.969057 0.577229
Si Si6 0.124476 0.197685 0.541479
Si Si7 0.882718 0.808623 0.858329
Si Si8 0.473296 0.281521 0.113410
O O1 0.757924 0.895879 0.564870
O O2 0.878412 0.921404 0.528418
O O3 0.865304 0.913596 0.764401
O O4 0.796987 0.082948 0.639924
O O5 0.180856 0.794305 0.171262
O O6 0.308883 0.763643 0.337447
O O7 0.282891 0.925042 0.177139
O O8 0.945578 0.567299 0.678481
O O9 0.948428 0.736437 0.818247
O O10 0.350397 0.789631 0.049136
O O11 0.358604 0.006259 0.004761
O O12 0.445926 0.844773 0.628825
O O13 0.500000 0.000000 0.500000
O O14 0.046785 0.229808 0.562083
O O15 0.914051 0.834289 0.004805
O O16 0.500000 0.337132 0.250000
#
# Coordination Sequence:
#
# PCOD9301332 Si02
#       8
#     8   8   4   8   8   8   8   8
#     4  11  23  40  71 104 134 186 242 282 342 424
#     4  11  23  42  72 106 141 181 241 285 349 428
#     4  12  22  36  68 104 140 174 238 288 358 444
#     4  11  20  41  69 103 146 178 220 297 363 429
#     4  12  21  35  63 107 141 178 217 283 372 426
#     4  11  22  48  71  98 147 187 230 294 360 421
#     4  12  22  44  69 104 141 186 235 292 357 426
#     4  12  27  43  67 101 148 187 235 298 360 419
#
# _framework density 24.882339999999999
#
# number of rings (size 3 to 8) (size 9 to 14) (size 15 to 20)
#    0.000    0.533    7.333    2.400    0.000    1.067 
#    4.800    1.333    1.467    0.000    0.000    0.000 
#    0.000    0.000    0.000    0.000    0.000    0.000 
#
# Total GULP energy -167560.374541 kJ/mol
# GULP energy per Si atom -5585.345818 kJ/mol
# Density = 2.482571 g / cm^3
# Si number density = 24.882340 Si / 1000 Ang^3
#
#
#
# Elastic Constant Matrix: (Units=GPa)
#
#
# Indices 1 2 3 4 5 6 
#
# 1 109.7638 31.2499 34.1552 0.0000 9.4585 0.0000
# 2 31.2499 58.6843 3.7509 0.0000 0.3998 0.0000
# 3 34.1552 3.7509 101.5835 0.0000 33.2913 0.0000
# 4 0.0000 0.0000 0.0000 23.1334 0.0000 -2.3685
# 5 9.4585 0.3998 33.2913 0.0000 43.1648 0.0000
# 6 0.0000 0.0000 0.0000 -2.3685 0.0000 41.0726
#
#
#
# Elastic Compliance Matrix: (Units=1/GPa)
#
#
# Indices 1 2 3 4 5 6 
#
# 1 0.012068 -0.006174 -0.003990 0.000000 0.000490 0.000000
# 2 -0.006174 0.020246 0.001267 0.000000 0.000189 0.000000
# 3 -0.003990 0.001267 0.014528 0.000000 -0.010343 0.000000
# 4 0.000000 0.000000 0.000000 0.043484 0.000000 0.002508
# 5 0.000490 0.000189 -0.010343 0.000000 0.031035 0.000000
# 6 0.000000 0.000000 0.000000 0.002508 0.000000 0.024492
#
#
# Mechanical properties :
#
#
# Convention : Reuss Voigt Hill
#
# Bulk Modulus (GPa) = 34.42786 45.37153 39.89969
# Shear Modulus (GPa) = 28.84653 34.86587 31.85620
#
# Velocity S-wave (km/s) = 3.40857 3.74736 3.58197
# Velocity P-wave (km/s) = 5.41825 6.08257 5.75999
#
# Compressibility (1/GPa) = 0.02904624
#
# Stress axis : x y z
#
# Youngs Moduli (GPa) = 82.86555 49.39237 68.83024
#
# Poissons Ratio (x) = 0.30497 0.27465
# Poissons Ratio (y) = 0.51165 -0.08719
# Poissons Ratio (z) = 0.33065 -0.06256
#
# Static dielectric constant tensor:
#      x y z
#    x 2.056120 0.000000 0.043650 
#    y 0.000000 1.973790 0.000000 
#    z 0.043650 0.000000 2.120430 
# 
# From -- ./inp_files/105379.got.cif
#   From: 2010.05.17/outbox.cif.g08.bks.cpg/sg15_53_cif.got.tgz:105379.got - 2010.06.03 18:47:42.
