data_PCOD9301619
_publ_section_title
;
Structure prediction by ZEFSAII (Michael W. Deem and Ramdas Pophale) SiO2 
 PCOD9301619
Probable space group: C 2/C
;
_chemical_formula_sum "Si O2"
_cell_formula_units_Z 64
_cell_length_a 18.951913
_cell_length_b 12.952425
_cell_length_c 15.121099
_cell_angle_alpha 90.000000
_cell_angle_beta 58.259134
_cell_angle_gamma 90.000000
_cell_volume 3156.670019
_symmetry_space_group_name_H-M "C 2/C"
_symmetry_group_IT_number 15
_symmetry_cell_setting 'monoclinic'
loop_
_space_group_symop_operation_xyz
x,y,z
-x,y,1/2-z
-x,-y,-z
x,-y,1/2+z
1/2+x,1/2+y,z
1/2-x,1/2+y,1/2-z
1/2-x,1/2-y,-z
1/2+x,1/2-y,1/2+z
loop_
_atom_site_type_symbol
_atom_site_label
_atom_site_fract_x
_atom_site_fract_y
_atom_site_fract_z
Si Si1 0.401464 0.527621 0.053048
Si Si2 0.071259 0.147024 0.643329
Si Si3 0.348603 0.075975 0.170222
Si Si4 0.321636 0.974517 0.492653
Si Si5 0.022359 0.624200 0.133835
Si Si6 0.237366 0.825053 0.090472
Si Si7 0.198036 0.209494 0.299886
Si Si8 0.767836 0.397446 0.337436
O O1 0.370066 0.619496 0.141017
O O2 0.329265 0.437571 0.106890
O O3 0.500000 0.500000 0.000000
O O4 0.397694 0.576056 0.956959
O O5 0.042686 0.254324 0.617153
O O6 0.139774 0.180221 0.670737
O O7 0.000000 0.097545 0.750000
O O8 0.443743 0.097534 0.126370
O O9 0.286311 0.154675 0.258531
O O10 0.319695 0.968997 0.234466
O O11 0.330813 0.086558 0.077792
O O12 0.402076 0.047784 0.433906
O O13 0.250087 0.057087 0.557277
O O14 0.300864 0.918212 0.414878
O O15 0.000000 0.604425 0.250000
O O16 0.303047 0.791023 0.119662
O O17 0.250000 0.750000 0.000000
O O18 0.210265 0.280243 0.205545
#
# Coordination Sequence:
#
# PCOD9301619 Si02
#       8
#     8   8   8   8   8   8   8   8
#     4  11  25  43  65 101 138 177 227 287 340 407
#     4  11  23  35  65 100 133 162 219 286 352 388
#     4  11  24  40  65  98 128 177 225 278 341 408
#     4  12  22  40  66  93 132 175 225 275 337 406
#     4  11  21  37  62  99 134 161 216 287 338 392
#     4  12  19  39  67  96 125 170 219 290 342 391
#     4  11  23  43  68  95 135 178 229 276 348 405
#     4  11  24  44  69  95 136 183 228 280 338 418
#
# _framework density 20.274529000000001
#
# number of rings (size 3 to 8) (size 9 to 14) (size 15 to 20)
#    0.000    0.750    6.250    2.625    3.500    0.500 
#    0.000    0.000    0.000    0.000    0.000    0.000 
#    0.000    0.000    0.000    0.000    0.000    0.000 
#
# Total GULP energy -178305.395522 kJ/mol
# GULP energy per Si atom -5572.043610 kJ/mol
# Density = 2.022838 g / cm^3
# Si number density = 20.274529 Si / 1000 Ang^3
#
#
#
# Elastic Constant Matrix: (Units=GPa)
#
#
# Indices 1 2 3 4 5 6 
#
# 1 135.6366 37.1279 31.6972 0.0000 -4.3923 0.0000
# 2 37.1279 63.7509 21.6495 0.0000 0.3245 0.0000
# 3 31.6972 21.6495 60.0003 0.0000 18.3077 0.0000
# 4 0.0000 0.0000 0.0000 33.2153 0.0000 -0.0634
# 5 -4.3923 0.3245 18.3077 0.0000 23.2888 0.0000
# 6 0.0000 0.0000 0.0000 -0.0634 0.0000 14.5283
#
#
#
# Elastic Compliance Matrix: (Units=1/GPa)
#
#
# Indices 1 2 3 4 5 6 
#
# 1 0.010026 -0.003864 -0.005914 0.000000 0.006594 0.000000
# 2 -0.003864 0.020108 -0.006454 0.000000 0.004065 0.000000
# 3 -0.005914 -0.006454 0.029512 0.000000 -0.024225 0.000000
# 4 0.000000 0.000000 0.000000 0.030107 0.000000 0.000131
# 5 0.006594 0.004065 -0.024225 0.000000 0.063170 0.000000
# 6 0.000000 0.000000 0.000000 0.000131 0.000000 0.068832
#
#
# Mechanical properties :
#
#
# Convention : Reuss Voigt Hill
#
# Bulk Modulus (GPa) = 36.79200 48.92633 42.85916
# Shear Modulus (GPa) = 18.99120 25.46735 22.22928
#
# Velocity S-wave (km/s) = 3.06388 3.54803 3.31481
# Velocity P-wave (km/s) = 5.54101 6.40070 5.98631
#
# Compressibility (1/GPa) = 0.02717982
#
# Stress axis : x y z
#
# Youngs Moduli (GPa) = 99.74000 49.73243 33.88485
#
# Poissons Ratio (x) = 0.19217 0.20041
# Poissons Ratio (y) = 0.38541 0.21870
# Poissons Ratio (z) = 0.58990 0.32098
#
# Static dielectric constant tensor:
#      x y z
#    x 1.751300 0.000000 -0.038270 
#    y 0.000000 1.743910 0.000000 
#    z -0.038270 0.000000 1.757690 
# 
# From -- ./inp_files/162255.got.cif
#   From: 2010.05.17/outbox.cif.g08.bks.cpg/sg15_82_cif.got.tgz:162255.got - 2010.06.03 18:47:42.
