data_PCOD9301784
_publ_section_title
;
Structure prediction by ZEFSAII (Michael W. Deem and Ramdas Pophale) SiO2 
 PCOD9301784
Probable space group: C 2/C
;
_chemical_formula_sum "Si O2"
_cell_formula_units_Z 64
_cell_length_a 26.101708
_cell_length_b 18.697428
_cell_length_c 18.041722
_cell_angle_alpha 90.000000
_cell_angle_beta 158.983271
_cell_angle_gamma 90.000000
_cell_volume 3157.825559
_symmetry_space_group_name_H-M "C 2/C"
_symmetry_group_IT_number 15
_symmetry_cell_setting 'monoclinic'
loop_
_space_group_symop_operation_xyz
x,y,z
-x,y,1/2-z
-x,-y,-z
x,-y,1/2+z
1/2+x,1/2+y,z
1/2-x,1/2+y,1/2-z
1/2-x,1/2-y,-z
1/2+x,1/2-y,1/2+z
loop_
_atom_site_type_symbol
_atom_site_label
_atom_site_fract_x
_atom_site_fract_y
_atom_site_fract_z
Si Si1 0.648702 0.433711 0.746438
Si Si2 0.212717 0.841535 0.096069
Si Si3 0.359507 0.519881 0.096600
Si Si4 0.371666 0.944873 0.518433
Si Si5 0.423949 0.055244 0.340786
Si Si6 0.048933 0.689758 0.035318
Si Si7 0.374233 0.353258 0.348460
Si Si8 0.870409 0.684001 0.527862
O O1 0.619555 0.464888 0.788528
O O2 0.766073 0.486677 0.868936
O O3 0.501103 0.411267 0.507844
O O4 0.729898 0.358014 0.861554
O O5 0.381966 0.828914 0.318022
O O6 0.166074 0.855695 0.118101
O O7 0.163500 0.905889 0.978206
O O8 0.146505 0.767444 0.979094
O O9 0.500000 0.485150 0.250000
O O10 0.213415 0.478072 0.884490
O O11 0.454308 0.930030 0.554558
O O12 0.262443 0.879130 0.383033
O O13 0.500000 0.955741 0.750000
O O14 0.376816 0.127932 0.317004
O O15 0.500000 0.000000 0.500000
O O16 0.079710 0.771098 0.102055
O O17 0.097071 0.679650 0.015387
O O18 0.000000 0.652647 0.750000
#
# Coordination Sequence:
#
# PCOD9301784 Si02
#       8
#     8   8   8   8   8   8   8   8
#     4  12  24  40  63 101 133 170 222 274 337 404
#     4  11  21  39  63  95 136 176 214 265 336 407
#     4  12  24  40  65 100 136 177 218 269 340 398
#     4  12  25  46  69  96 131 176 224 284 335 386
#     4  12  24  45  70  93 133 180 225 268 328 403
#     4  11  23  43  66  96 127 185 228 268 334 407
#     4  11  24  44  67  94 134 176 223 277 336 398
#     4  11  24  36  61  98 140 173 216 272 334 407
#
# _framework density 20.267111
#
# number of rings (size 3 to 8) (size 9 to 14) (size 15 to 20)
#    0.000    0.500    6.250    2.625    1.750    1.000 
#    2.250    1.250    0.000    0.000    0.000    0.000 
#    0.000    0.000    0.000    0.000    0.000    0.000 
#
# Total GULP energy -178836.034551 kJ/mol
# GULP energy per Si atom -5588.626080 kJ/mol
# Density = 2.022098 g / cm^3
# Si number density = 20.267111 Si / 1000 Ang^3
#
#
#
# Elastic Constant Matrix: (Units=GPa)
#
#
# Indices 1 2 3 4 5 6 
#
# 1 39.3068 17.1977 8.3824 0.0000 7.7901 0.0000
# 2 17.1977 88.9748 34.2594 0.0000 -5.4366 0.0000
# 3 8.3824 34.2594 114.7518 0.0000 19.0405 0.0000
# 4 0.0000 0.0000 0.0000 35.2628 0.0000 5.9961
# 5 7.7901 -5.4366 19.0405 0.0000 24.2252 0.0000
# 6 0.0000 0.0000 0.0000 5.9961 0.0000 24.0883
#
#
#
# Elastic Compliance Matrix: (Units=1/GPa)
#
#
# Indices 1 2 3 4 5 6 
#
# 1 0.030990 -0.007686 0.002266 0.000000 -0.013472 0.000000
# 2 -0.007686 0.015628 -0.005861 0.000000 0.010585 0.000000
# 3 0.002266 -0.005861 0.012233 0.000000 -0.011659 0.000000
# 4 0.000000 0.000000 0.000000 0.029612 0.000000 -0.007371
# 5 -0.013472 0.010585 -0.011659 0.000000 0.057151 0.000000
# 6 0.000000 0.000000 0.000000 -0.007371 0.000000 0.043349
#
#
# Mechanical properties :
#
#
# Convention : Reuss Voigt Hill
#
# Bulk Modulus (GPa) = 27.55514 40.30137 33.92825
# Shear Modulus (GPa) = 22.35927 28.92818 25.64373
#
# Velocity S-wave (km/s) = 3.32509 3.78212 3.56095
# Velocity P-wave (km/s) = 5.32608 6.24507 5.80379
#
# Compressibility (1/GPa) = 0.03629087
#
# Stress axis : x y z
#
# Youngs Moduli (GPa) = 32.26818 63.98709 81.74457
#
# Poissons Ratio (x) = 0.49179 -0.18524
# Poissons Ratio (y) = 0.24801 0.47909
# Poissons Ratio (z) = -0.07312 0.37501
#
# Static dielectric constant tensor:
#      x y z
#    x 1.730750 0.000000 -0.001790 
#    y 0.000000 1.730870 0.000000 
#    z -0.001790 0.000000 1.758820 
# 
# From -- ./inp_files/223161.got.cif
#   From: 2010.05.17/outbox.cif.g08.bks.cpg/sg15_112_cif.got.tgz:223161.got - 2010.06.03 18:47:42.
