data_PCOD9301754
_publ_section_title
;
Structure prediction by ZEFSAII (Michael W. Deem and Ramdas Pophale) SiO2 
 PCOD9301754
Probable space group: C 2/C
;
_chemical_formula_sum "Si O2"
_cell_formula_units_Z 44
_cell_length_a 16.143703
_cell_length_b 9.170330
_cell_length_c 17.745618
_cell_angle_alpha 90.000000
_cell_angle_beta 128.558936
_cell_angle_gamma 90.000000
_cell_volume 2054.319099
_symmetry_space_group_name_H-M "C 2/C"
_symmetry_group_IT_number 15
_symmetry_cell_setting 'monoclinic'
loop_
_space_group_symop_operation_xyz
x,y,z
-x,y,1/2-z
-x,-y,-z
x,-y,1/2+z
1/2+x,1/2+y,z
1/2-x,1/2+y,1/2-z
1/2-x,1/2-y,-z
1/2+x,1/2-y,1/2+z
loop_
_atom_site_type_symbol
_atom_site_label
_atom_site_fract_x
_atom_site_fract_y
_atom_site_fract_z
Si Si1 0.000000 0.992595 0.250000
Si Si2 0.709421 0.304000 0.894310
Si Si3 0.585954 0.105283 0.085785
Si Si4 0.184134 0.597046 0.748168
Si Si5 0.636098 0.619719 0.123491
Si Si6 0.020938 0.102146 0.923130
O O1 0.894396 0.092203 0.175016
O O2 0.995654 0.890558 0.174554
O O3 0.808490 0.378964 0.905760
O O4 0.676971 0.163215 0.826581
O O5 0.750000 0.250000 0.000000
O O6 0.542945 0.265489 0.075868
O O7 0.606210 0.028716 0.177378
O O8 0.500000 0.000000 0.000000
O O9 0.294148 0.512067 0.805825
O O10 0.169831 0.730861 0.681537
O O11 0.520189 0.562416 0.082472
O O12 0.632603 0.618985 0.030634
#
# Coordination Sequence:
#
# PCOD9301754 Si02
#       6
#     4   8   8   8   8   8
#     4  12  26  48  72 112 150 194 240 314 386 430
#     4  12  28  46  73 110 151 191 249 311 375 438
#     4  12  26  47  76 107 141 196 253 299 365 457
#     4  12  21  42  70 103 142 187 248 293 364 440
#     4  11  21  38  71 100 132 193 240 290 353 444
#     4  11  23  44  71 100 145 188 241 295 371 442
#
# _framework density 21.418289000000001
#
# number of rings (size 3 to 8) (size 9 to 14) (size 15 to 20)
#    0.000    0.364    7.273    1.091    5.091    0.000 
#    3.273    0.909    0.000    0.000    0.000    0.000 
#    0.000    0.000    0.000    0.000    0.000    0.000 
#
# Total GULP energy -122569.061152 kJ/mol
# GULP energy per Si atom -5571.320961 kJ/mol
# Density = 2.136954 g / cm^3
# Si number density = 21.418289 Si / 1000 Ang^3
#
#
#
# Elastic Constant Matrix: (Units=GPa)
#
#
# Indices 1 2 3 4 5 6 
#
# 1 66.4645 32.5344 43.0319 0.0000 2.2265 0.0000
# 2 32.5344 124.0584 65.3629 0.0000 6.3016 0.0000
# 3 43.0319 65.3629 208.9828 0.0000 -22.2481 0.0000
# 4 0.0000 0.0000 0.0000 64.8939 0.0000 2.6959
# 5 2.2265 6.3016 -22.2481 0.0000 35.1088 0.0000
# 6 0.0000 0.0000 0.0000 2.6959 0.0000 19.2820
#
#
#
# Elastic Compliance Matrix: (Units=1/GPa)
#
#
# Indices 1 2 3 4 5 6 
#
# 1 0.018699 -0.003106 -0.003159 0.000000 -0.002630 0.000000
# 2 -0.003106 0.010695 -0.003098 0.000000 -0.003686 0.000000
# 3 -0.003159 -0.003098 0.006954 0.000000 0.005163 0.000000
# 4 0.000000 0.000000 0.000000 0.015500 0.000000 -0.002167
# 5 -0.002630 -0.003686 0.005163 0.000000 0.032583 0.000000
# 6 0.000000 0.000000 0.000000 -0.002167 0.000000 0.052165
#
#
# Mechanical properties :
#
#
# Convention : Reuss Voigt Hill
#
# Bulk Modulus (GPa) = 56.74493 75.70710 66.22601
# Shear Modulus (GPa) = 31.01829 41.09537 36.05683
#
# Velocity S-wave (km/s) = 3.80967 4.38505 4.10745
# Velocity P-wave (km/s) = 6.77515 7.81421 7.31316
#
# Compressibility (1/GPa) = 0.01762272
#
# Stress axis : x y z
#
# Youngs Moduli (GPa) = 53.47780 93.50541 143.80061
#
# Poissons Ratio (x) = 0.29042 0.45426
# Poissons Ratio (y) = 0.16610 0.44545
# Poissons Ratio (z) = 0.16894 0.28965
#
# Static dielectric constant tensor:
#      x y z
#    x 1.918860 0.000000 0.047680 
#    y 0.000000 1.745820 0.000000 
#    z 0.047680 0.000000 1.943630 
# 
# From -- ./inp_files/176431.got.cif
#   From: 2010.05.17/outbox.cif.g08.bks.cpg/sg15_89_cif.got.tgz:176431.got - 2010.06.03 18:47:42.
