data_PCOD9301105
_publ_section_title
;
Structure prediction by ZEFSAII (Michael W. Deem and Ramdas Pophale) SiO2 
 PCOD9301105
Probable space group: C 2/C
;
_chemical_formula_sum "Si O2"
_cell_formula_units_Z 48
_cell_length_a 12.609598
_cell_length_b 19.091431
_cell_length_c 12.072253
_cell_angle_alpha 90.000000
_cell_angle_beta 47.926937
_cell_angle_gamma 90.000000
_cell_volume 2157.258651
_symmetry_space_group_name_H-M "C 2/C"
_symmetry_group_IT_number 15
_symmetry_cell_setting 'monoclinic'
loop_
_space_group_symop_operation_xyz
x,y,z
-x,y,1/2-z
-x,-y,-z
x,-y,1/2+z
1/2+x,1/2+y,z
1/2-x,1/2+y,1/2-z
1/2-x,1/2-y,-z
1/2+x,1/2-y,1/2+z
loop_
_atom_site_type_symbol
_atom_site_label
_atom_site_fract_x
_atom_site_fract_y
_atom_site_fract_z
Si Si1 0.674638 0.941878 0.449297
Si Si2 0.093558 0.778179 0.072821
Si Si3 0.651584 0.462453 0.372123
Si Si4 0.557767 0.837698 0.954131
Si Si5 0.153300 0.590097 0.582876
Si Si6 0.756687 0.607921 0.366281
O O1 0.813628 0.933567 0.274177
O O2 0.545735 0.906348 0.473173
O O3 0.665842 0.900056 0.570775
O O4 0.674866 0.021658 0.490351
O O5 0.000000 0.778429 0.250000
O O6 0.034816 0.728644 0.016360
O O7 0.250000 0.750000 0.000000
O O8 0.110554 0.855077 0.006327
O O9 0.500000 0.500000 0.500000
O O10 0.715666 0.411098 0.421189
O O11 0.752130 0.531179 0.317053
O O12 0.667278 0.844983 0.776544
O O13 0.639958 0.842777 0.012418
O O14 0.000000 0.582806 0.750000
#
# Coordination Sequence:
#
# PCOD9301105 Si02
#       6
#     8   8   8   8   8   8
#     4  11  20  37  66  97 136 173 221 286 344 412
#     4  12  24  41  66  99 136 181 233 290 342 399
#     4  11  25  41  64 102 138 179 222 286 360 418
#     4  12  21  41  66  98 137 174 233 283 341 422
#     4  11  22  38  65  97 130 175 224 276 350 413
#     4  11  24  40  64 104 134 177 227 289 349 407
#
# _framework density 22.250461999999999
#
# number of rings (size 3 to 8) (size 9 to 14) (size 15 to 20)
#    0.000    0.667    6.667    3.000    2.333    2.000 
#    0.000    0.000    0.000    4.000    0.000    0.000 
#    0.000    0.000    0.000    0.000    0.000    0.000 
#
# Total GULP energy -133893.065260 kJ/mol
# GULP energy per Si atom -5578.877719 kJ/mol
# Density = 2.219982 g / cm^3
# Si number density = 22.250462 Si / 1000 Ang^3
#
#
#
# Elastic Constant Matrix: (Units=GPa)
#
#
# Indices 1 2 3 4 5 6 
#
# 1 83.5750 -1.5777 39.6353 0.0000 14.9799 0.0000
# 2 -1.5777 28.9498 -6.0401 0.0000 14.3849 0.0000
# 3 39.6353 -6.0401 151.4203 0.0000 3.2761 0.0000
# 4 0.0000 0.0000 0.0000 22.2226 0.0000 -4.3325
# 5 14.9799 14.3849 3.2761 0.0000 30.7088 0.0000
# 6 0.0000 0.0000 0.0000 -4.3325 0.0000 32.1693
#
#
#
# Elastic Compliance Matrix: (Units=1/GPa)
#
#
# Indices 1 2 3 4 5 6 
#
# 1 0.015470 0.004739 -0.003657 0.000000 -0.009376 0.000000
# 2 0.004739 0.047256 0.001176 0.000000 -0.024573 0.000000
# 3 -0.003657 0.001176 0.007599 0.000000 0.000422 0.000000
# 4 0.000000 0.000000 0.000000 0.046213 0.000000 0.006224
# 5 -0.009376 -0.024573 0.000422 0.000000 0.048603 0.000000
# 6 0.000000 0.000000 0.000000 0.006224 0.000000 0.031924
#
#
# Mechanical properties :
#
#
# Convention : Reuss Voigt Hill
#
# Bulk Modulus (GPa) = 13.36171 36.44224 24.90197
# Shear Modulus (GPa) = 22.98881 32.48197 27.73539
#
# Velocity S-wave (km/s) = 3.21780 3.82492 3.53442
# Velocity P-wave (km/s) = 4.45240 5.99337 5.27941
#
# Compressibility (1/GPa) = 0.07484074
#
# Stress axis : x y z
#
# Youngs Moduli (GPa) = 64.64209 21.16112 131.59142
#
# Poissons Ratio (x) = -0.10028 0.48129
# Poissons Ratio (y) = -0.30632 -0.15479
# Poissons Ratio (z) = 0.23642 -0.02489
#
# Static dielectric constant tensor:
#      x y z
#    x 1.915150 0.000000 -0.008030 
#    y 0.000000 1.876630 0.000000 
#    z -0.008030 0.000000 1.808730 
# 
# From -- ./inp_files/89394.got.cif
#   From: 2010.05.17/outbox.cif.g08.bks.cpg/sg15_45_cif.got.tgz:89394.got - 2010.06.03 18:47:42.
