data_PCOD9301515
_publ_section_title
;
Structure prediction by ZEFSAII (Michael W. Deem and Ramdas Pophale) SiO2 
 PCOD9301515
Probable space group: C 2/C
;
_chemical_formula_sum "Si O2"
_cell_formula_units_Z 60
_cell_length_a 15.377819
_cell_length_b 21.336343
_cell_length_c 11.754010
_cell_angle_alpha 90.000000
_cell_angle_beta 56.593307
_cell_angle_gamma 90.000000
_cell_volume 3219.397995
_symmetry_space_group_name_H-M "C 2/C"
_symmetry_group_IT_number 15
_symmetry_cell_setting 'monoclinic'
loop_
_space_group_symop_operation_xyz
x,y,z
-x,y,1/2-z
-x,-y,-z
x,-y,1/2+z
1/2+x,1/2+y,z
1/2-x,1/2+y,1/2-z
1/2-x,1/2-y,-z
1/2+x,1/2-y,1/2+z
loop_
_atom_site_type_symbol
_atom_site_label
_atom_site_fract_x
_atom_site_fract_y
_atom_site_fract_z
Si Si1 0.622982 0.434380 0.639847
Si Si2 0.078126 0.275590 0.921832
Si Si3 0.319994 0.695101 0.003692
Si Si4 0.294490 0.323216 0.789602
Si Si5 0.089850 0.298221 0.271644
Si Si6 0.000000 0.261046 0.750000
Si Si7 0.315664 0.360692 0.132496
Si Si8 0.626540 0.421904 0.171617
O O1 0.500000 0.432527 0.750000
O O2 0.672621 0.392403 0.702784
O O3 0.652038 0.399235 0.502231
O O4 0.654876 0.506778 0.621586
O O5 0.174810 0.312259 0.907659
O O6 0.116804 0.203364 0.902839
O O7 0.067442 0.296004 0.796685
O O8 0.972925 0.289558 0.065310
O O9 0.432705 0.717747 0.880854
O O10 0.312537 0.626967 0.952806
O O11 0.250000 0.750000 0.000000
O O12 0.306374 0.690952 0.147500
O O13 0.367216 0.270644 0.796771
O O14 0.194238 0.339425 0.211427
O O15 0.000000 0.320272 0.250000
O O16 0.341016 0.402093 0.224697
O O17 0.500000 0.416502 0.250000
#
# Coordination Sequence:
#
# PCOD9301515 Si02
#       8
#     8   8   8   8   8   4   8   8
#     4  11  26  39  62  90 124 167 204 248 312 379
#     4  11  21  35  61  92 125 158 204 259 313 358
#     4  12  21  37  60  92 123 160 202 254 310 360
#     4  11  22  36  59  93 125 160 210 253 307 373
#     4  11  22  37  64  91 125 163 199 257 314 360
#     4  12  20  34  56  92 124 154 196 254 304 362
#     4  11  23  42  61  93 128 161 211 254 312 375
#     4  11  25  41  62  91 124 165 202 253 315 371
#
# _framework density 18.637025000000001
#
# number of rings (size 3 to 8) (size 9 to 14) (size 15 to 20)
#    0.000    0.800    4.667    3.600    3.733    3.200 
#    0.000    0.000    0.000    3.200    5.200    0.000 
#    0.000    0.000    0.000    0.000    0.000    0.000 
#
# Total GULP energy -167469.840644 kJ/mol
# GULP energy per Si atom -5582.328021 kJ/mol
# Density = 1.859461 g / cm^3
# Si number density = 18.637025 Si / 1000 Ang^3
#
#
#
# Elastic Constant Matrix: (Units=GPa)
#
#
# Indices 1 2 3 4 5 6 
#
# 1 115.6718 57.2797 46.8705 0.0000 0.0312 0.0000
# 2 57.2797 120.5916 29.4955 0.0000 -5.2803 0.0000
# 3 46.8705 29.4955 96.3469 0.0000 -4.3794 0.0000
# 4 0.0000 0.0000 0.0000 18.0375 0.0000 -3.7117
# 5 0.0312 -5.2803 -4.3794 0.0000 34.4409 0.0000
# 6 0.0000 0.0000 0.0000 -3.7117 0.0000 21.5851
#
#
#
# Elastic Compliance Matrix: (Units=1/GPa)
#
#
# Indices 1 2 3 4 5 6 
#
# 1 0.013166 -0.005117 -0.004903 0.000000 -0.001420 0.000000
# 2 -0.005117 0.010989 -0.000803 0.000000 0.001587 0.000000
# 3 -0.004903 -0.000803 0.013080 0.000000 0.001545 0.000000
# 4 0.000000 0.000000 0.000000 0.057474 0.000000 0.009883
# 5 -0.001420 0.001587 0.001545 0.000000 0.029476 0.000000
# 6 0.000000 0.000000 0.000000 0.009883 0.000000 0.048028
#
#
# Mechanical properties :
#
#
# Convention : Reuss Voigt Hill
#
# Bulk Modulus (GPa) = 64.14360 66.65574 65.39967
# Shear Modulus (GPa) = 25.11877 28.07701 26.59789
#
# Velocity S-wave (km/s) = 3.67521 3.88560 3.78187
# Velocity P-wave (km/s) = 7.24579 7.48154 7.36461
#
# Compressibility (1/GPa) = 0.01559002
#
# Stress axis : x y z
#
# Youngs Moduli (GPa) = 75.95327 91.00303 76.45048
#
# Poissons Ratio (x) = 0.46563 0.37484
# Poissons Ratio (y) = 0.38862 0.06137
# Poissons Ratio (z) = 0.37241 0.07306
#
# Static dielectric constant tensor:
#      x y z
#    x 1.737540 0.000000 0.014470 
#    y 0.000000 1.629090 0.000000 
#    z 0.014470 0.000000 1.688250 
# 
# From -- ./inp_files/99751.got.cif
#   From: 2010.05.17/outbox.cif.g08.bks.cpg/sg15_50_cif.got.tgz:99751.got - 2010.06.03 18:47:42.
