data_PCOD9301594
_publ_section_title
;
Structure prediction by ZEFSAII (Michael W. Deem and Ramdas Pophale) SiO2 
 PCOD9301594
Probable space group: C 2/C
;
_chemical_formula_sum "Si O2"
_cell_formula_units_Z 64
_cell_length_a 22.683488
_cell_length_b 22.134527
_cell_length_c 19.707031
_cell_angle_alpha 90.000000
_cell_angle_beta 160.797453
_cell_angle_gamma 90.000000
_cell_volume 3254.442081
_symmetry_space_group_name_H-M "C 2/C"
_symmetry_group_IT_number 15
_symmetry_cell_setting 'monoclinic'
loop_
_space_group_symop_operation_xyz
x,y,z
-x,y,1/2-z
-x,-y,-z
x,-y,1/2+z
1/2+x,1/2+y,z
1/2-x,1/2+y,1/2-z
1/2-x,1/2-y,-z
1/2+x,1/2-y,1/2+z
loop_
_atom_site_type_symbol
_atom_site_label
_atom_site_fract_x
_atom_site_fract_y
_atom_site_fract_z
Si Si1 0.554553 0.570853 0.078588
Si Si2 0.509013 0.192149 0.119885
Si Si3 0.853032 0.479820 0.243565
Si Si4 0.524909 0.432380 0.704388
Si Si5 0.917858 0.810902 0.089617
Si Si6 0.828103 0.884452 0.215384
Si Si7 0.366196 0.004764 0.052639
Si Si8 0.934616 0.408066 0.920617
O O1 0.425315 0.612749 0.893116
O O2 0.500000 0.500000 0.000000
O O3 0.545537 0.588872 0.148155
O O4 0.755431 0.583624 0.270153
O O5 0.705556 0.181687 0.365240
O O6 0.465131 0.262708 0.081622
O O7 0.526938 0.158423 0.066680
O O8 0.337965 0.161115 0.968976
O O9 0.895958 0.547519 0.315050
O O10 0.999221 0.464899 0.345427
O O11 0.899501 0.436429 0.357549
O O12 0.652561 0.473034 0.999766
O O13 0.500000 0.397859 0.750000
O O14 0.710344 0.467167 0.917456
O O15 0.000000 0.789413 0.250000
O O16 0.024299 0.870138 0.181263
O O17 0.740848 0.949153 0.109573
O O18 0.500000 0.037539 0.250000
#
# Coordination Sequence:
#
# PCOD9301594 Si02
#       8
#     8   8   8   8   8   8   8   8
#     4  12  21  40  61  90 124 159 207 255 311 375
#     4  12  25  43  61  85 115 163 215 258 317 358
#     4  11  21  37  57  88 121 155 205 252 312 361
#     4  12  24  37  55  83 127 164 195 247 305 370
#     4  12  28  44  62  87 124 167 216 271 314 355
#     4  12  25  40  64  87 118 171 215 264 308 362
#     4  12  24  36  55  88 125 164 211 255 303 370
#     4  11  21  37  63  86 115 161 204 259 307 373
#
# _framework density 19.665429
#
# number of rings (size 3 to 8) (size 9 to 14) (size 15 to 20)
#    0.000    0.250    8.750    1.125    1.750    0.500 
#    0.000    0.000    0.000    0.000    0.000    0.000 
#    0.000   10.000    0.000    0.000    0.000    0.000 
#
# Total GULP energy -178382.516428 kJ/mol
# GULP energy per Si atom -5574.453638 kJ/mol
# Density = 1.962067 g / cm^3
# Si number density = 19.665429 Si / 1000 Ang^3
#
#
#
# Elastic Constant Matrix: (Units=GPa)
#
#
# Indices 1 2 3 4 5 6 
#
# 1 94.2562 11.0674 36.1040 0.0007 -3.0240 0.0003
# 2 11.0674 29.8800 9.2391 0.0005 -2.5211 0.0007
# 3 36.1040 9.2391 117.6137 0.0025 10.0697 0.0023
# 4 0.0007 0.0005 0.0025 16.8423 0.0019 7.0778
# 5 -3.0240 -2.5211 10.0697 0.0019 39.9032 0.0016
# 6 0.0003 0.0007 0.0023 7.0778 0.0016 19.3201
#
#
#
# Elastic Compliance Matrix: (Units=1/GPa)
#
#
# Indices 1 2 3 4 5 6 
#
# 1 0.012476 -0.003332 -0.003711 0.000000 0.001671 0.000000
# 2 -0.003332 0.035524 -0.001981 0.000000 0.002492 -0.000001
# 3 -0.003711 -0.001981 0.010049 -0.000001 -0.002942 -0.000001
# 4 0.000000 0.000000 -0.000001 0.070178 -0.000002 -0.025709
# 5 0.001671 0.002492 -0.002942 -0.000002 0.026087 -0.000001
# 6 0.000000 -0.000001 -0.000001 -0.025709 -0.000001 0.061178
#
#
# Mechanical properties :
#
#
# Convention : Reuss Voigt Hill
#
# Bulk Modulus (GPa) = 24.99981 39.39676 32.19829
# Shear Modulus (GPa) = 20.25317 27.56910 23.91113
#
# Velocity S-wave (km/s) = 3.21267 3.74827 3.49075
# Velocity P-wave (km/s) = 5.14799 6.22974 5.71452
#
# Compressibility (1/GPa) = 0.04000030
#
# Stress axis : x y z
#
# Youngs Moduli (GPa) = 80.15539 28.14976 99.51133
#
# Poissons Ratio (x) = 0.09381 0.36929
# Poissons Ratio (y) = 0.26711 0.19713
# Poissons Ratio (z) = 0.29746 0.05576
#
# Static dielectric constant tensor:
#      x y z
#    x 1.785610 0.000000 0.012390 
#    y 0.000000 1.712350 -0.000010 
#    z 0.012390 -0.000010 1.720370 
# 
# From -- ./inp_files/216973.got.cif
#   From: 2010.05.17/outbox.cif.g08.bks.cpg/sg15_109_cif.got.tgz:216973.got - 2010.06.03 18:47:42.
