data_PCOD9301645
_publ_section_title
;
Structure prediction by ZEFSAII (Michael W. Deem and Ramdas Pophale) SiO2 
 PCOD9301645
Probable space group: C 2/C
;
_chemical_formula_sum "Si O2"
_cell_formula_units_Z 48
_cell_length_a 9.764467
_cell_length_b 10.617190
_cell_length_c 23.106261
_cell_angle_alpha 90.000000
_cell_angle_beta 48.675737
_cell_angle_gamma 90.000000
_cell_volume 1798.948884
_symmetry_space_group_name_H-M "C 2/C"
_symmetry_group_IT_number 15
_symmetry_cell_setting 'monoclinic'
loop_
_space_group_symop_operation_xyz
x,y,z
-x,y,1/2-z
-x,-y,-z
x,-y,1/2+z
1/2+x,1/2+y,z
1/2-x,1/2+y,1/2-z
1/2-x,1/2-y,-z
1/2+x,1/2-y,1/2+z
loop_
_atom_site_type_symbol
_atom_site_label
_atom_site_fract_x
_atom_site_fract_y
_atom_site_fract_z
Si Si1 0.159868 0.272767 0.806303
Si Si2 0.209663 0.837673 0.066768
Si Si3 0.811456 0.447855 0.335887
Si Si4 0.319329 0.508932 0.331036
Si Si5 0.157425 0.934551 0.494382
Si Si6 0.053048 0.169294 0.358637
O O1 0.206669 0.176246 0.844305
O O2 0.201585 0.411836 0.818438
O O3 0.303756 0.243294 0.715269
O O4 0.948801 0.243563 0.857055
O O5 0.293161 0.906258 0.100726
O O6 0.250000 0.750000 0.000000
O O7 0.186367 0.966563 0.037068
O O8 0.819362 0.430512 0.402898
O O9 0.691330 0.562930 0.345390
O O10 0.000000 0.455248 0.250000
O O11 0.500000 0.452467 0.250000
O O12 0.420631 0.612634 0.345131
O O13 0.072667 0.811506 0.549355
O O14 0.000000 0.000000 0.500000
#
# Coordination Sequence:
#
# PCOD9301645 Si02
#       6
#     8   8   8   8   8   8
#     4  11  21  40  65  87 123 171 214 265 327 386
#     4  11  23  40  61  89 129 167 208 270 334 385
#     4  11  21  37  65  94 121 166 215 259 323 393
#     4   9  19  41  63  87 123 163 212 272 318 382
#     4   9  18  41  60  83 128 160 196 274 316 366
#     4   9  19  38  62  88 123 160 210 265 314 383
#
# _framework density 26.682248000000001
#
# number of rings (size 3 to 8) (size 9 to 14) (size 15 to 20)
#    0.000    2.000    5.000    1.500    2.333    0.667 
#    6.000    7.500    0.000    0.000    0.000    0.000 
#    0.000    0.000    0.000    0.000    0.000    0.000 
#
# Total GULP energy -133714.484007 kJ/mol
# GULP energy per Si atom -5571.436834 kJ/mol
# Density = 2.662152 g / cm^3
# Si number density = 26.682248 Si / 1000 Ang^3
#
#
#
# Elastic Constant Matrix: (Units=GPa)
#
#
# Indices 1 2 3 4 5 6 
#
# 1 28.5420 11.8245 8.5463 0.0000 13.5884 0.0000
# 2 11.8245 59.2126 14.7905 0.0000 -3.4782 0.0000
# 3 8.5463 14.7905 156.6346 0.0000 10.1516 0.0000
# 4 0.0000 0.0000 0.0000 47.3676 0.0000 -0.5519
# 5 13.5884 -3.4782 10.1516 0.0000 36.7149 0.0000
# 6 0.0000 0.0000 0.0000 -0.5519 0.0000 34.9996
#
#
#
# Elastic Compliance Matrix: (Units=1/GPa)
#
#
# Indices 1 2 3 4 5 6 
#
# 1 0.048586 -0.010707 -0.000416 0.000000 -0.018881 0.000000
# 2 -0.010707 0.019821 -0.001696 0.000000 0.006310 0.000000
# 3 -0.000416 -0.001696 0.006687 0.000000 -0.001856 0.000000
# 4 0.000000 0.000000 0.000000 0.021115 0.000000 0.000333
# 5 -0.018881 0.006310 -0.001856 0.000000 0.035336 0.000000
# 6 0.000000 0.000000 0.000000 0.000333 0.000000 0.028577
#
#
# Mechanical properties :
#
#
# Convention : Reuss Voigt Hill
#
# Bulk Modulus (GPa) = 20.22081 34.96796 27.59438
# Shear Modulus (GPa) = 24.72232 37.76497 31.24365
#
# Velocity S-wave (km/s) = 3.04722 3.76621 3.42563
# Velocity P-wave (km/s) = 4.46941 5.66094 5.10009
#
# Compressibility (1/GPa) = 0.04945401
#
# Stress axis : x y z
#
# Youngs Moduli (GPa) = 20.58226 50.45191 149.53402
#
# Poissons Ratio (x) = 0.54021 0.06223
# Poissons Ratio (y) = 0.22038 0.25366
# Poissons Ratio (z) = 0.00857 0.08558
#
# Static dielectric constant tensor:
#      x y z
#    x 2.050380 0.000000 0.058800 
#    y 0.000000 2.182870 0.000000 
#    z 0.058800 0.000000 2.188030 
# 
# From -- ./inp_files/268691.got.cif
#   From: 2010.05.17/outbox.cif.g08.bks.cpg/sg15_135_cif.got.tgz:268691.got - 2010.06.03 18:47:42.
