data_PCOD9301683
_publ_section_title
;
Structure prediction by ZEFSAII (Michael W. Deem and Ramdas Pophale) SiO2 
 PCOD9301683
Probable space group: C 2/C
;
_chemical_formula_sum "Si O2"
_cell_formula_units_Z 64
_cell_length_a 9.963896
_cell_length_b 17.261852
_cell_length_c 32.529096
_cell_angle_alpha 90.000000
_cell_angle_beta 142.756576
_cell_angle_gamma 90.000000
_cell_volume 3386.018851
_symmetry_space_group_name_H-M "C 2/C"
_symmetry_group_IT_number 15
_symmetry_cell_setting 'monoclinic'
loop_
_space_group_symop_operation_xyz
x,y,z
-x,y,1/2-z
-x,-y,-z
x,-y,1/2+z
1/2+x,1/2+y,z
1/2-x,1/2+y,1/2-z
1/2-x,1/2-y,-z
1/2+x,1/2-y,1/2+z
loop_
_atom_site_type_symbol
_atom_site_label
_atom_site_fract_x
_atom_site_fract_y
_atom_site_fract_z
Si Si1 0.264652 0.331276 0.979607
Si Si2 0.858708 0.438507 0.328378
Si Si3 0.139688 0.625668 0.166111
Si Si4 0.785846 0.151795 0.958982
Si Si5 0.801922 0.829901 0.552963
Si Si6 0.525038 0.564625 0.821001
Si Si7 0.628845 0.082127 0.525505
Si Si8 0.500120 0.378974 0.815360
O O1 0.092184 0.334835 0.899890
O O2 0.250000 0.250000 0.000000
O O3 0.507631 0.344029 0.021038
O O4 0.188110 0.397774 0.993077
O O5 0.881595 0.532118 0.335695
O O6 0.720000 0.411110 0.254235
O O7 0.701580 0.415559 0.328403
O O8 0.095876 0.401267 0.393668
O O9 0.298323 0.644538 0.165742
O O10 0.274789 0.650188 0.239479
O O11 0.687491 0.237335 0.943099
O O12 0.857471 0.130448 0.023004
O O13 0.550530 0.855438 0.502559
O O14 0.956259 0.856310 0.627713
O O15 0.646453 0.586512 0.892850
O O16 0.505351 0.471748 0.815531
O O17 0.500000 0.000000 0.500000
#
# Coordination Sequence:
#
# PCOD9301683 Si02
#       8
#     8   8   8   8   8   8   8   8
#     4  12  24  41  59  89 124 153 201 259 308 360
#     4   9  18  35  56  88 122 153 199 246 299 350
#     4   9  18  33  60  88 115 155 198 245 296 354
#     4  11  24  38  57  86 127 159 193 252 311 360
#     4  11  21  38  60  86 118 161 199 238 303 367
#     4   9  17  32  61  90 112 152 205 251 281 357
#     4  12  20  37  68  90 112 156 211 244 289 361
#     4   9  16  34  60  87 114 149 204 245 285 357
#
# _framework density 18.901254000000002
#
# number of rings (size 3 to 8) (size 9 to 14) (size 15 to 20)
#    0.000    1.750    5.000    2.250    0.000    0.500 
#    2.250    1.250    0.000    3.000    0.000    0.000 
#    0.000    0.000    0.000    0.000    0.000    0.000 
#
# Total GULP energy -178406.623728 kJ/mol
# GULP energy per Si atom -5575.206992 kJ/mol
# Density = 1.885823 g / cm^3
# Si number density = 18.901254 Si / 1000 Ang^3
#
#
#
# Elastic Constant Matrix: (Units=GPa)
#
#
# Indices 1 2 3 4 5 6 
#
# 1 82.6628 10.9614 45.9653 0.0000 -1.4489 0.0000
# 2 10.9614 33.1211 32.7789 0.0000 6.4987 0.0000
# 3 45.9653 32.7789 181.9414 -0.0003 -6.0737 -0.0001
# 4 0.0000 0.0000 -0.0003 -15.6577 -0.0001 3.9828
# 5 -1.4489 6.4987 -6.0737 -0.0001 24.8461 0.0000
# 6 0.0000 0.0000 -0.0001 3.9828 0.0000 15.8245
#
#
#
# Elastic Compliance Matrix: (Units=1/GPa)
#
#
# Indices 1 2 3 4 5 6 
#
# 1 0.014131 -0.001508 -0.003285 0.000000 0.000415 0.000000
# 2 -0.001508 0.040360 -0.007305 0.000000 -0.012430 0.000000
# 3 -0.003285 -0.007305 0.007763 0.000000 0.003617 0.000000
# 4 0.000000 0.000000 0.000000 -0.060024 0.000000 0.015107
# 5 0.000415 -0.012430 0.003617 0.000000 0.044407 0.000000
# 6 0.000000 0.000000 0.000000 0.015107 0.000000 0.059391
#
#
# Mechanical properties :
#
#
# Convention : Reuss Voigt Hill
#
# Bulk Modulus (GPa) = 26.27501 53.01517 39.64509
# Shear Modulus (GPa) = 34.98706 18.87057 26.92881
#
# Velocity S-wave (km/s) = 4.30704 3.16314 3.77863
# Velocity P-wave (km/s) = 6.21816 6.43816 6.32912
#
# Compressibility (1/GPa) = 0.03805897
#
# Stress axis : x y z
#
# Youngs Moduli (GPa) = 70.76678 24.77697 128.81653
#
# Poissons Ratio (x) = 0.03735 0.42310
# Poissons Ratio (y) = 0.10668 0.94106
# Poissons Ratio (z) = 0.23244 0.18101
#
# Static dielectric constant tensor:
#      x y z
#    x 1.705900 0.000000 -0.045550 
#    y 0.000000 1.674130 0.000000 
#    z -0.045550 0.000000 1.713960 
# 
# From -- ./inp_files/308791.got.cif
#   From: 2010.05.17/outbox.cif.g08.bks.cpg/sg15_155_cif.got.tgz:308791.got - 2010.06.03 18:47:42.
