data_PCOD9301751
_publ_section_title
;
Structure prediction by ZEFSAII (Michael W. Deem and Ramdas Pophale) SiO2 
 PCOD9301751
Probable space group: C 2/C
;
_chemical_formula_sum "Si O2"
_cell_formula_units_Z 40
_cell_length_a 29.965754
_cell_length_b 7.640205
_cell_length_c 6.629162
_cell_angle_alpha 90.000000
_cell_angle_beta 63.783151
_cell_angle_gamma 90.000000
_cell_volume 1361.581073
_symmetry_space_group_name_H-M "C 2/C"
_symmetry_group_IT_number 15
_symmetry_cell_setting 'monoclinic'
loop_
_space_group_symop_operation_xyz
x,y,z
-x,y,1/2-z
-x,-y,-z
x,-y,1/2+z
1/2+x,1/2+y,z
1/2-x,1/2+y,1/2-z
1/2-x,1/2-y,-z
1/2+x,1/2-y,1/2+z
loop_
_atom_site_type_symbol
_atom_site_label
_atom_site_fract_x
_atom_site_fract_y
_atom_site_fract_z
Si Si1 0.134777 0.128840 0.342924
Si Si2 0.092435 0.644453 0.564879
Si Si3 0.551155 0.240501 0.259209
Si Si4 0.729943 0.557017 0.611042
Si Si5 0.695029 0.967079 0.269331
O O1 0.092457 0.127114 0.593950
O O2 0.177105 0.267775 0.325191
O O3 0.170136 0.964284 0.234556
O O4 0.108040 0.230002 0.214209
O O5 0.054862 0.742793 0.491375
O O6 0.067296 0.461075 0.679771
O O7 0.144201 0.583523 0.357542
O O8 0.500000 0.274289 0.250000
O O9 0.750000 0.750000 0.500000
O O10 0.790572 0.474502 0.513616
O O11 0.738712 0.545408 0.855962
#
# Coordination Sequence:
#
# PCOD9301751 Si02
#       5
#     8   8   8   8   8
#     4  11  24  43  65 105 157 200 256 308 377 455
#     4  11  21  38  69 108 155 199 251 318 378 457
#     4  11  22  40  71 114 156 196 260 327 389 453
#     4  12  26  41  67 101 150 206 248 307 376 457
#     4  11  21  43  66  99 148 192 241 301 376 455
#
# _framework density 29.377607999999999
#
# number of rings (size 3 to 8) (size 9 to 14) (size 15 to 20)
#    0.000    0.800    6.000    3.600    2.800    0.000 
#    0.000    0.000    0.000    0.000    0.000   28.000 
#   12.000    0.400    0.000    0.200    0.000    0.000 
#
# Total GULP energy -112052.502698 kJ/mol
# GULP energy per Si atom -5602.625135 kJ/mol
# Density = 2.931074 g / cm^3
# Si number density = 29.377608 Si / 1000 Ang^3
#
#
#
# Elastic Constant Matrix: (Units=GPa)
#
#
# Indices 1 2 3 4 5 6 
#
# 1 299.5348 39.9818 54.1206 0.0000 22.9927 0.0000
# 2 39.9818 152.9468 13.0859 0.0000 -9.7002 0.0000
# 3 54.1206 13.0859 97.6270 0.0000 16.6019 0.0000
# 4 0.0000 0.0000 0.0000 35.1429 0.0000 3.4040
# 5 22.9927 -9.7002 16.6019 0.0000 57.2708 0.0000
# 6 0.0000 0.0000 0.0000 3.4040 0.0000 35.5170
#
#
#
# Elastic Compliance Matrix: (Units=1/GPa)
#
#
# Indices 1 2 3 4 5 6 
#
# 1 0.003884 -0.000935 -0.001826 0.000000 -0.001188 0.000000
# 2 -0.000935 0.006955 -0.000713 0.000000 0.001760 0.000000
# 3 -0.001826 -0.000713 0.011830 0.000000 -0.002817 0.000000
# 4 0.000000 0.000000 0.000000 0.028722 0.000000 -0.002753
# 5 -0.001188 0.001760 -0.002817 0.000000 0.019053 0.000000
# 6 0.000000 0.000000 0.000000 -0.002753 0.000000 0.028419
#
#
# Mechanical properties :
#
#
# Convention : Reuss Voigt Hill
#
# Bulk Modulus (GPa) = 63.60706 84.94280 74.27493
# Shear Modulus (GPa) = 45.02387 55.11418 50.06902
#
# Velocity S-wave (km/s) = 3.91908 4.33605 4.13283
# Velocity P-wave (km/s) = 6.49442 7.35155 6.93624
#
# Compressibility (1/GPa) = 0.01572153
#
# Stress axis : x y z
#
# Youngs Moduli (GPa) = 257.43953 143.77742 84.53072
#
# Poissons Ratio (x) = 0.13437 0.15435
# Poissons Ratio (y) = 0.24059 0.06031
# Poissons Ratio (z) = 0.47008 0.10258
#
# Static dielectric constant tensor:
#      x y z
#    x 2.224910 0.000000 0.142580 
#    y 0.000000 2.222480 0.000000 
#    z 0.142580 0.000000 2.535960 
# 
# From -- ./inp_files/68258.got.cif
#   From: 2010.05.17/outbox.cif.g08.bks.cpg/sg15_35_cif.got.tgz:68258.got - 2010.06.03 18:47:42.
