data_PCOD9301178
_publ_section_title
;
Structure prediction by ZEFSAII (Michael W. Deem and Ramdas Pophale) SiO2 
 PCOD9301178
Probable space group: C 2/C
;
_chemical_formula_sum "Si O2"
_cell_formula_units_Z 52
_cell_length_a 14.580535
_cell_length_b 16.311375
_cell_length_c 11.364997
_cell_angle_alpha 90.000000
_cell_angle_beta 63.072535
_cell_angle_gamma 90.000000
_cell_volume 2409.871821
_symmetry_space_group_name_H-M "C 2/C"
_symmetry_group_IT_number 15
_symmetry_cell_setting 'monoclinic'
loop_
_space_group_symop_operation_xyz
x,y,z
-x,y,1/2-z
-x,-y,-z
x,-y,1/2+z
1/2+x,1/2+y,z
1/2-x,1/2+y,1/2-z
1/2-x,1/2-y,-z
1/2+x,1/2-y,1/2+z
loop_
_atom_site_type_symbol
_atom_site_label
_atom_site_fract_x
_atom_site_fract_y
_atom_site_fract_z
Si Si1 0.321968 0.157543 0.458077
Si Si2 0.903118 0.767086 0.628903
Si Si3 0.878504 0.812434 0.302095
Si Si4 0.753610 0.858324 0.878609
Si Si5 0.634414 0.312588 0.453208
Si Si6 0.000000 0.356202 0.250000
Si Si7 0.099299 0.515657 0.521312
O O1 0.363834 0.211660 0.544122
O O2 0.199763 0.151016 0.555319
O O3 0.356912 0.214149 0.328791
O O4 0.369580 0.068398 0.434648
O O5 0.827400 0.833795 0.728213
O O6 0.011753 0.807504 0.535076
O O7 0.926253 0.702393 0.718856
O O8 0.843896 0.841145 0.192671
O O9 0.000000 0.827109 0.250000
O O10 0.676978 0.780522 0.935556
O O11 0.816668 0.860349 0.965391
O O12 0.692433 0.942471 0.896094
O O13 0.931835 0.415078 0.368561
O O14 0.000000 0.500000 0.500000
#
# Coordination Sequence:
#
# PCOD9301178 Si02
#       7
#     8   8   8   8   8   4   8
#     4  11  25  42  63  98 133 178 223 271 340 400
#     4  12  20  40  68  98 129 170 231 273 320 406
#     4  11  24  42  67  92 127 183 229 270 320 402
#     4  11  22  38  66  98 131 174 216 277 337 385
#     4  11  20  38  67  96 125 166 229 272 318 393
#     4  12  22  38  66  98 132 174 212 278 336 386
#     4  12  26  41  63  99 142 170 211 282 346 395
#
# _framework density 21.577909999999999
#
# number of rings (size 3 to 8) (size 9 to 14) (size 15 to 20)
#    0.000    0.615    7.692    0.923    1.077    0.000 
#    0.000    1.538    0.000    1.846    0.000    0.000 
#    0.000    0.000    0.000    0.000    0.000    0.000 
#
# Total GULP energy -145378.365203 kJ/mol
# GULP energy per Si atom -5591.475585 kJ/mol
# Density = 2.152880 g / cm^3
# Si number density = 21.577910 Si / 1000 Ang^3
#
#
#
# Elastic Constant Matrix: (Units=GPa)
#
#
# Indices 1 2 3 4 5 6 
#
# 1 95.2825 -1.0919 20.7273 0.0000 -6.4631 0.0000
# 2 -1.0919 39.6440 -2.5658 0.0000 -3.5029 0.0000
# 3 20.7273 -2.5658 74.8670 0.0000 -2.9051 0.0000
# 4 0.0000 0.0000 0.0000 17.6762 0.0000 -8.9362
# 5 -6.4631 -3.5029 -2.9051 0.0000 44.0381 0.0000
# 6 0.0000 0.0000 0.0000 -8.9362 0.0000 27.6402
#
#
#
# Elastic Compliance Matrix: (Units=1/GPa)
#
#
# Indices 1 2 3 4 5 6 
#
# 1 0.011262 0.000243 -0.003052 0.000000 0.001471 0.000000
# 2 0.000243 0.025476 0.000888 0.000000 0.002121 0.000000
# 3 -0.003052 0.000888 0.014254 0.000000 0.000563 0.000000
# 4 0.000000 0.000000 0.000000 0.067627 0.000000 0.021864
# 5 0.001471 0.002121 0.000563 0.000000 0.023129 0.000000
# 6 0.000000 0.000000 0.000000 0.021864 0.000000 0.043248
#
#
# Mechanical properties :
#
#
# Convention : Reuss Voigt Hill
#
# Bulk Modulus (GPa) = 21.20944 27.10363 24.15653
# Shear Modulus (GPa) = 24.44324 30.71917 27.58121
#
# Velocity S-wave (km/s) = 3.36935 3.77721 3.57909
# Velocity P-wave (km/s) = 4.99872 5.62238 5.31970
#
# Compressibility (1/GPa) = 0.04714881
#
# Stress axis : x y z
#
# Youngs Moduli (GPa) = 88.79683 39.25255 70.15380
#
# Poissons Ratio (x) = -0.00952 0.21414
# Poissons Ratio (y) = -0.02154 -0.06231
# Poissons Ratio (z) = 0.27105 -0.03487
#
# Static dielectric constant tensor:
#      x y z
#    x 1.970160 0.000000 0.028690 
#    y 0.000000 1.940320 0.000000 
#    z 0.028690 0.000000 1.887650 
# 
# From -- ./inp_files/98210.got.cif
#   From: 2010.05.17/outbox.cif.g08.bks.cpg/sg15_50_cif.got.tgz:98210.got - 2010.06.03 18:47:42.
