data_PCOD9301956
_publ_section_title
;
Structure prediction by ZEFSAII (Michael W. Deem and Ramdas Pophale) SiO2 
 PCOD9301956
Probable space group: C 2/C
;
_chemical_formula_sum "Si O2"
_cell_formula_units_Z 48
_cell_length_a 27.057818
_cell_length_b 8.584421
_cell_length_c 20.035787
_cell_angle_alpha 90.000000
_cell_angle_beta 152.271305
_cell_angle_gamma 90.000000
_cell_volume 2165.357568
_symmetry_space_group_name_H-M "C 2/C"
_symmetry_group_IT_number 15
_symmetry_cell_setting 'monoclinic'
loop_
_space_group_symop_operation_xyz
x,y,z
-x,y,1/2-z
-x,-y,-z
x,-y,1/2+z
1/2+x,1/2+y,z
1/2-x,1/2+y,1/2-z
1/2-x,1/2-y,-z
1/2+x,1/2-y,1/2+z
loop_
_atom_site_type_symbol
_atom_site_label
_atom_site_fract_x
_atom_site_fract_y
_atom_site_fract_z
Si Si1 0.472294 0.737545 0.533572
Si Si2 0.419904 0.091028 0.098648
Si Si3 0.679328 0.453948 0.116131
Si Si4 0.518065 0.250841 0.841275
Si Si5 0.137820 0.291425 0.232703
Si Si6 0.303027 0.569927 0.710146
O O1 0.467284 0.870263 0.582744
O O2 0.377651 0.618657 0.441055
O O3 0.449112 0.793880 0.430884
O O4 0.583457 0.646157 0.669620
O O5 0.500000 0.157101 0.250000
O O6 0.420860 0.905039 0.106354
O O7 0.295991 0.136068 0.949948
O O8 0.777943 0.425539 0.184791
O O9 0.716292 0.402384 0.233988
O O10 0.587152 0.346797 0.975854
O O11 0.500000 0.339898 0.750000
O O12 0.413006 0.200445 0.755283
O O13 0.187331 0.117089 0.286990
#
# Coordination Sequence:
#
# PCOD9301956 Si02
#       6
#     8   8   8   8   8   8
#     4  11  23  41  69 100 131 177 221 274 333 390
#     4  11  26  44  61  95 139 171 218 281 332 394
#     4  11  21  40  70 100 123 170 225 268 327 390
#     4  11  24  43  64  96 135 173 224 270 327 394
#     4  11  21  41  71 100 131 170 224 278 323 390
#     4  11  21  42  70  95 134 172 216 282 327 383
#
# _framework density 22.16724
#
# number of rings (size 3 to 8) (size 9 to 14) (size 15 to 20)
#    0.000    1.000    6.667    1.000    0.000    4.000 
#    0.000    0.000    0.000    0.000    0.000    0.000 
#    0.000    0.000    0.000    0.000    0.000    0.000 
#
# Total GULP energy -134060.776824 kJ/mol
# GULP energy per Si atom -5585.865701 kJ/mol
# Density = 2.211679 g / cm^3
# Si number density = 22.167240 Si / 1000 Ang^3
#
#
#
# Elastic Constant Matrix: (Units=GPa)
#
#
# Indices 1 2 3 4 5 6 
#
# 1 105.0184 0.4793 44.4959 0.0000 -2.1908 0.0000
# 2 0.4793 25.4095 14.6183 0.0000 -4.8597 0.0000
# 3 44.4959 14.6183 118.8426 0.0000 -1.7969 0.0000
# 4 0.0000 0.0000 0.0000 19.8039 0.0000 1.8863
# 5 -2.1908 -4.8597 -1.7969 0.0000 31.4692 0.0000
# 6 0.0000 0.0000 0.0000 1.8863 0.0000 24.1812
#
#
#
# Elastic Compliance Matrix: (Units=1/GPa)
#
#
# Indices 1 2 3 4 5 6 
#
# 1 0.011481 0.002613 -0.004606 0.000000 0.000940 0.000000
# 2 0.002613 0.044211 -0.006316 0.000000 0.006649 0.000000
# 3 -0.004606 -0.006316 0.010906 0.000000 -0.000673 0.000000
# 4 0.000000 0.000000 0.000000 0.050873 0.000000 -0.003968
# 5 0.000940 0.006649 -0.000673 0.000000 0.032831 0.000000
# 6 0.000000 0.000000 0.000000 -0.003968 0.000000 0.041664
#
#
# Mechanical properties :
#
#
# Convention : Reuss Voigt Hill
#
# Bulk Modulus (GPa) = 20.00780 40.93971 30.47376
# Shear Modulus (GPa) = 22.19812 27.73601 24.96707
#
# Velocity S-wave (km/s) = 3.16791 3.54109 3.35969
# Velocity P-wave (km/s) = 4.73564 5.93530 5.36908
#
# Compressibility (1/GPa) = 0.04998050
#
# Stress axis : x y z
#
# Youngs Moduli (GPa) = 87.09783 22.61862 91.69489
#
# Poissons Ratio (x) = -0.05910 0.42234
# Poissons Ratio (y) = -0.22759 0.57915
# Poissons Ratio (z) = 0.40117 0.14286
#
# Static dielectric constant tensor:
#      x y z
#    x 1.810890 0.000000 0.003370 
#    y 0.000000 1.812360 0.000000 
#    z 0.003370 0.000000 1.871990 
# 
# From -- ./inp_files/257115.got.cif
#   From: 2010.05.17/outbox.cif.g08.bks.cpg/sg15_129_cif.got.tgz:257115.got - 2010.06.03 18:47:42.
