data_PCOD9301621
_publ_section_title
;
Structure prediction by ZEFSAII (Michael W. Deem and Ramdas Pophale) SiO2 
 PCOD9301621
Probable space group: C 2/C
;
_chemical_formula_sum "Si O2"
_cell_formula_units_Z 40
_cell_length_a 10.008125
_cell_length_b 21.558958
_cell_length_c 8.837205
_cell_angle_alpha 90.000000
_cell_angle_beta 94.233755
_cell_angle_gamma 90.000000
_cell_volume 1901.554055
_symmetry_space_group_name_H-M "C 2/C"
_symmetry_group_IT_number 15
_symmetry_cell_setting 'monoclinic'
loop_
_space_group_symop_operation_xyz
x,y,z
-x,y,1/2-z
-x,-y,-z
x,-y,1/2+z
1/2+x,1/2+y,z
1/2-x,1/2+y,1/2-z
1/2-x,1/2-y,-z
1/2+x,1/2-y,1/2+z
loop_
_atom_site_type_symbol
_atom_site_label
_atom_site_fract_x
_atom_site_fract_y
_atom_site_fract_z
Si Si1 0.397011 0.472628 0.872035
Si Si2 0.539552 0.169492 0.931437
Si Si3 0.505092 0.306793 0.930438
Si Si4 0.201579 0.892427 0.133932
Si Si5 0.747456 0.641989 0.982404
O O1 0.500000 0.452429 0.750000
O O2 0.311976 0.534610 0.831037
O O3 0.500000 0.500000 0.000000
O O4 0.305517 0.418582 0.931688
O O5 0.500000 0.169045 0.750000
O O6 0.572973 0.240782 0.971644
O O7 0.666796 0.124647 0.952405
O O8 0.406316 0.150059 0.009804
O O9 0.500000 0.316044 0.750000
O O10 0.579079 0.360731 0.032011
O O11 0.349534 0.304527 0.964441
O O12 0.214495 0.863019 0.301250
#
# Coordination Sequence:
#
# PCOD9301621 Si02
#       5
#     8   8   8   8   8
#     4  12  22  38  64  91 114 153 204 244 291 354
#     4   9  22  40  59  89 122 156 195 244 303 351
#     4  11  21  37  63  89 119 156 202 245 287 355
#     4  11  22  40  63  86 118 161 197 243 299 352
#     4  11  22  39  63  87 121 156 197 246 296 351
#
# _framework density 21.035426000000001
#
# number of rings (size 3 to 8) (size 9 to 14) (size 15 to 20)
#    0.000    1.200    4.000    2.400    0.000    0.800 
#    0.000    3.000    0.000    0.000    0.000    0.000 
#    0.000    0.000    0.000    0.000    0.000    0.000 
#
# Total GULP energy -111607.273384 kJ/mol
# GULP energy per Si atom -5580.363669 kJ/mol
# Density = 2.098755 g / cm^3
# Si number density = 21.035426 Si / 1000 Ang^3
#
#
#
# Elastic Constant Matrix: (Units=GPa)
#
#
# Indices 1 2 3 4 5 6 
#
# 1 123.2724 39.1883 31.9591 0.0000 -43.9261 0.0000
# 2 39.1883 96.6238 14.2323 0.0000 -22.2578 0.0000
# 3 31.9591 14.2323 82.8110 0.0000 -22.7849 0.0000
# 4 0.0000 0.0000 0.0000 17.4635 0.0000 -18.1961
# 5 -43.9261 -22.2578 -22.7849 0.0000 34.7423 0.0000
# 6 0.0000 0.0000 0.0000 -18.1961 0.0000 18.7057
#
#
#
# Elastic Compliance Matrix: (Units=1/GPa)
#
#
# Indices 1 2 3 4 5 6 
#
# 1 0.015128 -0.002032 -0.000713 0.000000 0.017357 0.000000
# 2 -0.002032 0.012414 0.000161 0.000000 0.005490 0.000000
# 3 -0.000713 0.000161 0.014768 0.000000 0.008887 0.000000
# 4 0.000000 0.000000 0.000000 -4.222107 0.000000 -4.107073
# 5 0.017357 0.005490 0.008887 0.000000 0.060074 0.000000
# 6 0.000000 0.000000 0.000000 -4.107073 0.000000 -3.941714
#
#
# Mechanical properties :
#
#
# Convention : Reuss Voigt Hill
#
# Bulk Modulus (GPa) = 26.92358 52.60740 39.76549
# Shear Modulus (GPa) = -0.62159 28.67081 14.02461
#
# Velocity S-wave (km/s) = -0.54419 3.69586 2.58488
# Velocity P-wave (km/s) = 3.52592 6.57843 5.27768
#
# Compressibility (1/GPa) = 0.03714216
#
# Stress axis : x y z
#
# Youngs Moduli (GPa) = 66.10238 80.55126 67.71183
#
# Poissons Ratio (x) = 0.16369 0.04830
# Poissons Ratio (y) = 0.13433 -0.01091
# Poissons Ratio (z) = 0.04715 -0.01298
#
# Static dielectric constant tensor:
#      x y z
#    x 1.767330 0.000000 0.023140 
#    y 0.000000 1.846900 0.000000 
#    z 0.023140 0.000000 1.727490 
# 
# From -- ./inp_files/23459.got.cif
#   From: 2010.05.17/outbox.cif.g08.bks.cpg/sg15_12_cif.got.tgz:23459.got - 2010.06.03 18:47:42.
