data_PCOD9301640
_publ_section_title
;
Structure prediction by ZEFSAII (Michael W. Deem and Ramdas Pophale) SiO2 
 PCOD9301640
Probable space group: C 2/C
;
_chemical_formula_sum "Si O2"
_cell_formula_units_Z 40
_cell_length_a 7.361542
_cell_length_b 25.802471
_cell_length_c 9.937325
_cell_angle_alpha 90.000000
_cell_angle_beta 84.038757
_cell_angle_gamma 90.000000
_cell_volume 1877.347686
_symmetry_space_group_name_H-M "C 2/C"
_symmetry_group_IT_number 15
_symmetry_cell_setting 'monoclinic'
loop_
_space_group_symop_operation_xyz
x,y,z
-x,y,1/2-z
-x,-y,-z
x,-y,1/2+z
1/2+x,1/2+y,z
1/2-x,1/2+y,1/2-z
1/2-x,1/2-y,-z
1/2+x,1/2-y,1/2+z
loop_
_atom_site_type_symbol
_atom_site_label
_atom_site_fract_x
_atom_site_fract_y
_atom_site_fract_z
Si Si1 0.165693 0.379009 0.530858
Si Si2 0.752304 0.641372 0.042123
Si Si3 0.467587 0.548335 0.098168
Si Si4 0.779345 0.287020 0.781760
Si Si5 0.780259 0.171261 0.760596
O O1 0.268613 0.427737 0.585137
O O2 0.249640 0.327853 0.596728
O O3 0.203923 0.370993 0.370021
O O4 0.950188 0.379494 0.572247
O O5 0.606337 0.595525 0.056703
O O6 0.704141 0.686886 0.151125
O O7 0.770891 0.662281 0.889922
O O8 0.500000 0.533665 0.250000
O O9 0.500000 0.500000 0.000000
O O10 0.714022 0.228669 0.808455
O O11 0.000000 0.282976 0.750000
O O12 0.000000 0.168968 0.750000
#
# Coordination Sequence:
#
# PCOD9301640 Si02
#       5
#     8   8   8   8   8
#     4  11  23  44  66  96 138 175 219 279 329 395
#     4  11  23  44  66  96 138 175 219 279 329 395
#     4  12  28  48  74  98 128 176 226 284 343 388
#     4   9  20  38  64  97 134 182 225 259 328 400
#     4  11  21  37  65 101 139 181 221 264 321 402
#
# _framework density 21.306654999999999
#
# number of rings (size 3 to 8) (size 9 to 14) (size 15 to 20)
#    0.000    1.200    4.000    1.800    2.800    0.800 
#    7.200    0.000    0.000    0.000    0.000    0.000 
#    0.000    0.000    0.000    0.000    0.000    0.000 
#
# Total GULP energy -111926.378986 kJ/mol
# GULP energy per Si atom -5596.318949 kJ/mol
# Density = 2.125816 g / cm^3
# Si number density = 21.306655 Si / 1000 Ang^3
#
#
#
# Elastic Constant Matrix: (Units=GPa)
#
#
# Indices 1 2 3 4 5 6 
#
# 1 80.5304 12.2275 -13.5369 0.0000 16.5499 0.0000
# 2 12.2275 65.8418 21.2991 0.0000 12.9761 0.0000
# 3 -13.5369 21.2991 121.6450 0.0000 20.3709 0.0000
# 4 0.0000 0.0000 0.0000 7.3017 0.0000 -11.4937
# 5 16.5499 12.9761 20.3709 0.0000 29.2159 0.0000
# 6 0.0000 0.0000 0.0000 -11.4937 0.0000 18.5764
#
#
#
# Elastic Compliance Matrix: (Units=1/GPa)
#
#
# Indices 1 2 3 4 5 6 
#
# 1 0.015556 -0.002051 0.003865 0.000000 -0.010596 0.000000
# 2 -0.002051 0.017312 -0.002453 0.000000 -0.004817 0.000000
# 3 0.003865 -0.002453 0.010489 0.000000 -0.008413 0.000000
# 4 0.000000 0.000000 0.000000 5.255971 0.000000 3.252014
# 5 -0.010596 -0.004817 -0.008413 0.000000 0.048236 0.000000
# 6 0.000000 0.000000 0.000000 3.252014 0.000000 2.065943
#
#
# Mechanical properties :
#
#
# Convention : Reuss Voigt Hill
#
# Bulk Modulus (GPa) = 23.76483 34.22184 28.99333
# Shear Modulus (GPa) = 0.67306 27.55397 14.11351
#
# Velocity S-wave (km/s) = 0.56265 3.60002 2.57650
# Velocity P-wave (km/s) = 3.40588 5.77725 4.74219
#
# Compressibility (1/GPa) = 0.04207900
#
# Stress axis : x y z
#
# Youngs Moduli (GPa) = 64.28273 57.76494 95.33726
#
# Poissons Ratio (x) = 0.11847 -0.36844
# Poissons Ratio (y) = 0.13184 0.23383
# Poissons Ratio (z) = -0.24843 0.14168
#
# Static dielectric constant tensor:
#      x y z
#    x 1.799460 0.000000 0.004970 
#    y 0.000000 1.719830 0.000000 
#    z 0.004970 0.000000 1.764430 
# 
# From -- ./inp_files/23609.got.cif
#   From: 2010.05.17/outbox.cif.g08.bks.cpg/sg15_12_cif.got.tgz:23609.got - 2010.06.03 18:47:42.
