data_PCOD9301638
_publ_section_title
;
Structure prediction by ZEFSAII (Michael W. Deem and Ramdas Pophale) SiO2 
 PCOD9301638
Probable space group: C 2/C
;
_chemical_formula_sum "Si O2"
_cell_formula_units_Z 44
_cell_length_a 14.834190
_cell_length_b 28.373350
_cell_length_c 10.618424
_cell_angle_alpha 90.000000
_cell_angle_beta 152.958161
_cell_angle_gamma 90.000000
_cell_volume 2031.903741
_symmetry_space_group_name_H-M "C 2/C"
_symmetry_group_IT_number 15
_symmetry_cell_setting 'monoclinic'
loop_
_space_group_symop_operation_xyz
x,y,z
-x,y,1/2-z
-x,-y,-z
x,-y,1/2+z
1/2+x,1/2+y,z
1/2-x,1/2+y,1/2-z
1/2-x,1/2-y,-z
1/2+x,1/2-y,1/2+z
loop_
_atom_site_type_symbol
_atom_site_label
_atom_site_fract_x
_atom_site_fract_y
_atom_site_fract_z
Si Si1 0.545566 0.322557 0.082594
Si Si2 0.500000 0.078940 0.750000
Si Si3 0.362146 0.506435 0.204351
Si Si4 0.872423 0.356011 0.888792
Si Si5 0.285745 0.405457 0.046986
Si Si6 0.066115 0.721768 0.474538
O O1 0.677042 0.363837 0.308318
O O2 0.712457 0.295000 0.211370
O O3 0.336070 0.348163 0.795479
O O4 0.474402 0.277559 0.075763
O O5 0.519119 0.114312 0.656701
O O6 0.303188 0.047085 0.488812
O O7 0.500000 0.513752 0.250000
O O8 0.500000 0.500000 0.500000
O O9 0.243071 0.457004 0.044455
O O10 0.847058 0.386923 0.731042
O O11 0.938837 0.305832 0.919097
O O12 0.500000 0.411103 0.250000
O O13 0.000000 0.707368 0.250000
#
# Coordination Sequence:
#
# PCOD9301638 Si02
#       6
#     8   4   8   8   8   8
#     4  11  21  37  65 100 138 170 222 291 346 402
#     4  12  28  46  72  96 142 188 236 284 348 420
#     4  11  25  47  74 104 139 184 233 291 355 419
#     4  11  24  42  60  99 135 178 227 280 339 410
#     4   9  19  37  63  95 133 167 218 284 342 398
#     4  12  21  35  66 101 133 176 223 283 347 407
#
# _framework density 21.654568999999999
#
# number of rings (size 3 to 8) (size 9 to 14) (size 15 to 20)
#    0.000    1.091    3.636    5.455    0.000    7.273 
#    0.000    0.909    0.000    0.000    0.000    0.000 
#    0.000    0.000    0.000    0.000    0.000    0.000 
#
# Total GULP energy -122468.636394 kJ/mol
# GULP energy per Si atom -5566.756200 kJ/mol
# Density = 2.160528 g / cm^3
# Si number density = 21.654569 Si / 1000 Ang^3
#
#
#
# Elastic Constant Matrix: (Units=GPa)
#
#
# Indices 1 2 3 4 5 6 
#
# 1 54.2435 14.8084 30.6302 -0.0005 8.3943 -0.0004
# 2 14.8084 119.2725 18.6853 -0.0006 -10.4361 -0.0005
# 3 30.6302 18.6853 78.8865 -0.0002 1.7716 -0.0001
# 4 -0.0005 -0.0006 -0.0002 398.3095 -0.0008 330.8557
# 5 8.3943 -10.4361 1.7716 -0.0008 28.0734 -0.0007
# 6 -0.0004 -0.0005 -0.0001 330.8557 -0.0007 294.7521
#
#
#
# Elastic Compliance Matrix: (Units=1/GPa)
#
#
# Indices 1 2 3 4 5 6 
#
# 1 0.025492 -0.002428 -0.009144 0.000000 -0.007948 0.000000
# 2 -0.002428 0.009269 -0.001348 0.000000 0.004257 0.000000
# 3 -0.009144 -0.001348 0.016520 0.000000 0.001190 0.000000
# 4 0.000000 0.000000 0.000000 0.037136 0.000000 -0.041685
# 5 -0.007948 0.004257 0.001190 0.000000 0.039505 0.000000
# 6 0.000000 0.000000 0.000000 -0.041685 0.000000 0.050184
#
#
# Mechanical properties :
#
#
# Convention : Reuss Voigt Hill
#
# Bulk Modulus (GPa) = 39.30919 42.29448 40.80184
# Shear Modulus (GPa) = 23.53753 156.77890 90.15822
#
# Velocity S-wave (km/s) = 3.30048 8.51805 6.45950
# Velocity P-wave (km/s) = 5.71983 10.78502 8.63230
#
# Compressibility (1/GPa) = 0.02543935
#
# Stress axis : x y z
#
# Youngs Moduli (GPa) = 39.22833 107.88286 60.53367
#
# Poissons Ratio (x) = 0.26192 0.55355
# Poissons Ratio (y) = 0.09524 0.08163
# Poissons Ratio (z) = 0.35872 0.14548
#
# Static dielectric constant tensor:
#      x y z
#    x 1.934920 0.000000 0.018280 
#    y 0.000000 1.843080 0.000000 
#    z 0.018280 0.000000 1.842270 
# 
# From -- ./inp_files/108682.got.cif
#   From: 2010.05.17/outbox.cif.g08.bks.cpg/sg15_55_cif.got.tgz:108682.got - 2010.06.03 18:47:42.
