data_PCOD9301795
_publ_section_title
;
Structure prediction by ZEFSAII (Michael W. Deem and Ramdas Pophale) SiO2 
 PCOD9301795
Probable space group: C 2/C
;
_chemical_formula_sum "Si O2"
_cell_formula_units_Z 60
_cell_length_a 21.172215
_cell_length_b 8.436102
_cell_length_c 15.514254
_cell_angle_alpha 90.000000
_cell_angle_beta 119.110773
_cell_angle_gamma 90.000000
_cell_volume 2420.983276
_symmetry_space_group_name_H-M "C 2/C"
_symmetry_group_IT_number 15
_symmetry_cell_setting 'monoclinic'
loop_
_space_group_symop_operation_xyz
x,y,z
-x,y,1/2-z
-x,-y,-z
x,-y,1/2+z
1/2+x,1/2+y,z
1/2-x,1/2+y,1/2-z
1/2-x,1/2-y,-z
1/2+x,1/2-y,1/2+z
loop_
_atom_site_type_symbol
_atom_site_label
_atom_site_fract_x
_atom_site_fract_y
_atom_site_fract_z
Si Si1 0.526145 0.549069 0.110503
Si Si2 0.500000 0.069560 0.250000
Si Si3 0.618353 0.585460 0.926989
Si Si4 0.183901 0.359327 0.630827
Si Si5 0.122015 0.208515 0.748130
Si Si6 0.191581 0.373753 0.001795
Si Si7 0.249757 0.383067 0.426813
Si Si8 0.972536 0.385205 0.058321
O O1 0.459919 0.492546 0.127396
O O2 0.594417 0.438672 0.172827
O O3 0.527048 0.737990 0.109313
O O4 0.500000 0.500000 0.000000
O O5 0.442802 0.184694 0.258217
O O6 0.469638 0.965726 0.150372
O O7 0.646364 0.613735 0.848958
O O8 0.622386 0.761235 0.970681
O O9 0.675311 0.479081 0.015932
O O10 0.168247 0.330510 0.721108
O O11 0.205066 0.525381 0.598154
O O12 0.244638 0.225129 0.652814
O O13 0.106717 0.329386 0.529248
O O14 0.250000 0.250000 0.000000
O O15 0.188712 0.497643 0.919972
O O16 0.250000 0.250000 0.500000
O O17 0.000000 0.500000 0.000000
#
# Coordination Sequence:
#
# PCOD9301795 Si02
#       8
#     8   4   8   8   8   8   8   8
#     4  12  23  39  64  91 133 182 222 262 329 415
#     4  12  24  38  60  92 148 176 224 268 326 394
#     4  11  21  39  64  93 130 169 217 272 344 392
#     4  11  21  40  64  90 133 171 219 268 346 396
#     4  12  24  40  61  99 139 178 212 276 330 412
#     4   9  21  39  68  92 119 166 222 277 335 396
#     4   9  19  40  65  92 118 165 224 279 333 395
#     4  12  25  40  62  97 132 181 224 273 327 413
#
# _framework density 24.783318999999999
#
# number of rings (size 3 to 8) (size 9 to 14) (size 15 to 20)
#    0.000    1.067    5.333    0.800    3.733    0.000 
#    0.000    4.000    0.000    0.000    0.000    0.000 
#    0.000    0.000    0.000    0.000    0.000    0.000 
#
# Total GULP energy -167296.076236 kJ/mol
# GULP energy per Si atom -5576.535875 kJ/mol
# Density = 2.472691 g / cm^3
# Si number density = 24.783319 Si / 1000 Ang^3
#
#
#
# Elastic Constant Matrix: (Units=GPa)
#
#
# Indices 1 2 3 4 5 6 
#
# 1 68.3799 27.7529 9.7178 0.0000 -35.3073 0.0000
# 2 27.7529 150.4071 28.7375 0.0000 -23.1041 0.0000
# 3 9.7178 28.7375 94.4458 0.0000 -31.4784 0.0000
# 4 0.0000 0.0000 0.0000 25.1736 0.0000 -10.5668
# 5 -35.3073 -23.1041 -31.4784 0.0000 44.3825 0.0000
# 6 0.0000 0.0000 0.0000 -10.5668 0.0000 46.8959
#
#
#
# Elastic Compliance Matrix: (Units=1/GPa)
#
#
# Indices 1 2 3 4 5 6 
#
# 1 0.027793 -0.002447 0.006325 0.000000 0.025322 0.000000
# 2 -0.002447 0.007554 -0.001814 0.000000 0.000699 0.000000
# 3 0.006325 -0.001814 0.015520 0.000000 0.015095 0.000000
# 4 0.000000 0.000000 0.000000 0.043874 0.000000 0.009886
# 5 0.025322 0.000699 0.015095 0.000000 0.053746 0.000000
# 6 0.000000 0.000000 0.000000 0.009886 0.000000 0.023551
#
#
# Mechanical properties :
#
#
# Convention : Reuss Voigt Hill
#
# Bulk Modulus (GPa) = 18.18327 49.51658 33.84993
# Shear Modulus (GPa) = 26.84663 39.75869 33.30266
#
# Velocity S-wave (km/s) = 3.29485 4.00966 3.66970
# Velocity P-wave (km/s) = 4.67200 6.43892 5.62526
#
# Compressibility (1/GPa) = 0.05499561
#
# Stress axis : x y z
#
# Youngs Moduli (GPa) = 35.97981 132.37833 64.43183
#
# Poissons Ratio (x) = 0.32394 -0.40751
# Poissons Ratio (y) = 0.08804 0.11686
# Poissons Ratio (z) = -0.22756 0.24009
#
# Static dielectric constant tensor:
#      x y z
#    x 2.415240 0.000000 0.054750 
#    y 0.000000 2.102910 0.000000 
#    z 0.054750 0.000000 2.132680 
# 
# From -- ./inp_files/171937.got.cif
#   From: 2010.05.17/outbox.cif.g08.bks.cpg/sg15_86_cif.got.tgz:171937.got - 2010.06.03 18:47:42.
