data_PCOD9301439
_publ_section_title
;
Structure prediction by ZEFSAII (Michael W. Deem and Ramdas Pophale) SiO2 
 PCOD9301439
Probable space group: C 2/C
;
_chemical_formula_sum "Si O2"
_cell_formula_units_Z 56
_cell_length_a 14.339685
_cell_length_b 14.310979
_cell_length_c 29.278378
_cell_angle_alpha 90.000000
_cell_angle_beta 151.772515
_cell_angle_gamma 90.000000
_cell_volume 2841.795059
_symmetry_space_group_name_H-M "C 2/C"
_symmetry_group_IT_number 15
_symmetry_cell_setting 'monoclinic'
loop_
_space_group_symop_operation_xyz
x,y,z
-x,y,1/2-z
-x,-y,-z
x,-y,1/2+z
1/2+x,1/2+y,z
1/2-x,1/2+y,1/2-z
1/2-x,1/2-y,-z
1/2+x,1/2-y,1/2+z
loop_
_atom_site_type_symbol
_atom_site_label
_atom_site_fract_x
_atom_site_fract_y
_atom_site_fract_z
Si Si1 0.313320 0.610142 0.134797
Si Si2 0.598059 0.815096 0.841586
Si Si3 0.680773 0.507173 0.542882
Si Si4 0.145795 0.201618 0.692751
Si Si5 0.942146 0.688082 0.025494
Si Si6 0.063803 0.689728 0.830804
Si Si7 0.364440 0.541599 0.578625
O O1 0.500000 0.599005 0.250000
O O2 0.337421 0.709781 0.120530
O O3 0.318971 0.528545 0.100090
O O4 0.108513 0.624994 0.073315
O O5 0.500000 0.813055 0.750000
O O6 0.432692 0.778592 0.805694
O O7 0.678578 0.918011 0.887498
O O8 0.784850 0.743833 0.926405
O O9 0.500000 0.500000 0.500000
O O10 0.796207 0.602994 0.600218
O O11 0.613778 0.504278 0.461335
O O12 0.374364 0.190630 0.781579
O O13 0.048286 0.234513 0.602665
O O14 0.058226 0.103124 0.671096
O O15 0.809295 0.618740 0.998317
O O16 0.000000 0.685050 0.750000
#
# Coordination Sequence:
#
# PCOD9301439 Si02
#       7
#     8   8   8   8   8   8   8
#     4  11  24  42  67  97 134 171 228 279 337 399
#     4  11  24  41  68  98 128 174 229 276 328 411
#     4  12  24  41  63  94 137 178 223 275 338 408
#     4  11  21  43  69  89 131 179 216 267 346 407
#     4  11  20  46  70  90 134 178 214 275 351 404
#     4  11  23  39  64  92 128 177 223 275 331 395
#     4  11  24  39  67  97 127 180 218 276 339 404
#
# _framework density 19.705853999999999
#
# number of rings (size 3 to 8) (size 9 to 14) (size 15 to 20)
#    0.000    0.857    5.714    3.429    0.000    7.429 
#    0.000    0.000    0.000    0.000    0.000    0.000 
#    0.000    0.000    0.000    0.000    0.000    0.000 
#
# Total GULP energy -156438.898628 kJ/mol
# GULP energy per Si atom -5587.103522 kJ/mol
# Density = 1.966100 g / cm^3
# Si number density = 19.705854 Si / 1000 Ang^3
#
#
#
# Elastic Constant Matrix: (Units=GPa)
#
#
# Indices 1 2 3 4 5 6 
#
# 1 89.2392 17.2925 24.8294 0.0001 21.2155 0.0002
# 2 17.2925 90.9944 15.8783 0.0003 -2.6783 0.0003
# 3 24.8294 15.8783 50.0016 -0.0007 2.5705 -0.0011
# 4 0.0001 0.0003 -0.0007 22.1140 0.0004 -4.9299
# 5 21.2155 -2.6783 2.5705 0.0004 40.2623 0.0001
# 6 0.0002 0.0003 -0.0011 -4.9299 0.0001 26.5913
#
#
#
# Elastic Compliance Matrix: (Units=1/GPa)
#
#
# Indices 1 2 3 4 5 6 
#
# 1 0.015255 -0.001985 -0.006546 0.000000 -0.007752 0.000000
# 2 -0.001985 0.011934 -0.002908 0.000000 0.002025 0.000000
# 3 -0.006546 -0.002908 0.024085 0.000001 0.001718 0.000001
# 4 0.000000 0.000000 0.000001 0.047170 0.000000 0.008745
# 5 -0.007752 0.002025 0.001718 0.000000 0.028947 0.000000
# 6 0.000000 0.000000 0.000001 0.008745 0.000000 0.039228
#
#
# Mechanical properties :
#
#
# Convention : Reuss Voigt Hill
#
# Bulk Modulus (GPa) = 35.21704 38.47063 36.84384
# Shear Modulus (GPa) = 25.13037 29.27587 27.20312
#
# Velocity S-wave (km/s) = 3.57497 3.85859 3.71948
# Velocity P-wave (km/s) = 5.91191 6.27825 6.09783
#
# Compressibility (1/GPa) = 0.02839534
#
# Stress axis : x y z
#
# Youngs Moduli (GPa) = 65.55270 83.79432 41.51920
#
# Poissons Ratio (x) = 0.16632 0.27180
# Poissons Ratio (y) = 0.13012 0.12075
# Poissons Ratio (z) = 0.42913 0.24369
#
# Static dielectric constant tensor:
#      x y z
#    x 1.723300 0.000000 0.032830 
#    y 0.000000 1.676710 0.000000 
#    z 0.032830 0.000000 1.727160 
# 
# From -- ./inp_files/313904.got.cif
#   From: 2010.05.17/outbox.cif.g08.bks.cpg/sg15_157_cif.got.tgz:313904.got - 2010.06.03 18:47:42.
