data_PCOD9301398
_publ_section_title
;
Structure prediction by ZEFSAII (Michael W. Deem and Ramdas Pophale) SiO2 
 PCOD9301398
Probable space group: C 2/C
;
_chemical_formula_sum "Si O2"
_cell_formula_units_Z 48
_cell_length_a 20.811302
_cell_length_b 10.297779
_cell_length_c 20.839514
_cell_angle_alpha 90.000000
_cell_angle_beta 153.525658
_cell_angle_gamma 90.000000
_cell_volume 1990.982986
_symmetry_space_group_name_H-M "C 2/C"
_symmetry_group_IT_number 15
_symmetry_cell_setting 'monoclinic'
loop_
_space_group_symop_operation_xyz
x,y,z
-x,y,1/2-z
-x,-y,-z
x,-y,1/2+z
1/2+x,1/2+y,z
1/2-x,1/2+y,1/2-z
1/2-x,1/2-y,-z
1/2+x,1/2-y,1/2+z
loop_
_atom_site_type_symbol
_atom_site_label
_atom_site_fract_x
_atom_site_fract_y
_atom_site_fract_z
Si Si1 0.352980 0.999890 0.077441
Si Si2 0.745461 0.601739 0.193542
Si Si3 0.982575 0.721253 0.311145
Si Si4 0.359728 0.168443 0.810391
Si Si5 0.411791 0.513081 0.565217
Si Si6 0.648995 0.761835 0.513810
O O1 0.500000 0.968051 0.250000
O O2 0.310631 0.871322 0.000860
O O3 0.384682 0.120204 0.057204
O O4 0.227904 0.037655 0.014873
O O5 0.691991 0.717629 0.189589
O O6 0.812159 0.475908 0.287561
O O7 0.618389 0.543692 0.036214
O O8 0.858210 0.658695 0.242608
O O9 0.979375 0.874272 0.319959
O O10 0.000000 0.714836 0.250000
O O11 0.530781 0.175449 0.955028
O O12 0.281028 0.199853 0.671582
O O13 0.435502 0.360698 0.592854
#
# Coordination Sequence:
#
# PCOD9301398 Si02
#       6
#     8   8   8   8   8   8
#     4  11  20  43  68  95 138 174 221 279 344 394
#     4  11  25  46  66  97 135 181 221 284 335 397
#     4  11  23  41  67  97 135 173 223 278 343 394
#     4  11  27  45  69  99 137 181 228 272 340 397
#     4  11  24  40  68  99 135 174 226 283 334 399
#     4  11  25  46  68 102 138 179 225 278 334 405
#
# _framework density 24.108694
#
# number of rings (size 3 to 8) (size 9 to 14) (size 15 to 20)
#    0.000    1.000    5.000    2.000    4.667    5.333 
#    0.000    0.000    0.000    0.000    0.000    0.000 
#    0.000    0.000    0.000    0.000    0.000    0.000 
#
# Total GULP energy -134000.576691 kJ/mol
# GULP energy per Si atom -5583.357362 kJ/mol
# Density = 2.405382 g / cm^3
# Si number density = 24.108694 Si / 1000 Ang^3
#
#
#
# Elastic Constant Matrix: (Units=GPa)
#
#
# Indices 1 2 3 4 5 6 
#
# 1 47.1248 19.4225 -2.7425 -0.0003 4.6522 -0.0001
# 2 19.4225 105.4248 -6.1212 -0.0006 -6.0792 -0.0002
# 3 -2.7425 -6.1212 31.9727 -0.0006 3.9184 -0.0004
# 4 -0.0003 -0.0006 -0.0006 16.1662 -0.0004 -3.5603
# 5 4.6522 -6.0792 3.9184 -0.0004 15.1557 -0.0002
# 6 -0.0001 -0.0002 -0.0004 -3.5603 -0.0002 50.5214
#
#
#
# Elastic Compliance Matrix: (Units=1/GPa)
#
#
# Indices 1 2 3 4 5 6 
#
# 1 0.024389 -0.004936 0.002383 0.000000 -0.010082 0.000000
# 2 -0.004936 0.010773 0.000954 0.000000 0.005590 0.000000
# 3 0.002383 0.000954 0.032744 0.000001 -0.008814 0.000000
# 4 0.000000 0.000000 0.000001 0.062833 0.000002 0.004428
# 5 -0.010082 0.005590 -0.008814 0.000002 0.073597 0.000000
# 6 0.000000 0.000000 0.000000 0.004428 0.000000 0.020106
#
#
# Mechanical properties :
#
#
# Convention : Reuss Voigt Hill
#
# Bulk Modulus (GPa) = 15.45456 22.84887 19.15172
# Shear Modulus (GPa) = 20.06349 27.96624 24.01486
#
# Velocity S-wave (km/s) = 2.88793 3.40958 3.15954
# Velocity P-wave (km/s) = 4.18862 4.99983 4.61210
#
# Compressibility (1/GPa) = 0.06470581
#
# Stress axis : x y z
#
# Youngs Moduli (GPa) = 41.00259 92.82854 30.54005
#
# Poissons Ratio (x) = 0.45822 -0.07276
# Poissons Ratio (y) = 0.20240 -0.02913
# Poissons Ratio (z) = -0.09769 -0.08856
#
# Static dielectric constant tensor:
#      x y z
#    x 1.891530 0.000000 -0.037140 
#    y 0.000000 1.997500 0.000000 
#    z -0.037140 0.000000 2.036640 
# 
# From -- ./inp_files/281709.got.cif
#   From: 2010.05.17/outbox.cif.g08.bks.cpg/sg15_141_cif.got.tgz:281709.got - 2010.06.03 18:47:42.
