data_PCOD9301465
_publ_section_title
;
Structure prediction by ZEFSAII (Michael W. Deem and Ramdas Pophale) SiO2 
 PCOD9301465
Probable space group: C 2/C
;
_chemical_formula_sum "Si O2"
_cell_formula_units_Z 32
_cell_length_a 8.317915
_cell_length_b 12.112035
_cell_length_c 15.398232
_cell_angle_alpha 90.000000
_cell_angle_beta 66.657860
_cell_angle_gamma 90.000000
_cell_volume 1424.356034
_symmetry_space_group_name_H-M "C 2/C"
_symmetry_group_IT_number 15
_symmetry_cell_setting 'monoclinic'
loop_
_space_group_symop_operation_xyz
x,y,z
-x,y,1/2-z
-x,-y,-z
x,-y,1/2+z
1/2+x,1/2+y,z
1/2-x,1/2+y,1/2-z
1/2-x,1/2-y,-z
1/2+x,1/2-y,1/2+z
loop_
_atom_site_type_symbol
_atom_site_label
_atom_site_fract_x
_atom_site_fract_y
_atom_site_fract_z
Si Si1 0.297354 0.240512 0.314916
Si Si2 0.239120 0.230729 0.868979
Si Si3 0.652482 0.000939 0.643730
Si Si4 0.504871 0.150215 0.544220
O O1 0.500000 0.264741 0.250000
O O2 0.214128 0.232115 0.236866
O O3 0.197760 0.330258 0.393833
O O4 0.281719 0.122163 0.363754
O O5 0.207131 0.098232 0.869659
O O6 0.394700 0.231872 0.906656
O O7 0.081410 0.304476 0.938610
O O8 0.500000 0.014024 0.750000
O O9 0.571029 0.033547 0.567827
#
# Coordination Sequence:
#
# PCOD9301465 Si02
#       4
#     8   8   8   8
#     4  11  21  33  60  88 117 153 189 243 296 340
#     4   9  18  38  61  82 114 162 191 236 294 340
#     4   9  17  35  60  79 115 152 186 240 281 333
#     4   9  18  38  64  77 120 157 194 240 285 345
#
# _framework density 22.466294999999999
#
# number of rings (size 3 to 8) (size 9 to 14) (size 15 to 20)
#    1.500    1.000    2.500    0.750    0.000    2.000 
#    0.000    7.500    0.000    0.000    0.000    0.000 
#    0.000    0.000    0.000    0.000    0.000    0.000 
#
# Total GULP energy -89143.709567 kJ/mol
# GULP energy per Si atom -5571.481848 kJ/mol
# Density = 2.241516 g / cm^3
# Si number density = 22.466295 Si / 1000 Ang^3
#
#
#
# Elastic Constant Matrix: (Units=GPa)
#
#
# Indices 1 2 3 4 5 6 
#
# 1 29.3375 13.4984 -5.2151 0.0000 -2.9447 0.0000
# 2 13.4984 69.4138 -16.8504 0.0000 9.5404 0.0000
# 3 -5.2151 -16.8504 63.5745 0.0000 3.6483 0.0000
# 4 0.0000 0.0000 0.0000 164.5236 0.0000 44.8537
# 5 -2.9447 9.5404 3.6483 0.0000 32.6824 0.0000
# 6 0.0000 0.0000 0.0000 44.8537 0.0000 44.4936
#
#
#
# Elastic Compliance Matrix: (Units=1/GPa)
#
#
# Indices 1 2 3 4 5 6 
#
# 1 0.038521 -0.008119 0.000677 0.000000 0.005765 0.000000
# 2 -0.008119 0.017959 0.004465 0.000000 -0.006472 0.000000
# 3 0.000677 0.004465 0.017150 0.000000 -0.003157 0.000000
# 4 0.000000 0.000000 0.000000 0.008382 0.000000 -0.008450
# 5 0.005765 -0.006472 -0.003157 0.000000 0.033359 0.000000
# 6 0.000000 0.000000 0.000000 -0.008450 0.000000 0.030993
#
#
# Mechanical properties :
#
#
# Convention : Reuss Voigt Hill
#
# Bulk Modulus (GPa) = 14.77614 16.13240 15.45427
# Shear Modulus (GPa) = 28.59196 59.73277 44.16236
#
# Velocity S-wave (km/s) = 3.57131 5.16192 4.43845
# Velocity P-wave (km/s) = 4.85767 6.53633 5.75849
#
# Compressibility (1/GPa) = 0.06767666
#
# Stress axis : x y z
#
# Youngs Moduli (GPa) = 25.96007 55.68317 58.30959
#
# Poissons Ratio (x) = 0.45208 -0.03948
# Poissons Ratio (y) = 0.21077 -0.26037
# Poissons Ratio (z) = -0.01758 -0.24865
#
# Static dielectric constant tensor:
#      x y z
#    x 1.971560 0.000000 0.042430 
#    y 0.000000 1.837330 0.000000 
#    z 0.042430 0.000000 1.831180 
# 
# From -- ./inp_files/84558.got.cif
#   From: 2010.05.17/outbox.cif.g08.bks.cpg/sg15_43_cif.got.tgz:84558.got - 2010.06.03 18:47:42.
