data_PCOD9301434
_publ_section_title
;
Structure prediction by ZEFSAII (Michael W. Deem and Ramdas Pophale) SiO2 
 PCOD9301434
Probable space group: C 2/C
;
_chemical_formula_sum "Si O2"
_cell_formula_units_Z 60
_cell_length_a 21.558688
_cell_length_b 8.442611
_cell_length_c 21.943352
_cell_angle_alpha 90.000000
_cell_angle_beta 135.516970
_cell_angle_gamma 90.000000
_cell_volume 2798.549177
_symmetry_space_group_name_H-M "C 2/C"
_symmetry_group_IT_number 15
_symmetry_cell_setting 'monoclinic'
loop_
_space_group_symop_operation_xyz
x,y,z
-x,y,1/2-z
-x,-y,-z
x,-y,1/2+z
1/2+x,1/2+y,z
1/2-x,1/2+y,1/2-z
1/2-x,1/2-y,-z
1/2+x,1/2-y,1/2+z
loop_
_atom_site_type_symbol
_atom_site_label
_atom_site_fract_x
_atom_site_fract_y
_atom_site_fract_z
Si Si1 0.895593 0.905352 0.850594
Si Si2 0.895931 0.183669 0.176331
Si Si3 0.567600 0.500202 0.899237
Si Si4 0.916816 0.434792 0.405407
Si Si5 0.379483 0.984940 0.738340
Si Si6 0.320439 0.453709 0.409271
Si Si7 0.754578 0.608957 0.348400
Si Si8 0.500000 0.261796 0.250000
O O1 0.926861 0.752812 0.908758
O O2 0.805765 0.855627 0.753136
O O3 0.873747 0.039139 0.883617
O O4 0.970696 0.954860 0.856143
O O5 0.891169 0.352703 0.206628
O O6 0.822758 0.072611 0.157152
O O7 0.000000 0.141415 0.250000
O O8 0.882997 0.153306 0.095805
O O9 0.553960 0.635585 0.838583
O O10 0.625745 0.536479 0.999179
O O11 0.910889 0.491910 0.330367
O O12 0.827838 0.484961 0.378919
O O13 0.000000 0.500000 0.500000
O O14 0.433240 0.848717 0.741780
O O15 0.273970 0.961039 0.665479
O O16 0.300897 0.268088 0.405010
#
# Coordination Sequence:
#
# PCOD9301434 Si02
#       8
#     8   8   8   8   8   8   8   4
#     4  12  22  44  71  99 140 178 223 287 345 409
#     4  11  20  45  69  96 136 183 227 272 343 414
#     4  12  26  45  69 102 136 183 229 283 346 411
#     4  12  26  44  71 105 136 181 232 287 344 405
#     4  11  25  46  68  97 138 181 229 284 343 415
#     4  11  26  44  69 104 135 175 233 286 341 408
#     4  11  22  43  71 102 132 185 224 284 341 410
#     4  12  28  42  70  96 138 188 224 288 344 414
#
# _framework density 21.439679999999999
#
# number of rings (size 3 to 8) (size 9 to 14) (size 15 to 20)
#    0.000    0.533    6.667    1.200    3.733    4.800 
#    2.400    0.000    0.000    0.000    0.000    0.000 
#    0.000    0.000    0.000    0.000    0.000    0.000 
#
# Total GULP energy -167392.598970 kJ/mol
# GULP energy per Si atom -5579.753299 kJ/mol
# Density = 2.139088 g / cm^3
# Si number density = 21.439680 Si / 1000 Ang^3
#
#
#
# Elastic Constant Matrix: (Units=GPa)
#
#
# Indices 1 2 3 4 5 6 
#
# 1 180.6590 49.5395 41.6856 0.0000 -7.7647 0.0000
# 2 49.5395 50.2204 18.8852 0.0000 -2.3746 0.0000
# 3 41.6856 18.8852 101.9312 0.0000 -11.6746 0.0000
# 4 0.0000 0.0000 0.0000 24.0070 0.0000 -3.2633
# 5 -7.7647 -2.3746 -11.6746 0.0000 25.8925 0.0000
# 6 0.0000 0.0000 0.0000 -3.2633 0.0000 40.1205
#
#
#
# Elastic Compliance Matrix: (Units=1/GPa)
#
#
# Indices 1 2 3 4 5 6 
#
# 1 0.007945 -0.007107 -0.001829 0.000000 0.000906 0.000000
# 2 -0.007107 0.027761 -0.002309 0.000000 -0.000626 0.000000
# 3 -0.001829 -0.002309 0.011493 0.000000 0.004422 0.000000
# 4 0.000000 0.000000 0.000000 0.042120 0.000000 0.003426
# 5 0.000906 -0.000626 0.004422 0.000000 0.040829 0.000000
# 6 0.000000 0.000000 0.000000 0.003426 0.000000 0.025204
#
#
# Mechanical properties :
#
#
# Convention : Reuss Voigt Hill
#
# Bulk Modulus (GPa) = 40.46883 61.44793 50.95838
# Shear Modulus (GPa) = 26.87058 32.85068 29.86063
#
# Velocity S-wave (km/s) = 3.54405 3.91863 3.73604
# Velocity P-wave (km/s) = 5.97191 7.01408 6.51387
#
# Compressibility (1/GPa) = 0.02471038
#
# Stress axis : x y z
#
# Youngs Moduli (GPa) = 125.86571 36.02142 87.01264
#
# Poissons Ratio (x) = 0.25600 0.15912
# Poissons Ratio (y) = 0.89450 0.20090
# Poissons Ratio (z) = 0.23017 0.08317
#
# Static dielectric constant tensor:
#      x y z
#    x 1.814760 0.000000 -0.025030 
#    y 0.000000 1.812830 0.000000 
#    z -0.025030 0.000000 1.828680 
# 
# From -- ./inp_files/252122.got.cif
#   From: 2010.05.17/outbox.cif.g08.bks.cpg/sg15_127_cif.got.tgz:252122.got - 2010.06.03 18:47:42.
