data_PCOD9301906
_publ_section_title
;
Structure prediction by ZEFSAII (Michael W. Deem and Ramdas Pophale) SiO2 
 PCOD9301906
Probable space group: C 2/C
;
_chemical_formula_sum "Si O2"
_cell_formula_units_Z 64
_cell_length_a 23.664774
_cell_length_b 17.428682
_cell_length_c 19.542639
_cell_angle_alpha 90.000000
_cell_angle_beta 158.806100
_cell_angle_gamma 90.000000
_cell_volume 2913.995131
_symmetry_space_group_name_H-M "C 2/C"
_symmetry_group_IT_number 15
_symmetry_cell_setting 'monoclinic'
loop_
_space_group_symop_operation_xyz
x,y,z
-x,y,1/2-z
-x,-y,-z
x,-y,1/2+z
1/2+x,1/2+y,z
1/2-x,1/2+y,1/2-z
1/2-x,1/2-y,-z
1/2+x,1/2-y,1/2+z
loop_
_atom_site_type_symbol
_atom_site_label
_atom_site_fract_x
_atom_site_fract_y
_atom_site_fract_z
Si Si1 0.650643 0.483820 0.962738
Si Si2 0.050984 0.195252 0.606905
Si Si3 0.096627 0.652468 0.524137
Si Si4 0.023959 0.521282 0.198360
Si Si5 0.902025 0.958563 0.949821
Si Si6 0.938149 0.598335 0.482664
Si Si7 0.453377 0.263292 0.855759
Si Si8 0.854645 0.810586 0.542079
O O1 0.500000 0.505408 0.750000
O O2 0.690405 0.395790 0.985412
O O3 0.793700 0.538120 0.105943
O O4 0.620523 0.489143 0.009314
O O5 0.020828 0.274872 0.611708
O O6 0.996888 0.117063 0.580608
O O7 0.935849 0.204086 0.411395
O O8 0.227147 0.184397 0.778742
O O9 0.074673 0.594645 0.436495
O O10 0.049994 0.605864 0.541324
O O11 0.000000 0.498463 0.250000
O O12 0.990575 0.456576 0.103450
O O13 0.731144 0.930828 0.732026
O O14 0.000000 0.000000 0.000000
O O15 0.952063 0.683928 0.528354
O O16 0.293201 0.243529 0.635998
O O17 0.562497 0.319758 0.937366
O O18 0.000000 0.778654 0.750000
#
# Coordination Sequence:
#
# PCOD9301906 Si02
#       8
#     8   8   8   8   8   8   8   8
#     4  11  27  47  67  99 146 184 239 298 353 427
#     4  11  24  41  71 106 139 176 234 301 361 424
#     4  11  24  46  73 104 142 182 238 304 365 427
#     4  12  27  47  72 100 142 193 242 295 363 428
#     4  12  25  41  73 108 139 186 234 297 360 433
#     4  11  23  43  71 103 139 182 240 299 352 425
#     4  11  21  40  65  96 135 175 225 283 348 417
#     4  11  23  41  60  94 136 189 223 275 342 426
#
# _framework density 21.962973999999999
#
# number of rings (size 3 to 8) (size 9 to 14) (size 15 to 20)
#    0.000    0.750    2.500    6.000    5.250    0.500 
#    2.250    1.250    0.000    0.000    0.000    0.000 
#    0.000    0.000    0.000    0.000    0.000    0.000 
#
# Total GULP energy -178804.441333 kJ/mol
# GULP energy per Si atom -5587.638792 kJ/mol
# Density = 2.191299 g / cm^3
# Si number density = 21.962974 Si / 1000 Ang^3
#
#
#
# Elastic Constant Matrix: (Units=GPa)
#
#
# Indices 1 2 3 4 5 6 
#
# 1 74.4839 24.1363 39.0804 -0.0011 7.8010 -0.0001
# 2 24.1363 81.3722 31.2682 0.0003 1.8701 0.0000
# 3 39.0804 31.2682 153.9524 -0.0016 4.7271 -0.0015
# 4 -0.0011 0.0003 -0.0016 18.3764 -0.0024 6.7322
# 5 7.8010 1.8701 4.7271 -0.0024 26.6528 -0.0016
# 6 -0.0001 0.0000 -0.0015 6.7322 -0.0016 24.3199
#
#
#
# Elastic Compliance Matrix: (Units=1/GPa)
#
#
# Indices 1 2 3 4 5 6 
#
# 1 0.016802 -0.003579 -0.003414 0.000000 -0.004061 -0.000001
# 2 -0.003579 0.014097 -0.001967 -0.000001 0.000407 0.000000
# 3 -0.003414 -0.001967 0.007769 0.000000 -0.000241 0.000000
# 4 0.000000 -0.000001 0.000000 0.060559 0.000004 -0.016764
# 5 -0.004061 0.000407 -0.000241 0.000004 0.038722 0.000001
# 6 -0.000001 0.000000 0.000000 -0.016764 0.000001 0.045759
#
#
# Mechanical properties :
#
#
# Convention : Reuss Voigt Hill
#
# Bulk Modulus (GPa) = 48.19486 55.41981 51.80734
# Shear Modulus (GPa) = 23.97575 28.22471 26.10023
#
# Velocity S-wave (km/s) = 3.30759 3.58872 3.45102
# Velocity P-wave (km/s) = 6.04799 6.51613 6.28642
#
# Compressibility (1/GPa) = 0.02074910
#
# Stress axis : x y z
#
# Youngs Moduli (GPa) = 59.51761 70.93568 128.71688
#
# Poissons Ratio (x) = 0.25385 0.43938
# Poissons Ratio (y) = 0.21299 0.25322
# Poissons Ratio (z) = 0.20317 0.13955
#
# Static dielectric constant tensor:
#      x y z
#    x 1.832110 0.000000 -0.000310 
#    y 0.000000 1.815440 0.000000 
#    z -0.000310 0.000000 1.819230 
# 
# From -- ./inp_files/256029.got.cif
#   From: 2010.05.17/outbox.cif.g08.bks.cpg/sg15_129_cif.got.tgz:256029.got - 2010.06.03 18:47:42.
