data_PCOD9301204
_publ_section_title
;
Structure prediction by ZEFSAII (Michael W. Deem and Ramdas Pophale) SiO2 
 PCOD9301204
Probable space group: C 2/C
;
_chemical_formula_sum "Si O2"
_cell_formula_units_Z 64
_cell_length_a 33.627863
_cell_length_b 16.770218
_cell_length_c 9.243462
_cell_angle_alpha 90.000000
_cell_angle_beta 39.635244
_cell_angle_gamma 90.000000
_cell_volume 3325.245869
_symmetry_space_group_name_H-M "C 2/C"
_symmetry_group_IT_number 15
_symmetry_cell_setting 'monoclinic'
loop_
_space_group_symop_operation_xyz
x,y,z
-x,y,1/2-z
-x,-y,-z
x,-y,1/2+z
1/2+x,1/2+y,z
1/2-x,1/2+y,1/2-z
1/2-x,1/2-y,-z
1/2+x,1/2-y,1/2+z
loop_
_atom_site_type_symbol
_atom_site_label
_atom_site_fract_x
_atom_site_fract_y
_atom_site_fract_z
Si Si1 0.125939 0.431911 0.435758
Si Si2 0.561290 0.776624 0.145882
Si Si3 0.832331 0.184222 0.514145
Si Si4 0.059583 0.558299 0.811782
Si Si5 0.265310 0.309009 0.734676
Si Si6 0.639976 0.823385 0.643093
Si Si7 0.725779 0.429734 0.537574
Si Si8 0.246588 0.108643 0.527590
O O1 0.106507 0.513162 0.570766
O O2 0.092661 0.429006 0.373871
O O3 0.104670 0.362790 0.607084
O O4 0.200562 0.423307 0.208467
O O5 0.500000 0.737952 0.250000
O O6 0.544064 0.857204 0.281348
O O7 0.600322 0.718693 0.140964
O O8 0.601728 0.800556 0.891741
O O9 0.790657 0.252501 0.554083
O O10 0.818683 0.104166 0.463372
O O11 0.799591 0.168350 0.760323
O O12 0.000000 0.500000 0.000000
O O13 0.320595 0.251182 0.527817
O O14 0.285306 0.372966 0.795394
O O15 0.240057 0.356446 0.666873
O O16 0.690182 0.889379 0.557170
O O17 0.717125 0.521977 0.597808
#
# Coordination Sequence:
#
# PCOD9301204 Si02
#       8
#     8   8   8   8   8   8   8   8
#     4  12  24  37  61  90 130 168 215 255 317 376
#     4  12  24  42  66  86 121 172 222 258 307 389
#     4  11  22  39  60  91 125 162 211 267 333 382
#     4  12  26  43  61  90 133 179 219 261 302 374
#     4  11  21  37  60  87 133 161 202 259 333 385
#     4  11  22  40  60  91 125 169 209 262 315 383
#     4  12  24  34  60  99 126 161 207 268 335 388
#     4  11  20  39  59  90 127 165 201 259 329 391
#
# _framework density 19.246697000000001
#
# number of rings (size 3 to 8) (size 9 to 14) (size 15 to 20)
#    0.000    0.500    5.000    6.750    3.500    0.000 
#    0.000    0.000    0.000    0.750    0.000    0.000 
#    0.000    0.000    0.000    0.000    0.000    0.000 
#
# Total GULP energy -178893.085645 kJ/mol
# GULP energy per Si atom -5590.408926 kJ/mol
# Density = 1.920289 g / cm^3
# Si number density = 19.246697 Si / 1000 Ang^3
#
#
#
# Elastic Constant Matrix: (Units=GPa)
#
#
# Indices 1 2 3 4 5 6 
#
# 1 103.6190 24.6637 30.1505 0.0000 0.4906 0.0000
# 2 24.6637 80.4858 17.2671 0.0000 -8.7414 0.0000
# 3 30.1505 17.2671 47.0553 0.0000 -3.5249 0.0000
# 4 0.0000 0.0000 0.0000 25.3034 0.0000 3.3283
# 5 0.4906 -8.7414 -3.5249 0.0000 31.6596 0.0000
# 6 0.0000 0.0000 0.0000 3.3283 0.0000 42.3820
#
#
#
# Elastic Compliance Matrix: (Units=1/GPa)
#
#
# Indices 1 2 3 4 5 6 
#
# 1 0.012307 -0.002423 -0.007120 0.000000 -0.001653 0.000000
# 2 -0.002423 0.014293 -0.003422 0.000000 0.003603 0.000000
# 3 -0.007120 -0.003422 0.027234 0.000000 0.002198 0.000000
# 4 0.000000 0.000000 0.000000 0.039933 0.000000 -0.003136
# 5 -0.001653 0.003603 0.002198 0.000000 0.032851 0.000000
# 6 0.000000 0.000000 0.000000 -0.003136 0.000000 0.023841
#
#
# Mechanical properties :
#
#
# Convention : Reuss Voigt Hill
#
# Bulk Modulus (GPa) = 35.83895 41.70253 38.77074
# Shear Modulus (GPa) = 26.92637 30.47426 28.70032
#
# Velocity S-wave (km/s) = 3.74440 3.98345 3.86577
# Velocity P-wave (km/s) = 6.11189 6.54764 6.33352
#
# Compressibility (1/GPa) = 0.02790260
#
# Stress axis : x y z
#
# Youngs Moduli (GPa) = 81.25321 69.96631 36.71838
#
# Poissons Ratio (x) = 0.16955 0.26145
# Poissons Ratio (y) = 0.19690 0.12565
# Poissons Ratio (z) = 0.57855 0.23943
#
# Static dielectric constant tensor:
#      x y z
#    x 1.693630 0.000000 0.002730 
#    y 0.000000 1.673800 0.000000 
#    z 0.002730 0.000000 1.691690 
# 
# From -- ./inp_files/70586.got.cif
#   From: 2010.05.17/outbox.cif.g08.bks.cpg/sg15_36_cif.got.tgz:70586.got - 2010.06.03 18:47:42.
