data_PCOD9301521
_publ_section_title
;
Structure prediction by ZEFSAII (Michael W. Deem and Ramdas Pophale) SiO2 
 PCOD9301521
Probable space group: C 2/C
;
_chemical_formula_sum "Si O2"
_cell_formula_units_Z 64
_cell_length_a 26.614959
_cell_length_b 8.562788
_cell_length_c 16.324292
_cell_angle_alpha 90.000000
_cell_angle_beta 134.323880
_cell_angle_gamma 90.000000
_cell_volume 2661.492487
_symmetry_space_group_name_H-M "C 2/C"
_symmetry_group_IT_number 15
_symmetry_cell_setting 'monoclinic'
loop_
_space_group_symop_operation_xyz
x,y,z
-x,y,1/2-z
-x,-y,-z
x,-y,1/2+z
1/2+x,1/2+y,z
1/2-x,1/2+y,1/2-z
1/2-x,1/2-y,-z
1/2+x,1/2-y,1/2+z
loop_
_atom_site_type_symbol
_atom_site_label
_atom_site_fract_x
_atom_site_fract_y
_atom_site_fract_z
Si Si1 0.912753 0.401493 0.226141
Si Si2 0.240977 0.662142 0.903980
Si Si3 0.561202 0.242622 0.925486
Si Si4 0.930291 0.881076 0.066932
Si Si5 0.188257 0.344691 0.665693
Si Si6 0.077720 0.778761 0.253001
Si Si7 0.799001 0.667366 0.880100
Si Si8 0.779073 0.088069 0.562666
O O1 0.842493 0.356182 0.193772
O O2 0.912439 0.337759 0.130713
O O3 0.916129 0.590318 0.237769
O O4 0.981471 0.316884 0.340468
O O5 0.273852 0.754795 0.866916
O O6 0.250000 0.750000 0.000000
O O7 0.281418 0.507710 0.980638
O O8 0.569872 0.430413 0.933969
O O9 0.607201 0.185444 0.054543
O O10 0.928569 0.825919 0.158979
O O11 0.007541 0.826869 0.124995
O O12 0.866007 0.781366 0.955327
O O13 0.197194 0.529434 0.681311
O O14 0.229509 0.269383 0.787479
O O15 0.145659 0.885746 0.309273
O O16 0.782723 0.559039 0.941607
O O17 0.750000 0.250000 0.500000
#
# Coordination Sequence:
#
# PCOD9301521 Si02
#       8
#     8   8   8   8   8   8   8   8
#     4  11  21  36  61  94 128 165 213 269 318 372
#     4  12  23  40  68  97 129 167 219 268 315 376
#     4  11  22  37  60  91 128 168 213 265 321 380
#     4  11  22  37  60  92 127 168 212 266 323 378
#     4  12  26  43  66  93 133 170 213 264 327 389
#     4  11  21  35  62  93 130 163 214 270 316 375
#     4  12  26  44  65  95 131 171 211 266 327 387
#     4  12  23  40  68  99 130 166 221 269 313 378
#
# _framework density 24.046658000000001
#
# number of rings (size 3 to 8) (size 9 to 14) (size 15 to 20)
#    0.000    0.500    5.000    6.000    3.500    0.000 
#    0.000    1.250    0.000    6.000    0.000    0.000 
#    0.000    0.000    0.000    0.000    0.000    0.000 
#
# Total GULP energy -178564.727690 kJ/mol
# GULP energy per Si atom -5580.147740 kJ/mol
# Density = 2.399193 g / cm^3
# Si number density = 24.046658 Si / 1000 Ang^3
#
#
#
# Elastic Constant Matrix: (Units=GPa)
#
#
# Indices 1 2 3 4 5 6 
#
# 1 77.2296 13.2885 27.9495 0.0000 28.5789 0.0000
# 2 13.2885 151.6835 44.8296 0.0000 14.4904 0.0000
# 3 27.9495 44.8296 136.5303 0.0000 45.6004 0.0000
# 4 0.0000 0.0000 0.0000 46.4720 0.0000 0.5631
# 5 28.5789 14.4904 45.6004 0.0000 46.4957 0.0000
# 6 0.0000 0.0000 0.0000 0.5631 0.0000 22.1482
#
#
#
# Elastic Compliance Matrix: (Units=1/GPa)
#
#
# Indices 1 2 3 4 5 6 
#
# 1 0.016801 -0.000541 0.000195 0.000000 -0.010349 0.000000
# 2 -0.000541 0.007319 -0.002441 0.000000 0.000446 0.000000
# 3 0.000195 -0.002441 0.011707 0.000000 -0.010840 0.000000
# 4 0.000000 0.000000 0.000000 0.021525 0.000000 -0.000547
# 5 -0.010349 0.000446 -0.010840 0.000000 0.038361 0.000000
# 6 0.000000 0.000000 0.000000 -0.000547 0.000000 0.045164
#
#
# Mechanical properties :
#
#
# Convention : Reuss Voigt Hill
#
# Bulk Modulus (GPa) = 33.05601 59.73095 46.39348
# Shear Modulus (GPa) = 31.94172 41.64825 36.79498
#
# Velocity S-wave (km/s) = 3.64857 4.16622 3.91596
# Velocity P-wave (km/s) = 5.61479 6.93085 6.30724
#
# Compressibility (1/GPa) = 0.03025169
#
# Stress axis : x y z
#
# Youngs Moduli (GPa) = 59.52145 136.63055 85.42144
#
# Poissons Ratio (x) = 0.07389 -0.01664
# Poissons Ratio (y) = 0.03219 0.20855
# Poissons Ratio (z) = -0.01160 0.33357
#
# Static dielectric constant tensor:
#      x y z
#    x 1.938160 0.000000 0.043300 
#    y 0.000000 1.961500 0.000000 
#    z 0.043300 0.000000 1.899100 
# 
# From -- ./inp_files/224672.got.cif
#   From: 2010.05.17/outbox.cif.g08.bks.cpg/sg15_113_cif.got.tgz:224672.got - 2010.06.03 18:47:42.
