data_PCOD9301561
_publ_section_title
;
Structure prediction by ZEFSAII (Michael W. Deem and Ramdas Pophale) SiO2 
 PCOD9301561
Probable space group: C 2/C
;
_chemical_formula_sum "Si O2"
_cell_formula_units_Z 48
_cell_length_a 11.452694
_cell_length_b 14.809317
_cell_length_c 27.924934
_cell_angle_alpha 90.000000
_cell_angle_beta 31.716811
_cell_angle_gamma 90.000000
_cell_volume 2489.948613
_symmetry_space_group_name_H-M "C 2/C"
_symmetry_group_IT_number 15
_symmetry_cell_setting 'monoclinic'
loop_
_space_group_symop_operation_xyz
x,y,z
-x,y,1/2-z
-x,-y,-z
x,-y,1/2+z
1/2+x,1/2+y,z
1/2-x,1/2+y,1/2-z
1/2-x,1/2-y,-z
1/2+x,1/2-y,1/2+z
loop_
_atom_site_type_symbol
_atom_site_label
_atom_site_fract_x
_atom_site_fract_y
_atom_site_fract_z
Si Si1 0.705772 0.438533 0.411873
Si Si2 0.976228 0.403938 0.700612
Si Si3 0.728547 0.238028 0.938138
Si Si4 0.097612 0.816648 0.367471
Si Si5 0.318131 0.244560 0.030275
Si Si6 0.926369 0.158497 0.223759
O O1 0.500000 0.500000 0.500000
O O2 0.675301 0.405646 0.367717
O O3 0.702341 0.346026 0.442221
O O4 0.924091 0.497257 0.342796
O O5 0.743344 0.391092 0.753758
O O6 0.000000 0.388424 0.750000
O O7 0.140846 0.330156 0.619213
O O8 0.918338 0.168976 0.888134
O O9 0.550357 0.258425 0.042623
O O10 0.571178 0.212828 0.949260
O O11 0.298553 0.752957 0.281058
O O12 0.149873 0.181830 0.117807
O O13 0.250000 0.250000 0.000000
O O14 0.000000 0.118510 0.250000
#
# Coordination Sequence:
#
# PCOD9301561 Si02
#       6
#     8   8   8   8   8   8
#     4  11  21  36  61  89 120 153 204 259 308 351
#     4  11  23  36  60  92 127 155 203 261 313 356
#     4   9  17  35  57  82 114 156 195 244 288 367
#     4   9  18  33  56  87 110 149 205 238 292 360
#     4  11  22  37  59  89 126 162 205 248 310 375
#     4  11  21  37  61  88 119 166 207 249 302 379
#
# _framework density 19.277507
#
# number of rings (size 3 to 8) (size 9 to 14) (size 15 to 20)
#    0.000    1.667    6.667    1.000    2.333    0.000 
#    0.000    0.000    3.667    3.000    0.000    0.000 
#    0.000    0.000    0.000    0.000    0.000    0.000 
#
# Total GULP energy -133776.229284 kJ/mol
# GULP energy per Si atom -5574.009554 kJ/mol
# Density = 1.923363 g / cm^3
# Si number density = 19.277507 Si / 1000 Ang^3
#
#
#
# Elastic Constant Matrix: (Units=GPa)
#
#
# Indices 1 2 3 4 5 6 
#
# 1 185.8089 42.9650 26.2515 0.0002 -27.3299 -0.0018
# 2 42.9650 61.1627 10.8119 -0.0024 -14.0639 -0.0014
# 3 26.2515 10.8119 31.7738 -0.0003 -13.9254 -0.0050
# 4 0.0002 -0.0024 -0.0003 17.1082 -0.0010 -5.6511
# 5 -27.3299 -14.0639 -13.9254 -0.0010 40.1382 0.0012
# 6 -0.0018 -0.0014 -0.0050 -5.6511 0.0012 34.6993
#
#
#
# Elastic Compliance Matrix: (Units=1/GPa)
#
#
# Indices 1 2 3 4 5 6 
#
# 1 0.007107 -0.003842 -0.003577 -0.000001 0.002252 -0.000001
# 2 -0.003842 0.020283 -0.002075 0.000003 0.003771 0.000001
# 3 -0.003577 -0.002075 0.039800 0.000003 0.010645 0.000006
# 4 -0.000001 0.000003 0.000003 0.061775 0.000003 0.010060
# 5 0.002252 0.003771 0.010645 0.000003 0.031462 0.000001
# 6 -0.000001 0.000001 0.000006 0.010060 0.000001 0.030457
#
#
# Mechanical properties :
#
#
# Convention : Reuss Voigt Hill
#
# Bulk Modulus (GPa) = 20.74672 48.75579 34.75125
# Shear Modulus (GPa) = 22.12993 31.63694 26.88344
#
# Velocity S-wave (km/s) = 3.39184 4.05548 3.73842
# Velocity P-wave (km/s) = 5.11126 6.87573 6.05808
#
# Compressibility (1/GPa) = 0.04820039
#
# Stress axis : x y z
#
# Youngs Moduli (GPa) = 140.70732 49.30299 25.12594
#
# Poissons Ratio (x) = 0.18944 0.08989
# Poissons Ratio (y) = 0.54064 0.05213
# Poissons Ratio (z) = 0.50338 0.10229
#
# Static dielectric constant tensor:
#      x y z
#    x 1.771120 -0.000010 0.004590 
#    y -0.000010 1.647410 0.000000 
#    z 0.004590 0.000000 1.687580 
# 
# From -- ./inp_files/143665.got.cif
#   From: 2010.05.17/outbox.cif.g08.bks.cpg/sg15_72_cif.got.tgz:143665.got - 2010.06.03 18:47:42.
