data_PCOD9301185
_publ_section_title
;
Structure prediction by ZEFSAII (Michael W. Deem and Ramdas Pophale) SiO2 
 PCOD9301185
Probable space group: C 2/C
;
_chemical_formula_sum "Si O2"
_cell_formula_units_Z 40
_cell_length_a 15.282834
_cell_length_b 12.362045
_cell_length_c 16.230822
_cell_angle_alpha 90.000000
_cell_angle_beta 36.440842
_cell_angle_gamma 90.000000
_cell_volume 1821.443408
_symmetry_space_group_name_H-M "C 2/C"
_symmetry_group_IT_number 15
_symmetry_cell_setting 'monoclinic'
loop_
_space_group_symop_operation_xyz
x,y,z
-x,y,1/2-z
-x,-y,-z
x,-y,1/2+z
1/2+x,1/2+y,z
1/2-x,1/2+y,1/2-z
1/2-x,1/2-y,-z
1/2+x,1/2-y,1/2+z
loop_
_atom_site_type_symbol
_atom_site_label
_atom_site_fract_x
_atom_site_fract_y
_atom_site_fract_z
Si Si1 0.881414 0.532561 0.184006
Si Si2 0.000000 0.353644 0.750000
Si Si3 0.000000 0.975266 0.750000
Si Si4 0.104262 0.676082 0.909825
Si Si5 0.445605 0.408105 0.606258
Si Si6 0.684421 0.319263 0.104030
O O1 0.868921 0.402542 0.187557
O O2 0.729803 0.577332 0.262962
O O3 0.917195 0.573168 0.247021
O O4 0.007825 0.595140 0.037920
O O5 0.829962 0.315077 0.930074
O O6 0.993734 0.919024 0.665094
O O7 0.856257 0.052548 0.865992
O O8 0.024290 0.787983 0.950679
O O9 0.248530 0.702460 0.855169
O O10 0.500000 0.500000 0.500000
O O11 0.500000 0.285352 0.250000
#
# Coordination Sequence:
#
# PCOD9301185 Si02
#       6
#     8   4   4   8   8   8
#     4  11  25  43  67 103 137 174 232 290 345 410
#     4  11  22  35  70  98 130 171 225 280 332 412
#     4  11  26  43  64 102 140 181 231 286 338 418
#     4  11  24  44  69  96 141 178 221 293 347 408
#     4  12  27  45  71 101 139 188 229 284 354 414
#     4  11  20  38  68  96 129 174 231 280 336 392
#
# _framework density 21.960607
#
# number of rings (size 3 to 8) (size 9 to 14) (size 15 to 20)
#    0.000    0.800    6.000    1.200    5.600    0.800 
#    0.000    1.000    0.000    0.000    0.000    0.000 
#    0.000    0.000    0.000    0.000    0.000    0.000 
#
# Total GULP energy -111367.753176 kJ/mol
# GULP energy per Si atom -5568.387659 kJ/mol
# Density = 2.191062 g / cm^3
# Si number density = 21.960607 Si / 1000 Ang^3
#
#
#
# Elastic Constant Matrix: (Units=GPa)
#
#
# Indices 1 2 3 4 5 6 
#
# 1 175.0688 72.2132 29.4188 0.0000 26.6173 -0.0001
# 2 72.2132 159.1066 22.7996 0.0000 22.0213 -0.0001
# 3 29.4188 22.7996 65.9233 -0.0001 -1.7632 -0.0001
# 4 0.0000 0.0000 -0.0001 35.0101 0.0000 35.8658
# 5 26.6173 22.0213 -1.7632 0.0000 35.2314 0.0001
# 6 -0.0001 -0.0001 -0.0001 35.8658 0.0001 118.3115
#
#
#
# Elastic Compliance Matrix: (Units=1/GPa)
#
#
# Indices 1 2 3 4 5 6 
#
# 1 0.007926 -0.002576 -0.002767 0.000000 -0.004517 0.000000
# 2 -0.002576 0.008154 -0.001757 0.000000 -0.003239 0.000000
# 3 -0.002767 -0.001757 0.017120 0.000000 0.004046 0.000000
# 4 0.000000 0.000000 0.000000 0.041429 0.000000 -0.012559
# 5 -0.004517 -0.003239 0.004046 0.000000 0.034023 0.000000
# 6 0.000000 0.000000 0.000000 -0.012559 0.000000 0.012260
#
#
# Mechanical properties :
#
#
# Convention : Reuss Voigt Hill
#
# Bulk Modulus (GPa) = 52.63149 72.10686 62.36918
# Shear Modulus (GPa) = 35.34916 56.08839 45.71878
#
# Velocity S-wave (km/s) = 4.01641 5.05924 4.56768
# Velocity P-wave (km/s) = 6.74738 8.18742 7.50203
#
# Compressibility (1/GPa) = 0.01900003
#
# Stress axis : x y z
#
# Youngs Moduli (GPa) = 126.16348 122.63561 58.41135
#
# Poissons Ratio (x) = 0.31588 0.16163
# Poissons Ratio (y) = 0.32497 0.10265
# Poissons Ratio (z) = 0.34911 0.21551
#
# Static dielectric constant tensor:
#      x y z
#    x 1.804370 0.000000 0.011370 
#    y 0.000000 1.855670 0.000000 
#    z 0.011370 0.000000 2.089050 
# 
# From -- ./inp_files/203412.got.cif
#   From: 2010.05.17/outbox.cif.g08.bks.cpg/sg15_102_cif.got.tgz:203412.got - 2010.06.03 18:47:42.
