data_PCOD9301805
_publ_section_title
;
Structure prediction by ZEFSAII (Michael W. Deem and Ramdas Pophale) SiO2 
 PCOD9301805
Probable space group: C 2/C
;
_chemical_formula_sum "Si O2"
_cell_formula_units_Z 48
_cell_length_a 16.121992
_cell_length_b 29.516256
_cell_length_c 15.708999
_cell_angle_alpha 90.000000
_cell_angle_beta 162.452450
_cell_angle_gamma 90.000000
_cell_volume 2253.781189
_symmetry_space_group_name_H-M "C 2/C"
_symmetry_group_IT_number 15
_symmetry_cell_setting 'monoclinic'
loop_
_space_group_symop_operation_xyz
x,y,z
-x,y,1/2-z
-x,-y,-z
x,-y,1/2+z
1/2+x,1/2+y,z
1/2-x,1/2+y,1/2-z
1/2-x,1/2-y,-z
1/2+x,1/2-y,1/2+z
loop_
_atom_site_type_symbol
_atom_site_label
_atom_site_fract_x
_atom_site_fract_y
_atom_site_fract_z
Si Si1 0.128880 0.348386 0.288938
Si Si2 0.414040 0.365634 0.987842
Si Si3 0.891442 0.097344 0.283392
Si Si4 0.871094 0.407554 0.530688
Si Si5 0.986328 0.781416 0.523849
Si Si6 0.738665 0.499567 0.304066
O O1 0.344513 0.389312 0.514222
O O2 0.327310 0.312106 0.437786
O O3 0.000000 0.330418 0.250000
O O4 0.867707 0.368669 0.982600
O O5 0.598025 0.378448 0.248304
O O6 0.483442 0.314439 0.027906
O O7 0.491794 0.394781 0.979386
O O8 0.104112 0.381338 0.703618
O O9 0.794940 0.046251 0.177504
O O10 0.780761 0.456466 0.405816
O O11 0.000000 0.411805 0.750000
O O12 0.294631 0.763000 0.835898
O O13 0.000000 0.500000 0.500000
O O14 0.500000 0.500000 0.000000
#
# Coordination Sequence:
#
# PCOD9301805 Si02
#       6
#     8   8   8   8   8   8
#     4  11  24  40  61  96 137 177 216 270 334 387
#     4  11  22  42  67  92 130 170 219 273 327 401
#     4  11  21  39  65  90 130 181 229 259 316 391
#     4  12  24  41  66 100 132 171 220 273 332 384
#     4  11  23  41  69  98 124 168 226 276 331 408
#     4  12  22  39  65  96 132 175 225 272 313 381
#
# _framework density 21.297540999999999
#
# number of rings (size 3 to 8) (size 9 to 14) (size 15 to 20)
#    0.000    0.667    3.333    7.000    0.000    1.333 
#    0.000    3.333    0.000   10.000    0.000    0.000 
#    0.000    0.000    0.000    0.000    0.000    0.000 
#
# Total GULP energy -133919.668398 kJ/mol
# GULP energy per Si atom -5579.986183 kJ/mol
# Density = 2.124907 g / cm^3
# Si number density = 21.297541 Si / 1000 Ang^3
#
#
#
# Elastic Constant Matrix: (Units=GPa)
#
#
# Indices 1 2 3 4 5 6 
#
# 1 65.7779 22.3624 18.6125 -0.0002 -6.7814 -0.0002
# 2 22.3624 96.5495 14.9844 -0.0025 4.4544 0.0007
# 3 18.6125 14.9844 127.9297 0.0027 3.6404 0.0054
# 4 -0.0002 -0.0025 0.0027 40.5389 0.0048 9.1278
# 5 -6.7814 4.4544 3.6404 0.0048 38.9069 0.0038
# 6 -0.0002 0.0007 0.0054 9.1278 0.0038 17.0611
#
#
#
# Elastic Compliance Matrix: (Units=1/GPa)
#
#
# Indices 1 2 3 4 5 6 
#
# 1 0.017530 -0.003890 -0.002200 -0.000001 0.003707 0.000001
# 2 -0.003890 0.011459 -0.000722 0.000001 -0.001922 0.000000
# 3 -0.002200 -0.000722 0.008252 0.000000 -0.001073 -0.000002
# 4 -0.000001 0.000001 0.000000 0.028046 -0.000002 -0.015005
# 5 0.003707 -0.001922 -0.001073 -0.000002 0.026669 -0.000004
# 6 0.000001 0.000000 -0.000002 -0.015005 -0.000004 0.066641
#
#
# Mechanical properties :
#
#
# Convention : Reuss Voigt Hill
#
# Bulk Modulus (GPa) = 42.34133 44.68622 43.51378
# Shear Modulus (GPa) = 27.76354 34.92121 31.34237
#
# Velocity S-wave (km/s) = 3.61446 4.05369 3.84036
# Velocity P-wave (km/s) = 6.11090 6.55266 6.33563
#
# Compressibility (1/GPa) = 0.02361759
#
# Stress axis : x y z
#
# Youngs Moduli (GPa) = 57.04573 87.26777 121.18326
#
# Poissons Ratio (x) = 0.33945 0.26664
# Poissons Ratio (y) = 0.22189 0.08744
# Poissons Ratio (z) = 0.12552 0.06297
#
# Static dielectric constant tensor:
#      x y z
#    x 1.796290 0.000010 -0.002780 
#    y 0.000010 1.790960 -0.000010 
#    z -0.002780 -0.000010 1.711260 
# 
# From -- ./inp_files/157717.got.cif
#   From: 2010.05.17/outbox.cif.g08.bks.cpg/sg15_79_cif.got.tgz:157717.got - 2010.06.03 18:47:42.
