data_PCOD9301881
_publ_section_title
;
Structure prediction by ZEFSAII (Michael W. Deem and Ramdas Pophale) SiO2 
 PCOD9301881
Probable space group: C 2/C
;
_chemical_formula_sum "Si O2"
_cell_formula_units_Z 48
_cell_length_a 18.562440
_cell_length_b 18.226645
_cell_length_c 15.737168
_cell_angle_alpha 90.000000
_cell_angle_beta 29.319213
_cell_angle_gamma 90.000000
_cell_volume 2607.211017
_symmetry_space_group_name_H-M "C 2/C"
_symmetry_group_IT_number 15
_symmetry_cell_setting 'monoclinic'
loop_
_space_group_symop_operation_xyz
x,y,z
-x,y,1/2-z
-x,-y,-z
x,-y,1/2+z
1/2+x,1/2+y,z
1/2-x,1/2+y,1/2-z
1/2-x,1/2-y,-z
1/2+x,1/2-y,1/2+z
loop_
_atom_site_type_symbol
_atom_site_label
_atom_site_fract_x
_atom_site_fract_y
_atom_site_fract_z
Si Si1 0.668898 0.519648 0.339632
Si Si2 0.500000 0.017064 0.750000
Si Si3 0.000000 0.869486 0.250000
Si Si4 0.572706 0.938944 0.360834
Si Si5 0.444099 0.818671 0.990547
Si Si6 0.216047 0.825156 0.885109
Si Si7 0.247835 0.440345 0.409762
O O1 0.500000 0.500000 0.500000
O O2 0.755787 0.461416 0.309284
O O3 0.694723 0.599073 0.354765
O O4 0.734785 0.504199 0.178050
O O5 0.480525 0.057513 0.680746
O O6 0.645194 0.967617 0.591141
O O7 0.093716 0.916448 0.220448
O O8 0.875275 0.828087 0.432653
O O9 0.541933 0.861252 0.434942
O O10 0.500000 0.000000 0.500000
O O11 0.609245 0.812201 0.783467
O O12 0.361153 0.742035 0.083775
O O13 0.340387 0.872696 0.041701
#
# Coordination Sequence:
#
# PCOD9301881 Si02
#       7
#     8   4   4   8   8   8   8
#     4  11  21  40  62  87 127 161 208 251 302 366
#     4  12  20  37  70  89 122 164 210 262 298 369
#     4  12  24  35  56  95 124 160 206 250 314 375
#     4  11  21  42  63  93 117 164 209 251 305 368
#     4  11  24  42  60  87 127 163 206 248 316 371
#     4  12  24  39  59  88 125 164 199 259 306 376
#     4  11  22  37  62  91 123 163 204 256 306 366
#
# _framework density 18.410477
#
# number of rings (size 3 to 8) (size 9 to 14) (size 15 to 20)
#    0.000    0.667    6.667    3.000    2.333    3.333 
#    0.000    0.000    0.000    5.000    0.000    0.000 
#    0.000    0.000    0.000    0.000    0.000    0.000 
#
# Total GULP energy -133894.883205 kJ/mol
# GULP energy per Si atom -5578.953467 kJ/mol
# Density = 1.836857 g / cm^3
# Si number density = 18.410477 Si / 1000 Ang^3
#
#
#
# Elastic Constant Matrix: (Units=GPa)
#
#
# Indices 1 2 3 4 5 6 
#
# 1 103.4543 10.2944 40.6535 -0.0002 -4.4041 0.0004
# 2 10.2944 71.2761 35.5736 -0.0007 8.7234 0.0004
# 3 40.6535 35.5736 115.3347 -0.0001 -17.8897 -0.0002
# 4 -0.0002 -0.0007 -0.0001 21.1126 -0.0004 -0.6292
# 5 -4.4041 8.7234 -17.8897 -0.0004 38.4349 0.0005
# 6 0.0004 0.0004 -0.0002 -0.6292 0.0005 25.3800
#
#
#
# Elastic Compliance Matrix: (Units=1/GPa)
#
#
# Indices 1 2 3 4 5 6 
#
# 1 0.011254 0.000619 -0.004289 0.000000 -0.000847 0.000000
# 2 0.000619 0.018344 -0.007017 0.000000 -0.007359 0.000000
# 3 -0.004289 -0.007017 0.013492 0.000000 0.007381 0.000000
# 4 0.000000 0.000000 0.000000 0.047400 0.000000 0.001175
# 5 -0.000847 -0.007359 0.007381 0.000000 0.031027 0.000000
# 6 0.000000 0.000000 0.000000 0.001175 0.000000 0.039430
#
#
# Mechanical properties :
#
#
# Convention : Reuss Voigt Hill
#
# Bulk Modulus (GPa) = 46.05360 51.45645 48.75503
# Shear Modulus (GPa) = 26.37698 30.55508 28.46603
#
# Velocity S-wave (km/s) = 3.78923 4.07831 3.93642
# Velocity P-wave (km/s) = 6.64933 7.08428 6.87025
#
# Compressibility (1/GPa) = 0.02171383
#
# Stress axis : x y z
#
# Youngs Moduli (GPa) = 88.85792 54.51501 74.12011
#
# Poissons Ratio (x) = -0.03375 0.31791
# Poissons Ratio (y) = -0.05500 0.52014
# Poissons Ratio (z) = 0.38113 0.38256
#
# Static dielectric constant tensor:
#      x y z
#    x 1.668100 0.000000 -0.021170 
#    y 0.000000 1.630840 0.000000 
#    z -0.021170 0.000000 1.699960 
# 
# From -- ./inp_files/48742.got.cif
#   From: 2010.05.17/outbox.cif.g08.bks.cpg/sg15_25_cif.got.tgz:48742.got - 2010.06.03 18:47:42.
