data_PCOD9301362
_publ_section_title
;
Structure prediction by ZEFSAII (Michael W. Deem and Ramdas Pophale) SiO2 
 PCOD9301362
Probable space group: C 2/C
;
_chemical_formula_sum "Si O2"
_cell_formula_units_Z 64
_cell_length_a 27.528608
_cell_length_b 13.401335
_cell_length_c 12.183633
_cell_angle_alpha 90.000000
_cell_angle_beta 139.215324
_cell_angle_gamma 90.000000
_cell_volume 2936.076361
_symmetry_space_group_name_H-M "C 2/C"
_symmetry_group_IT_number 15
_symmetry_cell_setting 'monoclinic'
loop_
_space_group_symop_operation_xyz
x,y,z
-x,y,1/2-z
-x,-y,-z
x,-y,1/2+z
1/2+x,1/2+y,z
1/2-x,1/2+y,1/2-z
1/2-x,1/2-y,-z
1/2+x,1/2-y,1/2+z
loop_
_atom_site_type_symbol
_atom_site_label
_atom_site_fract_x
_atom_site_fract_y
_atom_site_fract_z
Si Si1 0.136253 0.027471 0.133699
Si Si2 0.089936 0.802068 0.719953
Si Si3 0.912720 0.402166 0.599244
Si Si4 0.793934 0.535347 0.485200
Si Si5 0.415069 0.334681 0.140331
Si Si6 0.314292 0.134177 0.740244
Si Si7 0.674208 0.246062 0.075757
Si Si8 0.579773 0.675016 0.593746
O O1 0.108425 0.097102 0.185992
O O2 0.219380 0.992086 0.304342
O O3 0.084711 0.931036 0.040371
O O4 0.134117 0.094743 0.020963
O O5 0.136810 0.717439 0.737845
O O6 0.002816 0.782207 0.558685
O O7 0.117443 0.797280 0.891670
O O8 0.864308 0.462439 0.604020
O O9 0.904732 0.282836 0.598372
O O10 0.869986 0.425979 0.413016
O O11 0.000000 0.426461 0.750000
O O12 0.778257 0.569173 0.582492
O O13 0.812414 0.634952 0.446680
O O14 0.500000 0.358142 0.250000
O O15 0.404473 0.346517 0.251746
O O16 0.250549 0.192659 0.696501
O O17 0.638577 0.253782 0.134392
#
# Coordination Sequence:
#
# PCOD9301362 Si02
#       8
#     8   8   8   8   8   8   8   8
#     4  12  23  42  67  98 130 176 224 257 331 408
#     4  11  20  42  68  93 132 174 219 266 325 397
#     4  11  24  43  66  97 130 172 226 273 330 397
#     4  11  24  42  72  95 130 181 224 272 326 394
#     4  11  24  45  66  93 139 180 213 267 341 402
#     4  11  21  45  72  89 130 186 218 270 337 399
#     4  11  23  43  67 100 133 168 229 281 324 382
#     4  12  27  38  67 106 136 170 217 285 328 386
#
# _framework density 21.797796999999999
#
# number of rings (size 3 to 8) (size 9 to 14) (size 15 to 20)
#    0.000    0.750    5.000    3.000    1.750    4.500 
#    0.000    4.375    0.000    0.000    0.000    0.000 
#    0.000    0.000    0.000    0.000    0.000    0.000 
#
# Total GULP energy -179023.527534 kJ/mol
# GULP energy per Si atom -5594.485235 kJ/mol
# Density = 2.174818 g / cm^3
# Si number density = 21.797797 Si / 1000 Ang^3
#
#
#
# Elastic Constant Matrix: (Units=GPa)
#
#
# Indices 1 2 3 4 5 6 
#
# 1 107.1868 4.5084 38.5469 0.0000 1.5446 0.0000
# 2 4.5084 20.1285 4.2343 0.0000 -2.5902 0.0000
# 3 38.5469 4.2343 102.3488 0.0000 11.4830 0.0000
# 4 0.0000 0.0000 0.0000 -26.7768 0.0000 -15.4952
# 5 1.5446 -2.5902 11.4830 0.0000 36.9806 0.0000
# 6 0.0000 0.0000 0.0000 -15.4952 0.0000 14.2495
#
#
#
# Elastic Compliance Matrix: (Units=1/GPa)
#
#
# Indices 1 2 3 4 5 6 
#
# 1 0.010859 -0.001475 -0.004109 0.000000 0.000719 0.000000
# 2 -0.001475 0.050988 -0.002032 0.000000 0.004264 0.000000
# 3 -0.004109 -0.002032 0.011810 0.000000 -0.003638 0.000000
# 4 0.000000 0.000000 0.000000 -0.022922 0.000000 -0.024926
# 5 0.000719 0.004264 -0.003638 0.000000 0.028439 0.000000
# 6 0.000000 0.000000 0.000000 -0.024926 0.000000 0.043073
#
#
# Mechanical properties :
#
#
# Convention : Reuss Voigt Hill
#
# Bulk Modulus (GPa) = 17.11645 36.02702 26.57174
# Shear Modulus (GPa) = 31.85607 17.04897 24.45252
#
# Velocity S-wave (km/s) = 3.82702 2.79971 3.35294
# Velocity P-wave (km/s) = 5.23426 5.19759 5.21596
#
# Compressibility (1/GPa) = 0.05842333
#
# Stress axis : x y z
#
# Youngs Moduli (GPa) = 92.08924 19.61264 84.67070
#
# Poissons Ratio (x) = 0.02893 0.34795
# Poissons Ratio (y) = 0.13585 0.17207
# Poissons Ratio (z) = 0.37843 0.03986
#
# Static dielectric constant tensor:
#      x y z
#    x 1.807450 0.000000 -0.023710 
#    y 0.000000 1.792060 0.000000 
#    z -0.023710 0.000000 1.806430 
# 
# From -- ./inp_files/123529.got.cif
#   From: 2010.05.17/outbox.cif.g08.bks.cpg/sg15_62_cif.got.tgz:123529.got - 2010.06.03 18:47:42.
