data_PCOD9301870
_publ_section_title
;
Structure prediction by ZEFSAII (Michael W. Deem and Ramdas Pophale) SiO2 
 PCOD9301870
Probable space group: C 2/C
;
_chemical_formula_sum "Si O2"
_cell_formula_units_Z 40
_cell_length_a 28.810435
_cell_length_b 11.854237
_cell_length_c 11.615729
_cell_angle_alpha 90.000000
_cell_angle_beta 24.606191
_cell_angle_gamma 90.000000
_cell_volume 1651.804891
_symmetry_space_group_name_H-M "C 2/C"
_symmetry_group_IT_number 15
_symmetry_cell_setting 'monoclinic'
loop_
_space_group_symop_operation_xyz
x,y,z
-x,y,1/2-z
-x,-y,-z
x,-y,1/2+z
1/2+x,1/2+y,z
1/2-x,1/2+y,1/2-z
1/2-x,1/2-y,-z
1/2+x,1/2-y,1/2+z
loop_
_atom_site_type_symbol
_atom_site_label
_atom_site_fract_x
_atom_site_fract_y
_atom_site_fract_z
Si Si1 0.864576 0.196564 0.287210
Si Si2 0.029231 0.415740 0.534746
Si Si3 0.312885 0.991734 0.657873
Si Si4 0.115539 0.986561 0.419230
Si Si5 0.624817 0.253140 0.468510
O O1 0.750000 0.250000 0.500000
O O2 0.958261 0.286415 0.033309
O O3 0.885310 0.074829 0.183085
O O4 0.857513 0.197176 0.442207
O O5 0.154236 0.453442 0.293871
O O6 0.000000 0.500000 0.500000
O O7 0.919407 0.443480 0.858610
O O8 0.216504 0.996675 0.780707
O O9 0.306365 0.858848 0.701815
O O10 0.127091 0.852373 0.369952
O O11 0.000000 0.999519 0.750000
O O12 0.500000 0.205184 0.750000
#
# Coordination Sequence:
#
# PCOD9301870 Si02
#       5
#     8   8   8   8   8
#     4  12  23  44  71 102 142 183 229 294 354 418
#     4  11  21  39  73 104 129 175 239 288 348 409
#     4  11  22  41  69 102 130 181 236 287 336 420
#     4  11  27  41  67 102 143 189 226 286 360 424
#     4  11  22  44  66  94 141 177 224 291 349 408
#
# _framework density 24.215935999999999
#
# number of rings (size 3 to 8) (size 9 to 14) (size 15 to 20)
#    0.000    0.800    6.000    1.200    2.800    3.200 
#    0.000    0.000    0.000   10.800    0.000    0.000 
#    0.000    0.000    0.000    0.000    0.000    0.000 
#
# Total GULP energy -111377.180370 kJ/mol
# GULP energy per Si atom -5568.859019 kJ/mol
# Density = 2.416082 g / cm^3
# Si number density = 24.215936 Si / 1000 Ang^3
#
#
#
# Elastic Constant Matrix: (Units=GPa)
#
#
# Indices 1 2 3 4 5 6 
#
# 1 86.8561 9.6482 5.9250 0.0000 -12.7306 0.0000
# 2 9.6482 175.7205 23.1578 0.0000 35.8868 0.0000
# 3 5.9250 23.1578 51.4513 0.0000 -6.4509 0.0000
# 4 0.0000 0.0000 0.0000 3.8368 0.0000 0.8994
# 5 -12.7306 35.8868 -6.4509 0.0000 31.3108 0.0000
# 6 0.0000 0.0000 0.0000 0.8994 0.0000 43.1404
#
#
#
# Elastic Compliance Matrix: (Units=1/GPa)
#
#
# Indices 1 2 3 4 5 6 
#
# 1 0.012953 -0.002483 0.000660 0.000000 0.008248 0.000000
# 2 -0.002483 0.009099 -0.005383 0.000000 -0.012547 0.000000
# 3 0.000660 -0.005383 0.023189 0.000000 0.011215 0.000000
# 4 0.000000 0.000000 0.000000 0.261915 0.000000 -0.005461
# 5 0.008248 -0.012547 0.011215 0.000000 0.051983 0.000000
# 6 0.000000 0.000000 0.000000 -0.005461 0.000000 0.023294
#
#
# Mechanical properties :
#
#
# Convention : Reuss Voigt Hill
#
# Bulk Modulus (GPa) = 32.43605 43.49889 37.96747
# Shear Modulus (GPa) = 12.28140 34.01073 23.14607
#
# Velocity S-wave (km/s) = 2.25447 3.75170 3.09499
# Velocity P-wave (km/s) = 4.49449 6.06374 5.33710
#
# Compressibility (1/GPa) = 0.03082990
#
# Stress axis : x y z
#
# Youngs Moduli (GPa) = 77.20241 109.90243 43.12456
#
# Poissons Ratio (x) = 0.27284 -0.02846
# Poissons Ratio (y) = 0.19166 0.23212
# Poissons Ratio (z) = -0.05094 0.59156
#
# Static dielectric constant tensor:
#      x y z
#    x 2.333460 0.000000 0.225500 
#    y 0.000000 1.970240 0.000000 
#    z 0.225500 0.000000 2.129530 
# 
# From -- ./inp_files/122755.got.cif
#   From: 2010.05.17/outbox.cif.g08.bks.cpg/sg15_62_cif.got.tgz:122755.got - 2010.06.03 18:47:42.
