data_PCOD9301236
_publ_section_title
;
Structure prediction by ZEFSAII (Michael W. Deem and Ramdas Pophale) SiO2 
 PCOD9301236
Probable space group: C 2/C
;
_chemical_formula_sum "Si O2"
_cell_formula_units_Z 40
_cell_length_a 18.128344
_cell_length_b 16.149376
_cell_length_c 12.522061
_cell_angle_alpha 90.000000
_cell_angle_beta 148.756896
_cell_angle_gamma 90.000000
_cell_volume 1901.433427
_symmetry_space_group_name_H-M "C 2/C"
_symmetry_group_IT_number 15
_symmetry_cell_setting 'monoclinic'
loop_
_space_group_symop_operation_xyz
x,y,z
-x,y,1/2-z
-x,-y,-z
x,-y,1/2+z
1/2+x,1/2+y,z
1/2-x,1/2+y,1/2-z
1/2-x,1/2-y,-z
1/2+x,1/2-y,1/2+z
loop_
_atom_site_type_symbol
_atom_site_label
_atom_site_fract_x
_atom_site_fract_y
_atom_site_fract_z
Si Si1 0.223863 0.345575 0.645265
Si Si2 0.384067 0.441139 0.417058
Si Si3 0.165391 0.521494 0.479593
Si Si4 0.979641 0.226886 0.350953
Si Si5 0.350219 0.417018 0.021179
O O1 0.210345 0.424893 0.550194
O O2 0.068364 0.310229 0.479204
O O3 0.321390 0.278620 0.703640
O O4 0.294814 0.372088 0.845790
O O5 0.500000 0.500000 0.500000
O O6 0.443190 0.349819 0.496155
O O7 0.371316 0.487151 0.513095
O O8 0.231587 0.442689 0.170915
O O9 0.241165 0.575353 0.482389
O O10 0.000000 0.524225 0.250000
O O11 0.000000 0.212301 0.250000
O O12 0.500000 0.383537 0.250000
#
# Coordination Sequence:
#
# PCOD9301236 Si02
#       5
#     8   8   8   8   8
#     4  11  25  41  62  99 131 169 219 264 331 391
#     4  11  20  39  68  92 123 168 235 250 312 399
#     4  11  23  40  64  98 130 166 219 273 322 375
#     4  12  23  41  66  95 133 171 211 270 329 384
#     4  11  20  41  69  89 127 178 220 268 313 387
#
# _framework density 21.036762
#
# number of rings (size 3 to 8) (size 9 to 14) (size 15 to 20)
#    0.000    0.800    6.000    3.000    0.000    6.400 
#    0.000    5.000    0.000    0.000    0.000    0.000 
#    0.000    0.000    0.000    0.000    0.000    0.000 
#
# Total GULP energy -111606.710998 kJ/mol
# GULP energy per Si atom -5580.335550 kJ/mol
# Density = 2.098888 g / cm^3
# Si number density = 21.036762 Si / 1000 Ang^3
#
#
#
# Elastic Constant Matrix: (Units=GPa)
#
#
# Indices 1 2 3 4 5 6 
#
# 1 77.8543 9.6645 52.6550 0.0000 -0.5485 0.0000
# 2 9.6645 36.4189 14.4068 0.0000 -1.8879 0.0000
# 3 52.6550 14.4068 158.6329 0.0000 1.4507 0.0000
# 4 0.0000 0.0000 0.0000 2.0865 0.0000 -26.7012
# 5 -0.5485 -1.8879 1.4507 0.0000 32.7742 0.0000
# 6 0.0000 0.0000 0.0000 -26.7012 0.0000 -6.7552
#
#
#
# Elastic Compliance Matrix: (Units=1/GPa)
#
#
# Indices 1 2 3 4 5 6 
#
# 1 0.016756 -0.002308 -0.005356 0.000000 0.000385 0.000000
# 2 -0.002308 0.028901 -0.001874 0.000000 0.001709 0.000000
# 3 -0.005356 -0.001874 0.008257 0.000000 -0.000563 0.000000
# 4 0.000000 0.000000 0.000000 0.009291 0.000000 -0.036725
# 5 0.000385 0.001709 -0.000563 0.000000 0.030642 0.000000
# 6 0.000000 0.000000 0.000000 -0.036725 0.000000 -0.002870
#
#
# Mechanical properties :
#
#
# Convention : Reuss Voigt Hill
#
# Bulk Modulus (GPa) = 28.70444 47.37320 38.03882
# Shear Modulus (GPa) = 41.09636 18.69974 29.89805
#
# Velocity S-wave (km/s) = 4.42469 2.98469 3.77401
# Velocity P-wave (km/s) = 6.30701 5.86907 6.09198
#
# Compressibility (1/GPa) = 0.03483781
#
# Stress axis : x y z
#
# Youngs Moduli (GPa) = 59.68040 34.60111 121.11007
#
# Poissons Ratio (x) = 0.07986 0.64863
# Poissons Ratio (y) = 0.13774 0.22700
# Poissons Ratio (z) = 0.31963 0.06485
#
# Static dielectric constant tensor:
#      x y z
#    x 1.924960 0.000000 -0.027850 
#    y 0.000000 1.760540 0.000000 
#    z -0.027850 0.000000 1.809130 
# 
# From -- ./inp_files/106823.got.cif
#   From: 2010.05.17/outbox.cif.g08.bks.cpg/sg15_54_cif.got.tgz:106823.got - 2010.06.03 18:47:42.
