data_PCOD9301053
_publ_section_title
;
Structure prediction by ZEFSAII (Michael W. Deem and Ramdas Pophale) SiO2 
 PCOD9301053
Probable space group: C 2/C
;
_chemical_formula_sum "Si O2"
_cell_formula_units_Z 60
_cell_length_a 11.954705
_cell_length_b 22.339061
_cell_length_c 17.243990
_cell_angle_alpha 90.000000
_cell_angle_beta 40.427721
_cell_angle_gamma 90.000000
_cell_volume 2986.370371
_symmetry_space_group_name_H-M "C 2/C"
_symmetry_group_IT_number 15
_symmetry_cell_setting 'monoclinic'
loop_
_space_group_symop_operation_xyz
x,y,z
-x,y,1/2-z
-x,-y,-z
x,-y,1/2+z
1/2+x,1/2+y,z
1/2-x,1/2+y,1/2-z
1/2-x,1/2-y,-z
1/2+x,1/2-y,1/2+z
loop_
_atom_site_type_symbol
_atom_site_label
_atom_site_fract_x
_atom_site_fract_y
_atom_site_fract_z
Si Si1 0.686027 0.455531 0.107683
Si Si2 0.020017 0.875633 0.088224
Si Si3 0.541391 0.139273 0.964878
Si Si4 0.353927 0.731138 0.081980
Si Si5 0.653040 0.865837 0.226928
Si Si6 0.500000 0.290971 0.250000
Si Si7 0.312307 0.406187 0.887781
Si Si8 0.337047 0.304098 0.997691
O O1 0.500000 0.454802 0.250000
O O2 0.642547 0.429786 0.046189
O O3 0.825784 0.411160 0.073615
O O4 0.738492 0.524487 0.074657
O O5 0.835556 0.898069 0.152508
O O6 0.001714 0.835927 0.176140
O O7 0.109575 0.827580 0.986454
O O8 0.571171 0.204546 0.986349
O O9 0.575565 0.145869 0.853450
O O10 0.343795 0.121103 0.079628
O O11 0.156546 0.747426 0.186767
O O12 0.464193 0.714914 0.099135
O O13 0.500000 0.889189 0.250000
O O14 0.736447 0.811339 0.132902
O O15 0.500000 0.402991 0.750000
O O16 0.321333 0.366565 0.960938
O O17 0.250000 0.250000 0.000000
#
# Coordination Sequence:
#
# PCOD9301053 Si02
#       8
#     8   8   8   8   8   4   8   8
#     4  11  21  42  68  91 125 166 219 260 311 383
#     4  11  21  37  62  95 123 166 207 262 309 379
#     4  12  21  42  66 101 121 168 217 265 318 373
#     4  11  23  35  63  96 125 159 209 258 319 374
#     4  11  20  36  68  91 124 163 217 257 308 387
#     4  12  20  38  60  94 130 158 214 254 318 382
#     4  11  26  42  63  95 128 168 210 266 319 372
#     4  11  23  41  61  97 129 166 205 259 326 375
#
# _framework density 20.091279
#
# number of rings (size 3 to 8) (size 9 to 14) (size 15 to 20)
#    0.000    0.800    7.333    0.800    0.000    2.667 
#    0.000    2.667    0.000    0.000    0.000    0.000 
#    0.000    0.000    0.000    0.000    0.000    0.000 
#
# Total GULP energy -167082.232165 kJ/mol
# GULP energy per Si atom -5569.407739 kJ/mol
# Density = 2.004555 g / cm^3
# Si number density = 20.091279 Si / 1000 Ang^3
#
#
#
# Elastic Constant Matrix: (Units=GPa)
#
#
# Indices 1 2 3 4 5 6 
#
# 1 103.1262 9.5995 12.0112 -0.0001 -25.0590 0.0001
# 2 9.5995 89.8880 6.2334 0.0003 -7.5349 -0.0001
# 3 12.0112 6.2334 35.2126 0.0007 -17.0960 -0.0001
# 4 -0.0001 0.0003 0.0007 13.0711 0.0004 4.1550
# 5 -25.0590 -7.5349 -17.0960 0.0004 37.6811 -0.0002
# 6 0.0001 -0.0001 -0.0001 4.1550 -0.0002 8.5590
#
#
#
# Elastic Compliance Matrix: (Units=1/GPa)
#
#
# Indices 1 2 3 4 5 6 
#
# 1 0.011599 -0.000595 -0.000210 0.000000 0.007499 0.000000
# 2 -0.000595 0.011382 -0.001153 0.000000 0.001357 0.000000
# 3 -0.000210 -0.001153 0.036545 -0.000003 0.016210 0.000002
# 4 0.000000 0.000000 -0.000003 0.090464 -0.000003 -0.043916
# 5 0.007499 0.001357 0.016210 -0.000003 0.039152 0.000002
# 6 0.000000 0.000000 0.000002 -0.043916 0.000002 0.138156
#
#
# Mechanical properties :
#
#
# Convention : Reuss Voigt Hill
#
# Bulk Modulus (GPa) = 17.98269 31.54612 24.76441
# Shear Modulus (GPa) = 14.29587 25.22108 19.75848
#
# Velocity S-wave (km/s) = 2.67038 3.54690 3.13938
# Velocity P-wave (km/s) = 4.29858 5.70171 5.04912
#
# Compressibility (1/GPa) = 0.05560902
#
# Stress axis : x y z
#
# Youngs Moduli (GPa) = 86.21402 87.85610 27.36356
#
# Poissons Ratio (x) = 0.05232 0.00575
# Poissons Ratio (y) = 0.05134 0.03155
# Poissons Ratio (z) = 0.01812 0.10130
#
# Static dielectric constant tensor:
#      x y z
#    x 1.799330 0.000000 -0.004890 
#    y 0.000000 1.708070 0.000000 
#    z -0.004890 0.000000 1.762650 
# 
# From -- ./inp_files/200498.got.cif
#   From: 2010.05.17/outbox.cif.g08.bks.cpg/sg15_101_cif.got.tgz:200498.got - 2010.06.03 18:47:42.
