data_PCOD9301552
_publ_section_title
;
Structure prediction by ZEFSAII (Michael W. Deem and Ramdas Pophale) SiO2 
 PCOD9301552
Probable space group: C 2/C
;
_chemical_formula_sum "Si O2"
_cell_formula_units_Z 56
_cell_length_a 11.533108
_cell_length_b 19.097384
_cell_length_c 18.150132
_cell_angle_alpha 90.000000
_cell_angle_beta 48.852147
_cell_angle_gamma 90.000000
_cell_volume 3010.253935
_symmetry_space_group_name_H-M "C 2/C"
_symmetry_group_IT_number 15
_symmetry_cell_setting 'monoclinic'
loop_
_space_group_symop_operation_xyz
x,y,z
-x,y,1/2-z
-x,-y,-z
x,-y,1/2+z
1/2+x,1/2+y,z
1/2-x,1/2+y,1/2-z
1/2-x,1/2-y,-z
1/2+x,1/2-y,1/2+z
loop_
_atom_site_type_symbol
_atom_site_label
_atom_site_fract_x
_atom_site_fract_y
_atom_site_fract_z
Si Si1 0.944185 0.921643 0.109936
Si Si2 0.000000 0.042263 0.750000
Si Si3 0.156495 0.081242 0.382469
Si Si4 0.641874 0.162585 0.748476
Si Si5 0.792594 0.558170 0.111822
Si Si6 0.982952 0.454337 0.398348
Si Si7 0.000000 0.544176 0.250000
Si Si8 0.632042 0.324003 0.757177
O O1 0.798561 0.872173 0.153514
O O2 0.986880 0.915335 0.178746
O O3 0.888437 0.002138 0.122640
O O4 0.081711 0.908181 0.994387
O O5 0.856121 0.990248 0.818223
O O6 0.342863 0.086411 0.300956
O O7 0.090311 0.134525 0.349172
O O8 0.500000 0.160644 0.750000
O O9 0.587470 0.112996 0.838165
O O10 0.667704 0.243286 0.757756
O O11 0.767889 0.631339 0.162736
O O12 0.923476 0.513845 0.097671
O O13 0.838133 0.566565 0.007866
O O14 0.948298 0.492107 0.336625
O O15 0.500000 0.326399 0.750000
#
# Coordination Sequence:
#
# PCOD9301552 Si02
#       8
#     8   4   8   8   8   8   4   8
#     4  11  22  38  63  90 119 156 200 247 297 350
#     4  12  18  38  64  90 116 150 194 256 294 346
#     4  11  22  38  63  90 119 156 200 247 297 350
#     4  11  22  39  60  86 124 158 195 244 298 357
#     4  11  21  36  60  87 115 152 195 241 292 345
#     4  11  21  36  60  87 115 152 195 241 292 345
#     4  12  18  38  64  90 116 150 194 256 294 346
#     4  11  22  39  60  86 124 158 195 244 298 357
#
# _framework density 18.603081
#
# number of rings (size 3 to 8) (size 9 to 14) (size 15 to 20)
#    0.000    0.857    7.143    0.857    0.000    4.571 
#    0.000    3.571    0.000    1.714    0.000    0.000 
#    0.000    0.000    0.000    0.000    0.000    0.000 
#
# Total GULP energy -156239.304682 kJ/mol
# GULP energy per Si atom -5579.975167 kJ/mol
# Density = 1.856074 g / cm^3
# Si number density = 18.603081 Si / 1000 Ang^3
#
#
#
# Elastic Constant Matrix: (Units=GPa)
#
#
# Indices 1 2 3 4 5 6 
#
# 1 48.9746 14.2243 24.0086 0.0000 18.1433 -0.0001
# 2 14.2243 112.9421 26.8726 0.0002 9.1665 0.0001
# 3 24.0086 26.8726 131.4435 0.0003 18.7082 0.0001
# 4 0.0000 0.0002 0.0003 43.9748 -0.0001 19.8998
# 5 18.1433 9.1665 18.7082 -0.0001 23.0809 0.0001
# 6 -0.0001 0.0001 0.0001 19.8998 0.0001 34.1773
#
#
#
# Elastic Compliance Matrix: (Units=1/GPa)
#
#
# Indices 1 2 3 4 5 6 
#
# 1 0.029685 -0.001529 -0.002119 0.000000 -0.021010 0.000000
# 2 -0.001529 0.009508 -0.001467 0.000000 -0.001385 0.000000
# 3 -0.002119 -0.001467 0.009015 0.000000 -0.005058 0.000000
# 4 0.000000 0.000000 0.000000 0.030876 0.000000 -0.017977
# 5 -0.021010 -0.001385 -0.005058 0.000000 0.064491 0.000000
# 6 0.000000 0.000000 0.000000 -0.017977 0.000000 0.039727
#
#
# Mechanical properties :
#
#
# Convention : Reuss Voigt Hill
#
# Bulk Modulus (GPa) = 26.33216 47.06348 36.69782
# Shear Modulus (GPa) = 24.24928 35.46359 29.85643
#
# Velocity S-wave (km/s) = 3.61433 4.37089 4.01049
# Velocity P-wave (km/s) = 5.62168 7.12928 6.41989
#
# Compressibility (1/GPa) = 0.03797637
#
# Stress axis : x y z
#
# Youngs Moduli (GPa) = 33.68694 105.17207 110.92784
#
# Poissons Ratio (x) = 0.16083 0.23508
# Poissons Ratio (y) = 0.05152 0.16279
# Poissons Ratio (z) = 0.07139 0.15434
#
# Static dielectric constant tensor:
#      x y z
#    x 1.714710 0.000000 0.014530 
#    y 0.000000 1.618840 0.000000 
#    z 0.014530 0.000000 1.683830 
# 
# From -- ./inp_files/199481.got.cif
#   From: 2010.05.17/outbox.cif.g08.bks.cpg/sg15_100_cif.got.tgz:199481.got - 2010.06.03 18:47:42.
