data_PCOD9301839
_publ_section_title
;
Structure prediction by ZEFSAII (Michael W. Deem and Ramdas Pophale) SiO2 
 PCOD9301839
Probable space group: C 2/C
;
_chemical_formula_sum "Si O2"
_cell_formula_units_Z 32
_cell_length_a 11.163556
_cell_length_b 12.951952
_cell_length_c 8.994700
_cell_angle_alpha 90.000000
_cell_angle_beta 81.655301
_cell_angle_gamma 90.000000
_cell_volume 1286.773236
_symmetry_space_group_name_H-M "C 2/C"
_symmetry_group_IT_number 15
_symmetry_cell_setting 'monoclinic'
loop_
_space_group_symop_operation_xyz
x,y,z
-x,y,1/2-z
-x,-y,-z
x,-y,1/2+z
1/2+x,1/2+y,z
1/2-x,1/2+y,1/2-z
1/2-x,1/2-y,-z
1/2+x,1/2-y,1/2+z
loop_
_atom_site_type_symbol
_atom_site_label
_atom_site_fract_x
_atom_site_fract_y
_atom_site_fract_z
Si Si1 0.927206 0.921088 0.411795
Si Si2 0.161546 0.534634 0.957906
Si Si3 0.870355 0.356045 0.729214
Si Si4 0.382479 0.746176 0.170328
O O1 0.895290 0.821426 0.517495
O O2 0.000000 0.902005 0.250000
O O3 0.802356 0.975494 0.392010
O O4 0.000000 0.000000 0.500000
O O5 0.107011 0.425555 0.920542
O O6 0.118504 0.633986 0.873038
O O7 0.154784 0.563241 0.132105
O O8 0.750814 0.284692 0.740268
O O9 0.000000 0.308987 0.750000
O O10 0.500000 0.722832 0.250000
#
# Coordination Sequence:
#
# PCOD9301839 Si02
#       4
#     8   8   8   8
#     4  11  21  39  67  98 130 169 212 264 321 381
#     4  11  24  42  65  95 131 170 215 269 323 384
#     4  11  23  43  66  93 128 171 213 263 324 386
#     4  11  25  44  65  96 133 170 216 268 320 383
#
# _framework density 24.868406
#
# number of rings (size 3 to 8) (size 9 to 14) (size 15 to 20)
#    0.000    1.000    0.000    9.750    0.000    4.000 
#    0.000    3.750    0.000    0.000    0.000    0.000 
#    0.000    0.000    0.000    0.000    0.000    0.000 
#
# Total GULP energy -89649.428080 kJ/mol
# GULP energy per Si atom -5603.089255 kJ/mol
# Density = 2.481180 g / cm^3
# Si number density = 24.868406 Si / 1000 Ang^3
#
#
#
# Elastic Constant Matrix: (Units=GPa)
#
#
# Indices 1 2 3 4 5 6 
#
# 1 196.4140 51.3162 29.0730 0.0000 10.5076 0.0000
# 2 51.3162 106.1641 26.3345 0.0000 0.2260 0.0000
# 3 29.0730 26.3345 74.4132 0.0000 -2.8334 0.0000
# 4 0.0000 0.0000 0.0000 36.7479 0.0000 6.3051
# 5 10.5076 0.2260 -2.8334 0.0000 43.1448 0.0000
# 6 0.0000 0.0000 0.0000 6.3051 0.0000 25.3198
#
#
#
# Elastic Compliance Matrix: (Units=1/GPa)
#
#
# Indices 1 2 3 4 5 6 
#
# 1 0.006067 -0.002551 -0.001527 0.000000 -0.001565 0.000000
# 2 -0.002551 0.011402 -0.003025 0.000000 0.000363 0.000000
# 3 -0.001527 -0.003025 0.015158 0.000000 0.001383 0.000000
# 4 0.000000 0.000000 0.000000 0.028427 0.000000 -0.007079
# 5 -0.001565 0.000363 0.001383 0.000000 0.023648 0.000000
# 6 0.000000 0.000000 0.000000 -0.007079 0.000000 0.041258
#
#
# Mechanical properties :
#
#
# Convention : Reuss Voigt Hill
#
# Bulk Modulus (GPa) = 54.28278 65.60429 59.94354
# Shear Modulus (GPa) = 34.17491 39.06034 36.61762
#
# Velocity S-wave (km/s) = 3.71108 3.96748 3.84142
# Velocity P-wave (km/s) = 6.34336 6.88663 6.62057
#
# Compressibility (1/GPa) = 0.01842205
#
# Stress axis : x y z
#
# Youngs Moduli (GPa) = 164.81346 87.70562 65.97016
#
# Poissons Ratio (x) = 0.22370 0.10077
# Poissons Ratio (y) = 0.42037 0.19954
# Poissons Ratio (z) = 0.25175 0.26529
#
# Static dielectric constant tensor:
#      x y z
#    x 2.020820 0.000000 -0.003350 
#    y 0.000000 1.928110 0.000000 
#    z -0.003350 0.000000 1.927750 
# 
# From -- ./inp_files/27991.got.cif
#   From: 2010.05.17/outbox.cif.g08.bks.cpg/sg15_14_cif.got.tgz:27991.got - 2010.06.03 18:47:42.
