data_PCOD9301075
_publ_section_title
;
Structure prediction by ZEFSAII (Michael W. Deem and Ramdas Pophale) SiO2 
 PCOD9301075
Probable space group: C 2/C
;
_chemical_formula_sum "Si O2"
_cell_formula_units_Z 56
_cell_length_a 11.354348
_cell_length_b 11.016753
_cell_length_c 23.189154
_cell_angle_alpha 90.000000
_cell_angle_beta 53.973194
_cell_angle_gamma 90.000000
_cell_volume 2345.906328
_symmetry_space_group_name_H-M "C 2/C"
_symmetry_group_IT_number 15
_symmetry_cell_setting 'monoclinic'
loop_
_space_group_symop_operation_xyz
x,y,z
-x,y,1/2-z
-x,-y,-z
x,-y,1/2+z
1/2+x,1/2+y,z
1/2-x,1/2+y,1/2-z
1/2-x,1/2-y,-z
1/2+x,1/2-y,1/2+z
loop_
_atom_site_type_symbol
_atom_site_label
_atom_site_fract_x
_atom_site_fract_y
_atom_site_fract_z
Si Si1 0.665026 0.930189 0.354439
Si Si2 0.359236 0.352627 0.752060
Si Si3 0.557631 0.637880 0.581807
Si Si4 0.112353 0.681432 0.979904
Si Si5 0.373317 0.413574 0.609169
Si Si6 0.956236 0.485328 0.821409
Si Si7 0.625684 0.274225 0.273098
O O1 0.598890 0.924274 0.436876
O O2 0.786603 0.824207 0.307078
O O3 0.762316 0.044197 0.309615
O O4 0.524795 0.937628 0.353173
O O5 0.500000 0.340779 0.750000
O O6 0.375211 0.381163 0.678063
O O7 0.256208 0.235297 0.781269
O O8 0.730816 0.645518 0.538082
O O9 0.520300 0.765805 0.560036
O O10 0.492280 0.520562 0.569772
O O11 0.489666 0.636860 0.665298
O O12 0.101292 0.798284 0.939606
O O13 0.215090 0.460898 0.633518
O O14 0.000000 0.549255 0.750000
O O15 0.043803 0.355078 0.793657
#
# Coordination Sequence:
#
# PCOD9301075 Si02
#       7
#     8   8   8   8   8   8   8
#     4  11  22  37  63  91 126 159 208 261 309 379
#     4  11  23  36  61  97 122 154 206 266 315 368
#     4  11  24  40  67  91 122 168 214 256 318 385
#     4  11  24  43  64  90 126 167 211 261 318 379
#     4  12  21  42  66  90 126 163 214 262 313 389
#     4  11  20  37  61  94 124 164 208 256 324 372
#     4  11  21  38  62  90 123 159 205 259 307 379
#
# _framework density 23.871372000000001
#
# number of rings (size 3 to 8) (size 9 to 14) (size 15 to 20)
#    0.000    0.857    7.143    1.286    0.000    1.714 
#    0.000    3.571    3.143    0.000    0.000    0.000 
#    0.000    0.000    0.000    0.000    0.000    0.000 
#
# Total GULP energy -156063.507387 kJ/mol
# GULP energy per Si atom -5573.696692 kJ/mol
# Density = 2.381704 g / cm^3
# Si number density = 23.871372 Si / 1000 Ang^3
#
#
#
# Elastic Constant Matrix: (Units=GPa)
#
#
# Indices 1 2 3 4 5 6 
#
# 1 178.8810 21.8206 32.6696 0.0000 12.7849 0.0000
# 2 21.8206 47.3892 15.8105 0.0000 -8.2401 0.0000
# 3 32.6696 15.8105 100.4919 0.0000 7.9566 0.0000
# 4 0.0000 0.0000 0.0000 35.4679 0.0000 0.2710
# 5 12.7849 -8.2401 7.9566 0.0000 24.1700 0.0000
# 6 0.0000 0.0000 0.0000 0.2710 0.0000 33.8998
#
#
#
# Elastic Compliance Matrix: (Units=1/GPa)
#
#
# Indices 1 2 3 4 5 6 
#
# 1 0.006522 -0.003302 -0.001272 0.000000 -0.004157 0.000000
# 2 -0.003302 0.026018 -0.003964 0.000000 0.011921 0.000000
# 3 -0.001272 -0.003964 0.011337 0.000000 -0.004411 0.000000
# 4 0.000000 0.000000 0.000000 0.028196 0.000000 -0.000225
# 5 -0.004157 0.011921 -0.004411 0.000000 0.049089 0.000000
# 6 0.000000 0.000000 0.000000 -0.000225 0.000000 0.029500
#
#
# Mechanical properties :
#
#
# Convention : Reuss Voigt Hill
#
# Bulk Modulus (GPa) = 37.31002 51.92927 44.61964
# Shear Modulus (GPa) = 28.30100 35.80497 32.05299
#
# Velocity S-wave (km/s) = 3.44694 3.87707 3.66831
# Velocity P-wave (km/s) = 5.61296 6.46864 6.05593
#
# Compressibility (1/GPa) = 0.02680245
#
# Stress axis : x y z
#
# Youngs Moduli (GPa) = 153.31616 38.43554 88.20378
#
# Poissons Ratio (x) = 0.12691 0.11218
# Poissons Ratio (y) = 0.50622 0.34963
# Poissons Ratio (z) = 0.19499 0.15235
#
# Static dielectric constant tensor:
#      x y z
#    x 1.915250 0.000000 0.037950 
#    y 0.000000 2.075790 0.000000 
#    z 0.037950 0.000000 1.963760 
# 
# From -- ./inp_files/268745.got.cif
#   From: 2010.05.17/outbox.cif.g08.bks.cpg/sg15_135_cif.got.tgz:268745.got - 2010.06.03 18:47:42.
