data_PCOD9301988
_publ_section_title
;
Structure prediction by ZEFSAII (Michael W. Deem and Ramdas Pophale) SiO2 
 PCOD9301988
Probable space group: C 2/C
;
_chemical_formula_sum "Si O2"
_cell_formula_units_Z 60
_cell_length_a 9.450104
_cell_length_b 14.299233
_cell_length_c 23.848292
_cell_angle_alpha 90.000000
_cell_angle_beta 66.656987
_cell_angle_gamma 90.000000
_cell_volume 2958.828967
_symmetry_space_group_name_H-M "C 2/C"
_symmetry_group_IT_number 15
_symmetry_cell_setting 'monoclinic'
loop_
_space_group_symop_operation_xyz
x,y,z
-x,y,1/2-z
-x,-y,-z
x,-y,1/2+z
1/2+x,1/2+y,z
1/2-x,1/2+y,1/2-z
1/2-x,1/2-y,-z
1/2+x,1/2-y,1/2+z
loop_
_atom_site_type_symbol
_atom_site_label
_atom_site_fract_x
_atom_site_fract_y
_atom_site_fract_z
Si Si1 0.323692 0.358042 0.821617
Si Si2 0.007468 0.594207 0.424332
Si Si3 0.266640 0.102014 0.764428
Si Si4 0.423916 0.833855 0.346903
Si Si5 0.723388 0.194990 0.122877
Si Si6 0.449640 0.128248 0.561560
Si Si7 0.379250 0.591908 0.195307
Si Si8 0.500000 0.278238 0.250000
O O1 0.409725 0.275121 0.839429
O O2 0.443344 0.439616 0.820818
O O3 0.334867 0.339422 0.753873
O O4 0.152872 0.364853 0.868954
O O5 0.856996 0.631740 0.413325
O O6 0.991421 0.632494 0.489858
O O7 0.056972 0.484029 0.423281
O O8 0.415928 0.125555 0.703052
O O9 0.297072 0.126182 0.824736
O O10 0.124629 0.157881 0.761729
O O11 0.231453 0.993277 0.771311
O O12 0.419198 0.846749 0.413726
O O13 0.811755 0.293814 0.093170
O O14 0.841367 0.131291 0.140362
O O15 0.590599 0.219570 0.188838
#
# Coordination Sequence:
#
# PCOD9301988 Si02
#       8
#     8   8   8   8   8   8   8   4
#     4  11  22  41  60  94 130 165 210 268 327 404
#     4  11  26  43  68  93 126 177 230 273 338 393
#     4  11  22  35  62  95 128 169 203 268 337 397
#     4  11  21  41  61  88 131 167 215 265 333 397
#     4  12  23  43  65  97 129 173 220 275 335 410
#     4  11  24  45  67  90 132 175 225 284 325 401
#     4  11  22  37  62  94 129 162 208 263 336 401
#     4  12  22  38  62 100 132 162 216 272 336 402
#
# _framework density 20.278293000000001
#
# number of rings (size 3 to 8) (size 9 to 14) (size 15 to 20)
#    0.000    0.800    2.667    6.800    1.867    2.667 
#    0.000    0.000    0.000    2.400    0.000    0.000 
#    0.000    0.000    0.000    0.000    0.000    0.000 
#
# Total GULP energy -167099.324661 kJ/mol
# GULP energy per Si atom -5569.977489 kJ/mol
# Density = 2.023214 g / cm^3
# Si number density = 20.278293 Si / 1000 Ang^3
#
#
#
# Elastic Constant Matrix: (Units=GPa)
#
#
# Indices 1 2 3 4 5 6 
#
# 1 128.6862 18.4476 43.1233 0.0000 31.1266 0.0000
# 2 18.4476 33.3290 -3.0565 0.0000 7.2369 0.0000
# 3 43.1233 -3.0565 74.0451 0.0000 34.6970 0.0000
# 4 0.0000 0.0000 0.0000 29.6770 0.0000 19.4952
# 5 31.1266 7.2369 34.6970 0.0000 39.9331 0.0000
# 6 0.0000 0.0000 0.0000 19.4952 0.0000 48.9516
#
#
#
# Elastic Compliance Matrix: (Units=1/GPa)
#
#
# Indices 1 2 3 4 5 6 
#
# 1 0.011140 -0.006021 -0.005362 0.000000 -0.002934 0.000000
# 2 -0.006021 0.036556 0.009987 0.000000 -0.010609 0.000000
# 3 -0.005362 0.009987 0.026870 0.000000 -0.020977 0.000000
# 4 0.000000 0.000000 0.000000 0.045635 0.000000 -0.018174
# 5 -0.002934 -0.010609 -0.020977 0.000000 0.047478 0.000000
# 6 0.000000 0.000000 0.000000 -0.018174 0.000000 0.027666
#
#
# Mechanical properties :
#
#
# Convention : Reuss Voigt Hill
#
# Bulk Modulus (GPa) = 13.93251 39.23212 26.58231
# Shear Modulus (GPa) = 22.51615 35.54871 29.03243
#
# Velocity S-wave (km/s) = 3.33582 4.19148 3.78789
# Velocity P-wave (km/s) = 4.66074 6.54320 5.68049
#
# Compressibility (1/GPa) = 0.07177457
#
# Stress axis : x y z
#
# Youngs Moduli (GPa) = 89.76395 27.35526 37.21605
#
# Poissons Ratio (x) = 0.16470 0.19955
# Poissons Ratio (y) = 0.54046 -0.37167
# Poissons Ratio (z) = 0.48131 -0.27320
#
# Static dielectric constant tensor:
#      x y z
#    x 0.863500 0.000000 0.003490 
#    y 0.000000 1.969670 0.000000 
#    z 0.003490 0.000000 1.683510 
# 
# From -- ./inp_files/264662.got.cif
#   From: 2010.05.17/outbox.cif.g08.bks.cpg/sg15_133_cif.got.tgz:264662.got - 2010.06.03 18:47:42.
