data_PCOD9301468
_publ_section_title
;
Structure prediction by ZEFSAII (Michael W. Deem and Ramdas Pophale) SiO2 
 PCOD9301468
Probable space group: C 2/C
;
_chemical_formula_sum "Si O2"
_cell_formula_units_Z 64
_cell_length_a 20.811340
_cell_length_b 23.716428
_cell_length_c 19.075312
_cell_angle_alpha 90.000000
_cell_angle_beta 23.732258
_cell_angle_gamma 90.000000
_cell_volume 3789.197058
_symmetry_space_group_name_H-M "C 2/C"
_symmetry_group_IT_number 15
_symmetry_cell_setting 'monoclinic'
loop_
_space_group_symop_operation_xyz
x,y,z
-x,y,1/2-z
-x,-y,-z
x,-y,1/2+z
1/2+x,1/2+y,z
1/2-x,1/2+y,1/2-z
1/2-x,1/2-y,-z
1/2+x,1/2-y,1/2+z
loop_
_atom_site_type_symbol
_atom_site_label
_atom_site_fract_x
_atom_site_fract_y
_atom_site_fract_z
Si Si1 0.188607 0.817189 0.426935
Si Si2 0.701168 0.471915 0.920952
Si Si3 0.698971 0.096278 0.302858
Si Si4 0.332453 0.509281 0.752537
Si Si5 0.690118 0.139126 0.548850
Si Si6 0.812128 0.493405 0.453344
Si Si7 0.188167 0.807243 0.716832
Si Si8 0.169148 0.425024 0.293080
O O1 0.222284 0.829208 0.475274
O O2 0.266930 0.758175 0.327233
O O3 0.265916 0.868675 0.307200
O O4 0.001026 0.814676 0.600017
O O5 0.759289 0.417936 0.819050
O O6 0.722113 0.471853 0.983035
O O7 0.808098 0.523995 0.784957
O O8 0.518667 0.484322 0.082858
O O9 0.744424 0.157708 0.284865
O O10 0.514559 0.082668 0.502736
O O11 0.798790 0.050922 0.249400
O O12 0.270287 0.555514 0.759494
O O13 0.234275 0.512113 0.922570
O O14 0.500000 0.143789 0.750000
O O15 0.733037 0.072872 0.507420
O O16 0.734685 0.165329 0.429852
O O17 0.000000 0.497999 0.250000
#
# Coordination Sequence:
#
# PCOD9301468 Si02
#       8
#     8   8   8   8   8   8   8   8
#     4  12  24  38  55  76 105 142 184 224 265 313
#     4  11  21  34  54  79 106 138 176 219 267 318
#     4  11  21  36  54  76 105 139 177 220 267 315
#     4  11  21  34  54  79 106 138 176 219 267 318
#     4  11  22  36  53  75 107 144 183 221 262 311
#     4  11  21  34  54  79 109 144 178 216 267 320
#     4  12  24  38  55  76 105 142 184 224 265 313
#     4  11  21  36  54  76 105 139 177 220 267 315
#
# _framework density 16.890121000000001
#
# number of rings (size 3 to 8) (size 9 to 14) (size 15 to 20)
#    0.000    0.750    2.500    9.375    0.000    1.000 
#    0.000    0.000    0.000    0.000    0.000    0.875 
#    0.000    0.000    0.000    0.000    0.000    0.000 
#
# Total GULP energy -179004.990496 kJ/mol
# GULP energy per Si atom -5593.905953 kJ/mol
# Density = 1.685168 g / cm^3
# Si number density = 16.890121 Si / 1000 Ang^3
#
#
#
# Elastic Constant Matrix: (Units=GPa)
#
#
# Indices 1 2 3 4 5 6 
#
# 1 61.1018 22.6353 -10.2909 -0.0007 11.2223 -0.0022
# 2 22.6353 78.1011 4.6693 0.0165 13.5576 -0.0052
# 3 -10.2909 4.6693 51.0110 0.0056 -0.3510 0.0007
# 4 -0.0007 0.0165 0.0056 18.3400 0.0109 0.4875
# 5 11.2223 13.5576 -0.3510 0.0109 36.4514 -0.0050
# 6 -0.0022 -0.0052 0.0007 0.4875 -0.0050 19.8004
#
#
#
# Elastic Compliance Matrix: (Units=1/GPa)
#
#
# Indices 1 2 3 4 5 6 
#
# 1 0.019833 -0.005305 0.004459 0.000007 -0.004090 -0.000001
# 2 -0.005305 0.015192 -0.002489 -0.000011 -0.004041 0.000003
# 3 0.004459 -0.002489 0.020729 -0.000004 -0.000247 -0.000001
# 4 0.000007 -0.000011 -0.000004 0.054561 -0.000015 -0.001343
# 5 -0.004090 -0.004041 -0.000247 -0.000015 0.030194 0.000007
# 6 -0.000001 0.000003 -0.000001 -0.001343 0.000007 0.050537
#
#
# Mechanical properties :
#
#
# Convention : Reuss Voigt Hill
#
# Bulk Modulus (GPa) = 20.37285 24.91570 22.64428
# Shear Modulus (GPa) = 23.35608 26.46506 24.91057
#
# Velocity S-wave (km/s) = 3.72267 3.96270 3.84456
# Velocity P-wave (km/s) = 5.52864 5.97670 5.75703
#
# Compressibility (1/GPa) = 0.04908494
#
# Stress axis : x y z
#
# Youngs Moduli (GPa) = 50.42005 65.82587 48.24116
#
# Poissons Ratio (x) = 0.34918 -0.21509
# Poissons Ratio (y) = 0.26746 0.12005
# Poissons Ratio (z) = -0.22480 0.16381
#
# Static dielectric constant tensor:
#      x y z
#    x 1.575440 -0.000010 -0.005740 
#    y -0.000010 1.549340 0.000020 
#    z -0.005740 0.000020 1.575910 
# 
# From -- ./inp_files/58463.got.cif
#   From: 2010.05.17/outbox.cif.g08.bks.cpg/sg15_30_cif.got.tgz:58463.got - 2010.06.03 18:47:42.
