data_PCOD9301415
_publ_section_title
;
Structure prediction by ZEFSAII (Michael W. Deem and Ramdas Pophale) SiO2 
 PCOD9301415
Probable space group: C 2/C
;
_chemical_formula_sum "Si O2"
_cell_formula_units_Z 40
_cell_length_a 26.545498
_cell_length_b 7.914645
_cell_length_c 14.036748
_cell_angle_alpha 90.000000
_cell_angle_beta 37.212132
_cell_angle_gamma 90.000000
_cell_volume 1783.517817
_symmetry_space_group_name_H-M "C 2/C"
_symmetry_group_IT_number 15
_symmetry_cell_setting 'monoclinic'
loop_
_space_group_symop_operation_xyz
x,y,z
-x,y,1/2-z
-x,-y,-z
x,-y,1/2+z
1/2+x,1/2+y,z
1/2-x,1/2+y,1/2-z
1/2-x,1/2-y,-z
1/2+x,1/2-y,1/2+z
loop_
_atom_site_type_symbol
_atom_site_label
_atom_site_fract_x
_atom_site_fract_y
_atom_site_fract_z
Si Si1 0.503930 0.390552 0.358407
Si Si2 0.338741 0.803200 0.903047
Si Si3 0.881821 0.406790 0.054737
Si Si4 0.487757 0.751612 0.382625
Si Si5 0.670092 0.165316 0.671365
O O1 0.500000 0.397711 0.250000
O O2 0.600042 0.343358 0.226508
O O3 0.456657 0.223424 0.461294
O O4 0.459874 0.563558 0.456607
O O5 0.353370 0.981797 0.832606
O O6 0.250000 0.750000 0.000000
O O7 0.349064 0.850200 0.999811
O O8 0.816206 0.364803 0.236622
O O9 0.924237 0.593464 0.999062
O O10 0.500000 0.761604 0.250000
O O11 0.582136 0.746105 0.281233
O O12 0.750000 0.250000 0.500000
#
# Coordination Sequence:
#
# PCOD9301415 Si02
#       5
#     8   8   8   8   8
#     4   9  20  39  71 103 130 179 242 283 349 431
#     4  11  23  45  68 102 148 185 237 307 365 431
#     4  11  23  46  70  98 140 190 235 296 358 432
#     4  11  20  43  75  99 136 188 240 290 351 440
#     4  12  26  43  66 104 144 183 239 298 364 424
#
# _framework density 22.427586999999999
#
# number of rings (size 3 to 8) (size 9 to 14) (size 15 to 20)
#    0.000    1.200    4.000    2.400    0.000    2.400 
#    3.600    0.000    0.000    0.000    0.000    0.000 
#    0.000    0.000    0.000    0.000    0.000    0.000 
#
# Total GULP energy -111431.307616 kJ/mol
# GULP energy per Si atom -5571.565381 kJ/mol
# Density = 2.237654 g / cm^3
# Si number density = 22.427587 Si / 1000 Ang^3
#
#
#
# Elastic Constant Matrix: (Units=GPa)
#
#
# Indices 1 2 3 4 5 6 
#
# 1 101.0333 19.9918 44.7326 0.0001 -0.9433 0.0000
# 2 19.9918 150.5851 41.2489 0.0009 4.3597 -0.0003
# 3 44.7326 41.2489 86.5175 0.0005 16.6041 -0.0002
# 4 0.0001 0.0009 0.0005 12.3011 -0.0002 2.5422
# 5 -0.9433 4.3597 16.6041 -0.0002 38.9556 0.0001
# 6 0.0000 -0.0003 -0.0002 2.5422 0.0001 17.7261
#
#
#
# Elastic Compliance Matrix: (Units=1/GPa)
#
#
# Indices 1 2 3 4 5 6 
#
# 1 0.013275 0.000232 -0.007658 0.000000 0.003559 0.000000
# 2 0.000232 0.007663 -0.003932 0.000000 0.000824 0.000000
# 3 -0.007658 -0.003932 0.018888 -0.000001 -0.007796 0.000000
# 4 0.000000 0.000000 -0.000001 0.083776 0.000001 -0.012015
# 5 0.003559 0.000824 -0.007796 0.000001 0.028987 0.000000
# 6 0.000000 0.000000 0.000000 -0.012015 0.000000 0.058137
#
#
# Mechanical properties :
#
#
# Convention : Reuss Voigt Hill
#
# Bulk Modulus (GPa) = 58.43677 61.12031 59.77854
# Shear Modulus (GPa) = 20.90773 29.27407 25.09090
#
# Velocity S-wave (km/s) = 3.05656 3.61677 3.34840
# Velocity P-wave (km/s) = 6.21040 6.68976 6.45453
#
# Compressibility (1/GPa) = 0.01711251
#
# Stress axis : x y z
#
# Youngs Moduli (GPa) = 75.32690 130.49615 52.94275
#
# Poissons Ratio (x) = -0.03029 0.40542
# Poissons Ratio (y) = -0.01748 0.20815
# Poissons Ratio (z) = 0.57683 0.51306
#
# Static dielectric constant tensor:
#      x y z
#    x 1.850870 0.000000 0.115460 
#    y 0.000000 1.759330 0.000000 
#    z 0.115460 0.000000 1.864010 
# 
# From -- ./inp_files/181001.got.cif
#   From: 2010.05.17/outbox.cif.g08.bks.cpg/sg15_91_cif.got.tgz:181001.got - 2010.06.03 18:47:42.
