data_PCOD9301713
_publ_section_title
;
Structure prediction by ZEFSAII (Michael W. Deem and Ramdas Pophale) SiO2 
 PCOD9301713
Probable space group: C 2/C
;
_chemical_formula_sum "Si O2"
_cell_formula_units_Z 48
_cell_length_a 12.169395
_cell_length_b 11.900840
_cell_length_c 17.417482
_cell_angle_alpha 90.000000
_cell_angle_beta 66.062854
_cell_angle_gamma 90.000000
_cell_volume 2305.546800
_symmetry_space_group_name_H-M "C 2/C"
_symmetry_group_IT_number 15
_symmetry_cell_setting 'monoclinic'
loop_
_space_group_symop_operation_xyz
x,y,z
-x,y,1/2-z
-x,-y,-z
x,-y,1/2+z
1/2+x,1/2+y,z
1/2-x,1/2+y,1/2-z
1/2-x,1/2-y,-z
1/2+x,1/2-y,1/2+z
loop_
_atom_site_type_symbol
_atom_site_label
_atom_site_fract_x
_atom_site_fract_y
_atom_site_fract_z
Si Si1 0.725042 0.312045 0.381379
Si Si2 0.371676 0.883561 0.476962
Si Si3 0.023985 0.909476 0.059568
Si Si4 0.870113 0.135927 0.247976
Si Si5 0.230516 0.045972 0.617927
Si Si6 0.115056 0.252811 0.410117
O O1 0.680580 0.215294 0.453419
O O2 0.800887 0.391603 0.416520
O O3 0.607603 0.367535 0.378088
O O4 0.808514 0.249160 0.297646
O O5 0.505474 0.839090 0.423060
O O6 0.338365 0.993461 0.535367
O O7 0.110079 0.956994 0.100618
O O8 0.089924 0.805090 0.998806
O O9 0.000000 0.000000 0.000000
O O10 0.882516 0.155280 0.154268
O O11 0.000000 0.127326 0.250000
O O12 0.792236 0.031771 0.301590
O O13 0.265721 0.172967 0.625602
#
# Coordination Sequence:
#
# PCOD9301713 Si02
#       6
#     8   8   8   8   8   8
#     4   9  18  34  60  88 115 154 206 251 292 356
#     4   9  17  36  61  85 116 157 206 251 294 360
#     4  11  21  38  64  90 119 163 209 249 300 373
#     4  11  22  39  61  87 121 162 208 253 309 366
#     4  11  23  39  61  92 124 163 202 255 317 368
#     4  11  23  38  61  93 125 157 205 262 307 363
#
# _framework density 20.819355999999999
#
# number of rings (size 3 to 8) (size 9 to 14) (size 15 to 20)
#    0.000    1.667    3.333    2.000    0.000    2.667 
#    0.000    0.000    0.000    0.000    0.000    0.000 
#    0.000    0.000    0.000    0.000    0.000    0.000 
#
# Total GULP energy -134020.115880 kJ/mol
# GULP energy per Si atom -5584.171495 kJ/mol
# Density = 2.077197 g / cm^3
# Si number density = 20.819356 Si / 1000 Ang^3
#
#
#
# Elastic Constant Matrix: (Units=GPa)
#
#
# Indices 1 2 3 4 5 6 
#
# 1 51.1788 15.5970 24.6943 0.0000 1.4423 0.0000
# 2 15.5970 67.9937 17.7234 0.0000 1.0861 0.0000
# 3 24.6943 17.7234 76.0654 0.0000 -2.3350 0.0000
# 4 0.0000 0.0000 0.0000 36.4336 0.0000 -5.2591
# 5 1.4423 1.0861 -2.3350 0.0000 25.6870 0.0000
# 6 0.0000 0.0000 0.0000 -5.2591 0.0000 34.2339
#
#
#
# Elastic Compliance Matrix: (Units=1/GPa)
#
#
# Indices 1 2 3 4 5 6 
#
# 1 0.024099 -0.003667 -0.007025 0.000000 -0.001837 0.000000
# 2 -0.003667 0.016242 -0.002616 0.000000 -0.000719 0.000000
# 3 -0.007025 -0.002616 0.016097 0.000000 0.001968 0.000000
# 4 0.000000 0.000000 0.000000 0.028070 0.000000 0.004312
# 5 -0.001837 -0.000719 0.001968 0.000000 0.039243 0.000000
# 6 0.000000 0.000000 0.000000 0.004312 0.000000 0.029873
#
#
# Mechanical properties :
#
#
# Convention : Reuss Voigt Hill
#
# Bulk Modulus (GPa) = 33.53397 34.58525 34.05961
# Shear Modulus (GPa) = 26.29081 28.41911 27.35496
#
# Velocity S-wave (km/s) = 3.55745 3.69864 3.62874
# Velocity P-wave (km/s) = 5.74596 5.90661 5.82684
#
# Compressibility (1/GPa) = 0.02982050
#
# Stress axis : x y z
#
# Youngs Moduli (GPa) = 41.49622 61.56943 62.12238
#
# Poissons Ratio (x) = 0.22580 0.43643
# Poissons Ratio (y) = 0.15218 0.16250
# Poissons Ratio (z) = 0.29153 0.16106
#
# Static dielectric constant tensor:
#      x y z
#    x 1.745140 0.000000 -0.022870 
#    y 0.000000 1.757150 0.000000 
#    z -0.022870 0.000000 1.748730 
# 
# From -- ./inp_files/196005.got.cif
#   From: 2010.05.17/outbox.cif.g08.bks.cpg/sg15_99_cif.got.tgz:196005.got - 2010.06.03 18:47:42.
