data_PCOD9301972
_publ_section_title
;
Structure prediction by ZEFSAII (Michael W. Deem and Ramdas Pophale) SiO2 
 PCOD9301972
Probable space group: C 2/C
;
_chemical_formula_sum "Si O2"
_cell_formula_units_Z 40
_cell_length_a 9.304084
_cell_length_b 17.687405
_cell_length_c 10.970689
_cell_angle_alpha 90.000000
_cell_angle_beta 82.965730
_cell_angle_gamma 90.000000
_cell_volume 1791.803509
_symmetry_space_group_name_H-M "C 2/C"
_symmetry_group_IT_number 15
_symmetry_cell_setting 'monoclinic'
loop_
_space_group_symop_operation_xyz
x,y,z
-x,y,1/2-z
-x,-y,-z
x,-y,1/2+z
1/2+x,1/2+y,z
1/2-x,1/2+y,1/2-z
1/2-x,1/2-y,-z
1/2+x,1/2-y,1/2+z
loop_
_atom_site_type_symbol
_atom_site_label
_atom_site_fract_x
_atom_site_fract_y
_atom_site_fract_z
Si Si1 0.955256 0.456823 0.882831
Si Si2 0.140291 0.303808 0.865827
Si Si3 0.408881 0.599747 0.382904
Si Si4 0.662419 0.436839 0.042050
Si Si5 0.856004 0.222717 0.886207
O O1 0.000000 0.495271 0.750000
O O2 0.043495 0.379071 0.871887
O O3 0.786242 0.440941 0.924965
O O4 0.000000 0.500000 0.000000
O O5 0.287743 0.334709 0.911333
O O6 0.177756 0.271840 0.729072
O O7 0.019344 0.241501 0.914732
O O8 0.500000 0.613918 0.250000
O O9 0.336700 0.515759 0.385516
O O10 0.516704 0.584741 0.484259
O O11 0.676775 0.365547 0.130463
O O12 0.750000 0.250000 0.000000
#
# Coordination Sequence:
#
# PCOD9301972 Si02
#       5
#     8   8   8   8   8
#     4  12  22  43  74 106 142 192 250 305 367 445
#     4  11  23  41  71  98 139 192 242 297 376 450
#     4  11  24  43  66 101 144 188 241 307 370 446
#     4  11  25  41  69 102 144 188 245 305 373 441
#     4  11  21  40  70  99 135 187 240 301 372 440
#
# _framework density 22.323878000000001
#
# number of rings (size 3 to 8) (size 9 to 14) (size 15 to 20)
#    0.000    0.800    6.000    2.400    2.800    0.800 
#    0.000    0.000    4.400    0.000    0.000    0.000 
#    0.000    0.000    0.000    0.000    0.000    0.000 
#
# Total GULP energy -111539.407644 kJ/mol
# GULP energy per Si atom -5576.970382 kJ/mol
# Density = 2.227307 g / cm^3
# Si number density = 22.323878 Si / 1000 Ang^3
#
#
#
# Elastic Constant Matrix: (Units=GPa)
#
#
# Indices 1 2 3 4 5 6 
#
# 1 125.2523 24.8830 36.7578 0.0000 -11.8070 0.0000
# 2 24.8830 98.0406 38.0985 0.0000 0.1545 0.0000
# 3 36.7578 38.0985 83.7384 0.0000 -19.1847 0.0000
# 4 0.0000 0.0000 0.0000 40.5558 0.0000 5.2466
# 5 -11.8070 0.1545 -19.1847 0.0000 40.8738 0.0000
# 6 0.0000 0.0000 0.0000 5.2466 0.0000 27.7153
#
#
#
# Elastic Compliance Matrix: (Units=1/GPa)
#
#
# Indices 1 2 3 4 5 6 
#
# 1 0.009279 -0.001061 -0.003334 0.000000 0.001120 0.000000
# 2 -0.001061 0.012853 -0.006122 0.000000 -0.003228 0.000000
# 3 -0.003334 -0.006122 0.017900 0.000000 0.007462 0.000000
# 4 0.000000 0.000000 0.000000 0.025276 0.000000 -0.004785
# 5 0.001120 -0.003228 0.007462 0.000000 0.028303 0.000000
# 6 0.000000 0.000000 0.000000 -0.004785 0.000000 0.036987
#
#
# Mechanical properties :
#
#
# Convention : Reuss Voigt Hill
#
# Bulk Modulus (GPa) = 52.63498 56.27889 54.45693
# Shear Modulus (GPa) = 31.65274 35.64844 33.65059
#
# Velocity S-wave (km/s) = 3.76957 4.00043 3.88671
# Velocity P-wave (km/s) = 6.52497 6.82662 6.67750
#
# Compressibility (1/GPa) = 0.01899877
#
# Stress axis : x y z
#
# Youngs Moduli (GPa) = 107.77528 77.80197 55.86620
#
# Poissons Ratio (x) = 0.08257 0.18623
# Poissons Ratio (y) = 0.11438 0.34199
# Poissons Ratio (z) = 0.35928 0.47627
#
# Static dielectric constant tensor:
#      x y z
#    x 1.913600 0.000000 0.023090 
#    y 0.000000 1.867590 0.000000 
#    z 0.023090 0.000000 1.817300 
# 
# From -- ./inp_files/76647.got.cif
#   From: 2010.05.17/outbox.cif.g08.bks.cpg/sg15_39_cif.got.tgz:76647.got - 2010.06.03 18:47:42.
