data_PCOD9301704
_publ_section_title
;
Structure prediction by ZEFSAII (Michael W. Deem and Ramdas Pophale) SiO2 
 PCOD9301704
Probable space group: C 2/C
;
_chemical_formula_sum "Si O2"
_cell_formula_units_Z 32
_cell_length_a 13.102616
_cell_length_b 6.439319
_cell_length_c 15.602155
_cell_angle_alpha 90.000000
_cell_angle_beta 77.854068
_cell_angle_gamma 90.000000
_cell_volume 1286.916427
_symmetry_space_group_name_H-M "C 2/C"
_symmetry_group_IT_number 15
_symmetry_cell_setting 'monoclinic'
loop_
_space_group_symop_operation_xyz
x,y,z
-x,y,1/2-z
-x,-y,-z
x,-y,1/2+z
1/2+x,1/2+y,z
1/2-x,1/2+y,1/2-z
1/2-x,1/2-y,-z
1/2+x,1/2-y,1/2+z
loop_
_atom_site_type_symbol
_atom_site_label
_atom_site_fract_x
_atom_site_fract_y
_atom_site_fract_z
Si Si1 0.714457 0.186681 0.628207
Si Si2 0.686241 0.937428 0.325293
Si Si3 0.023248 0.410788 0.590146
Si Si4 0.345975 0.623088 0.023304
O O1 0.726431 0.116973 0.724954
O O2 0.611911 0.062346 0.614428
O O3 0.808881 0.106802 0.551181
O O4 0.727894 0.433484 0.635882
O O5 0.581995 0.078056 0.337180
O O6 0.646634 0.737633 0.385402
O O7 0.061683 0.179194 0.558042
O O8 0.000000 0.500000 0.500000
O O9 0.250000 0.750000 0.000000
#
# Coordination Sequence:
#
# PCOD9301704 Si02
#       4
#     8   8   8   8
#     4  11  21  38  64  87 123 161 205 251 314 368
#     4  11  21  38  63  88 121 165 199 256 314 360
#     4   9  21  38  60  87 120 157 203 253 303 366
#     4   9  20  38  59  89 119 154 204 250 301 373
#
# _framework density 24.865638000000001
#
# number of rings (size 3 to 8) (size 9 to 14) (size 15 to 20)
#    0.000    2.000    2.500    0.750    0.000   10.000 
#    0.000    7.500    0.000    0.000    0.000    0.000 
#    0.000    0.000    0.000    0.000    0.000    0.000 
#
# Total GULP energy -89324.402618 kJ/mol
# GULP energy per Si atom -5582.775164 kJ/mol
# Density = 2.480904 g / cm^3
# Si number density = 24.865638 Si / 1000 Ang^3
#
#
#
# Elastic Constant Matrix: (Units=GPa)
#
#
# Indices 1 2 3 4 5 6 
#
# 1 75.7315 14.1130 21.4577 0.0000 -7.9045 0.0000
# 2 14.1130 83.0379 39.4148 0.0000 3.2526 0.0000
# 3 21.4577 39.4148 74.5443 0.0000 -0.2410 0.0000
# 4 0.0000 0.0000 0.0000 44.4750 0.0000 2.0442
# 5 -7.9045 3.2526 -0.2410 0.0000 44.7451 0.0000
# 6 0.0000 0.0000 0.0000 2.0442 0.0000 34.3320
#
#
#
# Elastic Compliance Matrix: (Units=1/GPa)
#
#
# Indices 1 2 3 4 5 6 
#
# 1 0.014706 -0.000798 -0.003803 0.000000 0.002635 0.000000
# 2 -0.000798 0.016187 -0.008334 0.000000 -0.001362 0.000000
# 3 -0.003803 -0.008334 0.018916 0.000000 0.000036 0.000000
# 4 0.000000 0.000000 0.000000 0.022546 0.000000 -0.001342
# 5 0.002635 -0.001362 0.000036 0.000000 0.022914 0.000000
# 6 0.000000 0.000000 0.000000 -0.001342 0.000000 0.029207
#
#
# Mechanical properties :
#
#
# Convention : Reuss Voigt Hill
#
# Bulk Modulus (GPa) = 41.76973 42.58718 42.17846
# Shear Modulus (GPa) = 31.58065 35.26562 33.42313
#
# Velocity S-wave (km/s) = 3.56764 3.77005 3.67024
# Velocity P-wave (km/s) = 5.81424 6.00959 5.91272
#
# Compressibility (1/GPa) = 0.02394078
#
# Stress axis : x y z
#
# Youngs Moduli (GPa) = 68.00068 61.77676 52.86518
#
# Poissons Ratio (x) = 0.04927 0.20104
# Poissons Ratio (y) = 0.05423 0.44057
# Poissons Ratio (z) = 0.25860 0.51483
#
# Static dielectric constant tensor:
#      x y z
#    x 2.065210 0.000000 0.037610 
#    y 0.000000 2.172660 0.000000 
#    z 0.037610 0.000000 1.919820 
# 
# From -- ./inp_files/149840.got.cif
#   From: 2010.05.17/outbox.cif.g08.bks.cpg/sg15_75_cif.got.tgz:149840.got - 2010.06.03 18:47:42.
