data_PCOD9301633
_publ_section_title
;
Structure prediction by ZEFSAII (Michael W. Deem and Ramdas Pophale) SiO2 
 PCOD9301633
Probable space group: C 2/C
;
_chemical_formula_sum "Si O2"
_cell_formula_units_Z 64
_cell_length_a 9.205766
_cell_length_b 18.758631
_cell_length_c 19.265592
_cell_angle_alpha 90.000000
_cell_angle_beta 80.667870
_cell_angle_gamma 90.000000
_cell_volume 3282.896117
_symmetry_space_group_name_H-M "C 2/C"
_symmetry_group_IT_number 15
_symmetry_cell_setting 'monoclinic'
loop_
_space_group_symop_operation_xyz
x,y,z
-x,y,1/2-z
-x,-y,-z
x,-y,1/2+z
1/2+x,1/2+y,z
1/2-x,1/2+y,1/2-z
1/2-x,1/2-y,-z
1/2+x,1/2-y,1/2+z
loop_
_atom_site_type_symbol
_atom_site_label
_atom_site_fract_x
_atom_site_fract_y
_atom_site_fract_z
Si Si1 0.452362 0.306590 0.403913
Si Si2 0.642552 0.871424 0.938790
Si Si3 0.024699 0.654084 0.167720
Si Si4 0.235692 0.476079 0.448513
Si Si5 0.607006 0.166244 0.942432
Si Si6 0.318577 0.426794 0.597648
Si Si7 0.449510 0.304890 0.945189
Si Si8 0.989920 0.041004 0.667227
O O1 0.476025 0.236180 0.357145
O O2 0.276299 0.309270 0.433554
O O3 0.529494 0.307139 0.472986
O O4 0.506022 0.376153 0.357424
O O5 0.612975 0.881764 0.860498
O O6 0.780194 0.820655 0.941808
O O7 0.666077 0.948197 0.970189
O O8 0.489345 0.841539 0.980585
O O9 0.172432 0.612758 0.134848
O O10 0.000000 0.650991 0.250000
O O11 0.129797 0.416835 0.421396
O O12 0.296745 0.447088 0.517759
O O13 0.366121 0.488461 0.383943
O O14 0.514980 0.229339 0.912645
O O15 0.450669 0.369380 0.590837
O O16 0.359478 0.495147 0.641648
O O17 0.000000 0.034985 0.750000
#
# Coordination Sequence:
#
# PCOD9301633 Si02
#       8
#     8   8   8   8   8   8   8   8
#     4  11  21  43  67  90 126 166 218 253 323 389
#     4  12  24  38  61 100 130 156 213 272 324 371
#     4  12  27  43  64  91 130 177 213 260 326 396
#     4  11  22  40  63  95 129 165 213 263 324 377
#     4  11  21  37  64  96 123 161 200 268 319 377
#     4  12  22  43  67  90 125 171 217 263 319 388
#     4  12  20  38  68  97 121 158 216 272 315 371
#     4  11  24  39  65  95 125 168 217 269 317 387
#
# _framework density 19.494983000000001
#
# number of rings (size 3 to 8) (size 9 to 14) (size 15 to 20)
#    0.000    0.500    7.500    2.625    1.750    0.000 
#    0.000    0.000    0.000    0.000    3.250    0.000 
#    0.000    0.000    0.000    0.000    0.000    0.000 
#
# Total GULP energy -178435.874302 kJ/mol
# GULP energy per Si atom -5576.121072 kJ/mol
# Density = 1.945061 g / cm^3
# Si number density = 19.494983 Si / 1000 Ang^3
#
#
#
# Elastic Constant Matrix: (Units=GPa)
#
#
# Indices 1 2 3 4 5 6 
#
# 1 99.9916 33.3233 48.2597 0.0000 2.5762 0.0000
# 2 33.3233 108.9192 12.7715 0.0000 1.8853 0.0000
# 3 48.2597 12.7715 91.7896 0.0000 -6.6288 0.0000
# 4 0.0000 0.0000 0.0000 15.9973 0.0000 -1.6434
# 5 2.5762 1.8853 -6.6288 0.0000 14.5603 0.0000
# 6 0.0000 0.0000 0.0000 -1.6434 0.0000 29.6215
#
#
#
# Elastic Compliance Matrix: (Units=1/GPa)
#
#
# Indices 1 2 3 4 5 6 
#
# 1 0.015162 -0.003613 -0.007888 0.000000 -0.005806 0.000000
# 2 -0.003613 0.010243 0.000439 0.000000 -0.000487 0.000000
# 3 -0.007888 0.000439 0.015590 0.000000 0.008436 0.000000
# 4 0.000000 0.000000 0.000000 0.062869 0.000000 0.003488
# 5 -0.005806 -0.000487 0.008436 0.000000 0.073611 0.000000
# 6 0.000000 0.000000 0.000000 0.003488 0.000000 0.033953
#
#
# Mechanical properties :
#
#
# Convention : Reuss Voigt Hill
#
# Bulk Modulus (GPa) = 52.99121 54.37882 53.68501
# Shear Modulus (GPa) = 20.84709 25.79222 23.31965
#
# Velocity S-wave (km/s) = 3.27365 3.64128 3.46235
# Velocity P-wave (km/s) = 6.44438 6.75521 6.60162
#
# Compressibility (1/GPa) = 0.01887106
#
# Stress axis : x y z
#
# Youngs Moduli (GPa) = 65.95609 97.62301 64.14441
#
# Poissons Ratio (x) = 0.35273 0.50597
# Poissons Ratio (y) = 0.23831 -0.02818
# Poissons Ratio (z) = 0.52026 -0.04288
#
# Static dielectric constant tensor:
#      x y z
#    x 1.695940 0.000000 -0.000210 
#    y 0.000000 1.759180 0.000000 
#    z -0.000210 0.000000 1.659010 
# 
# From -- ./inp_files/192182.got.cif
#   From: 2010.05.17/outbox.cif.g08.bks.cpg/sg15_97_cif.got.tgz:192182.got - 2010.06.03 18:47:42.
