data_PCOD9301749
_publ_section_title
;
Structure prediction by ZEFSAII (Michael W. Deem and Ramdas Pophale) SiO2 
 PCOD9301749
Probable space group: C 2/C
;
_chemical_formula_sum "Si O2"
_cell_formula_units_Z 64
_cell_length_a 14.741733
_cell_length_b 18.436369
_cell_length_c 23.845293
_cell_angle_alpha 90.000000
_cell_angle_beta 151.965102
_cell_angle_gamma 90.000000
_cell_volume 3046.021861
_symmetry_space_group_name_H-M "C 2/C"
_symmetry_group_IT_number 15
_symmetry_cell_setting 'monoclinic'
loop_
_space_group_symop_operation_xyz
x,y,z
-x,y,1/2-z
-x,-y,-z
x,-y,1/2+z
1/2+x,1/2+y,z
1/2-x,1/2+y,1/2-z
1/2-x,1/2-y,-z
1/2+x,1/2-y,1/2+z
loop_
_atom_site_type_symbol
_atom_site_label
_atom_site_fract_x
_atom_site_fract_y
_atom_site_fract_z
Si Si1 0.137093 0.849383 0.115241
Si Si2 0.637156 0.334722 0.694075
Si Si3 0.226947 0.091114 0.546266
Si Si4 0.642089 0.357642 0.379084
Si Si5 0.449848 0.180943 0.453350
Si Si6 0.492898 0.823628 0.383125
Si Si7 0.501842 0.795275 0.684443
Si Si8 0.710192 0.427896 0.520946
O O1 0.067288 0.767428 0.065942
O O2 0.282189 0.849714 0.247048
O O3 0.954391 0.899837 0.027214
O O4 0.243858 0.875583 0.117403
O O5 0.495554 0.396686 0.594725
O O6 0.763635 0.350454 0.818616
O O7 0.509055 0.262198 0.632252
O O8 0.793350 0.311033 0.732077
O O9 0.356670 0.133437 0.572610
O O10 0.279048 0.006766 0.575046
O O11 0.500000 0.367801 0.250000
O O12 0.577723 0.283739 0.377032
O O13 0.628467 0.425058 0.413348
O O14 0.855637 0.345263 0.470962
O O15 0.466326 0.166784 0.528619
O O16 0.500000 0.787237 0.750000
O O17 0.372749 0.866086 0.605038
#
# Coordination Sequence:
#
# PCOD9301749 Si02
#       8
#     8   8   8   8   8   8   8   8
#     4  11  23  43  70  99 131 168 225 280 329 390
#     4  11  23  41  66  97 133 171 230 279 318 394
#     4  12  27  44  62  97 139 184 218 264 335 403
#     4  11  21  40  69 101 130 162 223 277 333 389
#     4  11  21  41  72 100 125 166 228 284 324 378
#     4  11  24  44  69  95 129 180 228 278 323 380
#     4  11  21  38  69 101 130 167 219 283 336 383
#     4  12  24  42  66 100 139 170 212 269 344 411
#
# _framework density 21.011012000000001
#
# number of rings (size 3 to 8) (size 9 to 14) (size 15 to 20)
#    0.000    0.750    3.750    6.000    0.000    2.500 
#    2.250    0.625    0.000    0.000    0.000    0.000 
#    0.000    0.000    0.000    0.000    0.000    0.000 
#
# Total GULP energy -178950.430347 kJ/mol
# GULP energy per Si atom -5592.200948 kJ/mol
# Density = 2.096319 g / cm^3
# Si number density = 21.011012 Si / 1000 Ang^3
#
#
#
# Elastic Constant Matrix: (Units=GPa)
#
#
# Indices 1 2 3 4 5 6 
#
# 1 119.4110 11.0204 23.0445 0.0000 -10.6756 0.0001
# 2 11.0204 30.1311 -2.7018 0.0004 -0.6344 0.0001
# 3 23.0445 -2.7018 76.9823 0.0014 -17.1290 -0.0007
# 4 0.0000 0.0004 0.0014 13.9384 0.0007 5.6863
# 5 -10.6756 -0.6344 -17.1290 0.0007 39.9033 -0.0002
# 6 0.0001 0.0001 -0.0007 5.6863 -0.0002 7.6353
#
#
#
# Elastic Compliance Matrix: (Units=1/GPa)
#
#
# Indices 1 2 3 4 5 6 
#
# 1 0.009333 -0.003622 -0.002629 0.000001 0.001311 -0.000001
# 2 -0.003622 0.034745 0.002444 -0.000002 0.000633 0.000001
# 3 -0.002629 0.002444 0.015163 -0.000004 0.005844 0.000004
# 4 0.000001 -0.000002 -0.000004 0.103054 -0.000004 -0.076748
# 5 0.001311 0.000633 0.005844 -0.000004 0.027930 0.000004
# 6 -0.000001 0.000001 0.000004 -0.076748 0.000004 0.188128
#
#
# Mechanical properties :
#
#
# Convention : Reuss Voigt Hill
#
# Bulk Modulus (GPa) = 19.36914 32.13896 25.75405
# Shear Modulus (GPa) = 12.40151 25.30616 18.85383
#
# Velocity S-wave (km/s) = 2.43212 3.47425 2.99880
# Velocity P-wave (km/s) = 4.13830 5.60565 4.92691
#
# Compressibility (1/GPa) = 0.05162851
#
# Stress axis : x y z
#
# Youngs Moduli (GPa) = 107.14320 28.78075 65.94861
#
# Poissons Ratio (x) = 0.10424 0.17340
# Poissons Ratio (y) = 0.38805 -0.16121
# Poissons Ratio (z) = 0.28172 -0.07035
#
# Static dielectric constant tensor:
#      x y z
#    x 1.795430 0.000000 -0.067610 
#    y 0.000000 1.713180 0.000000 
#    z -0.067610 0.000000 1.881150 
# 
# From -- ./inp_files/274841.got.cif
#   From: 2010.05.17/outbox.cif.g08.bks.cpg/sg15_138_cif.got.tgz:274841.got - 2010.06.03 18:47:42.
