data_PCOD9301423
_publ_section_title
;
Structure prediction by ZEFSAII (Michael W. Deem and Ramdas Pophale) SiO2 
 PCOD9301423
Probable space group: C 2/C
;
_chemical_formula_sum "Si O2"
_cell_formula_units_Z 60
_cell_length_a 15.141310
_cell_length_b 16.774341
_cell_length_c 12.002012
_cell_angle_alpha 90.000000
_cell_angle_beta 67.755725
_cell_angle_gamma 90.000000
_cell_volume 2821.474667
_symmetry_space_group_name_H-M "C 2/C"
_symmetry_group_IT_number 15
_symmetry_cell_setting 'monoclinic'
loop_
_space_group_symop_operation_xyz
x,y,z
-x,y,1/2-z
-x,-y,-z
x,-y,1/2+z
1/2+x,1/2+y,z
1/2-x,1/2+y,1/2-z
1/2-x,1/2-y,-z
1/2+x,1/2-y,1/2+z
loop_
_atom_site_type_symbol
_atom_site_label
_atom_site_fract_x
_atom_site_fract_y
_atom_site_fract_z
Si Si1 0.803469 0.627707 0.282778
Si Si2 0.974321 0.201056 0.955657
Si Si3 0.244440 0.428791 0.926996
Si Si4 0.417529 0.688364 0.379714
Si Si5 0.818238 0.094899 0.952069
Si Si6 0.608110 0.129944 0.675910
Si Si7 0.201610 0.292066 0.343178
Si Si8 0.000000 0.678039 0.250000
O O1 0.808476 0.581423 0.164973
O O2 0.724391 0.592129 0.402931
O O3 0.770019 0.719008 0.275320
O O4 0.903313 0.628394 0.299924
O O5 0.012156 0.265219 0.850738
O O6 0.923851 0.129717 0.913336
O O7 0.891370 0.248146 0.062754
O O8 0.047831 0.170631 0.012106
O O9 0.320484 0.357268 0.900768
O O10 0.303953 0.509934 0.903920
O O11 0.169612 0.423817 0.063802
O O12 0.500000 0.667554 0.250000
O O13 0.403439 0.783300 0.376870
O O14 0.756307 0.158878 0.912000
O O15 0.500000 0.100937 0.750000
O O16 0.665943 0.150930 0.761105
#
# Coordination Sequence:
#
# PCOD9301423 Si02
#       8
#     8   8   8   8   8   8   8   4
#     4  11  23  43  67  93 127 174 226 268 314 391
#     4  11  21  40  68  96 126 167 221 274 319 384
#     4  12  27  42  66 101 137 175 213 265 339 399
#     4  11  21  42  70  99 129 166 221 274 325 381
#     4  11  25  45  61  95 138 176 207 263 343 390
#     4  11  23  42  67  99 126 172 226 276 313 380
#     4  11  20  44  70  87 127 174 221 267 319 382
#     4  12  22  38  70 102 116 168 236 276 302 384
#
# _framework density 21.265474999999999
#
# number of rings (size 3 to 8) (size 9 to 14) (size 15 to 20)
#    0.000    0.800    6.667    2.800    3.733    0.533 
#    2.400    1.333    0.000    0.000    0.000    0.000 
#    0.000    0.000    0.000    0.000    0.000    0.000 
#
# Total GULP energy -167804.592660 kJ/mol
# GULP energy per Si atom -5593.486422 kJ/mol
# Density = 2.121707 g / cm^3
# Si number density = 21.265475 Si / 1000 Ang^3
#
#
#
# Elastic Constant Matrix: (Units=GPa)
#
#
# Indices 1 2 3 4 5 6 
#
# 1 68.2418 -6.5376 5.5467 0.0000 11.8751 0.0000
# 2 -6.5376 37.7291 1.3812 0.0000 5.7123 0.0000
# 3 5.5467 1.3812 58.8812 0.0000 17.6216 0.0000
# 4 0.0000 0.0000 0.0000 11.9478 0.0000 0.9148
# 5 11.8751 5.7123 17.6216 0.0000 35.1933 0.0000
# 6 0.0000 0.0000 0.0000 0.9148 0.0000 -0.1075
#
#
#
# Elastic Compliance Matrix: (Units=1/GPa)
#
#
# Indices 1 2 3 4 5 6 
#
# 1 0.016057 0.003703 0.000237 0.000000 -0.006138 0.000000
# 2 0.003703 0.028059 0.000859 0.000000 -0.006234 0.000000
# 3 0.000237 0.000859 0.020004 0.000000 -0.010236 0.000000
# 4 0.000000 0.000000 0.000000 0.050679 0.000000 0.431218
# 5 -0.006138 -0.006234 -0.010236 0.000000 0.036623 0.000000
# 6 0.000000 0.000000 0.000000 0.431218 0.000000 -5.631793
#
#
# Mechanical properties :
#
#
# Convention : Reuss Voigt Hill
#
# Bulk Modulus (GPa) = 13.56515 18.40363 15.98439
# Shear Modulus (GPa) = -0.91485 20.37083 9.72799
#
# Velocity S-wave (km/s) = -0.65661 3.09840 2.14114
# Velocity P-wave (km/s) = 2.41204 4.63391 3.69399
#
# Compressibility (1/GPa) = 0.07371831
#
# Stress axis : x y z
#
# Youngs Moduli (GPa) = 62.27685 35.63946 49.98968
#
# Poissons Ratio (x) = -0.13197 -0.01187
# Poissons Ratio (y) = -0.23061 -0.04292
# Poissons Ratio (z) = -0.01479 -0.03060
#
# Static dielectric constant tensor:
#      x y z
#    x 1.756670 0.000000 0.003390 
#    y 0.000000 1.744260 0.000000 
#    z 0.003390 0.000000 1.786030 
# 
# From -- ./inp_files/98735.got.cif
#   From: 2010.05.17/outbox.cif.g08.bks.cpg/sg15_50_cif.got.tgz:98735.got - 2010.06.03 18:47:42.
