data_PCOD9301048
_publ_section_title
;
Structure prediction by ZEFSAII (Michael W. Deem and Ramdas Pophale) SiO2 
 PCOD9301048
Probable space group: C 2/C
;
_chemical_formula_sum "Si O2"
_cell_formula_units_Z 44
_cell_length_a 20.104220
_cell_length_b 12.134882
_cell_length_c 11.929062
_cell_angle_alpha 90.000000
_cell_angle_beta 127.894116
_cell_angle_gamma 90.000000
_cell_volume 2296.609104
_symmetry_space_group_name_H-M "C 2/C"
_symmetry_group_IT_number 15
_symmetry_cell_setting 'monoclinic'
loop_
_space_group_symop_operation_xyz
x,y,z
-x,y,1/2-z
-x,-y,-z
x,-y,1/2+z
1/2+x,1/2+y,z
1/2-x,1/2+y,1/2-z
1/2-x,1/2-y,-z
1/2+x,1/2-y,1/2+z
loop_
_atom_site_type_symbol
_atom_site_label
_atom_site_fract_x
_atom_site_fract_y
_atom_site_fract_z
Si Si1 0.552660 0.344281 0.592521
Si Si2 0.268114 0.288544 0.829171
Si Si3 0.749508 0.088682 0.535773
Si Si4 0.000000 0.298640 0.250000
Si Si5 0.940588 0.914294 0.294477
Si Si6 0.692532 0.836910 0.514599
O O1 0.641635 0.325413 0.625190
O O2 0.530655 0.269799 0.674579
O O3 0.478752 0.332682 0.425301
O O4 0.557537 0.467129 0.645672
O O5 0.286079 0.169961 0.905404
O O6 0.207504 0.295855 0.658066
O O7 0.233054 0.366393 0.893168
O O8 0.848348 0.108213 0.656498
O O9 0.728444 0.960658 0.532439
O O10 0.092255 0.347335 0.382417
O O11 0.000000 0.916402 0.250000
O O12 0.750000 0.750000 0.500000
#
# Coordination Sequence:
#
# PCOD9301048 Si02
#       6
#     8   8   8   4   8   8
#     4  11  22  37  65  99 131 168 222 280 337 385
#     4  11  24  44  67  99 139 176 223 284 335 403
#     4  11  25  44  66 101 136 179 225 272 345 397
#     4  12  24  44  62 102 128 176 226 266 334 406
#     4  11  20  36  66  97 132 168 224 286 328 386
#     4  12  26  44  74  97 136 183 224 278 335 410
#
# _framework density 19.158681000000001
#
# number of rings (size 3 to 8) (size 9 to 14) (size 15 to 20)
#    0.000    0.727    6.364    1.091    2.545    0.000 
#    0.000    7.273    0.000    0.000    0.000    0.000 
#    0.000    0.000    0.000    0.000    0.000    0.000 
#
# Total GULP energy -122617.456987 kJ/mol
# GULP energy per Si atom -5573.520772 kJ/mol
# Density = 1.911507 g / cm^3
# Si number density = 19.158681 Si / 1000 Ang^3
#
#
#
# Elastic Constant Matrix: (Units=GPa)
#
#
# Indices 1 2 3 4 5 6 
#
# 1 143.4817 55.1840 32.5426 0.0000 4.8968 0.0000
# 2 55.1840 98.2449 19.9902 0.0000 -14.7509 0.0000
# 3 32.5426 19.9902 154.6968 0.0000 -14.4417 0.0000
# 4 0.0000 0.0000 0.0000 26.3007 0.0000 -13.0699
# 5 4.8968 -14.7509 -14.4417 0.0000 51.6787 0.0000
# 6 0.0000 0.0000 0.0000 -13.0699 0.0000 60.2162
#
#
#
# Elastic Compliance Matrix: (Units=1/GPa)
#
#
# Indices 1 2 3 4 5 6 
#
# 1 0.009527 -0.005468 -0.001569 0.000000 -0.002902 0.000000
# 2 -0.005468 0.013965 -0.000240 0.000000 0.004437 0.000000
# 3 -0.001569 -0.000240 0.007016 0.000000 0.002041 0.000000
# 4 0.000000 0.000000 0.000000 0.042619 0.000000 0.009250
# 5 -0.002902 0.004437 0.002041 0.000000 0.021462 0.000000
# 6 0.000000 0.000000 0.000000 0.009250 0.000000 0.018615
#
#
# Mechanical properties :
#
#
# Convention : Reuss Voigt Hill
#
# Bulk Modulus (GPa) = 62.67669 67.98411 65.33040
# Shear Modulus (GPa) = 37.57273 46.88623 42.22948
#
# Velocity S-wave (km/s) = 4.43327 4.95234 4.69998
# Velocity P-wave (km/s) = 7.68054 8.26213 7.97664
#
# Compressibility (1/GPa) = 0.01595489
#
# Stress axis : x y z
#
# Youngs Moduli (GPa) = 104.96080 71.60707 142.53645
#
# Poissons Ratio (x) = 0.39155 0.22357
# Poissons Ratio (y) = 0.57393 0.03422
# Poissons Ratio (z) = 0.16463 0.01719
#
# Static dielectric constant tensor:
#      x y z
#    x 1.667880 0.000000 0.033750 
#    y 0.000000 1.634170 0.000000 
#    z 0.033750 0.000000 1.722600 
# 
# From -- ./inp_files/104323.got.cif
#   From: 2010.05.17/outbox.cif.g08.bks.cpg/sg15_53_cif.got.tgz:104323.got - 2010.06.03 18:47:42.
