data_PCOD9301530
_publ_section_title
;
Structure prediction by ZEFSAII (Michael W. Deem and Ramdas Pophale) SiO2 
 PCOD9301530
Probable space group: C 2/C
;
_chemical_formula_sum "Si O2"
_cell_formula_units_Z 36
_cell_length_a 10.841498
_cell_length_b 34.618026
_cell_length_c 5.126587
_cell_angle_alpha 90.000000
_cell_angle_beta 110.723679
_cell_angle_gamma 90.000000
_cell_volume 1799.574664
_symmetry_space_group_name_H-M "C 2/C"
_symmetry_group_IT_number 15
_symmetry_cell_setting 'monoclinic'
loop_
_space_group_symop_operation_xyz
x,y,z
-x,y,1/2-z
-x,-y,-z
x,-y,1/2+z
1/2+x,1/2+y,z
1/2-x,1/2+y,1/2-z
1/2-x,1/2-y,-z
1/2+x,1/2-y,1/2+z
loop_
_atom_site_type_symbol
_atom_site_label
_atom_site_fract_x
_atom_site_fract_y
_atom_site_fract_z
Si Si1 0.847084 0.890233 0.736224
Si Si2 0.500000 0.710247 0.750000
Si Si3 0.711317 0.342637 0.279255
Si Si4 0.641080 0.232558 0.717510
Si Si5 0.159593 0.021411 0.341890
O O1 0.765086 0.870858 0.442382
O O2 0.811660 0.935338 0.730966
O O3 0.000000 0.889525 0.750000
O O4 0.819226 0.866525 0.980538
O O5 0.420916 0.682259 0.882532
O O6 0.391536 0.736255 0.529310
O O7 0.819388 0.308979 0.368960
O O8 0.500000 0.228290 0.750000
O O9 0.750000 0.250000 0.000000
O O10 0.000000 0.019070 0.250000
O O11 0.207210 0.009261 0.663126
#
# Coordination Sequence:
#
# PCOD9301530 Si02
#       5
#     8   4   8   8   8
#     4  11  21  36  56  87 124 163 204 257 316 379
#     4  12  24  42  62  88 120 170 218 268 312 382
#     4  12  24  38  60  88 122 162 216 259 316 374
#     4  12  27  44  65  89 124 167 226 275 324 376
#     4   9  17  30  51  79 117 161 199 239 301 382
#
# _framework density 20.004728
#
# number of rings (size 3 to 8) (size 9 to 14) (size 15 to 20)
#    0.000    0.889    4.444    3.333    3.111    3.556 
#    0.000    0.000    0.000    0.000    0.000    0.000 
#    0.000   17.778    0.000    0.000    0.000    0.000 
#
# Total GULP energy -100463.425270 kJ/mol
# GULP energy per Si atom -5581.301404 kJ/mol
# Density = 1.995920 g / cm^3
# Si number density = 20.004728 Si / 1000 Ang^3
#
#
#
# Elastic Constant Matrix: (Units=GPa)
#
#
# Indices 1 2 3 4 5 6 
#
# 1 55.8590 38.3986 21.8426 0.0000 -0.7132 0.0000
# 2 38.3986 140.7392 56.5951 0.0000 -15.6042 0.0000
# 3 21.8426 56.5951 119.1479 0.0000 -17.1964 0.0000
# 4 0.0000 0.0000 0.0000 35.5749 0.0000 -10.0733
# 5 -0.7132 -15.6042 -17.1964 0.0000 24.6356 0.0000
# 6 0.0000 0.0000 0.0000 -10.0733 0.0000 22.8697
#
#
#
# Elastic Compliance Matrix: (Units=1/GPa)
#
#
# Indices 1 2 3 4 5 6 
#
# 1 0.022667 -0.005871 -0.002011 0.000000 -0.004466 0.000000
# 2 -0.005871 0.010500 -0.003309 0.000000 0.004171 0.000000
# 3 -0.002011 -0.003309 0.011146 0.000000 0.005626 0.000000
# 4 0.000000 0.000000 0.000000 0.032115 0.000000 0.014146
# 5 -0.004466 0.004171 0.005626 0.000000 0.047031 0.000000
# 6 0.000000 0.000000 0.000000 0.014146 0.000000 0.049957
#
#
# Mechanical properties :
#
#
# Convention : Reuss Voigt Hill
#
# Bulk Modulus (GPa) = 45.59967 61.04651 53.32309
# Shear Modulus (GPa) = 24.61726 29.87670 27.24698
#
# Velocity S-wave (km/s) = 3.51176 3.86875 3.69457
# Velocity P-wave (km/s) = 6.26795 7.10905 6.70171
#
# Compressibility (1/GPa) = 0.02192998
#
# Stress axis : x y z
#
# Youngs Moduli (GPa) = 44.11612 95.23491 89.72175
#
# Poissons Ratio (x) = 0.55911 0.18047
# Poissons Ratio (y) = 0.25900 0.29693
# Poissons Ratio (z) = 0.08874 0.31517
#
# Static dielectric constant tensor:
#      x y z
#    x 1.784760 0.000000 -0.061040 
#    y 0.000000 1.708440 0.000000 
#    z -0.061040 0.000000 1.777820 
# 
# From -- ./inp_files/4802.got.cif
#   From: 2010.05.17/outbox.cif.g08.bks.cpg/sg15_3_cif.got.tgz:4802.got - 2010.06.03 18:47:42.
