data_PCOD9301378
_publ_section_title
;
Structure prediction by ZEFSAII (Michael W. Deem and Ramdas Pophale) SiO2 
 PCOD9301378
Probable space group: C 2/C
;
_chemical_formula_sum "Si O2"
_cell_formula_units_Z 52
_cell_length_a 17.263381
_cell_length_b 11.192754
_cell_length_c 15.529025
_cell_angle_alpha 90.000000
_cell_angle_beta 53.101687
_cell_angle_gamma 90.000000
_cell_volume 2399.580745
_symmetry_space_group_name_H-M "C 2/C"
_symmetry_group_IT_number 15
_symmetry_cell_setting 'monoclinic'
loop_
_space_group_symop_operation_xyz
x,y,z
-x,y,1/2-z
-x,-y,-z
x,-y,1/2+z
1/2+x,1/2+y,z
1/2-x,1/2+y,1/2-z
1/2-x,1/2-y,-z
1/2+x,1/2-y,1/2+z
loop_
_atom_site_type_symbol
_atom_site_label
_atom_site_fract_x
_atom_site_fract_y
_atom_site_fract_z
Si Si1 0.126367 0.425115 0.764626
Si Si2 0.712067 0.071208 0.374070
Si Si3 0.601903 0.451209 0.637408
Si Si4 0.000000 0.397897 0.250000
Si Si5 0.939623 0.366404 0.982485
Si Si6 0.854107 0.769915 0.387620
Si Si7 0.442400 0.747286 0.455676
O O1 0.217689 0.443662 0.766657
O O2 0.092105 0.520005 0.715985
O O3 0.139456 0.298773 0.707656
O O4 0.036950 0.439055 0.892713
O O5 0.810161 0.091995 0.360900
O O6 0.646865 0.186432 0.439028
O O7 0.652949 0.952389 0.444309
O O8 0.500000 0.429034 0.750000
O O9 0.619990 0.592241 0.625691
O O10 0.591292 0.383509 0.553055
O O11 0.967423 0.318217 0.351645
O O12 0.926578 0.294368 0.903756
O O13 0.967145 0.275408 0.040931
O O14 0.750000 0.750000 0.500000
#
# Coordination Sequence:
#
# PCOD9301378 Si02
#       7
#     8   8   8   4   8   8   8
#     4  11  21  40  73 101 128 175 239 292 335 414
#     4  11  22  44  71 104 136 181 243 291 348 426
#     4  12  27  45  64  99 150 185 219 295 360 417
#     4  12  18  38  74 104 126 170 226 284 360 398
#     4  11  20  42  73 101 130 175 239 296 338 417
#     4  12  25  44  69  94 138 187 235 278 347 430
#     4  11  23  41  71 103 139 177 227 294 355 416
#
# _framework density 21.670452999999998
#
# number of rings (size 3 to 8) (size 9 to 14) (size 15 to 20)
#    0.000    0.615    6.923    2.308    0.000    1.846 
#    2.769    1.538    0.000    0.000    0.000    0.000 
#    0.000    0.000    0.000    0.000    0.000    0.000 
#
# Total GULP energy -145045.043082 kJ/mol
# GULP energy per Si atom -5578.655503 kJ/mol
# Density = 2.162113 g / cm^3
# Si number density = 21.670453 Si / 1000 Ang^3
#
#
#
# Elastic Constant Matrix: (Units=GPa)
#
#
# Indices 1 2 3 4 5 6 
#
# 1 74.7684 -9.3771 19.7744 0.0000 -5.9240 0.0000
# 2 -9.3771 79.5993 10.8831 0.0000 2.4072 0.0000
# 3 19.7744 10.8831 59.8157 0.0000 7.6028 0.0000
# 4 0.0000 0.0000 0.0000 26.0689 0.0000 3.2522
# 5 -5.9240 2.4072 7.6028 0.0000 39.9789 0.0000
# 6 0.0000 0.0000 0.0000 3.2522 0.0000 -0.7032
#
#
#
# Elastic Compliance Matrix: (Units=1/GPa)
#
#
# Indices 1 2 3 4 5 6 
#
# 1 0.015550 0.002556 -0.006024 0.000000 0.003296 0.000000
# 2 0.002556 0.013308 -0.003292 0.000000 0.000203 0.000000
# 3 -0.006024 -0.003292 0.019877 0.000000 -0.004475 0.000000
# 4 0.000000 0.000000 0.000000 0.024325 0.000000 0.112500
# 5 0.003296 0.000203 -0.004475 0.000000 0.026340 0.000000
# 6 0.000000 0.000000 0.000000 0.112500 0.000000 -0.901774
#
#
# Mechanical properties :
#
#
# Convention : Reuss Voigt Hill
#
# Bulk Modulus (GPa) = 28.39825 28.52715 28.46270
# Shear Modulus (GPa) = -6.43406 25.92913 9.74753
#
# Velocity S-wave (km/s) = -1.72496 3.46283 2.12317
# Velocity P-wave (km/s) = 3.02749 5.40193 4.37873
#
# Compressibility (1/GPa) = 0.03521344
#
# Stress axis : x y z
#
# Youngs Moduli (GPa) = 64.31017 75.14299 50.30850
#
# Poissons Ratio (x) = -0.19205 0.30308
# Poissons Ratio (y) = -0.16437 0.16562
# Poissons Ratio (z) = 0.38744 0.24738
#
# Static dielectric constant tensor:
#      x y z
#    x 1.961470 0.000000 0.006720 
#    y 0.000000 1.870990 0.000000 
#    z 0.006720 0.000000 1.824980 
# 
# From -- ./inp_files/160774.got.cif
#   From: 2010.05.17/outbox.cif.g08.bks.cpg/sg15_81_cif.got.tgz:160774.got - 2010.06.03 18:47:42.
