data_PCOD9301356
_publ_section_title
;
Structure prediction by ZEFSAII (Michael W. Deem and Ramdas Pophale) SiO2 
 PCOD9301356
Probable space group: C 2/C
;
_chemical_formula_sum "Si O2"
_cell_formula_units_Z 64
_cell_length_a 8.907642
_cell_length_b 22.226168
_cell_length_c 16.263238
_cell_angle_alpha 90.000000
_cell_angle_beta 104.291650
_cell_angle_gamma 90.000000
_cell_volume 3120.192009
_symmetry_space_group_name_H-M "C 2/C"
_symmetry_group_IT_number 15
_symmetry_cell_setting 'monoclinic'
loop_
_space_group_symop_operation_xyz
x,y,z
-x,y,1/2-z
-x,-y,-z
x,-y,1/2+z
1/2+x,1/2+y,z
1/2-x,1/2+y,1/2-z
1/2-x,1/2-y,-z
1/2+x,1/2-y,1/2+z
loop_
_atom_site_type_symbol
_atom_site_label
_atom_site_fract_x
_atom_site_fract_y
_atom_site_fract_z
Si Si1 0.842093 0.905690 0.174960
Si Si2 0.543237 0.370001 0.489513
Si Si3 0.705716 0.938149 0.877103
Si Si4 0.407784 0.882114 0.917315
Si Si5 0.315914 0.540736 0.210123
Si Si6 0.168968 0.665714 0.784779
Si Si7 0.297166 0.926530 0.068476
Si Si8 0.134035 0.756071 0.061736
O O1 0.883007 0.887489 0.088293
O O2 0.735885 0.857770 0.207752
O O3 0.000000 0.906703 0.250000
O O4 0.780369 0.974073 0.170195
O O5 0.656232 0.395249 0.573639
O O6 0.375406 0.401711 0.473021
O O7 0.506256 0.299224 0.484626
O O8 0.545619 0.908114 0.881488
O O9 0.729589 0.951308 0.784814
O O10 0.712919 0.002507 0.922975
O O11 0.248731 0.908466 0.858807
O O12 0.412800 0.810508 0.919327
O O13 0.410817 0.906226 0.011173
O O14 0.500000 0.545037 0.250000
O O15 0.154324 0.606455 0.840710
O O16 0.280957 0.709792 0.851152
O O17 0.000000 0.693233 0.750000
O O18 0.250000 0.750000 0.000000
#
# Coordination Sequence:
#
# PCOD9301356 Si02
#       8
#     8   8   8   8   8   8   8   8
#     4  11  20  42  67 102 131 170 228 278 328 395
#     4  11  23  42  72  97 131 184 231 272 328 408
#     4  12  25  41  67 106 135 168 222 283 346 402
#     4  12  26  43  66  98 137 179 217 276 343 400
#     4  11  24  42  67  96 137 175 212 278 345 409
#     4  11  24  40  72  99 131 182 229 277 331 396
#     4  11  21  43  68  99 137 175 214 273 349 403
#     4  11  24  48  68  88 139 181 228 275 327 400
#
# _framework density 20.511557
#
# number of rings (size 3 to 8) (size 9 to 14) (size 15 to 20)
#    0.000    0.750    6.250    3.375    3.500    1.000 
#    4.500    0.000    0.000    0.000    0.000    0.000 
#    0.000    0.000    0.000    0.000    0.000    0.000 
#
# Total GULP energy -179029.781801 kJ/mol
# GULP energy per Si atom -5594.680681 kJ/mol
# Density = 2.046487 g / cm^3
# Si number density = 20.511557 Si / 1000 Ang^3
#
#
#
# Elastic Constant Matrix: (Units=GPa)
#
#
# Indices 1 2 3 4 5 6 
#
# 1 52.5461 13.5132 23.0831 0.0000 -28.5440 0.0000
# 2 13.5132 116.5740 40.4147 0.0000 -25.8146 0.0000
# 3 23.0831 40.4147 64.9695 0.0000 -27.5719 0.0000
# 4 0.0000 0.0000 0.0000 17.4751 0.0000 -13.1207
# 5 -28.5440 -25.8146 -27.5719 0.0000 38.6269 0.0000
# 6 0.0000 0.0000 0.0000 -13.1207 0.0000 22.5716
#
#
#
# Elastic Compliance Matrix: (Units=1/GPa)
#
#
# Indices 1 2 3 4 5 6 
#
# 1 0.032513 0.002523 -0.003169 0.000000 0.023450 0.000000
# 2 0.002523 0.011476 -0.005723 0.000000 0.005449 0.000000
# 3 -0.003169 -0.005723 0.025049 0.000000 0.011713 0.000000
# 4 0.000000 0.000000 0.000000 0.101542 0.000000 0.059026
# 5 0.023450 0.005449 0.011713 0.000000 0.055220 0.000000
# 6 0.000000 0.000000 0.000000 0.059026 0.000000 0.078615
#
#
# Mechanical properties :
#
#
# Convention : Reuss Voigt Hill
#
# Bulk Modulus (GPa) = 17.76229 43.12350 30.44290
# Shear Modulus (GPa) = 14.88452 26.20662 20.54557
#
# Velocity S-wave (km/s) = 2.69674 3.57830 3.16833
# Velocity P-wave (km/s) = 4.28661 6.17592 5.31587
#
# Compressibility (1/GPa) = 0.05629904
#
# Stress axis : x y z
#
# Youngs Moduli (GPa) = 30.75732 87.13467 39.92236
#
# Poissons Ratio (x) = -0.21980 0.12652
# Poissons Ratio (y) = -0.07759 0.22847
# Poissons Ratio (z) = 0.09747 0.49866
#
# Static dielectric constant tensor:
#      x y z
#    x 1.746720 0.000000 0.010750 
#    y 0.000000 1.702360 0.000000 
#    z 0.010750 0.000000 1.725830 
# 
# From -- ./inp_files/137816.got.cif
#   From: 2010.05.17/outbox.cif.g08.bks.cpg/sg15_69_cif.got.tgz:137816.got - 2010.06.03 18:47:42.
