data_PCOD9301101
_publ_section_title
;
Structure prediction by ZEFSAII (Michael W. Deem and Ramdas Pophale) SiO2 
 PCOD9301101
Probable space group: C 2/C
;
_chemical_formula_sum "Si O2"
_cell_formula_units_Z 64
_cell_length_a 11.861415
_cell_length_b 16.847113
_cell_length_c 17.802593
_cell_angle_alpha 90.000000
_cell_angle_beta 130.483480
_cell_angle_gamma 90.000000
_cell_volume 2705.812412
_symmetry_space_group_name_H-M "C 2/C"
_symmetry_group_IT_number 15
_symmetry_cell_setting 'monoclinic'
loop_
_space_group_symop_operation_xyz
x,y,z
-x,y,1/2-z
-x,-y,-z
x,-y,1/2+z
1/2+x,1/2+y,z
1/2-x,1/2+y,1/2-z
1/2-x,1/2-y,-z
1/2+x,1/2-y,1/2+z
loop_
_atom_site_type_symbol
_atom_site_label
_atom_site_fract_x
_atom_site_fract_y
_atom_site_fract_z
Si Si1 0.829412 0.252215 0.698539
Si Si2 0.079879 0.914918 0.964513
Si Si3 0.415490 0.093640 0.638870
Si Si4 0.617343 0.653891 0.001906
Si Si5 0.616450 0.544621 0.863557
Si Si6 0.385158 0.900629 0.417005
Si Si7 0.613340 0.716514 0.362698
Si Si8 0.596873 0.803518 0.606595
O O1 0.756873 0.307222 0.603016
O O2 0.722787 0.173770 0.656341
O O3 0.833326 0.299270 0.779820
O O4 0.000000 0.236585 0.750000
O O5 0.084453 0.828192 0.927613
O O6 0.959257 0.910745 0.977162
O O7 0.050232 0.974007 0.883648
O O8 0.245974 0.934483 0.063758
O O9 0.500000 0.066160 0.750000
O O10 0.509491 0.074922 0.605608
O O11 0.406948 0.189671 0.637443
O O12 0.648127 0.615435 0.935360
O O13 0.494918 0.721753 0.938001
O O14 0.500000 0.565260 0.750000
O O15 0.773778 0.529667 0.892670
O O16 0.482675 0.870447 0.529489
O O17 0.500000 0.688412 0.250000
O O18 0.773971 0.697587 0.399268
#
# Coordination Sequence:
#
# PCOD9301101 Si02
#       8
#     8   8   8   8   8   8   8   8
#     4  11  22  38  67 104 135 172 218 273 338 390
#     4  12  24  44  66  97 131 173 224 275 321 392
#     4  11  23  40  69 100 130 169 214 279 346 388
#     4  11  24  44  68  97 135 171 224 273 329 395
#     4  12  28  45  67  91 132 187 226 262 321 399
#     4  11  23  41  64  99 136 174 219 269 329 398
#     4  11  20  37  66 100 130 164 213 274 339 386
#     4  11  20  38  67 100 131 166 213 285 334 383
#
# _framework density 23.652785999999999
#
# number of rings (size 3 to 8) (size 9 to 14) (size 15 to 20)
#    0.000    0.750    2.500    7.500    1.750    2.500 
#    0.000    1.875    0.000    0.000    0.000    0.000 
#    0.000    0.000    0.000    0.000    0.000    0.000 
#
# Total GULP energy -179304.896724 kJ/mol
# GULP energy per Si atom -5603.278023 kJ/mol
# Density = 2.359895 g / cm^3
# Si number density = 23.652786 Si / 1000 Ang^3
#
#
#
# Elastic Constant Matrix: (Units=GPa)
#
#
# Indices 1 2 3 4 5 6 
#
# 1 109.0912 13.5160 32.2594 0.0000 7.3308 0.0000
# 2 13.5160 36.2275 24.8500 0.0000 -0.3664 0.0000
# 3 32.2594 24.8500 161.4980 0.0000 -4.5275 0.0000
# 4 0.0000 0.0000 0.0000 15.8633 0.0000 -2.8955
# 5 7.3308 -0.3664 -4.5275 0.0000 40.4864 0.0000
# 6 0.0000 0.0000 0.0000 -2.8955 0.0000 25.0641
#
#
#
# Elastic Compliance Matrix: (Units=1/GPa)
#
#
# Indices 1 2 3 4 5 6 
#
# 1 0.010127 -0.002652 -0.001672 0.000000 -0.002045 0.000000
# 2 -0.002652 0.031558 -0.004318 0.000000 0.000283 0.000000
# 3 -0.001672 -0.004318 0.007221 0.000000 0.001071 0.000000
# 4 0.000000 0.000000 0.000000 0.064396 0.000000 0.007439
# 5 -0.002045 0.000283 0.001071 0.000000 0.025192 0.000000
# 6 0.000000 0.000000 0.000000 0.007439 0.000000 0.040757
#
#
# Mechanical properties :
#
#
# Convention : Reuss Voigt Hill
#
# Bulk Modulus (GPa) = 31.62487 49.78528 40.70507
# Shear Modulus (GPa) = 24.14575 32.02884 28.08729
#
# Velocity S-wave (km/s) = 3.19853 3.68384 3.44973
# Velocity P-wave (km/s) = 5.20002 6.26005 5.75450
#
# Compressibility (1/GPa) = 0.03162069
#
# Stress axis : x y z
#
# Youngs Moduli (GPa) = 98.74508 31.68800 138.49414
#
# Poissons Ratio (x) = 0.08404 0.23158
# Poissons Ratio (y) = 0.26187 0.59804
# Poissons Ratio (z) = 0.16512 0.13683
#
# Static dielectric constant tensor:
#      x y z
#    x 1.862590 0.000000 -0.002620 
#    y 0.000000 1.935430 0.000000 
#    z -0.002620 0.000000 1.888490 
# 
# From -- ./inp_files/200412.got.cif
#   From: 2010.05.17/outbox.cif.g08.bks.cpg/sg15_101_cif.got.tgz:200412.got - 2010.06.03 18:47:42.
