data_PCOD9301093
_publ_section_title
;
Structure prediction by ZEFSAII (Michael W. Deem and Ramdas Pophale) SiO2 
 PCOD9301093
Probable space group: C 2/C
;
_chemical_formula_sum "Si O2"
_cell_formula_units_Z 44
_cell_length_a 11.272767
_cell_length_b 19.792503
_cell_length_c 12.358273
_cell_angle_alpha 90.000000
_cell_angle_beta 50.735980
_cell_angle_gamma 90.000000
_cell_volume 2134.830535
_symmetry_space_group_name_H-M "C 2/C"
_symmetry_group_IT_number 15
_symmetry_cell_setting 'monoclinic'
loop_
_space_group_symop_operation_xyz
x,y,z
-x,y,1/2-z
-x,-y,-z
x,-y,1/2+z
1/2+x,1/2+y,z
1/2-x,1/2+y,1/2-z
1/2-x,1/2-y,-z
1/2+x,1/2-y,1/2+z
loop_
_atom_site_type_symbol
_atom_site_label
_atom_site_fract_x
_atom_site_fract_y
_atom_site_fract_z
Si Si1 0.339883 0.589213 0.775872
Si Si2 0.500000 0.965584 0.750000
Si Si3 0.685588 0.040712 0.462703
Si Si4 0.182675 0.768011 0.154222
Si Si5 0.551062 0.571944 0.018769
Si Si6 0.722353 0.129728 0.249018
O O1 0.500000 0.580901 0.750000
O O2 0.244421 0.521859 0.854897
O O3 0.255242 0.656979 0.860642
O O4 0.376559 0.603992 0.629876
O O5 0.362202 0.916223 0.793039
O O6 0.556094 0.011872 0.617847
O O7 0.826108 0.061712 0.458759
O O8 0.650906 0.102958 0.402907
O O9 0.210027 0.707933 0.223779
O O10 0.000000 0.774545 0.250000
O O11 0.250000 0.750000 0.000000
O O12 0.400868 0.609997 0.145809
O O13 0.500000 0.500000 0.000000
#
# Coordination Sequence:
#
# PCOD9301093 Si02
#       6
#     8   4   8   8   8   8
#     4  11  20  37  64  93 123 159 211 266 314 371
#     4  12  22  38  56  94 130 162 210 266 314 376
#     4  12  23  39  64  95 127 168 210 265 321 380
#     4  11  24  41  64  95 130 167 213 265 319 381
#     4  12  21  39  65  95 125 161 215 265 316 384
#     4  12  23  39  63  94 130 165 211 263 326 377
#
# _framework density 20.610534999999999
#
# number of rings (size 3 to 8) (size 9 to 14) (size 15 to 20)
#    0.000    0.364    6.364    4.364    0.000    0.000 
#    0.000    0.909    0.000    0.000    0.000    0.000 
#    0.000    0.000    0.000    0.000    0.000    0.000 
#
# Total GULP energy -123006.206624 kJ/mol
# GULP energy per Si atom -5591.191210 kJ/mol
# Density = 2.056362 g / cm^3
# Si number density = 20.610535 Si / 1000 Ang^3
#
#
#
# Elastic Constant Matrix: (Units=GPa)
#
#
# Indices 1 2 3 4 5 6 
#
# 1 86.6702 19.0403 3.4693 0.0000 5.1765 0.0000
# 2 19.0403 77.8007 4.8418 0.0000 7.9010 0.0000
# 3 3.4693 4.8418 89.6073 0.0000 4.8551 0.0000
# 4 0.0000 0.0000 0.0000 37.7149 0.0000 4.9741
# 5 5.1765 7.9010 4.8551 0.0000 33.2196 0.0000
# 6 0.0000 0.0000 0.0000 4.9741 0.0000 15.0438
#
#
#
# Elastic Compliance Matrix: (Units=1/GPa)
#
#
# Indices 1 2 3 4 5 6 
#
# 1 0.012248 -0.002861 -0.000255 0.000000 -0.001191 0.000000
# 2 -0.002861 0.013866 -0.000488 0.000000 -0.002781 0.000000
# 3 -0.000255 -0.000488 0.011277 0.000000 -0.001492 0.000000
# 4 0.000000 0.000000 0.000000 0.027724 0.000000 -0.009167
# 5 -0.001191 -0.002781 -0.001492 0.000000 0.031168 0.000000
# 6 0.000000 0.000000 0.000000 -0.009167 0.000000 0.069504
#
#
# Mechanical properties :
#
#
# Convention : Reuss Voigt Hill
#
# Bulk Modulus (GPa) = 33.13030 34.30899 33.71965
# Shear Modulus (GPa) = 27.31432 32.31078 29.81255
#
# Velocity S-wave (km/s) = 3.64436 3.96369 3.80738
# Velocity P-wave (km/s) = 5.81531 6.13435 5.97696
#
# Compressibility (1/GPa) = 0.03018385
#
# Stress axis : x y z
#
# Youngs Moduli (GPa) = 81.64758 72.11778 88.67684
#
# Poissons Ratio (x) = 0.20630 0.02262
# Poissons Ratio (y) = 0.23356 0.04326
# Poissons Ratio (z) = 0.02083 0.03518
#
# Static dielectric constant tensor:
#      x y z
#    x 1.756190 0.000000 0.037210 
#    y 0.000000 1.876230 0.000000 
#    z 0.037210 0.000000 1.616920 
# 
# From -- ./inp_files/88597.got.cif
#   From: 2010.05.17/outbox.cif.g08.bks.cpg/sg15_45_cif.got.tgz:88597.got - 2010.06.03 18:47:42.
