data_PCOD9301886
_publ_section_title
;
Structure prediction by ZEFSAII (Michael W. Deem and Ramdas Pophale) SiO2 
 PCOD9301886
Probable space group: C 2/C
;
_chemical_formula_sum "Si O2"
_cell_formula_units_Z 36
_cell_length_a 5.733636
_cell_length_b 18.274290
_cell_length_c 14.731853
_cell_angle_alpha 90.000000
_cell_angle_beta 75.179839
_cell_angle_gamma 90.000000
_cell_volume 1492.226508
_symmetry_space_group_name_H-M "C 2/C"
_symmetry_group_IT_number 15
_symmetry_cell_setting 'monoclinic'
loop_
_space_group_symop_operation_xyz
x,y,z
-x,y,1/2-z
-x,-y,-z
x,-y,1/2+z
1/2+x,1/2+y,z
1/2-x,1/2+y,1/2-z
1/2-x,1/2-y,-z
1/2+x,1/2-y,1/2+z
loop_
_atom_site_type_symbol
_atom_site_label
_atom_site_fract_x
_atom_site_fract_y
_atom_site_fract_z
Si Si1 0.216010 0.511679 0.551575
Si Si2 0.575590 0.276435 0.648759
Si Si3 0.500000 0.007649 0.750000
Si Si4 0.758603 0.135774 0.828065
Si Si5 0.068939 0.162988 0.954689
O O1 0.500000 0.500000 0.500000
O O2 0.229281 0.599401 0.571527
O O3 0.000000 0.500000 0.500000
O O4 0.145766 0.470926 0.653010
O O5 0.500000 0.315616 0.750000
O O6 0.408708 0.205034 0.668023
O O7 0.836395 0.238535 0.601335
O O8 0.523047 0.322391 0.564325
O O9 0.676779 0.060701 0.789621
O O10 0.000000 0.154249 0.750000
O O11 0.836885 0.133426 0.924901
#
# Coordination Sequence:
#
# PCOD9301886 Si02
#       5
#     8   8   4   8   8
#     4  12  27  47  72 102 139 185 245 297 350 415
#     4  11  21  40  63 101 141 171 221 285 356 428
#     4  12  24  44  74  94 136 184 254 284 338 434
#     4  12  18  38  70  98 128 176 240 285 338 417
#     4  11  24  39  68  99 131 180 230 286 347 421
#
# _framework density 24.125022000000001
#
# number of rings (size 3 to 8) (size 9 to 14) (size 15 to 20)
#    0.000    0.444    7.778    2.000    0.000    0.000 
#    4.000    0.000    0.000    0.000    0.000    0.000 
#    0.000    0.000    0.000    0.000    0.000    0.000 
#
# Total GULP energy -100431.197193 kJ/mol
# GULP energy per Si atom -5579.510955 kJ/mol
# Density = 2.407011 g / cm^3
# Si number density = 24.125022 Si / 1000 Ang^3
#
#
#
# Elastic Constant Matrix: (Units=GPa)
#
#
# Indices 1 2 3 4 5 6 
#
# 1 113.1045 6.0076 53.8000 0.0000 15.3407 0.0000
# 2 6.0076 16.4838 1.0884 0.0000 6.3033 0.0000
# 3 53.8000 1.0884 210.7007 0.0000 5.0118 0.0000
# 4 0.0000 0.0000 0.0000 27.7109 0.0000 10.9458
# 5 15.3407 6.3033 5.0118 0.0000 60.4918 0.0000
# 6 0.0000 0.0000 0.0000 10.9458 0.0000 3.5787
#
#
#
# Elastic Compliance Matrix: (Units=1/GPa)
#
#
# Indices 1 2 3 4 5 6 
#
# 1 0.010533 -0.002840 -0.002623 0.000000 -0.002158 0.000000
# 2 -0.002840 0.063955 0.000537 0.000000 -0.005988 0.000000
# 3 -0.002623 0.000537 0.005409 0.000000 0.000161 0.000000
# 4 0.000000 0.000000 0.000000 -0.173366 0.000000 0.530261
# 5 -0.002158 -0.005988 0.000161 0.000000 0.017689 0.000000
# 6 0.000000 0.000000 0.000000 0.530261 0.000000 -1.342432
#
#
# Mechanical properties :
#
#
# Convention : Reuss Voigt Hill
#
# Bulk Modulus (GPa) = 14.27666 51.34234 32.80950
# Shear Modulus (GPa) = -3.61008 36.98248 16.68620
#
# Velocity S-wave (km/s) = -1.22460 3.91954 2.63279
# Velocity P-wave (km/s) = 1.98270 6.46620 4.78240
#
# Compressibility (1/GPa) = 0.07004439
#
# Stress axis : x y z
#
# Youngs Moduli (GPa) = 94.94157 15.63594 184.86606
#
# Poissons Ratio (x) = 0.04441 0.48498
# Poissons Ratio (y) = 0.26967 -0.09933
# Poissons Ratio (z) = 0.24907 -0.00840
#
# Static dielectric constant tensor:
#      x y z
#    x 2.367920 0.000000 -0.417430 
#    y 0.000000 1.973490 0.000000 
#    z -0.417430 0.000000 2.554670 
# 
# From -- ./inp_files/72677.got.cif
#   From: 2010.05.17/outbox.cif.g08.bks.cpg/sg15_37_cif.got.tgz:72677.got - 2010.06.03 18:47:42.
