data_PCOD9301576
_publ_section_title
;
Structure prediction by ZEFSAII (Michael W. Deem and Ramdas Pophale) SiO2 
 PCOD9301576
Probable space group: C 2/C
;
_chemical_formula_sum "Si O2"
_cell_formula_units_Z 60
_cell_length_a 17.537591
_cell_length_b 8.973864
_cell_length_c 19.620931
_cell_angle_alpha 90.000000
_cell_angle_beta 59.390528
_cell_angle_gamma 90.000000
_cell_volume 2657.660929
_symmetry_space_group_name_H-M "C 2/C"
_symmetry_group_IT_number 15
_symmetry_cell_setting 'monoclinic'
loop_
_space_group_symop_operation_xyz
x,y,z
-x,y,1/2-z
-x,-y,-z
x,-y,1/2+z
1/2+x,1/2+y,z
1/2-x,1/2+y,1/2-z
1/2-x,1/2-y,-z
1/2+x,1/2-y,1/2+z
loop_
_atom_site_type_symbol
_atom_site_label
_atom_site_fract_x
_atom_site_fract_y
_atom_site_fract_z
Si Si1 0.712284 0.721175 0.908992
Si Si2 0.100236 0.575143 0.226200
Si Si3 0.000000 0.017327 0.250000
Si Si4 0.783795 0.217732 0.746149
Si Si5 0.546100 0.101662 0.535001
Si Si6 0.299835 0.957099 0.950746
Si Si7 0.091997 0.258210 0.300678
Si Si8 0.190756 0.961098 0.130092
O O1 0.705057 0.658376 0.835597
O O2 0.746380 0.600550 0.946896
O O3 0.779055 0.864043 0.881606
O O4 0.616171 0.783540 0.971732
O O5 0.137344 0.667415 0.273200
O O6 0.168051 0.616490 0.134395
O O7 0.103292 0.399209 0.243631
O O8 0.000000 0.609188 0.250000
O O9 0.044816 0.122905 0.285308
O O10 0.084584 0.938578 0.177322
O O11 0.686449 0.288914 0.787085
O O12 0.779624 0.103356 0.810518
O O13 0.607215 0.004431 0.557556
O O14 0.470925 0.182283 0.611833
O O15 0.500000 0.000000 0.500000
O O16 0.240459 0.897561 0.040478
#
# Coordination Sequence:
#
# PCOD9301576 Si02
#       8
#     8   8   4   8   8   8   8   8
#     4  11  22  41  68  97 134 176 230 275 337 394
#     4  12  24  43  69  96 131 179 229 273 343 412
#     4  12  22  40  66  94 124 176 222 274 316 414
#     4  12  26  41  64  98 140 175 213 283 344 397
#     4  11  21  36  64 100 131 167 222 282 324 395
#     4  11  22  42  69  97 133 176 228 282 329 399
#     4  12  21  41  66  98 124 173 228 268 326 397
#     4  11  24  42  64  97 136 177 221 277 342 393
#
# _framework density 22.576245
#
# number of rings (size 3 to 8) (size 9 to 14) (size 15 to 20)
#    0.000    0.533    4.667    6.400    0.933    0.533 
#    0.000    1.333    0.000    3.200    0.000    0.000 
#    0.000    0.000    0.000    0.000    0.000    0.000 
#
# Total GULP energy -167798.168159 kJ/mol
# GULP energy per Si atom -5593.272272 kJ/mol
# Density = 2.252486 g / cm^3
# Si number density = 22.576245 Si / 1000 Ang^3
#
#
#
# Elastic Constant Matrix: (Units=GPa)
#
#
# Indices 1 2 3 4 5 6 
#
# 1 161.6948 24.0399 24.7028 0.0000 0.0597 0.0000
# 2 24.0399 50.1675 20.5821 -0.0001 4.5482 0.0001
# 3 24.7028 20.5821 133.1077 0.0000 -4.6093 0.0000
# 4 0.0000 -0.0001 0.0000 66.7934 0.0000 1.6789
# 5 0.0597 4.5482 -4.6093 0.0000 45.6024 0.0000
# 6 0.0000 0.0001 0.0000 1.6789 0.0000 36.7086
#
#
#
# Elastic Compliance Matrix: (Units=1/GPa)
#
#
# Indices 1 2 3 4 5 6 
#
# 1 0.006740 -0.002923 -0.000792 0.000000 0.000203 0.000000
# 2 -0.002923 0.022831 -0.003077 0.000000 -0.002584 0.000000
# 3 -0.000792 -0.003077 0.008175 0.000000 0.001134 0.000000
# 4 0.000000 0.000000 0.000000 0.014989 0.000000 -0.000686
# 5 0.000203 -0.002584 0.001134 0.000000 0.022301 0.000000
# 6 0.000000 0.000000 0.000000 -0.000686 0.000000 0.027273
#
#
# Mechanical properties :
#
#
# Convention : Reuss Voigt Hill
#
# Bulk Modulus (GPa) = 41.38917 53.73550 47.56233
# Shear Modulus (GPa) = 40.34003 48.19722 44.26863
#
# Velocity S-wave (km/s) = 4.23168 4.62547 4.43295
# Velocity P-wave (km/s) = 6.49993 7.23741 6.87856
#
# Compressibility (1/GPa) = 0.02416091
#
# Stress axis : x y z
#
# Youngs Moduli (GPa) = 148.36795 43.80047 122.32766
#
# Poissons Ratio (x) = 0.12804 0.09686
# Poissons Ratio (y) = 0.43372 0.37643
# Poissons Ratio (z) = 0.11748 0.13478
#
# Static dielectric constant tensor:
#      x y z
#    x 1.813620 0.000000 -0.007350 
#    y 0.000000 1.909430 0.000000 
#    z -0.007350 0.000000 1.869290 
# 
# From -- ./inp_files/204411.got.cif
#   From: 2010.05.17/outbox.cif.g08.bks.cpg/sg15_103_cif.got.tgz:204411.got - 2010.06.03 18:47:42.
