data_PCOD9301901
_publ_section_title
;
Structure prediction by ZEFSAII (Michael W. Deem and Ramdas Pophale) SiO2 
 PCOD9301901
Probable space group: C 2/C
;
_chemical_formula_sum "Si O2"
_cell_formula_units_Z 40
_cell_length_a 18.500828
_cell_length_b 10.329273
_cell_length_c 9.513591
_cell_angle_alpha 90.000000
_cell_angle_beta 59.343423
_cell_angle_gamma 90.000000
_cell_volume 1563.955897
_symmetry_space_group_name_H-M "C 2/C"
_symmetry_group_IT_number 15
_symmetry_cell_setting 'monoclinic'
loop_
_space_group_symop_operation_xyz
x,y,z
-x,y,1/2-z
-x,-y,-z
x,-y,1/2+z
1/2+x,1/2+y,z
1/2-x,1/2+y,1/2-z
1/2-x,1/2-y,-z
1/2+x,1/2-y,1/2+z
loop_
_atom_site_type_symbol
_atom_site_label
_atom_site_fract_x
_atom_site_fract_y
_atom_site_fract_z
Si Si1 0.669364 0.402068 0.232398
Si Si2 0.078650 0.049238 0.093766
Si Si3 0.368479 0.719012 0.002351
Si Si4 0.700663 0.933366 0.756771
Si Si5 0.590886 0.998080 0.595013
O O1 0.645516 0.521148 0.151280
O O2 0.610709 0.384910 0.423671
O O3 0.658776 0.284707 0.136075
O O4 0.756942 0.439303 0.212868
O O5 0.000000 0.106930 0.250000
O O6 0.064720 0.899527 0.055283
O O7 0.412688 0.856081 0.978009
O O8 0.283450 0.660313 0.159877
O O9 0.657557 0.981046 0.656234
O O10 0.629184 0.902954 0.942925
O O11 0.500000 0.028947 0.750000
#
# Coordination Sequence:
#
# PCOD9301901 Si02
#       5
#     8   8   8   8   8
#     4   9  18  32  58  86 121 166 206 253 305 380
#     4   9  16  30  55  89 124 161 205 255 317 364
#     4   9  21  37  65  89 122 165 215 249 314 384
#     4  11  21  40  65  92 124 167 214 257 312 380
#     4  12  24  42  67  95 127 167 212 265 316 372
#
# _framework density 25.576170000000001
#
# number of rings (size 3 to 8) (size 9 to 14) (size 15 to 20)
#    1.200    0.800    2.000    2.400    0.000    0.000 
#    0.000    1.000    8.800    1.200    0.000    0.000 
#    0.000    0.000    0.000    0.000    0.000    0.000 
#
# Total GULP energy -111450.266664 kJ/mol
# GULP energy per Si atom -5572.513333 kJ/mol
# Density = 2.551796 g / cm^3
# Si number density = 25.576170 Si / 1000 Ang^3
#
#
#
# Elastic Constant Matrix: (Units=GPa)
#
#
# Indices 1 2 3 4 5 6 
#
# 1 71.7031 -0.2774 26.0011 0.0000 9.3559 0.0000
# 2 -0.2774 58.2479 25.7863 0.0000 9.9278 0.0000
# 3 26.0011 25.7863 249.4122 0.0000 -13.4405 0.0000
# 4 0.0000 0.0000 0.0000 7.8802 0.0000 -2.8156
# 5 9.3559 9.9278 -13.4405 0.0000 41.8576 0.0000
# 6 0.0000 0.0000 0.0000 -2.8156 0.0000 14.3517
#
#
#
# Elastic Compliance Matrix: (Units=1/GPa)
#
#
# Indices 1 2 3 4 5 6 
#
# 1 0.015265 0.001724 -0.002010 0.000000 -0.004466 0.000000
# 2 0.001724 0.019254 -0.002480 0.000000 -0.005748 0.000000
# 3 -0.002010 -0.002480 0.004611 0.000000 0.002518 0.000000
# 4 0.000000 0.000000 0.000000 0.136466 0.000000 0.026773
# 5 -0.004466 -0.005748 0.002518 0.000000 0.027061 0.000000
# 6 0.000000 0.000000 0.000000 0.026773 0.000000 0.074931
#
#
# Mechanical properties :
#
#
# Convention : Reuss Voigt Hill
#
# Bulk Modulus (GPa) = 29.76469 53.59812 41.68140
# Shear Modulus (GPa) = 16.98837 34.67477 25.83157
#
# Velocity S-wave (km/s) = 2.58006 3.68604 3.18148
# Velocity P-wave (km/s) = 4.53194 6.25441 5.46151
#
# Compressibility (1/GPa) = 0.03359686
#
# Stress axis : x y z
#
# Youngs Moduli (GPa) = 65.51017 51.93748 216.86733
#
# Poissons Ratio (x) = -0.08953 0.43596
# Poissons Ratio (y) = -0.11293 0.53786
# Poissons Ratio (z) = 0.13169 0.12881
#
# Static dielectric constant tensor:
#      x y z
#    x 2.031210 0.000000 -0.037250 
#    y 0.000000 2.148820 0.000000 
#    z -0.037250 0.000000 2.119730 
# 
# From -- ./inp_files/112037.got.cif
#   From: 2010.05.17/outbox.cif.g08.bks.cpg/sg15_57_cif.got.tgz:112037.got - 2010.06.03 18:47:42.
