data_PCOD9301624
_publ_section_title
;
Structure prediction by ZEFSAII (Michael W. Deem and Ramdas Pophale) SiO2 
 PCOD9301624
Probable space group: C 2/C
;
_chemical_formula_sum "Si O2"
_cell_formula_units_Z 48
_cell_length_a 31.415346
_cell_length_b 14.909415
_cell_length_c 13.770530
_cell_angle_alpha 90.000000
_cell_angle_beta 162.077322
_cell_angle_gamma 90.000000
_cell_volume 1984.849198
_symmetry_space_group_name_H-M "C 2/C"
_symmetry_group_IT_number 15
_symmetry_cell_setting 'monoclinic'
loop_
_space_group_symop_operation_xyz
x,y,z
-x,y,1/2-z
-x,-y,-z
x,-y,1/2+z
1/2+x,1/2+y,z
1/2-x,1/2+y,1/2-z
1/2-x,1/2-y,-z
1/2+x,1/2-y,1/2+z
loop_
_atom_site_type_symbol
_atom_site_label
_atom_site_fract_x
_atom_site_fract_y
_atom_site_fract_z
Si Si1 0.311190 0.090110 0.341246
Si Si2 0.432325 0.090568 0.393566
Si Si3 0.498705 0.562481 0.589889
Si Si4 0.267489 0.218394 0.765739
Si Si5 0.545794 0.766721 0.004282
Si Si6 0.218899 0.053788 0.773583
O O1 0.404008 0.091976 0.446420
O O2 0.307832 0.186857 0.384907
O O3 0.329265 0.006661 0.453199
O O4 0.154383 0.074314 0.963928
O O5 0.521702 0.172633 0.545734
O O6 0.500000 0.000000 0.500000
O O7 0.286231 0.093295 0.018026
O O8 0.500000 0.500000 0.500000
O O9 0.441794 0.661862 0.446637
O O10 0.400165 0.513321 0.452484
O O11 0.181423 0.135540 0.621369
O O12 0.326161 0.204250 0.785202
O O13 0.406599 0.222562 0.135646
#
# Coordination Sequence:
#
# PCOD9301624 Si02
#       6
#     8   8   8   8   8   8
#     4  11  22  39  64  91 123 158 205 253 309 365
#     4  11  24  40  61  89 121 167 207 248 301 374
#     4  11  21  37  63  94 121 156 203 259 310 362
#     4   9  19  35  61  88 117 162 201 248 304 368
#     4   9  19  37  59  87 123 159 203 249 302 369
#     4  11  22  39  64  89 122 158 206 255 304 365
#
# _framework density 24.183197
#
# number of rings (size 3 to 8) (size 9 to 14) (size 15 to 20)
#    0.000    1.667    3.333    1.500    2.333    4.000 
#    0.000    2.500    3.667    0.000    0.000    0.000 
#    0.000    0.000    0.000    0.000    0.000    0.000 
#
# Total GULP energy -134418.183365 kJ/mol
# GULP energy per Si atom -5600.757640 kJ/mol
# Density = 2.412816 g / cm^3
# Si number density = 24.183197 Si / 1000 Ang^3
#
#
#
# Elastic Constant Matrix: (Units=GPa)
#
#
# Indices 1 2 3 4 5 6 
#
# 1 182.8685 60.0406 30.7268 0.0000 28.6076 0.0000
# 2 60.0406 160.6274 21.5923 0.0000 18.6586 0.0000
# 3 30.7268 21.5923 64.9393 0.0000 9.0808 0.0000
# 4 0.0000 0.0000 0.0000 24.3501 0.0000 13.2553
# 5 28.6076 18.6586 9.0808 0.0000 35.2212 0.0000
# 6 0.0000 0.0000 0.0000 13.2553 0.0000 48.0565
#
#
#
# Elastic Compliance Matrix: (Units=1/GPa)
#
#
# Indices 1 2 3 4 5 6 
#
# 1 0.007106 -0.001877 -0.002148 0.000000 -0.004224 0.000000
# 2 -0.001877 0.007334 -0.001266 0.000000 -0.002034 0.000000
# 3 -0.002148 -0.001266 0.017115 0.000000 -0.001998 0.000000
# 4 0.000000 0.000000 0.000000 0.048323 0.000000 -0.013329
# 5 -0.004224 -0.002034 -0.001998 0.000000 0.033415 0.000000
# 6 0.000000 0.000000 0.000000 -0.013329 0.000000 0.024485
#
#
# Mechanical properties :
#
#
# Convention : Reuss Voigt Hill
#
# Bulk Modulus (GPa) = 47.67721 70.35052 59.01387
# Shear Modulus (GPa) = 32.18497 41.26391 36.72444
#
# Velocity S-wave (km/s) = 3.65208 4.13523 3.90114
# Velocity P-wave (km/s) = 6.12711 7.20791 6.68937
#
# Compressibility (1/GPa) = 0.02097438
#
# Stress axis : x y z
#
# Youngs Moduli (GPa) = 140.72022 136.35852 58.42663
#
# Poissons Ratio (x) = 0.25593 0.12548
# Poissons Ratio (y) = 0.26412 0.07396
# Poissons Ratio (z) = 0.30223 0.17262
#
# Static dielectric constant tensor:
#      x y z
#    x 1.911400 0.000000 -0.034230 
#    y 0.000000 1.875380 0.000000 
#    z -0.034230 0.000000 2.063850 
# 
# From -- ./inp_files/143675.got.cif
#   From: 2010.05.17/outbox.cif.g08.bks.cpg/sg15_72_cif.got.tgz:143675.got - 2010.06.03 18:47:42.
