data_PCOD9301986
_publ_section_title
;
Structure prediction by ZEFSAII (Michael W. Deem and Ramdas Pophale) SiO2 
 PCOD9301986
Probable space group: C 2/C
;
_chemical_formula_sum "Si O2"
_cell_formula_units_Z 64
_cell_length_a 26.424006
_cell_length_b 9.570506
_cell_length_c 10.931694
_cell_angle_alpha 90.000000
_cell_angle_beta 89.049089
_cell_angle_gamma 90.000000
_cell_volume 2764.147479
_symmetry_space_group_name_H-M "C 2/C"
_symmetry_group_IT_number 15
_symmetry_cell_setting 'monoclinic'
loop_
_space_group_symop_operation_xyz
x,y,z
-x,y,1/2-z
-x,-y,-z
x,-y,1/2+z
1/2+x,1/2+y,z
1/2-x,1/2+y,1/2-z
1/2-x,1/2-y,-z
1/2+x,1/2-y,1/2+z
loop_
_atom_site_type_symbol
_atom_site_label
_atom_site_fract_x
_atom_site_fract_y
_atom_site_fract_z
Si Si1 0.032134 0.493353 0.124448
Si Si2 0.097230 0.282283 0.509989
Si Si3 0.873710 0.952200 0.343708
Si Si4 0.785066 0.228275 0.212714
Si Si5 0.709064 0.524583 0.975382
Si Si6 0.102755 0.742817 0.723296
Si Si7 0.673216 0.770941 0.827644
Si Si8 0.687216 0.032441 0.955562
O O1 0.071206 0.361572 0.137379
O O2 0.000000 0.492598 0.250000
O O3 0.061746 0.637472 0.104743
O O4 0.000000 0.500000 0.000000
O O5 0.099642 0.120240 0.542149
O O6 0.087605 0.293450 0.364676
O O7 0.150458 0.363827 0.527265
O O8 0.863858 0.822814 0.252939
O O9 0.817682 0.989714 0.395735
O O10 0.902622 0.090650 0.299981
O O11 0.835909 0.271027 0.284366
O O12 0.730094 0.203271 0.272154
O O13 0.779466 0.362144 0.126216
O O14 0.799890 0.096951 0.125020
O O15 0.682662 0.666419 0.938279
O O16 0.769278 0.545434 0.972323
O O17 0.656076 0.921645 0.876534
#
# Coordination Sequence:
#
# PCOD9301986 Si02
#       8
#     8   8   8   8   8   8   8   8
#     4  12  28  56  87 114 146 183 238 324 409 477
#     4  11  26  47  75 112 146 192 256 312 381 458
#     4  12  23  44  67 104 153 202 243 305 365 444
#     4  11  21  41  59  95 145 203 253 307 363 427
#     4  12  22  41  57  94 153 202 258 298 350 425
#     4  11  25  48  75 107 150 192 249 310 381 459
#     4  12  24  35  61  96 149 205 263 295 354 419
#     4  11  23  37  61  98 142 206 258 312 352 420
#
# _framework density 23.153611000000001
#
# number of rings (size 3 to 8) (size 9 to 14) (size 15 to 20)
#    0.000    0.500    6.250    3.000    7.000    0.000 
#    2.250    1.250    0.000    0.000    0.000    0.000 
#    0.000    0.000    0.000    0.000    0.000    0.000 
#
# Total GULP energy -178668.760986 kJ/mol
# GULP energy per Si atom -5583.398781 kJ/mol
# Density = 2.310091 g / cm^3
# Si number density = 23.153611 Si / 1000 Ang^3
#
#
#
# Elastic Constant Matrix: (Units=GPa)
#
#
# Indices 1 2 3 4 5 6 
#
# 1 60.2803 21.5651 36.8393 0.0000 1.9149 0.0000
# 2 21.5651 120.5906 34.7587 0.0000 -13.6642 0.0000
# 3 36.8393 34.7587 84.3513 0.0000 4.9191 0.0000
# 4 0.0000 0.0000 0.0000 40.5324 0.0000 5.0434
# 5 1.9149 -13.6642 4.9191 0.0000 23.4911 0.0000
# 6 0.0000 0.0000 0.0000 5.0434 0.0000 22.6678
#
#
#
# Elastic Compliance Matrix: (Units=1/GPa)
#
#
# Indices 1 2 3 4 5 6 
#
# 1 0.022840 -0.001487 -0.009317 0.000000 -0.000776 0.000000
# 2 -0.001487 0.010551 -0.004114 0.000000 0.007120 0.000000
# 3 -0.009317 -0.004114 0.017934 0.000000 -0.005389 0.000000
# 4 0.000000 0.000000 0.000000 0.025374 0.000000 -0.005646
# 5 -0.000776 0.007120 -0.005389 0.000000 0.047902 0.000000
# 6 0.000000 0.000000 0.000000 -0.005646 0.000000 0.045372
#
#
# Mechanical properties :
#
#
# Convention : Reuss Voigt Hill
#
# Bulk Modulus (GPa) = 46.53466 50.17203 48.35334
# Shear Modulus (GPa) = 24.15812 28.80887 26.48350
#
# Velocity S-wave (km/s) = 3.23365 3.53122 3.38571
# Velocity P-wave (km/s) = 5.83814 6.19211 6.01773
#
# Compressibility (1/GPa) = 0.02148936
#
# Stress axis : x y z
#
# Youngs Moduli (GPa) = 43.78359 94.77928 55.76130
#
# Poissons Ratio (x) = 0.14091 0.51953
# Poissons Ratio (y) = 0.06510 0.22938
# Poissons Ratio (z) = 0.40793 0.38988
#
# Static dielectric constant tensor:
#      x y z
#    x 1.916910 0.000000 0.085790 
#    y 0.000000 1.892880 0.000000 
#    z 0.085790 0.000000 2.012950 
# 
# From -- ./inp_files/125935.got.cif
#   From: 2010.05.17/outbox.cif.g08.bks.cpg/sg15_63_cif.got.tgz:125935.got - 2010.06.03 18:47:42.
