data_PCOD9301376
_publ_section_title
;
Structure prediction by ZEFSAII (Michael W. Deem and Ramdas Pophale) SiO2 
 PCOD9301376
Probable space group: C 2/C
;
_chemical_formula_sum "Si O2"
_cell_formula_units_Z 32
_cell_length_a 5.711822
_cell_length_b 13.985449
_cell_length_c 17.474728
_cell_angle_alpha 90.000000
_cell_angle_beta 103.785050
_cell_angle_gamma 90.000000
_cell_volume 1355.715639
_symmetry_space_group_name_H-M "C 2/C"
_symmetry_group_IT_number 15
_symmetry_cell_setting 'monoclinic'
loop_
_space_group_symop_operation_xyz
x,y,z
-x,y,1/2-z
-x,-y,-z
x,-y,1/2+z
1/2+x,1/2+y,z
1/2-x,1/2+y,1/2-z
1/2-x,1/2-y,-z
1/2+x,1/2-y,1/2+z
loop_
_atom_site_type_symbol
_atom_site_label
_atom_site_fract_x
_atom_site_fract_y
_atom_site_fract_z
Si Si1 0.722381 0.167164 0.708797
Si Si2 0.163356 0.329648 0.879280
Si Si3 0.076530 0.182972 0.536618
Si Si4 0.956845 0.528219 0.584592
O O1 0.500000 0.149201 0.750000
O O2 0.719157 0.279366 0.684603
O O3 0.652163 0.103537 0.629566
O O4 0.000000 0.142885 0.750000
O O5 0.047802 0.433326 0.864292
O O6 0.980216 0.249037 0.895329
O O7 0.352144 0.338068 0.964059
O O8 0.250000 0.250000 0.500000
O O9 0.206962 0.085712 0.569042
O O10 0.000000 0.500000 0.500000
#
# Coordination Sequence:
#
# PCOD9301376 Si02
#       4
#     8   8   8   8
#     4  12  29  52  73 106 159 207 258 318 387 472
#     4  11  24  44  72 104 147 197 240 308 388 444
#     4  11  20  42  72 112 147 177 240 316 372 449
#     4  12  24  46  80 115 144 197 260 323 383 454
#
# _framework density 23.603770999999998
#
# number of rings (size 3 to 8) (size 9 to 14) (size 15 to 20)
#    0.000    0.500    5.000    3.750    0.000    3.000 
#    0.000    7.500    0.000    0.000    0.000    0.000 
#    0.000    0.000    0.000    0.000    0.000    0.000 
#
# Total GULP energy -89541.349742 kJ/mol
# GULP energy per Si atom -5596.334359 kJ/mol
# Density = 2.355005 g / cm^3
# Si number density = 23.603771 Si / 1000 Ang^3
#
#
#
# Elastic Constant Matrix: (Units=GPa)
#
#
# Indices 1 2 3 4 5 6 
#
# 1 106.9224 36.6871 37.7282 0.0000 -4.0579 0.0000
# 2 36.6871 139.1843 14.1669 0.0000 -3.9030 0.0000
# 3 37.7282 14.1669 74.2357 0.0000 0.7402 0.0000
# 4 0.0000 0.0000 0.0000 32.3410 0.0000 -2.1760
# 5 -4.0579 -3.9030 0.7402 0.0000 35.4498 0.0000
# 6 0.0000 0.0000 0.0000 -2.1760 0.0000 49.4902
#
#
#
# Elastic Compliance Matrix: (Units=1/GPa)
#
#
# Indices 1 2 3 4 5 6 
#
# 1 0.012343 -0.002630 -0.005783 0.000000 0.001244 0.000000
# 2 -0.002630 0.007912 -0.000179 0.000000 0.000574 0.000000
# 3 -0.005783 -0.000179 0.016454 0.000000 -0.001025 0.000000
# 4 0.000000 0.000000 0.000000 0.031012 0.000000 0.001364
# 5 0.001244 0.000574 -0.001025 0.000000 0.028436 0.000000
# 6 0.000000 0.000000 0.000000 0.001364 0.000000 0.020266
#
#
# Mechanical properties :
#
#
# Convention : Reuss Voigt Hill
#
# Bulk Modulus (GPa) = 51.21756 55.27853 53.24805
# Shear Modulus (GPa) = 35.68459 38.90689 37.29574
#
# Velocity S-wave (km/s) = 3.89243 4.06437 3.97933
# Velocity P-wave (km/s) = 6.47668 6.74505 6.61222
#
# Compressibility (1/GPa) = 0.01952455
#
# Stress axis : x y z
#
# Youngs Moduli (GPa) = 81.01840 126.38647 60.77444
#
# Poissons Ratio (x) = 0.33238 0.35149
# Poissons Ratio (y) = 0.21307 0.01089
# Poissons Ratio (z) = 0.46857 0.02264
#
# Static dielectric constant tensor:
#      x y z
#    x 1.934850 0.000000 -0.018320 
#    y 0.000000 1.863640 0.000000 
#    z -0.018320 0.000000 1.967250 
# 
# From -- ./inp_files/183717.got.cif
#   From: 2010.05.17/outbox.cif.g08.bks.cpg/sg15_92_cif.got.tgz:183717.got - 2010.06.03 18:47:42.
