data_PCOD9301138
_publ_section_title
;
Structure prediction by ZEFSAII (Michael W. Deem and Ramdas Pophale) SiO2 
 PCOD9301138
Probable space group: C 2/C
;
_chemical_formula_sum "Si O2"
_cell_formula_units_Z 56
_cell_length_a 8.500766
_cell_length_b 24.636762
_cell_length_c 18.111774
_cell_angle_alpha 90.000000
_cell_angle_beta 135.251894
_cell_angle_gamma 90.000000
_cell_volume 2670.360775
_symmetry_space_group_name_H-M "C 2/C"
_symmetry_group_IT_number 15
_symmetry_cell_setting 'monoclinic'
loop_
_space_group_symop_operation_xyz
x,y,z
-x,y,1/2-z
-x,-y,-z
x,-y,1/2+z
1/2+x,1/2+y,z
1/2-x,1/2+y,1/2-z
1/2-x,1/2-y,-z
1/2+x,1/2-y,1/2+z
loop_
_atom_site_type_symbol
_atom_site_label
_atom_site_fract_x
_atom_site_fract_y
_atom_site_fract_z
Si Si1 0.776413 0.493328 0.133113
Si Si2 0.380034 0.113837 0.140356
Si Si3 0.752727 0.123722 0.139314
Si Si4 0.577160 0.045269 0.970467
Si Si5 0.850488 0.690756 0.532076
Si Si6 0.762530 0.135920 0.710343
Si Si7 0.908508 0.877937 0.425507
O O1 0.775833 0.558310 0.143200
O O2 0.602433 0.444345 0.087164
O O3 0.000000 0.474897 0.250000
O O4 0.818511 0.486192 0.061592
O O5 0.500000 0.142661 0.250000
O O6 0.574341 0.107869 0.143232
O O7 0.164363 0.138167 0.027383
O O8 0.000000 0.133566 0.250000
O O9 0.757406 0.077113 0.078866
O O10 0.670726 0.172239 0.060077
O O11 0.385194 0.085224 0.872814
O O12 0.500000 0.000000 0.000000
O O13 0.750000 0.750000 0.500000
O O14 0.730898 0.649499 0.552708
O O15 0.110170 0.687082 0.638987
O O16 0.805432 0.138127 0.812315
O O17 0.000000 0.134313 0.750000
#
# Coordination Sequence:
#
# PCOD9301138 Si02
#       7
#     8   8   8   8   8   8   8
#     4  11  20  38  61  95 131 176 220 258 310 387
#     4  11  25  39  60  96 139 179 216 259 320 392
#     4  11  23  42  62  88 129 169 214 267 327 391
#     4  11  21  38  58  94 137 176 220 257 316 378
#     4  11  25  46  71  96 123 164 220 285 349 400
#     4  11  24  43  69  98 137 173 226 279 329 397
#     4  12  21  43  68  94 130 175 220 277 326 393
#
# _framework density 20.970948
#
# number of rings (size 3 to 8) (size 9 to 14) (size 15 to 20)
#    0.000    0.857    5.714    3.429    0.000    1.714 
#    0.000    5.000    0.000    0.000    0.000    0.000 
#    0.000    0.000    0.000    0.000    0.000    0.000 
#
# Total GULP energy -155883.911994 kJ/mol
# GULP energy per Si atom -5567.282571 kJ/mol
# Density = 2.092322 g / cm^3
# Si number density = 20.970948 Si / 1000 Ang^3
#
#
#
# Elastic Constant Matrix: (Units=GPa)
#
#
# Indices 1 2 3 4 5 6 
#
# 1 73.0973 11.2654 52.4079 0.0000 -1.2995 0.0000
# 2 11.2654 65.0505 18.0474 0.0000 -2.2418 0.0000
# 3 52.4079 18.0474 188.9832 0.0000 -3.1269 0.0000
# 4 0.0000 0.0000 0.0000 8.9351 0.0000 8.8066
# 5 -1.2995 -2.2418 -3.1269 0.0000 45.5677 0.0000
# 6 0.0000 0.0000 0.0000 8.8066 0.0000 20.9191
#
#
#
# Elastic Compliance Matrix: (Units=1/GPa)
#
#
# Indices 1 2 3 4 5 6 
#
# 1 0.017258 -0.001703 -0.004622 0.000000 0.000091 0.000000
# 2 -0.001703 0.015980 -0.001043 0.000000 0.000666 0.000000
# 3 -0.004622 -0.001043 0.006677 0.000000 0.000275 0.000000
# 4 0.000000 0.000000 0.000000 0.191291 0.000000 -0.080531
# 5 0.000091 0.000666 0.000275 0.000000 0.022000 0.000000
# 6 0.000000 0.000000 0.000000 -0.080531 0.000000 0.081705
#
#
# Mechanical properties :
#
#
# Convention : Reuss Voigt Hill
#
# Bulk Modulus (GPa) = 39.71443 54.50805 47.11124
# Shear Modulus (GPa) = 13.96490 31.44506 22.70498
#
# Velocity S-wave (km/s) = 2.58334 3.87648 3.29399
# Velocity P-wave (km/s) = 5.27988 6.78858 6.08120
#
# Compressibility (1/GPa) = 0.02517976
#
# Stress axis : x y z
#
# Youngs Moduli (GPa) = 57.94354 62.57873 149.76135
#
# Poissons Ratio (x) = 0.10659 0.69216
# Poissons Ratio (y) = 0.09870 0.15615
# Poissons Ratio (z) = 0.26780 0.06525
#
# Static dielectric constant tensor:
#      x y z
#    x 1.754180 0.000000 0.040280 
#    y 0.000000 1.921750 0.000000 
#    z 0.040280 0.000000 1.738490 
# 
# From -- ./inp_files/193847.got.cif
#   From: 2010.05.17/outbox.cif.g08.bks.cpg/sg15_97_cif.got.tgz:193847.got - 2010.06.03 18:47:42.
