data_PCOD9301827
_publ_section_title
;
Structure prediction by ZEFSAII (Michael W. Deem and Ramdas Pophale) SiO2 
 PCOD9301827
Probable space group: C 2/C
;
_chemical_formula_sum "Si O2"
_cell_formula_units_Z 40
_cell_length_a 18.800929
_cell_length_b 8.801976
_cell_length_c 10.981352
_cell_angle_alpha 90.000000
_cell_angle_beta 108.231344
_cell_angle_gamma 90.000000
_cell_volume 1726.028431
_symmetry_space_group_name_H-M "C 2/C"
_symmetry_group_IT_number 15
_symmetry_cell_setting 'monoclinic'
loop_
_space_group_symop_operation_xyz
x,y,z
-x,y,1/2-z
-x,-y,-z
x,-y,1/2+z
1/2+x,1/2+y,z
1/2-x,1/2+y,1/2-z
1/2-x,1/2-y,-z
1/2+x,1/2-y,1/2+z
loop_
_atom_site_type_symbol
_atom_site_label
_atom_site_fract_x
_atom_site_fract_y
_atom_site_fract_z
Si Si1 0.673761 0.654620 0.299726
Si Si2 0.915948 0.311952 0.657016
Si Si3 0.456262 0.650691 0.455789
Si Si4 0.066650 0.650961 0.888490
Si Si5 0.272592 0.686231 0.647205
O O1 0.597086 0.621302 0.186093
O O2 0.638962 0.746201 0.395587
O O3 0.715691 0.496347 0.348534
O O4 0.718849 0.762253 0.229263
O O5 0.907531 0.190247 0.545824
O O6 0.906317 0.478489 0.594660
O O7 0.851873 0.269750 0.717157
O O8 0.000000 0.299300 0.750000
O O9 0.500000 0.500000 0.500000
O O10 0.517820 0.783885 0.472503
O O11 0.000000 0.653220 0.750000
O O12 0.250000 0.750000 0.500000
#
# Coordination Sequence:
#
# PCOD9301827 Si02
#       5
#     8   8   8   8   8
#     4  11  24  45  66  96 141 180 224 287 343 409
#     4  11  22  42  68  99 136 180 227 281 338 409
#     4  11  21  39  67 100 135 175 232 282 341 405
#     4   9  21  39  65  96 132 175 224 278 336 404
#     4  12  25  46  70 100 141 177 232 284 345 412
#
# _framework density 23.174589000000001
#
# number of rings (size 3 to 8) (size 9 to 14) (size 15 to 20)
#    0.000    1.200    2.000    4.200    0.000    1.600 
#    7.200    2.000    0.000    0.000    0.000    0.000 
#    0.000    0.000    0.000    0.000    0.000    0.000 
#
# Total GULP energy -111706.144050 kJ/mol
# GULP energy per Si atom -5585.307202 kJ/mol
# Density = 2.312184 g / cm^3
# Si number density = 23.174589 Si / 1000 Ang^3
#
#
#
# Elastic Constant Matrix: (Units=GPa)
#
#
# Indices 1 2 3 4 5 6 
#
# 1 120.0269 23.0989 2.6676 0.0000 -13.9629 0.0000
# 2 23.0989 114.9602 1.9863 0.0000 4.3062 0.0000
# 3 2.6676 1.9863 37.0950 0.0000 -1.1735 0.0000
# 4 0.0000 0.0000 0.0000 25.1527 0.0000 -1.7797
# 5 -13.9629 4.3062 -1.1735 0.0000 27.9661 0.0000
# 6 0.0000 0.0000 0.0000 -1.7797 0.0000 41.3221
#
#
#
# Elastic Compliance Matrix: (Units=1/GPa)
#
#
# Indices 1 2 3 4 5 6 
#
# 1 0.009310 -0.002049 -0.000403 0.000000 0.004947 0.000000
# 2 -0.002049 0.009210 -0.000424 0.000000 -0.002459 0.000000
# 3 -0.000403 -0.000424 0.027041 0.000000 0.000999 0.000000
# 4 0.000000 0.000000 0.000000 0.039879 0.000000 0.001718
# 5 0.004947 -0.002459 0.000999 0.000000 0.038648 0.000000
# 6 0.000000 0.000000 0.000000 0.001718 0.000000 0.024274
#
#
# Mechanical properties :
#
#
# Convention : Reuss Voigt Hill
#
# Bulk Modulus (GPa) = 25.11977 36.39861 30.75919
# Shear Modulus (GPa) = 29.87150 35.17679 32.52415
#
# Velocity S-wave (km/s) = 3.59413 3.90025 3.75032
# Velocity P-wave (km/s) = 5.29967 6.00192 5.66169
#
# Compressibility (1/GPa) = 0.03980929
#
# Stress axis : x y z
#
# Youngs Moduli (GPa) = 107.40848 108.57997 36.98075
#
# Poissons Ratio (x) = 0.22248 0.01491
# Poissons Ratio (y) = 0.22008 0.01566
# Poissons Ratio (z) = 0.04332 0.04599
#
# Static dielectric constant tensor:
#      x y z
#    x 2.041120 0.000000 0.130430 
#    y 0.000000 1.837890 0.000000 
#    z 0.130430 0.000000 1.940990 
# 
# From -- ./inp_files/102861.got.cif
#   From: 2010.05.17/outbox.cif.g08.bks.cpg/sg15_52_cif.got.tgz:102861.got - 2010.06.03 18:47:42.
