data_PCOD9301025
_publ_section_title
;
Structure prediction by ZEFSAII (Michael W. Deem and Ramdas Pophale) SiO2 
 PCOD9301025
Probable space group: C 2/C
;
_chemical_formula_sum "Si O2"
_cell_formula_units_Z 56
_cell_length_a 19.293398
_cell_length_b 18.805518
_cell_length_c 13.200576
_cell_angle_alpha 90.000000
_cell_angle_beta 150.578297
_cell_angle_gamma 90.000000
_cell_volume 2352.746199
_symmetry_space_group_name_H-M "C 2/C"
_symmetry_group_IT_number 15
_symmetry_cell_setting 'monoclinic'
loop_
_space_group_symop_operation_xyz
x,y,z
-x,y,1/2-z
-x,-y,-z
x,-y,1/2+z
1/2+x,1/2+y,z
1/2-x,1/2+y,1/2-z
1/2-x,1/2-y,-z
1/2+x,1/2-y,1/2+z
loop_
_atom_site_type_symbol
_atom_site_label
_atom_site_fract_x
_atom_site_fract_y
_atom_site_fract_z
Si Si1 0.257088 0.396229 0.436507
Si Si2 0.708697 0.057861 0.097555
Si Si3 0.998500 0.105041 0.931314
Si Si4 0.000000 0.994334 0.250000
Si Si5 0.800915 0.604620 0.860520
Si Si6 0.418038 0.757144 0.496972
Si Si7 0.884755 0.303077 0.925405
Si Si8 0.500000 0.718641 0.250000
O O1 0.187142 0.417193 0.454046
O O2 0.365788 0.459580 0.549578
O O3 0.168877 0.388414 0.221458
O O4 0.361177 0.329624 0.584861
O O5 0.872182 0.073503 0.338337
O O6 0.631083 0.113900 0.071498
O O7 0.669246 0.975515 0.064577
O O8 0.956507 0.050300 0.791578
O O9 0.866111 0.116986 0.835435
O O10 0.036837 0.176959 0.918829
O O11 0.876425 0.672779 0.007894
O O12 0.267335 0.735268 0.253789
O O13 0.550006 0.783546 0.598749
O O14 0.988049 0.267839 0.137618
#
# Coordination Sequence:
#
# PCOD9301025 Si02
#       8
#     8   8   8   4   8   8   8   4
#     4  11  21  35  63 102 123 167 213 267 323 379
#     4  11  24  38  63  93 134 167 213 262 326 384
#     4  11  21  41  64  99 125 170 217 271 315 379
#     4  11  20  36  70  95 126 162 230 271 310 364
#     4  12  22  41  66  92 133 167 213 270 320 384
#     4  11  23  42  65  93 129 174 213 264 323 381
#     4  11  24  39  63  97 132 173 209 259 331 388
#     4  11  20  36  60  95 132 158 204 269 308 386
#
# _framework density 23.801971999999999
#
# number of rings (size 3 to 8) (size 9 to 14) (size 15 to 20)
#    0.000    0.857    5.714    3.857    2.000    1.714 
#    0.000    0.714    3.143    0.000    0.000    0.000 
#    0.000    0.000    0.000    0.000    0.000    0.000 
#
# Total GULP energy -156475.500585 kJ/mol
# GULP energy per Si atom -5588.410735 kJ/mol
# Density = 2.374780 g / cm^3
# Si number density = 23.801972 Si / 1000 Ang^3
#
#
#
# Elastic Constant Matrix: (Units=GPa)
#
#
# Indices 1 2 3 4 5 6 
#
# 1 52.1133 2.0691 21.9533 0.0000 10.5080 0.0000
# 2 2.0691 176.5562 18.1181 0.0000 10.9083 0.0000
# 3 21.9533 18.1181 42.2732 0.0000 0.1999 0.0000
# 4 0.0000 0.0000 0.0000 7.0755 0.0000 0.5152
# 5 10.5080 10.9083 0.1999 0.0000 25.1324 0.0000
# 6 0.0000 0.0000 0.0000 0.5152 0.0000 32.3234
#
#
#
# Elastic Compliance Matrix: (Units=1/GPa)
#
#
# Indices 1 2 3 4 5 6 
#
# 1 0.028126 0.002026 -0.015415 0.000000 -0.012516 0.000000
# 2 0.002026 0.006239 -0.003709 0.000000 -0.003525 0.000000
# 3 -0.015415 -0.003709 0.033214 0.000000 0.007791 0.000000
# 4 0.000000 0.000000 0.000000 0.141496 0.000000 -0.002255
# 5 -0.012516 -0.003525 0.007791 0.000000 0.046490 0.000000
# 6 0.000000 0.000000 0.000000 -0.002255 0.000000 0.030973
#
#
# Mechanical properties :
#
#
# Convention : Reuss Voigt Hill
#
# Bulk Modulus (GPa) = 29.95719 39.46928 34.71323
# Shear Modulus (GPa) = 15.06643 28.15975 21.61309
#
# Velocity S-wave (km/s) = 2.51866 3.44333 3.01664
# Velocity P-wave (km/s) = 4.59037 5.69448 5.17197
#
# Compressibility (1/GPa) = 0.03338097
#
# Stress axis : x y z
#
# Youngs Moduli (GPa) = 35.55404 160.29227 30.10779
#
# Poissons Ratio (x) = -0.32469 0.46412
# Poissons Ratio (y) = -0.07202 0.11167
# Poissons Ratio (z) = 0.54808 0.59454
#
# Static dielectric constant tensor:
#      x y z
#    x 1.950840 0.000000 -0.009310 
#    y 0.000000 1.923690 0.000000 
#    z -0.009310 0.000000 1.902670 
# 
# From -- ./inp_files/163075.got.cif
#   From: 2010.05.17/outbox.cif.g08.bks.cpg/sg15_82_cif.got.tgz:163075.got - 2010.06.03 18:47:42.
