data_PCOD9301136
_publ_section_title
;
Structure prediction by ZEFSAII (Michael W. Deem and Ramdas Pophale) SiO2 
 PCOD9301136
Probable space group: C 2/C
;
_chemical_formula_sum "Si O2"
_cell_formula_units_Z 60
_cell_length_a 28.898385
_cell_length_b 8.411899
_cell_length_c 14.489386
_cell_angle_alpha 90.000000
_cell_angle_beta 56.868635
_cell_angle_gamma 90.000000
_cell_volume 2949.583859
_symmetry_space_group_name_H-M "C 2/C"
_symmetry_group_IT_number 15
_symmetry_cell_setting 'monoclinic'
loop_
_space_group_symop_operation_xyz
x,y,z
-x,y,1/2-z
-x,-y,-z
x,-y,1/2+z
1/2+x,1/2+y,z
1/2-x,1/2+y,1/2-z
1/2-x,1/2-y,-z
1/2+x,1/2-y,1/2+z
loop_
_atom_site_type_symbol
_atom_site_label
_atom_site_fract_x
_atom_site_fract_y
_atom_site_fract_z
Si Si1 0.691197 0.582914 0.091663
Si Si2 0.000000 0.677902 0.250000
Si Si3 0.411424 0.608252 0.736130
Si Si4 0.299416 0.841157 0.562321
Si Si5 0.630497 0.110400 0.679180
Si Si6 0.977938 0.194615 0.175614
Si Si7 0.856795 0.369254 0.680183
Si Si8 0.457667 0.963626 0.464259
O O1 0.642172 0.455384 0.147973
O O2 0.748255 0.553362 0.082049
O O3 0.665014 0.735269 0.172923
O O4 0.705463 0.662654 0.976671
O O5 0.047496 0.781975 0.248402
O O6 0.028703 0.571864 0.138837
O O7 0.446876 0.454682 0.665776
O O8 0.386798 0.707986 0.678509
O O9 0.352904 0.903268 0.446228
O O10 0.307639 0.839878 0.662211
O O11 0.567287 0.164183 0.760469
O O12 0.650576 0.962520 0.716268
O O13 0.000000 0.137441 0.250000
O O14 0.029609 0.279524 0.072961
O O15 0.898659 0.478794 0.575939
O O16 0.500000 0.000000 0.500000
#
# Coordination Sequence:
#
# PCOD9301136 Si02
#       8
#     8   4   8   8   8   8   8   8
#     4   8  20  44  65  85 124 167 208 257 324 380
#     4  12  24  42  62  90 136 166 210 264 306 380
#     4  11  24  39  61  97 130 156 211 275 312 369
#     4   9  20  41  70  84 122 171 212 252 326 382
#     4   9  19  39  63  85 119 162 209 249 304 387
#     4  11  20  38  61  80 123 174 199 246 319 366
#     4  12  24  37  63  98 121 161 217 266 314 376
#     4  12  24  40  61  89 122 172 214 247 306 395
#
# _framework density 20.341850999999998
#
# number of rings (size 3 to 8) (size 9 to 14) (size 15 to 20)
#    0.800    0.800    4.000    0.800    1.867    1.600 
#    2.400    0.667    0.000    0.000    0.000    0.000 
#    0.000    0.000    0.000    0.000    0.000    0.000 
#
# Total GULP energy -167038.410308 kJ/mol
# GULP energy per Si atom -5567.947010 kJ/mol
# Density = 2.029555 g / cm^3
# Si number density = 20.341851 Si / 1000 Ang^3
#
#
#
# Elastic Constant Matrix: (Units=GPa)
#
#
# Indices 1 2 3 4 5 6 
#
# 1 84.2798 17.4068 3.6212 0.0000 15.1225 0.0000
# 2 17.4068 67.0507 10.7581 0.0000 11.5637 0.0000
# 3 3.6212 10.7581 34.0188 0.0000 9.1761 0.0000
# 4 0.0000 0.0000 0.0000 17.3975 0.0000 -1.0896
# 5 15.1225 11.5637 9.1761 0.0000 38.4819 0.0000
# 6 0.0000 0.0000 0.0000 -1.0896 0.0000 20.3086
#
#
#
# Elastic Compliance Matrix: (Units=1/GPa)
#
#
# Indices 1 2 3 4 5 6 
#
# 1 0.013219 -0.002761 0.000688 0.000000 -0.004529 0.000000
# 2 -0.002761 0.016820 -0.004226 0.000000 -0.002962 0.000000
# 3 0.000688 -0.004226 0.032478 0.000000 -0.006745 0.000000
# 4 0.000000 0.000000 0.000000 0.057673 0.000000 0.003094
# 5 -0.004529 -0.002962 -0.006745 0.000000 0.030264 0.000000
# 6 0.000000 0.000000 0.000000 0.003094 0.000000 0.049406
#
#
# Mechanical properties :
#
#
# Convention : Reuss Voigt Hill
#
# Bulk Modulus (GPa) = 20.03316 27.65794 23.84555
# Shear Modulus (GPa) = 21.82465 25.47512 23.64988
#
# Velocity S-wave (km/s) = 3.27906 3.54270 3.41342
# Velocity P-wave (km/s) = 4.91995 5.51002 5.22333
#
# Compressibility (1/GPa) = 0.04991725
#
# Stress axis : x y z
#
# Youngs Moduli (GPa) = 75.65130 59.45413 30.78989
#
# Poissons Ratio (x) = 0.16415 -0.02117
# Poissons Ratio (y) = 0.20886 0.13013
# Poissons Ratio (z) = -0.05202 0.25128
#
# Static dielectric constant tensor:
#      x y z
#    x 1.789890 0.000000 0.019550 
#    y 0.000000 1.751580 0.000000 
#    z 0.019550 0.000000 2.123790 
# 
# From -- ./inp_files/180524.got.cif
#   From: 2010.05.17/outbox.cif.g08.bks.cpg/sg15_91_cif.got.tgz:180524.got - 2010.06.03 18:47:42.
