data_PCOD9301269
_publ_section_title
;
Structure prediction by ZEFSAII (Michael W. Deem and Ramdas Pophale) SiO2 
 PCOD9301269
Probable space group: C 2/C
;
_chemical_formula_sum "Si O2"
_cell_formula_units_Z 64
_cell_length_a 9.445179
_cell_length_b 16.775674
_cell_length_c 24.829671
_cell_angle_alpha 90.000000
_cell_angle_beta 134.799195
_cell_angle_gamma 90.000000
_cell_volume 2791.662363
_symmetry_space_group_name_H-M "C 2/C"
_symmetry_group_IT_number 15
_symmetry_cell_setting 'monoclinic'
loop_
_space_group_symop_operation_xyz
x,y,z
-x,y,1/2-z
-x,-y,-z
x,-y,1/2+z
1/2+x,1/2+y,z
1/2-x,1/2+y,1/2-z
1/2-x,1/2-y,-z
1/2+x,1/2-y,1/2+z
loop_
_atom_site_type_symbol
_atom_site_label
_atom_site_fract_x
_atom_site_fract_y
_atom_site_fract_z
Si Si1 0.561098 0.382419 0.826601
Si Si2 0.481304 0.109495 0.418723
Si Si3 0.156003 0.287414 0.059402
Si Si4 0.363794 0.607917 0.465472
Si Si5 0.391381 0.264587 0.321881
Si Si6 0.027647 0.276333 0.145241
Si Si7 0.723467 0.064812 0.313418
Si Si8 0.241882 0.605255 0.866689
O O1 0.500000 0.358862 0.750000
O O2 0.769780 0.429886 0.877176
O O3 0.598854 0.301396 0.870522
O O4 0.372430 0.425342 0.803361
O O5 0.573024 0.146085 0.497523
O O6 0.668080 0.067540 0.439577
O O7 0.423414 0.180314 0.360978
O O8 0.137297 0.203002 0.023233
O O9 0.390069 0.296058 0.134673
O O10 0.043217 0.283253 0.085693
O O11 0.337181 0.602642 0.394675
O O12 0.570725 0.580902 0.545739
O O13 0.240741 0.260345 0.231309
O O14 0.300990 0.325989 0.340563
O O15 0.930694 0.355689 0.143839
O O16 0.500000 0.100767 0.250000
O O17 0.694914 0.973193 0.320966
#
# Coordination Sequence:
#
# PCOD9301269 Si02
#       8
#     8   8   8   8   8   8   8   8
#     4  12  23  42  68 100 128 171 229 285 331 394
#     4  11  21  40  67  96 134 168 221 285 339 383
#     4  11  22  37  65 105 135 168 222 288 339 388
#     4  11  22  43  69  95 135 181 223 275 337 408
#     4  11  20  40  65  97 131 180 215 278 340 396
#     4  12  23  37  69 101 136 168 234 281 330 400
#     4  12  28  44  67  97 138 178 225 276 342 418
#     4  12  24  46  66  96 135 182 223 271 345 405
#
# _framework density 22.925408000000001
#
# number of rings (size 3 to 8) (size 9 to 14) (size 15 to 20)
#    0.000    0.500    6.250    3.375    3.500    1.000 
#    0.000    4.375    0.000    0.000    0.000    0.000 
#    0.000    0.000    0.000    0.000    0.000    0.000 
#
# Total GULP energy -179037.323706 kJ/mol
# GULP energy per Si atom -5594.916366 kJ/mol
# Density = 2.287323 g / cm^3
# Si number density = 22.925408 Si / 1000 Ang^3
#
#
#
# Elastic Constant Matrix: (Units=GPa)
#
#
# Indices 1 2 3 4 5 6 
#
# 1 157.4693 14.0921 36.2751 0.0000 -0.2602 0.0000
# 2 14.0921 39.2400 -3.6883 0.0000 4.6551 0.0000
# 3 36.2751 -3.6883 98.4151 0.0000 3.7638 0.0000
# 4 0.0000 0.0000 0.0000 13.2143 0.0000 0.3099
# 5 -0.2602 4.6551 3.7638 0.0000 42.9120 0.0000
# 6 0.0000 0.0000 0.0000 0.3099 0.0000 23.1883
#
#
#
# Elastic Compliance Matrix: (Units=1/GPa)
#
#
# Indices 1 2 3 4 5 6 
#
# 1 0.007262 -0.002945 -0.002811 0.000000 0.000610 0.000000
# 2 -0.002945 0.027125 0.002223 0.000000 -0.003155 0.000000
# 3 -0.002811 0.002223 0.011328 0.000000 -0.001252 0.000000
# 4 0.000000 0.000000 0.000000 0.075699 0.000000 -0.001012
# 5 0.000610 -0.003155 -0.001252 0.000000 0.023759 0.000000
# 6 0.000000 0.000000 0.000000 -0.001012 0.000000 0.043139
#
#
# Mechanical properties :
#
#
# Convention : Reuss Voigt Hill
#
# Bulk Modulus (GPa) = 25.87306 43.16471 34.51889
# Shear Modulus (GPa) = 24.00826 32.42595 28.21710
#
# Velocity S-wave (km/s) = 3.23961 3.76495 3.51211
# Velocity P-wave (km/s) = 5.03028 6.14565 5.61572
#
# Compressibility (1/GPa) = 0.03865024
#
# Stress axis : x y z
#
# Youngs Moduli (GPa) = 137.69506 36.86649 88.27559
#
# Poissons Ratio (x) = 0.10856 0.24810
# Poissons Ratio (y) = 0.40546 -0.19620
# Poissons Ratio (z) = 0.38700 -0.08194
#
# Static dielectric constant tensor:
#      x y z
#    x 1.892750 0.000000 0.053530 
#    y 0.000000 1.886110 0.000000 
#    z 0.053530 0.000000 1.851030 
# 
# From -- ./inp_files/266132.got.cif
#   From: 2010.05.17/outbox.cif.g08.bks.cpg/sg15_134_cif.got.tgz:266132.got - 2010.06.03 18:47:42.
