data_PCOD9301403
_publ_section_title
;
Structure prediction by ZEFSAII (Michael W. Deem and Ramdas Pophale) SiO2 
 PCOD9301403
Probable space group: C 2/C
;
_chemical_formula_sum "Si O2"
_cell_formula_units_Z 44
_cell_length_a 16.126341
_cell_length_b 8.706317
_cell_length_c 17.583862
_cell_angle_alpha 90.000000
_cell_angle_beta 47.779360
_cell_angle_gamma 90.000000
_cell_volume 1828.295287
_symmetry_space_group_name_H-M "C 2/C"
_symmetry_group_IT_number 15
_symmetry_cell_setting 'monoclinic'
loop_
_space_group_symop_operation_xyz
x,y,z
-x,y,1/2-z
-x,-y,-z
x,-y,1/2+z
1/2+x,1/2+y,z
1/2-x,1/2+y,1/2-z
1/2-x,1/2-y,-z
1/2+x,1/2-y,1/2+z
loop_
_atom_site_type_symbol
_atom_site_label
_atom_site_fract_x
_atom_site_fract_y
_atom_site_fract_z
Si Si1 0.500000 0.544176 0.250000
Si Si2 0.989295 0.270867 0.397552
Si Si3 0.193061 0.794236 0.113690
Si Si4 0.543274 0.954368 0.653818
Si Si5 0.403762 0.242475 0.117271
Si Si6 0.785742 0.426510 0.197738
O O1 0.496992 0.639654 0.330343
O O2 0.609129 0.436462 0.173467
O O3 0.106690 0.363948 0.323884
O O4 0.903728 0.412530 0.431302
O O5 0.960589 0.224200 0.501471
O O6 0.116422 0.644996 0.168805
O O7 0.281792 0.824848 0.124030
O O8 0.250000 0.750000 0.000000
O O9 0.500000 0.062949 0.750000
O O10 0.489585 0.829042 0.627567
O O11 0.331787 0.387800 0.189807
O O12 0.312669 0.103910 0.166154
#
# Coordination Sequence:
#
# PCOD9301403 Si02
#       6
#     4   8   8   8   8   8
#     4  12  26  46  66 102 136 170 224 280 320 390
#     4  11  25  45  68  97 135 177 219 274 336 387
#     4  12  24  43  69  99 134 176 221 269 328 394
#     4  11  20  43  70  91 134 179 213 270 332 393
#     4  11  23  43  67  98 133 175 219 274 337 389
#     4  11  23  42  68  97 133 172 225 275 325 395
#
# _framework density 24.066134999999999
#
# number of rings (size 3 to 8) (size 9 to 14) (size 15 to 20)
#    0.000    0.727    3.636    5.455    0.000    1.455 
#    0.000    8.182    0.000    0.000    0.000    0.000 
#    0.000    0.000    0.000    0.000    0.000    0.000 
#
# Total GULP energy -122587.837247 kJ/mol
# GULP energy per Si atom -5572.174420 kJ/mol
# Density = 2.401136 g / cm^3
# Si number density = 24.066135 Si / 1000 Ang^3
#
#
#
# Elastic Constant Matrix: (Units=GPa)
#
#
# Indices 1 2 3 4 5 6 
#
# 1 68.2278 36.2794 32.7717 0.0000 24.2691 0.0000
# 2 36.2794 82.1263 32.4382 0.0000 7.9114 0.0000
# 3 32.7717 32.4382 159.3237 0.0000 37.2530 0.0000
# 4 0.0000 0.0000 0.0000 28.5383 0.0000 9.2765
# 5 24.2691 7.9114 37.2530 0.0000 39.9541 0.0000
# 6 0.0000 0.0000 0.0000 9.2765 0.0000 31.0532
#
#
#
# Elastic Compliance Matrix: (Units=1/GPa)
#
#
# Indices 1 2 3 4 5 6 
#
# 1 0.024279 -0.009463 -0.000073 0.000000 -0.012805 0.000000
# 2 -0.009463 0.016930 -0.002635 0.000000 0.004852 0.000000
# 3 -0.000073 -0.002635 0.008562 0.000000 -0.007417 0.000000
# 4 0.000000 0.000000 0.000000 0.038809 0.000000 -0.011593
# 5 -0.012805 0.004852 -0.007417 0.000000 0.038762 0.000000
# 6 0.000000 0.000000 0.000000 -0.011593 0.000000 0.035666
#
#
# Mechanical properties :
#
#
# Convention : Reuss Voigt Hill
#
# Bulk Modulus (GPa) = 39.32518 56.96182 48.14350
# Shear Modulus (GPa) = 25.53289 33.78837 29.66063
#
# Velocity S-wave (km/s) = 3.26075 3.75104 3.51445
# Velocity P-wave (km/s) = 5.52744 6.51772 6.04290
#
# Compressibility (1/GPa) = 0.02542900
#
# Stress axis : x y z
#
# Youngs Moduli (GPa) = 41.18869 59.06731 116.78972
#
# Poissons Ratio (x) = 0.55893 0.00855
# Poissons Ratio (y) = 0.38975 0.30776
# Poissons Ratio (z) = 0.00301 0.15565
#
# Static dielectric constant tensor:
#      x y z
#    x 1.818700 0.000000 0.383910 
#    y 0.000000 1.734090 0.000000 
#    z 0.383910 0.000000 1.294190 
# 
# From -- ./inp_files/209418.got.cif
#   From: 2010.05.17/outbox.cif.g08.bks.cpg/sg15_105_cif.got.tgz:209418.got - 2010.06.03 18:47:42.
