data_PCOD9301322
_publ_section_title
;
Structure prediction by ZEFSAII (Michael W. Deem and Ramdas Pophale) SiO2 
 PCOD9301322
Probable space group: C 2/C
;
_chemical_formula_sum "Si O2"
_cell_formula_units_Z 44
_cell_length_a 12.531249
_cell_length_b 23.540393
_cell_length_c 10.386854
_cell_angle_alpha 90.000000
_cell_angle_beta 130.379717
_cell_angle_gamma 90.000000
_cell_volume 2334.074148
_symmetry_space_group_name_H-M "C 2/C"
_symmetry_group_IT_number 15
_symmetry_cell_setting 'monoclinic'
loop_
_space_group_symop_operation_xyz
x,y,z
-x,y,1/2-z
-x,-y,-z
x,-y,1/2+z
1/2+x,1/2+y,z
1/2-x,1/2+y,1/2-z
1/2-x,1/2-y,-z
1/2+x,1/2-y,1/2+z
loop_
_atom_site_type_symbol
_atom_site_label
_atom_site_fract_x
_atom_site_fract_y
_atom_site_fract_z
Si Si1 0.593502 0.018178 0.449000
Si Si2 0.166687 0.601348 0.910532
Si Si3 0.239881 0.711210 0.118445
Si Si4 0.244631 0.625803 0.684869
Si Si5 0.000000 0.182298 0.750000
Si Si6 0.436127 0.759998 0.477400
O O1 0.500000 0.032181 0.250000
O O2 0.684481 0.071769 0.562086
O O3 0.500000 0.000000 0.500000
O O4 0.678956 0.962177 0.473766
O O5 0.243168 0.611191 0.835026
O O6 0.000000 0.610406 0.750000
O O7 0.218051 0.647275 0.053329
O O8 0.373551 0.724099 0.310087
O O9 0.250000 0.750000 0.000000
O O10 0.101102 0.729690 0.087339
O O11 0.395008 0.644494 0.751097
O O12 0.142027 0.679715 0.584626
O O13 0.914758 0.223542 0.588475
#
# Coordination Sequence:
#
# PCOD9301322 Si02
#       6
#     8   8   8   8   4   8
#     4  11  22  40  70 102 127 169 232 280 332 387
#     4  11  20  41  67  99 129 165 228 278 331 396
#     4  12  21  38  69  99 132 174 217 279 343 400
#     4  12  24  43  66  93 138 174 218 285 327 401
#     4  12  28  44  58 100 138 182 220 272 344 408
#     4  12  24  41  65  96 138 175 220 270 339 406
#
# _framework density 18.851158000000002
#
# number of rings (size 3 to 8) (size 9 to 14) (size 15 to 20)
#    0.000    0.364    9.091    1.091    1.273    1.455 
#    0.000    0.909    4.000    0.000    0.000    0.000 
#    0.000    0.000    0.000    0.000    0.000    0.000 
#
# Total GULP energy -123017.057523 kJ/mol
# GULP energy per Si atom -5591.684433 kJ/mol
# Density = 1.880825 g / cm^3
# Si number density = 18.851158 Si / 1000 Ang^3
#
#
#
# Elastic Constant Matrix: (Units=GPa)
#
#
# Indices 1 2 3 4 5 6 
#
# 1 104.0589 28.4661 1.0607 0.0000 -24.9126 0.0000
# 2 28.4661 152.2534 46.3594 0.0000 -9.4167 0.0000
# 3 1.0607 46.3594 92.9109 0.0000 -25.7069 0.0000
# 4 0.0000 0.0000 0.0000 43.5588 0.0000 -9.2887
# 5 -24.9126 -9.4167 -25.7069 0.0000 24.2957 0.0000
# 6 0.0000 0.0000 0.0000 -9.2887 0.0000 23.4436
#
#
#
# Elastic Compliance Matrix: (Units=1/GPa)
#
#
# Indices 1 2 3 4 5 6 
#
# 1 0.016560 -0.004232 0.008720 0.000000 0.024567 0.000000
# 2 -0.004232 0.008867 -0.006540 0.000000 -0.007823 0.000000
# 3 0.008720 -0.006540 0.022198 0.000000 0.029893 0.000000
# 4 0.000000 0.000000 0.000000 0.025076 0.000000 0.009936
# 5 0.024567 -0.007823 0.029893 0.000000 0.094948 0.000000
# 6 0.000000 0.000000 0.000000 0.009936 0.000000 0.046592
#
#
# Mechanical properties :
#
#
# Convention : Reuss Voigt Hill
#
# Bulk Modulus (GPa) = 22.97806 55.66617 39.32212
# Shear Modulus (GPa) = 21.47280 36.48208 28.97744
#
# Velocity S-wave (km/s) = 3.37867 4.40394 3.92493
# Velocity P-wave (km/s) = 5.23796 7.44668 6.43775
#
# Compressibility (1/GPa) = 0.04351977
#
# Stress axis : x y z
#
# Youngs Moduli (GPa) = 60.38597 112.77983 45.04929
#
# Poissons Ratio (x) = 0.47726 -0.39281
# Poissons Ratio (y) = 0.25554 0.29464
# Poissons Ratio (z) = -0.52654 0.73763
#
# Static dielectric constant tensor:
#      x y z
#    x 1.656570 0.000000 -0.010170 
#    y 0.000000 1.640420 0.000000 
#    z -0.010170 0.000000 1.675100 
# 
# From -- ./inp_files/32445.got.cif
#   From: 2010.05.17/outbox.cif.g08.bks.cpg/sg15_17_cif.got.tgz:32445.got - 2010.06.03 18:47:42.
