data_PCOD9301804
_publ_section_title
;
Structure prediction by ZEFSAII (Michael W. Deem and Ramdas Pophale) SiO2 
 PCOD9301804
Probable space group: C 2/C
;
_chemical_formula_sum "Si O2"
_cell_formula_units_Z 48
_cell_length_a 16.496331
_cell_length_b 26.363298
_cell_length_c 10.217549
_cell_angle_alpha 90.000000
_cell_angle_beta 31.603665
_cell_angle_gamma 90.000000
_cell_volume 2328.619814
_symmetry_space_group_name_H-M "C 2/C"
_symmetry_group_IT_number 15
_symmetry_cell_setting 'monoclinic'
loop_
_space_group_symop_operation_xyz
x,y,z
-x,y,1/2-z
-x,-y,-z
x,-y,1/2+z
1/2+x,1/2+y,z
1/2-x,1/2+y,1/2-z
1/2-x,1/2-y,-z
1/2+x,1/2-y,1/2+z
loop_
_atom_site_type_symbol
_atom_site_label
_atom_site_fract_x
_atom_site_fract_y
_atom_site_fract_z
Si Si1 0.000000 0.560035 0.750000
Si Si2 0.656934 0.101910 0.292247
Si Si3 0.674137 0.213840 0.219092
Si Si4 0.963795 0.204417 0.956393
Si Si5 0.991691 0.906485 0.477504
Si Si6 0.751766 0.017047 0.996326
Si Si7 0.000000 0.050316 0.250000
O O1 0.035550 0.595061 0.576033
O O2 0.149740 0.523435 0.557848
O O3 0.645761 0.154833 0.229206
O O4 0.832399 0.094639 0.110841
O O5 0.634999 0.055434 0.224889
O O6 0.522352 0.246280 0.449080
O O7 0.750000 0.250000 0.000000
O O8 0.779540 0.208433 0.202374
O O9 0.000000 0.204010 0.750000
O O10 0.038342 0.152568 0.904050
O O11 0.117944 0.947361 0.252846
O O12 0.969541 0.919388 0.659561
O O13 0.849596 0.985276 0.968335
#
# Coordination Sequence:
#
# PCOD9301804 Si02
#       7
#     4   8   8   8   8   8   4
#     4  12  26  40  55  94 139 162 196 258 328 362
#     4  11  22  41  64  90 128 167 203 257 319 367
#     4   9  18  36  61  89 114 147 196 254 303 357
#     4   9  18  36  61  88 115 145 194 255 302 360
#     4  11  21  39  65  89 115 166 214 256 303 367
#     4  12  22  41  63  89 121 167 217 255 300 368
#     4  12  22  36  63  86 119 158 218 252 288 380
#
# _framework density 20.613068999999999
#
# number of rings (size 3 to 8) (size 9 to 14) (size 15 to 20)
#    0.000    1.333    3.333    5.000    0.000    0.000 
#   10.500    0.833    0.000    4.000    0.000    0.000 
#    0.000    0.000    0.000    0.000    0.000    0.000 
#
# Total GULP energy -133603.947479 kJ/mol
# GULP energy per Si atom -5566.831145 kJ/mol
# Density = 2.056615 g / cm^3
# Si number density = 20.613069 Si / 1000 Ang^3
#
#
#
# Elastic Constant Matrix: (Units=GPa)
#
#
# Indices 1 2 3 4 5 6 
#
# 1 39.7731 43.2070 0.4216 0.0011 -1.3674 0.0004
# 2 43.2070 138.9326 23.0362 -0.0004 5.2633 0.0000
# 3 0.4216 23.0362 50.1056 0.0023 12.0780 0.0010
# 4 0.0011 -0.0004 0.0023 3.3769 -0.0012 -14.1211
# 5 -1.3674 5.2633 12.0780 -0.0012 30.6162 -0.0003
# 6 0.0004 0.0000 0.0010 -14.1211 -0.0003 33.9902
#
#
#
# Elastic Compliance Matrix: (Units=1/GPa)
#
#
# Indices 1 2 3 4 5 6 
#
# 1 0.039548 -0.013250 0.005287 0.000027 0.001958 0.000011
# 2 -0.013250 0.012231 -0.005373 -0.000014 -0.000575 -0.000006
# 3 0.005287 -0.005373 0.024427 0.000035 -0.008477 0.000014
# 4 0.000027 -0.000014 0.000035 -0.401661 -0.000027 -0.166868
# 5 0.001958 -0.000575 -0.008477 -0.000027 0.036193 -0.000011
# 6 0.000011 -0.000006 0.000014 -0.166868 -0.000011 -0.039904
#
#
# Mechanical properties :
#
#
# Convention : Reuss Voigt Hill
#
# Bulk Modulus (GPa) = 20.18844 40.23789 30.21317
# Shear Modulus (GPa) = -17.48355 24.40643 3.46144
#
# Velocity S-wave (km/s) = -2.91551 3.44470 1.29726
# Velocity P-wave (km/s) = 1.23220 5.94847 4.11497
#
# Compressibility (1/GPa) = 0.04953329
#
# Stress axis : x y z
#
# Youngs Moduli (GPa) = 25.28586 81.75908 40.93829
#
# Poissons Ratio (x) = 1.08330 -0.21643
# Poissons Ratio (y) = 0.33503 0.21997
# Poissons Ratio (z) = -0.13368 0.43931
#
# Static dielectric constant tensor:
#      x y z
#    x 1.807770 0.000000 -0.150840 
#    y 0.000000 1.804330 0.000000 
#    z -0.150840 0.000000 1.964900 
# 
# From -- ./inp_files/114219.got.cif
#   From: 2010.05.17/outbox.cif.g08.bks.cpg/sg15_58_cif.got.tgz:114219.got - 2010.06.03 18:47:42.
