data_PCOD9301866
_publ_section_title
;
Structure prediction by ZEFSAII (Michael W. Deem and Ramdas Pophale) SiO2 
 PCOD9301866
Probable space group: C 2/C
;
_chemical_formula_sum "Si O2"
_cell_formula_units_Z 56
_cell_length_a 23.004657
_cell_length_b 7.875579
_cell_length_c 18.702260
_cell_angle_alpha 90.000000
_cell_angle_beta 133.247082
_cell_angle_gamma 90.000000
_cell_volume 2468.117200
_symmetry_space_group_name_H-M "C 2/C"
_symmetry_group_IT_number 15
_symmetry_cell_setting 'monoclinic'
loop_
_space_group_symop_operation_xyz
x,y,z
-x,y,1/2-z
-x,-y,-z
x,-y,1/2+z
1/2+x,1/2+y,z
1/2-x,1/2+y,1/2-z
1/2-x,1/2-y,-z
1/2+x,1/2-y,1/2+z
loop_
_atom_site_type_symbol
_atom_site_label
_atom_site_fract_x
_atom_site_fract_y
_atom_site_fract_z
Si Si1 0.458050 0.184356 0.338692
Si Si2 0.251491 0.386980 0.661326
Si Si3 0.372202 0.888725 0.204552
Si Si4 0.500000 0.500000 0.000000
Si Si5 0.856979 0.113476 0.854657
Si Si6 0.979309 0.824362 0.624898
Si Si7 0.123084 0.492376 0.452748
Si Si8 0.000000 0.903223 0.250000
O O1 0.441694 0.310307 0.391642
O O2 0.445783 0.289786 0.255613
O O3 0.393455 0.033336 0.281378
O O4 0.547817 0.112274 0.409418
O O5 0.302708 0.243107 0.663449
O O6 0.192945 0.271889 0.660475
O O7 0.306653 0.506590 0.756345
O O8 0.201977 0.507940 0.566165
O O9 0.452645 0.777832 0.273904
O O10 0.362334 0.979920 0.119797
O O11 0.403228 0.494393 0.948664
O O12 0.479412 0.372856 0.914300
O O13 0.908104 0.695523 0.553670
O O14 0.955585 0.981076 0.654862
#
# Coordination Sequence:
#
# PCOD9301866 Si02
#       8
#     8   8   8   4   8   8   8   4
#     4  11  23  42  68  97 131 171 236 273 329 393
#     4  12  26  45  66  98 146 176 221 272 362 399
#     4  11  21  44  67  98 133 176 219 280 336 415
#     4  12  22  42  66  98 128 172 242 268 326 400
#     4  12  27  45  66  99 135 185 219 283 332 415
#     4  11  21  39  72  95 130 173 234 272 330 393
#     4  11  23  42  70 102 125 179 225 285 328 404
#     4  12  18  38  68  98 128 164 222 296 314 384
#
# _framework density 22.689361000000002
#
# number of rings (size 3 to 8) (size 9 to 14) (size 15 to 20)
#    0.000    0.571    7.143    2.143    0.000    1.714 
#    0.000    0.714    0.000    0.000    0.000    0.000 
#    0.000    0.000    0.000    0.000    0.000    0.000 
#
# Total GULP energy -155928.207356 kJ/mol
# GULP energy per Si atom -5568.864548 kJ/mol
# Density = 2.263772 g / cm^3
# Si number density = 22.689361 Si / 1000 Ang^3
#
#
#
# Elastic Constant Matrix: (Units=GPa)
#
#
# Indices 1 2 3 4 5 6 
#
# 1 68.2593 14.7838 29.1319 0.0000 -2.9824 0.0000
# 2 14.7838 69.5451 26.7752 0.0000 -4.3766 0.0000
# 3 29.1319 26.7752 139.8507 0.0000 16.1227 0.0000
# 4 0.0000 0.0000 0.0000 25.5154 0.0000 -1.3192
# 5 -2.9824 -4.3766 16.1227 0.0000 32.0722 0.0000
# 6 0.0000 0.0000 0.0000 -1.3192 0.0000 45.8544
#
#
#
# Elastic Compliance Matrix: (Units=1/GPa)
#
#
# Indices 1 2 3 4 5 6 
#
# 1 0.016687 -0.002037 -0.003432 0.000000 0.002999 0.000000
# 2 -0.002037 0.016229 -0.003096 0.000000 0.003581 0.000000
# 3 -0.003432 -0.003096 0.009069 0.000000 -0.005301 0.000000
# 4 0.000000 0.000000 0.000000 0.039250 0.000000 0.001129
# 5 0.002999 0.003581 -0.005301 0.000000 0.034612 0.000000
# 6 0.000000 0.000000 0.000000 0.001129 0.000000 0.021841
#
#
# Mechanical properties :
#
#
# Convention : Reuss Voigt Hill
#
# Bulk Modulus (GPa) = 40.23169 46.55965 43.39567
# Shear Modulus (GPa) = 30.65546 34.48603 32.57075
#
# Velocity S-wave (km/s) = 3.67971 3.90285 3.79292
# Velocity P-wave (km/s) = 5.98529 6.39333 6.19267
#
# Compressibility (1/GPa) = 0.02485603
#
# Stress axis : x y z
#
# Youngs Moduli (GPa) = 59.92739 61.61621 110.26463
#
# Poissons Ratio (x) = 0.12553 0.37839
# Poissons Ratio (y) = 0.12209 0.34135
# Poissons Ratio (z) = 0.20565 0.19075
#
# Static dielectric constant tensor:
#      x y z
#    x 1.902740 0.000000 -0.070540 
#    y 0.000000 1.436810 0.000000 
#    z -0.070540 0.000000 1.300750 
# 
# From -- ./inp_files/218705.got.cif
#   From: 2010.05.17/outbox.cif.g08.bks.cpg/sg15_110_cif.got.tgz:218705.got - 2010.06.03 18:47:42.
