data_PCOD9301390
_publ_section_title
;
Structure prediction by ZEFSAII (Michael W. Deem and Ramdas Pophale) SiO2 
 PCOD9301390
Probable space group: C 2/C
;
_chemical_formula_sum "Si O2"
_cell_formula_units_Z 56
_cell_length_a 20.730894
_cell_length_b 18.323995
_cell_length_c 8.077760
_cell_angle_alpha 90.000000
_cell_angle_beta 118.224767
_cell_angle_gamma 90.000000
_cell_volume 2703.671356
_symmetry_space_group_name_H-M "C 2/C"
_symmetry_group_IT_number 15
_symmetry_cell_setting 'monoclinic'
loop_
_space_group_symop_operation_xyz
x,y,z
-x,y,1/2-z
-x,-y,-z
x,-y,1/2+z
1/2+x,1/2+y,z
1/2-x,1/2+y,1/2-z
1/2-x,1/2-y,-z
1/2+x,1/2-y,1/2+z
loop_
_atom_site_type_symbol
_atom_site_label
_atom_site_fract_x
_atom_site_fract_y
_atom_site_fract_z
Si Si1 0.808757 0.776993 0.706941
Si Si2 0.288229 0.562332 0.857300
Si Si3 0.582300 0.667159 0.421057
Si Si4 0.972465 0.422448 0.406084
Si Si5 0.901935 0.674943 0.375844
Si Si6 0.768719 0.409094 0.838158
Si Si7 0.841595 0.635930 0.942441
O O1 0.750000 0.750000 0.500000
O O2 0.874272 0.813406 0.691214
O O3 0.770164 0.836020 0.774069
O O4 0.837809 0.710006 0.839818
O O5 0.266434 0.478186 0.797139
O O6 0.239720 0.603325 0.660639
O O7 0.370736 0.596918 0.952776
O O8 0.254831 0.581266 0.998242
O O9 0.500000 0.655091 0.250000
O O10 0.594575 0.741335 0.550239
O O11 0.015423 0.353618 0.532701
O O12 0.000000 0.418554 0.250000
O O13 0.000000 0.500000 0.500000
O O14 0.892062 0.416239 0.389222
O O15 0.853502 0.617328 0.429302
O O16 0.869736 0.656152 0.156993
#
# Coordination Sequence:
#
# PCOD9301390 Si02
#       7
#     8   8   8   8   8   8   8
#     4  11  20  43  65  92 127 168 220 262 327 387
#     4  11  23  41  62  94 128 172 221 269 336 388
#     4  11  23  43  68  92 129 180 223 270 330 394
#     4  12  25  41  61  90 134 174 211 262 329 395
#     4  12  23  38  64  98 127 169 222 267 334 392
#     4  11  22  39  64  90 129 165 218 271 324 390
#     4  12  23  39  64  94 134 166 215 275 316 400
#
# _framework density 20.712578000000001
#
# number of rings (size 3 to 8) (size 9 to 14) (size 15 to 20)
#    0.000    0.571    4.286    6.000    0.000    3.429 
#    0.000    2.857    0.000    1.714    0.000    0.000 
#    0.000    0.000    0.000    0.000    0.000    0.000 
#
# Total GULP energy -155916.106315 kJ/mol
# GULP energy per Si atom -5568.432368 kJ/mol
# Density = 2.066544 g / cm^3
# Si number density = 20.712578 Si / 1000 Ang^3
#
#
#
# Elastic Constant Matrix: (Units=GPa)
#
#
# Indices 1 2 3 4 5 6 
#
# 1 92.2077 15.7174 39.7727 0.0000 26.4880 0.0000
# 2 15.7174 102.2083 19.6970 0.0000 16.5917 0.0000
# 3 39.7727 19.6970 107.1020 0.0000 5.1527 0.0000
# 4 0.0000 0.0000 0.0000 40.8295 0.0000 -2.8812
# 5 26.4880 16.5917 5.1527 0.0000 38.6812 0.0000
# 6 0.0000 0.0000 0.0000 -2.8812 0.0000 -12.3686
#
#
#
# Elastic Compliance Matrix: (Units=1/GPa)
#
#
# Indices 1 2 3 4 5 6 
#
# 1 0.016208 0.000281 -0.005567 0.000000 -0.010478 0.000000
# 2 0.000281 0.010849 -0.001879 0.000000 -0.004596 0.000000
# 3 -0.005567 -0.001879 0.011602 0.000000 0.003072 0.000000
# 4 0.000000 0.000000 0.000000 0.024096 0.000000 -0.005613
# 5 -0.010478 -0.004596 0.003072 0.000000 0.034590 0.000000
# 6 0.000000 0.000000 0.000000 -0.005613 0.000000 -0.079543
#
#
# Mechanical properties :
#
#
# Convention : Reuss Voigt Hill
#
# Bulk Modulus (GPa) = 41.09990 50.21024 45.65507
# Shear Modulus (GPa) = 124.25507 28.51715 76.38611
#
# Velocity S-wave (km/s) = 7.75373 3.71456 6.07940
# Velocity P-wave (km/s) = 10.00233 6.53386 8.44801
#
# Compressibility (1/GPa) = 0.02433096
#
# Stress axis : x y z
#
# Youngs Moduli (GPa) = 61.69704 92.17662 86.19399
#
# Poissons Ratio (x) = -0.02592 0.47981
# Poissons Ratio (y) = -0.01735 0.16192
# Poissons Ratio (z) = 0.34344 0.17315
#
# Static dielectric constant tensor:
#      x y z
#    x 1.983100 0.000000 -0.542290 
#    y 0.000000 1.752820 0.000000 
#    z -0.542290 0.000000 4.590460 
# 
# From -- ./inp_files/56710.got.cif
#   From: 2010.05.17/outbox.cif.g08.bks.cpg/sg15_29_cif.got.tgz:56710.got - 2010.06.03 18:47:42.
