data_PCOD9301717
_publ_section_title
;
Structure prediction by ZEFSAII (Michael W. Deem and Ramdas Pophale) SiO2 
 PCOD9301717
Probable space group: C 2/C
;
_chemical_formula_sum "Si O2"
_cell_formula_units_Z 64
_cell_length_a 8.203998
_cell_length_b 16.584189
_cell_length_c 27.334963
_cell_angle_alpha 90.000000
_cell_angle_beta 124.532104
_cell_angle_gamma 90.000000
_cell_volume 3063.829854
_symmetry_space_group_name_H-M "C 2/C"
_symmetry_group_IT_number 15
_symmetry_cell_setting 'monoclinic'
loop_
_space_group_symop_operation_xyz
x,y,z
-x,y,1/2-z
-x,-y,-z
x,-y,1/2+z
1/2+x,1/2+y,z
1/2-x,1/2+y,1/2-z
1/2-x,1/2-y,-z
1/2+x,1/2-y,1/2+z
loop_
_atom_site_type_symbol
_atom_site_label
_atom_site_fract_x
_atom_site_fract_y
_atom_site_fract_z
Si Si1 0.123553 0.968223 0.221707
Si Si2 0.982803 0.313889 0.829376
Si Si3 0.184366 0.220568 0.194770
Si Si4 0.511635 0.105017 0.672471
Si Si5 0.426348 0.350832 0.367942
Si Si6 0.583641 0.413062 0.876888
Si Si7 0.004759 0.535540 0.099794
Si Si8 0.873277 0.977829 0.026076
O O1 0.350803 0.953326 0.272115
O O2 0.033983 0.891203 0.178272
O O3 0.000000 0.983755 0.250000
O O4 0.098062 0.039069 0.178619
O O5 0.780687 0.308688 0.762650
O O6 0.970792 0.243095 0.868098
O O7 0.157656 0.297078 0.820768
O O8 0.026380 0.398155 0.863208
O O9 0.142120 0.315130 0.189565
O O10 0.978066 0.177686 0.144875
O O11 0.303409 0.131122 0.659567
O O12 0.483323 0.053863 0.618335
O O13 0.545174 0.401926 0.428730
O O14 0.609735 0.444026 0.936113
O O15 0.777528 0.444625 0.882499
O O16 0.845855 0.542079 0.029660
O O17 0.000000 0.000000 0.000000
#
# Coordination Sequence:
#
# PCOD9301717 Si02
#       8
#     8   8   8   8   8   8   8   8
#     4  11  21  38  64  99 135 169 217 278 345 418
#     4  11  25  44  68 103 140 178 224 279 356 405
#     4  11  25  43  66 103 145 173 218 287 345 424
#     4  12  23  40  69 100 135 178 221 278 350 407
#     4  11  24  41  70  97 137 180 223 281 346 408
#     4  11  25  43  68  99 136 184 226 281 349 403
#     4  12  25  44  71  97 134 184 233 284 332 407
#     4  11  24  47  70  96 138 179 242 286 330 398
#
# _framework density 20.888888000000001
#
# number of rings (size 3 to 8) (size 9 to 14) (size 15 to 20)
#    0.000    0.750    3.750    3.750    3.500    1.500 
#    0.000    0.625    0.000    0.000    0.000    0.000 
#    0.000    0.000    0.000    0.000    0.000    0.000 
#
# Total GULP energy -178912.397883 kJ/mol
# GULP energy per Si atom -5591.012434 kJ/mol
# Density = 2.084134 g / cm^3
# Si number density = 20.888888 Si / 1000 Ang^3
#
#
#
# Elastic Constant Matrix: (Units=GPa)
#
#
# Indices 1 2 3 4 5 6 
#
# 1 46.8792 -7.8554 25.0288 0.0000 -4.4206 0.0000
# 2 -7.8554 55.8903 39.1366 0.0000 -0.1638 0.0000
# 3 25.0288 39.1366 134.9360 0.0000 2.1745 0.0000
# 4 0.0000 0.0000 0.0000 28.0965 0.0000 1.1214
# 5 -4.4206 -0.1638 2.1745 0.0000 31.6296 0.0000
# 6 0.0000 0.0000 0.0000 1.1214 0.0000 26.9129
#
#
#
# Elastic Compliance Matrix: (Units=1/GPa)
#
#
# Indices 1 2 3 4 5 6 
#
# 1 0.027559 0.009432 -0.007919 0.000000 0.004445 0.000000
# 2 0.009432 0.025690 -0.009234 0.000000 0.002086 0.000000
# 3 -0.007919 -0.009234 0.011589 0.000000 -0.001951 0.000000
# 4 0.000000 0.000000 0.000000 0.035651 0.000000 -0.001485
# 5 0.004445 0.002086 -0.001951 0.000000 0.032382 0.000000
# 6 0.000000 0.000000 0.000000 -0.001485 0.000000 0.037219
#
#
# Mechanical properties :
#
#
# Convention : Reuss Voigt Hill
#
# Bulk Modulus (GPa) = 20.24474 38.92504 29.58489
# Shear Modulus (GPa) = 24.75264 29.42082 27.08673
#
# Velocity S-wave (km/s) = 3.44607 3.75699 3.60489
# Velocity P-wave (km/s) = 5.05436 6.12330 5.61433
#
# Compressibility (1/GPa) = 0.04939554
#
# Stress axis : x y z
#
# Youngs Moduli (GPa) = 36.28583 38.92556 86.28510
#
# Poissons Ratio (x) = -0.36713 0.68329
# Poissons Ratio (y) = -0.34224 0.79677
# Poissons Ratio (z) = 0.28735 0.35944
#
# Static dielectric constant tensor:
#      x y z
#    x 1.763660 0.000000 0.005480 
#    y 0.000000 1.808070 0.000000 
#    z 0.005480 0.000000 1.755240 
# 
# From -- ./inp_files/308302.got.cif
#   From: 2010.05.17/outbox.cif.g08.bks.cpg/sg15_155_cif.got.tgz:308302.got - 2010.06.03 18:47:42.
