data_PCOD9301442
_publ_section_title
;
Structure prediction by ZEFSAII (Michael W. Deem and Ramdas Pophale) SiO2 
 PCOD9301442
Probable space group: C 2/C
;
_chemical_formula_sum "Si O2"
_cell_formula_units_Z 44
_cell_length_a 15.648705
_cell_length_b 15.586709
_cell_length_c 8.653163
_cell_angle_alpha 90.000000
_cell_angle_beta 62.584960
_cell_angle_gamma 90.000000
_cell_volume 1873.575810
_symmetry_space_group_name_H-M "C 2/C"
_symmetry_group_IT_number 15
_symmetry_cell_setting 'monoclinic'
loop_
_space_group_symop_operation_xyz
x,y,z
-x,y,1/2-z
-x,-y,-z
x,-y,1/2+z
1/2+x,1/2+y,z
1/2-x,1/2+y,1/2-z
1/2-x,1/2-y,-z
1/2+x,1/2-y,1/2+z
loop_
_atom_site_type_symbol
_atom_site_label
_atom_site_fract_x
_atom_site_fract_y
_atom_site_fract_z
Si Si1 0.000000 0.729448 0.750000
Si Si2 0.894206 0.818969 0.114720
Si Si3 0.178514 0.303025 0.280718
Si Si4 0.397597 0.481783 0.316934
Si Si5 0.890680 0.649273 0.324862
Si Si6 0.791002 0.899173 0.693570
O O1 0.907678 0.677351 0.764980
O O2 0.037058 0.785565 0.576027
O O3 0.785463 0.828726 0.142398
O O4 0.919625 0.907366 0.174194
O O5 0.894109 0.744426 0.245350
O O6 0.156308 0.342435 0.467058
O O7 0.184020 0.199976 0.296930
O O8 0.500000 0.527972 0.250000
O O9 0.357641 0.435760 0.501568
O O10 0.316803 0.544339 0.318914
O O11 0.818858 0.597251 0.274007
O O12 0.000000 0.618154 0.250000
#
# Coordination Sequence:
#
# PCOD9301442 Si02
#       6
#     4   8   8   8   8   8
#     4  12  24  34  62 106 128 162 210 278 318 370
#     4  11  22  41  67  96 132 167 217 262 323 376
#     4  11  22  42  67  93 132 170 218 266 316 382
#     4  12  24  42  64  97 135 174 203 262 329 393
#     4  11  20  46  74  89 118 179 225 264 313 385
#     4  11  25  41  64  96 132 170 213 262 321 388
#
# _framework density 23.484504999999999
#
# number of rings (size 3 to 8) (size 9 to 14) (size 15 to 20)
#    0.000    0.727    5.455    3.818    3.818    0.000 
#    0.000    0.909    2.000    0.000    0.000    0.000 
#    0.000    0.000    0.000    0.000    0.000    0.000 
#
# Total GULP energy -123315.738735 kJ/mol
# GULP energy per Si atom -5605.260852 kJ/mol
# Density = 2.343105 g / cm^3
# Si number density = 23.484505 Si / 1000 Ang^3
#
#
#
# Elastic Constant Matrix: (Units=GPa)
#
#
# Indices 1 2 3 4 5 6 
#
# 1 179.4377 11.4378 -2.1876 0.0000 -26.9971 0.0000
# 2 11.4378 28.7392 -1.4712 0.0000 8.7669 0.0000
# 3 -2.1876 -1.4712 47.6218 0.0000 -4.0547 0.0000
# 4 0.0000 0.0000 0.0000 -0.1459 0.0000 3.3801
# 5 -26.9971 8.7669 -4.0547 0.0000 41.2784 0.0000
# 6 0.0000 0.0000 0.0000 3.3801 0.0000 15.5101
#
#
#
# Elastic Compliance Matrix: (Units=1/GPa)
#
#
# Indices 1 2 3 4 5 6 
#
# 1 0.006649 -0.004234 0.000627 0.000000 0.005310 0.000000
# 2 -0.004234 0.039913 0.000082 0.000000 -0.011238 0.000000
# 3 0.000627 0.000082 0.021241 0.000000 0.002479 0.000000
# 4 0.000000 0.000000 0.000000 -1.133081 0.000000 0.246930
# 5 0.005310 -0.011238 0.002479 0.000000 0.030329 0.000000
# 6 0.000000 0.000000 0.000000 0.246930 0.000000 0.010661
#
#
# Mechanical properties :
#
#
# Convention : Reuss Voigt Hill
#
# Bulk Modulus (GPa) = 16.46021 30.15074 23.30547
# Shear Modulus (GPa) = -5.01512 27.86316 11.42402
#
# Velocity S-wave (km/s) = -1.46292 3.44822 2.20795
# Velocity P-wave (km/s) = 2.04222 5.35911 4.05529
#
# Compressibility (1/GPa) = 0.06075256
#
# Stress axis : x y z
#
# Youngs Moduli (GPa) = 150.39086 25.05446 47.07834
#
# Poissons Ratio (x) = 0.10608 -0.02951
# Poissons Ratio (y) = 0.63675 -0.00385
# Poissons Ratio (z) = -0.09425 -0.00205
#
# Static dielectric constant tensor:
#      x y z
#    x 1.946000 0.000000 0.028200 
#    y 0.000000 1.853430 0.000000 
#    z 0.028200 0.000000 1.847350 
# 
# From -- ./inp_files/48875.got.cif
#   From: 2010.05.17/outbox.cif.g08.bks.cpg/sg15_25_cif.got.tgz:48875.got - 2010.06.03 18:47:42.
