data_PCOD9301251
_publ_section_title
;
Structure prediction by ZEFSAII (Michael W. Deem and Ramdas Pophale) SiO2 
 PCOD9301251
Probable space group: C 2/C
;
_chemical_formula_sum "Si O2"
_cell_formula_units_Z 40
_cell_length_a 13.190010
_cell_length_b 14.008053
_cell_length_c 12.723987
_cell_angle_alpha 90.000000
_cell_angle_beta 125.103473
_cell_angle_gamma 90.000000
_cell_volume 1923.359203
_symmetry_space_group_name_H-M "C 2/C"
_symmetry_group_IT_number 15
_symmetry_cell_setting 'monoclinic'
loop_
_space_group_symop_operation_xyz
x,y,z
-x,y,1/2-z
-x,-y,-z
x,-y,1/2+z
1/2+x,1/2+y,z
1/2-x,1/2+y,1/2-z
1/2-x,1/2-y,-z
1/2+x,1/2-y,1/2+z
loop_
_atom_site_type_symbol
_atom_site_label
_atom_site_fract_x
_atom_site_fract_y
_atom_site_fract_z
Si Si1 0.250133 0.638167 0.890536
Si Si2 0.000000 0.709269 0.250000
Si Si3 0.764293 0.154523 0.135733
Si Si4 0.513071 0.633595 0.940544
Si Si5 0.500000 0.522089 0.250000
Si Si6 0.215176 0.579349 0.316883
O O1 0.206468 0.737050 0.811522
O O2 0.398722 0.637975 0.954053
O O3 0.207041 0.533845 0.829672
O O4 0.207987 0.653554 0.985775
O O5 0.996926 0.776439 0.144643
O O6 0.880849 0.641132 0.174079
O O7 0.686080 0.104437 0.179067
O O8 0.882956 0.089297 0.189665
O O9 0.499791 0.544504 0.852709
O O10 0.645964 0.617297 0.074233
#
# Coordination Sequence:
#
# PCOD9301251 Si02
#       6
#     8   4   8   8   4   8
#     4  11  23  42  68 101 129 170 213 270 329 384
#     4  11  26  43  64  98 134 171 216 271 328 382
#     4  11  23  39  67 101 134 159 220 272 320 375
#     4  11  22  42  71  96 124 172 230 259 314 394
#     4  11  20  39  72  98 124 175 216 271 310 384
#     4  12  23  44  68  94 131 175 216 269 324 390
#
# _framework density 20.796946999999999
#
# number of rings (size 3 to 8) (size 9 to 14) (size 15 to 20)
#    0.000    0.800    6.000    2.400    0.000    0.800 
#    3.600    1.000    0.000    0.000    0.000    0.000 
#    0.000    0.000    0.000    0.000    0.000    0.000 
#
# Total GULP energy -111643.407417 kJ/mol
# GULP energy per Si atom -5582.170371 kJ/mol
# Density = 2.074961 g / cm^3
# Si number density = 20.796947 Si / 1000 Ang^3
#
#
#
# Elastic Constant Matrix: (Units=GPa)
#
#
# Indices 1 2 3 4 5 6 
#
# 1 48.6622 37.0666 6.9719 0.0000 -10.1966 0.0000
# 2 37.0666 195.0918 28.7646 0.0000 -12.2295 0.0000
# 3 6.9719 28.7646 50.5927 0.0000 -22.7643 0.0000
# 4 0.0000 0.0000 0.0000 31.1718 0.0000 -0.2269
# 5 -10.1966 -12.2295 -22.7643 0.0000 28.3598 0.0000
# 6 0.0000 0.0000 0.0000 -0.2269 0.0000 36.9558
#
#
#
# Elastic Compliance Matrix: (Units=1/GPa)
#
#
# Indices 1 2 3 4 5 6 
#
# 1 0.025829 -0.004825 0.003798 0.000000 0.010255 0.000000
# 2 -0.004825 0.006497 -0.003990 0.000000 -0.002136 0.000000
# 3 0.003798 -0.003990 0.033422 0.000000 0.026473 0.000000
# 4 0.000000 0.000000 0.000000 0.032082 0.000000 0.000197
# 5 0.010255 -0.002136 0.026473 0.000000 0.059277 0.000000
# 6 0.000000 0.000000 0.000000 0.000197 0.000000 0.027061
#
#
# Mechanical properties :
#
#
# Convention : Reuss Voigt Hill
#
# Bulk Modulus (GPa) = 17.94843 48.88366 33.41605
# Shear Modulus (GPa) = 23.49922 34.06704 28.78313
#
# Velocity S-wave (km/s) = 3.36510 4.05171 3.72426
# Velocity P-wave (km/s) = 4.87315 6.74127 5.88185
#
# Compressibility (1/GPa) = 0.05571518
#
# Stress axis : x y z
#
# Youngs Moduli (GPa) = 38.71549 153.92083 29.92010
#
# Poissons Ratio (x) = 0.74261 -0.11363
# Poissons Ratio (y) = 0.18679 0.11938
# Poissons Ratio (z) = -0.14703 0.61413
#
# Static dielectric constant tensor:
#      x y z
#    x 1.703360 0.000000 0.020170 
#    y 0.000000 1.756860 0.000000 
#    z 0.020170 0.000000 1.708130 
# 
# From -- ./inp_files/85567.got.cif
#   From: 2010.05.17/outbox.cif.g08.bks.cpg/sg15_43_cif.got.tgz:85567.got - 2010.06.03 18:47:42.
