data_PCOD9301427
_publ_section_title
;
Structure prediction by ZEFSAII (Michael W. Deem and Ramdas Pophale) SiO2 
 PCOD9301427
Probable space group: C 2/C
;
_chemical_formula_sum "Si O2"
_cell_formula_units_Z 56
_cell_length_a 8.910456
_cell_length_b 11.976875
_cell_length_c 27.357349
_cell_angle_alpha 90.000000
_cell_angle_beta 62.289165
_cell_angle_gamma 90.000000
_cell_volume 2584.703439
_symmetry_space_group_name_H-M "C 2/C"
_symmetry_group_IT_number 15
_symmetry_cell_setting 'monoclinic'
loop_
_space_group_symop_operation_xyz
x,y,z
-x,y,1/2-z
-x,-y,-z
x,-y,1/2+z
1/2+x,1/2+y,z
1/2-x,1/2+y,1/2-z
1/2-x,1/2-y,-z
1/2+x,1/2-y,1/2+z
loop_
_atom_site_type_symbol
_atom_site_label
_atom_site_fract_x
_atom_site_fract_y
_atom_site_fract_z
Si Si1 0.252229 0.992366 0.161250
Si Si2 0.497165 0.909888 0.957151
Si Si3 0.450217 0.247294 0.967208
Si Si4 0.753090 0.095844 0.093574
Si Si5 0.425346 0.875820 0.371774
Si Si6 0.528248 0.724441 0.687760
Si Si7 0.165632 0.228374 0.197770
O O1 0.401131 0.935728 0.170899
O O2 0.122562 0.894596 0.167109
O O3 0.347724 0.055380 0.101795
O O4 0.171301 0.095271 0.201785
O O5 0.335820 0.904207 0.946182
O O6 0.499326 0.795394 0.986942
O O7 0.500000 0.000000 0.000000
O O8 0.557261 0.357137 0.938092
O O9 0.476437 0.159595 0.919023
O O10 0.250000 0.250000 0.000000
O O11 0.645424 0.180202 0.144614
O O12 0.721708 0.967607 0.112737
O O13 0.368352 0.766853 0.352261
O O14 0.500000 0.744040 0.750000
O O15 0.344331 0.727037 0.690347
O O16 0.000000 0.273618 0.250000
#
# Coordination Sequence:
#
# PCOD9301427 Si02
#       7
#     8   8   8   8   8   8   8
#     4  11  23  48  72 101 142 186 234 292 357 425
#     4  11  20  44  71  98 140 184 234 293 347 423
#     4  12  25  41  69 106 146 188 236 295 355 425
#     4  11  24  46  73 101 143 192 239 289 363 430
#     4  11  24  47  68 105 146 179 242 299 341 440
#     4  12  25  48  74 100 139 189 235 294 366 421
#     4  12  27  45  72 105 139 183 243 296 362 423
#
# _framework density 21.665928999999998
#
# number of rings (size 3 to 8) (size 9 to 14) (size 15 to 20)
#    0.000    0.571    7.143    2.571    0.000    3.429 
#    2.571    0.000    0.000    0.000    0.000    0.000 
#    0.000    0.000    0.000    0.000    0.000    0.000 
#
# Total GULP energy -156267.886569 kJ/mol
# GULP energy per Si atom -5580.995949 kJ/mol
# Density = 2.161662 g / cm^3
# Si number density = 21.665929 Si / 1000 Ang^3
#
#
#
# Elastic Constant Matrix: (Units=GPa)
#
#
# Indices 1 2 3 4 5 6 
#
# 1 88.7221 39.5822 44.1221 0.0000 -11.7146 0.0000
# 2 39.5822 89.1704 -5.2580 0.0000 -9.2785 0.0000
# 3 44.1221 -5.2580 45.9532 0.0000 -7.2082 0.0000
# 4 0.0000 0.0000 0.0000 21.0402 0.0000 -0.6991
# 5 -11.7146 -9.2785 -7.2082 0.0000 39.6305 0.0000
# 6 0.0000 0.0000 0.0000 -0.6991 0.0000 44.5249
#
#
#
# Elastic Compliance Matrix: (Units=1/GPa)
#
#
# Indices 1 2 3 4 5 6 
#
# 1 0.041901 -0.021152 -0.042704 0.000000 -0.000334 0.000000
# 2 -0.021152 0.022317 0.023368 0.000000 0.003223 0.000000
# 3 -0.042704 0.023368 0.066204 0.000000 0.004890 0.000000
# 4 0.000000 0.000000 0.000000 0.047553 0.000000 0.000747
# 5 -0.000334 0.003223 0.004890 0.000000 0.026778 0.000000
# 6 0.000000 0.000000 0.000000 0.000747 0.000000 0.022471
#
#
# Mechanical properties :
#
#
# Convention : Reuss Voigt Hill
#
# Bulk Modulus (GPa) = 20.22369 42.30427 31.26398
# Shear Modulus (GPa) = 15.39971 30.73241 23.06606
#
# Velocity S-wave (km/s) = 2.66894 3.77034 3.26640
# Velocity P-wave (km/s) = 4.34192 6.20661 5.35604
#
# Compressibility (1/GPa) = 0.04944697
#
# Stress axis : x y z
#
# Youngs Moduli (GPa) = 23.86594 44.80869 15.10480
#
# Poissons Ratio (x) = 0.94780 0.64503
# Poissons Ratio (y) = 0.50482 -0.35298
# Poissons Ratio (z) = 1.01916 -1.04711
#
# Static dielectric constant tensor:
#      x y z
#    x 1.806360 0.000000 -0.074570 
#    y 0.000000 1.844590 0.000000 
#    z -0.074570 0.000000 2.047770 
# 
# From -- ./inp_files/307407.got.cif
#   From: 2010.05.17/outbox.cif.g08.bks.cpg/sg15_154_cif.got.tgz:307407.got - 2010.06.03 18:47:42.
