data_PCOD9301658
_publ_section_title
;
Structure prediction by ZEFSAII (Michael W. Deem and Ramdas Pophale) SiO2 
 PCOD9301658
Probable space group: C 2/C
;
_chemical_formula_sum "Si O2"
_cell_formula_units_Z 32
_cell_length_a 11.672980
_cell_length_b 8.292056
_cell_length_c 14.392426
_cell_angle_alpha 90.000000
_cell_angle_beta 128.723747
_cell_angle_gamma 90.000000
_cell_volume 1086.845690
_symmetry_space_group_name_H-M "C 2/C"
_symmetry_group_IT_number 15
_symmetry_cell_setting 'monoclinic'
loop_
_space_group_symop_operation_xyz
x,y,z
-x,y,1/2-z
-x,-y,-z
x,-y,1/2+z
1/2+x,1/2+y,z
1/2-x,1/2+y,1/2-z
1/2-x,1/2-y,-z
1/2+x,1/2-y,1/2+z
loop_
_atom_site_type_symbol
_atom_site_label
_atom_site_fract_x
_atom_site_fract_y
_atom_site_fract_z
Si Si1 0.254976 0.917200 0.397458
Si Si2 0.048068 0.135489 0.951758
Si Si3 0.235838 0.301521 0.284293
Si Si4 0.574752 0.884162 0.372458
O O1 0.109376 0.928334 0.384823
O O2 0.313703 0.733770 0.436121
O O3 0.248154 0.949416 0.284215
O O4 0.627579 0.978244 0.487387
O O5 0.905886 0.247882 0.863046
O O6 0.000000 0.000000 0.000000
O O7 0.213821 0.319863 0.384878
O O8 0.061368 0.264035 0.177159
O O9 0.500000 0.988896 0.250000
#
# Coordination Sequence:
#
# PCOD9301658 Si02
#       4
#     8   8   8   8
#     4  11  21  37  68  90 124 183 208 264 351 373
#     4  11  22  38  60  95 135 162 226 275 316 404
#     4   9  20  38  62  91 128 164 218 272 323 392
#     4   8  19  37  63  87 125 165 216 263 322 391
#
# _framework density 29.443003000000001
#
# number of rings (size 3 to 8) (size 9 to 14) (size 15 to 20)
#    1.500    0.500    2.500    1.500    0.000    6.000 
#    0.000    5.000   11.000    0.000    0.000    0.000 
#    0.000    0.000    0.000    0.000    0.000    0.000 
#
# Total GULP energy -89116.720589 kJ/mol
# GULP energy per Si atom -5569.795037 kJ/mol
# Density = 2.937599 g / cm^3
# Si number density = 29.443003 Si / 1000 Ang^3
#
#
#
# Elastic Constant Matrix: (Units=GPa)
#
#
# Indices 1 2 3 4 5 6 
#
# 1 277.9185 54.4352 79.4988 0.0000 11.1167 0.0000
# 2 54.4352 84.7388 54.4768 0.0000 -0.7465 0.0000
# 3 79.4988 54.4768 111.8502 0.0000 -3.3358 0.0000
# 4 0.0000 0.0000 0.0000 26.0978 0.0000 5.1739
# 5 11.1167 -0.7465 -3.3358 0.0000 85.7895 0.0000
# 6 0.0000 0.0000 0.0000 5.1739 0.0000 45.0984
#
#
#
# Elastic Compliance Matrix: (Units=1/GPa)
#
#
# Indices 1 2 3 4 5 6 
#
# 1 0.004649 -0.001244 -0.002719 0.000000 -0.000719 0.000000
# 2 -0.001244 0.017516 -0.007646 0.000000 0.000016 0.000000
# 3 -0.002719 -0.007646 0.014623 0.000000 0.000854 0.000000
# 4 0.000000 0.000000 0.000000 0.039209 0.000000 -0.004498
# 5 -0.000719 0.000016 0.000854 0.000000 0.011783 0.000000
# 6 0.000000 0.000000 0.000000 -0.004498 0.000000 0.022690
#
#
# Mechanical properties :
#
#
# Convention : Reuss Voigt Hill
#
# Bulk Modulus (GPa) = 73.70515 94.59214 84.14864
# Shear Modulus (GPa) = 36.17620 50.47024 43.32322
#
# Velocity S-wave (km/s) = 3.50906 4.14474 3.84008
# Velocity P-wave (km/s) = 6.44248 7.42308 6.95010
#
# Compressibility (1/GPa) = 0.01356757
#
# Stress axis : x y z
#
# Youngs Moduli (GPa) = 215.12149 57.09027 68.38506
#
# Poissons Ratio (x) = 0.07103 0.18597
# Poissons Ratio (y) = 0.26766 0.52290
# Poissons Ratio (z) = 0.58501 0.43654
#
# Static dielectric constant tensor:
#      x y z
#    x 2.246340 0.000000 -0.066230 
#    y 0.000000 2.588930 0.000000 
#    z -0.066230 0.000000 2.350080 
# 
# From -- ./inp_files/229665.got.cif
#   From: 2010.05.17/outbox.cif.g08.bks.cpg/sg15_115_cif.got.tgz:229665.got - 2010.06.03 18:47:42.
