data_PCOD9301224
_publ_section_title
;
Structure prediction by ZEFSAII (Michael W. Deem and Ramdas Pophale) SiO2 
 PCOD9301224
Probable space group: C 2/C
;
_chemical_formula_sum "Si O2"
_cell_formula_units_Z 48
_cell_length_a 20.373505
_cell_length_b 14.024268
_cell_length_c 9.055365
_cell_angle_alpha 90.000000
_cell_angle_beta 60.675783
_cell_angle_gamma 90.000000
_cell_volume 2255.796073
_symmetry_space_group_name_H-M "C 2/C"
_symmetry_group_IT_number 15
_symmetry_cell_setting 'monoclinic'
loop_
_space_group_symop_operation_xyz
x,y,z
-x,y,1/2-z
-x,-y,-z
x,-y,1/2+z
1/2+x,1/2+y,z
1/2-x,1/2+y,1/2-z
1/2-x,1/2-y,-z
1/2+x,1/2-y,1/2+z
loop_
_atom_site_type_symbol
_atom_site_label
_atom_site_fract_x
_atom_site_fract_y
_atom_site_fract_z
Si Si1 0.067142 0.109515 0.348247
Si Si2 0.415257 0.808717 0.342672
Si Si3 0.180397 0.226931 0.800056
Si Si4 0.232263 0.587906 0.573017
Si Si5 0.063264 0.100563 0.790513
Si Si6 0.281438 0.603208 0.176023
O O1 0.128209 0.105502 0.413541
O O2 0.080656 0.206614 0.245475
O O3 0.982397 0.105518 0.503243
O O4 0.078793 0.011233 0.246588
O O5 0.500000 0.847228 0.250000
O O6 0.382664 0.787627 0.541695
O O7 0.354206 0.876937 0.332534
O O8 0.221009 0.162129 0.878787
O O9 0.138440 0.160148 0.729886
O O10 0.241916 0.299526 0.670902
O O11 0.259101 0.592176 0.374127
O O12 0.248517 0.484744 0.621996
O O13 0.000000 0.138963 0.750000
#
# Coordination Sequence:
#
# PCOD9301224 Si02
#       6
#     8   8   8   8   8   8
#     4  11  21  36  63  88 121 151 200 240 311 358
#     4  11  20  39  65  88 113 162 207 242 290 367
#     4  11  21  40  62  88 122 158 203 246 294 370
#     4  11  23  41  62  91 123 157 209 249 295 357
#     4  11  25  36  56  96 129 150 189 260 314 351
#     4  11  23  40  64  92 118 163 204 250 295 360
#
# _framework density 21.278521000000001
#
# number of rings (size 3 to 8) (size 9 to 14) (size 15 to 20)
#    0.000    1.000    6.667    1.500    4.667    0.000 
#    3.000    5.833    0.000    0.000    0.000    0.000 
#    0.000    0.000    0.000    0.000    0.000    0.000 
#
# Total GULP energy -134281.158051 kJ/mol
# GULP energy per Si atom -5595.048252 kJ/mol
# Density = 2.123009 g / cm^3
# Si number density = 21.278521 Si / 1000 Ang^3
#
#
#
# Elastic Constant Matrix: (Units=GPa)
#
#
# Indices 1 2 3 4 5 6 
#
# 1 165.0735 45.0267 27.7079 0.0000 -6.0010 0.0000
# 2 45.0267 91.9011 22.7626 0.0000 0.9367 0.0000
# 3 27.7079 22.7626 50.9234 0.0000 -4.8986 0.0000
# 4 0.0000 0.0000 0.0000 20.9166 0.0000 2.4140
# 5 -6.0010 0.9367 -4.8986 0.0000 28.5968 0.0000
# 6 0.0000 0.0000 0.0000 2.4140 0.0000 51.7488
#
#
#
# Elastic Compliance Matrix: (Units=1/GPa)
#
#
# Indices 1 2 3 4 5 6 
#
# 1 0.007342 -0.002978 -0.002548 0.000000 0.001202 0.000000
# 2 -0.002978 0.013496 -0.004591 0.000000 -0.001853 0.000000
# 3 -0.002548 -0.004591 0.023425 0.000000 0.003628 0.000000
# 4 0.000000 0.000000 0.000000 0.048068 0.000000 -0.002242
# 5 0.001202 -0.001853 0.003628 0.000000 0.035903 0.000000
# 6 0.000000 0.000000 0.000000 -0.002242 0.000000 0.019429
#
#
# Mechanical properties :
#
#
# Convention : Reuss Voigt Hill
#
# Bulk Modulus (GPa) = 41.61583 55.43251 48.52417
# Shear Modulus (GPa) = 28.42438 34.41250 31.41844
#
# Velocity S-wave (km/s) = 3.65886 4.02586 3.84674
# Velocity P-wave (km/s) = 6.11962 6.90779 6.52561
#
# Compressibility (1/GPa) = 0.02402932
#
# Stress axis : x y z
#
# Youngs Moduli (GPa) = 136.21002 74.09412 42.69009
#
# Poissons Ratio (x) = 0.22067 0.10877
# Poissons Ratio (y) = 0.40566 0.19598
# Poissons Ratio (z) = 0.34703 0.34014
#
# Static dielectric constant tensor:
#      x y z
#    x 1.781430 0.000000 -0.000430 
#    y 0.000000 1.736940 0.000000 
#    z -0.000430 0.000000 1.836030 
# 
# From -- ./inp_files/96553.got.cif
#   From: 2010.05.17/outbox.cif.g08.bks.cpg/sg15_49_cif.got.tgz:96553.got - 2010.06.03 18:47:42.
