data_PCOD9301047
_publ_section_title
;
Structure prediction by ZEFSAII (Michael W. Deem and Ramdas Pophale) SiO2 
 PCOD9301047
Probable space group: C 2/C
;
_chemical_formula_sum "Si O2"
_cell_formula_units_Z 40
_cell_length_a 10.099758
_cell_length_b 14.615017
_cell_length_c 14.318244
_cell_angle_alpha 90.000000
_cell_angle_beta 116.722530
_cell_angle_gamma 90.000000
_cell_volume 1887.757300
_symmetry_space_group_name_H-M "C 2/C"
_symmetry_group_IT_number 15
_symmetry_cell_setting 'monoclinic'
loop_
_space_group_symop_operation_xyz
x,y,z
-x,y,1/2-z
-x,-y,-z
x,-y,1/2+z
1/2+x,1/2+y,z
1/2-x,1/2+y,1/2-z
1/2-x,1/2-y,-z
1/2+x,1/2-y,1/2+z
loop_
_atom_site_type_symbol
_atom_site_label
_atom_site_fract_x
_atom_site_fract_y
_atom_site_fract_z
Si Si1 0.500000 0.285682 0.250000
Si Si2 0.251880 0.651175 0.548325
Si Si3 0.434273 0.017278 0.125085
Si Si4 0.000000 0.821733 0.750000
Si Si5 0.540375 0.181102 0.929590
Si Si6 0.329084 0.844256 0.842611
O O1 0.593179 0.349722 0.349041
O O2 0.606000 0.217958 0.221606
O O3 0.250000 0.750000 0.500000
O O4 0.204235 0.578300 0.454288
O O5 0.123119 0.654865 0.584890
O O6 0.500000 0.024869 0.250000
O O7 0.571996 0.064390 0.114367
O O8 0.398691 0.912601 0.094361
O O9 0.026613 0.757839 0.847985
O O10 0.157258 0.869582 0.780878
O O11 0.634983 0.209427 0.050137
#
# Coordination Sequence:
#
# PCOD9301047 Si02
#       6
#     4   8   8   4   8   8
#     4  12  20  37  65 100 122 156 220 268 300 365
#     4  11  20  36  66  96 121 164 218 264 306 368
#     4  11  22  41  66  92 127 170 213 257 322 382
#     4  12  24  39  65  90 130 166 210 260 322 375
#     4  11  23  41  62  93 130 171 204 259 327 384
#     4  11  22  39  65  94 123 166 213 263 308 377
#
# _framework density 21.189164999999999
#
# number of rings (size 3 to 8) (size 9 to 14) (size 15 to 20)
#    0.000    0.800    8.000    3.000    0.000    0.000 
#    0.000    4.000    0.000    3.600    0.000    0.000 
#    0.000    0.000    0.000    0.000    0.000    0.000 
#
# Total GULP energy -111572.823958 kJ/mol
# GULP energy per Si atom -5578.641198 kJ/mol
# Density = 2.114094 g / cm^3
# Si number density = 21.189165 Si / 1000 Ang^3
#
#
#
# Elastic Constant Matrix: (Units=GPa)
#
#
# Indices 1 2 3 4 5 6 
#
# 1 68.7359 -1.4255 22.7294 0.0000 24.7123 0.0000
# 2 -1.4255 48.0437 10.3363 0.0000 13.9353 0.0000
# 3 22.7294 10.3363 136.5759 0.0000 17.0900 0.0000
# 4 0.0000 0.0000 0.0000 17.6101 0.0000 0.7473
# 5 24.7123 13.9353 17.0900 0.0000 42.2373 0.0000
# 6 0.0000 0.0000 0.0000 0.7473 0.0000 17.1125
#
#
#
# Elastic Compliance Matrix: (Units=1/GPa)
#
#
# Indices 1 2 3 4 5 6 
#
# 1 0.019725 0.004576 -0.002102 0.000000 -0.012200 0.000000
# 2 0.004576 0.024169 -0.001325 0.000000 -0.010115 0.000000
# 3 -0.002102 -0.001325 0.007967 0.000000 -0.001556 0.000000
# 4 0.000000 0.000000 0.000000 0.056891 0.000000 -0.002484
# 5 -0.012200 -0.010115 -0.001556 0.000000 0.034781 0.000000
# 6 0.000000 0.000000 0.000000 -0.002484 0.000000 0.058545
#
#
# Mechanical properties :
#
#
# Convention : Reuss Voigt Hill
#
# Bulk Modulus (GPa) = 18.46444 35.18177 26.82310
# Shear Modulus (GPa) = 22.95338 30.17300 26.56319
#
# Velocity S-wave (km/s) = 3.29486 3.77766 3.54449
# Velocity P-wave (km/s) = 4.81745 5.97222 5.42564
#
# Compressibility (1/GPa) = 0.05415817
#
# Stress axis : x y z
#
# Youngs Moduli (GPa) = 50.69799 41.37497 125.52020
#
# Poissons Ratio (x) = -0.18934 0.26389
# Poissons Ratio (y) = -0.23200 0.16631
# Poissons Ratio (z) = 0.10659 0.05482
#
# Static dielectric constant tensor:
#      x y z
#    x 1.944440 0.000000 0.091080 
#    y 0.000000 1.800170 0.000000 
#    z 0.091080 0.000000 1.986670 
# 
# From -- ./inp_files/133132.got.cif
#   From: 2010.05.17/outbox.cif.g08.bks.cpg/sg15_67_cif.got.tgz:133132.got - 2010.06.03 18:47:42.
