data_PCOD9301724
_publ_section_title
;
Structure prediction by ZEFSAII (Michael W. Deem and Ramdas Pophale) SiO2 
 PCOD9301724
Probable space group: C 2/C
;
_chemical_formula_sum "Si O2"
_cell_formula_units_Z 48
_cell_length_a 11.924535
_cell_length_b 17.127754
_cell_length_c 11.684561
_cell_angle_alpha 90.000000
_cell_angle_beta 108.816333
_cell_angle_gamma 90.000000
_cell_volume 2258.921838
_symmetry_space_group_name_H-M "C 2/C"
_symmetry_group_IT_number 15
_symmetry_cell_setting 'monoclinic'
loop_
_space_group_symop_operation_xyz
x,y,z
-x,y,1/2-z
-x,-y,-z
x,-y,1/2+z
1/2+x,1/2+y,z
1/2-x,1/2+y,1/2-z
1/2-x,1/2-y,-z
1/2+x,1/2-y,1/2+z
loop_
_atom_site_type_symbol
_atom_site_label
_atom_site_fract_x
_atom_site_fract_y
_atom_site_fract_z
Si Si1 0.492153 0.665505 0.381801
Si Si2 0.384931 0.099195 0.777167
Si Si3 0.244666 0.106195 0.106860
Si Si4 0.277278 0.561149 0.989725
Si Si5 0.890888 0.306860 0.489731
Si Si6 0.091229 0.429325 0.630130
O O1 0.500000 0.689832 0.250000
O O2 0.371327 0.617331 0.355328
O O3 0.603563 0.610627 0.451041
O O4 0.467924 0.733031 0.469896
O O5 0.500000 0.130896 0.750000
O O6 0.284626 0.081647 0.651405
O O7 0.338440 0.159355 0.854536
O O8 0.432911 0.021502 0.858712
O O9 0.349704 0.090315 0.229532
O O10 0.215528 0.033218 0.014510
O O11 0.287537 0.181512 0.050205
O O12 0.187270 0.580102 0.061960
O O13 0.985459 0.371377 0.566043
#
# Coordination Sequence:
#
# PCOD9301724 Si02
#       6
#     8   8   8   8   8   8
#     4  12  27  45  65  98 142 185 218 272 347 414
#     4  11  21  38  66 103 129 173 226 286 334 396
#     4  11  24  46  70  94 135 180 231 277 331 402
#     4  11  23  43  70 100 131 177 232 282 330 400
#     4  12  24  41  67 103 134 174 221 282 339 402
#     4  11  21  40  71  97 131 170 230 288 331 389
#
# _framework density 21.249075999999999
#
# number of rings (size 3 to 8) (size 9 to 14) (size 15 to 20)
#    0.000    0.667    5.000    4.500    0.000    2.000 
#    0.000    2.500    0.000    0.000    0.000    0.000 
#    0.000    0.000    0.000    0.000    0.000    0.000 
#
# Total GULP energy -133896.077796 kJ/mol
# GULP energy per Si atom -5579.003241 kJ/mol
# Density = 2.120071 g / cm^3
# Si number density = 21.249076 Si / 1000 Ang^3
#
#
#
# Elastic Constant Matrix: (Units=GPa)
#
#
# Indices 1 2 3 4 5 6 
#
# 1 94.8024 2.0919 14.7046 0.0000 -6.6826 0.0000
# 2 2.0919 67.2855 23.8327 0.0000 16.7137 0.0000
# 3 14.7046 23.8327 66.5643 0.0000 6.7180 0.0000
# 4 0.0000 0.0000 0.0000 140.7025 0.0000 13.6005
# 5 -6.6826 16.7137 6.7180 0.0000 34.9684 0.0000
# 6 0.0000 0.0000 0.0000 13.6005 0.0000 28.7058
#
#
#
# Elastic Compliance Matrix: (Units=1/GPa)
#
#
# Indices 1 2 3 4 5 6 
#
# 1 0.011160 -0.000050 -0.002718 0.000000 0.002679 0.000000
# 2 -0.000050 0.018946 -0.005973 0.000000 -0.007917 0.000000
# 3 -0.002718 -0.005973 0.017873 0.000000 -0.001098 0.000000
# 4 0.000000 0.000000 0.000000 0.007448 0.000000 -0.003529
# 5 0.002679 -0.007917 -0.001098 0.000000 0.033104 0.000000
# 6 0.000000 0.000000 0.000000 -0.003529 0.000000 0.036508
#
#
# Mechanical properties :
#
#
# Convention : Reuss Voigt Hill
#
# Bulk Modulus (GPa) = 32.79010 34.43453 33.61231
# Shear Modulus (GPa) = 32.74671 53.41020 43.07845
#
# Velocity S-wave (km/s) = 3.92993 5.01895 4.50745
# Velocity P-wave (km/s) = 6.00477 7.05881 6.55302
#
# Compressibility (1/GPa) = 0.03049701
#
# Stress axis : x y z
#
# Youngs Moduli (GPa) = 89.60798 52.78135 55.95031
#
# Poissons Ratio (x) = 0.00262 0.15206
# Poissons Ratio (y) = 0.00445 0.33422
# Poissons Ratio (z) = 0.24354 0.31529
#
# Static dielectric constant tensor:
#      x y z
#    x 1.752540 0.000000 -0.023160 
#    y 0.000000 1.847970 0.000000 
#    z -0.023160 0.000000 1.754460 
# 
# From -- ./inp_files/87872.got.cif
#   From: 2010.05.17/outbox.cif.g08.bks.cpg/sg15_44_cif.got.tgz:87872.got - 2010.06.03 18:47:42.
