data_PCOD9301850
_publ_section_title
;
Structure prediction by ZEFSAII (Michael W. Deem and Ramdas Pophale) SiO2 
 PCOD9301850
Probable space group: C 2/C
;
_chemical_formula_sum "Si O2"
_cell_formula_units_Z 64
_cell_length_a 12.318153
_cell_length_b 28.411972
_cell_length_c 13.486195
_cell_angle_alpha 90.000000
_cell_angle_beta 44.044791
_cell_angle_gamma 90.000000
_cell_volume 3281.398522
_symmetry_space_group_name_H-M "C 2/C"
_symmetry_group_IT_number 15
_symmetry_cell_setting 'monoclinic'
loop_
_space_group_symop_operation_xyz
x,y,z
-x,y,1/2-z
-x,-y,-z
x,-y,1/2+z
1/2+x,1/2+y,z
1/2-x,1/2+y,1/2-z
1/2-x,1/2-y,-z
1/2+x,1/2-y,1/2+z
loop_
_atom_site_type_symbol
_atom_site_label
_atom_site_fract_x
_atom_site_fract_y
_atom_site_fract_z
Si Si1 0.832675 0.708308 0.654674
Si Si2 0.338017 0.330646 0.417843
Si Si3 0.320289 0.564668 0.900327
Si Si4 0.341236 0.515853 0.547601
Si Si5 0.394936 0.381233 0.915290
Si Si6 0.485698 0.299445 0.007809
Si Si7 0.404022 0.963015 0.126384
Si Si8 0.049299 0.630318 0.604333
O O1 0.774330 0.699401 0.579861
O O2 0.679572 0.709754 0.826613
O O3 0.942883 0.753779 0.592338
O O4 0.938841 0.663926 0.613823
O O5 0.500000 0.333572 0.250000
O O6 0.281237 0.384173 0.469900
O O7 0.386217 0.310612 0.491818
O O8 0.500000 0.564140 0.750000
O O9 0.219076 0.559452 0.868520
O O10 0.302453 0.521309 0.986807
O O11 0.500000 0.500000 0.500000
O O12 0.364169 0.568784 0.490232
O O13 0.197881 0.515883 0.718061
O O14 0.500000 0.389468 0.750000
O O15 0.462910 0.343582 0.949122
O O16 0.232371 0.360487 0.981088
O O17 0.516687 0.923022 0.094031
O O18 0.500000 0.000000 0.000000
O O19 0.000000 0.636214 0.750000
#
# Coordination Sequence:
#
# PCOD9301850 Si02
#       8
#     8   8   8   8   8   8   8   8
#     4  11  23  43  70 100 132 176 222 279 342 403
#     4   9  20  41  68  97 133 171 222 273 336 400
#     4  11  21  39  68  99 129 177 227 270 331 403
#     4  12  24  42  68  99 136 175 223 278 328 393
#     4  12  28  45  69 100 136 177 228 281 337 405
#     4  11  24  43  70  99 132 176 224 279 341 405
#     4  12  26  42  67  97 135 179 224 272 337 401
#     4  12  24  47  68  92 136 178 219 278 341 399
#
# _framework density 19.503879000000001
#
# number of rings (size 3 to 8) (size 9 to 14) (size 15 to 20)
#    0.000    0.750    5.000    2.250    5.250    1.000 
#    0.000    0.000    2.750    0.000    0.000    0.000 
#    0.000    0.000    0.000    0.000    0.000    0.000 
#
# Total GULP energy -178823.588059 kJ/mol
# GULP energy per Si atom -5588.237127 kJ/mol
# Density = 1.945949 g / cm^3
# Si number density = 19.503879 Si / 1000 Ang^3
#
#
#
# Elastic Constant Matrix: (Units=GPa)
#
#
# Indices 1 2 3 4 5 6 
#
# 1 86.4742 6.4440 21.4842 0.0000 -8.6107 0.0000
# 2 6.4440 93.1537 39.2518 0.0000 -1.9619 0.0000
# 3 21.4842 39.2518 102.9071 0.0000 9.5608 0.0000
# 4 0.0000 0.0000 0.0000 25.9923 0.0000 -15.1044
# 5 -8.6107 -1.9619 9.5608 0.0000 23.3485 0.0000
# 6 0.0000 0.0000 0.0000 -15.1044 0.0000 15.2775
#
#
#
# Elastic Compliance Matrix: (Units=1/GPa)
#
#
# Indices 1 2 3 4 5 6 
#
# 1 0.013033 0.000747 -0.003595 0.000000 0.006341 0.000000
# 2 0.000747 0.013067 -0.005476 0.000000 0.003616 0.000000
# 3 -0.003595 -0.005476 0.013226 0.000000 -0.007202 0.000000
# 4 0.000000 0.000000 0.000000 0.090423 0.000000 0.089398
# 5 0.006341 0.003616 -0.007202 0.000000 0.048421 0.000000
# 6 0.000000 0.000000 0.000000 0.089398 0.000000 0.153840
#
#
# Mechanical properties :
#
#
# Convention : Reuss Voigt Hill
#
# Bulk Modulus (GPa) = 44.09653 46.32166 45.20910
# Shear Modulus (GPa) = 14.03643 27.28066 20.65854
#
# Velocity S-wave (km/s) = 2.68558 3.74402 3.25807
# Velocity P-wave (km/s) = 5.68108 6.51857 6.11418
#
# Compressibility (1/GPa) = 0.02267752
#
# Stress axis : x y z
#
# Youngs Moduli (GPa) = 76.72786 76.52991 75.60998
#
# Poissons Ratio (x) = -0.05715 0.27181
# Poissons Ratio (y) = -0.05730 0.41403
# Poissons Ratio (z) = 0.27583 0.41907
#
# Static dielectric constant tensor:
#      x y z
#    x 1.679770 0.000000 -0.012640 
#    y 0.000000 1.731430 0.000000 
#    z -0.012640 0.000000 1.798900 
# 
# From -- ./inp_files/148740.got.cif
#   From: 2010.05.17/outbox.cif.g08.bks.cpg/sg15_75_cif.got.tgz:148740.got - 2010.06.03 18:47:42.
