data_PCOD9301089
_publ_section_title
;
Structure prediction by ZEFSAII (Michael W. Deem and Ramdas Pophale) SiO2 
 PCOD9301089
Probable space group: C 2/C
;
_chemical_formula_sum "Si O2"
_cell_formula_units_Z 64
_cell_length_a 30.798635
_cell_length_b 8.637948
_cell_length_c 18.510544
_cell_angle_alpha 90.000000
_cell_angle_beta 144.478449
_cell_angle_gamma 90.000000
_cell_volume 2861.173510
_symmetry_space_group_name_H-M "C 2/C"
_symmetry_group_IT_number 15
_symmetry_cell_setting 'monoclinic'
loop_
_space_group_symop_operation_xyz
x,y,z
-x,y,1/2-z
-x,-y,-z
x,-y,1/2+z
1/2+x,1/2+y,z
1/2-x,1/2+y,1/2-z
1/2-x,1/2-y,-z
1/2+x,1/2-y,1/2+z
loop_
_atom_site_type_symbol
_atom_site_label
_atom_site_fract_x
_atom_site_fract_y
_atom_site_fract_z
Si Si1 0.221429 0.545514 0.985364
Si Si2 0.408819 0.655058 0.387084
Si Si3 0.693566 0.116669 0.672433
Si Si4 0.213051 0.145847 0.563789
Si Si5 0.560931 0.096658 0.698206
Si Si6 0.597080 0.824339 0.497245
Si Si7 0.058186 0.717624 0.113476
Si Si8 0.695702 0.635860 0.797609
O O1 0.279422 0.541474 0.996959
O O2 0.136363 0.565554 0.844686
O O3 0.239235 0.691797 0.062470
O O4 0.238938 0.402465 0.058948
O O5 0.363679 0.748465 0.386643
O O6 0.418532 0.766211 0.330210
O O7 0.493426 0.654154 0.532937
O O8 0.359586 0.507315 0.299399
O O9 0.730220 0.079014 0.799838
O O10 0.761067 0.181007 0.716043
O O11 0.652362 0.972665 0.578730
O O12 0.137753 0.193602 0.504287
O O13 0.486770 0.138078 0.642945
O O14 0.536616 0.947273 0.617500
O O15 0.580237 0.785509 0.558544
O O16 0.137670 0.751488 0.256592
#
# Coordination Sequence:
#
# PCOD9301089 Si02
#       8
#     8   8   8   8   8   8   8   8
#     4  11  22  39  60  92 130 168 204 258 321 385
#     4  11  20  40  63  93 124 163 208 269 313 375
#     4  12  19  38  64  95 122 157 212 274 308 359
#     4  11  21  38  62  92 126 163 212 262 313 373
#     4  11  22  38  64  89 129 167 208 257 321 382
#     4  11  20  37  63  96 118 162 216 265 309 369
#     4  11  22  39  63  93 127 164 208 265 325 374
#     4  12  25  37  65  98 130 163 216 260 324 383
#
# _framework density 22.368442999999999
#
# number of rings (size 3 to 8) (size 9 to 14) (size 15 to 20)
#    0.000    0.750    7.500    1.875    0.000    1.000 
#    0.000    0.000    0.000    0.000    0.000    0.000 
#    0.000    0.000    0.000    0.000    0.000    0.000 
#
# Total GULP energy -178537.154294 kJ/mol
# GULP energy per Si atom -5579.286072 kJ/mol
# Density = 2.231753 g / cm^3
# Si number density = 22.368443 Si / 1000 Ang^3
#
#
#
# Elastic Constant Matrix: (Units=GPa)
#
#
# Indices 1 2 3 4 5 6 
#
# 1 125.6165 13.8468 36.1527 0.0000 25.1366 0.0000
# 2 13.8468 31.2773 10.5703 0.0000 11.1808 0.0000
# 3 36.1527 10.5703 101.8309 0.0000 22.2024 0.0000
# 4 0.0000 0.0000 0.0000 28.8530 0.0000 7.6684
# 5 25.1366 11.1808 22.2024 0.0000 43.7098 0.0000
# 6 0.0000 0.0000 0.0000 7.6684 0.0000 28.0658
#
#
#
# Elastic Compliance Matrix: (Units=1/GPa)
#
#
# Indices 1 2 3 4 5 6 
#
# 1 0.009636 -0.002106 -0.002375 0.000000 -0.003797 0.000000
# 2 -0.002106 0.035980 -0.001399 0.000000 -0.007281 0.000000
# 3 -0.002375 -0.001399 0.011732 0.000000 -0.004236 0.000000
# 4 0.000000 0.000000 0.000000 0.037372 0.000000 -0.010211
# 5 -0.003797 -0.007281 -0.004236 0.000000 0.029076 0.000000
# 6 0.000000 0.000000 0.000000 -0.010211 0.000000 0.038421
#
#
# Mechanical properties :
#
#
# Convention : Reuss Voigt Hill
#
# Bulk Modulus (GPa) = 21.93575 42.20713 32.07144
# Shear Modulus (GPa) = 26.43071 33.33603 29.88337
#
# Velocity S-wave (km/s) = 3.44118 3.86465 3.65905
# Velocity P-wave (km/s) = 5.06131 6.23089 5.67630
#
# Compressibility (1/GPa) = 0.04558769
#
# Stress axis : x y z
#
# Youngs Moduli (GPa) = 103.77694 27.79287 85.23651
#
# Poissons Ratio (x) = 0.05854 0.20241
# Poissons Ratio (y) = 0.21859 0.11929
# Poissons Ratio (z) = 0.24643 0.03890
#
# Static dielectric constant tensor:
#      x y z
#    x 1.810200 0.000000 0.023910 
#    y 0.000000 1.922100 0.000000 
#    z 0.023910 0.000000 1.929460 
# 
# From -- ./inp_files/224661.got.cif
#   From: 2010.05.17/outbox.cif.g08.bks.cpg/sg15_113_cif.got.tgz:224661.got - 2010.06.03 18:47:42.
