data_PCOD9301636
_publ_section_title
;
Structure prediction by ZEFSAII (Michael W. Deem and Ramdas Pophale) SiO2 
 PCOD9301636
Probable space group: C 2/C
;
_chemical_formula_sum "Si O2"
_cell_formula_units_Z 44
_cell_length_a 11.920645
_cell_length_b 8.967959
_cell_length_c 18.987807
_cell_angle_alpha 90.000000
_cell_angle_beta 66.747326
_cell_angle_gamma 90.000000
_cell_volume 1864.989112
_symmetry_space_group_name_H-M "C 2/C"
_symmetry_group_IT_number 15
_symmetry_cell_setting 'monoclinic'
loop_
_space_group_symop_operation_xyz
x,y,z
-x,y,1/2-z
-x,-y,-z
x,-y,1/2+z
1/2+x,1/2+y,z
1/2-x,1/2+y,1/2-z
1/2-x,1/2-y,-z
1/2+x,1/2-y,1/2+z
loop_
_atom_site_type_symbol
_atom_site_label
_atom_site_fract_x
_atom_site_fract_y
_atom_site_fract_z
Si Si1 0.872301 0.504724 0.071525
Si Si2 0.282670 0.223774 0.877377
Si Si3 0.534881 0.031728 0.160337
Si Si4 0.784542 0.242247 0.836889
Si Si5 0.354091 0.469018 0.188697
Si Si6 0.500000 0.626172 0.250000
O O1 0.777330 0.632738 0.071405
O O2 0.806900 0.345207 0.089561
O O3 0.916817 0.534345 0.140993
O O4 0.000000 0.500000 0.000000
O O5 0.370653 0.097001 0.888938
O O6 0.168118 0.139826 0.870675
O O7 0.374980 0.286099 0.794269
O O8 0.500000 0.998888 0.250000
O O9 0.601460 0.190639 0.148779
O O10 0.725332 0.387631 0.815127
O O11 0.817693 0.124870 0.767403
O O12 0.482358 0.535147 0.182187
#
# Coordination Sequence:
#
# PCOD9301636 Si02
#       6
#     8   8   8   8   8   4
#     4  12  27  46  65  94 141 186 223 267 326 405
#     4  11  23  40  62  97 131 167 220 268 332 393
#     4  11  24  41  72 101 132 170 219 288 339 382
#     4  11  22  40  62  97 133 169 221 271 335 396
#     4  11  21  37  64  99 131 158 213 287 334 380
#     4  12  20  32  64  94 130 160 206 272 340 372
#
# _framework density 23.59263
#
# number of rings (size 3 to 8) (size 9 to 14) (size 15 to 20)
#    0.000    0.727    4.545    4.364    3.818    1.455 
#    0.000    3.636    0.000    0.000    0.000    0.000 
#    0.000    0.000    0.000    0.000    0.000    0.000 
#
# Total GULP energy -122818.328492 kJ/mol
# GULP energy per Si atom -5582.651295 kJ/mol
# Density = 2.353893 g / cm^3
# Si number density = 23.592630 Si / 1000 Ang^3
#
#
#
# Elastic Constant Matrix: (Units=GPa)
#
#
# Indices 1 2 3 4 5 6 
#
# 1 77.7429 24.8026 -19.5967 0.0000 -2.0852 0.0000
# 2 24.8026 140.2470 21.9284 0.0000 -19.5752 0.0000
# 3 -19.5967 21.9284 63.0835 0.0000 -23.8080 0.0000
# 4 0.0000 0.0000 0.0000 12.6783 0.0000 -23.1462
# 5 -2.0852 -19.5752 -23.8080 0.0000 28.0314 0.0000
# 6 0.0000 0.0000 0.0000 -23.1462 0.0000 46.9700
#
#
#
# Elastic Compliance Matrix: (Units=1/GPa)
#
#
# Indices 1 2 3 4 5 6 
#
# 1 0.016241 -0.003352 0.008511 0.000000 0.006096 0.000000
# 2 -0.003352 0.008633 -0.002739 0.000000 0.003453 0.000000
# 3 0.008511 -0.002739 0.027912 0.000000 0.022427 0.000000
# 4 0.000000 0.000000 0.000000 0.786089 0.000000 0.387375
# 5 0.006096 0.003453 0.022427 0.000000 0.057587 0.000000
# 6 0.000000 0.000000 0.000000 0.387375 0.000000 0.212183
#
#
# Mechanical properties :
#
#
# Convention : Reuss Voigt Hill
#
# Bulk Modulus (GPa) = 17.35302 37.26023 27.30662
# Shear Modulus (GPa) = 4.45230 34.46521 19.45875
#
# Velocity S-wave (km/s) = 1.37523 3.82625 2.87502
# Velocity P-wave (km/s) = 3.14530 5.94539 4.75608
#
# Compressibility (1/GPa) = 0.05762687
#
# Stress axis : x y z
#
# Youngs Moduli (GPa) = 61.57132 115.82965 35.82652
#
# Poissons Ratio (x) = 0.38828 -0.30493
# Poissons Ratio (y) = 0.20640 0.09813
# Poissons Ratio (z) = -0.52405 0.31728
#
# Static dielectric constant tensor:
#      x y z
#    x 1.881030 0.000000 0.023320 
#    y 0.000000 1.976250 0.000000 
#    z 0.023320 0.000000 1.911810 
# 
# From -- ./inp_files/202721.got.cif
#   From: 2010.05.17/outbox.cif.g08.bks.cpg/sg15_102_cif.got.tgz:202721.got - 2010.06.03 18:47:42.
