data_PCOD9301254
_publ_section_title
;
Structure prediction by ZEFSAII (Michael W. Deem and Ramdas Pophale) SiO2 
 PCOD9301254
Probable space group: C 2/C
;
_chemical_formula_sum "Si O2"
_cell_formula_units_Z 60
_cell_length_a 20.483594
_cell_length_b 11.829456
_cell_length_c 12.238162
_cell_angle_alpha 90.000000
_cell_angle_beta 91.982104
_cell_angle_gamma 90.000000
_cell_volume 2963.651991
_symmetry_space_group_name_H-M "C 2/C"
_symmetry_group_IT_number 15
_symmetry_cell_setting 'monoclinic'
loop_
_space_group_symop_operation_xyz
x,y,z
-x,y,1/2-z
-x,-y,-z
x,-y,1/2+z
1/2+x,1/2+y,z
1/2-x,1/2+y,1/2-z
1/2-x,1/2-y,-z
1/2+x,1/2-y,1/2+z
loop_
_atom_site_type_symbol
_atom_site_label
_atom_site_fract_x
_atom_site_fract_y
_atom_site_fract_z
Si Si1 0.766231 0.840760 0.905727
Si Si2 0.121416 0.356357 0.392563
Si Si3 0.000000 0.266903 0.750000
Si Si4 0.698399 0.077703 0.187597
Si Si5 0.444721 0.920714 0.549972
Si Si6 0.392098 0.263789 0.401164
Si Si7 0.267718 0.402583 0.472462
Si Si8 0.133621 0.334146 0.157647
O O1 0.715995 0.868682 0.805008
O O2 0.827209 0.781090 0.852880
O O3 0.776702 0.964227 0.955096
O O4 0.750000 0.750000 0.000000
O O5 0.106727 0.487333 0.411458
O O6 0.085728 0.274284 0.476715
O O7 0.200320 0.352736 0.416156
O O8 0.097790 0.329616 0.270614
O O9 0.969057 0.345137 0.652330
O O10 0.945261 0.198141 0.815649
O O11 0.634198 0.143889 0.145533
O O12 0.681645 0.944439 0.176208
O O13 0.754327 0.107180 0.101689
O O14 0.410433 0.852704 0.450695
O O15 0.500000 0.000000 0.500000
O O16 0.329680 0.342749 0.420362
#
# Coordination Sequence:
#
# PCOD9301254 Si02
#       8
#     8   8   4   8   8   8   8   8
#     4  12  24  39  61 102 141 174 217 276 348 414
#     4  11  20  40  61  97 132 171 221 277 347 404
#     4  12  26  42  64  98 140 186 240 286 344 414
#     4  11  21  39  62  99 137 173 216 277 348 407
#     4  12  22  42  65  98 133 178 227 288 349 399
#     4  11  23  40  66  92 131 184 229 275 334 416
#     4  11  22  40  66  96 135 177 225 273 346 411
#     4  12  23  38  65  97 141 176 218 284 339 412
#
# _framework density 20.245291999999999
#
# number of rings (size 3 to 8) (size 9 to 14) (size 15 to 20)
#    0.000    0.533    6.667    4.800    1.867    0.000 
#    0.000    0.000    0.000    2.400    0.000    0.000 
#    0.000    0.000    0.000    0.000    0.000    0.000 
#
# Total GULP energy -167371.451283 kJ/mol
# GULP energy per Si atom -5579.048376 kJ/mol
# Density = 2.019921 g / cm^3
# Si number density = 20.245292 Si / 1000 Ang^3
#
#
#
# Elastic Constant Matrix: (Units=GPa)
#
#
# Indices 1 2 3 4 5 6 
#
# 1 67.6931 10.6885 38.0814 0.0000 -17.7518 0.0000
# 2 10.6885 72.0432 18.9799 0.0000 -2.5741 0.0000
# 3 38.0814 18.9799 160.5094 0.0000 1.7228 0.0000
# 4 0.0000 0.0000 0.0000 21.9585 0.0000 -4.0503
# 5 -17.7518 -2.5741 1.7228 0.0000 39.7878 0.0000
# 6 0.0000 0.0000 0.0000 -4.0503 0.0000 15.1963
#
#
#
# Elastic Compliance Matrix: (Units=1/GPa)
#
#
# Indices 1 2 3 4 5 6 
#
# 1 0.019993 -0.001412 -0.004673 0.000000 0.009031 0.000000
# 2 -0.001412 0.014467 -0.001379 0.000000 0.000366 0.000000
# 3 -0.004673 -0.001379 0.007529 0.000000 -0.002500 0.000000
# 4 0.000000 0.000000 0.000000 0.047895 0.000000 0.012765
# 5 0.009031 0.000366 -0.002500 0.000000 0.029295 0.000000
# 6 0.000000 0.000000 0.000000 0.012765 0.000000 0.069208
#
#
# Mechanical properties :
#
#
# Convention : Reuss Voigt Hill
#
# Bulk Modulus (GPa) = 36.95751 48.41615 42.68683
# Shear Modulus (GPa) = 23.54769 30.88826 27.21797
#
# Velocity S-wave (km/s) = 3.41415 3.91026 3.67060
# Velocity P-wave (km/s) = 5.81691 6.65984 6.25260
#
# Compressibility (1/GPa) = 0.02705810
#
# Stress axis : x y z
#
# Youngs Moduli (GPa) = 50.01782 69.12485 132.82192
#
# Poissons Ratio (x) = 0.09763 0.62072
# Poissons Ratio (y) = 0.07064 0.18323
# Poissons Ratio (z) = 0.23375 0.09536
#
# Static dielectric constant tensor:
#      x y z
#    x 1.792620 0.000000 -0.041750 
#    y 0.000000 1.702270 0.000000 
#    z -0.041750 0.000000 1.837720 
# 
# From -- ./inp_files/111633.got.cif
#   From: 2010.05.17/outbox.cif.g08.bks.cpg/sg15_56_cif.got.tgz:111633.got - 2010.06.03 18:47:42.
