data_PCOD9301451
_publ_section_title
;
Structure prediction by ZEFSAII (Michael W. Deem and Ramdas Pophale) SiO2 
 PCOD9301451
Probable space group: C 2/C
;
_chemical_formula_sum "Si O2"
_cell_formula_units_Z 52
_cell_length_a 25.828468
_cell_length_b 5.260770
_cell_length_c 21.761854
_cell_angle_alpha 90.000000
_cell_angle_beta 63.214434
_cell_angle_gamma 90.000000
_cell_volume 2639.666648
_symmetry_space_group_name_H-M "C 2/C"
_symmetry_group_IT_number 15
_symmetry_cell_setting 'monoclinic'
loop_
_space_group_symop_operation_xyz
x,y,z
-x,y,1/2-z
-x,-y,-z
x,-y,1/2+z
1/2+x,1/2+y,z
1/2-x,1/2+y,1/2-z
1/2-x,1/2-y,-z
1/2+x,1/2-y,1/2+z
loop_
_atom_site_type_symbol
_atom_site_label
_atom_site_fract_x
_atom_site_fract_y
_atom_site_fract_z
Si Si1 0.384639 0.489862 0.807218
Si Si2 0.964437 0.741223 0.350415
Si Si3 0.430133 0.491245 0.156846
Si Si4 0.500000 0.168116 0.750000
Si Si5 0.867719 0.626230 0.490322
Si Si6 0.562611 0.011763 0.930727
Si Si7 0.813465 0.127542 0.461190
O O1 0.415705 0.727511 0.824059
O O2 0.380167 0.516271 0.736294
O O3 0.436748 0.291700 0.789345
O O4 0.331334 0.425456 0.880536
O O5 0.002637 0.509403 0.308754
O O6 0.929170 0.716536 0.430764
O O7 0.010425 0.963550 0.335296
O O8 0.429047 0.248948 0.111991
O O9 0.434469 0.745220 0.115335
O O10 0.883293 0.558121 0.551716
O O11 0.852524 0.359256 0.465875
O O12 0.825310 0.863104 0.493213
O O13 0.500000 0.000000 0.000000
O O14 0.750000 0.250000 0.500000
#
# Coordination Sequence:
#
# PCOD9301451 Si02
#       7
#     8   8   8   4   8   8   8
#     4  11  23  33  61  92 126 164 210 265 329 373
#     4  11  21  31  57  90 128 168 192 255 316 382
#     4  12  23  37  56  90 135 168 212 241 306 407
#     4  12  16  34  52  92 130 158 192 240 350 378
#     4  11  24  41  63  91 130 167 215 258 317 384
#     4  12  26  37  59  90 139 181 204 241 310 401
#     4  11  25  45  69  94 121 164 219 283 330 365
#
# _framework density 19.699456999999999
#
# number of rings (size 3 to 8) (size 9 to 14) (size 15 to 20)
#    0.000    0.615    6.154    2.769    4.308    0.000 
#    0.000    0.000    0.000    3.692    0.000    0.000 
#    0.000    0.000    0.000    0.000    0.000    0.000 
#
# Total GULP energy -144798.097542 kJ/mol
# GULP energy per Si atom -5569.157598 kJ/mol
# Density = 1.965462 g / cm^3
# Si number density = 19.699457 Si / 1000 Ang^3
#
#
#
# Elastic Constant Matrix: (Units=GPa)
#
#
# Indices 1 2 3 4 5 6 
#
# 1 40.0964 14.5761 44.0260 -0.0085 -2.2345 -0.0504
# 2 14.5761 126.5509 54.3326 0.0173 12.0162 0.0055
# 3 44.0260 54.3326 139.1416 -0.0076 4.8062 -0.0073
# 4 -0.0085 0.0173 -0.0076 35.5244 0.0099 17.1867
# 5 -2.2345 12.0162 4.8062 0.0099 23.6632 0.0090
# 6 -0.0504 0.0055 -0.0073 17.1867 0.0090 14.9634
#
#
#
# Elastic Compliance Matrix: (Units=1/GPa)
#
#
# Indices 1 2 3 4 5 6 
#
# 1 0.039130 0.000386 -0.012742 -0.000122 0.006087 0.000262
# 2 0.000386 0.009909 -0.003846 -0.000008 -0.004214 0.000008
# 3 -0.012742 -0.003846 0.012784 0.000042 -0.001847 -0.000082
# 4 -0.000122 -0.000008 0.000042 0.063356 -0.000015 -0.072769
# 5 0.006087 -0.004214 -0.001847 -0.000015 0.045350 0.000011
# 6 0.000262 0.000008 -0.000082 -0.072769 0.000011 0.150412
#
#
# Mechanical properties :
#
#
# Convention : Reuss Voigt Hill
#
# Bulk Modulus (GPa) = 33.99192 59.07313 46.53253
# Shear Modulus (GPa) = 13.76839 27.68713 20.72776
#
# Velocity S-wave (km/s) = 2.64658 3.75304 3.24728
# Velocity P-wave (km/s) = 5.16061 6.98804 6.14266
#
# Compressibility (1/GPa) = 0.02941876
#
# Stress axis : x y z
#
# Youngs Moduli (GPa) = 25.55585 100.92080 78.22219
#
# Poissons Ratio (x) = -0.03892 0.99671
# Poissons Ratio (y) = -0.00985 0.30082
# Poissons Ratio (z) = 0.32563 0.38811
#
# Static dielectric constant tensor:
#      x y z
#    x 0.804300 0.003740 0.034480 
#    y 0.003740 1.889920 0.000050 
#    z 0.034480 0.000050 1.755630 
# 
# From -- ./inp_files/253991.got.cif
#   From: 2010.05.17/outbox.cif.g08.bks.cpg/sg15_127_cif.got.tgz:253991.got - 2010.06.03 18:47:42.
