data_PCOD9301149
_publ_section_title
;
Structure prediction by ZEFSAII (Michael W. Deem and Ramdas Pophale) SiO2 
 PCOD9301149
Probable space group: C 2/C
;
_chemical_formula_sum "Si O2"
_cell_formula_units_Z 56
_cell_length_a 14.196331
_cell_length_b 22.467142
_cell_length_c 9.947354
_cell_angle_alpha 90.000000
_cell_angle_beta 61.780261
_cell_angle_gamma 90.000000
_cell_volume 2795.610955
_symmetry_space_group_name_H-M "C 2/C"
_symmetry_group_IT_number 15
_symmetry_cell_setting 'monoclinic'
loop_
_space_group_symop_operation_xyz
x,y,z
-x,y,1/2-z
-x,-y,-z
x,-y,1/2+z
1/2+x,1/2+y,z
1/2-x,1/2+y,1/2-z
1/2-x,1/2-y,-z
1/2+x,1/2-y,1/2+z
loop_
_atom_site_type_symbol
_atom_site_label
_atom_site_fract_x
_atom_site_fract_y
_atom_site_fract_z
Si Si1 0.647970 0.620204 0.059099
Si Si2 0.606260 0.804665 0.768262
Si Si3 0.298088 0.628100 0.003410
Si Si4 0.015883 0.692085 0.890037
Si Si5 0.735212 0.317462 0.245713
Si Si6 0.080142 0.008189 0.571370
Si Si7 0.565271 0.674348 0.372240
O O1 0.716914 0.656266 0.905724
O O2 0.654599 0.549134 0.057283
O O3 0.649398 0.654518 0.200828
O O4 0.527650 0.626955 0.082704
O O5 0.500000 0.792230 0.750000
O O6 0.683871 0.850607 0.638333
O O7 0.674775 0.744703 0.755068
O O8 0.564142 0.829030 0.940397
O O9 0.381037 0.672581 0.020268
O O10 0.304075 0.636979 0.840653
O O11 0.340580 0.563102 0.010180
O O12 0.137850 0.686727 0.854646
O O13 0.006394 0.763693 0.888275
O O14 0.000000 0.667835 0.750000
O O15 0.000000 0.019953 0.750000
O O16 0.000000 0.000000 0.500000
#
# Coordination Sequence:
#
# PCOD9301149 Si02
#       7
#     8   8   8   8   8   8   8
#     4  11  22  39  61  95 132 159 217 269 322 380
#     4  12  24  41  62  93 138 175 215 263 320 395
#     4  12  25  38  61  93 133 176 213 258 330 382
#     4  12  24  40  63  95 131 171 214 264 325 393
#     4  12  25  39  65  97 131 174 216 262 327 391
#     4  12  23  40  65  95 128 168 214 270 321 380
#     4  11  20  38  62  94 127 169 208 262 326 386
#
# _framework density 20.031397999999999
#
# number of rings (size 3 to 8) (size 9 to 14) (size 15 to 20)
#    0.000    0.286    8.571    2.143    2.000    1.143 
#    0.000    0.000    0.000    1.714    0.000    0.000 
#    0.000    0.000    0.000    0.000    0.000    0.000 
#
# Total GULP energy -156292.305770 kJ/mol
# GULP energy per Si atom -5581.868063 kJ/mol
# Density = 1.998581 g / cm^3
# Si number density = 20.031398 Si / 1000 Ang^3
#
#
#
# Elastic Constant Matrix: (Units=GPa)
#
#
# Indices 1 2 3 4 5 6 
#
# 1 62.5906 -2.8275 -2.5808 0.0000 1.7524 0.0000
# 2 -2.8275 72.3695 14.6472 0.0000 -18.9162 0.0000
# 3 -2.5808 14.6472 84.3430 0.0000 -6.4850 0.0000
# 4 0.0000 0.0000 0.0000 13.8733 0.0000 -4.8245
# 5 1.7524 -18.9162 -6.4850 0.0000 29.2181 0.0000
# 6 0.0000 0.0000 0.0000 -4.8245 0.0000 17.1209
#
#
#
# Elastic Compliance Matrix: (Units=1/GPa)
#
#
# Indices 1 2 3 4 5 6 
#
# 1 0.016027 0.000386 0.000375 0.000000 -0.000628 0.000000
# 2 0.000386 0.017014 -0.002134 0.000000 0.010519 0.000000
# 3 0.000375 -0.002134 0.012341 0.000000 0.001335 0.000000
# 4 0.000000 0.000000 0.000000 0.079912 0.000000 0.022518
# 5 -0.000628 0.010519 0.001335 0.000000 0.041369 0.000000
# 6 0.000000 0.000000 0.000000 0.022518 0.000000 0.064753
#
#
# Mechanical properties :
#
#
# Convention : Reuss Voigt Hill
#
# Bulk Modulus (GPa) = 23.45391 26.42009 24.93700
# Shear Modulus (GPa) = 20.13082 26.04676 23.08879
#
# Velocity S-wave (km/s) = 3.17355 3.60987 3.39872
# Velocity P-wave (km/s) = 5.01623 5.53108 5.27994
#
# Compressibility (1/GPa) = 0.04263682
#
# Stress axis : x y z
#
# Youngs Moduli (GPa) = 62.39344 58.77380 81.03016
#
# Poissons Ratio (x) = -0.02269 -0.03039
# Poissons Ratio (y) = -0.02409 0.17293
# Poissons Ratio (z) = -0.02340 0.12543
#
# Static dielectric constant tensor:
#      x y z
#    x 1.731350 0.000000 -0.008570 
#    y 0.000000 1.767320 0.000000 
#    z -0.008570 0.000000 1.780210 
# 
# From -- ./inp_files/42514.got.cif
#   From: 2010.05.17/outbox.cif.g08.bks.cpg/sg15_22_cif.got.tgz:42514.got - 2010.06.03 18:47:42.
