data_PCOD9301404
_publ_section_title
;
Structure prediction by ZEFSAII (Michael W. Deem and Ramdas Pophale) SiO2 
 PCOD9301404
Probable space group: C 2/C
;
_chemical_formula_sum "Si O2"
_cell_formula_units_Z 44
_cell_length_a 9.991269
_cell_length_b 21.769949
_cell_length_c 11.505017
_cell_angle_alpha 90.000000
_cell_angle_beta 117.659752
_cell_angle_gamma 90.000000
_cell_volume 2216.469453
_symmetry_space_group_name_H-M "C 2/C"
_symmetry_group_IT_number 15
_symmetry_cell_setting 'monoclinic'
loop_
_space_group_symop_operation_xyz
x,y,z
-x,y,1/2-z
-x,-y,-z
x,-y,1/2+z
1/2+x,1/2+y,z
1/2-x,1/2+y,1/2-z
1/2-x,1/2-y,-z
1/2+x,1/2-y,1/2+z
loop_
_atom_site_type_symbol
_atom_site_label
_atom_site_fract_x
_atom_site_fract_y
_atom_site_fract_z
Si Si1 0.627384 0.167963 0.706988
Si Si2 0.000000 0.360767 0.750000
Si Si3 0.107021 0.442263 0.010015
Si Si4 0.047366 0.982711 0.388222
Si Si5 0.957738 0.151562 0.860585
Si Si6 0.703505 0.714916 0.098782
O O1 0.500000 0.159675 0.750000
O O2 0.623371 0.110263 0.616435
O O3 0.793092 0.171949 0.830370
O O4 0.618948 0.233380 0.639036
O O5 0.961532 0.404529 0.626019
O O6 0.851967 0.317919 0.710346
O O7 0.273793 0.468235 0.046480
O O8 0.000000 0.500000 0.000000
O O9 0.000000 0.019239 0.250000
O O10 0.952186 0.920373 0.338685
O O11 0.000000 0.000000 0.500000
O O12 0.000000 0.178948 0.750000
O O13 0.084233 0.165140 0.005794
O O14 0.750000 0.750000 0.000000
#
# Coordination Sequence:
#
# PCOD9301404 Si02
#       6
#     8   4   8   8   8   8
#     4  12  27  45  68 105 142 183 232 300 371 428
#     4  12  24  44  74 106 140 190 252 290 360 440
#     4  12  28  44  70 104 146 191 237 300 361 439
#     4  11  24  45  71 103 137 192 243 291 357 434
#     4  11  20  43  70  92 132 186 232 281 358 431
#     4  12  21  42  72 101 133 181 240 296 355 437
#
# _framework density 19.851391
#
# number of rings (size 3 to 8) (size 9 to 14) (size 15 to 20)
#    0.000    0.364    9.091    1.091    6.364    0.727 
#    0.000    0.909    0.000    0.000    0.000    0.000 
#    0.000    0.000    0.000    0.000    0.000    0.000 
#
# Total GULP energy -122682.601174 kJ/mol
# GULP energy per Si atom -5576.481872 kJ/mol
# Density = 1.980621 g / cm^3
# Si number density = 19.851391 Si / 1000 Ang^3
#
#
#
# Elastic Constant Matrix: (Units=GPa)
#
#
# Indices 1 2 3 4 5 6 
#
# 1 159.2046 28.8755 74.3182 0.0000 -5.7226 0.0000
# 2 28.8755 71.9274 39.7330 0.0000 -8.9867 0.0000
# 3 74.3182 39.7330 127.6767 0.0000 2.5460 0.0000
# 4 0.0000 0.0000 0.0000 38.1268 0.0000 -9.0884
# 5 -5.7226 -8.9867 2.5460 0.0000 36.7088 0.0000
# 6 0.0000 0.0000 0.0000 -9.0884 0.0000 41.4626
#
#
#
# Elastic Compliance Matrix: (Units=1/GPa)
#
#
# Indices 1 2 3 4 5 6 
#
# 1 0.008751 -0.000588 -0.004942 0.000000 0.001563 0.000000
# 2 -0.000588 0.017598 -0.005226 0.000000 0.004579 0.000000
# 3 -0.004942 -0.005226 0.012393 0.000000 -0.002909 0.000000
# 4 0.000000 0.000000 0.000000 0.027674 0.000000 0.006066
# 5 0.001563 0.004579 -0.002909 0.000000 0.028808 0.000000
# 6 0.000000 0.000000 0.000000 0.006066 0.000000 0.025448
#
#
# Mechanical properties :
#
#
# Convention : Reuss Voigt Hill
#
# Bulk Modulus (GPa) = 58.03503 71.62913 64.83208
# Shear Modulus (GPa) = 33.80068 37.65176 35.72622
#
# Velocity S-wave (km/s) = 4.13084 4.35981 4.24687
# Velocity P-wave (km/s) = 7.21457 7.84251 7.53508
#
# Compressibility (1/GPa) = 0.01723097
#
# Stress axis : x y z
#
# Youngs Moduli (GPa) = 114.27236 56.82602 80.68974
#
# Poissons Ratio (x) = 0.03340 0.39877
# Poissons Ratio (y) = 0.06717 0.42164
# Poissons Ratio (z) = 0.56474 0.29694
#
# Static dielectric constant tensor:
#      x y z
#    x 1.708340 0.000000 -0.034940 
#    y 0.000000 1.736950 0.000000 
#    z -0.034940 0.000000 1.852890 
# 
# From -- ./inp_files/78364.got.cif
#   From: 2010.05.17/outbox.cif.g08.bks.cpg/sg15_40_cif.got.tgz:78364.got - 2010.06.03 18:47:42.
