data_PCOD9301590
_publ_section_title
;
Structure prediction by ZEFSAII (Michael W. Deem and Ramdas Pophale) SiO2 
 PCOD9301590
Probable space group: C 2/C
;
_chemical_formula_sum "Si O2"
_cell_formula_units_Z 64
_cell_length_a 17.656088
_cell_length_b 28.329011
_cell_length_c 20.130567
_cell_angle_alpha 90.000000
_cell_angle_beta 158.529057
_cell_angle_gamma 90.000000
_cell_volume 3685.511655
_symmetry_space_group_name_H-M "C 2/C"
_symmetry_group_IT_number 15
_symmetry_cell_setting 'monoclinic'
loop_
_space_group_symop_operation_xyz
x,y,z
-x,y,1/2-z
-x,-y,-z
x,-y,1/2+z
1/2+x,1/2+y,z
1/2-x,1/2+y,1/2-z
1/2-x,1/2-y,-z
1/2+x,1/2-y,1/2+z
loop_
_atom_site_type_symbol
_atom_site_label
_atom_site_fract_x
_atom_site_fract_y
_atom_site_fract_z
Si Si1 0.471216 0.453583 0.297892
Si Si2 0.440415 0.559848 0.128683
Si Si3 0.932582 0.052286 0.469987
Si Si4 0.707408 0.100232 0.819907
Si Si5 0.359033 0.899852 0.947015
Si Si6 0.103366 0.193452 0.261911
Si Si7 0.818011 0.300546 0.157247
Si Si8 0.993343 0.454275 0.543283
O O1 0.500000 0.427996 0.250000
O O2 0.588030 0.504254 0.387784
O O3 0.537204 0.438194 0.426479
O O4 0.224474 0.459474 0.099168
O O5 0.500000 0.579961 0.250000
O O6 0.656732 0.568598 0.267470
O O7 0.264748 0.584706 0.941662
O O8 0.691527 0.052652 0.252368
O O9 0.095486 0.085675 0.563565
O O10 0.000000 0.000000 0.500000
O O11 0.492887 0.079085 0.617178
O O12 0.654897 0.155731 0.771855
O O13 0.266189 0.847883 0.882204
O O14 0.504301 0.908151 0.002494
O O15 0.184690 0.246782 0.320673
O O16 0.000000 0.190149 0.250000
O O17 0.906656 0.188489 0.054754
O O18 0.000000 0.302961 0.250000
O O19 0.000000 0.500000 0.500000
#
# Coordination Sequence:
#
# PCOD9301590 Si02
#       8
#     8   8   8   8   8   8   8   8
#     4  11  24  39  55  80 111 143 182 229 281 333
#     4  11  23  35  49  77 109 138 186 237 267 319
#     4  12  20  37  58  77 107 143 183 227 281 327
#     4  12  22  34  54  78 100 148 187 228 277 322
#     4  12  21  34  56  76 102 148 187 232 270 324
#     4  11  21  37  50  74 112 148 191 231 273 325
#     4  11  22  35  51  75 109 152 187 229 277 322
#     4  12  20  36  57  79 107 144 182 229 279 324
#
# _framework density 17.365296000000001
#
# number of rings (size 3 to 8) (size 9 to 14) (size 15 to 20)
#    0.000    0.500    7.500    3.375    1.750    0.500 
#    0.000    2.500    0.000    0.000    0.000    0.000 
#    0.000    1.000    0.500    0.000    0.000    0.000 
#
# Total GULP energy -178298.167178 kJ/mol
# GULP energy per Si atom -5571.817724 kJ/mol
# Density = 1.732577 g / cm^3
# Si number density = 17.365296 Si / 1000 Ang^3
#
#
#
# Elastic Constant Matrix: (Units=GPa)
#
#
# Indices 1 2 3 4 5 6 
#
# 1 86.6847 19.2984 25.9486 0.0004 -6.9818 0.0000
# 2 19.2984 74.6060 8.5260 0.0002 6.0859 0.0000
# 3 25.9486 8.5260 139.6074 0.0012 -17.7806 0.0001
# 4 0.0004 0.0002 0.0012 23.0904 0.0008 6.6575
# 5 -6.9818 6.0859 -17.7806 0.0008 30.5378 0.0000
# 6 0.0000 0.0000 0.0001 6.6575 0.0000 22.4982
#
#
#
# Elastic Compliance Matrix: (Units=1/GPa)
#
#
# Indices 1 2 3 4 5 6 
#
# 1 0.013060 -0.003370 -0.001896 0.000000 0.002553 0.000000
# 2 -0.003370 0.014707 -0.000803 0.000000 -0.004169 0.000000
# 3 -0.001896 -0.000803 0.008133 -0.000001 0.004462 0.000000
# 4 0.000000 0.000000 -0.000001 0.047348 -0.000002 -0.014011
# 5 0.002553 -0.004169 0.004462 -0.000002 0.036759 0.000000
# 6 0.000000 0.000000 0.000000 -0.014011 0.000000 0.048594
#
#
# Mechanical properties :
#
#
# Convention : Reuss Voigt Hill
#
# Bulk Modulus (GPa) = 42.08457 45.38267 43.73362
# Shear Modulus (GPa) = 26.50297 31.70029 29.10163
#
# Velocity S-wave (km/s) = 3.91090 4.27722 4.09816
# Velocity P-wave (km/s) = 6.68439 7.11222 6.90162
#
# Compressibility (1/GPa) = 0.02376168
#
# Stress axis : x y z
#
# Youngs Moduli (GPa) = 76.57228 67.99389 122.96029
#
# Poissons Ratio (x) = 0.22912 0.23318
# Poissons Ratio (y) = 0.25802 0.09872
# Poissons Ratio (z) = 0.14521 0.05459
#
# Static dielectric constant tensor:
#      x y z
#    x 1.640770 0.000000 -0.011280 
#    y 0.000000 1.647300 0.000000 
#    z -0.011280 0.000000 1.610050 
# 
# From -- ./inp_files/250507.got.cif
#   From: 2010.05.17/outbox.cif.g08.bks.cpg/sg15_126_cif.got.tgz:250507.got - 2010.06.03 18:47:42.
