data_PCOD9301289
_publ_section_title
;
Structure prediction by ZEFSAII (Michael W. Deem and Ramdas Pophale) SiO2 
 PCOD9301289
Probable space group: C 2/C
;
_chemical_formula_sum "Si O2"
_cell_formula_units_Z 52
_cell_length_a 5.302744
_cell_length_b 30.903757
_cell_length_c 12.864749
_cell_angle_alpha 90.000000
_cell_angle_beta 80.506177
_cell_angle_gamma 90.000000
_cell_volume 2079.331747
_symmetry_space_group_name_H-M "C 2/C"
_symmetry_group_IT_number 15
_symmetry_cell_setting 'monoclinic'
loop_
_space_group_symop_operation_xyz
x,y,z
-x,y,1/2-z
-x,-y,-z
x,-y,1/2+z
1/2+x,1/2+y,z
1/2-x,1/2+y,1/2-z
1/2-x,1/2-y,-z
1/2+x,1/2-y,1/2+z
loop_
_atom_site_type_symbol
_atom_site_label
_atom_site_fract_x
_atom_site_fract_y
_atom_site_fract_z
Si Si1 0.040440 0.869171 0.860945
Si Si2 0.209300 0.432100 0.394920
Si Si3 0.217293 0.878025 0.416105
Si Si4 0.290659 0.783374 0.853509
Si Si5 0.334815 0.944964 0.866265
Si Si6 0.440479 0.212534 0.948013
Si Si7 0.500000 0.500897 0.250000
O O1 0.068622 0.818291 0.854376
O O2 0.298985 0.893014 0.875281
O O3 0.000000 0.886187 0.750000
O O4 0.832006 0.882582 0.957179
O O5 0.456224 0.399069 0.387617
O O6 0.139899 0.453669 0.512252
O O7 0.283059 0.469257 0.309407
O O8 0.965411 0.405471 0.373379
O O9 0.292586 0.826989 0.402683
O O10 0.500000 0.786307 0.750000
O O11 0.159560 0.736439 0.866088
O O12 0.413110 0.798220 0.954761
O O13 0.500000 0.952182 0.750000
O O14 0.084517 0.970844 0.843627
O O15 0.250000 0.250000 0.000000
#
# Coordination Sequence:
#
# PCOD9301289 Si02
#       7
#     8   8   8   8   8   8   4
#     4  11  20  40  69 106 138 174 224 294 371 424
#     4  11  28  47  75 103 147 191 240 294 360 432
#     4  11  24  47  72 101 143 194 234 286 353 425
#     4  11  24  39  67 104 142 182 235 293 354 421
#     4  11  24  43  75 106 142 181 235 301 368 432
#     4  11  23  43  68  98 142 187 234 291 341 417
#     4  12  28  50  70 108 138 194 242 300 354 432
#
# _framework density 25.008033000000001
#
# number of rings (size 3 to 8) (size 9 to 14) (size 15 to 20)
#    0.000    0.923    2.308    4.615    6.462    0.615 
#    1.385    1.538    0.000    0.000    0.000    0.000 
#    0.000    0.000    0.000    0.000    0.000    0.000 
#
# Total GULP energy -145204.098308 kJ/mol
# GULP energy per Si atom -5584.773012 kJ/mol
# Density = 2.495111 g / cm^3
# Si number density = 25.008033 Si / 1000 Ang^3
#
#
#
# Elastic Constant Matrix: (Units=GPa)
#
#
# Indices 1 2 3 4 5 6 
#
# 1 92.0920 29.5559 12.8625 0.0000 -17.1785 0.0000
# 2 29.5559 124.6334 37.4350 0.0000 -14.8180 0.0000
# 3 12.8625 37.4350 106.9720 0.0000 -13.7113 0.0000
# 4 0.0000 0.0000 0.0000 30.3117 0.0000 -6.4382
# 5 -17.1785 -14.8180 -13.7113 0.0000 32.3997 0.0000
# 6 0.0000 0.0000 0.0000 -6.4382 0.0000 29.6853
#
#
#
# Elastic Compliance Matrix: (Units=1/GPa)
#
#
# Indices 1 2 3 4 5 6 
#
# 1 0.012660 -0.002336 0.000020 0.000000 0.005652 0.000000
# 2 -0.002336 0.009668 -0.002849 0.000000 0.001977 0.000000
# 3 0.000020 -0.002849 0.010761 0.000000 0.003261 0.000000
# 4 0.000000 0.000000 0.000000 0.034584 0.000000 0.007501
# 5 0.005652 0.001977 0.003261 0.000000 0.036146 0.000000
# 6 0.000000 0.000000 0.000000 0.007501 0.000000 0.035313
#
#
# Mechanical properties :
#
#
# Convention : Reuss Voigt Hill
#
# Bulk Modulus (GPa) = 43.93976 53.71160 48.82568
# Shear Modulus (GPa) = 31.83708 34.73562 33.28635
#
# Velocity S-wave (km/s) = 3.57189 3.73094 3.65228
# Velocity P-wave (km/s) = 5.88384 6.33121 6.11162
#
# Compressibility (1/GPa) = 0.02275843
#
# Stress axis : x y z
#
# Youngs Moduli (GPa) = 78.98846 103.42976 92.92863
#
# Poissons Ratio (x) = 0.24163 -0.00184
# Poissons Ratio (y) = 0.18453 0.26476
# Poissons Ratio (z) = -0.00156 0.29468
#
# Static dielectric constant tensor:
#      x y z
#    x 2.047450 0.000000 -0.023200 
#    y 0.000000 1.974330 0.000000 
#    z -0.023200 0.000000 1.956310 
# 
# From -- ./inp_files/130707.got.cif
#   From: 2010.05.17/outbox.cif.g08.bks.cpg/sg15_66_cif.got.tgz:130707.got - 2010.06.03 18:47:42.
