data_PCOD9301846
_publ_section_title
;
Structure prediction by ZEFSAII (Michael W. Deem and Ramdas Pophale) SiO2 
 PCOD9301846
Probable space group: C 2/C
;
_chemical_formula_sum "Si O2"
_cell_formula_units_Z 60
_cell_length_a 17.538839
_cell_length_b 12.764009
_cell_length_c 13.295998
_cell_angle_alpha 90.000000
_cell_angle_beta 75.867789
_cell_angle_gamma 90.000000
_cell_volume 2886.435865
_symmetry_space_group_name_H-M "C 2/C"
_symmetry_group_IT_number 15
_symmetry_cell_setting 'monoclinic'
loop_
_space_group_symop_operation_xyz
x,y,z
-x,y,1/2-z
-x,-y,-z
x,-y,1/2+z
1/2+x,1/2+y,z
1/2-x,1/2+y,1/2-z
1/2-x,1/2-y,-z
1/2+x,1/2-y,1/2+z
loop_
_atom_site_type_symbol
_atom_site_label
_atom_site_fract_x
_atom_site_fract_y
_atom_site_fract_z
Si Si1 0.500000 0.015996 0.750000
Si Si2 0.871321 0.028861 0.511191
Si Si3 0.875218 0.407167 0.669213
Si Si4 0.800321 0.821125 0.198486
Si Si5 0.142135 0.777977 0.690667
Si Si6 0.221148 0.004351 0.639808
Si Si7 0.044049 0.664803 0.554364
Si Si8 0.530637 0.365527 0.895851
O O1 0.423882 0.947019 0.749066
O O2 0.507827 0.088032 0.648931
O O3 0.834488 0.123813 0.587163
O O4 0.802364 0.975852 0.467894
O O5 0.948122 0.068805 0.421902
O O6 0.906963 0.942949 0.575000
O O7 0.840061 0.291675 0.700991
O O8 0.807995 0.487579 0.654949
O O9 0.927839 0.394015 0.552778
O O10 0.707171 0.797932 0.218440
O O11 0.816384 0.904549 0.281137
O O12 0.186303 0.887158 0.659322
O O13 0.112066 0.721729 0.599228
O O14 0.070025 0.813584 0.784721
O O15 0.989602 0.760844 0.535800
#
# Coordination Sequence:
#
# PCOD9301846 Si02
#       8
#     4   8   8   8   8   8   8   8
#     4  12  26  44  68  94 136 174 220 286 326 400
#     4  11  23  41  67 101 137 169 220 280 335 401
#     4  11  26  45  64  99 130 176 231 270 336 407
#     4  11  23  43  65  93 135 178 215 279 340 391
#     4  11  21  39  68  93 131 171 227 266 322 399
#     4  11  23  41  66  94 129 176 219 272 334 396
#     4  12  22  42  71  96 127 179 223 273 331 391
#     4  11  22  39  65 104 129 168 221 276 328 394
#
# _framework density 20.786881000000001
#
# number of rings (size 3 to 8) (size 9 to 14) (size 15 to 20)
#    0.000    0.800    5.333    2.000    0.000    3.200 
#    0.000    0.667    0.000    0.000    0.000    0.000 
#    0.000    0.000    0.000    0.000    0.000    0.000 
#
# Total GULP energy -167302.082860 kJ/mol
# GULP energy per Si atom -5576.736095 kJ/mol
# Density = 2.073957 g / cm^3
# Si number density = 20.786881 Si / 1000 Ang^3
#
#
#
# Elastic Constant Matrix: (Units=GPa)
#
#
# Indices 1 2 3 4 5 6 
#
# 1 104.8873 38.5018 8.2091 0.0000 14.7004 0.0000
# 2 38.5018 93.5494 22.3595 0.0000 10.1809 0.0000
# 3 8.2091 22.3595 31.5239 0.0000 -3.2395 0.0000
# 4 0.0000 0.0000 0.0000 23.7749 0.0000 0.1688
# 5 14.7004 10.1809 -3.2395 0.0000 25.6373 0.0000
# 6 0.0000 0.0000 0.0000 0.1688 0.0000 32.3686
#
#
#
# Elastic Compliance Matrix: (Units=1/GPa)
#
#
# Indices 1 2 3 4 5 6 
#
# 1 0.011841 -0.004140 -0.000684 0.000000 -0.005232 0.000000
# 2 -0.004140 0.015427 -0.010384 0.000000 -0.005064 0.000000
# 3 -0.000684 -0.010384 0.040252 0.000000 0.009602 0.000000
# 4 0.000000 0.000000 0.000000 0.042063 0.000000 -0.000219
# 5 -0.005232 -0.005064 0.009602 0.000000 0.045230 0.000000
# 6 0.000000 0.000000 0.000000 -0.000219 0.000000 0.030895
#
#
# Mechanical properties :
#
#
# Convention : Reuss Voigt Hill
#
# Bulk Modulus (GPa) = 26.95277 40.90016 33.92647
# Shear Modulus (GPa) = 21.88254 27.08216 24.48235
#
# Velocity S-wave (km/s) = 3.24807 3.61342 3.43560
# Velocity P-wave (km/s) = 5.20202 6.09325 5.66519
#
# Compressibility (1/GPa) = 0.03710193
#
# Stress axis : x y z
#
# Youngs Moduli (GPa) = 84.45472 64.82305 24.84328
#
# Poissons Ratio (x) = 0.26838 0.01700
# Poissons Ratio (y) = 0.34967 0.25798
# Poissons Ratio (z) = 0.05780 0.67313
#
# Static dielectric constant tensor:
#      x y z
#    x 1.812370 0.000000 -0.021910 
#    y 0.000000 1.746470 0.000000 
#    z -0.021910 0.000000 1.779410 
# 
# From -- ./inp_files/161299.got.cif
#   From: 2010.05.17/outbox.cif.g08.bks.cpg/sg15_81_cif.got.tgz:161299.got - 2010.06.03 18:47:42.
