data_PCOD9301033
_publ_section_title
;
Structure prediction by ZEFSAII (Michael W. Deem and Ramdas Pophale) SiO2 
 PCOD9301033
Probable space group: C 2/C
;
_chemical_formula_sum "Si O2"
_cell_formula_units_Z 64
_cell_length_a 18.476620
_cell_length_b 30.480969
_cell_length_c 10.956694
_cell_angle_alpha 90.000000
_cell_angle_beta 155.208791
_cell_angle_gamma 90.000000
_cell_volume 2587.431996
_symmetry_space_group_name_H-M "C 2/C"
_symmetry_group_IT_number 15
_symmetry_cell_setting 'monoclinic'
loop_
_space_group_symop_operation_xyz
x,y,z
-x,y,1/2-z
-x,-y,-z
x,-y,1/2+z
1/2+x,1/2+y,z
1/2-x,1/2+y,1/2-z
1/2-x,1/2-y,-z
1/2+x,1/2-y,1/2+z
loop_
_atom_site_type_symbol
_atom_site_label
_atom_site_fract_x
_atom_site_fract_y
_atom_site_fract_z
Si Si1 0.890544 0.268971 0.312026
Si Si2 0.379979 0.022564 0.182544
Si Si3 0.079614 0.408526 0.108907
Si Si4 0.611973 0.443531 0.793983
Si Si5 0.589838 0.590187 0.759702
Si Si6 0.331301 0.346461 0.413922
Si Si7 0.996411 0.181466 0.565845
Si Si8 0.614447 0.161089 0.042618
O O1 0.786988 0.310040 0.205899
O O2 0.958953 0.233555 0.515798
O O3 0.056057 0.291111 0.501785
O O4 0.750000 0.250000 0.000000
O O5 0.500000 0.012010 0.250000
O O6 0.520090 0.041597 0.496081
O O7 0.219799 0.988553 0.940121
O O8 0.272774 0.067966 0.015881
O O9 0.230810 0.410256 0.441216
O O10 0.194910 0.385679 0.179353
O O11 0.934427 0.376750 0.937676
O O12 0.500000 0.449157 0.750000
O O13 0.515657 0.574091 0.024522
O O14 0.500000 0.574782 0.750000
O O15 0.606726 0.643318 0.800377
O O16 0.420520 0.322874 0.438495
O O17 0.500000 0.359781 0.750000
O O18 0.808380 0.161681 0.296325
O O19 0.500000 0.152907 0.750000
#
# Coordination Sequence:
#
# PCOD9301033 Si02
#       8
#     8   8   8   8   8   8   8   8
#     4  11  21  34  58 100 151 187 235 308 372 421
#     4  12  27  48  74 107 150 198 243 311 388 464
#     4  11  25  44  70 106 146 186 243 307 375 447
#     4  12  26  49  80 114 146 190 254 317 383 453
#     4  12  28  50  74 107 155 204 249 310 386 464
#     4  11  20  36  63 101 148 187 233 303 371 428
#     4  12  22  36  63  95 138 193 241 295 361 437
#     4  11  21  35  59  98 144 185 235 300 365 430
#
# _framework density 24.734950999999999
#
# number of rings (size 3 to 8) (size 9 to 14) (size 15 to 20)
#    0.000    0.500    2.500    7.500    0.000    3.500 
#    0.000    0.000    0.000   15.000    0.000    0.000 
#    0.000    0.000    0.000    0.000    0.000    0.000 
#
# Total GULP energy -178372.702106 kJ/mol
# GULP energy per Si atom -5574.146941 kJ/mol
# Density = 2.467865 g / cm^3
# Si number density = 24.734951 Si / 1000 Ang^3
#
#
#
# Elastic Constant Matrix: (Units=GPa)
#
#
# Indices 1 2 3 4 5 6 
#
# 1 94.7467 18.4090 20.3612 0.0000 13.6029 0.0000
# 2 18.4090 140.9453 22.0476 0.0000 20.4266 0.0000
# 3 20.3612 22.0476 70.8971 -0.0001 19.7730 0.0000
# 4 0.0000 0.0000 -0.0001 37.8311 0.0000 32.1744
# 5 13.6029 20.4266 19.7730 0.0000 48.2060 0.0000
# 6 0.0000 0.0000 0.0000 32.1744 0.0000 0.1186
#
#
#
# Elastic Compliance Matrix: (Units=1/GPa)
#
#
# Indices 1 2 3 4 5 6 
#
# 1 0.011529 -0.000840 -0.002531 0.000000 -0.001859 0.000000
# 2 -0.000840 0.007794 -0.001499 0.000000 -0.002451 0.000000
# 3 -0.002531 -0.001499 0.016849 0.000000 -0.005562 0.000000
# 4 0.000000 0.000000 0.000000 -0.000115 0.000000 0.031216
# 5 -0.001859 -0.002451 -0.005562 0.000000 0.024589 0.000000
# 6 0.000000 0.000000 0.000000 0.031216 0.000000 -0.036704
#
#
# Mechanical properties :
#
#
# Convention : Reuss Voigt Hill
#
# Bulk Modulus (GPa) = 37.83448 47.58054 42.70751
# Shear Modulus (GPa) = 117.66611 33.61588 75.64100
#
# Velocity S-wave (km/s) = 6.90464 3.69052 5.53597
# Velocity P-wave (km/s) = 8.88226 6.11865 7.62668
#
# Compressibility (1/GPa) = 0.02643092
#
# Stress axis : x y z
#
# Youngs Moduli (GPa) = 86.74103 128.29754 59.34999
#
# Poissons Ratio (x) = 0.10783 0.15022
# Poissons Ratio (y) = 0.07290 0.08897
# Poissons Ratio (z) = 0.21956 0.19232
#
# Static dielectric constant tensor:
#      x y z
#    x 2.063360 0.000000 -0.056200 
#    y 0.000000 2.031620 0.000000 
#    z -0.056200 0.000000 1.938930 
# 
# From -- ./inp_files/170114.got.cif
#   From: 2010.05.17/outbox.cif.g08.bks.cpg/sg15_86_cif.got.tgz:170114.got - 2010.06.03 18:47:42.
