data_PCOD9301128
_publ_section_title
;
Structure prediction by ZEFSAII (Michael W. Deem and Ramdas Pophale) SiO2 
 PCOD9301128
Probable space group: C 2/C
;
_chemical_formula_sum "Si O2"
_cell_formula_units_Z 56
_cell_length_a 24.394387
_cell_length_b 24.602404
_cell_length_c 15.349069
_cell_angle_alpha 90.000000
_cell_angle_beta 163.063056
_cell_angle_gamma 90.000000
_cell_volume 2683.603967
_symmetry_space_group_name_H-M "C 2/C"
_symmetry_group_IT_number 15
_symmetry_cell_setting 'monoclinic'
loop_
_space_group_symop_operation_xyz
x,y,z
-x,y,1/2-z
-x,-y,-z
x,-y,1/2+z
1/2+x,1/2+y,z
1/2-x,1/2+y,1/2-z
1/2-x,1/2-y,-z
1/2+x,1/2-y,1/2+z
loop_
_atom_site_type_symbol
_atom_site_label
_atom_site_fract_x
_atom_site_fract_y
_atom_site_fract_z
Si Si1 0.733464 0.900017 0.916399
Si Si2 0.226022 0.324564 0.116590
Si Si3 0.213863 0.799416 0.612121
Si Si4 0.124444 0.432688 0.045034
Si Si5 0.790929 0.022641 0.168282
Si Si6 0.716085 0.487671 0.050361
Si Si7 0.572721 0.628005 0.037112
O O1 0.688044 0.841325 0.806462
O O2 0.593470 0.913837 0.783115
O O3 0.948899 0.903680 0.276305
O O4 0.720116 0.950736 0.831587
O O5 0.273759 0.262535 0.214488
O O6 0.236222 0.377715 0.193040
O O7 0.396829 0.338860 0.310622
O O8 0.000000 0.321703 0.750000
O O9 0.207516 0.830341 0.693598
O O10 0.000000 0.797842 0.250000
O O11 0.174382 0.483217 0.057393
O O12 0.171174 0.449106 0.214205
O O13 0.751240 0.020833 0.003785
O O14 0.810946 0.085065 0.229638
O O15 0.000000 0.000000 0.500000
O O16 0.500000 0.480577 0.750000
#
# Coordination Sequence:
#
# PCOD9301128 Si02
#       7
#     8   8   8   8   8   8   8
#     4  11  21  36  57  89 124 152 192 253 309 358
#     4  11  21  35  57  88 120 160 200 251 309 358
#     4   9  22  34  58  87 121 160 200 250 306 367
#     4  12  24  37  58  90 125 156 198 253 302 359
#     4  12  22  39  61  85 117 166 206 241 305 370
#     4  12  22  38  60  86 121 161 203 242 298 373
#     4  11  20  38  59  83 120 158 198 247 306 369
#
# _framework density 20.867460000000001
#
# number of rings (size 3 to 8) (size 9 to 14) (size 15 to 20)
#    0.000    0.857    5.714    2.571    2.000    1.714 
#    0.000    0.000    0.000    0.857    3.714    0.000 
#    0.000    0.000    0.000    0.000    0.000    0.000 
#
# Total GULP energy -156004.583802 kJ/mol
# GULP energy per Si atom -5571.592279 kJ/mol
# Density = 2.081997 g / cm^3
# Si number density = 20.867460 Si / 1000 Ang^3
#
#
#
# Elastic Constant Matrix: (Units=GPa)
#
#
# Indices 1 2 3 4 5 6 
#
# 1 140.7153 82.8644 36.0905 0.0000 0.3055 0.0000
# 2 82.8644 177.3748 27.6122 0.0000 -8.0984 0.0000
# 3 36.0905 27.6122 47.1652 -0.0001 4.5284 -0.0001
# 4 0.0000 0.0000 -0.0001 19.4722 -0.0001 5.8771
# 5 0.3055 -8.0984 4.5284 -0.0001 35.4641 0.0000
# 6 0.0000 0.0000 -0.0001 5.8771 0.0000 28.1692
#
#
#
# Elastic Compliance Matrix: (Units=1/GPa)
#
#
# Indices 1 2 3 4 5 6 
#
# 1 0.011182 -0.004303 -0.006007 0.000000 -0.000312 0.000000
# 2 -0.004303 0.007989 -0.001582 0.000000 0.002063 0.000000
# 3 -0.006007 -0.001582 0.027087 0.000000 -0.003768 0.000000
# 4 0.000000 0.000000 0.000000 0.054806 0.000000 -0.011435
# 5 -0.000312 0.002063 -0.003768 0.000000 0.029153 0.000000
# 6 0.000000 0.000000 0.000000 -0.011435 0.000000 0.037885
#
#
# Mechanical properties :
#
#
# Convention : Reuss Voigt Hill
#
# Bulk Modulus (GPa) = 44.49914 73.15439 58.82677
# Shear Modulus (GPa) = 25.07807 31.20032 28.13919
#
# Velocity S-wave (km/s) = 3.47043 3.87093 3.67614
# Velocity P-wave (km/s) = 6.11796 7.42372 6.80224
#
# Compressibility (1/GPa) = 0.02247234
#
# Stress axis : x y z
#
# Youngs Moduli (GPa) = 89.43042 125.17985 36.91816
#
# Poissons Ratio (x) = 0.53864 0.22178
# Poissons Ratio (y) = 0.38481 0.05841
# Poissons Ratio (z) = 0.53723 0.19807
#
# Static dielectric constant tensor:
#      x y z
#    x 1.841140 0.000000 0.021450 
#    y 0.000000 1.812880 0.000000 
#    z 0.021450 0.000000 1.806090 
# 
# From -- ./inp_files/174766.got.cif
#   From: 2010.05.17/outbox.cif.g08.bks.cpg/sg15_88_cif.got.tgz:174766.got - 2010.06.03 18:47:42.
