data_PCOD9301588
_publ_section_title
;
Structure prediction by ZEFSAII (Michael W. Deem and Ramdas Pophale) SiO2 
 PCOD9301588
Probable space group: C 2/C
;
_chemical_formula_sum "Si O2"
_cell_formula_units_Z 56
_cell_length_a 21.600552
_cell_length_b 14.636077
_cell_length_c 14.575666
_cell_angle_alpha 90.000000
_cell_angle_beta 40.325712
_cell_angle_gamma 90.000000
_cell_volume 2982.021690
_symmetry_space_group_name_H-M "C 2/C"
_symmetry_group_IT_number 15
_symmetry_cell_setting 'monoclinic'
loop_
_space_group_symop_operation_xyz
x,y,z
-x,y,1/2-z
-x,-y,-z
x,-y,1/2+z
1/2+x,1/2+y,z
1/2-x,1/2+y,1/2-z
1/2-x,1/2-y,-z
1/2+x,1/2-y,1/2+z
loop_
_atom_site_type_symbol
_atom_site_label
_atom_site_fract_x
_atom_site_fract_y
_atom_site_fract_z
Si Si1 0.126053 0.289930 0.414487
Si Si2 0.088827 0.485163 0.522940
Si Si3 0.916873 0.317829 0.568304
Si Si4 0.697422 0.834118 0.151836
Si Si5 0.253868 0.192265 0.401657
Si Si6 0.601942 0.286634 0.602675
Si Si7 0.128795 0.482086 0.685933
O O1 0.143864 0.393313 0.430889
O O2 0.188200 0.273616 0.252800
O O3 0.156526 0.217268 0.457155
O O4 0.017711 0.292448 0.501003
O O5 0.091171 0.574284 0.454071
O O6 0.126386 0.510731 0.581875
O O7 0.978702 0.452869 0.665526
O O8 0.836103 0.287663 0.732405
O O9 0.911160 0.263165 0.479414
O O10 0.640990 0.785441 0.133628
O O11 0.646203 0.929025 0.226402
O O12 0.807729 0.853325 0.005639
O O13 0.250000 0.250000 0.500000
O O14 0.288309 0.091186 0.391437
O O15 0.500000 0.323760 0.750000
#
# Coordination Sequence:
#
# PCOD9301588 Si02
#       7
#     8   8   8   8   8   8   8
#     4  12  22  37  61  92 123 167 208 248 323 381
#     4  11  21  36  66  95 123 156 203 276 332 364
#     4  12  22  39  64  95 125 160 208 266 324 372
#     4  11  22  36  63  95 122 160 206 265 325 384
#     4  12  26  41  59  89 132 175 205 254 311 394
#     4  11  21  37  61  92 128 156 200 266 326 382
#     4  11  21  39  63  93 128 160 207 268 330 374
#
# _framework density 18.779207
#
# number of rings (size 3 to 8) (size 9 to 14) (size 15 to 20)
#    0.000    0.571    8.571    1.286    0.000    0.571 
#    0.000    0.000    3.143    0.857    0.000    0.000 
#    0.000    0.000    0.000    0.000    0.000    0.000 
#
# Total GULP energy -156022.593844 kJ/mol
# GULP energy per Si atom -5572.235494 kJ/mol
# Density = 1.873646 g / cm^3
# Si number density = 18.779207 Si / 1000 Ang^3
#
#
#
# Elastic Constant Matrix: (Units=GPa)
#
#
# Indices 1 2 3 4 5 6 
#
# 1 129.0800 22.4465 25.6311 0.0000 9.7440 0.0000
# 2 22.4465 31.4686 -3.7422 0.0000 1.8020 0.0000
# 3 25.6311 -3.7422 79.9646 0.0000 3.6182 0.0000
# 4 0.0000 0.0000 0.0000 25.5089 0.0000 3.5907
# 5 9.7440 1.8020 3.6182 0.0000 39.5935 0.0000
# 6 0.0000 0.0000 0.0000 3.5907 0.0000 26.3289
#
#
#
# Elastic Compliance Matrix: (Units=1/GPa)
#
#
# Indices 1 2 3 4 5 6 
#
# 1 0.009831 -0.007317 -0.003413 0.000000 -0.001775 0.000000
# 2 -0.007317 0.037502 0.004113 0.000000 -0.000282 0.000000
# 3 -0.003413 0.004113 0.013820 0.000000 -0.000610 0.000000
# 4 0.000000 0.000000 0.000000 0.039969 0.000000 -0.005451
# 5 -0.001775 -0.000282 -0.000610 0.000000 0.025762 0.000000
# 6 0.000000 0.000000 0.000000 -0.005451 0.000000 0.038724
#
#
# Mechanical properties :
#
#
# Convention : Reuss Voigt Hill
#
# Bulk Modulus (GPa) = 20.86867 36.57601 28.72234
# Shear Modulus (GPa) = 25.66524 31.36479 28.51502
#
# Velocity S-wave (km/s) = 3.70088 4.09123 3.90094
# Velocity P-wave (km/s) = 5.42206 6.46813 5.96806
#
# Compressibility (1/GPa) = 0.04791872
#
# Stress axis : x y z
#
# Youngs Moduli (GPa) = 101.71648 26.66517 72.36048
#
# Poissons Ratio (x) = 0.19511 0.24699
# Poissons Ratio (y) = 0.74425 -0.29762
# Poissons Ratio (z) = 0.34719 -0.10968
#
# Static dielectric constant tensor:
#      x y z
#    x 1.693570 0.000000 0.007850 
#    y 0.000000 1.640990 0.000000 
#    z 0.007850 0.000000 1.692220 
# 
# From -- ./inp_files/168446.got.cif
#   From: 2010.05.17/outbox.cif.g08.bks.cpg/sg15_85_cif.got.tgz:168446.got - 2010.06.03 18:47:42.
