data_PCOD9301819
_publ_section_title
;
Structure prediction by ZEFSAII (Michael W. Deem and Ramdas Pophale) SiO2 
 PCOD9301819
Probable space group: C 2/C
;
_chemical_formula_sum "Si O2"
_cell_formula_units_Z 40
_cell_length_a 9.763985
_cell_length_b 24.574450
_cell_length_c 15.018570
_cell_angle_alpha 90.000000
_cell_angle_beta 151.994573
_cell_angle_gamma 90.000000
_cell_volume 1692.100450
_symmetry_space_group_name_H-M "C 2/C"
_symmetry_group_IT_number 15
_symmetry_cell_setting 'monoclinic'
loop_
_space_group_symop_operation_xyz
x,y,z
-x,y,1/2-z
-x,-y,-z
x,-y,1/2+z
1/2+x,1/2+y,z
1/2-x,1/2+y,1/2-z
1/2-x,1/2-y,-z
1/2+x,1/2-y,1/2+z
loop_
_atom_site_type_symbol
_atom_site_label
_atom_site_fract_x
_atom_site_fract_y
_atom_site_fract_z
Si Si1 0.336203 0.836805 0.480529
Si Si2 0.543526 0.233034 0.617788
Si Si3 0.314679 0.443991 0.384335
Si Si4 0.559414 0.329734 0.512427
Si Si5 0.813178 0.553106 0.892179
O O1 0.495378 0.800127 0.497267
O O2 0.440956 0.898205 0.523767
O O3 0.000000 0.835211 0.250000
O O4 0.269042 0.828546 0.546497
O O5 0.671760 0.289936 0.654354
O O6 0.755953 0.197353 0.801971
O O7 0.250000 0.250000 0.500000
O O8 0.500000 0.500000 0.500000
O O9 0.494446 0.389701 0.513428
O O10 0.240449 0.430192 0.239579
O O11 0.000000 0.449767 0.250000
O O12 0.500000 0.538581 0.750000
O O13 0.000000 0.500000 0.000000
#
# Coordination Sequence:
#
# PCOD9301819 Si02
#       5
#     8   8   8   8   8
#     4   9  19  40  64  86 128 175 210 264 339 393
#     4  11  21  39  66  94 127 169 218 273 334 395
#     4  12  25  44  68 101 140 176 228 288 341 401
#     4  11  23  44  66  93 134 178 220 278 340 404
#     4  11  21  43  70  92 132 180 225 275 342 402
#
# _framework density 23.639258999999999
#
# number of rings (size 3 to 8) (size 9 to 14) (size 15 to 20)
#    0.000    1.200    6.000    3.600    0.000    0.000 
#    3.600    3.000    0.000    0.000    0.000    0.000 
#    0.000    0.000    0.000    0.000    0.000    0.000 
#
# Total GULP energy -111803.269517 kJ/mol
# GULP energy per Si atom -5590.163476 kJ/mol
# Density = 2.358545 g / cm^3
# Si number density = 23.639259 Si / 1000 Ang^3
#
#
#
# Elastic Constant Matrix: (Units=GPa)
#
#
# Indices 1 2 3 4 5 6 
#
# 1 191.9886 58.0282 46.7120 0.0003 38.2398 0.0000
# 2 58.0282 186.0772 30.9887 0.0005 35.4658 0.0000
# 3 46.7120 30.9887 74.8845 -0.0001 -4.0837 0.0002
# 4 0.0003 0.0005 -0.0001 44.8391 -0.0001 5.9274
# 5 38.2398 35.4658 -4.0837 -0.0001 44.2395 0.0000
# 6 0.0000 0.0000 0.0002 5.9274 0.0000 50.4786
#
#
#
# Elastic Compliance Matrix: (Units=1/GPa)
#
#
# Indices 1 2 3 4 5 6 
#
# 1 0.008005 -0.000241 -0.005287 0.000000 -0.007214 0.000000
# 2 -0.000241 0.007055 -0.003082 0.000000 -0.005732 0.000000
# 3 -0.005287 -0.003082 0.018404 0.000000 0.008739 0.000000
# 4 0.000000 0.000000 0.000000 0.022654 0.000000 -0.002660
# 5 -0.007214 -0.005732 0.008739 0.000000 0.034242 0.000000
# 6 0.000000 0.000000 0.000000 -0.002660 0.000000 0.020123
#
#
# Mechanical properties :
#
#
# Convention : Reuss Voigt Hill
#
# Bulk Modulus (GPa) = 61.56067 80.48978 71.02523
# Shear Modulus (GPa) = 37.56130 49.05953 43.31041
#
# Velocity S-wave (km/s) = 3.99047 4.56053 4.28499
# Velocity P-wave (km/s) = 6.87968 7.86476 7.38866
#
# Compressibility (1/GPa) = 0.01624414
#
# Stress axis : x y z
#
# Youngs Moduli (GPa) = 124.92736 141.74365 54.33671
#
# Poissons Ratio (x) = 0.03413 0.28728
# Poissons Ratio (y) = 0.03008 0.16746
# Poissons Ratio (z) = 0.66049 0.43684
#
# Static dielectric constant tensor:
#      x y z
#    x 1.861290 0.000000 -0.102450 
#    y 0.000000 1.913850 0.000000 
#    z -0.102450 0.000000 2.152240 
# 
# From -- ./inp_files/137616.got.cif
#   From: 2010.05.17/outbox.cif.g08.bks.cpg/sg15_69_cif.got.tgz:137616.got - 2010.06.03 18:47:42.
