data_PCOD9301031
_publ_section_title
;
Structure prediction by ZEFSAII (Michael W. Deem and Ramdas Pophale) SiO2 
 PCOD9301031
Probable space group: C 2/C
;
_chemical_formula_sum "Si O2"
_cell_formula_units_Z 64
_cell_length_a 28.069036
_cell_length_b 19.332049
_cell_length_c 8.807523
_cell_angle_alpha 90.000000
_cell_angle_beta 137.214253
_cell_angle_gamma 90.000000
_cell_volume 3246.343104
_symmetry_space_group_name_H-M "C 2/C"
_symmetry_group_IT_number 15
_symmetry_cell_setting 'monoclinic'
loop_
_space_group_symop_operation_xyz
x,y,z
-x,y,1/2-z
-x,-y,-z
x,-y,1/2+z
1/2+x,1/2+y,z
1/2-x,1/2+y,1/2-z
1/2-x,1/2-y,-z
1/2+x,1/2-y,1/2+z
loop_
_atom_site_type_symbol
_atom_site_label
_atom_site_fract_x
_atom_site_fract_y
_atom_site_fract_z
Si Si1 0.464618 0.126060 0.805579
Si Si2 0.429135 0.279401 0.665454
Si Si3 0.207600 0.548110 0.681332
Si Si4 0.312803 0.910493 0.025878
Si Si5 0.780751 0.800949 0.842223
Si Si6 0.786013 0.163159 0.703954
Si Si7 0.563749 0.874940 0.812368
Si Si8 0.423580 0.276861 0.014409
O O1 0.500000 0.085227 0.750000
O O2 0.432662 0.196216 0.659261
O O3 0.397363 0.091658 0.724637
O O4 0.526711 0.144548 0.067301
O O5 0.500000 0.305399 0.750000
O O6 0.363474 0.312310 0.428225
O O7 0.422271 0.288992 0.830934
O O8 0.208912 0.467535 0.648057
O O9 0.265854 0.589405 0.723679
O O10 0.132442 0.579765 0.454073
O O11 0.213314 0.565271 0.871581
O O12 0.277545 0.837859 0.898201
O O13 0.763972 0.720101 0.831073
O O14 0.777076 0.832500 0.002472
O O15 0.856520 0.809127 0.941505
O O16 0.500000 0.912435 0.750000
O O17 0.579649 0.804923 0.945465
O O18 0.500000 0.300835 0.250000
#
# Coordination Sequence:
#
# PCOD9301031 Si02
#       8
#     8   8   8   8   8   8   8   8
#     4  11  24  36  61  88 128 167 213 255 304 376
#     4  11  21  36  60  93 126 158 205 258 315 366
#     4  12  26  42  64  85 130 169 217 258 313 372
#     4  12  26  44  60  90 123 175 213 261 313 374
#     4  11  24  39  64  92 124 161 213 260 318 369
#     4  11  24  39  63  93 123 163 208 266 312 373
#     4  11  21  39  58  90 125 170 211 252 307 370
#     4  11  20  36  62  91 126 159 203 260 312 368
#
# _framework density 19.714489
#
# number of rings (size 3 to 8) (size 9 to 14) (size 15 to 20)
#    0.000    0.750    6.250    2.250    5.250    2.000 
#    0.000    0.000    0.000    0.750    0.000    5.250 
#    0.000    0.000    0.000    0.000    0.000    0.000 
#
# Total GULP energy -178776.883238 kJ/mol
# GULP energy per Si atom -5586.777601 kJ/mol
# Density = 1.966962 g / cm^3
# Si number density = 19.714489 Si / 1000 Ang^3
#
#
#
# Elastic Constant Matrix: (Units=GPa)
#
#
# Indices 1 2 3 4 5 6 
#
# 1 104.7685 0.1333 20.7101 0.0000 2.7290 0.0000
# 2 0.1333 34.8345 2.2108 0.0000 -2.3512 0.0000
# 3 20.7101 2.2108 68.1623 0.0000 -2.3042 0.0000
# 4 0.0000 0.0000 0.0000 20.0927 0.0000 -5.8406
# 5 2.7290 -2.3512 -2.3042 0.0000 38.0682 0.0000
# 6 0.0000 0.0000 0.0000 -5.8406 0.0000 9.2041
#
#
#
# Elastic Compliance Matrix: (Units=1/GPa)
#
#
# Indices 1 2 3 4 5 6 
#
# 1 0.010187 0.000098 -0.003129 0.000000 -0.000914 0.000000
# 2 0.000098 0.028881 -0.000908 0.000000 0.001722 0.000000
# 3 -0.003129 -0.000908 0.015689 0.000000 0.001118 0.000000
# 4 0.000000 0.000000 0.000000 0.061026 0.000000 0.038725
# 5 -0.000914 0.001722 0.001118 0.000000 0.026508 0.000000
# 6 0.000000 0.000000 0.000000 0.038725 0.000000 0.133221
#
#
# Mechanical properties :
#
#
# Convention : Reuss Voigt Hill
#
# Bulk Modulus (GPa) = 21.33220 28.20818 24.77019
# Shear Modulus (GPa) = 16.72148 25.78707 21.25427
#
# Velocity S-wave (km/s) = 2.91552 3.62059 3.28701
# Velocity P-wave (km/s) = 4.70932 5.64071 5.19593
#
# Compressibility (1/GPa) = 0.04687748
#
# Stress axis : x y z
#
# Youngs Moduli (GPa) = 98.16327 34.62521 63.73930
#
# Poissons Ratio (x) = -0.00339 0.19946
# Poissons Ratio (y) = -0.00962 0.05789
# Poissons Ratio (z) = 0.30718 0.03145
#
# Static dielectric constant tensor:
#      x y z
#    x 1.730750 0.000000 -0.020980 
#    y 0.000000 1.674660 0.000000 
#    z -0.020980 0.000000 1.703130 
# 
# From -- ./inp_files/70605.got.cif
#   From: 2010.05.17/outbox.cif.g08.bks.cpg/sg15_36_cif.got.tgz:70605.got - 2010.06.03 18:47:42.
