data_PCOD9301943
_publ_section_title
;
Structure prediction by ZEFSAII (Michael W. Deem and Ramdas Pophale) SiO2 
 PCOD9301943
Probable space group: C 2/C
;
_chemical_formula_sum "Si O2"
_cell_formula_units_Z 52
_cell_length_a 17.317076
_cell_length_b 18.353728
_cell_length_c 8.499053
_cell_angle_alpha 90.000000
_cell_angle_beta 113.705435
_cell_angle_gamma 90.000000
_cell_volume 2473.356840
_symmetry_space_group_name_H-M "C 2/C"
_symmetry_group_IT_number 15
_symmetry_cell_setting 'monoclinic'
loop_
_space_group_symop_operation_xyz
x,y,z
-x,y,1/2-z
-x,-y,-z
x,-y,1/2+z
1/2+x,1/2+y,z
1/2-x,1/2+y,1/2-z
1/2-x,1/2-y,-z
1/2+x,1/2-y,1/2+z
loop_
_atom_site_type_symbol
_atom_site_label
_atom_site_fract_x
_atom_site_fract_y
_atom_site_fract_z
Si Si1 0.000000 0.195170 0.250000
Si Si2 0.341606 0.889494 0.072584
Si Si3 0.500000 0.103181 0.250000
Si Si4 0.549337 0.780955 0.542042
Si Si5 0.653019 0.407160 0.903991
Si Si6 0.500000 0.668064 0.750000
Si Si7 0.902518 0.474484 0.440748
Si Si8 0.414471 0.543973 0.478750
O O1 0.924464 0.146677 0.122043
O O2 0.976013 0.246238 0.374914
O O3 0.376870 0.924129 0.268868
O O4 0.385808 0.817896 0.030460
O O5 0.243077 0.874256 0.014853
O O6 0.349391 0.954166 0.946521
O O7 0.479661 0.151351 0.382304
O O8 0.585394 0.064543 0.378953
O O9 0.558578 0.718924 0.685454
O O10 0.636172 0.425628 0.709453
O O11 0.640923 0.483710 0.980572
O O12 0.442377 0.612592 0.604328
O O13 0.000000 0.500000 0.500000
O O14 0.500000 0.500000 0.500000
#
# Coordination Sequence:
#
# PCOD9301943 Si02
#       8
#     4   8   4   8   8   4   8   8
#     4  12  23  43  69  91 130 194 220 264 332 425
#     4  12  25  42  66 108 135 170 224 296 338 395
#     4  11  22  39  73  96 123 180 228 260 329 418
#     4  11  24  40  65  96 134 178 220 267 337 417
#     4  12  25  41  71 100 135 171 233 287 341 387
#     4  11  21  40  68  97 127 184 238 262 331 423
#     4  12  21  42  71  97 129 175 228 280 341 401
#     4  12  20  42  70 100 127 179 236 285 329 400
#
# _framework density 21.024059000000001
#
# number of rings (size 3 to 8) (size 9 to 14) (size 15 to 20)
#    0.000    0.308    7.692    1.846    0.000    0.615 
#    0.000    0.769    0.000    0.000    0.000    0.000 
#    0.000    0.000    0.000    0.000    0.000    0.000 
#
# Total GULP energy -144768.718452 kJ/mol
# GULP energy per Si atom -5568.027633 kJ/mol
# Density = 2.097621 g / cm^3
# Si number density = 21.024059 Si / 1000 Ang^3
#
#
#
# Elastic Constant Matrix: (Units=GPa)
#
#
# Indices 1 2 3 4 5 6 
#
# 1 66.4924 29.2830 28.3682 0.0000 11.5081 0.0000
# 2 29.2830 106.6986 35.7731 0.0000 -12.0701 0.0000
# 3 28.3682 35.7731 118.2631 0.0000 -8.1718 0.0000
# 4 0.0000 0.0000 0.0000 45.9215 0.0000 -28.1295
# 5 11.5081 -12.0701 -8.1718 0.0000 29.1956 0.0000
# 6 0.0000 0.0000 0.0000 -28.1295 0.0000 29.8928
#
#
#
# Elastic Compliance Matrix: (Units=1/GPa)
#
#
# Indices 1 2 3 4 5 6 
#
# 1 0.021510 -0.005854 -0.004224 0.000000 -0.012081 0.000000
# 2 -0.005854 0.012385 -0.001865 0.000000 0.006906 0.000000
# 3 -0.004224 -0.001865 0.010294 0.000000 0.003775 0.000000
# 4 0.000000 0.000000 0.000000 0.051411 0.000000 0.048378
# 5 -0.012081 0.006906 0.003775 0.000000 0.042925 0.000000
# 6 0.000000 0.000000 0.000000 0.048378 0.000000 0.078977
#
#
# Mechanical properties :
#
#
# Convention : Reuss Voigt Hill
#
# Bulk Modulus (GPa) = 49.25142 53.14476 51.19809
# Shear Modulus (GPa) = 20.14856 34.20396 27.17626
#
# Velocity S-wave (km/s) = 3.09909 4.03786 3.59921
# Velocity P-wave (km/s) = 6.02353 6.86090 6.45581
#
# Compressibility (1/GPa) = 0.02030398
#
# Stress axis : x y z
#
# Youngs Moduli (GPa) = 46.48919 80.74103 97.14487
#
# Poissons Ratio (x) = 0.47266 0.41032
# Poissons Ratio (y) = 0.27215 0.18117
# Poissons Ratio (z) = 0.19636 0.15058
#
# Static dielectric constant tensor:
#      x y z
#    x 1.414160 0.000000 0.046400 
#    y 0.000000 1.862970 0.000000 
#    z 0.046400 0.000000 1.829150 
# 
# From -- ./inp_files/49250.got.cif
#   From: 2010.05.17/outbox.cif.g08.bks.cpg/sg15_25_cif.got.tgz:49250.got - 2010.06.03 18:47:42.
