data_PCOD9301278
_publ_section_title
;
Structure prediction by ZEFSAII (Michael W. Deem and Ramdas Pophale) SiO2 
 PCOD9301278
Probable space group: C 2/C
;
_chemical_formula_sum "Si O2"
_cell_formula_units_Z 64
_cell_length_a 13.457701
_cell_length_b 14.856918
_cell_length_c 23.290936
_cell_angle_alpha 90.000000
_cell_angle_beta 134.269282
_cell_angle_gamma 90.000000
_cell_volume 3334.573135
_symmetry_space_group_name_H-M "C 2/C"
_symmetry_group_IT_number 15
_symmetry_cell_setting 'monoclinic'
loop_
_space_group_symop_operation_xyz
x,y,z
-x,y,1/2-z
-x,-y,-z
x,-y,1/2+z
1/2+x,1/2+y,z
1/2-x,1/2+y,1/2-z
1/2-x,1/2-y,-z
1/2+x,1/2-y,1/2+z
loop_
_atom_site_type_symbol
_atom_site_label
_atom_site_fract_x
_atom_site_fract_y
_atom_site_fract_z
Si Si1 0.345128 0.274064 0.205537
Si Si2 0.845644 0.369678 0.179456
Si Si3 0.187911 0.786406 0.534543
Si Si4 0.363473 0.961392 0.602350
Si Si5 0.668022 0.874709 0.708774
Si Si6 0.878380 0.272023 0.928755
Si Si7 0.735262 0.069418 0.726643
Si Si8 0.959302 0.563277 0.537329
O O1 0.500000 0.249698 0.250000
O O2 0.251265 0.273200 0.111373
O O3 0.290358 0.198238 0.227245
O O4 0.344575 0.368978 0.237852
O O5 0.860218 0.461116 0.148738
O O6 0.741331 0.300044 0.108034
O O7 0.788534 0.392706 0.219483
O O8 0.000000 0.331230 0.250000
O O9 0.250000 0.750000 0.500000
O O10 0.246366 0.887097 0.565241
O O11 0.023157 0.777122 0.471978
O O12 0.513083 0.910998 0.662226
O O13 0.354742 0.009215 0.536654
O O14 0.660686 0.828043 0.644080
O O15 0.762056 0.963391 0.743027
O O16 0.903509 0.343564 0.989513
O O17 0.594003 0.078518 0.631961
O O18 0.000000 0.500000 0.500000
#
# Coordination Sequence:
#
# PCOD9301278 Si02
#       8
#     8   8   8   8   8   8   8   8
#     4  12  23  39  67 100 129 168 219 276 330 389
#     4  12  25  45  66  95 132 180 227 260 324 405
#     4  12  23  38  66 102 129 162 215 281 330 383
#     4  11  23  40  70  92 130 172 222 257 328 403
#     4  11  21  41  66  96 123 183 219 261 321 404
#     4  12  24  41  67  95 134 166 217 281 326 377
#     4  11  23  39  69  93 127 172 228 263 322 402
#     4  11  20  40  67  94 124 174 218 263 325 402
#
# _framework density 19.192862000000002
#
# number of rings (size 3 to 8) (size 9 to 14) (size 15 to 20)
#    0.000    0.500   10.000    0.750    0.000    1.000 
#    0.000    0.625    2.750    0.000    0.000    0.000 
#    0.000    0.000    0.000    0.000    0.000    0.000 
#
# Total GULP energy -178834.046057 kJ/mol
# GULP energy per Si atom -5588.563939 kJ/mol
# Density = 1.914918 g / cm^3
# Si number density = 19.192862 Si / 1000 Ang^3
#
#
#
# Elastic Constant Matrix: (Units=GPa)
#
#
# Indices 1 2 3 4 5 6 
#
# 1 50.3335 18.2820 2.9057 0.0000 -10.0367 0.0000
# 2 18.2820 88.6141 5.6846 0.0000 2.5727 0.0000
# 3 2.9057 5.6846 38.6564 0.0000 -10.8666 0.0000
# 4 0.0000 0.0000 0.0000 32.6741 0.0000 -6.1953
# 5 -10.0367 2.5727 -10.8666 0.0000 32.8922 0.0000
# 6 0.0000 0.0000 0.0000 -6.1953 0.0000 42.5265
#
#
#
# Elastic Compliance Matrix: (Units=1/GPa)
#
#
# Indices 1 2 3 4 5 6 
#
# 1 0.023222 -0.005098 0.001222 0.000000 0.007888 0.000000
# 2 -0.005098 0.012588 -0.002405 0.000000 -0.003335 0.000000
# 3 0.001222 -0.002405 0.028980 0.000000 0.010135 0.000000
# 4 0.000000 0.000000 0.000000 0.031475 0.000000 0.004585
# 5 0.007888 -0.003335 0.010135 0.000000 0.036418 0.000000
# 6 0.000000 0.000000 0.000000 0.004585 0.000000 0.024183
#
#
# Mechanical properties :
#
#
# Convention : Reuss Voigt Hill
#
# Bulk Modulus (GPa) = 19.14775 25.70540 22.42658
# Shear Modulus (GPa) = 26.76121 31.66735 29.21428
#
# Velocity S-wave (km/s) = 3.73813 4.06637 3.90570
# Velocity P-wave (km/s) = 5.35066 5.95562 5.66123
#
# Compressibility (1/GPa) = 0.05222545
#
# Stress axis : x y z
#
# Youngs Moduli (GPa) = 43.06322 79.44173 34.50675
#
# Poissons Ratio (x) = 0.40502 -0.04216
# Poissons Ratio (y) = 0.21955 0.08300
# Poissons Ratio (z) = -0.05261 0.19109
#
# Static dielectric constant tensor:
#      x y z
#    x 1.658160 0.000000 -0.006610 
#    y 0.000000 1.692860 0.000000 
#    z -0.006610 0.000000 1.669340 
# 
# From -- ./inp_files/274357.got.cif
#   From: 2010.05.17/outbox.cif.g08.bks.cpg/sg15_138_cif.got.tgz:274357.got - 2010.06.03 18:47:42.
