data_PCOD9301781
_publ_section_title
;
Structure prediction by ZEFSAII (Michael W. Deem and Ramdas Pophale) SiO2 
 PCOD9301781
Probable space group: C 2/C
;
_chemical_formula_sum "Si O2"
_cell_formula_units_Z 64
_cell_length_a 20.316566
_cell_length_b 9.019995
_cell_length_c 18.433205
_cell_angle_alpha 90.000000
_cell_angle_beta 90.817936
_cell_angle_gamma 90.000000
_cell_volume 3377.638748
_symmetry_space_group_name_H-M "C 2/C"
_symmetry_group_IT_number 15
_symmetry_cell_setting 'monoclinic'
loop_
_space_group_symop_operation_xyz
x,y,z
-x,y,1/2-z
-x,-y,-z
x,-y,1/2+z
1/2+x,1/2+y,z
1/2-x,1/2+y,1/2-z
1/2-x,1/2-y,-z
1/2+x,1/2-y,1/2+z
loop_
_atom_site_type_symbol
_atom_site_label
_atom_site_fract_x
_atom_site_fract_y
_atom_site_fract_z
Si Si1 0.882386 0.418620 0.079505
Si Si2 0.874926 0.427642 0.422620
Si Si3 0.734100 0.652341 0.927197
Si Si4 0.506225 0.710727 0.056006
Si Si5 0.384665 0.211970 0.167335
Si Si6 0.369884 0.789229 0.837582
Si Si7 0.267866 0.694996 0.079792
Si Si8 0.492670 0.608942 0.889393
O O1 0.947230 0.323779 0.067233
O O2 0.896339 0.547900 0.136591
O O3 0.826429 0.303903 0.104401
O O4 0.863771 0.495972 0.001766
O O5 0.806151 0.363040 0.392881
O O6 0.899070 0.557514 0.370253
O O7 0.926396 0.297717 0.431925
O O8 0.677155 0.728422 0.880210
O O9 0.713341 0.478207 0.931376
O O10 0.750000 0.750000 0.000000
O O11 0.501359 0.568080 0.107452
O O12 0.502593 0.660477 0.972524
O O13 0.367330 0.209885 0.251363
O O14 0.449413 0.312070 0.154816
O O15 0.296868 0.784261 0.871426
O O16 0.420392 0.661885 0.863573
O O17 0.250000 0.750000 0.000000
#
# Coordination Sequence:
#
# PCOD9301781 Si02
#       8
#     8   8   8   8   8   8   8   8
#     4  12  21  40  67  95 128 164 217 265 317 380
#     4  11  21  41  65  96 125 165 214 266 314 380
#     4  11  21  39  63  94 127 164 218 262 314 385
#     4  11  22  38  69  99 121 164 223 270 304 381
#     4  12  25  41  63  94 131 176 206 265 336 385
#     4  11  25  42  63  91 135 171 208 264 336 383
#     4  11  21  39  65  94 123 166 214 264 316 378
#     4  11  22  41  64  97 129 163 217 268 324 378
#
# _framework density 18.948149000000001
#
# number of rings (size 3 to 8) (size 9 to 14) (size 15 to 20)
#    0.000    0.750    6.250    2.250    0.000    6.000 
#    0.000    3.750    0.000    0.000    0.000    0.000 
#    0.000    0.000    0.000    0.000    0.000    0.000 
#
# Total GULP energy -178679.297364 kJ/mol
# GULP energy per Si atom -5583.728043 kJ/mol
# Density = 1.890502 g / cm^3
# Si number density = 18.948149 Si / 1000 Ang^3
#
#
#
# Elastic Constant Matrix: (Units=GPa)
#
#
# Indices 1 2 3 4 5 6 
#
# 1 72.3155 45.4669 10.9268 0.0000 -10.1905 0.0000
# 2 45.4669 120.0367 36.6819 0.0000 -11.3221 0.0000
# 3 10.9268 36.6819 94.8285 0.0000 -18.0165 0.0000
# 4 0.0000 0.0000 0.0000 61.3928 0.0000 47.8592
# 5 -10.1905 -11.3221 -18.0165 0.0000 23.0591 0.0000
# 6 0.0000 0.0000 0.0000 47.8592 0.0000 94.5268
#
#
#
# Elastic Compliance Matrix: (Units=1/GPa)
#
#
# Indices 1 2 3 4 5 6 
#
# 1 0.018914 -0.007113 0.001757 0.000000 0.006239 0.000000
# 2 -0.007113 0.012209 -0.003947 0.000000 -0.000233 0.000000
# 3 0.001757 -0.003947 0.013680 0.000000 0.009527 0.000000
# 4 0.000000 0.000000 0.000000 0.026909 0.000000 -0.013624
# 5 0.006239 -0.000233 0.009527 0.000000 0.053453 0.000000
# 6 0.000000 0.000000 0.000000 -0.013624 0.000000 0.017477
#
#
# Mechanical properties :
#
#
# Convention : Reuss Voigt Hill
#
# Bulk Modulus (GPa) = 38.17164 52.59245 45.38205
# Shear Modulus (GPa) = 29.41508 48.73608 39.07558
#
# Velocity S-wave (km/s) = 3.94432 5.07707 4.54611
# Velocity P-wave (km/s) = 6.39786 7.88575 7.18045
#
# Compressibility (1/GPa) = 0.02619746
#
# Stress axis : x y z
#
# Youngs Moduli (GPa) = 52.87113 81.90530 73.10043
#
# Poissons Ratio (x) = 0.58256 -0.12846
# Poissons Ratio (y) = 0.37605 0.28856
# Poissons Ratio (z) = -0.09291 0.32332
#
# Static dielectric constant tensor:
#      x y z
#    x 1.664470 0.000000 0.000890 
#    y 0.000000 1.688350 0.000000 
#    z 0.000890 0.000000 1.638070 
# 
# From -- ./inp_files/213896.got.cif
#   From: 2010.05.17/outbox.cif.g08.bks.cpg/sg15_107_cif.got.tgz:213896.got - 2010.06.03 18:47:42.
