data_PCOD9301801
_publ_section_title
;
Structure prediction by ZEFSAII (Michael W. Deem and Ramdas Pophale) SiO2 
 PCOD9301801
Probable space group: C 2/C
;
_chemical_formula_sum "Si O2"
_cell_formula_units_Z 60
_cell_length_a 11.909677
_cell_length_b 15.053388
_cell_length_c 16.638276
_cell_angle_alpha 90.000000
_cell_angle_beta 87.991112
_cell_angle_gamma 90.000000
_cell_volume 2981.093271
_symmetry_space_group_name_H-M "C 2/C"
_symmetry_group_IT_number 15
_symmetry_cell_setting 'monoclinic'
loop_
_space_group_symop_operation_xyz
x,y,z
-x,y,1/2-z
-x,-y,-z
x,-y,1/2+z
1/2+x,1/2+y,z
1/2-x,1/2+y,1/2-z
1/2-x,1/2-y,-z
1/2+x,1/2-y,1/2+z
loop_
_atom_site_type_symbol
_atom_site_label
_atom_site_fract_x
_atom_site_fract_y
_atom_site_fract_z
Si Si1 0.309428 0.841743 0.472668
Si Si2 0.620504 0.970768 0.889964
Si Si3 0.110233 0.633303 0.116331
Si Si4 0.690701 0.373266 0.310483
Si Si5 0.123718 0.748755 0.778230
Si Si6 0.773483 0.936126 0.733226
Si Si7 0.076654 0.327570 0.441716
Si Si8 0.000000 0.242594 0.750000
O O1 0.250000 0.750000 0.500000
O O2 0.314843 0.913163 0.544427
O O3 0.240382 0.877201 0.398481
O O4 0.440389 0.824450 0.447226
O O5 0.493260 0.934593 0.892300
O O6 0.678145 0.950670 0.803341
O O7 0.614438 0.074250 0.911473
O O8 0.215907 0.581795 0.148509
O O9 0.075595 0.698816 0.189063
O O10 0.121008 0.682377 0.031228
O O11 0.786809 0.321420 0.257865
O O12 0.665584 0.469964 0.275408
O O13 0.580032 0.314558 0.304856
O O14 0.156183 0.847868 0.749628
O O15 0.120986 0.740959 0.874679
O O16 0.000000 0.724978 0.750000
#
# Coordination Sequence:
#
# PCOD9301801 Si02
#       8
#     8   8   8   8   8   8   8   4
#     4  11  22  39  67  99 132 170 222 277 334 387
#     4  11  21  39  65 100 132 163 222 282 324 389
#     4  11  21  39  66  95 128 171 217 274 328 379
#     4  12  24  44  66  95 129 178 216 267 332 395
#     4  12  25  43  66  97 131 175 222 273 333 395
#     4  12  24  41  66  95 134 174 217 270 333 398
#     4  11  23  39  65  99 133 167 222 282 327 389
#     4  12  24  44  64  92 134 174 222 264 326 396
#
# _framework density 20.126844999999999
#
# number of rings (size 3 to 8) (size 9 to 14) (size 15 to 20)
#    0.000    0.533    5.333    5.600    0.933    0.533 
#    0.000    0.000    0.000    2.400    0.000    0.000 
#    0.000    0.000    0.000    0.000    0.000    0.000 
#
# Total GULP energy -167743.994929 kJ/mol
# GULP energy per Si atom -5591.466498 kJ/mol
# Density = 2.008104 g / cm^3
# Si number density = 20.126845 Si / 1000 Ang^3
#
#
#
# Elastic Constant Matrix: (Units=GPa)
#
#
# Indices 1 2 3 4 5 6 
#
# 1 45.0889 14.3713 -0.2104 0.0000 8.5698 0.0000
# 2 14.3713 110.4324 9.8822 0.0000 -15.2479 0.0000
# 3 -0.2104 9.8822 83.1859 0.0000 5.4107 0.0000
# 4 0.0000 0.0000 0.0000 23.4383 0.0000 5.6866
# 5 8.5698 -15.2479 5.4107 0.0000 28.8343 0.0000
# 6 0.0000 0.0000 0.0000 5.6866 0.0000 9.4160
#
#
#
# Elastic Compliance Matrix: (Units=1/GPa)
#
#
# Indices 1 2 3 4 5 6 
#
# 1 0.025750 -0.004921 0.001333 0.000000 -0.010505 0.000000
# 2 -0.004921 0.010901 -0.001800 0.000000 0.007565 0.000000
# 3 0.001333 -0.001800 0.012478 0.000000 -0.003689 0.000000
# 4 0.000000 0.000000 0.000000 0.049990 0.000000 -0.030191
# 5 -0.010505 0.007565 -0.003689 0.000000 0.042496 0.000000
# 6 0.000000 0.000000 0.000000 -0.030191 0.000000 0.124436
#
#
# Mechanical properties :
#
#
# Convention : Reuss Voigt Hill
#
# Bulk Modulus (GPa) = 26.07241 31.86595 28.96918
# Shear Modulus (GPa) = 17.26455 26.64866 21.95661
#
# Velocity S-wave (km/s) = 2.93198 3.64268 3.30648
# Velocity P-wave (km/s) = 4.94410 5.79302 5.38531
#
# Compressibility (1/GPa) = 0.03835471
#
# Stress axis : x y z
#
# Youngs Moduli (GPa) = 38.83540 91.73269 80.13858
#
# Poissons Ratio (x) = 0.45140 -0.10683
# Poissons Ratio (y) = 0.19110 0.14421
# Poissons Ratio (z) = -0.05177 0.16508
#
# Static dielectric constant tensor:
#      x y z
#    x 1.683190 0.000000 0.002510 
#    y 0.000000 1.716420 0.000000 
#    z 0.002510 0.000000 1.724310 
# 
# From -- ./inp_files/197838.got.cif
#   From: 2010.05.17/outbox.cif.g08.bks.cpg/sg15_99_cif.got.tgz:197838.got - 2010.06.03 18:47:42.
