data_PCOD9301647
_publ_section_title
;
Structure prediction by ZEFSAII (Michael W. Deem and Ramdas Pophale) SiO2 
 PCOD9301647
Probable space group: C 2/C
;
_chemical_formula_sum "Si O2"
_cell_formula_units_Z 60
_cell_length_a 21.407617
_cell_length_b 8.160207
_cell_length_c 18.741868
_cell_angle_alpha 90.000000
_cell_angle_beta 73.941575
_cell_angle_gamma 90.000000
_cell_volume 3146.275751
_symmetry_space_group_name_H-M "C 2/C"
_symmetry_group_IT_number 15
_symmetry_cell_setting 'monoclinic'
loop_
_space_group_symop_operation_xyz
x,y,z
-x,y,1/2-z
-x,-y,-z
x,-y,1/2+z
1/2+x,1/2+y,z
1/2-x,1/2+y,1/2-z
1/2-x,1/2-y,-z
1/2+x,1/2-y,1/2+z
loop_
_atom_site_type_symbol
_atom_site_label
_atom_site_fract_x
_atom_site_fract_y
_atom_site_fract_z
Si Si1 0.904935 0.100018 0.539927
Si Si2 0.000000 0.841089 0.750000
Si Si3 0.477822 0.876638 0.446019
Si Si4 0.474917 0.575380 0.892583
Si Si5 0.168580 0.401660 0.753785
Si Si6 0.812433 0.038405 0.682913
Si Si7 0.401591 0.782391 0.176689
Si Si8 0.441831 0.092334 0.325487
O O1 0.920749 0.271180 0.498125
O O2 0.834467 0.073316 0.594686
O O3 0.955085 0.092449 0.591110
O O4 0.927005 0.976841 0.471183
O O5 0.940335 0.735710 0.739005
O O6 0.979258 0.952263 0.824037
O O7 0.543190 0.778051 0.402364
O O8 0.500000 0.000000 0.500000
O O9 0.452393 0.952690 0.380716
O O10 0.451831 0.744163 0.867746
O O11 0.173835 0.213858 0.781600
O O12 0.239001 0.480066 0.717360
O O13 0.132405 0.538989 0.814790
O O14 0.125211 0.400211 0.696132
O O15 0.854846 0.875821 0.689611
O O16 0.500000 0.091774 0.250000
#
# Coordination Sequence:
#
# PCOD9301647 Si02
#       8
#     8   4   8   8   8   8   8   8
#     4  11  22  41  62 100 136 176 219 270 349 414
#     4  12  20  36  72 104 130 172 216 288 352 388
#     4  12  23  39  69 103 140 178 216 282 360 409
#     4  11  21  37  66 100 136 172 220 281 342 400
#     4  12  26  45  68 102 131 184 237 284 339 408
#     4  12  25  47  69  95 139 185 232 278 341 420
#     4  12  23  42  71 101 137 172 225 287 336 401
#     4  12  23  40  66 105 137 167 233 298 331 396
#
# _framework density 19.070166
#
# number of rings (size 3 to 8) (size 9 to 14) (size 15 to 20)
#    0.000    0.267    7.333    4.000    0.000    0.000 
#    0.000    1.333    0.000    0.000    0.000    0.000 
#    0.000    0.000    0.000    0.000    0.000    0.000 
#
# Total GULP energy -167465.809863 kJ/mol
# GULP energy per Si atom -5582.193662 kJ/mol
# Density = 1.902676 g / cm^3
# Si number density = 19.070166 Si / 1000 Ang^3
#
#
#
# Elastic Constant Matrix: (Units=GPa)
#
#
# Indices 1 2 3 4 5 6 
#
# 1 79.4585 41.6908 37.4124 0.0000 1.4215 0.0000
# 2 41.6908 129.0648 34.2274 0.0000 7.4171 0.0000
# 3 37.4124 34.2274 101.6027 0.0000 7.5796 0.0000
# 4 0.0000 0.0000 0.0000 48.6086 0.0000 7.6076
# 5 1.4215 7.4171 7.5796 0.0000 25.9905 0.0000
# 6 0.0000 0.0000 0.0000 7.6076 0.0000 33.1474
#
#
#
# Elastic Compliance Matrix: (Units=1/GPa)
#
#
# Indices 1 2 3 4 5 6 
#
# 1 0.017176 -0.004323 -0.004999 0.000000 0.001752 0.000000
# 2 -0.004323 0.009664 -0.001508 0.000000 -0.002082 0.000000
# 3 -0.004999 -0.001508 0.012409 0.000000 -0.002915 0.000000
# 4 0.000000 0.000000 0.000000 0.021339 0.000000 -0.004897
# 5 0.001752 -0.002082 -0.002915 0.000000 0.039824 0.000000
# 6 0.000000 0.000000 0.000000 -0.004897 0.000000 0.031292
#
#
# Mechanical properties :
#
#
# Convention : Reuss Voigt Hill
#
# Bulk Modulus (GPa) = 56.85830 59.64302 58.25066
# Shear Modulus (GPa) = 31.40168 34.66902 33.03535
#
# Velocity S-wave (km/s) = 4.06228 4.26839 4.16661
# Velocity P-wave (km/s) = 7.20298 7.45893 7.33207
#
# Compressibility (1/GPa) = 0.01758758
#
# Stress axis : x y z
#
# Youngs Moduli (GPa) = 58.22135 103.47481 80.58958
#
# Poissons Ratio (x) = 0.44734 0.40286
# Poissons Ratio (y) = 0.25170 0.12156
# Poissons Ratio (z) = 0.29104 0.15608
#
# Static dielectric constant tensor:
#      x y z
#    x 1.657540 0.000000 -0.015150 
#    y 0.000000 1.776490 0.000000 
#    z -0.015150 0.000000 1.665150 
# 
# From -- ./inp_files/213835.got.cif
#   From: 2010.05.17/outbox.cif.g08.bks.cpg/sg15_107_cif.got.tgz:213835.got - 2010.06.03 18:47:42.
