data_PCOD9301309
_publ_section_title
;
Structure prediction by ZEFSAII (Michael W. Deem and Ramdas Pophale) SiO2 
 PCOD9301309
Probable space group: C 2/C
;
_chemical_formula_sum "Si O2"
_cell_formula_units_Z 48
_cell_length_a 32.795127
_cell_length_b 11.491996
_cell_length_c 15.206671
_cell_angle_alpha 90.000000
_cell_angle_beta 20.038495
_cell_angle_gamma 90.000000
_cell_volume 1963.773790
_symmetry_space_group_name_H-M "C 2/C"
_symmetry_group_IT_number 15
_symmetry_cell_setting 'monoclinic'
loop_
_space_group_symop_operation_xyz
x,y,z
-x,y,1/2-z
-x,-y,-z
x,-y,1/2+z
1/2+x,1/2+y,z
1/2-x,1/2+y,1/2-z
1/2-x,1/2-y,-z
1/2+x,1/2-y,1/2+z
loop_
_atom_site_type_symbol
_atom_site_label
_atom_site_fract_x
_atom_site_fract_y
_atom_site_fract_z
Si Si1 0.694332 0.987482 0.529661
Si Si2 0.391343 0.758902 0.733116
Si Si3 0.997814 0.353264 0.355400
Si Si4 0.799050 0.446819 0.292845
Si Si5 0.944350 0.773864 0.450204
Si Si6 0.867625 0.022126 0.534167
O O1 0.597682 0.890437 0.751625
O O2 0.623589 0.090539 0.626412
O O3 0.747571 0.029301 0.514259
O O4 0.786801 0.928134 0.276224
O O5 0.463238 0.756293 0.496914
O O6 0.454766 0.688952 0.682983
O O7 0.250000 0.750000 0.000000
O O8 0.898314 0.454886 0.569167
O O9 0.000000 0.318543 0.250000
O O10 0.701869 0.461437 0.414960
O O11 0.855665 0.318536 0.172726
O O12 0.882216 0.888274 0.537207
O O13 0.000000 0.714716 0.250000
O O14 0.000000 0.065012 0.250000
#
# Coordination Sequence:
#
# PCOD9301309 Si02
#       6
#     8   8   8   8   8   8
#     4  11  22  43  70  95 133 181 222 279 337 407
#     4  11  24  42  69 108 136 172 227 285 339 410
#     4  11  20  40  74 100 126 176 230 279 331 398
#     4  11  21  43  69  98 133 173 233 278 336 406
#     4  11  23  41  70  99 132 180 230 273 341 406
#     4  11  27  43  64  98 136 183 225 283 348 398
#
# _framework density 24.442734000000002
#
# number of rings (size 3 to 8) (size 9 to 14) (size 15 to 20)
#    0.000    1.000    5.000    2.500    9.333    1.333 
#    0.000    0.833    0.000    0.000    0.000    0.000 
#    0.000    0.000    0.000    0.000    0.000    0.000 
#
# Total GULP energy -134314.814805 kJ/mol
# GULP energy per Si atom -5596.450617 kJ/mol
# Density = 2.438710 g / cm^3
# Si number density = 24.442734 Si / 1000 Ang^3
#
#
#
# Elastic Constant Matrix: (Units=GPa)
#
#
# Indices 1 2 3 4 5 6 
#
# 1 241.3186 21.6007 91.8578 0.0000 -3.5470 0.0000
# 2 21.6007 44.4040 -4.2798 0.0000 -16.6096 0.0000
# 3 91.8578 -4.2798 115.8373 0.0000 -12.1186 0.0000
# 4 0.0000 0.0000 0.0000 15.9438 0.0000 -5.6841
# 5 -3.5470 -16.6096 -12.1186 0.0000 54.4721 0.0000
# 6 0.0000 0.0000 0.0000 -5.6841 0.0000 17.1192
#
#
#
# Elastic Compliance Matrix: (Units=1/GPa)
#
#
# Indices 1 2 3 4 5 6 
#
# 1 0.006708 -0.004660 -0.005728 0.000000 -0.002258 0.000000
# 2 -0.004660 0.029026 0.005797 0.000000 0.009837 0.000000
# 3 -0.005728 0.005797 0.013858 0.000000 0.004478 0.000000
# 4 0.000000 0.000000 0.000000 0.071141 0.000000 0.023621
# 5 -0.002258 0.009837 0.004478 0.000000 0.022207 0.000000
# 6 0.000000 0.000000 0.000000 0.023621 0.000000 0.066257
#
#
# Mechanical properties :
#
#
# Convention : Reuss Voigt Hill
#
# Bulk Modulus (GPa) = 24.74687 68.87968 46.81327
# Shear Modulus (GPa) = 21.56582 36.99910 29.28246
#
# Velocity S-wave (km/s) = 2.97358 3.89486 3.46497
# Velocity P-wave (km/s) = 4.68358 6.96188 5.93311
#
# Compressibility (1/GPa) = 0.04040915
#
# Stress axis : x y z
#
# Youngs Moduli (GPa) = 149.07157 34.45226 72.16238
#
# Poissons Ratio (x) = 0.16055 0.41334
# Poissons Ratio (y) = 0.69469 -0.41832
# Poissons Ratio (z) = 0.85388 -0.19972
#
# Static dielectric constant tensor:
#      x y z
#    x 1.964990 0.000000 0.022100 
#    y 0.000000 1.961250 0.000000 
#    z 0.022100 0.000000 2.002260 
# 
# From -- ./inp_files/182456.got.cif
#   From: 2010.05.17/outbox.cif.g08.bks.cpg/sg15_92_cif.got.tgz:182456.got - 2010.06.03 18:47:42.
