data_PCOD9301326
_publ_section_title
;
Structure prediction by ZEFSAII (Michael W. Deem and Ramdas Pophale) SiO2 
 PCOD9301326
Probable space group: C 2/C
;
_chemical_formula_sum "Si O2"
_cell_formula_units_Z 60
_cell_length_a 11.269478
_cell_length_b 15.913523
_cell_length_c 18.523161
_cell_angle_alpha 90.000000
_cell_angle_beta 74.959848
_cell_angle_gamma 90.000000
_cell_volume 3208.095973
_symmetry_space_group_name_H-M "C 2/C"
_symmetry_group_IT_number 15
_symmetry_cell_setting 'monoclinic'
loop_
_space_group_symop_operation_xyz
x,y,z
-x,y,1/2-z
-x,-y,-z
x,-y,1/2+z
1/2+x,1/2+y,z
1/2-x,1/2+y,1/2-z
1/2-x,1/2-y,-z
1/2+x,1/2-y,1/2+z
loop_
_atom_site_type_symbol
_atom_site_label
_atom_site_fract_x
_atom_site_fract_y
_atom_site_fract_z
Si Si1 0.091139 0.140245 0.667660
Si Si2 0.101540 0.337501 0.670557
Si Si3 0.134565 0.118405 0.304442
Si Si4 0.441696 0.468227 0.083145
Si Si5 0.500000 0.765739 0.250000
Si Si6 0.267692 0.991897 0.198419
Si Si7 0.990414 0.476094 0.917734
Si Si8 0.330882 0.910571 0.339800
O O1 0.100775 0.238894 0.654008
O O2 0.000000 0.127868 0.750000
O O3 0.033970 0.094374 0.608361
O O4 0.213897 0.092199 0.671673
O O5 0.233924 0.358511 0.682394
O O6 0.000000 0.354170 0.750000
O O7 0.075407 0.392427 0.603074
O O8 0.163754 0.061680 0.229100
O O9 0.062209 0.202549 0.297345
O O10 0.071533 0.052638 0.367544
O O11 0.307928 0.420946 0.106334
O O12 0.500000 0.500000 0.000000
O O13 0.393757 0.823759 0.303205
O O14 0.371772 0.029896 0.132849
O O15 0.323015 0.965512 0.267457
O O16 0.921433 0.549238 0.884063
O O17 0.000000 0.500000 0.000000
#
# Coordination Sequence:
#
# PCOD9301326 Si02
#       8
#     8   8   8   8   4   8   8   8
#     4  11  22  38  68 101 122 165 223 268 318 392
#     4  11  22  41  67  98 126 165 225 279 322 382
#     4  11  22  40  70  95 131 169 225 272 330 394
#     4  11  25  45  66  93 143 182 209 264 348 403
#     4  12  24  40  70 104 126 166 234 280 328 384
#     4  11  20  41  68  93 127 169 220 271 325 396
#     4  12  24  41  64  95 130 176 218 269 340 406
#     4  11  22  43  67  90 130 175 218 273 326 388
#
# _framework density 18.702683
#
# number of rings (size 3 to 8) (size 9 to 14) (size 15 to 20)
#    0.000    0.800    8.000    1.600    3.733    0.000 
#    2.400    2.000    0.000    0.000    0.000    0.000 
#    0.000    0.000    0.000    0.000    0.000    0.000 
#
# Total GULP energy -167403.557136 kJ/mol
# GULP energy per Si atom -5580.118571 kJ/mol
# Density = 1.866012 g / cm^3
# Si number density = 18.702683 Si / 1000 Ang^3
#
#
#
# Elastic Constant Matrix: (Units=GPa)
#
#
# Indices 1 2 3 4 5 6 
#
# 1 72.0718 52.4444 41.1518 0.0000 3.6098 0.0000
# 2 52.4444 141.8179 49.4860 0.0000 11.8565 0.0000
# 3 41.1518 49.4860 98.5520 0.0000 -3.0442 0.0000
# 4 0.0000 0.0000 0.0000 17.7724 0.0000 2.6092
# 5 3.6098 11.8565 -3.0442 0.0000 24.4509 0.0000
# 6 0.0000 0.0000 0.0000 2.6092 0.0000 43.3480
#
#
#
# Elastic Compliance Matrix: (Units=1/GPa)
#
#
# Indices 1 2 3 4 5 6 
#
# 1 0.021652 -0.005748 -0.006191 0.000000 -0.001180 0.000000
# 2 -0.005748 0.010649 -0.003092 0.000000 -0.004700 0.000000
# 3 -0.006191 -0.003092 0.014415 0.000000 0.004208 0.000000
# 4 0.000000 0.000000 0.000000 0.056769 0.000000 -0.003417
# 5 -0.001180 -0.004700 0.004208 0.000000 0.043876 0.000000
# 6 0.000000 0.000000 0.000000 -0.003417 0.000000 0.023275
#
#
# Mechanical properties :
#
#
# Convention : Reuss Voigt Hill
#
# Bulk Modulus (GPa) = 60.04985 66.51178 63.28081
# Shear Modulus (GPa) = 24.24267 28.40491 26.32379
#
# Velocity S-wave (km/s) = 3.60420 3.90136 3.75572
# Velocity P-wave (km/s) = 7.03546 7.47890 7.26057
#
# Compressibility (1/GPa) = 0.01665283
#
# Stress axis : x y z
#
# Youngs Moduli (GPa) = 46.18557 93.90774 69.37275
#
# Poissons Ratio (x) = 0.53976 0.42951
# Poissons Ratio (y) = 0.26546 0.21451
# Poissons Ratio (z) = 0.28595 0.29038
#
# Static dielectric constant tensor:
#      x y z
#    x 1.712210 0.000000 0.017410 
#    y 0.000000 1.660410 0.000000 
#    z 0.017410 0.000000 1.683700 
# 
# From -- ./inp_files/197833.got.cif
#   From: 2010.05.17/outbox.cif.g08.bks.cpg/sg15_99_cif.got.tgz:197833.got - 2010.06.03 18:47:42.
