data_PCOD9301005
_publ_section_title
;
Structure prediction by ZEFSAII (Michael W. Deem and Ramdas Pophale) SiO2 
 PCOD9301005
Probable space group: C 2/C
;
_chemical_formula_sum "Si O2"
_cell_formula_units_Z 48
_cell_length_a 7.026195
_cell_length_b 17.377122
_cell_length_c 20.708856
_cell_angle_alpha 90.000000
_cell_angle_beta 78.506646
_cell_angle_gamma 90.000000
_cell_volume 2477.747861
_symmetry_space_group_name_H-M "C 2/C"
_symmetry_group_IT_number 15
_symmetry_cell_setting 'monoclinic'
loop_
_space_group_symop_operation_xyz
x,y,z
-x,y,1/2-z
-x,-y,-z
x,-y,1/2+z
1/2+x,1/2+y,z
1/2-x,1/2+y,1/2-z
1/2-x,1/2-y,-z
1/2+x,1/2-y,1/2+z
loop_
_atom_site_type_symbol
_atom_site_label
_atom_site_fract_x
_atom_site_fract_y
_atom_site_fract_z
Si Si1 0.898271 0.006566 0.577449
Si Si2 0.412055 0.125994 0.541973
Si Si3 0.369941 0.731370 0.412295
Si Si4 0.477931 0.326736 0.043362
Si Si5 0.956553 0.539935 0.090757
Si Si6 0.905228 0.905005 0.825052
O O1 0.896900 0.098354 0.585301
O O2 0.626401 0.954837 0.419580
O O3 0.000000 0.000000 0.500000
O O4 0.005680 0.960960 0.626391
O O5 0.522216 0.188642 0.577952
O O6 0.209835 0.165442 0.534040
O O7 0.539270 0.094502 0.472986
O O8 0.681857 0.973590 0.589779
O O9 0.420164 0.679013 0.471712
O O10 0.142289 0.753819 0.422053
O O11 0.436815 0.682369 0.346989
O O12 0.824693 0.577706 0.154317
O O13 0.000000 0.919148 0.750000
#
# Coordination Sequence:
#
# PCOD9301005 Si02
#       6
#     8   8   8   8   8   8
#     4  12  20  41  69  99 126 162 213 274 319 381
#     4  11  20  35  66 101 127 156 209 272 320 375
#     4  11  23  37  59  97 132 165 201 261 332 377
#     4  11  20  35  65  99 129 154 206 267 323 374
#     4  11  21  37  67  98 124 165 216 262 319 376
#     4  12  27  45  62  89 131 175 218 262 319 393
#
# _framework density 19.372432
#
# number of rings (size 3 to 8) (size 9 to 14) (size 15 to 20)
#    0.000    0.667    6.667    3.500    0.000    2.000 
#    0.000    1.667    0.000    0.000    0.000    0.000 
#    0.000    0.000    0.000    0.000    0.000    0.000 
#
# Total GULP energy -133928.478675 kJ/mol
# GULP energy per Si atom -5580.353278 kJ/mol
# Density = 1.932834 g / cm^3
# Si number density = 19.372432 Si / 1000 Ang^3
#
#
#
# Elastic Constant Matrix: (Units=GPa)
#
#
# Indices 1 2 3 4 5 6 
#
# 1 125.4583 42.7973 37.3381 0.0000 -11.8608 0.0000
# 2 42.7973 135.2294 41.2311 0.0000 -1.9879 0.0000
# 3 37.3381 41.2311 106.9083 0.0000 -23.6009 0.0000
# 4 0.0000 0.0000 0.0000 21.6933 0.0000 -2.7606
# 5 -11.8608 -1.9879 -23.6009 0.0000 22.0308 0.0000
# 6 0.0000 0.0000 0.0000 -2.7606 0.0000 32.5355
#
#
#
# Elastic Compliance Matrix: (Units=1/GPa)
#
#
# Indices 1 2 3 4 5 6 
#
# 1 0.009621 -0.002475 -0.001718 0.000000 0.003116 0.000000
# 2 -0.002475 0.009234 -0.003676 0.000000 -0.004438 0.000000
# 3 -0.001718 -0.003676 0.014531 0.000000 0.014310 0.000000
# 4 0.000000 0.000000 0.000000 0.046600 0.000000 0.003954
# 5 0.003116 -0.004438 0.014310 0.000000 0.061998 0.000000
# 6 0.000000 0.000000 0.000000 0.003954 0.000000 0.031071
#
#
# Mechanical properties :
#
#
# Convention : Reuss Voigt Hill
#
# Bulk Modulus (GPa) = 56.66737 67.81435 62.24086
# Shear Modulus (GPa) = 25.68376 31.66721 28.67549
#
# Velocity S-wave (km/s) = 3.64509 4.04747 3.85154
# Velocity P-wave (km/s) = 6.85789 7.54482 7.20954
#
# Compressibility (1/GPa) = 0.01764684
#
# Stress axis : x y z
#
# Youngs Moduli (GPa) = 103.93965 108.29629 68.82075
#
# Poissons Ratio (x) = 0.26807 0.11820
# Poissons Ratio (y) = 0.25729 0.25301
# Poissons Ratio (z) = 0.17852 0.39814
#
# Static dielectric constant tensor:
#      x y z
#    x 1.780390 0.000000 0.000660 
#    y 0.000000 1.744620 0.000000 
#    z 0.000660 0.000000 1.635820 
# 
# From -- ./inp_files/189780.got.cif
#   From: 2010.05.17/outbox.cif.g08.bks.cpg/sg15_95_cif.got.tgz:189780.got - 2010.06.03 18:47:42.
