data_PCOD9301925
_publ_section_title
;
Structure prediction by ZEFSAII (Michael W. Deem and Ramdas Pophale) SiO2 
 PCOD9301925
Probable space group: C 2/C
;
_chemical_formula_sum "Si O2"
_cell_formula_units_Z 40
_cell_length_a 23.713837
_cell_length_b 8.057884
_cell_length_c 28.638782
_cell_angle_alpha 90.000000
_cell_angle_beta 17.643631
_cell_angle_gamma 90.000000
_cell_volume 1658.658986
_symmetry_space_group_name_H-M "C 2/C"
_symmetry_group_IT_number 15
_symmetry_cell_setting 'monoclinic'
loop_
_space_group_symop_operation_xyz
x,y,z
-x,y,1/2-z
-x,-y,-z
x,-y,1/2+z
1/2+x,1/2+y,z
1/2-x,1/2+y,1/2-z
1/2-x,1/2-y,-z
1/2+x,1/2-y,1/2+z
loop_
_atom_site_type_symbol
_atom_site_label
_atom_site_fract_x
_atom_site_fract_y
_atom_site_fract_z
Si Si1 0.584488 0.747459 0.480930
Si Si2 0.327045 0.254779 0.097524
Si Si3 0.936307 0.060360 0.682062
Si Si4 0.827971 0.073277 0.421278
Si Si5 0.008183 0.458870 0.108306
O O1 0.495407 0.725812 0.500611
O O2 0.801535 0.789872 0.305132
O O3 0.525373 0.601989 0.562271
O O4 0.493159 0.908977 0.578599
O O5 0.182712 0.404235 0.217573
O O6 0.204503 0.094155 0.209020
O O7 0.401132 0.204304 0.988266
O O8 0.090941 0.024112 0.598685
O O9 0.750000 0.250000 0.500000
O O10 0.661630 0.984590 0.524598
O O11 0.000000 0.097902 0.250000
#
# Coordination Sequence:
#
# PCOD9301925 Si02
#       5
#     8   8   8   8   8
#     4  11  23  41  62  99 134 170 213 267 335 389
#     4  11  21  40  67  94 131 172 218 267 322 393
#     4  11  24  42  65  94 135 176 214 272 327 387
#     4  12  22  46  70  94 127 168 230 269 318 391
#     4  11  22  40  66  94 126 172 218 271 321 383
#
# _framework density 24.115866
#
# number of rings (size 3 to 8) (size 9 to 14) (size 15 to 20)
#    0.000    0.800    6.000    4.800    0.000    2.400 
#    3.600    4.000    0.000    0.000    0.000    0.000 
#    0.000    0.000    0.000    0.000    0.000    0.000 
#
# Total GULP energy -112095.746622 kJ/mol
# GULP energy per Si atom -5604.787331 kJ/mol
# Density = 2.406098 g / cm^3
# Si number density = 24.115866 Si / 1000 Ang^3
#
#
#
# Elastic Constant Matrix: (Units=GPa)
#
#
# Indices 1 2 3 4 5 6 
#
# 1 145.5622 5.4182 35.7404 -0.0072 -29.1843 -0.0024
# 2 5.4182 53.6674 26.0013 -0.0095 0.3172 0.0098
# 3 35.7404 26.0013 111.6197 0.0043 3.9546 0.0091
# 4 -0.0072 -0.0095 0.0043 43.1111 0.0052 5.9888
# 5 -29.1843 0.3172 3.9546 0.0052 48.5710 -0.0004
# 6 -0.0024 0.0098 0.0091 5.9888 -0.0004 30.6053
#
#
#
# Elastic Compliance Matrix: (Units=1/GPa)
#
#
# Indices 1 2 3 4 5 6 
#
# 1 0.008715 0.000602 -0.003125 0.000001 0.005487 0.000001
# 2 0.000602 0.021049 -0.005119 0.000006 0.000641 -0.000006
# 3 -0.003125 -0.005119 0.011250 -0.000002 -0.002760 -0.000002
# 4 0.000001 0.000006 -0.000002 0.023844 -0.000002 -0.004666
# 5 0.005487 0.000641 -0.002760 -0.000002 0.024106 0.000002
# 6 0.000001 -0.000006 -0.000002 -0.004666 0.000002 0.033587
#
#
# Mechanical properties :
#
#
# Convention : Reuss Voigt Hill
#
# Bulk Modulus (GPa) = 38.86577 49.46324 44.16450
# Shear Modulus (GPa) = 34.15056 40.70345 37.42700
#
# Velocity S-wave (km/s) = 3.76720 4.11278 3.94377
# Velocity P-wave (km/s) = 5.92230 6.56570 6.25228
#
# Compressibility (1/GPa) = 0.02572958
#
# Stress axis : x y z
#
# Youngs Moduli (GPa) = 114.74579 47.50901 88.89068
#
# Poissons Ratio (x) = -0.02859 0.27779
# Poissons Ratio (y) = -0.06905 0.45499
# Poissons Ratio (z) = 0.35859 0.24318
#
# Static dielectric constant tensor:
#      x y z
#    x 1.859670 -0.000010 0.007070 
#    y -0.000010 2.064940 0.000020 
#    z 0.007070 0.000020 1.898150 
# 
# From -- ./inp_files/255116.got.cif
#   From: 2010.05.17/outbox.cif.g08.bks.cpg/sg15_128_cif.got.tgz:255116.got - 2010.06.03 18:47:42.
