data_PCOD9301939
_publ_section_title
;
Structure prediction by ZEFSAII (Michael W. Deem and Ramdas Pophale) SiO2 
 PCOD9301939
Probable space group: C 2/C
;
_chemical_formula_sum "Si O2"
_cell_formula_units_Z 44
_cell_length_a 4.942739
_cell_length_b 21.249968
_cell_length_c 17.301435
_cell_angle_alpha 90.000000
_cell_angle_beta 88.824654
_cell_angle_gamma 90.000000
_cell_volume 1816.840072
_symmetry_space_group_name_H-M "C 2/C"
_symmetry_group_IT_number 15
_symmetry_cell_setting 'monoclinic'
loop_
_space_group_symop_operation_xyz
x,y,z
-x,y,1/2-z
-x,-y,-z
x,-y,1/2+z
1/2+x,1/2+y,z
1/2-x,1/2+y,1/2-z
1/2-x,1/2-y,-z
1/2+x,1/2-y,1/2+z
loop_
_atom_site_type_symbol
_atom_site_label
_atom_site_fract_x
_atom_site_fract_y
_atom_site_fract_z
Si Si1 0.067960 0.086808 0.569636
Si Si2 0.554776 0.981353 0.332923
Si Si3 0.368559 0.717753 0.855249
Si Si4 0.500000 0.138295 0.750000
Si Si5 0.668558 0.716542 0.081428
Si Si6 0.601455 0.082169 0.462588
O O1 0.149039 0.043804 0.642533
O O2 0.028108 0.158515 0.594955
O O3 0.336340 0.093203 0.515113
O O4 0.826523 0.057935 0.521699
O O5 0.500000 0.011524 0.250000
O O6 0.415733 0.912018 0.317803
O O7 0.512969 0.034107 0.397016
O O8 0.226660 0.682485 0.784777
O O9 0.633444 0.760251 0.851146
O O10 0.133485 0.760293 0.896499
O O11 0.745932 0.643612 0.070975
O O12 0.750000 0.750000 0.000000
#
# Coordination Sequence:
#
# PCOD9301939 Si02
#       6
#     8   8   8   4   8   8
#     4  11  21  40  68  91 123 160 215 253 305 368
#     4   9  22  43  64  90 127 166 210 258 313 362
#     4  11  21  42  61  95 116 168 204 253 304 365
#     4   8  22  44  66  82 124 164 214 256 300 374
#     4  12  22  36  66  92 130 154 205 254 311 369
#     4  12  23  40  64  96 127 162 204 261 312 368
#
# _framework density 24.217870999999999
#
# number of rings (size 3 to 8) (size 9 to 14) (size 15 to 20)
#    0.545    0.727    3.636    2.727    0.000    0.727 
#    3.273    7.273    0.000    0.000    0.000    0.000 
#    0.000    0.000    0.000    0.000    0.000    0.000 
#
# Total GULP energy -122804.611367 kJ/mol
# GULP energy per Si atom -5582.027789 kJ/mol
# Density = 2.416275 g / cm^3
# Si number density = 24.217871 Si / 1000 Ang^3
#
#
#
# Elastic Constant Matrix: (Units=GPa)
#
#
# Indices 1 2 3 4 5 6 
#
# 1 94.6235 21.2087 35.6061 0.0000 4.7110 0.0000
# 2 21.2087 133.0236 62.8737 0.0000 3.1916 0.0000
# 3 35.6061 62.8737 145.7945 0.0000 43.1654 0.0000
# 4 0.0000 0.0000 0.0000 41.9798 0.0000 1.1329
# 5 4.7110 3.1916 43.1654 0.0000 31.8355 0.0000
# 6 0.0000 0.0000 0.0000 1.1329 0.0000 19.4971
#
#
#
# Elastic Compliance Matrix: (Units=1/GPa)
#
#
# Indices 1 2 3 4 5 6 
#
# 1 0.011886 -0.000144 -0.003883 0.000000 0.003520 0.000000
# 2 -0.000144 0.010705 -0.007134 0.000000 0.008621 0.000000
# 3 -0.003883 -0.007134 0.017545 0.000000 -0.022499 0.000000
# 4 0.000000 0.000000 0.000000 0.023858 0.000000 -0.001386
# 5 0.003520 0.008621 -0.022499 0.000000 0.060533 0.000000
# 6 0.000000 0.000000 0.000000 -0.001386 0.000000 0.051370
#
#
# Mechanical properties :
#
#
# Convention : Reuss Voigt Hill
#
# Bulk Modulus (GPa) = 56.13301 68.09096 62.11199
# Shear Modulus (GPa) = 24.49069 35.57934 30.03502
#
# Velocity S-wave (km/s) = 3.18349 3.83709 3.52547
# Velocity P-wave (km/s) = 6.06147 6.91434 6.50190
#
# Compressibility (1/GPa) = 0.01781483
#
# Stress axis : x y z
#
# Youngs Moduli (GPa) = 84.12983 93.41036 56.99580
#
# Poissons Ratio (x) = 0.01348 0.22131
# Poissons Ratio (y) = 0.01214 0.40660
# Poissons Ratio (z) = 0.32667 0.66637
#
# Static dielectric constant tensor:
#      x y z
#    x 1.980840 0.000000 -0.093560 
#    y 0.000000 1.973650 0.000000 
#    z -0.093560 0.000000 2.073790 
# 
# From -- ./inp_files/184928.got.cif
#   From: 2010.05.17/outbox.cif.g08.bks.cpg/sg15_93_cif.got.tgz:184928.got - 2010.06.03 18:47:42.
