data_PCOD9301854
_publ_section_title
;
Structure prediction by ZEFSAII (Michael W. Deem and Ramdas Pophale) SiO2 
 PCOD9301854
Probable space group: C 2/C
;
_chemical_formula_sum "Si O2"
_cell_formula_units_Z 48
_cell_length_a 11.608630
_cell_length_b 11.514531
_cell_length_c 17.843455
_cell_angle_alpha 90.000000
_cell_angle_beta 52.879751
_cell_angle_gamma 90.000000
_cell_volume 1901.807014
_symmetry_space_group_name_H-M "C 2/C"
_symmetry_group_IT_number 15
_symmetry_cell_setting 'monoclinic'
loop_
_space_group_symop_operation_xyz
x,y,z
-x,y,1/2-z
-x,-y,-z
x,-y,1/2+z
1/2+x,1/2+y,z
1/2-x,1/2+y,1/2-z
1/2-x,1/2-y,-z
1/2+x,1/2-y,1/2+z
loop_
_atom_site_type_symbol
_atom_site_label
_atom_site_fract_x
_atom_site_fract_y
_atom_site_fract_z
Si Si1 0.372877 0.261879 0.749572
Si Si2 0.555419 0.169195 0.371842
Si Si3 0.275039 0.438263 0.022026
Si Si4 0.003807 0.071880 0.836718
Si Si5 0.529288 0.784954 0.040293
Si Si6 0.198427 0.502318 0.205080
O O1 0.500000 0.312636 0.750000
O O2 0.223794 0.320030 0.828975
O O3 0.407190 0.253406 0.647679
O O4 0.357010 0.128556 0.778542
O O5 0.507858 0.293381 0.359304
O O6 0.477695 0.156362 0.482906
O O7 0.579015 0.076229 0.296487
O O8 0.367539 0.506939 0.925126
O O9 0.379836 0.333672 0.010104
O O10 0.761950 0.472237 0.896599
O O11 0.136152 0.373803 0.041598
O O12 0.000000 0.069917 0.750000
O O13 0.150084 0.010364 0.809633
#
# Coordination Sequence:
#
# PCOD9301854 Si02
#       6
#     8   8   8   8   8   8
#     4  11  21  40  66  96 132 164 219 279 326 379
#     4  11  25  40  65  99 133 176 217 267 331 399
#     4  11  21  40  69  99 129 166 224 278 325 382
#     4  11  24  43  63  97 134 176 220 268 330 389
#     4  11  21  39  69 103 125 165 224 275 333 378
#     4  11  23  42  64  96 134 172 218 269 330 387
#
# _framework density 25.239156000000001
#
# number of rings (size 3 to 8) (size 9 to 14) (size 15 to 20)
#    0.000    1.000    5.000    3.500    2.333    2.667 
#    0.000    0.833    0.000    0.000    0.000    0.000 
#    0.000    0.000    0.000    0.000    0.000    0.000 
#
# Total GULP energy -134396.328115 kJ/mol
# GULP energy per Si atom -5599.847005 kJ/mol
# Density = 2.518171 g / cm^3
# Si number density = 25.239156 Si / 1000 Ang^3
#
#
#
# Elastic Constant Matrix: (Units=GPa)
#
#
# Indices 1 2 3 4 5 6 
#
# 1 76.3278 -6.9546 29.6785 0.0000 19.3449 0.0000
# 2 -6.9546 41.3863 -17.1599 0.0000 7.2378 0.0000
# 3 29.6785 -17.1599 136.0168 0.0000 47.5992 0.0000
# 4 0.0000 0.0000 0.0000 28.5215 0.0000 -7.5568
# 5 19.3449 7.2378 47.5992 0.0000 51.1684 0.0000
# 6 0.0000 0.0000 0.0000 -7.5568 0.0000 3.3730
#
#
#
# Elastic Compliance Matrix: (Units=1/GPa)
#
#
# Indices 1 2 3 4 5 6 
#
# 1 0.015099 0.002940 -0.001157 0.000000 -0.005048 0.000000
# 2 0.002940 0.029864 0.007404 0.000000 -0.012223 0.000000
# 3 -0.001157 0.007404 0.012976 0.000000 -0.012681 0.000000
# 4 0.000000 0.000000 0.000000 0.086270 0.000000 0.193276
# 5 -0.005048 -0.012223 -0.012681 0.000000 0.034977 0.000000
# 6 0.000000 0.000000 0.000000 0.193276 0.000000 0.729478
#
#
# Mechanical properties :
#
#
# Convention : Reuss Voigt Hill
#
# Bulk Modulus (GPa) = 13.10407 29.42876 21.26642
# Shear Modulus (GPa) = 5.46014 33.15705 19.30859
#
# Velocity S-wave (km/s) = 1.47243 3.62845 2.76891
# Velocity P-wave (km/s) = 2.84499 5.40736 4.32050
#
# Compressibility (1/GPa) = 0.07631215
#
# Stress axis : x y z
#
# Youngs Moduli (GPa) = 66.23167 33.48516 77.06403
#
# Poissons Ratio (x) = -0.09845 0.08917
# Poissons Ratio (y) = -0.19474 -0.57055
# Poissons Ratio (z) = 0.07663 -0.24791
#
# Static dielectric constant tensor:
#      x y z
#    x 2.048770 0.000000 0.058110 
#    y 0.000000 2.022760 0.000000 
#    z 0.058110 0.000000 2.011490 
# 
# From -- ./inp_files/243926.got.cif
#   From: 2010.05.17/outbox.cif.g08.bks.cpg/sg15_122_cif.got.tgz:243926.got - 2010.06.03 18:47:42.
