data_PCOD9301006
_publ_section_title
;
Structure prediction by ZEFSAII (Michael W. Deem and Ramdas Pophale) SiO2 
 PCOD9301006
Probable space group: C 2/C
;
_chemical_formula_sum "Si O2"
_cell_formula_units_Z 48
_cell_length_a 22.270798
_cell_length_b 10.787859
_cell_length_c 15.777390
_cell_angle_alpha 90.000000
_cell_angle_beta 139.585783
_cell_angle_gamma 90.000000
_cell_volume 2457.469563
_symmetry_space_group_name_H-M "C 2/C"
_symmetry_group_IT_number 15
_symmetry_cell_setting 'monoclinic'
loop_
_space_group_symop_operation_xyz
x,y,z
-x,y,1/2-z
-x,-y,-z
x,-y,1/2+z
1/2+x,1/2+y,z
1/2-x,1/2+y,1/2-z
1/2-x,1/2-y,-z
1/2+x,1/2-y,1/2+z
loop_
_atom_site_type_symbol
_atom_site_label
_atom_site_fract_x
_atom_site_fract_y
_atom_site_fract_z
Si Si1 0.810484 0.367990 0.087749
Si Si2 0.208257 0.116350 0.983812
Si Si3 0.500000 0.058341 0.750000
Si Si4 0.500000 0.656947 0.750000
Si Si5 0.319363 0.127150 0.800471
Si Si6 0.005330 0.354785 0.607566
Si Si7 0.210082 0.360743 0.747185
O O1 0.909057 0.359899 0.149245
O O2 0.825089 0.375846 0.204797
O O3 0.750000 0.250000 0.000000
O O4 0.766534 0.499871 0.012862
O O5 0.100306 0.094531 0.848908
O O6 0.250000 0.250000 0.000000
O O7 0.224348 0.119759 0.101256
O O8 0.505020 0.971815 0.671667
O O9 0.492716 0.741451 0.658530
O O10 0.248769 0.237598 0.745861
O O11 0.285891 0.991871 0.796890
O O12 0.420105 0.144470 0.950968
O O13 0.104285 0.347578 0.666835
#
# Coordination Sequence:
#
# PCOD9301006 Si02
#       7
#     8   8   4   4   8   8   8
#     4  11  27  43  65  98 136 173 211 271 341 394
#     4  11  20  40  64  97 125 171 227 260 324 387
#     4  11  22  41  70  94 124 178 228 266 314 396
#     4  11  20  35  68  98 128 162 218 290 314 376
#     4  11  25  42  65  99 130 170 218 270 330 389
#     4  11  21  39  69  98 121 171 231 269 312 383
#     4  11  23  40  65  95 132 170 215 271 324 387
#
# _framework density 19.532285999999999
#
# number of rings (size 3 to 8) (size 9 to 14) (size 15 to 20)
#    0.000    1.000    6.667    1.500    2.333    0.667 
#    0.000    2.500    0.000    0.000    0.000    0.000 
#    0.000    0.000    0.000    0.000    0.000    0.000 
#
# Total GULP energy -133969.984985 kJ/mol
# GULP energy per Si atom -5582.082708 kJ/mol
# Density = 1.948783 g / cm^3
# Si number density = 19.532286 Si / 1000 Ang^3
#
#
#
# Elastic Constant Matrix: (Units=GPa)
#
#
# Indices 1 2 3 4 5 6 
#
# 1 86.0690 52.5830 43.5636 0.0000 33.8120 0.0000
# 2 52.5830 118.8950 45.6094 0.0000 25.1602 0.0000
# 3 43.5636 45.6094 137.7081 0.0000 25.9338 0.0000
# 4 0.0000 0.0000 0.0000 23.7220 0.0000 1.7143
# 5 33.8120 25.1602 25.9338 0.0000 40.5989 0.0000
# 6 0.0000 0.0000 0.0000 1.7143 0.0000 24.4824
#
#
#
# Elastic Compliance Matrix: (Units=1/GPa)
#
#
# Indices 1 2 3 4 5 6 
#
# 1 0.021393 -0.005849 -0.002453 0.000000 -0.012625 0.000000
# 2 -0.005849 0.012005 -0.001867 0.000000 -0.001376 0.000000
# 3 -0.002453 -0.001867 0.009155 0.000000 -0.002648 0.000000
# 4 0.000000 0.000000 0.000000 0.042369 0.000000 -0.002967
# 5 -0.012625 -0.001376 -0.002648 0.000000 0.037691 0.000000
# 6 0.000000 0.000000 0.000000 -0.002967 0.000000 0.041053
#
#
# Mechanical properties :
#
#
# Convention : Reuss Voigt Hill
#
# Bulk Modulus (GPa) = 45.01223 69.57603 57.29413
# Shear Modulus (GPa) = 26.12222 31.15505 28.63863
#
# Velocity S-wave (km/s) = 3.66100 3.99815 3.83328
# Velocity P-wave (km/s) = 6.40044 7.55062 6.99920
#
# Compressibility (1/GPa) = 0.02221619
#
# Stress axis : x y z
#
# Youngs Moduli (GPa) = 46.74379 83.30020 109.23412
#
# Poissons Ratio (x) = 0.48720 0.26794
# Poissons Ratio (y) = 0.27339 0.20390
# Poissons Ratio (z) = 0.11466 0.15549
#
# Static dielectric constant tensor:
#      x y z
#    x 1.762470 0.000000 0.042590 
#    y 0.000000 1.716520 0.000000 
#    z 0.042590 0.000000 1.717980 
# 
# From -- ./inp_files/167944.got.cif
#   From: 2010.05.17/outbox.cif.g08.bks.cpg/sg15_84_cif.got.tgz:167944.got - 2010.06.03 18:47:42.
