data_PCOD9301065
_publ_section_title
;
Structure prediction by ZEFSAII (Michael W. Deem and Ramdas Pophale) SiO2 
 PCOD9301065
Probable space group: C 2/C
;
_chemical_formula_sum "Si O2"
_cell_formula_units_Z 44
_cell_length_a 7.928677
_cell_length_b 11.177060
_cell_length_c 24.435327
_cell_angle_alpha 90.000000
_cell_angle_beta 47.334705
_cell_angle_gamma 90.000000
_cell_volume 1592.303804
_symmetry_space_group_name_H-M "C 2/C"
_symmetry_group_IT_number 15
_symmetry_cell_setting 'monoclinic'
loop_
_space_group_symop_operation_xyz
x,y,z
-x,y,1/2-z
-x,-y,-z
x,-y,1/2+z
1/2+x,1/2+y,z
1/2-x,1/2+y,1/2-z
1/2-x,1/2-y,-z
1/2+x,1/2-y,1/2+z
loop_
_atom_site_type_symbol
_atom_site_label
_atom_site_fract_x
_atom_site_fract_y
_atom_site_fract_z
Si Si1 0.555004 0.770690 0.141353
Si Si2 0.153602 0.567075 0.031346
Si Si3 0.664232 0.838835 0.416606
Si Si4 0.828811 0.003013 0.097455
Si Si5 0.680528 0.576868 0.783220
Si Si6 0.000000 0.888383 0.750000
O O1 0.452504 0.751160 0.103097
O O2 0.625174 0.670284 0.169450
O O3 0.746545 0.871738 0.094271
O O4 0.350328 0.823809 0.223954
O O5 0.120226 0.667114 0.991810
O O6 0.396726 0.501578 0.963477
O O7 0.204102 0.595699 0.084098
O O8 0.959913 0.466592 0.068650
O O9 0.932635 0.861482 0.345917
O O10 0.754064 0.992897 0.176250
O O11 0.681198 0.475859 0.737609
#
# Coordination Sequence:
#
# PCOD9301065 Si02
#       6
#     8   8   8   8   8   4
#     4  11  20  37  59  90 121 157 194 246 293 356
#     4   8  16  30  60  88 104 168 192 234 308 334
#     4   9  17  33  60  87 118 149 205 238 289 359
#     4   9  17  33  60  87 118 149 205 238 289 359
#     4  11  20  37  59  90 121 157 194 246 293 356
#     4  12  24  36  62  88 124 162 186 238 320 332
#
# _framework density 27.632916999999999
#
# number of rings (size 3 to 8) (size 9 to 14) (size 15 to 20)
#    0.000    2.182    3.636    0.000    0.000    0.000 
#    0.000    3.636    0.000   41.455    0.000    0.000 
#    0.000    0.000    0.000    0.000    0.000    0.000 
#
# Total GULP energy -123059.098167 kJ/mol
# GULP energy per Si atom -5593.595371 kJ/mol
# Density = 2.757002 g / cm^3
# Si number density = 27.632917 Si / 1000 Ang^3
#
#
#
# Elastic Constant Matrix: (Units=GPa)
#
#
# Indices 1 2 3 4 5 6 
#
# 1 148.6850 30.3950 54.8600 0.0000 62.2595 -0.0001
# 2 30.3950 50.2545 18.8433 0.0001 16.1310 -0.0001
# 3 54.8600 18.8433 116.3877 0.0003 12.8602 -0.0005
# 4 0.0000 0.0001 0.0003 42.8242 -0.0001 31.9346
# 5 62.2595 16.1310 12.8602 -0.0001 96.7399 0.0002
# 6 -0.0001 -0.0001 -0.0005 31.9346 0.0002 -6.8305
#
#
#
# Elastic Compliance Matrix: (Units=1/GPa)
#
#
# Indices 1 2 3 4 5 6 
#
# 1 0.011653 -0.003416 -0.004236 0.000000 -0.006367 0.000000
# 2 -0.003416 0.023158 -0.001985 0.000000 -0.001399 0.000000
# 3 -0.004236 -0.001985 0.010730 0.000000 0.001631 0.000000
# 4 0.000000 0.000000 0.000000 0.005205 0.000000 0.024334
# 5 -0.006367 -0.001399 0.001631 0.000000 0.014451 0.000000
# 6 0.000000 0.000000 0.000000 0.024334 0.000000 -0.032632
#
#
# Mechanical properties :
#
#
# Convention : Reuss Voigt Hill
#
# Bulk Modulus (GPa) = 38.06984 58.16929 48.11957
# Shear Modulus (GPa) = 82.51699 40.62865 61.57282
#
# Velocity S-wave (km/s) = 5.47053 3.83861 4.72555
# Velocity P-wave (km/s) = 7.32865 6.38302 6.87212
#
# Compressibility (1/GPa) = 0.02626751
#
# Stress axis : x y z
#
# Youngs Moduli (GPa) = 85.81530 43.18156 93.19826
#
# Poissons Ratio (x) = 0.14750 0.39480
# Poissons Ratio (y) = 0.29314 0.18496
# Poissons Ratio (z) = 0.36353 0.08570
#
# Static dielectric constant tensor:
#      x y z
#    x 2.224460 0.000000 0.081960 
#    y 0.000000 2.249120 0.000000 
#    z 0.081960 0.000000 2.157390 
# 
# From -- ./inp_files/288330.got.cif
#   From: 2010.05.17/outbox.cif.g08.bks.cpg/sg15_145_cif.got.tgz:288330.got - 2010.06.03 18:47:42.
