data_PCOD9301002
_publ_section_title
;
Structure prediction by ZEFSAII (Michael W. Deem and Ramdas Pophale) SiO2 
 PCOD9301002
Probable space group: C 2/C
;
_chemical_formula_sum "Si O2"
_cell_formula_units_Z 48
_cell_length_a 17.675969
_cell_length_b 9.481363
_cell_length_c 25.546221
_cell_angle_alpha 90.000000
_cell_angle_beta 29.801160
_cell_angle_gamma 90.000000
_cell_volume 2127.794379
_symmetry_space_group_name_H-M "C 2/C"
_symmetry_group_IT_number 15
_symmetry_cell_setting 'monoclinic'
loop_
_space_group_symop_operation_xyz
x,y,z
-x,y,1/2-z
-x,-y,-z
x,-y,1/2+z
1/2+x,1/2+y,z
1/2-x,1/2+y,1/2-z
1/2-x,1/2-y,-z
1/2+x,1/2-y,1/2+z
loop_
_atom_site_type_symbol
_atom_site_label
_atom_site_fract_x
_atom_site_fract_y
_atom_site_fract_z
Si Si1 0.763899 0.768647 0.643409
Si Si2 0.952346 0.436520 0.972047
Si Si3 0.162364 0.567580 0.696534
Si Si4 0.638493 0.326879 0.326476
Si Si5 0.533261 0.595539 0.046629
Si Si6 0.585825 0.180227 0.591262
O O1 0.807721 0.662821 0.571181
O O2 0.701041 0.681617 0.730375
O O3 0.918838 0.847821 0.570535
O O4 0.655274 0.898818 0.695339
O O5 0.916456 0.553845 0.950085
O O6 0.000000 0.500000 0.000000
O O7 0.084446 0.329956 0.873996
O O8 0.239574 0.608621 0.706452
O O9 0.295433 0.616088 0.577022
O O10 0.995057 0.629625 0.807135
O O11 0.499783 0.436779 0.416116
O O12 0.495034 0.692376 0.118793
O O13 0.750000 0.250000 0.500000
#
# Coordination Sequence:
#
# PCOD9301002 Si02
#       6
#     8   8   8   8   8   8
#     4  11  20  35  67 102 131 171 222 294 355 401
#     4  12  21  39  66 105 135 169 232 288 347 423
#     4  11  20  39  65  94 136 173 230 287 349 406
#     4  11  20  35  65 103 130 165 224 297 348 396
#     4  11  22  39  61  98 133 172 222 282 351 410
#     4  12  27  43  64  95 138 185 225 284 353 421
#
# _framework density 22.55857
#
# number of rings (size 3 to 8) (size 9 to 14) (size 15 to 20)
#    0.000    0.667    8.333    1.000    2.333    2.000 
#    0.000    0.833    0.000    0.000    0.000    0.000 
#    0.000    0.000    0.000    0.000    0.000    0.000 
#
# Total GULP energy -134129.342427 kJ/mol
# GULP energy per Si atom -5588.722601 kJ/mol
# Density = 2.250723 g / cm^3
# Si number density = 22.558570 Si / 1000 Ang^3
#
#
#
# Elastic Constant Matrix: (Units=GPa)
#
#
# Indices 1 2 3 4 5 6 
#
# 1 43.6001 32.2048 34.7889 -0.0001 0.9886 0.0000
# 2 32.2048 138.4172 53.9420 -0.0002 6.9712 0.0000
# 3 34.7889 53.9420 167.7817 -0.0008 7.9404 0.0000
# 4 -0.0001 -0.0002 -0.0008 44.8636 0.0001 0.7625
# 5 0.9886 6.9712 7.9404 0.0001 37.7583 0.0000
# 6 0.0000 0.0000 0.0000 0.7625 0.0000 12.5720
#
#
#
# Elastic Compliance Matrix: (Units=1/GPa)
#
#
# Indices 1 2 3 4 5 6 
#
# 1 0.030597 -0.005355 -0.004678 0.000000 0.001171 0.000000
# 2 -0.005355 0.009232 -0.001802 0.000000 -0.001185 0.000000
# 3 -0.004678 -0.001802 0.007563 0.000000 -0.001135 0.000000
# 4 0.000000 0.000000 0.000000 0.022313 0.000000 -0.001353
# 5 0.001171 -0.001185 -0.001135 0.000000 0.026911 0.000000
# 6 0.000000 0.000000 0.000000 -0.001353 0.000000 0.079624
#
#
# Mechanical properties :
#
#
# Convention : Reuss Voigt Hill
#
# Bulk Modulus (GPa) = 42.15277 65.74113 53.94695
# Shear Modulus (GPa) = 24.05954 34.29632 29.17793
#
# Velocity S-wave (km/s) = 3.26933 3.90336 3.60033
# Velocity P-wave (km/s) = 5.74263 7.03709 6.42256
#
# Compressibility (1/GPa) = 0.02372323
#
# Stress axis : x y z
#
# Youngs Moduli (GPa) = 32.68280 108.31557 132.22071
#
# Poissons Ratio (x) = 0.58001 0.61854
# Poissons Ratio (y) = 0.17501 0.23823
# Poissons Ratio (z) = 0.15289 0.19516
#
# Static dielectric constant tensor:
#      x y z
#    x 1.950230 0.000000 -0.046730 
#    y 0.000000 1.832520 0.000000 
#    z -0.046730 0.000000 1.890990 
# 
# From -- ./inp_files/300470.got.cif
#   From: 2010.05.17/outbox.cif.g08.bks.cpg/sg15_151_cif.got.tgz:300470.got - 2010.06.03 18:47:42.
