data_PCOD9301243
_publ_section_title
;
Structure prediction by ZEFSAII (Michael W. Deem and Ramdas Pophale) SiO2 
 PCOD9301243
Probable space group: C 2/C
;
_chemical_formula_sum "Si O2"
_cell_formula_units_Z 56
_cell_length_a 30.543868
_cell_length_b 8.346609
_cell_length_c 13.607333
_cell_angle_alpha 90.000000
_cell_angle_beta 139.401277
_cell_angle_gamma 90.000000
_cell_volume 2257.491696
_symmetry_space_group_name_H-M "C 2/C"
_symmetry_group_IT_number 15
_symmetry_cell_setting 'monoclinic'
loop_
_space_group_symop_operation_xyz
x,y,z
-x,y,1/2-z
-x,-y,-z
x,-y,1/2+z
1/2+x,1/2+y,z
1/2-x,1/2+y,1/2-z
1/2-x,1/2-y,-z
1/2+x,1/2-y,1/2+z
loop_
_atom_site_type_symbol
_atom_site_label
_atom_site_fract_x
_atom_site_fract_y
_atom_site_fract_z
Si Si1 0.209666 0.017340 0.293746
Si Si2 0.560649 0.567012 0.539895
Si Si3 0.388377 0.134611 0.580161
Si Si4 0.169150 0.650360 0.806512
Si Si5 0.276907 0.843782 0.724566
Si Si6 0.500000 0.384528 0.750000
Si Si7 0.500000 0.127877 0.250000
Si Si8 0.987268 0.677568 0.009236
O O1 0.212500 0.188178 0.358159
O O2 0.220461 0.079440 0.200280
O O3 0.242625 0.834289 0.350783
O O4 0.134667 0.967223 0.195574
O O5 0.500000 0.500000 0.500000
O O6 0.543971 0.519561 0.401464
O O7 0.541322 0.747956 0.525522
O O8 0.345220 0.106332 0.604279
O O9 0.338740 0.182726 0.407353
O O10 0.442841 0.271204 0.699192
O O11 0.433484 0.983343 0.627699
O O12 0.200122 0.489464 0.808516
O O13 0.093518 0.697865 0.638354
O O14 0.507704 0.208828 0.156854
O O15 0.000000 0.500000 0.000000
#
# Coordination Sequence:
#
# PCOD9301243 Si02
#       8
#     8   8   8   8   8   4   4   8
#     4  12  26  48  72 101 145 195 241 298 364 428
#     4  12  24  42  68 106 142 180 234 310 361 427
#     4  11  22  40  72 107 141 189 242 293 362 434
#     4  12  24  46  73 107 141 187 243 301 359 433
#     4  12  26  49  74 100 146 197 244 295 361 439
#     4  11  20  39  70 106 141 185 236 291 373 430
#     4  11  22  35  68 112 139 189 228 295 373 430
#     4  12  21  39  67 101 142 174 229 290 361 433
#
# _framework density 24.806293
#
# number of rings (size 3 to 8) (size 9 to 14) (size 15 to 20)
#    0.000    0.286    8.571    1.714    0.000    1.143 
#    0.000    2.143    0.000    0.000    0.000    0.000 
#    0.000    0.000    0.000    0.000    0.000    0.000 
#
# Total GULP energy -156068.809994 kJ/mol
# GULP energy per Si atom -5573.886071 kJ/mol
# Density = 2.474983 g / cm^3
# Si number density = 24.806293 Si / 1000 Ang^3
#
#
#
# Elastic Constant Matrix: (Units=GPa)
#
#
# Indices 1 2 3 4 5 6 
#
# 1 131.8283 35.5948 3.3759 0.0000 2.8143 0.0000
# 2 35.5948 165.6842 -1.1935 0.0000 -1.5414 0.0000
# 3 3.3759 -1.1935 52.6304 0.0000 -7.0462 0.0000
# 4 0.0000 0.0000 0.0000 0.7608 0.0000 2.4662
# 5 2.8143 -1.5414 -7.0462 0.0000 46.1532 0.0000
# 6 0.0000 0.0000 0.0000 2.4662 0.0000 44.3909
#
#
#
# Elastic Compliance Matrix: (Units=1/GPa)
#
#
# Indices 1 2 3 4 5 6 
#
# 1 0.008088 -0.001748 -0.000645 0.000000 -0.000650 0.000000
# 2 -0.001748 0.006417 0.000307 0.000000 0.000368 0.000000
# 3 -0.000645 0.000307 0.019453 0.000000 0.003020 0.000000
# 4 0.000000 0.000000 0.000000 1.603091 0.000000 -0.089061
# 5 -0.000650 0.000368 0.003020 0.000000 0.022180 0.000000
# 6 0.000000 0.000000 0.000000 -0.089061 0.000000 0.027475
#
#
# Mechanical properties :
#
#
# Convention : Reuss Voigt Hill
#
# Bulk Modulus (GPa) = 33.57491 47.29971 40.43731
# Shear Modulus (GPa) = 2.93978 39.08536 21.01257
#
# Velocity S-wave (km/s) = 1.08980 3.97372 2.91360
# Velocity P-wave (km/s) = 3.89201 6.33742 5.25884
#
# Compressibility (1/GPa) = 0.02978415
#
# Stress axis : x y z
#
# Youngs Moduli (GPa) = 123.63858 155.84068 51.40584
#
# Poissons Ratio (x) = 0.27246 0.03318
# Poissons Ratio (y) = 0.21616 -0.01578
# Poissons Ratio (z) = 0.07981 -0.04783
#
# Static dielectric constant tensor:
#      x y z
#    x 1.962240 0.000000 -0.001640 
#    y 0.000000 1.991370 0.000000 
#    z -0.001640 0.000000 2.137330 
# 
# From -- ./inp_files/180881.got.cif
#   From: 2010.05.17/outbox.cif.g08.bks.cpg/sg15_91_cif.got.tgz:180881.got - 2010.06.03 18:47:42.
