data_PCOD9301669
_publ_section_title
;
Structure prediction by ZEFSAII (Michael W. Deem and Ramdas Pophale) SiO2 
 PCOD9301669
Probable space group: C 2/C
;
_chemical_formula_sum "Si O2"
_cell_formula_units_Z 60
_cell_length_a 18.700498
_cell_length_b 18.034747
_cell_length_c 8.352352
_cell_angle_alpha 90.000000
_cell_angle_beta 79.735124
_cell_angle_gamma 90.000000
_cell_volume 2771.817742
_symmetry_space_group_name_H-M "C 2/C"
_symmetry_group_IT_number 15
_symmetry_cell_setting 'monoclinic'
loop_
_space_group_symop_operation_xyz
x,y,z
-x,y,1/2-z
-x,-y,-z
x,-y,1/2+z
1/2+x,1/2+y,z
1/2-x,1/2+y,1/2-z
1/2-x,1/2-y,-z
1/2+x,1/2-y,1/2+z
loop_
_atom_site_type_symbol
_atom_site_label
_atom_site_fract_x
_atom_site_fract_y
_atom_site_fract_z
Si Si1 0.427220 0.034968 0.185689
Si Si2 0.226704 0.800085 0.657151
Si Si3 0.279999 0.568967 0.551007
Si Si4 0.103496 0.217993 0.459709
Si Si5 0.000000 0.734547 0.750000
Si Si6 0.667163 0.847323 0.618698
Si Si7 0.691763 0.595019 0.596937
Si Si8 0.107718 0.397029 0.139808
O O1 0.500000 0.054308 0.250000
O O2 0.364698 0.074398 0.314034
O O3 0.415892 0.947100 0.199820
O O4 0.422636 0.064573 0.008942
O O5 0.250000 0.750000 0.500000
O O6 0.193830 0.875946 0.598613
O O7 0.167537 0.770495 0.803722
O O8 0.297972 0.814183 0.734299
O O9 0.313836 0.584240 0.711025
O O10 0.295270 0.484834 0.491600
O O11 0.194593 0.592973 0.596916
O O12 0.109506 0.289910 0.570971
O O13 0.127158 0.144250 0.546691
O O14 0.029519 0.218655 0.388350
O O15 0.066592 0.680682 0.671199
O O16 0.734190 0.859943 0.472004
#
# Coordination Sequence:
#
# PCOD9301669 Si02
#       8
#     8   8   8   8   4   8   8   8
#     4  12  24  36  56  86 133 175 216 254 305 390
#     4  11  21  39  61  91 126 163 213 268 324 380
#     4  12  22  39  69  99 127 162 212 278 332 380
#     4  11  25  41  62  88 126 175 218 269 322 385
#     4  12  26  44  64  88 132 180 222 260 328 396
#     4  11  21  38  57  89 127 169 214 264 320 372
#     4  11  22  39  64  95 126 164 213 275 329 379
#     4  12  24  39  59  93 128 176 212 263 317 385
#
# _framework density 21.646445
#
# number of rings (size 3 to 8) (size 9 to 14) (size 15 to 20)
#    0.000    0.533    3.333    8.400    1.867    0.000 
#    0.000    0.000    0.000    3.200    0.000    0.000 
#    0.000    0.000    0.000    0.000    0.000    0.000 
#
# Total GULP energy -167800.678821 kJ/mol
# GULP energy per Si atom -5593.355961 kJ/mol
# Density = 2.159718 g / cm^3
# Si number density = 21.646445 Si / 1000 Ang^3
#
#
#
# Elastic Constant Matrix: (Units=GPa)
#
#
# Indices 1 2 3 4 5 6 
#
# 1 61.0787 27.4673 13.0257 0.0000 27.8881 0.0000
# 2 27.4673 90.6928 22.7039 0.0000 19.8140 0.0000
# 3 13.0257 22.7039 96.6054 0.0000 28.8624 0.0000
# 4 0.0000 0.0000 0.0000 39.6932 0.0000 7.6119
# 5 27.8881 19.8140 28.8624 0.0000 37.7665 0.0000
# 6 0.0000 0.0000 0.0000 7.6119 0.0000 28.8029
#
#
#
# Elastic Compliance Matrix: (Units=1/GPa)
#
#
# Indices 1 2 3 4 5 6 
#
# 1 0.026873 -0.004621 0.003456 0.000000 -0.020061 0.000000
# 2 -0.004621 0.013368 -0.001870 0.000000 -0.002172 0.000000
# 3 0.003456 -0.001870 0.013988 0.000000 -0.012261 0.000000
# 4 0.000000 0.000000 0.000000 0.026538 0.000000 -0.007013
# 5 -0.020061 -0.002172 -0.012261 0.000000 0.051802 0.000000
# 6 0.000000 0.000000 0.000000 -0.007013 0.000000 0.036572
#
#
# Mechanical properties :
#
#
# Convention : Reuss Voigt Hill
#
# Bulk Modulus (GPa) = 20.76412 41.64120 31.20266
# Shear Modulus (GPa) = 26.14171 33.59786 29.86979
#
# Velocity S-wave (km/s) = 3.47892 3.94397 3.71872
# Velocity P-wave (km/s) = 5.07449 6.32602 5.73450
#
# Compressibility (1/GPa) = 0.04816000
#
# Stress axis : x y z
#
# Youngs Moduli (GPa) = 37.21200 74.80279 71.48949
#
# Poissons Ratio (x) = 0.34568 -0.24708
# Poissons Ratio (y) = 0.17197 0.13366
# Poissons Ratio (z) = -0.12861 0.13986
#
# Static dielectric constant tensor:
#      x y z
#    x 1.823930 0.000000 -0.015670 
#    y 0.000000 1.843260 0.000000 
#    z -0.015670 0.000000 1.802060 
# 
# From -- ./inp_files/49110.got.cif
#   From: 2010.05.17/outbox.cif.g08.bks.cpg/sg15_25_cif.got.tgz:49110.got - 2010.06.03 18:47:42.
