data_PCOD9301830
_publ_section_title
;
Structure prediction by ZEFSAII (Michael W. Deem and Ramdas Pophale) SiO2 
 PCOD9301830
Probable space group: C 2/C
;
_chemical_formula_sum "Si O2"
_cell_formula_units_Z 48
_cell_length_a 9.879686
_cell_length_b 13.987460
_cell_length_c 17.161347
_cell_angle_alpha 90.000000
_cell_angle_beta 83.937443
_cell_angle_gamma 90.000000
_cell_volume 2358.292239
_symmetry_space_group_name_H-M "C 2/C"
_symmetry_group_IT_number 15
_symmetry_cell_setting 'monoclinic'
loop_
_space_group_symop_operation_xyz
x,y,z
-x,y,1/2-z
-x,-y,-z
x,-y,1/2+z
1/2+x,1/2+y,z
1/2-x,1/2+y,1/2-z
1/2-x,1/2-y,-z
1/2+x,1/2-y,1/2+z
loop_
_atom_site_type_symbol
_atom_site_label
_atom_site_fract_x
_atom_site_fract_y
_atom_site_fract_z
Si Si1 0.803886 0.024557 0.961697
Si Si2 0.300399 0.906190 0.319209
Si Si3 0.457175 0.533009 0.163181
Si Si4 0.341219 0.679807 0.543956
Si Si5 0.604146 0.305205 0.943702
Si Si6 0.102086 0.605630 0.863507
O O1 0.674223 0.026388 0.912901
O O2 0.801154 0.114960 0.020865
O O3 0.937614 0.027865 0.896933
O O4 0.820158 0.926988 0.009437
O O5 0.210441 0.823263 0.364661
O O6 0.337879 0.891919 0.227213
O O7 0.440489 0.909952 0.360443
O O8 0.197504 0.995379 0.329843
O O9 0.500000 0.531461 0.250000
O O10 0.463236 0.637068 0.124053
O O11 0.250000 0.750000 0.500000
O O12 0.493348 0.712472 0.517626
O O13 0.641847 0.204656 0.904055
#
# Coordination Sequence:
#
# PCOD9301830 Si02
#       6
#     8   8   8   8   8   8
#     4  11  22  40  64  94 121 161 207 254 301 356
#     4  11  22  42  60  87 129 157 205 251 309 365
#     4  11  21  39  67  86 119 166 209 252 302 360
#     4  11  21  40  64  91 120 165 209 249 300 369
#     4  11  22  39  65  93 120 163 213 249 296 373
#     4  11  25  38  62  94 128 161 197 256 318 361
#
# _framework density 20.353712000000002
#
# number of rings (size 3 to 8) (size 9 to 14) (size 15 to 20)
#    0.000    1.000    6.667    1.500    2.333    0.667 
#    0.000    0.000    0.000    0.000    0.000    0.000 
#    0.000    0.000    0.000    0.000    0.000    0.000 
#
# Total GULP energy -133795.289356 kJ/mol
# GULP energy per Si atom -5574.803723 kJ/mol
# Density = 2.030739 g / cm^3
# Si number density = 20.353712 Si / 1000 Ang^3
#
#
#
# Elastic Constant Matrix: (Units=GPa)
#
#
# Indices 1 2 3 4 5 6 
#
# 1 64.5423 21.9886 38.4211 0.0000 -3.9186 0.0000
# 2 21.9886 27.9320 7.1247 0.0000 10.9983 0.0000
# 3 38.4211 7.1247 111.8595 0.0000 3.2198 0.0000
# 4 0.0000 0.0000 0.0000 21.7858 0.0000 4.4111
# 5 -3.9186 10.9983 3.2198 0.0000 37.6515 0.0000
# 6 0.0000 0.0000 0.0000 4.4111 0.0000 25.4621
#
#
#
# Elastic Compliance Matrix: (Units=1/GPa)
#
#
# Indices 1 2 3 4 5 6 
#
# 1 0.030668 -0.026401 -0.009189 0.000000 0.011689 0.000000
# 2 -0.026401 0.063751 0.005637 0.000000 -0.021852 0.000000
# 3 -0.009189 0.005637 0.011841 0.000000 -0.003615 0.000000
# 4 0.000000 0.000000 0.000000 0.047570 0.000000 -0.008241
# 5 0.011689 -0.021852 -0.003615 0.000000 0.034468 0.000000
# 6 0.000000 0.000000 0.000000 -0.008241 0.000000 0.040702
#
#
# Mechanical properties :
#
#
# Convention : Reuss Voigt Hill
#
# Bulk Modulus (GPa) = 21.57326 37.71140 29.64233
# Shear Modulus (GPa) = 16.42806 26.09984 21.26395
#
# Velocity S-wave (km/s) = 2.84408 3.58483 3.23572
# Velocity P-wave (km/s) = 4.62680 5.97519 5.34369
#
# Compressibility (1/GPa) = 0.04635369
#
# Stress axis : x y z
#
# Youngs Moduli (GPa) = 32.60759 15.68596 84.45323
#
# Poissons Ratio (x) = 0.41413 0.77600
# Poissons Ratio (y) = 0.86088 -0.47603
# Poissons Ratio (z) = 0.29962 -0.08842
#
# Static dielectric constant tensor:
#      x y z
#    x 1.789350 0.000000 -0.004330 
#    y 0.000000 1.725890 0.000000 
#    z -0.004330 0.000000 1.723100 
# 
# From -- ./inp_files/182502.got.cif
#   From: 2010.05.17/outbox.cif.g08.bks.cpg/sg15_92_cif.got.tgz:182502.got - 2010.06.03 18:47:42.
