data_PCOD9301349
_publ_section_title
;
Structure prediction by ZEFSAII (Michael W. Deem and Ramdas Pophale) SiO2 
 PCOD9301349
Probable space group: C 2/C
;
_chemical_formula_sum "Si O2"
_cell_formula_units_Z 40
_cell_length_a 13.123781
_cell_length_b 16.537389
_cell_length_c 7.913555
_cell_angle_alpha 90.000000
_cell_angle_beta 75.720136
_cell_angle_gamma 90.000000
_cell_volume 1664.436555
_symmetry_space_group_name_H-M "C 2/C"
_symmetry_group_IT_number 15
_symmetry_cell_setting 'monoclinic'
loop_
_space_group_symop_operation_xyz
x,y,z
-x,y,1/2-z
-x,-y,-z
x,-y,1/2+z
1/2+x,1/2+y,z
1/2-x,1/2+y,1/2-z
1/2-x,1/2-y,-z
1/2+x,1/2-y,1/2+z
loop_
_atom_site_type_symbol
_atom_site_label
_atom_site_fract_x
_atom_site_fract_y
_atom_site_fract_z
Si Si1 0.928630 0.227604 0.645178
Si Si2 0.214821 0.658532 0.686573
Si Si3 0.591476 0.310043 0.818746
Si Si4 0.916513 0.533204 0.900803
Si Si5 0.803016 0.630365 0.398560
O O1 0.837948 0.169764 0.620865
O O2 0.872583 0.301641 0.770274
O O3 0.000000 0.180663 0.750000
O O4 0.016353 0.245093 0.469955
O O5 0.158483 0.744206 0.688708
O O6 0.175015 0.598558 0.556361
O O7 0.197883 0.636738 0.894549
O O8 0.500000 0.355317 0.750000
O O9 0.682859 0.358611 0.881594
O O10 0.859555 0.455194 0.842417
O O11 0.000000 0.579651 0.750000
O O12 0.000000 0.500000 0.000000
#
# Coordination Sequence:
#
# PCOD9301349 Si02
#       5
#     8   8   8   8   8
#     4  11  20  41  74  95 130 179 218 272 340 383
#     4  11  23  42  67 100 134 172 231 271 322 410
#     4  11  24  41  68 101 136 167 225 282 329 391
#     4  12  26  42  67  95 137 176 216 275 336 386
#     4  11  23  42  66 100 131 176 227 271 327 407
#
# _framework density 24.032157000000002
#
# number of rings (size 3 to 8) (size 9 to 14) (size 15 to 20)
#    0.000    0.800    6.000    2.400    0.000    4.800 
#    0.000    2.000    0.000    0.000    0.000    0.000 
#    0.000    0.000    0.000    0.000    0.000    0.000 
#
# Total GULP energy -111411.369296 kJ/mol
# GULP energy per Si atom -5570.568465 kJ/mol
# Density = 2.397746 g / cm^3
# Si number density = 24.032157 Si / 1000 Ang^3
#
#
#
# Elastic Constant Matrix: (Units=GPa)
#
#
# Indices 1 2 3 4 5 6 
#
# 1 262.1521 65.8820 47.3688 0.0000 30.2801 0.0000
# 2 65.8820 74.7962 9.3536 0.0000 19.1869 0.0000
# 3 47.3688 9.3536 78.3948 0.0000 0.5285 0.0000
# 4 0.0000 0.0000 0.0000 20.0979 0.0000 8.9613
# 5 30.2801 19.1869 0.5285 0.0000 58.0070 0.0000
# 6 0.0000 0.0000 0.0000 8.9613 0.0000 36.4891
#
#
#
# Elastic Compliance Matrix: (Units=1/GPa)
#
#
# Indices 1 2 3 4 5 6 
#
# 1 0.005542 -0.004142 -0.002845 0.000000 -0.001497 0.000000
# 2 -0.004142 0.017938 0.000388 0.000000 -0.003775 0.000000
# 3 -0.002845 0.000388 0.014420 0.000000 0.001225 0.000000
# 4 0.000000 0.000000 0.000000 0.055875 0.000000 -0.013722
# 5 -0.001497 -0.003775 0.001225 0.000000 0.019258 0.000000
# 6 0.000000 0.000000 0.000000 -0.013722 0.000000 0.030775
#
#
# Mechanical properties :
#
#
# Convention : Reuss Voigt Hill
#
# Bulk Modulus (GPa) = 40.48080 73.39467 56.93773
# Shear Modulus (GPa) = 30.25878 42.43471 36.34674
#
# Velocity S-wave (km/s) = 3.55222 4.20664 3.89321
# Velocity P-wave (km/s) = 5.80563 7.36213 6.62972
#
# Compressibility (1/GPa) = 0.02470307
#
# Stress axis : x y z
#
# Youngs Moduli (GPa) = 180.42421 55.74792 69.34709
#
# Poissons Ratio (x) = 0.23092 0.19727
# Poissons Ratio (y) = 0.74734 -0.02691
# Poissons Ratio (z) = 0.51324 -0.02163
#
# Static dielectric constant tensor:
#      x y z
#    x 1.933380 0.000000 0.082520 
#    y 0.000000 1.883320 0.000000 
#    z 0.082520 0.000000 2.328420 
# 
# From -- ./inp_files/29114.got.cif
#   From: 2010.05.17/outbox.cif.g08.bks.cpg/sg15_15_cif.got.tgz:29114.got - 2010.06.03 18:47:42.
