data_PCOD9301381
_publ_section_title
;
Structure prediction by ZEFSAII (Michael W. Deem and Ramdas Pophale) SiO2 
 PCOD9301381
Probable space group: C 2/C
;
_chemical_formula_sum "Si O2"
_cell_formula_units_Z 48
_cell_length_a 21.611412
_cell_length_b 11.246710
_cell_length_c 27.605558
_cell_angle_alpha 90.000000
_cell_angle_beta 163.055790
_cell_angle_gamma 90.000000
_cell_volume 1955.486919
_symmetry_space_group_name_H-M "C 2/C"
_symmetry_group_IT_number 15
_symmetry_cell_setting 'monoclinic'
loop_
_space_group_symop_operation_xyz
x,y,z
-x,y,1/2-z
-x,-y,-z
x,-y,1/2+z
1/2+x,1/2+y,z
1/2-x,1/2+y,1/2-z
1/2-x,1/2-y,-z
1/2+x,1/2-y,1/2+z
loop_
_atom_site_type_symbol
_atom_site_label
_atom_site_fract_x
_atom_site_fract_y
_atom_site_fract_z
Si Si1 0.805296 0.677100 0.930676
Si Si2 0.697810 0.181212 0.780645
Si Si3 0.000000 0.365254 0.750000
Si Si4 0.000000 0.011297 0.250000
Si Si5 0.316240 0.915314 0.059612
Si Si6 0.541465 0.612074 0.436888
Si Si7 0.837716 0.858907 0.282730
O O1 0.643439 0.782259 0.824127
O O2 0.698425 0.567334 0.879255
O O3 0.792715 0.647917 0.864465
O O4 0.029333 0.735451 0.112958
O O5 0.499611 0.134320 0.663208
O O6 0.651296 0.316786 0.731404
O O7 0.712377 0.120926 0.738866
O O8 0.902858 0.153793 0.967106
O O9 0.875786 0.451081 0.620278
O O10 0.098475 0.085850 0.366803
O O11 0.250557 0.857103 0.061434
O O12 0.494767 0.472566 0.398510
#
# Coordination Sequence:
#
# PCOD9301381 Si02
#       7
#     8   8   4   4   8   8   8
#     4  11  22  42  71 106 146 181 241 298 354 428
#     4  12  28  45  73 101 147 196 235 301 363 434
#     4  11  20  42  75 104 136 193 236 295 356 408
#     4  11  24  38  73 108 138 185 244 303 352 414
#     4  12  23  45  69 103 142 187 245 294 351 429
#     4  12  26  49  70 103 142 192 245 292 360 432
#     4  12  25  47  72 109 147 187 240 298 372 429
#
# _framework density 24.546316999999998
#
# number of rings (size 3 to 8) (size 9 to 14) (size 15 to 20)
#    0.000    0.333    5.000    3.000    2.333    5.333 
#    0.000    2.500    0.000    0.000    0.000    0.000 
#    0.000    0.000    0.000    0.000    0.000    0.000 
#
# Total GULP energy -134273.457464 kJ/mol
# GULP energy per Si atom -5594.727394 kJ/mol
# Density = 2.449045 g / cm^3
# Si number density = 24.546317 Si / 1000 Ang^3
#
#
#
# Elastic Constant Matrix: (Units=GPa)
#
#
# Indices 1 2 3 4 5 6 
#
# 1 159.5918 26.6098 13.3064 -0.0353 -6.6155 0.0308
# 2 26.6098 56.5497 7.6541 -0.0604 -2.5338 0.0384
# 3 13.3064 7.6541 44.5945 -0.0425 -16.9764 -0.0326
# 4 -0.0353 -0.0604 -0.0425 29.4141 -0.0289 -5.7388
# 5 -6.6155 -2.5338 -16.9764 -0.0289 51.0220 -0.0088
# 6 0.0308 0.0384 -0.0326 -5.7388 -0.0088 28.9136
#
#
#
# Elastic Compliance Matrix: (Units=1/GPa)
#
#
# Indices 1 2 3 4 5 6 
#
# 1 0.006904 -0.003042 -0.001437 -0.000001 0.000266 -0.000005
# 2 -0.003042 0.019446 -0.002533 0.000028 -0.000272 -0.000020
# 3 -0.001437 -0.002533 0.026529 0.000049 0.008515 0.000047
# 4 -0.000001 0.000028 0.000049 0.035367 0.000039 0.007020
# 5 0.000266 -0.000272 0.008515 0.000039 0.022454 0.000024
# 6 -0.000005 -0.000020 0.000047 0.007020 0.000024 0.035979
#
#
# Mechanical properties :
#
#
# Convention : Reuss Voigt Hill
#
# Bulk Modulus (GPa) = 25.73681 39.54187 32.63934
# Shear Modulus (GPa) = 28.79268 36.08100 32.43684
#
# Velocity S-wave (km/s) = 3.42862 3.83811 3.63913
# Velocity P-wave (km/s) = 5.11680 5.98210 5.56629
#
# Compressibility (1/GPa) = 0.03885485
#
# Stress axis : x y z
#
# Youngs Moduli (GPa) = 144.84193 51.42469 37.69411
#
# Poissons Ratio (x) = 0.15645 0.05415
# Poissons Ratio (y) = 0.44066 0.09549
# Poissons Ratio (z) = 0.20808 0.13027
#
# Static dielectric constant tensor:
#      x y z
#    x 2.005210 -0.000020 0.054120 
#    y -0.000020 1.951900 -0.000130 
#    z 0.054120 -0.000130 1.988490 
# 
# From -- ./inp_files/300932.got.cif
#   From: 2010.05.17/outbox.cif.g08.bks.cpg/sg15_151_cif.got.tgz:300932.got - 2010.06.03 18:47:42.
