data_PCOD9301346
_publ_section_title
;
Structure prediction by ZEFSAII (Michael W. Deem and Ramdas Pophale) SiO2 
 PCOD9301346
Probable space group: C 2/C
;
_chemical_formula_sum "Si O2"
_cell_formula_units_Z 48
_cell_length_a 14.060634
_cell_length_b 11.132912
_cell_length_c 12.772420
_cell_angle_alpha 90.000000
_cell_angle_beta 95.081634
_cell_angle_gamma 90.000000
_cell_volume 1991.482604
_symmetry_space_group_name_H-M "C 2/C"
_symmetry_group_IT_number 15
_symmetry_cell_setting 'monoclinic'
loop_
_space_group_symop_operation_xyz
x,y,z
-x,y,1/2-z
-x,-y,-z
x,-y,1/2+z
1/2+x,1/2+y,z
1/2-x,1/2+y,1/2-z
1/2-x,1/2-y,-z
1/2+x,1/2-y,1/2+z
loop_
_atom_site_type_symbol
_atom_site_label
_atom_site_fract_x
_atom_site_fract_y
_atom_site_fract_z
Si Si1 0.554959 0.411978 0.925367
Si Si2 0.500000 0.577130 0.750000
Si Si3 0.191359 0.357049 0.190003
Si Si4 0.906180 0.242668 0.904214
Si Si5 0.000000 0.270726 0.250000
Si Si6 0.921736 0.400382 0.529752
Si Si7 0.698095 0.894030 0.768531
O O1 0.570622 0.502344 0.831779
O O2 0.499227 0.312005 0.852515
O O3 0.500000 0.500000 0.000000
O O4 0.631233 0.337044 0.001821
O O5 0.430191 0.656455 0.811529
O O6 0.095046 0.346666 0.250372
O O7 0.238870 0.224825 0.200332
O O8 0.240270 0.474964 0.245383
O O9 0.157402 0.383253 0.067955
O O10 0.851688 0.352396 0.845887
O O11 0.010424 0.285390 0.950928
O O12 0.871527 0.413110 0.638129
O O13 0.000000 0.500000 0.500000
#
# Coordination Sequence:
#
# PCOD9301346 Si02
#       7
#     8   4   8   8   4   8   8
#     4   9  20  35  63 106 146 189 246 307 374 450
#     4   9  18  35  62 102 152 186 242 306 374 458
#     4  12  28  49  76 110 157 199 257 323 390 457
#     4  11  20  41  72 107 141 194 266 307 375 462
#     4  11  22  45  74 104 140 212 262 304 370 486
#     4  12  23  47  83 106 141 206 270 308 367 472
#     4  12  28  48  73 115 154 196 249 335 388 443
#
# _framework density 24.102644000000002
#
# number of rings (size 3 to 8) (size 9 to 14) (size 15 to 20)
#    0.000    1.000    5.000    1.500    0.000    4.000 
#    0.000    3.333    0.000    0.000    0.000    0.000 
#    0.000    0.000    0.000    0.000    0.000    0.000 
#
# Total GULP energy -133737.465912 kJ/mol
# GULP energy per Si atom -5572.394413 kJ/mol
# Density = 2.404779 g / cm^3
# Si number density = 24.102644 Si / 1000 Ang^3
#
#
#
# Elastic Constant Matrix: (Units=GPa)
#
#
# Indices 1 2 3 4 5 6 
#
# 1 71.1062 48.5338 33.6897 0.0000 -18.5605 0.0000
# 2 48.5338 160.3126 77.5929 0.0000 -7.2231 0.0000
# 3 33.6897 77.5929 148.2380 0.0000 -0.4499 0.0000
# 4 0.0000 0.0000 0.0000 52.6738 0.0000 3.7639
# 5 -18.5605 -7.2231 -0.4499 0.0000 23.0075 0.0000
# 6 0.0000 0.0000 0.0000 3.7639 0.0000 -32.4811
#
#
#
# Elastic Compliance Matrix: (Units=1/GPa)
#
#
# Indices 1 2 3 4 5 6 
#
# 1 0.023149 -0.004980 -0.002603 0.000000 0.017060 0.000000
# 2 -0.004980 0.009576 -0.003884 0.000000 -0.001087 0.000000
# 3 -0.002603 -0.003884 0.009361 0.000000 -0.003136 0.000000
# 4 0.000000 0.000000 0.000000 0.018829 0.000000 0.002182
# 5 0.017060 -0.001087 -0.003136 0.000000 0.056824 0.000000
# 6 0.000000 0.000000 0.000000 0.002182 0.000000 -0.030534
#
#
# Mechanical properties :
#
#
# Convention : Reuss Voigt Hill
#
# Bulk Modulus (GPa) = 52.21121 77.69885 64.95503
# Shear Modulus (GPa) = 42.91021 23.29607 33.10314
#
# Velocity S-wave (km/s) = 4.22395 3.11229 3.70999
# Velocity P-wave (km/s) = 6.74523 6.72471 6.73498
#
# Compressibility (1/GPa) = 0.01915297
#
# Stress axis : x y z
#
# Youngs Moduli (GPa) = 43.19905 104.42289 106.82632
#
# Poissons Ratio (x) = 0.52000 0.27802
# Poissons Ratio (y) = 0.21512 0.41493
# Poissons Ratio (z) = 0.11243 0.40560
#
# Static dielectric constant tensor:
#      x y z
#    x 2.096190 0.000000 -0.000210 
#    y 0.000000 2.008400 0.000000 
#    z -0.000210 0.000000 2.014600 
# 
# From -- ./inp_files/103856.got.cif
#   From: 2010.05.17/outbox.cif.g08.bks.cpg/sg15_52_cif.got.tgz:103856.got - 2010.06.03 18:47:42.
