data_PCOD9301773
_publ_section_title
;
Structure prediction by ZEFSAII (Michael W. Deem and Ramdas Pophale) SiO2 
 PCOD9301773
Probable space group: C 2/C
;
_chemical_formula_sum "Si O2"
_cell_formula_units_Z 56
_cell_length_a 7.798367
_cell_length_b 21.888419
_cell_length_c 15.584360
_cell_angle_alpha 90.000000
_cell_angle_beta 55.241461
_cell_angle_gamma 90.000000
_cell_volume 2185.482676
_symmetry_space_group_name_H-M "C 2/C"
_symmetry_group_IT_number 15
_symmetry_cell_setting 'monoclinic'
loop_
_space_group_symop_operation_xyz
x,y,z
-x,y,1/2-z
-x,-y,-z
x,-y,1/2+z
1/2+x,1/2+y,z
1/2-x,1/2+y,1/2-z
1/2-x,1/2-y,-z
1/2+x,1/2-y,1/2+z
loop_
_atom_site_type_symbol
_atom_site_label
_atom_site_fract_x
_atom_site_fract_y
_atom_site_fract_z
Si Si1 0.289443 0.748190 0.260405
Si Si2 0.269040 0.565273 0.510197
Si Si3 0.588402 0.304272 0.544643
Si Si4 0.510423 0.855161 0.855727
Si Si5 0.905373 0.173722 0.915274
Si Si6 0.503237 0.457699 0.368468
Si Si7 0.087159 0.495949 0.822442
O O1 0.500000 0.772768 0.250000
O O2 0.384408 0.726048 0.143639
O O3 0.071658 0.784470 0.313641
O O4 0.212335 0.684514 0.322953
O O5 0.333338 0.628944 0.449658
O O6 0.335033 0.509308 0.432353
O O7 0.389334 0.554784 0.567407
O O8 0.029478 0.551958 0.598421
O O9 0.750000 0.250000 0.500000
O O10 0.543520 0.319358 0.460305
O O11 0.500000 0.852291 0.750000
O O12 0.534704 0.927278 0.868984
O O13 0.324745 0.826040 0.969866
O O14 0.913093 0.107651 0.870436
O O15 0.675582 0.486019 0.257915
O O16 0.000000 0.494796 0.750000
#
# Coordination Sequence:
#
# PCOD9301773 Si02
#       7
#     8   8   8   8   8   8   8
#     4  12  25  39  59  86 122 169 201 244 306 371
#     4   9  17  30  51  80 117 148 188 244 301 359
#     4  11  22  37  57  87 125 163 201 246 309 372
#     4  11  21  39  62  90 121 157 201 254 307 365
#     4  11  22  38  61  89 124 154 208 260 302 359
#     4   9  17  29  51  86 115 146 186 249 309 351
#     4   9  17  29  54  87 118 149 187 245 318 359
#
# _framework density 25.623631
#
# number of rings (size 3 to 8) (size 9 to 14) (size 15 to 20)
#    0.000    1.714    4.286    1.286    6.000    0.571 
#    0.000    0.000    0.000    0.857    0.000    1.000 
#    0.000    0.000    0.000    0.000    0.000    0.000 
#
# Total GULP energy -155985.913721 kJ/mol
# GULP energy per Si atom -5570.925490 kJ/mol
# Density = 2.556531 g / cm^3
# Si number density = 25.623631 Si / 1000 Ang^3
#
#
#
# Elastic Constant Matrix: (Units=GPa)
#
#
# Indices 1 2 3 4 5 6 
#
# 1 64.0634 15.3329 34.1508 0.0000 6.0856 0.0000
# 2 15.3329 123.4243 73.0990 0.0000 -1.4595 0.0000
# 3 34.1508 73.0990 172.5567 0.0000 -18.2898 0.0000
# 4 0.0000 0.0000 0.0000 28.1485 0.0000 11.1578
# 5 6.0856 -1.4595 -18.2898 0.0000 37.6216 0.0000
# 6 0.0000 0.0000 0.0000 11.1578 0.0000 9.0971
#
#
#
# Elastic Compliance Matrix: (Units=1/GPa)
#
#
# Indices 1 2 3 4 5 6 
#
# 1 0.018296 0.000169 -0.004223 0.000000 -0.005006 0.000000
# 2 0.000169 0.010949 -0.004881 0.000000 -0.001976 0.000000
# 3 -0.004223 -0.004881 0.009226 0.000000 0.004979 0.000000
# 4 0.000000 0.000000 0.000000 0.069141 0.000000 -0.084802
# 5 -0.005006 -0.001976 0.004979 0.000000 0.029734 0.000000
# 6 0.000000 0.000000 0.000000 -0.084802 0.000000 0.213936
#
#
# Mechanical properties :
#
#
# Convention : Reuss Voigt Hill
#
# Bulk Modulus (GPa) = 48.54152 67.24552 57.89352
# Shear Modulus (GPa) = 13.29720 30.80424 22.05072
#
# Velocity S-wave (km/s) = 2.28050 3.47101 2.93672
# Velocity P-wave (km/s) = 5.09111 6.50879 5.84311
#
# Compressibility (1/GPa) = 0.02060092
#
# Stress axis : x y z
#
# Youngs Moduli (GPa) = 54.65705 91.33651 108.38401
#
# Poissons Ratio (x) = -0.01545 0.45773
# Poissons Ratio (y) = -0.00925 0.52901
# Poissons Ratio (z) = 0.23083 0.44581
#
# Static dielectric constant tensor:
#      x y z
#    x 2.138320 0.000000 0.113570 
#    y 0.000000 2.042940 0.000000 
#    z 0.113570 0.000000 2.078040 
# 
# From -- ./inp_files/270904.got.cif
#   From: 2010.05.17/outbox.cif.g08.bks.cpg/sg15_136_cif.got.tgz:270904.got - 2010.06.03 18:47:42.
