data_PCOD9301604
_publ_section_title
;
Structure prediction by ZEFSAII (Michael W. Deem and Ramdas Pophale) SiO2 
 PCOD9301604
Probable space group: C 2/C
;
_chemical_formula_sum "Si O2"
_cell_formula_units_Z 64
_cell_length_a 26.824911
_cell_length_b 14.305462
_cell_length_c 9.225202
_cell_angle_alpha 90.000000
_cell_angle_beta 77.832982
_cell_angle_gamma 90.000000
_cell_volume 3460.584321
_symmetry_space_group_name_H-M "C 2/C"
_symmetry_group_IT_number 15
_symmetry_cell_setting 'monoclinic'
loop_
_space_group_symop_operation_xyz
x,y,z
-x,y,1/2-z
-x,-y,-z
x,-y,1/2+z
1/2+x,1/2+y,z
1/2-x,1/2+y,1/2-z
1/2-x,1/2-y,-z
1/2+x,1/2-y,1/2+z
loop_
_atom_site_type_symbol
_atom_site_label
_atom_site_fract_x
_atom_site_fract_y
_atom_site_fract_z
Si Si1 0.699268 0.200765 0.086711
Si Si2 0.554014 0.387558 0.787302
Si Si3 0.554584 0.600421 0.780627
Si Si4 0.119690 0.155756 0.978293
Si Si5 0.734517 0.000216 0.505545
Si Si6 0.692406 0.501194 0.794167
Si Si7 0.296158 0.201293 0.064667
Si Si8 0.124305 0.156728 0.482122
O O1 0.704015 0.207082 0.259040
O O2 0.750000 0.250000 0.000000
O O3 0.702769 0.094923 0.025964
O O4 0.652854 0.257955 0.043143
O O5 0.500000 0.360864 0.750000
O O6 0.549787 0.494775 0.845714
O O7 0.594818 0.389279 0.633477
O O8 0.578414 0.324070 0.897174
O O9 0.500000 0.625707 0.750000
O O10 0.574027 0.669885 0.892526
O O11 0.596234 0.600975 0.627699
O O12 0.157103 0.085700 0.868571
O O13 0.152389 0.244219 0.006111
O O14 0.788227 0.995213 0.382405
O O15 0.754050 0.012115 0.656634
O O16 0.705958 0.092602 0.473024
O O17 0.664671 0.406676 0.866031
O O18 0.250000 0.250000 0.000000
#
# Coordination Sequence:
#
# PCOD9301604 Si02
#       8
#     8   8   8   8   8   8   8   8
#     4  12  25  40  59  89 121 162 207 244 296 359
#     4  11  23  37  57  91 124 157 199 245 301 364
#     4  11  21  37  60  87 123 160 199 251 301 363
#     4  12  22  36  58  87 120 161 202 237 298 359
#     4  12  24  39  56  84 127 160 209 244 285 346
#     4  12  21  34  58  85 121 166 200 242 290 350
#     4  12  26  39  61  89 120 161 206 246 294 355
#     4  12  22  38  60  86 123 166 199 243 302 357
#
# _framework density 18.493986
#
# number of rings (size 3 to 8) (size 9 to 14) (size 15 to 20)
#    0.000    0.250    7.500    3.000    1.750    2.000 
#    0.000    0.000    0.000    0.000    0.000    5.250 
#    0.000    0.000    0.000    0.000    0.000    0.000 
#
# Total GULP energy -178687.552569 kJ/mol
# GULP energy per Si atom -5583.986018 kJ/mol
# Density = 1.845189 g / cm^3
# Si number density = 18.493986 Si / 1000 Ang^3
#
#
#
# Elastic Constant Matrix: (Units=GPa)
#
#
# Indices 1 2 3 4 5 6 
#
# 1 137.0643 63.8536 30.4392 0.0000 29.6781 0.0000
# 2 63.8536 111.6435 27.2755 0.0000 7.2741 0.0000
# 3 30.4392 27.2755 69.4647 0.0000 11.3531 0.0000
# 4 0.0000 0.0000 0.0000 20.4396 0.0000 4.7070
# 5 29.6781 7.2741 11.3531 0.0000 35.3872 0.0000
# 6 0.0000 0.0000 0.0000 4.7070 0.0000 27.0435
#
#
#
# Elastic Compliance Matrix: (Units=1/GPa)
#
#
# Indices 1 2 3 4 5 6 
#
# 1 0.012365 -0.006119 -0.001611 0.000000 -0.008596 0.000000
# 2 -0.006119 0.012958 -0.002966 0.000000 0.003419 0.000000
# 3 -0.001611 -0.002966 0.016828 0.000000 -0.003438 0.000000
# 4 0.000000 0.000000 0.000000 0.050967 0.000000 -0.008871
# 5 -0.008596 0.003419 -0.003438 0.000000 0.035868 0.000000
# 6 0.000000 0.000000 0.000000 -0.008871 0.000000 0.038522
#
#
# Mechanical properties :
#
#
# Convention : Reuss Voigt Hill
#
# Bulk Modulus (GPa) = 48.16752 62.36768 55.26760
# Shear Modulus (GPa) = 25.53365 29.68102 27.60734
#
# Velocity S-wave (km/s) = 3.71974 4.01047 3.86783
# Velocity P-wave (km/s) = 6.67458 7.43247 7.06370
#
# Compressibility (1/GPa) = 0.02076088
#
# Stress axis : x y z
#
# Youngs Moduli (GPa) = 80.87159 77.17034 59.42402
#
# Poissons Ratio (x) = 0.47217 0.09574
# Poissons Ratio (y) = 0.49482 0.17624
# Poissons Ratio (z) = 0.13029 0.22887
#
# Static dielectric constant tensor:
#      x y z
#    x 1.679570 0.000000 0.027970 
#    y 0.000000 1.643950 0.000000 
#    z 0.027970 0.000000 1.699190 
# 
# From -- ./inp_files/66195.got.cif
#   From: 2010.05.17/outbox.cif.g08.bks.cpg/sg15_34_cif.got.tgz:66195.got - 2010.06.03 18:47:42.
