data_PCOD9301627
_publ_section_title
;
Structure prediction by ZEFSAII (Michael W. Deem and Ramdas Pophale) SiO2 
 PCOD9301627
Probable space group: C 2/C
;
_chemical_formula_sum "Si O2"
_cell_formula_units_Z 56
_cell_length_a 11.354954
_cell_length_b 18.686205
_cell_length_c 14.775189
_cell_angle_alpha 90.000000
_cell_angle_beta 126.293067
_cell_angle_gamma 90.000000
_cell_volume 2526.821291
_symmetry_space_group_name_H-M "C 2/C"
_symmetry_group_IT_number 15
_symmetry_cell_setting 'monoclinic'
loop_
_space_group_symop_operation_xyz
x,y,z
-x,y,1/2-z
-x,-y,-z
x,-y,1/2+z
1/2+x,1/2+y,z
1/2-x,1/2+y,1/2-z
1/2-x,1/2-y,-z
1/2+x,1/2-y,1/2+z
loop_
_atom_site_type_symbol
_atom_site_label
_atom_site_fract_x
_atom_site_fract_y
_atom_site_fract_z
Si Si1 0.769565 0.896788 0.663416
Si Si2 0.616855 0.320267 0.225662
Si Si3 0.006831 0.285154 0.542916
Si Si4 0.818712 0.990536 0.515532
Si Si5 0.850120 0.198157 0.347863
Si Si6 0.856503 0.379627 0.616912
Si Si7 0.845761 0.968509 0.315732
O O1 0.625850 0.847558 0.596668
O O2 0.799087 0.926365 0.577402
O O3 0.877232 0.843743 0.767699
O O4 0.767646 0.967261 0.726586
O O5 0.500000 0.331007 0.250000
O O6 0.542712 0.292882 0.100656
O O7 0.709713 0.250062 0.287212
O O8 0.700757 0.393376 0.248364
O O9 0.968545 0.257545 0.426306
O O10 0.885928 0.318271 0.555623
O O11 0.820443 0.967504 0.411476
O O12 0.687984 0.048723 0.457560
O O13 0.977864 0.023081 0.613697
O O14 0.789102 0.138969 0.391013
O O15 0.000000 0.385081 0.750000
#
# Coordination Sequence:
#
# PCOD9301627 Si02
#       7
#     8   8   8   8   8   8   8
#     4  11  24  47  67 100 140 178 223 286 343 411
#     4  11  21  37  64 100 129 168 230 283 336 396
#     4  11  23  39  68 100 136 180 223 282 355 401
#     4  11  25  42  71  95 132 186 225 277 354 401
#     4  11  22  40  66 100 137 175 226 287 339 410
#     4  12  20  43  68 103 144 174 219 298 341 405
#     4  11  24  43  68  99 130 175 238 286 331 418
#
# _framework density 22.162233000000001
#
# number of rings (size 3 to 8) (size 9 to 14) (size 15 to 20)
#    0.000    0.857    5.714    2.571    6.000    0.571 
#    2.571    2.857    0.000    0.000    0.000    0.000 
#    0.000    0.000    0.000    0.000    0.000    0.000 
#
# Total GULP energy -156083.467086 kJ/mol
# GULP energy per Si atom -5574.409539 kJ/mol
# Density = 2.211179 g / cm^3
# Si number density = 22.162233 Si / 1000 Ang^3
#
#
#
# Elastic Constant Matrix: (Units=GPa)
#
#
# Indices 1 2 3 4 5 6 
#
# 1 52.0309 40.3583 32.2083 0.0000 -12.5165 0.0000
# 2 40.3583 136.9951 50.5112 0.0000 -10.8582 0.0000
# 3 32.2083 50.5112 78.3064 0.0000 -11.7807 0.0000
# 4 0.0000 0.0000 0.0000 55.9879 0.0000 3.7999
# 5 -12.5165 -10.8582 -11.7807 0.0000 22.2499 0.0000
# 6 0.0000 0.0000 0.0000 3.7999 0.0000 41.7124
#
#
#
# Elastic Compliance Matrix: (Units=1/GPa)
#
#
# Indices 1 2 3 4 5 6 
#
# 1 0.030614 -0.005411 -0.007506 0.000000 0.010607 0.000000
# 2 -0.005411 0.010581 -0.004652 0.000000 -0.000343 0.000000
# 3 -0.007506 -0.004652 0.019429 0.000000 0.003795 0.000000
# 4 0.000000 0.000000 0.000000 0.017972 0.000000 -0.001637
# 5 0.010607 -0.000343 0.003795 0.000000 0.052753 0.000000
# 6 0.000000 0.000000 0.000000 -0.001637 0.000000 0.024123
#
#
# Mechanical properties :
#
#
# Convention : Reuss Voigt Hill
#
# Bulk Modulus (GPa) = 39.23407 57.05422 48.14414
# Shear Modulus (GPa) = 25.11235 33.60701 29.35968
#
# Velocity S-wave (km/s) = 3.36983 3.89833 3.64368
# Velocity P-wave (km/s) = 5.73433 6.78693 6.28271
#
# Compressibility (1/GPa) = 0.02548805
#
# Stress axis : x y z
#
# Youngs Moduli (GPa) = 32.66456 94.50564 51.46921
#
# Poissons Ratio (x) = 0.51133 0.38634
# Poissons Ratio (y) = 0.17673 0.23941
# Poissons Ratio (z) = 0.24519 0.43960
#
# Static dielectric constant tensor:
#      x y z
#    x 1.822500 0.000000 0.034340 
#    y 0.000000 1.774920 0.000000 
#    z 0.034340 0.000000 2.017760 
# 
# From -- ./inp_files/146171.got.cif
#   From: 2010.05.17/outbox.cif.g08.bks.cpg/sg15_74_cif.got.tgz:146171.got - 2010.06.03 18:47:42.
