data_PCOD9301654
_publ_section_title
;
Structure prediction by ZEFSAII (Michael W. Deem and Ramdas Pophale) SiO2 
 PCOD9301654
Probable space group: C 2/C
;
_chemical_formula_sum "Si O2"
_cell_formula_units_Z 64
_cell_length_a 9.250604
_cell_length_b 25.772947
_cell_length_c 14.439400
_cell_angle_alpha 90.000000
_cell_angle_beta 101.654195
_cell_angle_gamma 90.000000
_cell_volume 3371.604275
_symmetry_space_group_name_H-M "C 2/C"
_symmetry_group_IT_number 15
_symmetry_cell_setting 'monoclinic'
loop_
_space_group_symop_operation_xyz
x,y,z
-x,y,1/2-z
-x,-y,-z
x,-y,1/2+z
1/2+x,1/2+y,z
1/2-x,1/2+y,1/2-z
1/2-x,1/2-y,-z
1/2+x,1/2-y,1/2+z
loop_
_atom_site_type_symbol
_atom_site_label
_atom_site_fract_x
_atom_site_fract_y
_atom_site_fract_z
Si Si1 0.852145 0.356089 0.586486
Si Si2 0.045856 0.557157 0.039851
Si Si3 0.049878 0.010116 0.159511
Si Si4 0.270292 0.094785 0.267526
Si Si5 0.366285 0.697058 0.164364
Si Si6 0.048938 0.258888 0.650113
Si Si7 0.656937 0.563147 0.516933
Si Si8 0.983960 0.169875 0.504003
O O1 0.846656 0.375780 0.692006
O O2 0.687526 0.338425 0.541360
O O3 0.909119 0.403418 0.530385
O O4 0.965526 0.308426 0.594448
O O5 0.121188 0.562344 0.151806
O O6 0.175308 0.575472 0.987626
O O7 0.000000 0.500000 0.000000
O O8 0.149637 0.058054 0.205076
O O9 0.000000 0.984774 0.250000
O O10 0.142313 0.973329 0.104277
O O11 0.915564 0.031921 0.079451
O O12 0.189104 0.138747 0.317872
O O13 0.500000 0.710126 0.250000
O O14 0.223446 0.732269 0.161096
O O15 0.431906 0.697303 0.070397
O O16 0.000000 0.257983 0.750000
O O17 0.001448 0.206378 0.594171
O O18 0.560502 0.613992 0.522574
#
# Coordination Sequence:
#
# PCOD9301654 Si02
#       8
#     8   8   8   8   8   8   8   8
#     4  12  23  41  67  96 132 172 224 283 332 394
#     4  12  25  39  61  99 138 167 208 277 341 393
#     4  11  21  37  67  93 122 169 220 270 334 388
#     4  12  20  39  68  93 126 163 215 280 325 384
#     4  12  21  40  69  97 127 159 223 285 330 390
#     4  12  24  43  63  97 135 174 222 278 337 400
#     4  11  23  41  61  95 132 165 222 276 327 406
#     4  12  24  40  67  96 131 178 222 273 340 403
#
# _framework density 18.982061999999999
#
# number of rings (size 3 to 8) (size 9 to 14) (size 15 to 20)
#    0.000    0.250    7.500    2.250    1.750    0.500 
#    0.000    0.000    0.000    0.000    0.000    0.000 
#    0.000    0.000    0.000    0.000    0.000    0.000 
#
# Total GULP energy -178915.049907 kJ/mol
# GULP energy per Si atom -5591.095310 kJ/mol
# Density = 1.893886 g / cm^3
# Si number density = 18.982062 Si / 1000 Ang^3
#
#
#
# Elastic Constant Matrix: (Units=GPa)
#
#
# Indices 1 2 3 4 5 6 
#
# 1 137.8237 39.6808 38.2044 0.0000 0.2699 0.0000
# 2 39.6808 66.6279 47.3715 0.0000 0.9440 0.0000
# 3 38.2044 47.3715 87.6986 0.0000 -3.9243 0.0000
# 4 0.0000 0.0000 0.0000 37.6249 0.0000 5.3698
# 5 0.2699 0.9440 -3.9243 0.0000 29.4542 0.0000
# 6 0.0000 0.0000 0.0000 5.3698 0.0000 15.7395
#
#
#
# Elastic Compliance Matrix: (Units=1/GPa)
#
#
# Indices 1 2 3 4 5 6 
#
# 1 0.008902 -0.004118 -0.001661 0.000000 -0.000171 0.000000
# 2 -0.004118 0.026464 -0.012612 0.000000 -0.002491 0.000000
# 3 -0.001661 -0.012612 0.019071 0.000000 0.002960 0.000000
# 4 0.000000 0.000000 0.000000 0.027939 0.000000 -0.009532
# 5 -0.000171 -0.002491 0.002960 0.000000 0.034427 0.000000
# 6 0.000000 0.000000 0.000000 -0.009532 0.000000 0.066786
#
#
# Mechanical properties :
#
#
# Convention : Reuss Voigt Hill
#
# Bulk Modulus (GPa) = 56.64384 60.29595 58.46990
# Shear Modulus (GPa) = 22.09878 27.68996 24.89437
#
# Velocity S-wave (km/s) = 3.41573 3.82349 3.62535
# Velocity P-wave (km/s) = 6.74253 7.16420 6.95656
#
# Compressibility (1/GPa) = 0.01765417
#
# Stress axis : x y z
#
# Youngs Moduli (GPa) = 112.33249 37.78751 52.43440
#
# Poissons Ratio (x) = 0.15562 0.08710
# Poissons Ratio (y) = 0.46261 0.66131
# Poissons Ratio (z) = 0.18661 0.47658
#
# Static dielectric constant tensor:
#      x y z
#    x 1.691200 0.000000 -0.014850 
#    y 0.000000 1.644770 0.000000 
#    z -0.014850 0.000000 1.655680 
# 
# From -- ./inp_files/137842.got.cif
#   From: 2010.05.17/outbox.cif.g08.bks.cpg/sg15_69_cif.got.tgz:137842.got - 2010.06.03 18:47:42.
