data_PCOD9301103
_publ_section_title
;
Structure prediction by ZEFSAII (Michael W. Deem and Ramdas Pophale) SiO2 
 PCOD9301103
Probable space group: C 2/C
;
_chemical_formula_sum "Si O2"
_cell_formula_units_Z 60
_cell_length_a 23.827464
_cell_length_b 20.918524
_cell_length_c 11.834245
_cell_angle_alpha 90.000000
_cell_angle_beta 153.575767
_cell_angle_gamma 90.000000
_cell_volume 2624.962280
_symmetry_space_group_name_H-M "C 2/C"
_symmetry_group_IT_number 15
_symmetry_cell_setting 'monoclinic'
loop_
_space_group_symop_operation_xyz
x,y,z
-x,y,1/2-z
-x,-y,-z
x,-y,1/2+z
1/2+x,1/2+y,z
1/2-x,1/2+y,1/2-z
1/2-x,1/2-y,-z
1/2+x,1/2-y,1/2+z
loop_
_atom_site_type_symbol
_atom_site_label
_atom_site_fract_x
_atom_site_fract_y
_atom_site_fract_z
Si Si1 0.280654 0.879649 0.582723
Si Si2 0.968941 0.594923 0.826081
Si Si3 0.500000 0.302233 0.750000
Si Si4 0.393174 0.773003 0.259437
Si Si5 0.463281 0.308834 0.313311
Si Si6 0.974892 0.071003 0.417619
Si Si7 0.778665 0.525317 0.625317
Si Si8 0.287772 0.606484 0.794238
O O1 0.187419 0.821823 0.448673
O O2 0.285435 0.877688 0.454412
O O3 0.233706 0.951633 0.534638
O O4 0.409293 0.881949 0.883837
O O5 0.881626 0.655277 0.693219
O O6 0.898020 0.536160 0.758899
O O7 0.000000 0.584822 0.750000
O O8 0.516895 0.261839 0.668520
O O9 0.358718 0.334770 0.484857
O O10 0.467319 0.753305 0.508314
O O11 0.250000 0.750000 0.000000
O O12 0.500000 0.313616 0.250000
O O13 0.510535 0.370952 0.469378
O O14 0.079903 0.077443 0.510798
O O15 0.833866 0.069203 0.121519
O O16 0.000000 0.000000 0.500000
O O17 0.791558 0.556032 0.773748
#
# Coordination Sequence:
#
# PCOD9301103 Si02
#       8
#     8   8   4   8   8   8   8   8
#     4  11  27  45  68 105 144 187 235 299 353 426
#     4  12  30  49  71  99 141 196 240 293 360 435
#     4  12  20  44  70 102 138 176 230 286 352 424
#     4  12  26  50  73 101 133 187 238 285 360 429
#     4  11  25  42  73 111 143 179 236 304 360 415
#     4  11  20  37  66 110 141 181 229 290 360 415
#     4  12  24  44  71 103 144 194 236 285 367 432
#     4  11  22  41  70 104 143 178 230 294 351 422
#
# _framework density 22.857471
#
# number of rings (size 3 to 8) (size 9 to 14) (size 15 to 20)
#    0.000    0.533    7.333    2.000    7.467    1.067 
#    4.800    0.000    0.000    0.000    0.000    0.000 
#    0.000    0.000    0.000    0.000    0.000    0.000 
#
# Total GULP energy -167145.900724 kJ/mol
# GULP energy per Si atom -5571.530024 kJ/mol
# Density = 2.280545 g / cm^3
# Si number density = 22.857471 Si / 1000 Ang^3
#
#
#
# Elastic Constant Matrix: (Units=GPa)
#
#
# Indices 1 2 3 4 5 6 
#
# 1 116.5456 24.9486 23.6295 0.0000 2.5245 0.0000
# 2 24.9486 44.2435 -20.0466 0.0000 7.5544 0.0000
# 3 23.6295 -20.0466 83.8510 0.0000 7.8871 0.0000
# 4 0.0000 0.0000 0.0000 56.5786 0.0000 -21.6976
# 5 2.5245 7.5544 7.8871 0.0000 23.4162 0.0000
# 6 0.0000 0.0000 0.0000 -21.6976 0.0000 39.0915
#
#
#
# Elastic Compliance Matrix: (Units=1/GPa)
#
#
# Indices 1 2 3 4 5 6 
#
# 1 0.011941 -0.010244 -0.006201 0.000000 0.004106 0.000000
# 2 -0.010244 0.036941 0.013152 0.000000 -0.015243 0.000000
# 3 -0.006201 0.013152 0.017715 0.000000 -0.009541 0.000000
# 4 0.000000 0.000000 0.000000 0.022454 0.000000 0.012463
# 5 0.004106 -0.015243 -0.009541 0.000000 0.050394 0.000000
# 6 0.000000 0.000000 0.000000 0.012463 0.000000 0.032499
#
#
# Mechanical properties :
#
#
# Convention : Reuss Voigt Hill
#
# Bulk Modulus (GPa) = 16.66319 33.52256 25.09287
# Shear Modulus (GPa) = 25.18467 38.22453 31.70460
#
# Velocity S-wave (km/s) = 3.32296 4.09381 3.72836
# Velocity P-wave (km/s) = 4.69346 6.08633 5.43471
#
# Compressibility (1/GPa) = 0.06001251
#
# Stress axis : x y z
#
# Youngs Moduli (GPa) = 83.74159 27.07027 56.44904
#
# Poissons Ratio (x) = 0.27731 0.35001
# Poissons Ratio (y) = 0.85787 -0.74243
# Poissons Ratio (z) = 0.51924 -0.35604
#
# Static dielectric constant tensor:
#      x y z
#    x 1.837900 0.000000 -0.050340 
#    y 0.000000 1.869030 0.000000 
#    z -0.050340 0.000000 1.982720 
# 
# From -- ./inp_files/114859.got.cif
#   From: 2010.05.17/outbox.cif.g08.bks.cpg/sg15_58_cif.got.tgz:114859.got - 2010.06.03 18:47:42.
