data_PCOD9301970
_publ_section_title
;
Structure prediction by ZEFSAII (Michael W. Deem and Ramdas Pophale) SiO2 
 PCOD9301970
Probable space group: C 2/C
;
_chemical_formula_sum "Si O2"
_cell_formula_units_Z 48
_cell_length_a 12.397704
_cell_length_b 8.722194
_cell_length_c 21.499058
_cell_angle_alpha 90.000000
_cell_angle_beta 70.940934
_cell_angle_gamma 90.000000
_cell_volume 2197.364399
_symmetry_space_group_name_H-M "C 2/C"
_symmetry_group_IT_number 15
_symmetry_cell_setting 'monoclinic'
loop_
_space_group_symop_operation_xyz
x,y,z
-x,y,1/2-z
-x,-y,-z
x,-y,1/2+z
1/2+x,1/2+y,z
1/2-x,1/2+y,1/2-z
1/2-x,1/2-y,-z
1/2+x,1/2-y,1/2+z
loop_
_atom_site_type_symbol
_atom_site_label
_atom_site_fract_x
_atom_site_fract_y
_atom_site_fract_z
Si Si1 0.678822 0.624208 0.679983
Si Si2 0.429567 0.387317 0.169169
Si Si3 0.894217 0.424247 0.599920
Si Si4 0.005984 0.881869 0.941286
Si Si5 0.627130 0.896822 0.044074
Si Si6 0.770999 0.165826 0.061097
O O1 0.656921 0.634288 0.757601
O O2 0.555592 0.585727 0.674030
O O3 0.782397 0.507164 0.648726
O O4 0.706434 0.775235 0.634212
O O5 0.416780 0.239739 0.127731
O O6 0.423542 0.534326 0.126069
O O7 0.870354 0.407114 0.531016
O O8 0.012608 0.515834 0.588092
O O9 0.100983 0.771707 0.951291
O O10 0.897527 0.784715 0.939650
O O11 0.000000 0.000000 0.000000
O O12 0.732670 0.989659 0.054697
O O13 0.750000 0.250000 0.000000
#
# Coordination Sequence:
#
# PCOD9301970 Si02
#       6
#     8   8   8   8   8   8
#     4  11  24  43  70  92 134 179 225 281 342 416
#     4  11  26  44  65  98 137 177 223 279 354 406
#     4  11  21  40  70  96 126 175 222 273 331 411
#     4  12  25  41  64 102 140 170 222 292 342 404
#     4  11  22  38  69 101 126 170 230 276 334 402
#     4  12  22  41  69  99 130 176 228 281 340 406
#
# _framework density 21.844353999999999
#
# number of rings (size 3 to 8) (size 9 to 14) (size 15 to 20)
#    0.000    0.667    6.667    2.000    2.333    2.000 
#    0.000    0.000    7.333    0.000    0.000    0.000 
#    0.000    0.000    0.000    0.000    0.000    0.000 
#
# Total GULP energy -133768.030482 kJ/mol
# GULP energy per Si atom -5573.667937 kJ/mol
# Density = 2.179463 g / cm^3
# Si number density = 21.844354 Si / 1000 Ang^3
#
#
#
# Elastic Constant Matrix: (Units=GPa)
#
#
# Indices 1 2 3 4 5 6 
#
# 1 73.9558 22.0632 6.7876 0.0000 -9.9446 0.0000
# 2 22.0632 110.2404 40.7000 0.0000 -0.7247 0.0000
# 3 6.7876 40.7000 121.4747 0.0000 -8.4144 0.0000
# 4 0.0000 0.0000 0.0000 29.5017 0.0000 -9.1521
# 5 -9.9446 -0.7247 -8.4144 0.0000 30.3062 0.0000
# 6 0.0000 0.0000 0.0000 -9.1521 0.0000 42.9311
#
#
#
# Elastic Compliance Matrix: (Units=1/GPa)
#
#
# Indices 1 2 3 4 5 6 
#
# 1 0.015102 -0.003203 0.000578 0.000000 0.005039 0.000000
# 2 -0.003203 0.011047 -0.003647 0.000000 -0.001799 0.000000
# 3 0.000578 -0.003647 0.009614 0.000000 0.002772 0.000000
# 4 0.000000 0.000000 0.000000 0.036297 0.000000 0.007738
# 5 0.005039 -0.001799 0.002772 0.000000 0.035377 0.000000
# 6 0.000000 0.000000 0.000000 0.007738 0.000000 0.024943
#
#
# Mechanical properties :
#
#
# Convention : Reuss Voigt Hill
#
# Bulk Modulus (GPa) = 43.06741 49.41915 46.24328
# Shear Modulus (GPa) = 32.75240 36.28915 34.52078
#
# Velocity S-wave (km/s) = 3.87635 4.08028 3.97962
# Velocity P-wave (km/s) = 6.30818 6.69856 6.50630
#
# Compressibility (1/GPa) = 0.02321941
#
# Stress axis : x y z
#
# Youngs Moduli (GPa) = 66.21797 90.52522 104.01801
#
# Poissons Ratio (x) = 0.28993 -0.06016
# Poissons Ratio (y) = 0.21208 0.37934
# Poissons Ratio (z) = -0.03830 0.33013
#
# Static dielectric constant tensor:
#      x y z
#    x 1.856380 0.000000 -0.089600 
#    y 0.000000 2.048630 0.000000 
#    z -0.089600 0.000000 1.892980 
# 
# From -- ./inp_files/267996.got.cif
#   From: 2010.05.17/outbox.cif.g08.bks.cpg/sg15_134_cif.got.tgz:267996.got - 2010.06.03 18:47:42.
