data_PCOD9301245
_publ_section_title
;
Structure prediction by ZEFSAII (Michael W. Deem and Ramdas Pophale) SiO2 
 PCOD9301245
Probable space group: C 2/C
;
_chemical_formula_sum "Si O2"
_cell_formula_units_Z 60
_cell_length_a 12.299680
_cell_length_b 18.421735
_cell_length_c 22.485212
_cell_angle_alpha 90.000000
_cell_angle_beta 35.281660
_cell_angle_gamma 90.000000
_cell_volume 2942.698537
_symmetry_space_group_name_H-M "C 2/C"
_symmetry_group_IT_number 15
_symmetry_cell_setting 'monoclinic'
loop_
_space_group_symop_operation_xyz
x,y,z
-x,y,1/2-z
-x,-y,-z
x,-y,1/2+z
1/2+x,1/2+y,z
1/2-x,1/2+y,1/2-z
1/2-x,1/2-y,-z
1/2+x,1/2-y,1/2+z
loop_
_atom_site_type_symbol
_atom_site_label
_atom_site_fract_x
_atom_site_fract_y
_atom_site_fract_z
Si Si1 0.153165 0.690254 0.352499
Si Si2 0.603910 0.493011 0.122198
Si Si3 0.500000 0.616344 0.250000
Si Si4 0.124903 0.400151 0.753783
Si Si5 0.215819 0.341319 0.165603
Si Si6 0.176561 0.548725 0.791239
Si Si7 0.951791 0.937897 0.973942
Si Si8 0.076112 0.582730 0.961809
O O1 0.366428 0.661746 0.267049
O O2 0.093964 0.666685 0.312703
O O3 0.161318 0.774572 0.364806
O O4 0.032957 0.644399 0.453864
O O5 0.625844 0.563122 0.154063
O O6 0.383876 0.473543 0.221182
O O7 0.645547 0.520782 0.037539
O O8 0.723724 0.427314 0.094413
O O9 0.083674 0.473177 0.811048
O O10 0.346427 0.405948 0.637309
O O11 0.000000 0.398332 0.750000
O O12 0.200239 0.402461 0.222948
O O13 0.000000 0.318491 0.250000
O O14 0.317198 0.378287 0.063852
O O15 0.086396 0.592259 0.886191
O O16 0.000000 0.000000 0.000000
O O17 0.000000 0.500000 0.000000
#
# Coordination Sequence:
#
# PCOD9301245 Si02
#       8
#     8   8   4   8   8   8   8   8
#     4  12  26  44  65 101 141 175 225 280 342 406
#     4  11  20  39  70  97 135 166 231 287 324 387
#     4  12  18  44  64  94 134 176 210 290 326 386
#     4  11  23  43  72  99 138 180 227 280 338 404
#     4  12  28  45  68  98 141 179 224 286 345 403
#     4  11  22  42  65 101 132 176 233 274 336 401
#     4  11  24  41  69 103 132 174 231 275 337 404
#     4  12  22  36  69 104 129 176 234 273 334 401
#
# _framework density 20.389448000000002
#
# number of rings (size 3 to 8) (size 9 to 14) (size 15 to 20)
#    0.000    0.533   10.000    0.400    3.733    1.067 
#    0.000    6.000    0.000    0.000    0.000    0.000 
#    0.000    0.000    0.000    0.000    0.000    0.000 
#
# Total GULP energy -167568.905100 kJ/mol
# GULP energy per Si atom -5585.630170 kJ/mol
# Density = 2.034304 g / cm^3
# Si number density = 20.389448 Si / 1000 Ang^3
#
#
#
# Elastic Constant Matrix: (Units=GPa)
#
#
# Indices 1 2 3 4 5 6 
#
# 1 104.4331 10.4753 21.6265 -0.0018 13.6451 0.0002
# 2 10.4753 69.6147 17.6491 0.0010 10.8286 -0.0004
# 3 21.6265 17.6491 96.8973 0.0015 21.4650 -0.0016
# 4 -0.0018 0.0010 0.0015 15.6944 0.0001 -0.6254
# 5 13.6451 10.8286 21.4650 0.0001 36.5855 -0.0007
# 6 0.0002 -0.0004 -0.0016 -0.6254 -0.0007 20.7183
#
#
#
# Elastic Compliance Matrix: (Units=1/GPa)
#
#
# Indices 1 2 3 4 5 6 
#
# 1 0.010329 -0.000734 -0.001570 0.000001 -0.002714 0.000000
# 2 -0.000734 0.015461 -0.001953 -0.000001 -0.003157 0.000000
# 3 -0.001570 -0.001953 0.012377 -0.000001 -0.006098 0.000001
# 4 0.000001 -0.000001 -0.000001 0.063794 0.000000 0.001926
# 5 -0.002714 -0.003157 -0.006098 0.000000 0.032857 0.000001
# 6 0.000000 0.000000 0.000001 0.001926 0.000001 0.048325
#
#
# Mechanical properties :
#
#
# Convention : Reuss Voigt Hill
#
# Bulk Modulus (GPa) = 33.72391 41.16076 37.44233
# Shear Modulus (GPa) = 24.80865 29.34592 27.07729
#
# Velocity S-wave (km/s) = 3.49196 3.79789 3.64813
# Velocity P-wave (km/s) = 5.73011 6.28196 6.01237
#
# Compressibility (1/GPa) = 0.02965255
#
# Stress axis : x y z
#
# Youngs Moduli (GPa) = 96.81551 64.67715 80.79290
#
# Poissons Ratio (x) = 0.04747 0.12688
# Poissons Ratio (y) = 0.07106 0.15780
# Poissons Ratio (z) = 0.15205 0.12632
#
# Static dielectric constant tensor:
#      x y z
#    x 1.783380 0.000000 -0.034500 
#    y 0.000000 1.695030 0.000000 
#    z -0.034500 0.000000 1.792590 
# 
# From -- ./inp_files/239942.got.cif
#   From: 2010.05.17/outbox.cif.g08.bks.cpg/sg15_120_cif.got.tgz:239942.got - 2010.06.03 18:47:42.
