data_PCOD9301248
_publ_section_title
;
Structure prediction by ZEFSAII (Michael W. Deem and Ramdas Pophale) SiO2 
 PCOD9301248
Probable space group: C 2/C
;
_chemical_formula_sum "Si O2"
_cell_formula_units_Z 40
_cell_length_a 14.833257
_cell_length_b 10.472965
_cell_length_c 17.464041
_cell_angle_alpha 90.000000
_cell_angle_beta 147.600051
_cell_angle_gamma 90.000000
_cell_volume 1453.699812
_symmetry_space_group_name_H-M "C 2/C"
_symmetry_group_IT_number 15
_symmetry_cell_setting 'monoclinic'
loop_
_space_group_symop_operation_xyz
x,y,z
-x,y,1/2-z
-x,-y,-z
x,-y,1/2+z
1/2+x,1/2+y,z
1/2-x,1/2+y,1/2-z
1/2-x,1/2-y,-z
1/2+x,1/2-y,1/2+z
loop_
_atom_site_type_symbol
_atom_site_label
_atom_site_fract_x
_atom_site_fract_y
_atom_site_fract_z
Si Si1 0.325947 0.504253 0.028671
Si Si2 0.490332 0.916472 0.116746
Si Si3 0.000000 0.214279 0.750000
Si Si4 0.859361 0.645986 0.365419
Si Si5 0.833166 0.832039 0.912013
Si Si6 0.500000 0.724930 0.250000
O O1 0.419018 0.383034 0.131429
O O2 0.400264 0.631145 0.120611
O O3 0.134743 0.499996 0.920409
O O4 0.354322 0.475520 0.959618
O O5 0.573687 0.823324 0.239044
O O6 0.605556 0.006500 0.147015
O O7 0.364148 0.860792 0.960400
O O8 0.842829 0.287077 0.675339
O O9 0.697332 0.684064 0.200343
O O10 0.014352 0.739164 0.458185
#
# Coordination Sequence:
#
# PCOD9301248 Si02
#       6
#     8   8   4   8   8   4
#     4  11  23  42  71 102 140 191 244 291 357 441
#     4  11  24  47  66 103 144 195 238 290 372 432
#     4  11  20  39  72 104 139 180 241 306 350 429
#     4  11  26  42  76 103 148 186 238 316 362 425
#     4  12  22  45  70 112 140 185 244 305 366 418
#     4  11  26  45  70 100 143 196 241 294 346 459
#
# _framework density 27.515996000000001
#
# number of rings (size 3 to 8) (size 9 to 14) (size 15 to 20)
#    0.000    0.800    4.000    3.600    2.800    0.000 
#    3.600    1.000    0.000    0.000    0.000    0.000 
#    0.000    0.000    0.000    0.000    0.000    0.000 
#
# Total GULP energy -111871.637425 kJ/mol
# GULP energy per Si atom -5593.581871 kJ/mol
# Density = 2.745337 g / cm^3
# Si number density = 27.515996 Si / 1000 Ang^3
#
#
#
# Elastic Constant Matrix: (Units=GPa)
#
#
# Indices 1 2 3 4 5 6 
#
# 1 146.7166 49.3117 33.4814 0.0000 -35.5945 0.0000
# 2 49.3117 110.7009 48.3773 0.0000 -20.6785 0.0001
# 3 33.4814 48.3773 131.9031 0.0000 -43.8516 0.0001
# 4 0.0000 0.0000 0.0000 54.6654 0.0000 -24.8763
# 5 -35.5945 -20.6785 -43.8516 0.0000 51.4589 0.0000
# 6 0.0000 0.0001 0.0001 -24.8763 0.0000 23.7466
#
#
#
# Elastic Compliance Matrix: (Units=1/GPa)
#
#
# Indices 1 2 3 4 5 6 
#
# 1 0.009133 -0.003360 0.000789 0.000000 0.005640 0.000000
# 2 -0.003360 0.012060 -0.003812 0.000000 -0.000726 0.000000
# 3 0.000789 -0.003812 0.011792 0.000000 0.009063 0.000000
# 4 0.000000 0.000000 0.000000 0.034958 0.000000 0.036621
# 5 0.005640 -0.000726 0.009063 0.000000 0.030765 0.000000
# 6 0.000000 0.000000 0.000000 0.036621 0.000000 0.080474
#
#
# Mechanical properties :
#
#
# Convention : Reuss Voigt Hill
#
# Bulk Modulus (GPa) = 49.45545 72.40682 60.93114
# Shear Modulus (GPa) = 25.16507 43.18421 34.17464
#
# Velocity S-wave (km/s) = 3.02745 3.96589 3.52801
# Velocity P-wave (km/s) = 5.49845 6.88060 6.22799
#
# Compressibility (1/GPa) = 0.02022022
#
# Stress axis : x y z
#
# Youngs Moduli (GPa) = 109.48986 82.91824 84.80320
#
# Poissons Ratio (x) = 0.27858 -0.06689
# Poissons Ratio (y) = 0.36785 0.32325
# Poissons Ratio (z) = -0.08637 0.31606
#
# Static dielectric constant tensor:
#      x y z
#    x 2.173190 0.000000 -0.079560 
#    y 0.000000 2.134720 0.000000 
#    z -0.079560 0.000000 2.328150 
# 
# From -- ./inp_files/248716.got.cif
#   From: 2010.05.17/outbox.cif.g08.bks.cpg/sg15_125_cif.got.tgz:248716.got - 2010.06.03 18:47:42.
