data_PCOD9301936
_publ_section_title
;
Structure prediction by ZEFSAII (Michael W. Deem and Ramdas Pophale) SiO2 
 PCOD9301936
Probable space group: C 2/C
;
_chemical_formula_sum "Si O2"
_cell_formula_units_Z 64
_cell_length_a 5.487729
_cell_length_b 23.448429
_cell_length_c 24.755105
_cell_angle_alpha 90.000000
_cell_angle_beta 60.763766
_cell_angle_gamma 90.000000
_cell_volume 2779.668770
_symmetry_space_group_name_H-M "C 2/C"
_symmetry_group_IT_number 15
_symmetry_cell_setting 'monoclinic'
loop_
_space_group_symop_operation_xyz
x,y,z
-x,y,1/2-z
-x,-y,-z
x,-y,1/2+z
1/2+x,1/2+y,z
1/2-x,1/2+y,1/2-z
1/2-x,1/2-y,-z
1/2+x,1/2-y,1/2+z
loop_
_atom_site_type_symbol
_atom_site_label
_atom_site_fract_x
_atom_site_fract_y
_atom_site_fract_z
Si Si1 0.458904 0.800518 0.493426
Si Si2 0.751515 0.972555 0.895152
Si Si3 0.340683 0.579711 0.822970
Si Si4 0.801907 0.046610 0.995798
Si Si5 0.005536 0.806145 0.370834
Si Si6 0.341092 0.652725 0.374774
Si Si7 0.287575 0.126794 0.916630
Si Si8 0.031554 0.691873 0.183524
O O1 0.250000 0.750000 0.500000
O O2 0.767152 0.786455 0.439049
O O3 0.393274 0.820431 0.560474
O O4 0.390134 0.855783 0.464177
O O5 0.913503 0.913402 0.879639
O O6 0.879802 0.014279 0.836740
O O7 0.726859 0.017445 0.947119
O O8 0.437960 0.946719 0.933760
O O9 0.500000 0.588689 0.750000
O O10 0.440956 0.632413 0.850179
O O11 0.002837 0.585416 0.863340
O O12 0.983649 0.101187 0.960625
O O13 0.000000 0.000000 0.000000
O O14 0.034043 0.757972 0.323181
O O15 0.270650 0.818050 0.380098
O O16 0.633536 0.683194 0.358988
O O17 0.192941 0.659699 0.331654
O O18 0.000000 0.677755 0.250000
#
# Coordination Sequence:
#
# PCOD9301936 Si02
#       8
#     8   8   8   8   8   8   8   8
#     4  11  23  41  69 111 147 181 238 305 382 438
#     4  11  25  42  69 105 141 192 235 305 369 442
#     4  11  25  45  65 102 143 189 251 300 363 436
#     4  11  21  40  68 103 142 182 239 294 375 446
#     4  11  24  45  72 103 142 188 241 306 367 437
#     4  12  28  47  77 111 147 193 244 308 372 443
#     4  11  23  40  71 105 145 192 237 311 374 442
#     4  12  29  52  74 103 145 199 252 299 365 444
#
# _framework density 23.024327
#
# number of rings (size 3 to 8) (size 9 to 14) (size 15 to 20)
#    0.000    0.750    3.750    3.000   10.500    2.500 
#    2.250    0.000    0.000    0.000    0.000    0.000 
#    0.000    0.000    0.000    0.000    0.000    0.000 
#
# Total GULP energy -178451.608798 kJ/mol
# GULP energy per Si atom -5576.612775 kJ/mol
# Density = 2.297192 g / cm^3
# Si number density = 23.024327 Si / 1000 Ang^3
#
#
#
# Elastic Constant Matrix: (Units=GPa)
#
#
# Indices 1 2 3 4 5 6 
#
# 1 43.1244 2.9031 -0.5442 0.0000 4.6072 0.0000
# 2 2.9031 101.2619 8.4380 0.0000 -1.9812 0.0000
# 3 -0.5442 8.4380 95.0553 0.0000 0.3931 0.0000
# 4 0.0000 0.0000 0.0000 30.4833 0.0000 0.8896
# 5 4.6072 -1.9812 0.3931 0.0000 20.3789 0.0000
# 6 0.0000 0.0000 0.0000 0.8896 0.0000 30.3421
#
#
#
# Elastic Compliance Matrix: (Units=1/GPa)
#
#
# Indices 1 2 3 4 5 6 
#
# 1 0.023831 -0.000809 0.000231 0.000000 -0.005471 0.000000
# 2 -0.000809 0.009996 -0.000897 0.000000 0.001172 0.000000
# 3 0.000231 -0.000897 0.010603 0.000000 -0.000344 0.000000
# 4 0.000000 0.000000 0.000000 0.032833 0.000000 -0.000963
# 5 -0.005471 0.001172 -0.000344 0.000000 0.050428 0.000000
# 6 0.000000 0.000000 0.000000 -0.000963 0.000000 0.032986
#
#
# Mechanical properties :
#
#
# Convention : Reuss Voigt Hill
#
# Bulk Modulus (GPa) = 24.10884 29.00394 26.55639
# Shear Modulus (GPa) = 28.17647 31.48382 29.83015
#
# Velocity S-wave (km/s) = 3.50204 3.70187 3.60334
# Velocity P-wave (km/s) = 5.18132 5.55844 5.37319
#
# Compressibility (1/GPa) = 0.04147856
#
# Stress axis : x y z
#
# Youngs Moduli (GPa) = 41.96284 100.03743 94.31695
#
# Poissons Ratio (x) = 0.08098 -0.02178
# Poissons Ratio (y) = 0.03397 0.08459
# Poissons Ratio (z) = -0.00969 0.08972
#
# Static dielectric constant tensor:
#      x y z
#    x 1.963060 0.000000 0.007830 
#    y 0.000000 1.931280 0.000000 
#    z 0.007830 0.000000 1.948660 
# 
# From -- ./inp_files/261806.got.cif
#   From: 2010.05.17/outbox.cif.g08.bks.cpg/sg15_131_cif.got.tgz:261806.got - 2010.06.03 18:47:42.
