data_PCOD9301211
_publ_section_title
;
Structure prediction by ZEFSAII (Michael W. Deem and Ramdas Pophale) SiO2 
 PCOD9301211
Probable space group: C 2/C
;
_chemical_formula_sum "Si O2"
_cell_formula_units_Z 56
_cell_length_a 20.017152
_cell_length_b 13.909180
_cell_length_c 9.652831
_cell_angle_alpha 90.000000
_cell_angle_beta 83.041998
_cell_angle_gamma 90.000000
_cell_volume 2667.768840
_symmetry_space_group_name_H-M "C 2/C"
_symmetry_group_IT_number 15
_symmetry_cell_setting 'monoclinic'
loop_
_space_group_symop_operation_xyz
x,y,z
-x,y,1/2-z
-x,-y,-z
x,-y,1/2+z
1/2+x,1/2+y,z
1/2-x,1/2+y,1/2-z
1/2-x,1/2-y,-z
1/2+x,1/2-y,1/2+z
loop_
_atom_site_type_symbol
_atom_site_label
_atom_site_fract_x
_atom_site_fract_y
_atom_site_fract_z
Si Si1 0.203627 0.109524 0.633767
Si Si2 0.344778 0.901889 0.695837
Si Si3 0.015971 0.905446 0.408309
Si Si4 0.186485 0.104448 0.190652
Si Si5 0.894104 0.791167 0.549698
Si Si6 0.158968 0.809446 0.411664
Si Si7 0.856047 0.585312 0.510926
O O1 0.156231 0.182682 0.564064
O O2 0.211807 0.149314 0.786767
O O3 0.275590 0.101240 0.544978
O O4 0.169722 0.004203 0.647022
O O5 0.262865 0.904708 0.725895
O O6 0.359219 0.798648 0.625119
O O7 0.372684 0.914954 0.843775
O O8 0.368826 0.986878 0.589109
O O9 0.092574 0.873826 0.408585
O O10 0.000000 0.918262 0.250000
O O11 0.967150 0.824578 0.484254
O O12 0.000000 0.000000 0.500000
O O13 0.135483 0.146481 0.316193
O O14 0.185364 0.173970 0.058769
O O15 0.889800 0.677722 0.573487
#
# Coordination Sequence:
#
# PCOD9301211 Si02
#       7
#     8   8   8   8   8   8   8
#     4  11  20  39  62  92 126 163 201 256 313 375
#     4  11  24  42  62  94 125 164 211 259 311 369
#     4  12  26  43  66  92 125 167 207 254 308 373
#     4  11  24  36  65  97 127 162 204 259 315 377
#     4  12  23  42  64  89 128 169 206 252 314 366
#     4  12  25  41  63  91 132 165 209 257 308 371
#     4  11  24  40  65  92 125 164 211 259 310 372
#
# _framework density 20.991323999999999
#
# number of rings (size 3 to 8) (size 9 to 14) (size 15 to 20)
#    0.000    0.571    4.286    4.286   10.000    0.000 
#    0.000    0.714    0.000    0.000    0.000    0.000 
#    0.000    0.000    0.000    0.000    0.000    0.000 
#
# Total GULP energy -156712.574051 kJ/mol
# GULP energy per Si atom -5596.877645 kJ/mol
# Density = 2.094355 g / cm^3
# Si number density = 20.991324 Si / 1000 Ang^3
#
#
#
# Elastic Constant Matrix: (Units=GPa)
#
#
# Indices 1 2 3 4 5 6 
#
# 1 11.9275 3.2372 -4.1943 0.0000 0.5478 0.0000
# 2 3.2372 161.0228 44.7483 0.0000 -9.6768 0.0000
# 3 -4.1943 44.7483 118.4690 0.0000 -1.2315 0.0000
# 4 0.0000 0.0000 0.0000 33.8683 0.0000 -3.1709
# 5 0.5478 -9.6768 -1.2315 0.0000 10.2984 0.0000
# 6 0.0000 0.0000 0.0000 -3.1709 0.0000 19.0396
#
#
#
# Elastic Compliance Matrix: (Units=1/GPa)
#
#
# Indices 1 2 3 4 5 6 
#
# 1 0.086583 -0.003360 0.004259 0.000000 -0.007254 0.000000
# 2 -0.003360 0.007490 -0.002877 0.000000 0.006873 0.000000
# 3 0.004259 -0.002877 0.009660 0.000000 -0.001775 0.000000
# 4 0.000000 0.000000 0.000000 0.029994 0.000000 0.004995
# 5 -0.007254 0.006873 -0.001775 0.000000 0.103734 0.000000
# 6 0.000000 0.000000 0.000000 0.004995 0.000000 0.053354
#
#
# Mechanical properties :
#
#
# Convention : Reuss Voigt Hill
#
# Bulk Modulus (GPa) = 10.02230 42.11130 26.06680
# Shear Modulus (GPa) = 15.24250 29.14980 22.19615
#
# Velocity S-wave (km/s) = 2.69761 3.73051 3.25529
# Velocity P-wave (km/s) = 3.80627 6.21776 5.15501
#
# Compressibility (1/GPa) = 0.09977745
#
# Stress axis : x y z
#
# Youngs Moduli (GPa) = 11.54965 133.50510 103.51972
#
# Poissons Ratio (x) = 0.44860 -0.44091
# Poissons Ratio (y) = 0.03881 0.29780
# Poissons Ratio (z) = -0.04919 0.38407
#
# Static dielectric constant tensor:
#      x y z
#    x 1.728100 0.000000 0.007190 
#    y 0.000000 1.763320 0.000000 
#    z 0.007190 0.000000 1.742530 
# 
# From -- ./inp_files/61472.got.cif
#   From: 2010.05.17/outbox.cif.g08.bks.cpg/sg15_31_cif.got.tgz:61472.got - 2010.06.03 18:47:42.
