data_PCOD9301532
_publ_section_title
;
Structure prediction by ZEFSAII (Michael W. Deem and Ramdas Pophale) SiO2 
 PCOD9301532
Probable space group: C 2/C
;
_chemical_formula_sum "Si O2"
_cell_formula_units_Z 40
_cell_length_a 10.710703
_cell_length_b 23.661089
_cell_length_c 9.324347
_cell_angle_alpha 90.000000
_cell_angle_beta 64.573522
_cell_angle_gamma 90.000000
_cell_volume 2134.149088
_symmetry_space_group_name_H-M "C 2/C"
_symmetry_group_IT_number 15
_symmetry_cell_setting 'monoclinic'
loop_
_space_group_symop_operation_xyz
x,y,z
-x,y,1/2-z
-x,-y,-z
x,-y,1/2+z
1/2+x,1/2+y,z
1/2-x,1/2+y,1/2-z
1/2-x,1/2-y,-z
1/2+x,1/2-y,1/2+z
loop_
_atom_site_type_symbol
_atom_site_label
_atom_site_fract_x
_atom_site_fract_y
_atom_site_fract_z
Si Si1 0.007881 0.233776 0.032354
Si Si2 0.500000 0.164428 0.750000
Si Si3 0.000000 0.702881 0.250000
Si Si4 0.788314 0.135650 0.530393
Si Si5 0.518367 0.560227 0.567846
Si Si6 0.280363 0.639718 0.198213
O O1 0.010883 0.292457 0.113590
O O2 0.888791 0.191873 0.144804
O O3 0.973079 0.253750 0.891561
O O4 0.150383 0.199180 0.979894
O O5 0.639942 0.129863 0.676529
O O6 0.132599 0.664148 0.221901
O O7 0.778571 0.120984 0.366170
O O8 0.896784 0.097929 0.561028
O O9 0.500000 0.557326 0.750000
O O10 0.500000 0.500000 0.500000
O O11 0.656611 0.592399 0.440525
#
# Coordination Sequence:
#
# PCOD9301532 Si02
#       6
#     8   4   4   8   8   8
#     4  11  21  36  57  86 127 174 202 237 288 351
#     4  12  20  36  61  86 131 166 202 232 298 350
#     4  12  24  34  57  92 131 162 202 246 288 350
#     4  11  23  39  61  89 122 164 203 246 294 353
#     4  11  25  45  70  89 112 149 198 253 305 361
#     4  11  23  40  59  89 125 161 204 246 295 351
#
# _framework density 18.742833999999998
#
# number of rings (size 3 to 8) (size 9 to 14) (size 15 to 20)
#    0.000    0.800    4.000    5.400    8.400    0.000 
#    0.000    1.000    0.000    4.800    0.000    0.000 
#    0.000    0.000    0.000    0.000    0.000    0.000 
#
# Total GULP energy -111641.539434 kJ/mol
# GULP energy per Si atom -5582.076972 kJ/mol
# Density = 1.870017 g / cm^3
# Si number density = 18.742834 Si / 1000 Ang^3
#
#
#
# Elastic Constant Matrix: (Units=GPa)
#
#
# Indices 1 2 3 4 5 6 
#
# 1 114.5434 17.9956 42.0107 0.0000 -18.9550 0.0000
# 2 17.9956 60.8969 31.3736 0.0000 -6.0271 0.0000
# 3 42.0107 31.3736 88.6527 0.0000 20.1909 0.0000
# 4 0.0000 0.0000 0.0000 25.4676 0.0000 12.3787
# 5 -18.9550 -6.0271 20.1909 0.0000 38.6185 0.0000
# 6 0.0000 0.0000 0.0000 12.3787 0.0000 12.3997
#
#
#
# Elastic Compliance Matrix: (Units=1/GPa)
#
#
# Indices 1 2 3 4 5 6 
#
# 1 0.014426 0.002555 -0.010720 0.000000 0.013084 0.000000
# 2 0.002555 0.022827 -0.011790 0.000000 0.010981 0.000000
# 3 -0.010720 -0.011790 0.025144 0.000000 -0.020248 0.000000
# 4 0.000000 0.000000 0.000000 0.076279 0.000000 -0.076150
# 5 0.013084 0.010981 -0.020248 0.000000 0.044617 0.000000
# 6 0.000000 0.000000 0.000000 -0.076150 0.000000 0.156669
#
#
# Mechanical properties :
#
#
# Convention : Reuss Voigt Hill
#
# Bulk Modulus (GPa) = 44.47136 49.65032 47.06084
# Shear Modulus (GPa) = 12.90760 26.81136 19.85948
#
# Velocity S-wave (km/s) = 2.62710 3.78628 3.25865
# Velocity P-wave (km/s) = 5.74289 6.75739 6.27069
#
# Compressibility (1/GPa) = 0.02248638
#
# Stress axis : x y z
#
# Youngs Moduli (GPa) = 69.31897 43.80749 39.77057
#
# Poissons Ratio (x) = -0.11193 0.42636
# Poissons Ratio (y) = -0.17711 0.46890
# Poissons Ratio (z) = 0.74313 0.51650
#
# Static dielectric constant tensor:
#      x y z
#    x 1.630780 0.000000 -0.054960 
#    y 0.000000 1.647910 0.000000 
#    z -0.054960 0.000000 1.607790 
# 
# From -- ./inp_files/23511.got.cif
#   From: 2010.05.17/outbox.cif.g08.bks.cpg/sg15_12_cif.got.tgz:23511.got - 2010.06.03 18:47:42.
