data_PCOD9301320
_publ_section_title
;
Structure prediction by ZEFSAII (Michael W. Deem and Ramdas Pophale) SiO2 
 PCOD9301320
Probable space group: C 2/C
;
_chemical_formula_sum "Si O2"
_cell_formula_units_Z 40
_cell_length_a 14.025927
_cell_length_b 12.201568
_cell_length_c 10.936103
_cell_angle_alpha 90.000000
_cell_angle_beta 95.174836
_cell_angle_gamma 90.000000
_cell_volume 1863.957716
_symmetry_space_group_name_H-M "C 2/C"
_symmetry_group_IT_number 15
_symmetry_cell_setting 'monoclinic'
loop_
_space_group_symop_operation_xyz
x,y,z
-x,y,1/2-z
-x,-y,-z
x,-y,1/2+z
1/2+x,1/2+y,z
1/2-x,1/2+y,1/2-z
1/2-x,1/2-y,-z
1/2+x,1/2-y,1/2+z
loop_
_atom_site_type_symbol
_atom_site_label
_atom_site_fract_x
_atom_site_fract_y
_atom_site_fract_z
Si Si1 0.645684 0.284409 0.599082
Si Si2 0.062815 0.930947 0.414381
Si Si3 0.500000 0.394196 0.750000
Si Si4 0.115545 0.468682 0.019934
Si Si5 0.179412 0.407499 0.771013
Si Si6 0.000000 0.748734 0.250000
O O1 0.650852 0.367840 0.483884
O O2 0.548073 0.318443 0.655640
O O3 0.633401 0.159901 0.555539
O O4 0.730295 0.327314 0.695747
O O5 0.996921 0.831577 0.361958
O O6 0.000000 0.000000 0.500000
O O7 0.079448 0.019391 0.309872
O O8 0.166485 0.533355 0.138233
O O9 0.161782 0.485024 0.889282
O O10 0.000000 0.500000 0.000000
O O11 0.090376 0.326183 0.767567
#
# Coordination Sequence:
#
# PCOD9301320 Si02
#       6
#     8   8   4   8   8   4
#     4  11  24  41  70  96 143 181 238 291 358 422
#     4   9  19  38  63  92 128 177 226 287 351 415
#     4   9  22  37  64  98 134 179 236 295 352 414
#     4  12  25  47  72 103 144 190 238 292 362 427
#     4  12  26  43  72 105 139 190 237 294 354 436
#     4  11  20  41  66  94 138 185 232 285 362 412
#
# _framework density 21.459714000000002
#
# number of rings (size 3 to 8) (size 9 to 14) (size 15 to 20)
#    0.000    1.200    4.000    0.600    5.600    3.200 
#    0.000    1.000    0.000    0.000    0.000    0.000 
#    0.000    0.000    0.000    0.000    0.000    0.000 
#
# Total GULP energy -111390.312766 kJ/mol
# GULP energy per Si atom -5569.515638 kJ/mol
# Density = 2.141087 g / cm^3
# Si number density = 21.459714 Si / 1000 Ang^3
#
#
#
# Elastic Constant Matrix: (Units=GPa)
#
#
# Indices 1 2 3 4 5 6 
#
# 1 61.3377 29.7528 21.4088 0.0000 19.9829 0.0000
# 2 29.7528 114.5107 55.6946 0.0000 11.0359 0.0000
# 3 21.4088 55.6946 128.6880 0.0000 14.0177 0.0000
# 4 0.0000 0.0000 0.0000 49.8555 0.0000 1.4741
# 5 19.9829 11.0359 14.0177 0.0000 38.5296 0.0000
# 6 0.0000 0.0000 0.0000 1.4741 0.0000 22.2415
#
#
#
# Elastic Compliance Matrix: (Units=1/GPa)
#
#
# Indices 1 2 3 4 5 6 
#
# 1 0.021882 -0.004418 -0.000656 0.000000 -0.009845 0.000000
# 2 -0.004418 0.012035 -0.004527 0.000000 0.000491 0.000000
# 3 -0.000656 -0.004527 0.010060 0.000000 -0.002023 0.000000
# 4 0.000000 0.000000 0.000000 0.020097 0.000000 -0.001332
# 5 -0.009845 0.000491 -0.002023 0.000000 0.031655 0.000000
# 6 0.000000 0.000000 0.000000 -0.001332 0.000000 0.045049
#
#
# Mechanical properties :
#
#
# Convention : Reuss Voigt Hill
#
# Bulk Modulus (GPa) = 40.36303 57.58318 48.97311
# Shear Modulus (GPa) = 29.71948 35.30398 32.51173
#
# Velocity S-wave (km/s) = 3.72546 4.06042 3.89654
# Velocity P-wave (km/s) = 6.11187 6.99100 6.56616
#
# Compressibility (1/GPa) = 0.02477515
#
# Stress axis : x y z
#
# Youngs Moduli (GPa) = 45.69874 83.08932 99.40791
#
# Poissons Ratio (x) = 0.36707 0.06522
# Poissons Ratio (y) = 0.20188 0.45004
# Poissons Ratio (z) = 0.02998 0.37617
#
# Static dielectric constant tensor:
#      x y z
#    x 1.911610 0.000000 -0.081040 
#    y 0.000000 1.745670 0.000000 
#    z -0.081040 0.000000 2.064650 
# 
# From -- ./inp_files/94550.got.cif
#   From: 2010.05.17/outbox.cif.g08.bks.cpg/sg15_48_cif.got.tgz:94550.got - 2010.06.03 18:47:42.
