data_PCOD9301635
_publ_section_title
;
Structure prediction by ZEFSAII (Michael W. Deem and Ramdas Pophale) SiO2 
 PCOD9301635
Probable space group: C 2/C
;
_chemical_formula_sum "Si O2"
_cell_formula_units_Z 56
_cell_length_a 16.998853
_cell_length_b 9.131925
_cell_length_c 17.479037
_cell_angle_alpha 90.000000
_cell_angle_beta 109.366532
_cell_angle_gamma 90.000000
_cell_volume 2559.781720
_symmetry_space_group_name_H-M "C 2/C"
_symmetry_group_IT_number 15
_symmetry_cell_setting 'monoclinic'
loop_
_space_group_symop_operation_xyz
x,y,z
-x,y,1/2-z
-x,-y,-z
x,-y,1/2+z
1/2+x,1/2+y,z
1/2-x,1/2+y,1/2-z
1/2-x,1/2-y,-z
1/2+x,1/2-y,1/2+z
loop_
_atom_site_type_symbol
_atom_site_label
_atom_site_fract_x
_atom_site_fract_y
_atom_site_fract_z
Si Si1 0.422077 0.927718 0.828545
Si Si2 0.084620 0.911790 0.739941
Si Si3 0.177995 0.862251 0.381463
Si Si4 0.237369 0.914084 0.025932
Si Si5 0.128381 0.884022 0.130968
Si Si6 0.103833 0.570751 0.362149
Si Si7 0.209120 0.327418 0.215433
O O1 0.409310 0.776130 0.868222
O O2 0.408210 0.905771 0.732842
O O3 0.516195 0.983157 0.867332
O O4 0.351737 0.042167 0.828487
O O5 0.154122 0.791200 0.742456
O O6 0.000000 0.851028 0.750000
O O7 0.120645 0.033195 0.810151
O O8 0.071462 0.997525 0.655728
O O9 0.125431 0.731697 0.401386
O O10 0.244338 0.780062 0.347166
O O11 0.223107 0.968716 0.454588
O O12 0.156747 0.917455 0.054848
O O13 0.321029 0.962359 0.096755
O O14 0.250000 0.750000 0.000000
O O15 0.216342 0.881108 0.206094
#
# Coordination Sequence:
#
# PCOD9301635 Si02
#       7
#     8   8   8   8   8   8   8
#     4  11  22  39  67  96 128 168 229 275 326 384
#     4  11  23  39  65  99 130 165 224 280 324 379
#     4  11  24  42  66  95 134 179 222 266 336 411
#     4  12  25  43  68 101 139 177 223 275 340 408
#     4  11  21  42  66  94 129 175 222 274 323 396
#     4  11  23  41  65  94 131 177 216 277 333 393
#     4  11  21  37  64  96 128 169 223 271 322 385
#
# _framework density 21.876864000000001
#
# number of rings (size 3 to 8) (size 9 to 14) (size 15 to 20)
#    0.000    0.857    4.286    5.571    2.000    0.000 
#    0.000    7.143    0.000    0.000    0.000    0.000 
#    0.000    0.000    0.000    0.000    0.000    0.000 
#
# Total GULP energy -156584.443981 kJ/mol
# GULP energy per Si atom -5592.301571 kJ/mol
# Density = 2.182707 g / cm^3
# Si number density = 21.876864 Si / 1000 Ang^3
#
#
#
# Elastic Constant Matrix: (Units=GPa)
#
#
# Indices 1 2 3 4 5 6 
#
# 1 105.3316 7.5436 19.2752 0.0000 -13.2147 0.0000
# 2 7.5436 52.5482 11.8295 0.0000 1.9654 0.0000
# 3 19.2752 11.8295 40.2889 0.0000 -10.7550 0.0000
# 4 0.0000 0.0000 0.0000 -16.7961 0.0000 -20.5194
# 5 -13.2147 1.9654 -10.7550 0.0000 22.0650 0.0000
# 6 0.0000 0.0000 0.0000 -20.5194 0.0000 33.0371
#
#
#
# Elastic Compliance Matrix: (Units=1/GPa)
#
#
# Indices 1 2 3 4 5 6 
#
# 1 0.010825 -0.000916 -0.003630 0.000000 0.004796 0.000000
# 2 -0.000916 0.021039 -0.007341 0.000000 -0.006001 0.000000
# 3 -0.003630 -0.007341 0.032541 0.000000 0.014341 0.000000
# 4 0.000000 0.000000 0.000000 -0.033852 0.000000 -0.021025
# 5 0.004796 -0.006001 0.014341 0.000000 0.055717 0.000000
# 6 0.000000 0.000000 0.000000 -0.021025 0.000000 0.017210
#
#
# Mechanical properties :
#
#
# Convention : Reuss Voigt Hill
#
# Bulk Modulus (GPa) = 24.61174 30.60726 27.60950
# Shear Modulus (GPa) = 35.51167 18.29589 26.90378
#
# Velocity S-wave (km/s) = 4.03333 2.89504 3.51063
# Velocity P-wave (km/s) = 5.74151 5.01957 5.39263
#
# Compressibility (1/GPa) = 0.04063102
#
# Stress axis : x y z
#
# Youngs Moduli (GPa) = 92.37581 47.53146 30.73041
#
# Poissons Ratio (x) = 0.04355 0.11155
# Poissons Ratio (y) = 0.08464 0.22559
# Poissons Ratio (z) = 0.33532 0.34892
#
# Static dielectric constant tensor:
#      x y z
#    x 1.802980 0.000000 -0.017660 
#    y 0.000000 1.791470 0.000000 
#    z -0.017660 0.000000 1.813110 
# 
# From -- ./inp_files/209610.got.cif
#   From: 2010.05.17/outbox.cif.g08.bks.cpg/sg15_105_cif.got.tgz:209610.got - 2010.06.03 18:47:42.
