data_PCOD9301038
_publ_section_title
;
Structure prediction by ZEFSAII (Michael W. Deem and Ramdas Pophale) SiO2 
 PCOD9301038
Probable space group: C 2/C
;
_chemical_formula_sum "Si O2"
_cell_formula_units_Z 48
_cell_length_a 12.244003
_cell_length_b 15.804305
_cell_length_c 22.842107
_cell_angle_alpha 90.000000
_cell_angle_beta 144.461000
_cell_angle_gamma 90.000000
_cell_volume 2569.231076
_symmetry_space_group_name_H-M "C 2/C"
_symmetry_group_IT_number 15
_symmetry_cell_setting 'monoclinic'
loop_
_space_group_symop_operation_xyz
x,y,z
-x,y,1/2-z
-x,-y,-z
x,-y,1/2+z
1/2+x,1/2+y,z
1/2-x,1/2+y,1/2-z
1/2-x,1/2-y,-z
1/2+x,1/2-y,1/2+z
loop_
_atom_site_type_symbol
_atom_site_label
_atom_site_fract_x
_atom_site_fract_y
_atom_site_fract_z
Si Si1 0.413667 0.513311 0.777267
Si Si2 0.144240 0.207866 0.758637
Si Si3 0.059431 0.749298 0.989181
Si Si4 0.550982 0.787490 0.931182
Si Si5 0.701022 0.608868 0.466775
Si Si6 0.503619 0.977919 0.932310
O O1 0.500000 0.511011 0.750000
O O2 0.393176 0.613055 0.782329
O O3 0.542263 0.453687 0.872874
O O4 0.206295 0.476626 0.682513
O O5 0.358717 0.219568 0.873962
O O6 0.000000 0.219537 0.750000
O O7 0.090788 0.272892 0.684252
O O8 0.126010 0.836142 0.988065
O O9 0.218174 0.678922 0.043617
O O10 0.028611 0.754844 0.044781
O O11 0.585926 0.885094 0.961561
O O12 0.750000 0.750000 0.000000
O O13 0.877597 0.546635 0.551555
O O14 0.500000 0.000000 0.000000
#
# Coordination Sequence:
#
# PCOD9301038 Si02
#       6
#     8   8   8   8   8   8
#     4  11  20  36  64  94 123 169 223 271 312 382
#     4  11  22  40  66  97 130 170 221 268 324 385
#     4  11  23  43  63  96 136 173 208 276 332 384
#     4  12  23  39  68  98 127 170 221 267 322 394
#     4  11  23  39  65  94 132 167 213 275 326 380
#     4  12  21  40  65  96 125 168 227 267 316 391
#
# _framework density 18.682632000000002
#
# number of rings (size 3 to 8) (size 9 to 14) (size 15 to 20)
#    0.000    0.667    6.667    2.000    0.000    0.000 
#    0.000    5.833    0.000    0.000    0.000    0.000 
#    0.000    0.000    0.000    0.000    0.000    0.000 
#
# Total GULP energy -134066.160232 kJ/mol
# GULP energy per Si atom -5586.090010 kJ/mol
# Density = 1.864011 g / cm^3
# Si number density = 18.682632 Si / 1000 Ang^3
#
#
#
# Elastic Constant Matrix: (Units=GPa)
#
#
# Indices 1 2 3 4 5 6 
#
# 1 114.8796 55.6391 24.2824 0.0000 0.0720 0.0000
# 2 55.6391 121.5655 14.0589 0.0000 -4.0887 0.0000
# 3 24.2824 14.0589 73.1779 0.0002 8.7177 0.0000
# 4 0.0000 0.0000 0.0002 34.1853 0.0000 8.0003
# 5 0.0720 -4.0887 8.7177 0.0000 36.2919 0.0000
# 6 0.0000 0.0000 0.0000 8.0003 0.0000 36.2278
#
#
#
# Elastic Compliance Matrix: (Units=1/GPa)
#
#
# Indices 1 2 3 4 5 6 
#
# 1 0.011770 -0.005042 -0.002951 0.000000 0.000118 0.000000
# 2 -0.005042 0.010640 -0.000530 0.000000 0.001336 0.000000
# 3 -0.002951 -0.000530 0.015187 0.000000 -0.003702 0.000000
# 4 0.000000 0.000000 0.000000 0.030847 0.000000 -0.006812
# 5 0.000118 0.001336 -0.003702 0.000000 0.028594 0.000000
# 6 0.000000 0.000000 0.000000 -0.006812 0.000000 0.029107
#
#
# Mechanical properties :
#
#
# Convention : Reuss Voigt Hill
#
# Bulk Modulus (GPa) = 48.65883 55.28709 51.97296
# Shear Modulus (GPa) = 33.32385 35.71715 34.52050
#
# Velocity S-wave (km/s) = 4.22795 4.37714 4.30319
# Velocity P-wave (km/s) = 7.06651 7.42986 7.25046
#
# Compressibility (1/GPa) = 0.02055126
#
# Stress axis : x y z
#
# Youngs Moduli (GPa) = 84.95886 93.98575 65.84369
#
# Poissons Ratio (x) = 0.47387 0.19431
# Poissons Ratio (y) = 0.42836 0.03491
# Poissons Ratio (z) = 0.25072 0.04984
#
# Static dielectric constant tensor:
#      x y z
#    x 1.603680 0.000000 0.026130 
#    y 0.000000 1.670310 0.000000 
#    z 0.026130 0.000000 1.661260 
# 
# From -- ./inp_files/143429.got.cif
#   From: 2010.05.17/outbox.cif.g08.bks.cpg/sg15_72_cif.got.tgz:143429.got - 2010.06.03 18:47:42.
