data_PCOD9301941
_publ_section_title
;
Structure prediction by ZEFSAII (Michael W. Deem and Ramdas Pophale) SiO2 
 PCOD9301941
Probable space group: C 2/C
;
_chemical_formula_sum "Si O2"
_cell_formula_units_Z 48
_cell_length_a 7.918100
_cell_length_b 16.625634
_cell_length_c 26.144809
_cell_angle_alpha 90.000000
_cell_angle_beta 42.510919
_cell_angle_gamma 90.000000
_cell_volume 2325.724789
_symmetry_space_group_name_H-M "C 2/C"
_symmetry_group_IT_number 15
_symmetry_cell_setting 'monoclinic'
loop_
_space_group_symop_operation_xyz
x,y,z
-x,y,1/2-z
-x,-y,-z
x,-y,1/2+z
1/2+x,1/2+y,z
1/2-x,1/2+y,1/2-z
1/2-x,1/2-y,-z
1/2+x,1/2-y,1/2+z
loop_
_atom_site_type_symbol
_atom_site_label
_atom_site_fract_x
_atom_site_fract_y
_atom_site_fract_z
Si Si1 0.608291 0.641980 0.570265
Si Si2 0.655521 0.968341 0.170600
Si Si3 0.750364 0.844281 0.283139
Si Si4 0.794699 0.273574 0.682364
Si Si5 0.957390 0.733591 0.569281
Si Si6 0.306947 0.108971 0.413563
O O1 0.410463 0.574332 0.632830
O O2 0.431807 0.721966 0.607170
O O3 0.709658 0.613588 0.493080
O O4 0.835190 0.669610 0.556297
O O5 0.500000 0.012823 0.250000
O O6 0.455480 0.901173 0.196946
O O7 0.722850 0.025603 0.108628
O O8 0.855472 0.778658 0.219458
O O9 0.610097 0.798884 0.359964
O O10 0.000000 0.886143 0.250000
O O11 0.500000 0.274442 0.750000
O O12 0.906689 0.361896 0.653818
O O13 0.250000 0.750000 0.500000
O O14 0.831596 0.819280 0.585428
#
# Coordination Sequence:
#
# PCOD9301941 Si02
#       6
#     8   8   8   8   8   8
#     4  11  21  45  64  94 131 180 212 261 345 404
#     4  12  24  44  66  93 133 183 216 269 335 396
#     4  12  21  40  67  94 128 172 218 261 330 396
#     4  11  21  40  68  95 125 174 218 268 323 395
#     4  11  24  40  68  98 128 168 222 278 324 390
#     4  11  26  40  67  98 131 164 225 276 322 388
#
# _framework density 20.638728
#
# number of rings (size 3 to 8) (size 9 to 14) (size 15 to 20)
#    0.000    0.667    6.667    3.500    4.667    0.667 
#    0.000    5.000    0.000    0.000    0.000    0.000 
#    0.000    0.000    0.000    0.000    0.000    0.000 
#
# Total GULP energy -133952.916547 kJ/mol
# GULP energy per Si atom -5581.371523 kJ/mol
# Density = 2.059175 g / cm^3
# Si number density = 20.638728 Si / 1000 Ang^3
#
#
#
# Elastic Constant Matrix: (Units=GPa)
#
#
# Indices 1 2 3 4 5 6 
#
# 1 82.9567 16.3316 53.7350 -0.0015 -20.6669 0.0021
# 2 16.3316 50.8788 35.2509 -0.0026 2.2213 0.0021
# 3 53.7350 35.2509 141.8549 -0.0053 2.5758 0.0046
# 4 -0.0015 -0.0026 -0.0053 27.4627 0.0020 6.1765
# 5 -20.6669 2.2213 2.5758 0.0020 38.5537 -0.0012
# 6 0.0021 0.0021 0.0046 6.1765 -0.0012 26.3599
#
#
#
# Elastic Compliance Matrix: (Units=1/GPa)
#
#
# Indices 1 2 3 4 5 6 
#
# 1 0.019967 -0.001836 -0.007313 -0.000001 0.011298 0.000001
# 2 -0.001836 0.023948 -0.005219 0.000002 -0.002015 -0.000001
# 3 -0.007313 -0.005219 0.011196 0.000002 -0.004367 -0.000002
# 4 -0.000001 0.000002 0.000002 0.038439 -0.000003 -0.009007
# 5 0.011298 -0.002015 -0.004367 -0.000003 0.032402 0.000002
# 6 0.000001 -0.000001 -0.000002 -0.009007 0.000002 0.040047
#
#
# Mechanical properties :
#
#
# Convention : Reuss Voigt Hill
#
# Bulk Modulus (GPa) = 37.91383 54.03616 45.97499
# Shear Modulus (GPa) = 24.56696 29.83344 27.20020
#
# Velocity S-wave (km/s) = 3.45386 3.80611 3.63426
# Velocity P-wave (km/s) = 5.85796 6.74937 6.31940
#
# Compressibility (1/GPa) = 0.02637560
#
# Stress axis : x y z
#
# Youngs Moduli (GPa) = 50.08194 41.75752 89.32040
#
# Poissons Ratio (x) = 0.07667 0.65316
# Poissons Ratio (y) = 0.09196 0.46615
# Poissons Ratio (z) = 0.36623 0.21793
#
# Static dielectric constant tensor:
#      x y z
#    x 1.824350 0.000000 -0.019270 
#    y 0.000000 1.717800 0.000000 
#    z -0.019270 0.000000 1.762800 
# 
# From -- ./inp_files/289030.got.cif
#   From: 2010.05.17/outbox.cif.g08.bks.cpg/sg15_145_cif.got.tgz:289030.got - 2010.06.03 18:47:42.
