data_PCOD9301141
_publ_section_title
;
Structure prediction by ZEFSAII (Michael W. Deem and Ramdas Pophale) SiO2 
 PCOD9301141
Probable space group: C 2/C
;
_chemical_formula_sum "Si O2"
_cell_formula_units_Z 32
_cell_length_a 13.673960
_cell_length_b 6.841569
_cell_length_c 19.668558
_cell_angle_alpha 90.000000
_cell_angle_beta 46.318143
_cell_angle_gamma 90.000000
_cell_volume 1330.676466
_symmetry_space_group_name_H-M "C 2/C"
_symmetry_group_IT_number 15
_symmetry_cell_setting 'monoclinic'
loop_
_space_group_symop_operation_xyz
x,y,z
-x,y,1/2-z
-x,-y,-z
x,-y,1/2+z
1/2+x,1/2+y,z
1/2-x,1/2+y,1/2-z
1/2-x,1/2-y,-z
1/2+x,1/2-y,1/2+z
loop_
_atom_site_type_symbol
_atom_site_label
_atom_site_fract_x
_atom_site_fract_y
_atom_site_fract_z
Si Si1 0.297360 0.929319 0.050940
Si Si2 0.007484 0.899655 0.669832
Si Si3 0.571837 0.975262 0.370798
Si Si4 0.633158 0.805488 0.721388
O O1 0.164972 0.036480 0.085722
O O2 0.361118 0.023559 0.089009
O O3 0.243319 0.729836 0.110632
O O4 0.424963 0.920094 0.940594
O O5 0.000000 0.810918 0.750000
O O6 0.960424 0.748610 0.634766
O O7 0.917137 0.095979 0.723388
O O8 0.668027 0.058271 0.266551
O O9 0.500000 0.885619 0.750000
#
# Coordination Sequence:
#
# PCOD9301141 Si02
#       4
#     8   8   8   8
#     4   9  22  37  57  92 117 145 212 240 279 383
#     4   9  20  38  56  86 119 154 196 242 293 354
#     4  11  20  38  62  82 118 164 184 247 314 331
#     4   9  21  38  55  85 114 149 201 242 285 362
#
# _framework density 24.047917999999999
#
# number of rings (size 3 to 8) (size 9 to 14) (size 15 to 20)
#    0.000    3.000    0.000    1.500    7.000    4.000 
#    0.000   10.000    0.000    0.000    0.000    0.000 
#    0.000    0.000    0.000    0.000    0.000    0.000 
#
# Total GULP energy -89216.624705 kJ/mol
# GULP energy per Si atom -5576.039044 kJ/mol
# Density = 2.399318 g / cm^3
# Si number density = 24.047918 Si / 1000 Ang^3
#
#
#
# Elastic Constant Matrix: (Units=GPa)
#
#
# Indices 1 2 3 4 5 6 
#
# 1 88.0869 34.8821 24.6941 0.0000 -10.5973 0.0000
# 2 34.8821 78.9748 6.1478 0.0000 4.9859 0.0001
# 3 24.6941 6.1478 52.8872 0.0000 -10.5005 0.0000
# 4 0.0000 0.0000 0.0000 28.7392 0.0000 9.4691
# 5 -10.5973 4.9859 -10.5005 0.0000 38.4627 0.0000
# 6 0.0000 0.0001 0.0000 9.4691 0.0000 18.5979
#
#
#
# Elastic Compliance Matrix: (Units=1/GPa)
#
#
# Indices 1 2 3 4 5 6 
#
# 1 0.016241 -0.006939 -0.006037 0.000000 0.003726 0.000000
# 2 -0.006939 0.015918 0.000635 0.000000 -0.003802 0.000000
# 3 -0.006037 0.000635 0.022528 0.000000 0.004405 0.000000
# 4 0.000000 0.000000 0.000000 0.041810 0.000000 -0.021287
# 5 0.003726 -0.003802 0.004405 0.000000 0.028721 0.000000
# 6 0.000000 0.000000 0.000000 -0.021287 0.000000 0.064608
#
#
# Mechanical properties :
#
#
# Convention : Reuss Voigt Hill
#
# Bulk Modulus (GPa) = 33.32845 39.04409 36.18627
# Shear Modulus (GPa) = 22.27099 27.44164 24.85632
#
# Velocity S-wave (km/s) = 3.04651 3.38172 3.21848
# Velocity P-wave (km/s) = 5.12486 5.61420 5.37510
#
# Compressibility (1/GPa) = 0.03000439
#
# Stress axis : x y z
#
# Youngs Moduli (GPa) = 61.57389 62.82371 44.38999
#
# Poissons Ratio (x) = 0.43591 0.26797
# Poissons Ratio (y) = 0.42723 -0.02817
# Poissons Ratio (z) = 0.37170 -0.03987
#
# Static dielectric constant tensor:
#      x y z
#    x 1.981160 0.000000 -0.023890 
#    y 0.000000 1.944760 0.000000 
#    z -0.023890 0.000000 1.924660 
# 
# From -- ./inp_files/125801.got.cif
#   From: 2010.05.17/outbox.cif.g08.bks.cpg/sg15_63_cif.got.tgz:125801.got - 2010.06.03 18:47:42.
