data_PCOD9301257
_publ_section_title
;
Structure prediction by ZEFSAII (Michael W. Deem and Ramdas Pophale) SiO2 
 PCOD9301257
Probable space group: C 2/C
;
_chemical_formula_sum "Si O2"
_cell_formula_units_Z 48
_cell_length_a 11.543337
_cell_length_b 14.149977
_cell_length_c 15.250737
_cell_angle_alpha 90.000000
_cell_angle_beta 104.689650
_cell_angle_gamma 90.000000
_cell_volume 2409.601493
_symmetry_space_group_name_H-M "C 2/C"
_symmetry_group_IT_number 15
_symmetry_cell_setting 'monoclinic'
loop_
_space_group_symop_operation_xyz
x,y,z
-x,y,1/2-z
-x,-y,-z
x,-y,1/2+z
1/2+x,1/2+y,z
1/2-x,1/2+y,1/2-z
1/2-x,1/2-y,-z
1/2+x,1/2-y,1/2+z
loop_
_atom_site_type_symbol
_atom_site_label
_atom_site_fract_x
_atom_site_fract_y
_atom_site_fract_z
Si Si1 0.524058 0.761887 0.851190
Si Si2 0.692947 0.586150 0.459986
Si Si3 0.474245 0.111216 0.499554
Si Si4 0.939062 0.739854 0.646887
Si Si5 0.867248 0.077289 0.684251
Si Si6 0.702472 0.627142 0.652008
O O1 0.500000 0.804748 0.750000
O O2 0.537145 0.837561 0.929756
O O3 0.626257 0.682993 0.854755
O O4 0.408365 0.698618 0.855368
O O5 0.829004 0.620384 0.467094
O O6 0.601683 0.669450 0.416563
O O7 0.666425 0.496568 0.395445
O O8 0.679955 0.565856 0.560869
O O9 0.507871 0.166875 0.595582
O O10 0.500000 0.000000 0.500000
O O11 0.819186 0.686419 0.653171
O O12 0.000000 0.767359 0.750000
O O13 0.784260 0.073002 0.753963
O O14 0.000000 0.057886 0.750000
#
# Coordination Sequence:
#
# PCOD9301257 Si02
#       6
#     8   8   8   8   8   8
#     4   9  18  39  63  82 116 159 192 237 299 346
#     4  11  20  40  63  87 118 160 194 244 298 346
#     4  11  23  40  60  86 119 159 199 242 296 358
#     4  11  22  37  64  88 118 154 201 248 289 349
#     4   9  21  35  62  91 118 153 198 245 294 349
#     4   9  18  39  59  83 124 155 191 239 296 349
#
# _framework density 19.920306
#
# number of rings (size 3 to 8) (size 9 to 14) (size 15 to 20)
#    0.000    2.333    3.333    1.500    2.333    3.333 
#    6.000    0.833    0.000    0.000    0.000    0.000 
#    0.000    0.000    0.000    0.000    0.000    0.000 
#
# Total GULP energy -133846.219057 kJ/mol
# GULP energy per Si atom -5576.925794 kJ/mol
# Density = 1.987497 g / cm^3
# Si number density = 19.920306 Si / 1000 Ang^3
#
#
#
# Elastic Constant Matrix: (Units=GPa)
#
#
# Indices 1 2 3 4 5 6 
#
# 1 13.7242 8.3907 35.3806 0.0000 -7.2222 0.0000
# 2 8.3907 79.0013 66.5275 0.0000 -11.9219 0.0000
# 3 35.3806 66.5275 153.2458 0.0000 -33.4125 0.0000
# 4 0.0000 0.0000 0.0000 27.0901 0.0000 -6.7485
# 5 -7.2222 -11.9219 -33.4125 0.0000 31.6616 0.0000
# 6 0.0000 0.0000 0.0000 -6.7485 0.0000 11.1857
#
#
#
# Elastic Compliance Matrix: (Units=1/GPa)
#
#
# Indices 1 2 3 4 5 6 
#
# 1 0.219447 0.030909 -0.065763 0.000000 -0.007704 0.000000
# 2 0.030909 0.024415 -0.018436 0.000000 -0.003211 0.000000
# 3 -0.065763 -0.018436 0.032377 0.000000 0.012225 0.000000
# 4 0.000000 0.000000 0.000000 0.043443 0.000000 0.026210
# 5 -0.007704 -0.003211 0.012225 0.000000 0.041519 0.000000
# 6 0.000000 0.000000 0.000000 0.026210 0.000000 0.105213
#
#
# Mechanical properties :
#
#
# Convention : Reuss Voigt Hill
#
# Bulk Modulus (GPa) = 5.89409 51.84100 28.86754
# Shear Modulus (GPa) = 7.94222 23.03231 15.48726
#
# Velocity S-wave (km/s) = 1.99891 3.40402 2.79132
# Velocity P-wave (km/s) = 2.87972 6.44441 4.99115
#
# Compressibility (1/GPa) = 0.16966155
#
# Stress axis : x y z
#
# Youngs Moduli (GPa) = 4.55690 40.95798 30.88585
#
# Poissons Ratio (x) = -1.26599 2.03115
# Poissons Ratio (y) = -0.14085 0.56940
# Poissons Ratio (z) = 0.29968 0.75508
#
# Static dielectric constant tensor:
#      x y z
#    x 1.724760 0.000000 0.007430 
#    y 0.000000 1.697440 0.000000 
#    z 0.007430 0.000000 1.747740 
# 
# From -- ./inp_files/143663.got.cif
#   From: 2010.05.17/outbox.cif.g08.bks.cpg/sg15_72_cif.got.tgz:143663.got - 2010.06.03 18:47:42.
