data_PCOD9301256
_publ_section_title
;
Structure prediction by ZEFSAII (Michael W. Deem and Ramdas Pophale) SiO2 
 PCOD9301256
Probable space group: C 2/C
;
_chemical_formula_sum "Si O2"
_cell_formula_units_Z 60
_cell_length_a 26.064558
_cell_length_b 14.571139
_cell_length_c 16.772366
_cell_angle_alpha 90.000000
_cell_angle_beta 151.173611
_cell_angle_gamma 90.000000
_cell_volume 3071.332802
_symmetry_space_group_name_H-M "C 2/C"
_symmetry_group_IT_number 15
_symmetry_cell_setting 'monoclinic'
loop_
_space_group_symop_operation_xyz
x,y,z
-x,y,1/2-z
-x,-y,-z
x,-y,1/2+z
1/2+x,1/2+y,z
1/2-x,1/2+y,1/2-z
1/2-x,1/2-y,-z
1/2+x,1/2-y,1/2+z
loop_
_atom_site_type_symbol
_atom_site_label
_atom_site_fract_x
_atom_site_fract_y
_atom_site_fract_z
Si Si1 0.502397 0.218632 0.467936
Si Si2 0.698501 0.648218 0.425116
Si Si3 0.500000 0.706519 0.250000
Si Si4 0.354359 0.246839 0.410548
Si Si5 0.123365 0.564092 0.732622
Si Si6 0.969612 0.432570 0.616711
Si Si7 0.246195 0.051870 0.738150
Si Si8 0.655863 0.378925 0.684221
O O1 0.401727 0.232332 0.387420
O O2 0.581088 0.155702 0.630395
O O3 0.490563 0.161485 0.370840
O O4 0.557192 0.315620 0.526155
O O5 0.750000 0.750000 0.500000
O O6 0.595969 0.649302 0.342354
O O7 0.793393 0.585377 0.584991
O O8 0.661192 0.621483 0.286924
O O9 0.554260 0.762135 0.396832
O O10 0.306249 0.349552 0.350433
O O11 0.262298 0.174654 0.302427
O O12 0.192620 0.516096 0.757639
O O13 0.025861 0.509318 0.637730
O O14 0.842519 0.437444 0.432342
O O15 0.000000 0.441572 0.750000
O O16 0.161509 0.979221 0.654572
#
# Coordination Sequence:
#
# PCOD9301256 Si02
#       8
#     8   8   4   8   8   8   8   8
#     4  11  22  39  64  89 127 168 205 260 316 376
#     4  12  20  36  58  95 125 158 195 258 319 378
#     4  12  20  36  62  90 136 160 188 260 322 372
#     4  12  22  40  64  95 130 166 207 256 321 378
#     4  11  20  40  62  94 127 155 212 267 317 372
#     4  11  23  43  65  91 122 166 224 268 304 360
#     4  11  23  40  63  93 125 164 209 261 318 382
#     4  12  22  38  64  89 129 166 204 253 322 377
#
# _framework density 19.535492999999999
#
# number of rings (size 3 to 8) (size 9 to 14) (size 15 to 20)
#    0.000    0.533    8.000    4.000    0.000    0.533 
#    2.400    0.667    4.400    0.000    0.000    0.000 
#    0.000    0.000    0.000    0.000    0.000    0.000 
#
# Total GULP energy -167640.097968 kJ/mol
# GULP energy per Si atom -5588.003266 kJ/mol
# Density = 1.949103 g / cm^3
# Si number density = 19.535493 Si / 1000 Ang^3
#
#
#
# Elastic Constant Matrix: (Units=GPa)
#
#
# Indices 1 2 3 4 5 6 
#
# 1 90.6373 22.1219 -0.4142 0.0000 8.8497 0.0000
# 2 22.1219 48.9161 2.8896 0.0000 -2.9990 0.0000
# 3 -0.4142 2.8896 27.8226 0.0000 5.8274 0.0000
# 4 0.0000 0.0000 0.0000 21.9988 0.0000 7.8907
# 5 8.8497 -2.9990 5.8274 0.0000 35.0275 0.0000
# 6 0.0000 0.0000 0.0000 7.8907 0.0000 32.8728
#
#
#
# Elastic Compliance Matrix: (Units=1/GPa)
#
#
# Indices 1 2 3 4 5 6 
#
# 1 0.012955 -0.006210 0.001694 0.000000 -0.004087 0.000000
# 2 -0.006210 0.023709 -0.003428 0.000000 0.004169 0.000000
# 3 0.001694 -0.003428 0.037791 0.000000 -0.007009 0.000000
# 4 0.000000 0.000000 0.000000 0.049740 0.000000 -0.011939
# 5 -0.004087 0.004169 -0.007009 0.000000 0.031104 0.000000
# 6 0.000000 0.000000 0.000000 -0.011939 0.000000 0.033286
#
#
# Mechanical properties :
#
#
# Convention : Reuss Voigt Hill
#
# Bulk Modulus (GPa) = 17.07411 24.06339 20.56875
# Shear Modulus (GPa) = 22.32177 27.49840 24.91009
#
# Velocity S-wave (km/s) = 3.38394 3.75589 3.57476
# Velocity P-wave (km/s) = 4.90175 5.58153 5.25264
#
# Compressibility (1/GPa) = 0.05856820
#
# Stress axis : x y z
#
# Youngs Moduli (GPa) = 77.18854 42.17727 26.46119
#
# Poissons Ratio (x) = 0.26190 -0.04482
# Poissons Ratio (y) = 0.47930 0.09071
# Poissons Ratio (z) = -0.13074 0.14459
#
# Static dielectric constant tensor:
#      x y z
#    x 1.701910 0.000000 0.005090 
#    y 0.000000 1.699870 0.000000 
#    z 0.005090 0.000000 1.680490 
# 
# From -- ./inp_files/219605.got.cif
#   From: 2010.05.17/outbox.cif.g08.bks.cpg/sg15_110_cif.got.tgz:219605.got - 2010.06.03 18:47:42.
