data_PCOD9301629
_publ_section_title
;
Structure prediction by ZEFSAII (Michael W. Deem and Ramdas Pophale) SiO2 
 PCOD9301629
Probable space group: C 2/C
;
_chemical_formula_sum "Si O2"
_cell_formula_units_Z 48
_cell_length_a 20.925695
_cell_length_b 6.060280
_cell_length_c 19.313722
_cell_angle_alpha 90.000000
_cell_angle_beta 70.075337
_cell_angle_gamma 90.000000
_cell_volume 2302.670471
_symmetry_space_group_name_H-M "C 2/C"
_symmetry_group_IT_number 15
_symmetry_cell_setting 'monoclinic'
loop_
_space_group_symop_operation_xyz
x,y,z
-x,y,1/2-z
-x,-y,-z
x,-y,1/2+z
1/2+x,1/2+y,z
1/2-x,1/2+y,1/2-z
1/2-x,1/2-y,-z
1/2+x,1/2-y,1/2+z
loop_
_atom_site_type_symbol
_atom_site_label
_atom_site_fract_x
_atom_site_fract_y
_atom_site_fract_z
Si Si1 0.987398 0.026388 0.391057
Si Si2 0.571335 0.134064 0.684342
Si Si3 0.163972 0.532056 0.850070
Si Si4 0.407856 0.744605 0.734339
Si Si5 0.192699 0.861312 0.720451
Si Si6 0.943599 0.307155 0.017492
O O1 0.033293 0.916096 0.314468
O O2 0.948015 0.831764 0.445511
O O3 0.038341 0.134320 0.428038
O O4 0.941436 0.229432 0.380941
O O5 0.500000 0.180724 0.750000
O O6 0.640369 0.229573 0.691294
O O7 0.578621 0.874162 0.699227
O O8 0.106581 0.418450 0.822269
O O9 0.229821 0.377844 0.832125
O O10 0.128682 0.592299 0.934859
O O11 0.187632 0.744757 0.797103
O O12 0.340043 0.602481 0.765679
O O13 0.000000 0.500000 0.000000
#
# Coordination Sequence:
#
# PCOD9301629 Si02
#       6
#     8   8   8   8   8   8
#     4  11  23  42  62  96 135 166 217 263 323 388
#     4  11  24  37  60  95 127 165 211 267 331 371
#     4  11  21  39  62  97 126 164 221 261 331 376
#     4  11  21  37  64  90 128 165 209 273 319 377
#     4  11  22  37  63  94 127 166 207 279 321 378
#     4  11  23  39  68  96 128 175 213 264 319 393
#
# _framework density 20.845359999999999
#
# number of rings (size 3 to 8) (size 9 to 14) (size 15 to 20)
#    0.000    1.000    6.667    1.000    2.333    0.000 
#    0.000    0.833    0.000    2.000    0.000    0.000 
#    0.000    0.000    0.000    0.000    0.000    0.000 
#
# Total GULP energy -133911.623155 kJ/mol
# GULP energy per Si atom -5579.650965 kJ/mol
# Density = 2.079792 g / cm^3
# Si number density = 20.845360 Si / 1000 Ang^3
#
#
#
# Elastic Constant Matrix: (Units=GPa)
#
#
# Indices 1 2 3 4 5 6 
#
# 1 99.3601 22.3013 36.6400 0.0001 -12.0447 0.0002
# 2 22.3013 83.5428 22.2876 0.0007 0.0662 0.0018
# 3 36.6400 22.2876 54.2895 0.0000 -6.5199 0.0001
# 4 0.0001 0.0007 0.0000 40.4870 0.0000 5.5794
# 5 -12.0447 0.0662 -6.5199 0.0000 34.6155 0.0001
# 6 0.0002 0.0018 0.0001 5.5794 0.0001 41.2702
#
#
#
# Elastic Compliance Matrix: (Units=1/GPa)
#
#
# Indices 1 2 3 4 5 6 
#
# 1 0.013876 -0.001474 -0.008369 0.000000 0.003255 0.000000
# 2 -0.001474 0.013639 -0.004777 0.000000 -0.001439 -0.000001
# 3 -0.008369 -0.004777 0.026275 0.000000 0.002046 0.000000
# 4 0.000000 0.000000 0.000000 0.025168 0.000000 -0.003403
# 5 0.003255 -0.001439 0.002046 0.000000 0.030409 0.000000
# 6 0.000000 -0.000001 0.000000 -0.003403 0.000000 0.024691
#
#
# Mechanical properties :
#
#
# Convention : Reuss Voigt Hill
#
# Bulk Modulus (GPa) = 40.73396 44.40561 42.56979
# Shear Modulus (GPa) = 29.15770 33.67210 31.41490
#
# Velocity S-wave (km/s) = 3.74406 4.02347 3.88628
# Velocity P-wave (km/s) = 6.18661 6.55234 6.37210
#
# Compressibility (1/GPa) = 0.02454954
#
# Stress axis : x y z
#
# Youngs Moduli (GPa) = 72.06748 73.31910 38.05923
#
# Poissons Ratio (x) = 0.10807 0.31851
# Poissons Ratio (y) = 0.10623 0.18182
# Poissons Ratio (z) = 0.60312 0.35026
#
# Static dielectric constant tensor:
#      x y z
#    x 1.749720 0.000000 0.037630 
#    y 0.000000 1.846520 0.000000 
#    z 0.037630 0.000000 1.770430 
# 
# From -- ./inp_files/250793.got.cif
#   From: 2010.05.17/outbox.cif.g08.bks.cpg/sg15_126_cif.got.tgz:250793.got - 2010.06.03 18:47:42.
