data_PCOD9301276
_publ_section_title
;
Structure prediction by ZEFSAII (Michael W. Deem and Ramdas Pophale) SiO2 
 PCOD9301276
Probable space group: C 2/C
;
_chemical_formula_sum "Si O2"
_cell_formula_units_Z 52
_cell_length_a 6.762805
_cell_length_b 22.190826
_cell_length_c 19.642628
_cell_angle_alpha 90.000000
_cell_angle_beta 118.547498
_cell_angle_gamma 90.000000
_cell_volume 2589.421546
_symmetry_space_group_name_H-M "C 2/C"
_symmetry_group_IT_number 15
_symmetry_cell_setting 'monoclinic'
loop_
_space_group_symop_operation_xyz
x,y,z
-x,y,1/2-z
-x,-y,-z
x,-y,1/2+z
1/2+x,1/2+y,z
1/2-x,1/2+y,1/2-z
1/2-x,1/2-y,-z
1/2+x,1/2-y,1/2+z
loop_
_atom_site_type_symbol
_atom_site_label
_atom_site_fract_x
_atom_site_fract_y
_atom_site_fract_z
Si Si1 0.138577 0.564200 0.658823
Si Si2 0.299122 0.358154 0.066170
Si Si3 0.930164 0.949035 0.663618
Si Si4 0.792828 0.338436 0.952441
Si Si5 0.786278 0.794167 0.406177
Si Si6 0.500000 0.867134 0.250000
Si Si7 0.119908 0.970061 0.083904
O O1 0.222303 0.620176 0.627767
O O2 0.261601 0.503955 0.655109
O O3 0.173906 0.587911 0.741155
O O4 0.873165 0.550218 0.609299
O O5 0.461045 0.301608 0.081627
O O6 0.460257 0.412851 0.070588
O O7 0.061224 0.349415 0.990071
O O8 0.826007 0.895936 0.600792
O O9 0.000000 0.925838 0.750000
O O10 0.111933 0.982506 0.645237
O O11 0.729900 0.275877 0.905706
O O12 0.732746 0.325312 0.022108
O O13 0.622496 0.826799 0.325949
O O14 0.000000 0.000000 0.000000
#
# Coordination Sequence:
#
# PCOD9301276 Si02
#       7
#     8   8   8   8   8   4   8
#     4  11  23  39  66  97 130 167 214 273 325 386
#     4  11  20  40  66  97 122 168 215 271 319 384
#     4  11  25  40  64  96 134 174 215 267 331 394
#     4  11  24  46  64  96 130 174 221 260 333 386
#     4  11  25  42  70  92 132 172 217 277 314 393
#     4  12  22  44  66  96 126 168 218 268 328 378
#     4  11  21  38  65  93 128 171 214 270 328 385
#
# _framework density 20.081704999999999
#
# number of rings (size 3 to 8) (size 9 to 14) (size 15 to 20)
#    0.000    0.923    3.077    4.154    3.231    2.462 
#    0.000    0.000    0.000    1.846    0.000    0.000 
#    0.000    0.000    0.000    0.000    0.000    0.000 
#
# Total GULP energy -145118.676549 kJ/mol
# GULP energy per Si atom -5581.487560 kJ/mol
# Density = 2.003600 g / cm^3
# Si number density = 20.081705 Si / 1000 Ang^3
#
#
#
# Elastic Constant Matrix: (Units=GPa)
#
#
# Indices 1 2 3 4 5 6 
#
# 1 105.2547 26.7090 26.4578 0.0000 -4.6860 0.0000
# 2 26.7090 120.3644 53.1250 0.0000 -10.2131 0.0000
# 3 26.4578 53.1250 102.1878 0.0000 -7.3147 0.0000
# 4 0.0000 0.0000 0.0000 44.8323 0.0000 -3.1153
# 5 -4.6860 -10.2131 -7.3147 0.0000 28.4131 0.0000
# 6 0.0000 0.0000 0.0000 -3.1153 0.0000 21.0451
#
#
#
# Elastic Compliance Matrix: (Units=1/GPa)
#
#
# Indices 1 2 3 4 5 6 
#
# 1 0.010367 -0.001398 -0.001906 0.000000 0.000716 0.000000
# 2 -0.001398 0.011145 -0.005259 0.000000 0.002422 0.000000
# 3 -0.001906 -0.005259 0.013097 0.000000 0.001167 0.000000
# 4 0.000000 0.000000 0.000000 0.022537 0.000000 0.003336
# 5 0.000716 0.002422 0.001167 0.000000 0.036484 0.000000
# 6 0.000000 0.000000 0.000000 0.003336 0.000000 0.048011
#
#
# Mechanical properties :
#
#
# Convention : Reuss Voigt Hill
#
# Bulk Modulus (GPa) = 57.19954 60.04337 58.62146
# Shear Modulus (GPa) = 30.37793 33.62578 32.00185
#
# Velocity S-wave (km/s) = 3.89359 4.09644 3.99630
# Velocity P-wave (km/s) = 6.98273 7.23456 7.10976
#
# Compressibility (1/GPa) = 0.01748266
#
# Stress axis : x y z
#
# Youngs Moduli (GPa) = 96.46398 89.72768 76.35536
#
# Poissons Ratio (x) = 0.12548 0.14551
# Poissons Ratio (y) = 0.13490 0.40152
# Poissons Ratio (z) = 0.18384 0.47183
#
# Static dielectric constant tensor:
#      x y z
#    x 1.732250 0.000000 -0.020930 
#    y 0.000000 1.741890 0.000000 
#    z -0.020930 0.000000 1.746670 
# 
# From -- ./inp_files/227960.got.cif
#   From: 2010.05.17/outbox.cif.g08.bks.cpg/sg15_114_cif.got.tgz:227960.got - 2010.06.03 18:47:42.
