data_PCOD9301778
_publ_section_title
;
Structure prediction by ZEFSAII (Michael W. Deem and Ramdas Pophale) SiO2 
 PCOD9301778
Probable space group: C 2/C
;
_chemical_formula_sum "Si O2"
_cell_formula_units_Z 28
_cell_length_a 16.563413
_cell_length_b 7.007800
_cell_length_c 19.662273
_cell_angle_alpha 90.000000
_cell_angle_beta 27.882860
_cell_angle_gamma 90.000000
_cell_volume 1067.334397
_symmetry_space_group_name_H-M "C 2/C"
_symmetry_group_IT_number 15
_symmetry_cell_setting 'monoclinic'
loop_
_space_group_symop_operation_xyz
x,y,z
-x,y,1/2-z
-x,-y,-z
x,-y,1/2+z
1/2+x,1/2+y,z
1/2-x,1/2+y,1/2-z
1/2-x,1/2-y,-z
1/2+x,1/2-y,1/2+z
loop_
_atom_site_type_symbol
_atom_site_label
_atom_site_fract_x
_atom_site_fract_y
_atom_site_fract_z
Si Si1 0.897441 0.619559 0.631864
Si Si2 0.648867 0.026485 0.183070
Si Si3 0.514424 0.472255 0.384728
Si Si4 0.000000 0.840910 0.750000
O O1 0.908451 0.521549 0.698047
O O2 0.694362 0.629918 0.765336
O O3 0.972837 0.830884 0.582438
O O4 0.000000 0.500000 0.500000
O O5 0.500000 0.125970 0.250000
O O6 0.655598 0.814217 0.142499
O O7 0.833992 0.123180 0.038981
O O8 0.502174 0.534404 0.315557
#
# Coordination Sequence:
#
# PCOD9301778 Si02
#       4
#     8   8   8   4
#     4  11  23  36  60  92 122 157 200 245 300 354
#     4   9  20  35  61  86 120 153 201 242 293 342
#     4  11  21  39  63  92 121 154 197 251 300 356
#     4   8  18  32  62  88 110 148 204 240 290 346
#
# _framework density 26.233578000000001
#
# number of rings (size 3 to 8) (size 9 to 14) (size 15 to 20)
#    0.857    1.143    0.000    5.143    4.000    0.000 
#    0.000    0.000    3.143    3.429    0.000    0.000 
#    0.000    0.000    0.000    0.000    0.000    0.000 
#
# Total GULP energy -78486.522281 kJ/mol
# GULP energy per Si atom -5606.180163 kJ/mol
# Density = 2.617387 g / cm^3
# Si number density = 26.233578 Si / 1000 Ang^3
#
#
#
# Elastic Constant Matrix: (Units=GPa)
#
#
# Indices 1 2 3 4 5 6 
#
# 1 182.2380 26.9852 69.2539 -0.0002 -8.9460 0.0001
# 2 26.9852 82.1877 21.5075 -0.0004 -3.8124 0.0004
# 3 69.2539 21.5075 172.5308 -0.0003 -41.8161 0.0002
# 4 -0.0002 -0.0004 -0.0003 32.5643 0.0002 8.6400
# 5 -8.9460 -3.8124 -41.8161 0.0002 42.5586 -0.0001
# 6 0.0001 0.0004 0.0002 8.6400 -0.0001 26.6720
#
#
#
# Elastic Compliance Matrix: (Units=1/GPa)
#
#
# Indices 1 2 3 4 5 6 
#
# 1 0.006736 -0.001527 -0.002892 0.000000 -0.001563 0.000000
# 2 -0.001527 0.012933 -0.001045 0.000000 -0.000189 0.000000
# 3 -0.002892 -0.001045 0.009079 0.000000 0.008219 0.000000
# 4 0.000000 0.000000 0.000000 0.033596 0.000000 -0.010883
# 5 -0.001563 -0.000189 0.008219 0.000000 0.031228 0.000000
# 6 0.000000 0.000000 0.000000 -0.010883 0.000000 0.041018
#
#
# Mechanical properties :
#
#
# Convention : Reuss Voigt Hill
#
# Bulk Modulus (GPa) = 56.11768 74.71662 65.41715
# Shear Modulus (GPa) = 33.01226 41.63965 37.32595
#
# Velocity S-wave (km/s) = 3.55124 3.98837 3.77614
# Velocity P-wave (km/s) = 6.18490 7.05355 6.63346
#
# Compressibility (1/GPa) = 0.01781970
#
# Stress axis : x y z
#
# Youngs Moduli (GPa) = 148.45993 77.31897 110.14000
#
# Poissons Ratio (x) = 0.11809 0.31853
# Poissons Ratio (y) = 0.22674 0.11511
# Poissons Ratio (z) = 0.42936 0.08081
#
# Static dielectric constant tensor:
#      x y z
#    x 2.053730 0.000000 -0.024970 
#    y 0.000000 2.070960 0.000000 
#    z -0.024970 0.000000 2.036260 
# 
# From -- ./inp_files/36339.got.cif
#   From: 2010.05.17/outbox.cif.g08.bks.cpg/sg15_19_cif.got.tgz:36339.got - 2010.06.03 18:47:42.
