data_PCOD9301551
_publ_section_title
;
Structure prediction by ZEFSAII (Michael W. Deem and Ramdas Pophale) SiO2 
 PCOD9301551
Probable space group: C 2/C
;
_chemical_formula_sum "Si O2"
_cell_formula_units_Z 48
_cell_length_a 26.253206
_cell_length_b 5.077802
_cell_length_c 15.178982
_cell_angle_alpha 90.000000
_cell_angle_beta 107.981097
_cell_angle_gamma 90.000000
_cell_volume 1924.658177
_symmetry_space_group_name_H-M "C 2/C"
_symmetry_group_IT_number 15
_symmetry_cell_setting 'monoclinic'
loop_
_space_group_symop_operation_xyz
x,y,z
-x,y,1/2-z
-x,-y,-z
x,-y,1/2+z
1/2+x,1/2+y,z
1/2-x,1/2+y,1/2-z
1/2-x,1/2-y,-z
1/2+x,1/2-y,1/2+z
loop_
_atom_site_type_symbol
_atom_site_label
_atom_site_fract_x
_atom_site_fract_y
_atom_site_fract_z
Si Si1 0.315095 0.683550 0.289338
Si Si2 0.277532 0.174391 0.375749
Si Si3 0.412224 0.564465 0.660217
Si Si4 0.860975 0.546701 0.556697
Si Si5 0.423625 0.143587 0.915360
Si Si6 0.475181 0.365155 0.374925
O O1 0.309335 0.398687 0.334874
O O2 0.285020 0.717610 0.180006
O O3 0.374456 0.796076 0.323344
O O4 0.284826 0.886512 0.337230
O O5 0.304707 0.146962 0.485553
O O6 0.390103 0.281141 0.622366
O O7 0.464883 0.608195 0.628216
O O8 0.435990 0.595803 0.769861
O O9 0.366203 0.781269 0.616557
O O10 0.895173 0.465861 0.487427
O O11 0.454789 0.417924 0.933271
O O12 0.463836 0.926218 0.901901
#
# Coordination Sequence:
#
# PCOD9301551 Si02
#       6
#     8   8   8   8   8   8
#     4   9  17  31  53  82 113 141 173 220 277 330
#     4   9  17  31  53  82 113 141 173 220 277 330
#     4  11  24  40  56  77 112 155 187 219 278 342
#     4  11  21  36  60  87 110 138 187 239 272 311
#     4  11  21  36  60  87 110 138 187 239 272 311
#     4  11  24  40  56  77 112 155 187 219 278 342
#
# _framework density 24.939494
#
# number of rings (size 3 to 8) (size 9 to 14) (size 15 to 20)
#    0.000    1.667    0.000    7.000    0.000    6.667 
#    0.000    0.000    0.000    6.000    0.000    0.000 
#    0.000    0.000    0.000    0.000    0.000    0.000 
#
# Total GULP energy -134262.564565 kJ/mol
# GULP energy per Si atom -5594.273524 kJ/mol
# Density = 2.488273 g / cm^3
# Si number density = 24.939494 Si / 1000 Ang^3
#
#
#
# Elastic Constant Matrix: (Units=GPa)
#
#
# Indices 1 2 3 4 5 6 
#
# 1 58.2757 17.3572 23.1156 0.0000 10.8105 0.0000
# 2 17.3572 117.1069 49.5601 0.0000 20.0117 0.0000
# 3 23.1156 49.5601 146.0239 0.0000 20.1155 0.0000
# 4 0.0000 0.0000 0.0000 10.5394 0.0000 -5.9483
# 5 10.8105 20.0117 20.1155 0.0000 29.0209 0.0000
# 6 0.0000 0.0000 0.0000 -5.9483 0.0000 0.0035
#
#
#
# Elastic Compliance Matrix: (Units=1/GPa)
#
#
# Indices 1 2 3 4 5 6 
#
# 1 0.019210 -0.001165 -0.001957 0.000000 -0.004996 0.000000
# 2 -0.001165 0.010747 -0.002766 0.000000 -0.005059 0.000000
# 3 -0.001957 -0.002766 0.008550 0.000000 -0.003290 0.000000
# 4 0.000000 0.000000 0.000000 -0.000100 0.000000 -0.168294
# 5 -0.004996 -0.005059 -0.003290 0.000000 0.042088 0.000000
# 6 0.000000 0.000000 0.000000 -0.168294 0.000000 -0.298190
#
#
# Mechanical properties :
#
#
# Convention : Reuss Voigt Hill
#
# Bulk Modulus (GPa) = 37.41132 55.71916 46.56524
# Shear Modulus (GPa) = -25.37973 23.33766 -1.02103
#
# Velocity S-wave (km/s) = -3.19353 3.06236 -0.64054
# Velocity P-wave (km/s) = 1.19802 5.90714 4.26201
#
# Compressibility (1/GPa) = 0.02672988
#
# Stress axis : x y z
#
# Youngs Moduli (GPa) = 52.05625 93.04809 116.95860
#
# Poissons Ratio (x) = 0.10842 0.22892
# Poissons Ratio (y) = 0.06066 0.32352
# Poissons Ratio (z) = 0.10189 0.25738
#
# Static dielectric constant tensor:
#      x y z
#    x 2.008540 0.000000 0.076420 
#    y 0.000000 1.892840 0.000000 
#    z 0.076420 0.000000 2.137720 
# 
# From -- ./inp_files/179783.got.cif
#   From: 2010.05.17/outbox.cif.g08.bks.cpg/sg15_90_cif.got.tgz:179783.got - 2010.06.03 18:47:42.
