data_PCOD9301448
_publ_section_title
;
Structure prediction by ZEFSAII (Michael W. Deem and Ramdas Pophale) SiO2 
 PCOD9301448
Probable space group: C 2/C
;
_chemical_formula_sum "Si O2"
_cell_formula_units_Z 64
_cell_length_a 22.294019
_cell_length_b 24.922121
_cell_length_c 8.327000
_cell_angle_alpha 90.000000
_cell_angle_beta 139.157203
_cell_angle_gamma 90.000000
_cell_volume 3025.730820
_symmetry_space_group_name_H-M "C 2/C"
_symmetry_group_IT_number 15
_symmetry_cell_setting 'monoclinic'
loop_
_space_group_symop_operation_xyz
x,y,z
-x,y,1/2-z
-x,-y,-z
x,-y,1/2+z
1/2+x,1/2+y,z
1/2-x,1/2+y,1/2-z
1/2-x,1/2-y,-z
1/2+x,1/2-y,1/2+z
loop_
_atom_site_type_symbol
_atom_site_label
_atom_site_fract_x
_atom_site_fract_y
_atom_site_fract_z
Si Si1 0.495390 0.060485 0.049661
Si Si2 0.659545 0.557961 0.622493
Si Si3 0.904255 0.657523 0.955049
Si Si4 0.860181 0.943718 0.779978
Si Si5 0.680619 0.879649 0.904100
Si Si6 0.926479 0.774450 0.951706
Si Si7 0.528089 0.368903 0.028214
Si Si8 0.804853 0.147065 0.385921
O O1 0.500000 0.053448 0.250000
O O2 0.411909 0.103486 0.864089
O O3 0.584670 0.092484 0.169703
O O4 0.500000 0.000000 0.000000
O O5 0.621699 0.501765 0.609704
O O6 0.682512 0.551867 0.483082
O O7 0.585456 0.605505 0.498255
O O8 0.746760 0.574053 0.905050
O O9 0.831034 0.652364 0.951009
O O10 0.901622 0.713605 0.857669
O O11 0.000000 0.659348 0.250000
O O12 0.797790 0.907151 0.768157
O O13 0.955085 0.911780 0.946490
O O14 0.720728 0.846103 0.837278
O O15 0.835866 0.804911 0.832714
O O16 0.000000 0.772497 0.250000
O O17 0.974409 0.812278 0.915544
O O18 0.606704 0.361694 0.321274
#
# Coordination Sequence:
#
# PCOD9301448 Si02
#       8
#     8   8   8   8   8   8   8   8
#     4   9  19  35  56  76  99 128 164 209 255 304
#     4  11  21  31  48  72 102 138 172 210 251 291
#     4   8  16  31  53  76  98 124 161 210 256 299
#     4  11  21  32  46  70 104 141 173 203 245 297
#     4   9  19  34  49  77 103 125 167 209 255 307
#     4   8  14  28  50  75 100 129 164 203 248 294
#     4   9  18  32  49  71 100 135 173 205 239 297
#     4   9  18  31  50  74 103 133 165 208 249 292
#
# _framework density 21.151914000000001
#
# number of rings (size 3 to 8) (size 9 to 14) (size 15 to 20)
#    0.000    3.000    0.000    3.375    0.000    5.500 
#    0.000    1.250    0.000    6.000    0.000    7.000 
#    0.000    0.000    0.000    0.000    0.000    0.000 
#
# Total GULP energy -178293.893028 kJ/mol
# GULP energy per Si atom -5571.684157 kJ/mol
# Density = 2.110377 g / cm^3
# Si number density = 21.151914 Si / 1000 Ang^3
#
#
#
# Elastic Constant Matrix: (Units=GPa)
#
#
# Indices 1 2 3 4 5 6 
#
# 1 116.0557 57.3759 7.9406 0.0000 3.2014 0.0000
# 2 57.3759 164.6059 -0.5523 0.0000 -10.9789 0.0000
# 3 7.9406 -0.5523 8.5193 0.0000 -1.2456 0.0000
# 4 0.0000 0.0000 0.0000 12.1722 0.0000 -9.9940
# 5 3.2014 -10.9789 -1.2456 0.0000 19.0512 0.0000
# 6 0.0000 0.0000 0.0000 -9.9940 0.0000 8.4535
#
#
#
# Elastic Compliance Matrix: (Units=1/GPa)
#
#
# Indices 1 2 3 4 5 6 
#
# 1 0.011830 -0.004523 -0.012107 0.000000 -0.005386 0.000000
# 2 -0.004523 0.008055 0.005581 0.000000 0.005767 0.000000
# 3 -0.012107 0.005581 0.131047 0.000000 0.013819 0.000000
# 4 0.000000 0.000000 0.000000 2.801704 0.000000 3.312270
# 5 -0.005386 0.005767 0.013819 0.000000 0.057622 0.000000
# 6 0.000000 0.000000 0.000000 3.312270 0.000000 4.034174
#
#
# Mechanical properties :
#
#
# Convention : Reuss Voigt Hill
#
# Bulk Modulus (GPa) = 7.76191 46.52326 27.14258
# Shear Modulus (GPa) = 0.70329 22.89650 11.79989
#
# Velocity S-wave (km/s) = 0.57725 3.29367 2.36448
# Velocity P-wave (km/s) = 2.03023 6.04210 4.50715
#
# Compressibility (1/GPa) = 0.12883433
#
# Stress axis : x y z
#
# Youngs Moduli (GPa) = 84.53289 124.14416 7.63086
#
# Poissons Ratio (x) = 0.56154 0.09239
# Poissons Ratio (y) = 0.38237 -0.04259
# Poissons Ratio (z) = 1.02342 -0.69289
#
# Static dielectric constant tensor:
#      x y z
#    x 1.806420 0.000000 0.006780 
#    y 0.000000 1.814320 0.000000 
#    z 0.006780 0.000000 1.812400 
# 
# From -- ./inp_files/58637.got.cif
#   From: 2010.05.17/outbox.cif.g08.bks.cpg/sg15_30_cif.got.tgz:58637.got - 2010.06.03 18:47:42.
