data_PCOD9301966
_publ_section_title
;
Structure prediction by ZEFSAII (Michael W. Deem and Ramdas Pophale) SiO2 
 PCOD9301966
Probable space group: C 2/C
;
_chemical_formula_sum "Si O2"
_cell_formula_units_Z 44
_cell_length_a 10.896820
_cell_length_b 9.721021
_cell_length_c 18.615751
_cell_angle_alpha 90.000000
_cell_angle_beta 114.700729
_cell_angle_gamma 90.000000
_cell_volume 1791.507039
_symmetry_space_group_name_H-M "C 2/C"
_symmetry_group_IT_number 15
_symmetry_cell_setting 'monoclinic'
loop_
_space_group_symop_operation_xyz
x,y,z
-x,y,1/2-z
-x,-y,-z
x,-y,1/2+z
1/2+x,1/2+y,z
1/2-x,1/2+y,1/2-z
1/2-x,1/2-y,-z
1/2+x,1/2-y,1/2+z
loop_
_atom_site_type_symbol
_atom_site_label
_atom_site_fract_x
_atom_site_fract_y
_atom_site_fract_z
Si Si1 0.000000 0.244794 0.250000
Si Si2 0.014098 0.615390 0.601606
Si Si3 0.763673 0.557889 0.056948
Si Si4 0.710010 0.551195 0.342630
Si Si5 0.094438 0.190416 0.886447
Si Si6 0.119640 0.225131 0.554983
O O1 0.017224 0.332548 0.326013
O O2 0.133418 0.151859 0.269607
O O3 0.902407 0.499723 0.556962
O O4 0.983593 0.732808 0.534370
O O5 0.159938 0.543970 0.639280
O O6 0.821025 0.679136 0.122077
O O7 0.679891 0.427539 0.063779
O O8 0.674752 0.630734 0.975015
O O9 0.596915 0.441677 0.337696
O O10 0.761980 0.660568 0.415542
O O11 0.952167 0.233999 0.884913
#
# Coordination Sequence:
#
# PCOD9301966 Si02
#       6
#     4   8   8   8   8   8
#     4  12  30  50  68  98 150 204 234 276 362 434
#     4  12  24  48  75 104 144 188 238 294 350 424
#     4  11  21  40  70 110 141 177 224 295 359 413
#     4  12  26  49  72 105 143 186 240 299 354 420
#     4  11  24  40  71 117 141 171 234 303 362 409
#     4  12  23  45  80 109 140 181 236 306 357 412
#
# _framework density 24.560327999999998
#
# number of rings (size 3 to 8) (size 9 to 14) (size 15 to 20)
#    0.000    0.364    5.455    4.909    0.000    2.909 
#    6.545    0.000    0.000    0.000    0.000    0.000 
#    0.000    0.000    0.000    0.000    0.000    0.000 
#
# Total GULP energy -122888.635320 kJ/mol
# GULP energy per Si atom -5585.847060 kJ/mol
# Density = 2.450443 g / cm^3
# Si number density = 24.560328 Si / 1000 Ang^3
#
#
#
# Elastic Constant Matrix: (Units=GPa)
#
#
# Indices 1 2 3 4 5 6 
#
# 1 73.5256 27.9251 15.2242 0.0000 9.4798 0.0000
# 2 27.9251 151.3452 13.6788 0.0000 -2.7834 0.0000
# 3 15.2242 13.6788 49.1789 0.0000 11.0598 0.0000
# 4 0.0000 0.0000 0.0000 15.2992 0.0000 9.6065
# 5 9.4798 -2.7834 11.0598 0.0000 24.5165 0.0000
# 6 0.0000 0.0000 0.0000 9.6065 0.0000 53.6361
#
#
#
# Elastic Compliance Matrix: (Units=1/GPa)
#
#
# Indices 1 2 3 4 5 6 
#
# 1 0.015933 -0.002762 -0.003014 0.000000 -0.005115 0.000000
# 2 -0.002762 0.007329 -0.001793 0.000000 0.002709 0.000000
# 3 -0.003014 -0.001793 0.023982 0.000000 -0.009857 0.000000
# 4 0.000000 0.000000 0.000000 0.073645 0.000000 -0.013190
# 5 -0.005115 0.002709 -0.009857 0.000000 0.047521 0.000000
# 6 0.000000 0.000000 0.000000 -0.013190 0.000000 0.021007
#
#
# Mechanical properties :
#
#
# Convention : Reuss Voigt Hill
#
# Bulk Modulus (GPa) = 31.14525 43.07844 37.11184
# Shear Modulus (GPa) = 23.22821 33.17180 28.20000
#
# Velocity S-wave (km/s) = 3.07866 3.67907 3.39218
# Velocity P-wave (km/s) = 5.03450 5.96870 5.52139
#
# Compressibility (1/GPa) = 0.03210763
#
# Stress axis : x y z
#
# Youngs Moduli (GPa) = 62.76254 136.44824 41.69745
#
# Poissons Ratio (x) = 0.37680 0.12568
# Poissons Ratio (y) = 0.17332 0.07475
# Poissons Ratio (z) = 0.18917 0.24461
#
# Static dielectric constant tensor:
#      x y z
#    x 2.059570 0.000000 0.057070 
#    y 0.000000 1.954560 0.000000 
#    z 0.057070 0.000000 2.014160 
# 
# From -- ./inp_files/268140.got.cif
#   From: 2010.05.17/outbox.cif.g08.bks.cpg/sg15_135_cif.got.tgz:268140.got - 2010.06.03 18:47:42.
