data_PCOD9301613
_publ_section_title
;
Structure prediction by ZEFSAII (Michael W. Deem and Ramdas Pophale) SiO2 
 PCOD9301613
Probable space group: C 2/C
;
_chemical_formula_sum "Si O2"
_cell_formula_units_Z 60
_cell_length_a 23.144262
_cell_length_b 18.948920
_cell_length_c 22.525438
_cell_angle_alpha 90.000000
_cell_angle_beta 18.910398
_cell_angle_gamma 90.000000
_cell_volume 3201.588261
_symmetry_space_group_name_H-M "C 2/C"
_symmetry_group_IT_number 15
_symmetry_cell_setting 'monoclinic'
loop_
_space_group_symop_operation_xyz
x,y,z
-x,y,1/2-z
-x,-y,-z
x,-y,1/2+z
1/2+x,1/2+y,z
1/2-x,1/2+y,1/2-z
1/2-x,1/2-y,-z
1/2+x,1/2-y,1/2+z
loop_
_atom_site_type_symbol
_atom_site_label
_atom_site_fract_x
_atom_site_fract_y
_atom_site_fract_z
Si Si1 0.000000 0.075358 0.750000
Si Si2 0.621922 0.685086 0.530685
Si Si3 0.474695 0.326961 0.507425
Si Si4 0.980566 0.456975 0.439737
Si Si5 0.467431 0.838328 0.897313
Si Si6 0.364450 0.983576 0.935524
Si Si7 0.797409 0.971840 0.692934
Si Si8 0.620246 0.829950 0.377723
O O1 0.053868 0.128768 0.644294
O O2 0.163903 0.025037 0.607899
O O3 0.508883 0.681974 0.579758
O O4 0.615264 0.768109 0.552725
O O5 0.822546 0.667362 0.317578
O O6 0.332518 0.388331 0.655842
O O7 0.414367 0.253486 0.594724
O O8 0.672355 0.345723 0.335893
O O9 0.910862 0.459563 0.440866
O O10 0.822688 0.491070 0.633213
O O11 0.167174 0.500111 0.267143
O O12 0.014531 0.381014 0.436433
O O13 0.399768 0.908119 0.931936
O O14 0.424931 0.842318 0.008762
O O15 0.500000 0.992461 0.750000
O O16 0.000000 0.000000 0.500000
#
# Coordination Sequence:
#
# PCOD9301613 Si02
#       8
#     4   8   8   8   8   8   8   8
#     4  12  26  40  56  82 114 170 220 252 296 356
#     4  11  22  34  57  81 122 164 205 248 294 359
#     4  11  21  37  62  95 128 160 201 249 312 382
#     4  11  24  41  61  89 128 165 204 260 308 371
#     4  11  21  38  55  85 119 160 203 253 303 362
#     4  12  26  42  59  80 118 161 217 259 301 357
#     4  11  22  37  63  95 126 161 199 249 324 379
#     4  11  21  39  61  93 128 161 201 253 312 379
#
# _framework density 18.740698999999999
#
# number of rings (size 3 to 8) (size 9 to 14) (size 15 to 20)
#    0.000    0.800    2.667    8.800    2.800    1.067 
#    0.000    0.000    0.000    0.000    0.000    3.733 
#    0.000    0.000    0.000    0.000    0.000    0.000 
#
# Total GULP energy -167656.454275 kJ/mol
# GULP energy per Si atom -5588.548476 kJ/mol
# Density = 1.869804 g / cm^3
# Si number density = 18.740699 Si / 1000 Ang^3
#
#
#
# Elastic Constant Matrix: (Units=GPa)
#
#
# Indices 1 2 3 4 5 6 
#
# 1 88.9105 42.7432 39.6440 -0.0060 -7.2988 0.0018
# 2 42.7432 86.3551 43.3242 -0.0098 -5.9116 0.0018
# 3 39.6440 43.3242 114.1589 -0.0193 -14.9056 0.0047
# 4 -0.0060 -0.0098 -0.0193 22.9457 0.0004 -7.9617
# 5 -7.2988 -5.9116 -14.9056 0.0004 25.9943 -0.0005
# 6 0.0018 0.0018 0.0047 -7.9617 -0.0005 20.2830
#
#
#
# Elastic Compliance Matrix: (Units=1/GPa)
#
#
# Indices 1 2 3 4 5 6 
#
# 1 0.015625 -0.006185 -0.002907 -0.000001 0.001314 -0.000001
# 2 -0.006185 0.016753 -0.004258 0.000002 -0.000368 0.000001
# 3 -0.002907 -0.004258 0.012055 0.000008 0.005128 0.000001
# 4 -0.000001 0.000002 0.000008 0.050453 0.000004 0.019804
# 5 0.001314 -0.000368 0.005128 0.000004 0.041695 0.000001
# 6 -0.000001 0.000001 0.000001 0.019804 0.000001 0.057076
#
#
# Mechanical properties :
#
#
# Convention : Reuss Voigt Hill
#
# Bulk Modulus (GPa) = 56.39706 60.09413 58.24560
# Shear Modulus (GPa) = 22.09769 24.75881 23.42825
#
# Velocity S-wave (km/s) = 3.43757 3.63867 3.53955
# Velocity P-wave (km/s) = 6.77603 7.05613 6.91750
#
# Compressibility (1/GPa) = 0.01773142
#
# Stress axis : x y z
#
# Youngs Moduli (GPa) = 64.00015 59.69206 82.95508
#
# Poissons Ratio (x) = 0.36922 0.24116
# Poissons Ratio (y) = 0.39587 0.35321
# Poissons Ratio (z) = 0.18606 0.25416
#
# Static dielectric constant tensor:
#      x y z
#    x 1.666940 0.000000 -0.024700 
#    y 0.000000 1.703860 0.000020 
#    z -0.024700 0.000020 1.669140 
# 
# From -- ./inp_files/253518.got.cif
#   From: 2010.05.17/outbox.cif.g08.bks.cpg/sg15_127_cif.got.tgz:253518.got - 2010.06.03 18:47:42.
