data_PCOD9301735
_publ_section_title
;
Structure prediction by ZEFSAII (Michael W. Deem and Ramdas Pophale) SiO2 
 PCOD9301735
Probable space group: C 2/C
;
_chemical_formula_sum "Si O2"
_cell_formula_units_Z 60
_cell_length_a 27.978670
_cell_length_b 10.695874
_cell_length_c 18.709121
_cell_angle_alpha 90.000000
_cell_angle_beta 147.006502
_cell_angle_gamma 90.000000
_cell_volume 3048.804606
_symmetry_space_group_name_H-M "C 2/C"
_symmetry_group_IT_number 15
_symmetry_cell_setting 'monoclinic'
loop_
_space_group_symop_operation_xyz
x,y,z
-x,y,1/2-z
-x,-y,-z
x,-y,1/2+z
1/2+x,1/2+y,z
1/2-x,1/2+y,1/2-z
1/2-x,1/2-y,-z
1/2+x,1/2-y,1/2+z
loop_
_atom_site_type_symbol
_atom_site_label
_atom_site_fract_x
_atom_site_fract_y
_atom_site_fract_z
Si Si1 0.225019 0.423635 0.235684
Si Si2 0.483193 0.127698 0.522078
Si Si3 0.413224 0.041815 0.048688
Si Si4 0.335174 0.208212 0.702249
Si Si5 0.306153 0.346391 0.024043
Si Si6 0.000000 0.738071 0.250000
Si Si7 0.777614 0.433696 0.993601
Si Si8 0.203511 0.693083 0.247896
O O1 0.213862 0.384308 0.303663
O O2 0.235189 0.572576 0.241044
O O3 0.289658 0.326797 0.280781
O O4 0.137809 0.395315 0.080924
O O5 0.567534 0.213120 0.642098
O O6 0.400694 0.179379 0.374976
O O7 0.500000 0.000000 0.500000
O O8 0.453037 0.082704 0.563629
O O9 0.483063 0.141073 0.164153
O O10 0.343317 0.008359 0.023350
O O11 0.282289 0.336852 0.626249
O O12 0.333662 0.144099 0.622319
O O13 0.409896 0.314946 0.148803
O O14 0.284581 0.476422 0.036886
O O15 0.250000 0.250000 0.000000
O O16 0.261521 0.326091 0.890818
#
# Coordination Sequence:
#
# PCOD9301735 Si02
#       8
#     8   8   8   8   8   4   8   8
#     4  11  21  41  66  91 131 174 225 272 342 405
#     4  11  21  38  66  99 128 169 234 284 329 409
#     4  11  22  40  66  96 129 178 237 274 327 416
#     4  11  22  39  67  94 132 179 218 284 350 407
#     4  12  24  43  67  95 137 180 228 288 346 415
#     4  12  24  38  70  98 128 180 234 274 346 418
#     4  11  23  44  63  96 141 179 220 282 357 404
#     4  11  23  41  66  96 129 179 220 286 345 404
#
# _framework density 19.679843000000002
#
# number of rings (size 3 to 8) (size 9 to 14) (size 15 to 20)
#    0.000    0.800    6.667    2.400    1.867    0.000 
#    2.400    0.000    0.000    3.200    0.000    0.000 
#    0.000    0.000    0.000    0.000    0.000    0.000 
#
# Total GULP energy -167159.245277 kJ/mol
# GULP energy per Si atom -5571.974843 kJ/mol
# Density = 1.963505 g / cm^3
# Si number density = 19.679843 Si / 1000 Ang^3
#
#
#
# Elastic Constant Matrix: (Units=GPa)
#
#
# Indices 1 2 3 4 5 6 
#
# 1 76.3272 9.1854 38.6668 0.0000 -1.4112 0.0000
# 2 9.1854 54.3740 33.2855 0.0000 2.6938 0.0000
# 3 38.6668 33.2855 140.1751 0.0000 6.8771 0.0000
# 4 0.0000 0.0000 0.0000 37.9692 0.0000 2.5373
# 5 -1.4112 2.6938 6.8771 0.0000 35.4563 0.0000
# 6 0.0000 0.0000 0.0000 2.5373 0.0000 39.6147
#
#
#
# Elastic Compliance Matrix: (Units=1/GPa)
#
#
# Indices 1 2 3 4 5 6 
#
# 1 0.015302 -0.000034 -0.004284 0.000000 0.001443 0.000000
# 2 -0.000034 0.021534 -0.005072 0.000000 -0.000654 0.000000
# 3 -0.004284 -0.005072 0.009601 0.000000 -0.001647 0.000000
# 4 0.000000 0.000000 0.000000 0.026450 0.000000 -0.001694
# 5 0.001443 -0.000654 -0.001647 0.000000 0.028630 0.000000
# 6 0.000000 0.000000 0.000000 -0.001694 0.000000 0.025352
#
#
# Mechanical properties :
#
#
# Convention : Reuss Voigt Hill
#
# Bulk Modulus (GPa) = 36.15648 48.12797 42.14222
# Shear Modulus (GPa) = 32.28545 35.25727 33.77136
#
# Velocity S-wave (km/s) = 4.05474 4.23725 4.14700
# Velocity P-wave (km/s) = 6.35087 6.96043 6.66262
#
# Compressibility (1/GPa) = 0.02765756
#
# Stress axis : x y z
#
# Youngs Moduli (GPa) = 65.34923 46.43798 104.15823
#
# Poissons Ratio (x) = 0.00159 0.44619
# Poissons Ratio (y) = 0.00223 0.52828
# Poissons Ratio (z) = 0.27994 0.23553
#
# Static dielectric constant tensor:
#      x y z
#    x 1.917810 0.000000 -0.010850 
#    y 0.000000 1.742230 0.000000 
#    z -0.010850 0.000000 1.746690 
# 
# From -- ./inp_files/222562.got.cif
#   From: 2010.05.17/outbox.cif.g08.bks.cpg/sg15_112_cif.got.tgz:222562.got - 2010.06.03 18:47:42.
