data_PCOD9301412
_publ_section_title
;
Structure prediction by ZEFSAII (Michael W. Deem and Ramdas Pophale) SiO2 
 PCOD9301412
Probable space group: C 2/C
;
_chemical_formula_sum "Si O2"
_cell_formula_units_Z 60
_cell_length_a 16.021463
_cell_length_b 11.246374
_cell_length_c 17.317745
_cell_angle_alpha 90.000000
_cell_angle_beta 66.220415
_cell_angle_gamma 90.000000
_cell_volume 2855.460789
_symmetry_space_group_name_H-M "C 2/C"
_symmetry_group_IT_number 15
_symmetry_cell_setting 'monoclinic'
loop_
_space_group_symop_operation_xyz
x,y,z
-x,y,1/2-z
-x,-y,-z
x,-y,1/2+z
1/2+x,1/2+y,z
1/2-x,1/2+y,1/2-z
1/2-x,1/2-y,-z
1/2+x,1/2-y,1/2+z
loop_
_atom_site_type_symbol
_atom_site_label
_atom_site_fract_x
_atom_site_fract_y
_atom_site_fract_z
Si Si1 0.421584 0.017142 0.367979
Si Si2 0.299167 0.058964 0.041745
Si Si3 0.527001 0.253121 0.077685
Si Si4 0.000000 0.146877 0.250000
Si Si5 0.918980 0.391585 0.095458
Si Si6 0.149837 0.344399 0.222282
Si Si7 0.156013 0.184511 0.927479
Si Si8 0.401216 0.488045 0.914492
O O1 0.454661 0.151518 0.365536
O O2 0.327783 0.002667 0.451087
O O3 0.491438 0.934603 0.391602
O O4 0.400669 0.962015 0.292649
O O5 0.319901 0.198239 0.031675
O O6 0.194120 0.029696 0.095575
O O7 0.366935 0.003818 0.079347
O O8 0.421256 0.283507 0.105584
O O9 0.579508 0.374655 0.075412
O O10 0.557206 0.194820 0.984105
O O11 0.087410 0.233847 0.219720
O O12 0.017605 0.067403 0.167558
O O13 0.853334 0.338672 0.184580
O O14 0.250296 0.345287 0.150341
O O15 0.115101 0.086156 0.000620
#
# Coordination Sequence:
#
# PCOD9301412 Si02
#       8
#     8   8   8   4   8   8   8   8
#     4  11  20  43  72  97 127 177 234 280 335 400
#     4  11  21  41  70  96 129 178 232 275 330 410
#     4  11  25  45  70  97 143 179 222 281 349 407
#     4  12  24  40  68  96 136 170 232 284 322 408
#     4  11  22  42  69 100 135 175 234 287 329 399
#     4  12  24  41  73 100 128 178 238 278 331 404
#     4  12  22  44  68  97 131 183 228 272 329 419
#     4  12  26  43  67 102 141 184 218 278 360 400
#
# _framework density 21.012370000000001
#
# number of rings (size 3 to 8) (size 9 to 14) (size 15 to 20)
#    0.000    0.533    6.667    3.200    0.000    3.200 
#    4.800    0.000    0.000    0.000    0.000    0.000 
#    0.000    0.000    0.000    0.000    0.000    0.000 
#
# Total GULP energy -167678.396833 kJ/mol
# GULP energy per Si atom -5589.279894 kJ/mol
# Density = 2.096455 g / cm^3
# Si number density = 21.012370 Si / 1000 Ang^3
#
#
#
# Elastic Constant Matrix: (Units=GPa)
#
#
# Indices 1 2 3 4 5 6 
#
# 1 58.5992 12.1114 29.6588 0.0000 -24.0470 0.0000
# 2 12.1114 115.6727 43.3648 0.0000 -11.4063 0.0000
# 3 29.6588 43.3648 95.8630 0.0000 -15.7896 0.0000
# 4 0.0000 0.0000 0.0000 17.7286 0.0000 -7.1411
# 5 -24.0470 -11.4063 -15.7896 0.0000 28.9249 0.0000
# 6 0.0000 0.0000 0.0000 -7.1411 0.0000 5.3774
#
#
#
# Elastic Compliance Matrix: (Units=1/GPa)
#
#
# Indices 1 2 3 4 5 6 
#
# 1 0.028352 0.001311 -0.005930 0.000000 0.020850 0.000000
# 2 0.001311 0.010547 -0.004738 0.000000 0.002662 0.000000
# 3 -0.005930 -0.004738 0.014603 0.000000 0.001173 0.000000
# 4 0.000000 0.000000 0.000000 0.121281 0.000000 0.161058
# 5 0.020850 0.002662 0.001173 0.000000 0.053596 0.000000
# 6 0.000000 0.000000 0.000000 0.161058 0.000000 0.399844
#
#
# Mechanical properties :
#
#
# Convention : Reuss Voigt Hill
#
# Bulk Modulus (GPa) = 28.74711 48.93388 38.84049
# Shear Modulus (GPa) = 7.59264 22.73951 15.16607
#
# Velocity S-wave (km/s) = 1.90296 3.29324 2.68949
# Velocity P-wave (km/s) = 4.30570 6.14811 5.30747
#
# Compressibility (1/GPa) = 0.03478611
#
# Stress axis : x y z
#
# Youngs Moduli (GPa) = 35.27098 94.81759 68.48030
#
# Poissons Ratio (x) = -0.12428 0.40611
# Poissons Ratio (y) = -0.04623 0.32445
# Poissons Ratio (z) = 0.20917 0.44923
#
# Static dielectric constant tensor:
#      x y z
#    x 1.769540 0.000000 -0.009360 
#    y 0.000000 1.760420 0.000000 
#    z -0.009360 0.000000 1.805530 
# 
# From -- ./inp_files/204436.got.cif
#   From: 2010.05.17/outbox.cif.g08.bks.cpg/sg15_103_cif.got.tgz:204436.got - 2010.06.03 18:47:42.
