data_PCOD9301240
_publ_section_title
;
Structure prediction by ZEFSAII (Michael W. Deem and Ramdas Pophale) SiO2 
 PCOD9301240
Probable space group: C 2/C
;
_chemical_formula_sum "Si O2"
_cell_formula_units_Z 44
_cell_length_a 7.601209
_cell_length_b 12.988171
_cell_length_c 21.282399
_cell_angle_alpha 90.000000
_cell_angle_beta 104.150225
_cell_angle_gamma 90.000000
_cell_volume 2037.369868
_symmetry_space_group_name_H-M "C 2/C"
_symmetry_group_IT_number 15
_symmetry_cell_setting 'monoclinic'
loop_
_space_group_symop_operation_xyz
x,y,z
-x,y,1/2-z
-x,-y,-z
x,-y,1/2+z
1/2+x,1/2+y,z
1/2-x,1/2+y,1/2-z
1/2-x,1/2-y,-z
1/2+x,1/2-y,1/2+z
loop_
_atom_site_type_symbol
_atom_site_label
_atom_site_fract_x
_atom_site_fract_y
_atom_site_fract_z
Si Si1 0.164362 0.867468 0.660062
Si Si2 0.935537 0.370820 0.356955
Si Si3 0.879624 0.019085 0.595988
Si Si4 0.752460 0.365549 0.520959
Si Si5 0.851156 0.359961 0.001471
Si Si6 0.000000 0.469660 0.750000
O O1 0.085678 0.751125 0.662303
O O2 0.225254 0.874060 0.592294
O O3 0.331047 0.895634 0.719409
O O4 0.027441 0.964396 0.651945
O O5 0.750685 0.407668 0.374915
O O6 0.096880 0.385002 0.421911
O O7 0.966796 0.451787 0.304449
O O8 0.909832 0.084841 0.534762
O O9 0.780991 0.923824 0.554048
O O10 0.750000 0.250000 0.500000
O O11 0.957163 0.388618 0.516514
O O12 0.750000 0.250000 0.000000
#
# Coordination Sequence:
#
# PCOD9301240 Si02
#       6
#     8   8   8   8   8   4
#     4  12  25  47  69  99 137 185 231 280 345 408
#     4  11  25  48  66 102 136 181 233 281 334 417
#     4  11  22  41  72  98 138 173 223 289 354 397
#     4  11  20  39  69 105 135 164 221 287 348 411
#     4  11  20  40  71 105 138 169 219 288 358 405
#     4  12  30  46  66  94 142 188 236 272 330 416
#
# _framework density 21.596471000000001
#
# number of rings (size 3 to 8) (size 9 to 14) (size 15 to 20)
#    0.000    0.727    5.455    4.909    0.000    5.091 
#    3.273    0.000    0.000    0.000    0.000    0.000 
#    0.000    0.000    0.000    0.000    0.000    0.000 
#
# Total GULP energy -122553.615637 kJ/mol
# GULP energy per Si atom -5570.618893 kJ/mol
# Density = 2.154732 g / cm^3
# Si number density = 21.596471 Si / 1000 Ang^3
#
#
#
# Elastic Constant Matrix: (Units=GPa)
#
#
# Indices 1 2 3 4 5 6 
#
# 1 29.4905 -0.9476 0.6885 0.0000 17.0128 0.0000
# 2 -0.9476 87.5626 -15.1137 0.0000 13.0062 0.0000
# 3 0.6885 -15.1137 57.8156 0.0000 18.3613 0.0000
# 4 0.0000 0.0000 0.0000 35.0059 0.0000 6.8636
# 5 17.0128 13.0062 18.3613 0.0000 49.0293 0.0000
# 6 0.0000 0.0000 0.0000 6.8636 0.0000 42.7884
#
#
#
# Elastic Compliance Matrix: (Units=1/GPa)
#
#
# Indices 1 2 3 4 5 6 
#
# 1 0.045090 0.004546 0.006814 0.000000 -0.019404 0.000000
# 2 0.004546 0.013569 0.005831 0.000000 -0.007361 0.000000
# 3 0.006814 0.005831 0.022679 0.000000 -0.012404 0.000000
# 4 0.000000 0.000000 0.000000 0.029494 0.000000 -0.004731
# 5 -0.019404 -0.007361 -0.012404 0.000000 0.033727 0.000000
# 6 0.000000 0.000000 0.000000 -0.004731 0.000000 0.024130
#
#
# Mechanical properties :
#
#
# Convention : Reuss Voigt Hill
#
# Bulk Modulus (GPa) = 8.64157 16.01367 12.32762
# Shear Modulus (GPa) = 28.92164 38.04748 33.48456
#
# Velocity S-wave (km/s) = 3.66346 4.20187 3.94187
# Velocity P-wave (km/s) = 4.68024 5.56525 5.14182
#
# Compressibility (1/GPa) = 0.11571965
#
# Stress axis : x y z
#
# Youngs Moduli (GPa) = 22.17782 73.69559 44.09397
#
# Poissons Ratio (x) = -0.33504 -0.30045
# Poissons Ratio (y) = -0.10082 -0.25710
# Poissons Ratio (z) = -0.15112 -0.42970
#
# Static dielectric constant tensor:
#      x y z
#    x 1.776840 0.000000 -0.011880 
#    y 0.000000 1.826380 0.000000 
#    z -0.011880 0.000000 1.782120 
# 
# From -- ./inp_files/230266.got.cif
#   From: 2010.05.17/outbox.cif.g08.bks.cpg/sg15_116_cif.got.tgz:230266.got - 2010.06.03 18:47:42.
