data_PCOD9301741
_publ_section_title
;
Structure prediction by ZEFSAII (Michael W. Deem and Ramdas Pophale) SiO2 
 PCOD9301741
Probable space group: C 2/C
;
_chemical_formula_sum "Si O2"
_cell_formula_units_Z 48
_cell_length_a 12.531242
_cell_length_b 13.538552
_cell_length_c 27.478681
_cell_angle_alpha 90.000000
_cell_angle_beta 150.406200
_cell_angle_gamma 90.000000
_cell_volume 2302.265038
_symmetry_space_group_name_H-M "C 2/C"
_symmetry_group_IT_number 15
_symmetry_cell_setting 'monoclinic'
loop_
_space_group_symop_operation_xyz
x,y,z
-x,y,1/2-z
-x,-y,-z
x,-y,1/2+z
1/2+x,1/2+y,z
1/2-x,1/2+y,1/2-z
1/2-x,1/2-y,-z
1/2+x,1/2-y,1/2+z
loop_
_atom_site_type_symbol
_atom_site_label
_atom_site_fract_x
_atom_site_fract_y
_atom_site_fract_z
Si Si1 0.990830 0.209336 0.100437
Si Si2 0.376360 0.999290 0.652241
Si Si3 0.498054 0.238014 0.411014
Si Si4 0.622931 0.590075 0.247879
Si Si5 0.474615 0.640409 0.492556
Si Si6 0.746351 0.886447 0.240589
O O1 0.015490 0.145723 0.159266
O O2 0.038847 0.148919 0.070714
O O3 0.153105 0.301547 0.168831
O O4 0.750000 0.250000 0.000000
O O5 0.500000 0.969013 0.750000
O O6 0.543449 0.059021 0.685656
O O7 0.176734 0.071125 0.585405
O O8 0.251265 0.906871 0.579501
O O9 0.362185 0.139414 0.345973
O O10 0.480054 0.258879 0.461596
O O11 0.382015 0.326850 0.334938
O O12 0.750000 0.250000 0.500000
O O13 0.500000 0.608245 0.250000
O O14 0.631416 0.474187 0.238534
#
# Coordination Sequence:
#
# PCOD9301741 Si02
#       6
#     8   8   8   8   8   8
#     4  11  23  41  67  98 130 174 230 275 326 403
#     4  11  21  38  67  98 132 168 221 278 337 385
#     4  11  25  44  68  99 138 175 225 281 337 399
#     4  11  26  45  67  98 136 183 220 272 349 407
#     4  11  23  38  68 101 128 173 226 279 328 396
#     4  11  24  43  68  93 136 177 219 275 338 401
#
# _framework density 20.849032999999999
#
# number of rings (size 3 to 8) (size 9 to 14) (size 15 to 20)
#    0.000    1.000    3.333    3.000    4.667    4.000 
#    0.000    2.500    0.000    0.000    0.000    0.000 
#    0.000    0.000    0.000    0.000    0.000    0.000 
#
# Total GULP energy -134053.717837 kJ/mol
# GULP energy per Si atom -5585.571577 kJ/mol
# Density = 2.080158 g / cm^3
# Si number density = 20.849033 Si / 1000 Ang^3
#
#
#
# Elastic Constant Matrix: (Units=GPa)
#
#
# Indices 1 2 3 4 5 6 
#
# 1 73.7538 23.1197 43.5449 0.0001 -0.5198 0.0000
# 2 23.1197 92.6380 35.0271 0.0000 -7.8606 0.0000
# 3 43.5449 35.0271 122.2491 0.0004 -0.2820 -0.0001
# 4 0.0001 0.0000 0.0004 20.2301 -0.0002 -3.6153
# 5 -0.5198 -7.8606 -0.2820 -0.0002 34.9804 0.0000
# 6 0.0000 0.0000 -0.0001 -3.6153 0.0000 30.0487
#
#
#
# Elastic Compliance Matrix: (Units=1/GPa)
#
#
# Indices 1 2 3 4 5 6 
#
# 1 0.017586 -0.002294 -0.005608 0.000000 -0.000299 0.000000
# 2 -0.002294 0.012665 -0.002805 0.000000 0.002789 0.000000
# 3 -0.005608 -0.002805 0.010980 0.000000 -0.000625 0.000000
# 4 0.000000 0.000000 0.000000 0.050518 0.000000 0.006078
# 5 -0.000299 0.002789 -0.000625 0.000000 0.029205 0.000000
# 6 0.000000 0.000000 0.000000 0.006078 0.000000 0.034011
#
#
# Mechanical properties :
#
#
# Convention : Reuss Voigt Hill
#
# Bulk Modulus (GPa) = 50.46171 54.66936 52.56554
# Shear Modulus (GPa) = 27.32495 29.51513 28.42004
#
# Velocity S-wave (km/s) = 3.62416 3.76661 3.69607
# Velocity P-wave (km/s) = 6.46287 6.72271 6.59407
#
# Compressibility (1/GPa) = 0.01981701
#
# Stress axis : x y z
#
# Youngs Moduli (GPa) = 56.86189 78.96052 91.07705
#
# Poissons Ratio (x) = 0.18115 0.51073
# Poissons Ratio (y) = 0.13045 0.25548
# Poissons Ratio (z) = 0.31886 0.22149
#
# Static dielectric constant tensor:
#      x y z
#    x 1.789170 0.000000 0.008480 
#    y 0.000000 1.774720 0.000000 
#    z 0.008480 0.000000 1.716850 
# 
# From -- ./inp_files/292987.got.cif
#   From: 2010.05.17/outbox.cif.g08.bks.cpg/sg15_147_cif.got.tgz:292987.got - 2010.06.03 18:47:42.
