data_PCOD9301337
_publ_section_title
;
Structure prediction by ZEFSAII (Michael W. Deem and Ramdas Pophale) SiO2 
 PCOD9301337
Probable space group: C 2/C
;
_chemical_formula_sum "Si O2"
_cell_formula_units_Z 48
_cell_length_a 10.907783
_cell_length_b 19.887785
_cell_length_c 10.063392
_cell_angle_alpha 90.000000
_cell_angle_beta 82.523555
_cell_angle_gamma 90.000000
_cell_volume 2164.508674
_symmetry_space_group_name_H-M "C 2/C"
_symmetry_group_IT_number 15
_symmetry_cell_setting 'monoclinic'
loop_
_space_group_symop_operation_xyz
x,y,z
-x,y,1/2-z
-x,-y,-z
x,-y,1/2+z
1/2+x,1/2+y,z
1/2-x,1/2+y,1/2-z
1/2-x,1/2-y,-z
1/2+x,1/2-y,1/2+z
loop_
_atom_site_type_symbol
_atom_site_label
_atom_site_fract_x
_atom_site_fract_y
_atom_site_fract_z
Si Si1 0.189065 0.323828 0.324424
Si Si2 0.856970 0.698445 0.244464
Si Si3 0.690219 0.420294 0.803838
Si Si4 0.361835 0.568778 0.719120
Si Si5 0.927576 0.708326 0.939617
Si Si6 0.060247 0.867097 0.560026
O O1 0.271916 0.256631 0.318487
O O2 0.276065 0.388282 0.329564
O O3 0.134695 0.323722 0.181176
O O4 0.067425 0.319546 0.432208
O O5 0.808788 0.626787 0.302181
O O6 0.000000 0.712744 0.250000
O O7 0.849641 0.699014 0.084358
O O8 0.703808 0.499805 0.813515
O O9 0.637179 0.404338 0.663613
O O10 0.578790 0.395157 0.912474
O O11 0.500000 0.551863 0.750000
O O12 0.384700 0.616743 0.590229
O O13 0.941540 0.787927 0.912311
#
# Coordination Sequence:
#
# PCOD9301337 Si02
#       6
#     8   8   8   8   8   8
#     4  11  22  41  65  94 124 161 211 256 304 370
#     4  12  24  40  62  95 127 162 206 258 312 363
#     4  11  23  42  62  90 126 167 205 252 312 373
#     4  12  25  39  63  97 127 159 209 262 310 360
#     4  11  22  42  70  91 120 169 210 251 310 371
#     4  11  20  41  70  90 119 160 215 255 303 371
#
# _framework density 22.175934999999999
#
# number of rings (size 3 to 8) (size 9 to 14) (size 15 to 20)
#    0.000    0.667    6.667    3.500    0.000    2.000 
#    3.000    0.833    0.000    0.000    0.000    0.000 
#    0.000    0.000    0.000    0.000    0.000    0.000 
#
# Total GULP energy -134378.229668 kJ/mol
# GULP energy per Si atom -5599.092903 kJ/mol
# Density = 2.212546 g / cm^3
# Si number density = 22.175935 Si / 1000 Ang^3
#
#
#
# Elastic Constant Matrix: (Units=GPa)
#
#
# Indices 1 2 3 4 5 6 
#
# 1 100.3078 29.6951 1.3905 0.0000 -17.7432 0.0000
# 2 29.6951 98.8772 -6.9174 0.0000 -24.1649 0.0000
# 3 1.3905 -6.9174 41.7516 0.0000 -10.3938 0.0000
# 4 0.0000 0.0000 0.0000 5.6576 0.0000 -8.2003
# 5 -17.7432 -24.1649 -10.3938 0.0000 38.2479 0.0000
# 6 0.0000 0.0000 0.0000 -8.2003 0.0000 34.5438
#
#
#
# Elastic Compliance Matrix: (Units=1/GPa)
#
#
# Indices 1 2 3 4 5 6 
#
# 1 0.011366 -0.002490 0.000139 0.000000 0.003737 0.000000
# 2 -0.002490 0.013214 0.004358 0.000000 0.008377 0.000000
# 3 0.000139 0.004358 0.027211 0.000000 0.010212 0.000000
# 4 0.000000 0.000000 0.000000 0.269469 0.000000 0.063969
# 5 0.003737 0.008377 0.010212 0.000000 0.035947 0.000000
# 6 0.000000 0.000000 0.000000 0.063969 0.000000 0.044134
#
#
# Mechanical properties :
#
#
# Convention : Reuss Voigt Hill
#
# Bulk Modulus (GPa) = 17.92018 32.14145 25.03081
# Shear Modulus (GPa) = 12.02130 30.14109 21.08119
#
# Velocity S-wave (km/s) = 2.33080 3.69071 3.08658
# Velocity P-wave (km/s) = 3.91688 5.71726 4.90046
#
# Compressibility (1/GPa) = 0.05580301
#
# Stress axis : x y z
#
# Youngs Moduli (GPa) = 87.98449 75.67921 36.75015
#
# Poissons Ratio (x) = 0.18847 -0.00511
# Poissons Ratio (y) = 0.21911 -0.16014
# Poissons Ratio (z) = -0.01224 -0.32978
#
# Static dielectric constant tensor:
#      x y z
#    x 1.838660 0.000000 0.030980 
#    y 0.000000 1.746240 0.000000 
#    z 0.030980 0.000000 1.850210 
# 
# From -- ./inp_files/87245.got.cif
#   From: 2010.05.17/outbox.cif.g08.bks.cpg/sg15_44_cif.got.tgz:87245.got - 2010.06.03 18:47:42.
