data_PCOD9301923
_publ_section_title
;
Structure prediction by ZEFSAII (Michael W. Deem and Ramdas Pophale) SiO2 
 PCOD9301923
Probable space group: C 2/C
;
_chemical_formula_sum "Si O2"
_cell_formula_units_Z 64
_cell_length_a 11.893919
_cell_length_b 14.476813
_cell_length_c 16.365488
_cell_angle_alpha 90.000000
_cell_angle_beta 90.547150
_cell_angle_gamma 90.000000
_cell_volume 2817.780103
_symmetry_space_group_name_H-M "C 2/C"
_symmetry_group_IT_number 15
_symmetry_cell_setting 'monoclinic'
loop_
_space_group_symop_operation_xyz
x,y,z
-x,y,1/2-z
-x,-y,-z
x,-y,1/2+z
1/2+x,1/2+y,z
1/2-x,1/2+y,1/2-z
1/2-x,1/2-y,-z
1/2+x,1/2-y,1/2+z
loop_
_atom_site_type_symbol
_atom_site_label
_atom_site_fract_x
_atom_site_fract_y
_atom_site_fract_z
Si Si1 0.065018 0.507686 0.165073
Si Si2 0.360419 0.680722 0.813760
Si Si3 0.243921 0.598009 0.598037
Si Si4 0.633268 0.939894 0.925886
Si Si5 0.090265 0.758963 0.367355
Si Si6 0.943388 0.960587 0.581336
Si Si7 0.231854 0.150584 0.352314
Si Si8 0.842350 0.037362 0.306523
O O1 0.150859 0.421005 0.166342
O O2 0.150772 0.591886 0.143513
O O3 0.000000 0.523589 0.250000
O O4 0.967161 0.491347 0.097900
O O5 0.383234 0.734713 0.728894
O O6 0.470442 0.689828 0.871867
O O7 0.260003 0.741301 0.850102
O O8 0.346826 0.573452 0.791942
O O9 0.184724 0.562781 0.515687
O O10 0.298360 0.697813 0.591225
O O11 0.356133 0.537956 0.612305
O O12 0.578870 0.841983 0.902539
O O13 0.736888 0.951615 0.865495
O O14 0.856844 0.874820 0.577013
O O15 0.043118 0.940467 0.644856
O O16 0.000000 0.000000 0.500000
O O17 0.177189 0.106701 0.269186
#
# Coordination Sequence:
#
# PCOD9301923 Si02
#       8
#     8   8   8   8   8   8   8   8
#     4  11  21  40  67 100 130 173 228 280 328 399
#     4  11  22  40  68 102 128 177 235 282 333 406
#     4  11  24  41  68  99 136 181 226 273 345 406
#     4  12  23  41  68  97 140 176 219 282 348 399
#     4  11  22  40  67 100 133 173 231 279 328 411
#     4  11  23  42  67  96 137 178 224 277 337 413
#     4  11  23  42  70  98 131 174 231 285 337 398
#     4  12  23  41  70  98 132 180 222 282 348 401
#
# _framework density 22.712914000000001
#
# number of rings (size 3 to 8) (size 9 to 14) (size 15 to 20)
#    0.000    0.750    6.250    2.625    1.750    0.000 
#    0.000    1.875    5.500    0.000    0.000    0.000 
#    0.000    0.000    0.000    0.000    0.000    0.000 
#
# Total GULP energy -178661.407898 kJ/mol
# GULP energy per Si atom -5583.168997 kJ/mol
# Density = 2.266122 g / cm^3
# Si number density = 22.712914 Si / 1000 Ang^3
#
#
#
# Elastic Constant Matrix: (Units=GPa)
#
#
# Indices 1 2 3 4 5 6 
#
# 1 177.8748 23.0002 49.2422 0.0000 9.9867 0.0000
# 2 23.0002 54.4315 -6.6960 0.0000 4.0871 0.0000
# 3 49.2422 -6.6960 58.4177 0.0000 5.5151 0.0000
# 4 0.0000 0.0000 0.0000 1.8139 0.0000 -10.2005
# 5 9.9867 4.0871 5.5151 0.0000 41.1308 0.0000
# 6 0.0000 0.0000 0.0000 -10.2005 0.0000 30.8394
#
#
#
# Elastic Compliance Matrix: (Units=1/GPa)
#
#
# Indices 1 2 3 4 5 6 
#
# 1 0.008273 -0.004365 -0.007419 0.000000 -0.000580 0.000000
# 2 -0.004365 0.021130 0.006279 0.000000 -0.001882 0.000000
# 3 -0.007419 0.006279 0.024288 0.000000 -0.002079 0.000000
# 4 0.000000 0.000000 0.000000 -0.640981 0.000000 -0.212013
# 5 -0.000580 -0.001882 -0.002079 0.000000 0.024919 0.000000
# 6 0.000000 0.000000 0.000000 -0.212013 0.000000 -0.037700
#
#
# Mechanical properties :
#
#
# Convention : Reuss Voigt Hill
#
# Bulk Modulus (GPa) = 23.42989 46.86853 35.14921
# Shear Modulus (GPa) = -8.69814 29.76866 10.53526
#
# Velocity S-wave (km/s) = -1.95906 3.62422 2.15604
# Velocity P-wave (km/s) = 2.28492 6.18007 4.65908
#
# Compressibility (1/GPa) = 0.04268052
#
# Stress axis : x y z
#
# Youngs Moduli (GPa) = 120.87950 47.32661 41.17314
#
# Poissons Ratio (x) = 0.20657 0.30546
# Poissons Ratio (y) = 0.52761 -0.25852
# Poissons Ratio (z) = 0.89679 -0.29715
#
# Static dielectric constant tensor:
#      x y z
#    x 1.854710 0.000000 -0.021790 
#    y 0.000000 1.914000 0.000000 
#    z -0.021790 0.000000 1.938780 
# 
# From -- ./inp_files/198361.got.cif
#   From: 2010.05.17/outbox.cif.g08.bks.cpg/sg15_100_cif.got.tgz:198361.got - 2010.06.03 18:47:42.
