data_PCOD9301392
_publ_section_title
;
Structure prediction by ZEFSAII (Michael W. Deem and Ramdas Pophale) SiO2 
 PCOD9301392
Probable space group: C 2/C
;
_chemical_formula_sum "Si O2"
_cell_formula_units_Z 44
_cell_length_a 15.430600
_cell_length_b 8.591086
_cell_length_c 16.382491
_cell_angle_alpha 90.000000
_cell_angle_beta 116.938937
_cell_angle_gamma 90.000000
_cell_volume 1936.097504
_symmetry_space_group_name_H-M "C 2/C"
_symmetry_group_IT_number 15
_symmetry_cell_setting 'monoclinic'
loop_
_space_group_symop_operation_xyz
x,y,z
-x,y,1/2-z
-x,-y,-z
x,-y,1/2+z
1/2+x,1/2+y,z
1/2-x,1/2+y,1/2-z
1/2-x,1/2-y,-z
1/2+x,1/2-y,1/2+z
loop_
_atom_site_type_symbol
_atom_site_label
_atom_site_fract_x
_atom_site_fract_y
_atom_site_fract_z
Si Si1 0.748753 0.603865 0.560206
Si Si2 0.250975 0.156364 0.862726
Si Si3 0.953679 0.056708 0.564673
Si Si4 0.000000 0.872042 0.750000
Si Si5 0.617111 0.845486 0.920810
Si Si6 0.793606 0.192820 0.215099
O O1 0.750000 0.750000 0.500000
O O2 0.661533 0.487677 0.497267
O O3 0.852062 0.513989 0.598963
O O4 0.729667 0.679883 0.639841
O O5 0.158209 0.235181 0.865838
O O6 0.286943 0.269716 0.806960
O O7 0.233110 0.983879 0.820107
O O8 0.326676 0.148633 0.968736
O O9 0.986441 0.968016 0.660184
O O10 0.974006 0.240670 0.590350
O O11 0.000000 0.000000 0.500000
O O12 0.098555 0.781260 0.773926
#
# Coordination Sequence:
#
# PCOD9301392 Si02
#       6
#     8   8   8   4   8   8
#     4  12  21  45  69  95 133 182 222 283 348 416
#     4  11  21  39  65  98 124 176 228 270 334 423
#     4  12  25  42  71  99 137 184 231 287 356 411
#     4  12  24  44  60 100 142 170 228 292 350 402
#     4  11  20  43  66  95 133 175 227 279 341 415
#     4  12  25  41  71  98 135 179 232 282 348 416
#
# _framework density 22.726129
#
# number of rings (size 3 to 8) (size 9 to 14) (size 15 to 20)
#    0.000    0.364    9.091    2.182    2.545    0.000 
#    0.000    3.636    0.000    0.000    0.000    0.000 
#    0.000    0.000    0.000    0.000    0.000    0.000 
#
# Total GULP energy -122656.437408 kJ/mol
# GULP energy per Si atom -5575.292609 kJ/mol
# Density = 2.267440 g / cm^3
# Si number density = 22.726129 Si / 1000 Ang^3
#
#
#
# Elastic Constant Matrix: (Units=GPa)
#
#
# Indices 1 2 3 4 5 6 
#
# 1 57.5971 28.8138 34.9452 0.0000 -24.1150 0.0000
# 2 28.8138 150.4245 49.4338 0.0000 -16.1246 0.0000
# 3 34.9452 49.4338 131.1901 0.0000 -38.1262 0.0000
# 4 0.0000 0.0000 0.0000 44.0147 0.0000 -10.9524
# 5 -24.1150 -16.1246 -38.1262 0.0000 39.2410 0.0000
# 6 0.0000 0.0000 0.0000 -10.9524 0.0000 18.8600
#
#
#
# Elastic Compliance Matrix: (Units=1/GPa)
#
#
# Indices 1 2 3 4 5 6 
#
# 1 0.025182 -0.002825 -0.002067 0.000000 0.012306 0.000000
# 2 -0.002825 0.007911 -0.002492 0.000000 -0.000907 0.000000
# 3 -0.002067 -0.002492 0.011768 0.000000 0.009140 0.000000
# 4 0.000000 0.000000 0.000000 0.026557 0.000000 0.015422
# 5 0.012306 -0.000907 0.009140 0.000000 0.041554 0.000000
# 6 0.000000 0.000000 0.000000 0.015422 0.000000 0.061978
#
#
# Mechanical properties :
#
#
# Convention : Reuss Voigt Hill
#
# Bulk Modulus (GPa) = 33.23013 62.84415 48.03714
# Shear Modulus (GPa) = 25.03153 35.49107 30.26130
#
# Velocity S-wave (km/s) = 3.32240 3.95610 3.65302
# Velocity P-wave (km/s) = 5.41955 6.96997 6.24308
#
# Compressibility (1/GPa) = 0.03009317
#
# Stress axis : x y z
#
# Youngs Moduli (GPa) = 39.71151 126.41098 84.97499
#
# Poissons Ratio (x) = 0.35714 0.17562
# Poissons Ratio (y) = 0.11219 0.21174
# Poissons Ratio (z) = 0.08207 0.31498
#
# Static dielectric constant tensor:
#      x y z
#    x 1.899820 0.000000 0.036640 
#    y 0.000000 1.912470 0.000000 
#    z 0.036640 0.000000 1.863000 
# 
# From -- ./inp_files/159455.got.cif
#   From: 2010.05.17/outbox.cif.g08.bks.cpg/sg15_80_cif.got.tgz:159455.got - 2010.06.03 18:47:42.
