data_PCOD9301985
_publ_section_title
;
Structure prediction by ZEFSAII (Michael W. Deem and Ramdas Pophale) SiO2 
 PCOD9301985
Probable space group: C 2/C
;
_chemical_formula_sum "Si O2"
_cell_formula_units_Z 56
_cell_length_a 13.125619
_cell_length_b 28.263393
_cell_length_c 8.215454
_cell_angle_alpha 90.000000
_cell_angle_beta 127.007967
_cell_angle_gamma 90.000000
_cell_volume 2433.765683
_symmetry_space_group_name_H-M "C 2/C"
_symmetry_group_IT_number 15
_symmetry_cell_setting 'monoclinic'
loop_
_space_group_symop_operation_xyz
x,y,z
-x,y,1/2-z
-x,-y,-z
x,-y,1/2+z
1/2+x,1/2+y,z
1/2-x,1/2+y,1/2-z
1/2-x,1/2-y,-z
1/2+x,1/2-y,1/2+z
loop_
_atom_site_type_symbol
_atom_site_label
_atom_site_fract_x
_atom_site_fract_y
_atom_site_fract_z
Si Si1 0.308271 0.101184 0.395535
Si Si2 0.732234 0.014895 0.364973
Si Si3 0.500000 0.626762 0.750000
Si Si4 0.054178 0.634154 0.474728
Si Si5 0.376688 0.241630 0.016631
Si Si6 0.212866 0.066341 0.768379
Si Si7 0.407040 0.674895 0.318086
Si Si8 0.500000 0.030300 0.750000
O O1 0.245526 0.064538 0.205447
O O2 0.423357 0.134965 0.447089
O O3 0.200040 0.137617 0.344896
O O4 0.390209 0.064923 0.579981
O O5 0.743902 0.026452 0.564508
O O6 0.819279 0.968884 0.410307
O O7 0.583278 0.001446 0.207892
O O8 0.605408 0.595150 0.759034
O O9 0.448382 0.655017 0.539989
O O10 0.111036 0.686124 0.509825
O O11 0.166946 0.600556 0.645413
O O12 0.000000 0.615604 0.250000
O O13 0.500000 0.252420 0.250000
O O14 0.250000 0.250000 0.000000
O O15 0.369854 0.272574 0.844838
O O16 0.500000 0.678079 0.250000
#
# Coordination Sequence:
#
# PCOD9301985 Si02
#       8
#     8   8   4   8   8   8   8   4
#     4  12  24  45  67 107 144 187 247 308 373 447
#     4  12  23  40  67 104 142 186 244 310 371 442
#     4  12  26  50  72 103 154 211 248 304 380 456
#     4  11  21  40  73 102 139 188 245 306 375 448
#     4  11  24  48  80 112 149 200 256 314 388 460
#     4  12  25  42  70 104 145 198 245 304 377 452
#     4  12  28  50  79 110 154 201 254 312 382 463
#     4  12  24  40  68 105 146 185 244 318 380 426
#
# _framework density 23.009611
#
# number of rings (size 3 to 8) (size 9 to 14) (size 15 to 20)
#    0.000    0.286    6.429    3.857    2.000    0.571 
#    2.571    1.429    0.000    0.000    0.000    0.000 
#    0.000    0.000    0.000    0.000    0.000    0.000 
#
# Total GULP energy -156086.861302 kJ/mol
# GULP energy per Si atom -5574.530761 kJ/mol
# Density = 2.295724 g / cm^3
# Si number density = 23.009611 Si / 1000 Ang^3
#
#
#
# Elastic Constant Matrix: (Units=GPa)
#
#
# Indices 1 2 3 4 5 6 
#
# 1 148.0491 42.1034 -3.1745 0.0000 -8.8235 0.0000
# 2 42.1034 116.7467 9.2161 0.0000 -2.6741 0.0000
# 3 -3.1745 9.2161 29.8151 0.0000 0.8570 0.0000
# 4 0.0000 0.0000 0.0000 12.3605 0.0000 -25.8365
# 5 -8.8235 -2.6741 0.8570 0.0000 22.5928 0.0000
# 6 0.0000 0.0000 0.0000 -25.8365 0.0000 16.5084
#
#
#
# Elastic Compliance Matrix: (Units=1/GPa)
#
#
# Indices 1 2 3 4 5 6 
#
# 1 0.007762 -0.002868 0.001637 0.000000 0.002630 0.000000
# 2 -0.002868 0.009869 -0.003361 0.000000 0.000175 0.000000
# 3 0.001637 -0.003361 0.034784 0.000000 -0.001078 0.000000
# 4 0.000000 0.000000 0.000000 -0.035619 0.000000 -0.055745
# 5 0.002630 0.000175 -0.001078 0.000000 0.045351 0.000000
# 6 0.000000 0.000000 0.000000 -0.055745 0.000000 -0.026669
#
#
# Mechanical properties :
#
#
# Convention : Reuss Voigt Hill
#
# Bulk Modulus (GPa) = 23.13115 43.43343 33.28229
# Shear Modulus (GPa) = 84.64133 26.72341 55.68237
#
# Velocity S-wave (km/s) = 6.07166 3.41163 4.92465
# Velocity P-wave (km/s) = 7.69598 5.86823 6.84340
#
# Compressibility (1/GPa) = 0.04323175
#
# Stress axis : x y z
#
# Youngs Moduli (GPa) = 128.83141 101.32397 28.74860
#
# Poissons Ratio (x) = 0.29063 -0.04708
# Poissons Ratio (y) = 0.36953 0.09663
# Poissons Ratio (z) = -0.21096 0.34056
#
# Static dielectric constant tensor:
#      x y z
#    x 2.473570 0.000000 -0.331120 
#    y 0.000000 1.917150 0.000000 
#    z -0.331120 0.000000 2.090550 
# 
# From -- ./inp_files/35816.got.cif
#   From: 2010.05.17/outbox.cif.g08.bks.cpg/sg15_18_cif.got.tgz:35816.got - 2010.06.03 18:47:42.
