data_PCOD9301910
_publ_section_title
;
Structure prediction by ZEFSAII (Michael W. Deem and Ramdas Pophale) SiO2 
 PCOD9301910
Probable space group: C 2/C
;
_chemical_formula_sum "Si O2"
_cell_formula_units_Z 60
_cell_length_a 10.950617
_cell_length_b 26.757678
_cell_length_c 9.278347
_cell_angle_alpha 90.000000
_cell_angle_beta 100.486058
_cell_angle_gamma 90.000000
_cell_volume 2673.273044
_symmetry_space_group_name_H-M "C 2/C"
_symmetry_group_IT_number 15
_symmetry_cell_setting 'monoclinic'
loop_
_space_group_symop_operation_xyz
x,y,z
-x,y,1/2-z
-x,-y,-z
x,-y,1/2+z
1/2+x,1/2+y,z
1/2-x,1/2+y,1/2-z
1/2-x,1/2-y,-z
1/2+x,1/2-y,1/2+z
loop_
_atom_site_type_symbol
_atom_site_label
_atom_site_fract_x
_atom_site_fract_y
_atom_site_fract_z
Si Si1 0.641313 0.411761 0.335839
Si Si2 0.497595 0.328283 0.904316
Si Si3 0.731558 0.211647 0.367076
Si Si4 0.341357 0.938195 0.858170
Si Si5 0.366808 0.699189 0.788967
Si Si6 0.584754 0.433063 0.652061
Si Si7 0.000000 0.643360 0.250000
Si Si8 0.136623 0.540788 0.801972
O O1 0.500000 0.416768 0.250000
O O2 0.667631 0.351915 0.304930
O O3 0.635428 0.437424 0.495749
O O4 0.748056 0.437424 0.263873
O O5 0.500000 0.303036 0.750000
O O6 0.353069 0.321479 0.906557
O O7 0.509506 0.387489 0.895099
O O8 0.597662 0.311779 0.039489
O O9 0.750000 0.250000 0.500000
O O10 0.720099 0.252380 0.236812
O O11 0.609821 0.177405 0.338144
O O12 0.208981 0.921683 0.767183
O O13 0.437788 0.893188 0.854385
O O14 0.374545 0.985165 0.764658
O O15 0.336306 0.955292 0.022495
O O16 0.500000 0.714876 0.750000
O O17 0.500000 0.465773 0.750000
O O18 0.000000 0.564979 0.750000
#
# Coordination Sequence:
#
# PCOD9301910 Si02
#       8
#     8   8   8   8   8   8   4   8
#     4  11  23  44  74 105 144 196 245 305 369 433
#     4  11  23  39  64  94 136 183 232 294 357 421
#     4  12  22  42  69 104 140 187 238 293 360 443
#     4  12  27  47  72 107 147 194 247 307 373 445
#     4  11  21  40  66 101 140 186 238 293 362 432
#     4  11  22  41  72 102 138 184 241 298 363 429
#     4  12  26  40  76 106 142 194 248 292 366 442
#     4  12  28  48  74 106 150 193 248 308 373 447
#
# _framework density 22.444396000000001
#
# number of rings (size 3 to 8) (size 9 to 14) (size 15 to 20)
#    0.000    0.533    6.667    2.000    3.733    1.067 
#    0.000    4.667    0.000    0.000    0.000    0.000 
#    0.000    0.000    0.000    0.000    0.000    0.000 
#
# Total GULP energy -167018.525651 kJ/mol
# GULP energy per Si atom -5567.284188 kJ/mol
# Density = 2.239331 g / cm^3
# Si number density = 22.444396 Si / 1000 Ang^3
#
#
#
# Elastic Constant Matrix: (Units=GPa)
#
#
# Indices 1 2 3 4 5 6 
#
# 1 123.1501 47.9342 49.5738 0.0000 -9.7828 0.0000
# 2 47.9342 98.7581 40.4635 0.0000 -7.3299 0.0000
# 3 49.5738 40.4635 199.0462 0.0000 -11.4609 0.0000
# 4 0.0000 0.0000 0.0000 13.5472 0.0000 14.6676
# 5 -9.7828 -7.3299 -11.4609 0.0000 30.6968 0.0000
# 6 0.0000 0.0000 0.0000 14.6676 0.0000 3.7579
#
#
#
# Elastic Compliance Matrix: (Units=1/GPa)
#
#
# Indices 1 2 3 4 5 6 
#
# 1 0.010617 -0.004344 -0.001662 0.000000 0.001726 0.000000
# 2 -0.004344 0.012926 -0.001479 0.000000 0.001150 0.000000
# 3 -0.001662 -0.001479 0.005813 0.000000 0.001287 0.000000
# 4 0.000000 0.000000 0.000000 -0.022882 0.000000 0.089312
# 5 0.001726 0.001150 0.001287 0.000000 0.033882 0.000000
# 6 0.000000 0.000000 0.000000 0.089312 0.000000 -0.082489
#
#
# Mechanical properties :
#
#
# Convention : Reuss Voigt Hill
#
# Bulk Modulus (GPa) = 69.51866 77.43305 73.47586
# Shear Modulus (GPa) = -223.53585 28.46590 -97.53497
#
# Velocity S-wave (km/s) = -9.99058 3.56516 -6.59929
# Velocity P-wave (km/s) = 10.10154 7.17788 5.02589
#
# Compressibility (1/GPa) = 0.01438463
#
# Stress axis : x y z
#
# Youngs Moduli (GPa) = 94.18725 77.36441 172.03652
#
# Poissons Ratio (x) = 0.33609 0.28588
# Poissons Ratio (y) = 0.40918 0.25453
# Poissons Ratio (z) = 0.15652 0.11446
#
# Static dielectric constant tensor:
#      x y z
#    x 1.939040 0.000000 -0.037510 
#    y 0.000000 -0.930630 0.000000 
#    z -0.037510 0.000000 1.961440 
# 
# From -- ./inp_files/35711.got.cif
#   From: 2010.05.17/outbox.cif.g08.bks.cpg/sg15_18_cif.got.tgz:35711.got - 2010.06.03 18:47:42.
