data_PCOD9301542
_publ_section_title
;
Structure prediction by ZEFSAII (Michael W. Deem and Ramdas Pophale) SiO2 
 PCOD9301542
Probable space group: C 2/C
;
_chemical_formula_sum "Si O2"
_cell_formula_units_Z 56
_cell_length_a 19.910748
_cell_length_b 8.719395
_cell_length_c 16.573803
_cell_angle_alpha 90.000000
_cell_angle_beta 128.608510
_cell_angle_gamma 90.000000
_cell_volume 2248.458925
_symmetry_space_group_name_H-M "C 2/C"
_symmetry_group_IT_number 15
_symmetry_cell_setting 'monoclinic'
loop_
_space_group_symop_operation_xyz
x,y,z
-x,y,1/2-z
-x,-y,-z
x,-y,1/2+z
1/2+x,1/2+y,z
1/2-x,1/2+y,1/2-z
1/2-x,1/2-y,-z
1/2+x,1/2-y,1/2+z
loop_
_atom_site_type_symbol
_atom_site_label
_atom_site_fract_x
_atom_site_fract_y
_atom_site_fract_z
Si Si1 0.908393 0.836414 0.277451
Si Si2 0.269674 0.496541 0.269242
Si Si3 0.485796 0.414743 0.573831
Si Si4 0.125971 0.312119 0.426538
Si Si5 0.517984 0.934438 0.921447
Si Si6 0.301755 0.569339 0.118981
Si Si7 0.637483 0.766834 0.119980
O O1 0.846787 0.878215 0.307603
O O2 0.987456 0.956919 0.341540
O O3 0.848230 0.902588 0.159861
O O4 0.945907 0.669278 0.323636
O O5 0.266731 0.590736 0.182993
O O6 0.298190 0.625954 0.352117
O O7 0.500000 0.500000 0.500000
O O8 0.399298 0.321872 0.526999
O O9 0.562985 0.294302 0.622106
O O10 0.053657 0.437750 0.388036
O O11 0.217192 0.399655 0.502645
O O12 0.132522 0.204857 0.353499
O O13 0.316125 0.098561 0.796341
O O14 0.500000 0.000000 0.000000
O O15 0.597026 0.824322 0.006491
#
# Coordination Sequence:
#
# PCOD9301542 Si02
#       7
#     8   8   8   8   8   8   8
#     4   9  21  40  60  95 140 176 223 274 356 403
#     4   9  22  37  61  94 142 179 223 282 337 421
#     4  11  21  38  62 101 130 176 223 288 353 404
#     4  11  22  40  70  95 133 182 241 278 334 427
#     4  12  21  36  68 107 136 170 230 296 348 413
#     4   9  22  42  63  97 133 192 228 274 345 412
#     4  11  21  36  59 101 134 175 224 276 354 397
#
# _framework density 24.905949
#
# number of rings (size 3 to 8) (size 9 to 14) (size 15 to 20)
#    0.857    0.857    4.286    0.000    2.000    2.857 
#    0.000    0.000    0.000   18.000    0.000    0.000 
#    0.000    0.000    0.000    0.000    0.000    0.000 
#
# Total GULP energy -155916.111942 kJ/mol
# GULP energy per Si atom -5568.432569 kJ/mol
# Density = 2.484926 g / cm^3
# Si number density = 24.905949 Si / 1000 Ang^3
#
#
#
# Elastic Constant Matrix: (Units=GPa)
#
#
# Indices 1 2 3 4 5 6 
#
# 1 73.9559 67.5960 26.2937 0.0000 5.7647 0.0000
# 2 67.5960 153.6273 47.5214 0.0000 12.5722 0.0000
# 3 26.2937 47.5214 49.2878 0.0000 15.8727 0.0000
# 4 0.0000 0.0000 0.0000 54.8360 0.0000 22.2192
# 5 5.7647 12.5722 15.8727 0.0000 27.6153 0.0000
# 6 0.0000 0.0000 0.0000 22.2192 0.0000 49.6535
#
#
#
# Elastic Compliance Matrix: (Units=1/GPa)
#
#
# Indices 1 2 3 4 5 6 
#
# 1 0.023118 -0.009016 -0.004182 0.000000 0.001682 0.000000
# 2 -0.009016 0.012821 -0.007704 0.000000 0.000473 0.000000
# 3 -0.004182 -0.007704 0.035019 0.000000 -0.015748 0.000000
# 4 0.000000 0.000000 0.000000 0.022275 0.000000 -0.009968
# 5 0.001682 0.000473 -0.015748 0.000000 0.044697 0.000000
# 6 0.000000 0.000000 0.000000 -0.009968 0.000000 0.024600
#
#
# Mechanical properties :
#
#
# Convention : Reuss Voigt Hill
#
# Bulk Modulus (GPa) = 34.29992 62.18815 48.24404
# Shear Modulus (GPa) = 23.35904 35.45162 29.40533
#
# Velocity S-wave (km/s) = 3.06582 3.77692 3.43979
# Velocity P-wave (km/s) = 5.13167 6.63653 5.93201
#
# Compressibility (1/GPa) = 0.02915458
#
# Stress axis : x y z
#
# Youngs Moduli (GPa) = 43.25663 77.99960 28.55607
#
# Poissons Ratio (x) = 0.70325 0.11941
# Poissons Ratio (y) = 0.39000 0.21999
# Poissons Ratio (z) = 0.18088 0.60089
#
# Static dielectric constant tensor:
#      x y z
#    x 2.028790 0.000000 0.079160 
#    y 0.000000 2.087630 0.000000 
#    z 0.079160 0.000000 2.094710 
# 
# From -- ./inp_files/214627.got.cif
#   From: 2010.05.17/outbox.cif.g08.bks.cpg/sg15_108_cif.got.tgz:214627.got - 2010.06.03 18:47:42.
