data_PCOD9301644
_publ_section_title
;
Structure prediction by ZEFSAII (Michael W. Deem and Ramdas Pophale) SiO2 
 PCOD9301644
Probable space group: C 2/C
;
_chemical_formula_sum "Si O2"
_cell_formula_units_Z 48
_cell_length_a 9.567375
_cell_length_b 18.117464
_cell_length_c 19.893982
_cell_angle_alpha 90.000000
_cell_angle_beta 132.209005
_cell_angle_gamma 90.000000
_cell_volume 2554.192889
_symmetry_space_group_name_H-M "C 2/C"
_symmetry_group_IT_number 15
_symmetry_cell_setting 'monoclinic'
loop_
_space_group_symop_operation_xyz
x,y,z
-x,y,1/2-z
-x,-y,-z
x,-y,1/2+z
1/2+x,1/2+y,z
1/2-x,1/2+y,1/2-z
1/2-x,1/2-y,-z
1/2+x,1/2-y,1/2+z
loop_
_atom_site_type_symbol
_atom_site_label
_atom_site_fract_x
_atom_site_fract_y
_atom_site_fract_z
Si Si1 0.377212 0.323266 0.027192
Si Si2 0.693029 0.698415 0.295631
Si Si3 0.522341 0.912703 0.934814
Si Si4 0.349317 0.686383 0.757625
Si Si5 0.726559 0.304428 0.054826
Si Si6 0.525894 0.083507 0.597639
O O1 0.523244 0.333017 0.136215
O O2 0.508069 0.317596 0.003720
O O3 0.250000 0.250000 0.000000
O O4 0.228926 0.389136 0.977380
O O5 0.500000 0.656615 0.250000
O O6 0.869299 0.644752 0.358383
O O7 0.718081 0.744522 0.235640
O O8 0.697156 0.760437 0.355556
O O9 0.476728 0.995381 0.897324
O O10 0.517852 0.903774 0.014493
O O11 0.500000 0.707010 0.750000
O O12 0.213602 0.621441 0.688101
O O13 0.848787 0.376626 0.076607
O O14 0.750000 0.250000 0.000000
#
# Coordination Sequence:
#
# PCOD9301644 Si02
#       6
#     8   8   8   8   8   8
#     4  11  21  38  67  94 121 160 214 259 312 380
#     4  11  22  38  65  90 120 162 221 259 306 383
#     4  11  23  42  60  94 126 165 209 270 311 383
#     4  11  22  36  65  91 119 167 207 255 314 382
#     4  11  21  37  65  91 117 167 210 253 311 384
#     4  11  23  40  63  89 131 167 208 258 331 366
#
# _framework density 18.792629999999999
#
# number of rings (size 3 to 8) (size 9 to 14) (size 15 to 20)
#    0.000    1.000    8.333    0.000    0.000    1.333 
#    0.000    0.000    7.333    0.000    0.000    0.000 
#    0.000    0.000    0.000    0.000    0.000    0.000 
#
# Total GULP energy -133934.758383 kJ/mol
# GULP energy per Si atom -5580.614933 kJ/mol
# Density = 1.874986 g / cm^3
# Si number density = 18.792630 Si / 1000 Ang^3
#
#
#
# Elastic Constant Matrix: (Units=GPa)
#
#
# Indices 1 2 3 4 5 6 
#
# 1 169.0783 48.5509 27.6603 0.0000 12.6271 0.0000
# 2 48.5509 105.3454 37.2477 0.0000 1.2262 0.0000
# 3 27.6603 37.2477 59.5014 0.0000 8.0266 0.0000
# 4 0.0000 0.0000 0.0000 28.5621 0.0000 2.6570
# 5 12.6271 1.2262 8.0266 0.0000 32.9282 0.0000
# 6 0.0000 0.0000 0.0000 2.6570 0.0000 25.9604
#
#
#
# Elastic Compliance Matrix: (Units=1/GPa)
#
#
# Indices 1 2 3 4 5 6 
#
# 1 0.007095 -0.002809 -0.001227 0.000000 -0.002317 0.000000
# 2 -0.002809 0.013371 -0.007385 0.000000 0.002379 0.000000
# 3 -0.001227 -0.007385 0.022644 0.000000 -0.004774 0.000000
# 4 0.000000 0.000000 0.000000 0.035348 0.000000 -0.003618
# 5 -0.002317 0.002379 -0.004774 0.000000 0.032333 0.000000
# 6 0.000000 0.000000 0.000000 -0.003618 0.000000 0.038891
#
#
# Mechanical properties :
#
#
# Convention : Reuss Voigt Hill
#
# Bulk Modulus (GPa) = 49.34194 62.31585 55.82889
# Shear Modulus (GPa) = 27.88949 32.18788 30.03868
#
# Velocity S-wave (km/s) = 3.85654 4.14308 4.00237
# Velocity P-wave (km/s) = 6.79290 7.49123 7.15060
#
# Compressibility (1/GPa) = 0.02026674
#
# Stress axis : x y z
#
# Youngs Moduli (GPa) = 140.94835 74.79051 44.16189
#
# Poissons Ratio (x) = 0.21008 0.05420
# Poissons Ratio (y) = 0.39591 0.32614
# Poissons Ratio (z) = 0.17297 0.55234
#
# Static dielectric constant tensor:
#      x y z
#    x 1.735410 0.000000 -0.043130 
#    y 0.000000 1.642880 0.000000 
#    z -0.043130 0.000000 1.756820 
# 
# From -- ./inp_files/232513.got.cif
#   From: 2010.05.17/outbox.cif.g08.bks.cpg/sg15_117_cif.got.tgz:232513.got - 2010.06.03 18:47:42.
