data_PCOD9301822
_publ_section_title
;
Structure prediction by ZEFSAII (Michael W. Deem and Ramdas Pophale) SiO2 
 PCOD9301822
Probable space group: C 2/C
;
_chemical_formula_sum "Si O2"
_cell_formula_units_Z 56
_cell_length_a 8.783837
_cell_length_b 16.980336
_cell_length_c 27.818545
_cell_angle_alpha 90.000000
_cell_angle_beta 40.557078
_cell_angle_gamma 90.000000
_cell_volume 2697.835252
_symmetry_space_group_name_H-M "C 2/C"
_symmetry_group_IT_number 15
_symmetry_cell_setting 'monoclinic'
loop_
_space_group_symop_operation_xyz
x,y,z
-x,y,1/2-z
-x,-y,-z
x,-y,1/2+z
1/2+x,1/2+y,z
1/2-x,1/2+y,1/2-z
1/2-x,1/2-y,-z
1/2+x,1/2-y,1/2+z
loop_
_atom_site_type_symbol
_atom_site_label
_atom_site_fract_x
_atom_site_fract_y
_atom_site_fract_z
Si Si1 0.281751 0.182139 0.032260
Si Si2 0.500000 0.027164 0.750000
Si Si3 0.179838 0.429276 0.454369
Si Si4 0.615113 0.581472 0.488764
Si Si5 0.468235 0.726008 0.570077
Si Si6 0.123297 0.861522 0.308306
Si Si7 0.000000 0.248936 0.750000
Si Si8 0.294948 0.612494 0.134402
O O1 0.304387 0.211023 0.082452
O O2 0.073401 0.119733 0.074737
O O3 0.250000 0.250000 0.000000
O O4 0.533982 0.142357 0.966300
O O5 0.641814 0.087003 0.749760
O O6 0.316662 0.967450 0.818582
O O7 0.251100 0.422434 0.493165
O O8 0.417299 0.425792 0.366954
O O9 0.000000 0.500000 0.500000
O O10 0.500000 0.500000 0.500000
O O11 0.431851 0.649840 0.544600
O O12 0.762527 0.612365 0.408372
O O13 0.398172 0.696496 0.639795
O O14 0.750000 0.750000 0.500000
O O15 0.090180 0.807275 0.270395
O O16 0.806678 0.309532 0.816619
#
# Coordination Sequence:
#
# PCOD9301822 Si02
#       8
#     8   4   8   8   8   8   4   8
#     4  12  22  38  70 102 133 164 214 284 350 394
#     4  11  26  46  64  85 140 186 226 261 314 422
#     4  11  24  41  66 101 134 162 220 290 344 396
#     4  11  21  39  66  98 132 171 212 280 346 389
#     4  11  21  41  67 101 131 163 214 290 340 394
#     4  11  24  44  63  95 129 177 225 265 333 389
#     4  11  26  44  68  91 138 184 228 273 308 420
#     4  11  24  44  65  99 132 181 226 265 341 405
#
# _framework density 20.757383000000001
#
# number of rings (size 3 to 8) (size 9 to 14) (size 15 to 20)
#    0.000    0.857    4.286    5.143    2.000    1.143 
#    0.000    0.000    0.000    0.000    0.000    0.000 
#    0.000    0.000    0.000    0.000    0.000    0.000 
#
# Total GULP energy -156150.499486 kJ/mol
# GULP energy per Si atom -5576.803553 kJ/mol
# Density = 2.071014 g / cm^3
# Si number density = 20.757383 Si / 1000 Ang^3
#
#
#
# Elastic Constant Matrix: (Units=GPa)
#
#
# Indices 1 2 3 4 5 6 
#
# 1 108.4488 54.5899 41.6669 -0.0044 2.4813 0.0016
# 2 54.5899 100.7675 32.0069 -0.0013 4.2455 -0.0008
# 3 41.6669 32.0069 62.3808 -0.0041 7.2637 0.0011
# 4 -0.0044 -0.0013 -0.0041 19.6613 0.0034 -7.2417
# 5 2.4813 4.2455 7.2637 0.0034 40.0608 -0.0010
# 6 0.0016 -0.0008 0.0011 -7.2417 -0.0010 42.6133
#
#
#
# Elastic Compliance Matrix: (Units=1/GPa)
#
#
# Indices 1 2 3 4 5 6 
#
# 1 0.014843 -0.005850 -0.007026 0.000001 0.000975 0.000000
# 2 -0.005850 0.014163 -0.003296 -0.000001 -0.000541 0.000000
# 3 -0.007026 -0.003296 0.022805 0.000004 -0.003350 0.000000
# 4 0.000001 -0.000001 0.000004 0.054257 -0.000005 0.009221
# 5 0.000975 -0.000541 -0.003350 -0.000005 0.025567 0.000000
# 6 0.000000 0.000000 0.000000 0.009221 0.000000 0.025034
#
#
# Mechanical properties :
#
#
# Convention : Reuss Voigt Hill
#
# Bulk Modulus (GPa) = 51.37222 58.68052 55.02637
# Shear Modulus (GPa) = 25.57513 30.02263 27.79888
#
# Velocity S-wave (km/s) = 3.51393 3.80723 3.66352
# Velocity P-wave (km/s) = 6.42388 6.90346 6.66798
#
# Compressibility (1/GPa) = 0.01946577
#
# Stress axis : x y z
#
# Youngs Moduli (GPa) = 67.37160 70.60644 43.85030
#
# Poissons Ratio (x) = 0.41308 0.30809
# Poissons Ratio (y) = 0.39416 0.14453
# Poissons Ratio (z) = 0.47335 0.23273
#
# Static dielectric constant tensor:
#      x y z
#    x 1.760490 -0.000010 -0.003610 
#    y -0.000010 1.859250 0.000000 
#    z -0.003610 0.000000 1.777700 
# 
# From -- ./inp_files/308619.got.cif
#   From: 2010.05.17/outbox.cif.g08.bks.cpg/sg15_155_cif.got.tgz:308619.got - 2010.06.03 18:47:42.
