data_PCOD9301959
_publ_section_title
;
Structure prediction by ZEFSAII (Michael W. Deem and Ramdas Pophale) SiO2 
 PCOD9301959
Probable space group: C 2/C
;
_chemical_formula_sum "Si O2"
_cell_formula_units_Z 56
_cell_length_a 15.033435
_cell_length_b 7.373084
_cell_length_c 20.145438
_cell_angle_alpha 90.000000
_cell_angle_beta 99.774692
_cell_angle_gamma 90.000000
_cell_volume 2200.560183
_symmetry_space_group_name_H-M "C 2/C"
_symmetry_group_IT_number 15
_symmetry_cell_setting 'monoclinic'
loop_
_space_group_symop_operation_xyz
x,y,z
-x,y,1/2-z
-x,-y,-z
x,-y,1/2+z
1/2+x,1/2+y,z
1/2-x,1/2+y,1/2-z
1/2-x,1/2-y,-z
1/2+x,1/2-y,1/2+z
loop_
_atom_site_type_symbol
_atom_site_label
_atom_site_fract_x
_atom_site_fract_y
_atom_site_fract_z
Si Si1 0.665863 0.681551 0.912485
Si Si2 0.543960 0.287259 0.648199
Si Si3 0.631913 0.265242 0.792319
Si Si4 0.391916 0.173004 0.230299
Si Si5 0.162657 0.085904 0.051059
Si Si6 0.991622 0.420558 0.926921
Si Si7 0.314511 0.741189 0.862961
O O1 0.645761 0.698704 0.832237
O O2 0.770838 0.740774 0.934455
O O3 0.585739 0.822888 0.924309
O O4 0.652480 0.539873 0.972010
O O5 0.620269 0.319797 0.713724
O O6 0.452453 0.333550 0.674931
O O7 0.572269 0.379099 0.582754
O O8 0.530302 0.076792 0.628977
O O9 0.719728 0.339136 0.840640
O O10 0.630532 0.041879 0.785878
O O11 0.500000 0.186283 0.250000
O O12 0.351550 0.252257 0.292991
O O13 0.213324 0.936657 0.100598
O O14 0.901015 0.303806 0.914889
O O15 0.000000 0.500000 0.000000
#
# Coordination Sequence:
#
# PCOD9301959 Si02
#       7
#     8   8   8   8   8   8   8
#     4  11  22  45  70  97 143 189 228 282 365 424
#     4  11  21  43  71  99 136 186 229 289 356 424
#     4  11  21  40  70 100 140 177 241 294 344 421
#     4  12  20  43  71  98 132 191 234 280 361 430
#     4  11  25  42  71 104 141 184 230 298 355 412
#     4  12  23  44  73  97 136 195 236 270 351 438
#     4  12  25  43  71 108 141 182 239 297 347 429
#
# _framework density 25.448067999999999
#
# number of rings (size 3 to 8) (size 9 to 14) (size 15 to 20)
#    0.000    0.571    8.571    0.857    0.000    0.571 
#    2.571    4.286    0.000    0.000    0.000    0.000 
#    0.000    0.000    0.000    0.000    0.000    0.000 
#
# Total GULP energy -156394.343403 kJ/mol
# GULP energy per Si atom -5585.512264 kJ/mol
# Density = 2.539015 g / cm^3
# Si number density = 25.448068 Si / 1000 Ang^3
#
#
#
# Elastic Constant Matrix: (Units=GPa)
#
#
# Indices 1 2 3 4 5 6 
#
# 1 92.9478 6.1995 41.5289 0.0000 9.6233 0.0000
# 2 6.1995 46.8530 11.1776 0.0000 3.5488 0.0000
# 3 41.5289 11.1776 188.0147 0.0000 -5.1149 0.0000
# 4 0.0000 0.0000 0.0000 10.4651 0.0000 -1.3966
# 5 9.6233 3.5488 -5.1149 0.0000 22.4768 0.0000
# 6 0.0000 0.0000 0.0000 -1.3966 0.0000 23.4702
#
#
#
# Elastic Compliance Matrix: (Units=1/GPa)
#
#
# Indices 1 2 3 4 5 6 
#
# 1 0.012735 -0.000525 -0.002946 0.000000 -0.006040 0.000000
# 2 -0.000525 0.021988 -0.001288 0.000000 -0.003540 0.000000
# 3 -0.002946 -0.001288 0.006124 0.000000 0.002858 0.000000
# 4 0.000000 0.000000 0.000000 0.096320 0.000000 0.005732
# 5 -0.006040 -0.003540 0.002858 0.000000 0.048286 0.000000
# 6 0.000000 0.000000 0.000000 0.005732 0.000000 0.042948
#
#
# Mechanical properties :
#
#
# Convention : Reuss Voigt Hill
#
# Bulk Modulus (GPa) = 31.91801 49.51415 40.71608
# Shear Modulus (GPa) = 20.13191 29.20973 24.67082
#
# Velocity S-wave (km/s) = 2.81570 3.39162 3.11699
# Velocity P-wave (km/s) = 4.81046 5.90226 5.38410
#
# Compressibility (1/GPa) = 0.03133027
#
# Stress axis : x y z
#
# Youngs Moduli (GPa) = 78.52116 45.47915 163.29775
#
# Poissons Ratio (x) = 0.02387 0.48110
# Poissons Ratio (y) = 0.04121 0.21026
# Poissons Ratio (z) = 0.23133 0.05856
#
# Static dielectric constant tensor:
#      x y z
#    x 2.136560 0.000000 -0.094120 
#    y 0.000000 1.878740 0.000000 
#    z -0.094120 0.000000 2.226220 
# 
# From -- ./inp_files/242824.got.cif
#   From: 2010.05.17/outbox.cif.g08.bks.cpg/sg15_122_cif.got.tgz:242824.got - 2010.06.03 18:47:42.
