data_PCOD9301864
_publ_section_title
;
Structure prediction by ZEFSAII (Michael W. Deem and Ramdas Pophale) SiO2 
 PCOD9301864
Probable space group: C 2/C
;
_chemical_formula_sum "Si O2"
_cell_formula_units_Z 52
_cell_length_a 22.166037
_cell_length_b 8.775498
_cell_length_c 18.421525
_cell_angle_alpha 90.000000
_cell_angle_beta 136.724313
_cell_angle_gamma 90.000000
_cell_volume 2456.398717
_symmetry_space_group_name_H-M "C 2/C"
_symmetry_group_IT_number 15
_symmetry_cell_setting 'monoclinic'
loop_
_space_group_symop_operation_xyz
x,y,z
-x,y,1/2-z
-x,-y,-z
x,-y,1/2+z
1/2+x,1/2+y,z
1/2-x,1/2+y,1/2-z
1/2-x,1/2-y,-z
1/2+x,1/2-y,1/2+z
loop_
_atom_site_type_symbol
_atom_site_label
_atom_site_fract_x
_atom_site_fract_y
_atom_site_fract_z
Si Si1 0.522113 0.344144 0.183757
Si Si2 0.216648 0.419199 0.984859
Si Si3 0.206275 0.007448 0.800882
Si Si4 0.874645 0.072864 0.041093
Si Si5 0.905895 0.522068 0.249621
Si Si6 0.500000 0.227819 0.750000
Si Si7 0.747858 0.159674 0.808652
O O1 0.500000 0.340285 0.250000
O O2 0.610730 0.441679 0.247482
O O3 0.438017 0.430656 0.076446
O O4 0.544601 0.172036 0.178692
O O5 0.221777 0.459560 0.073384
O O6 0.287928 0.524619 0.008422
O O7 0.250000 0.250000 0.000000
O O8 0.128545 0.436238 0.861857
O O9 0.227767 0.112271 0.751024
O O10 0.209295 0.829628 0.782723
O O11 0.927730 0.172412 0.145671
O O12 0.835476 0.150906 0.935251
O O13 0.823162 0.465045 0.224413
O O14 0.963733 0.375923 0.283286
#
# Coordination Sequence:
#
# PCOD9301864 Si02
#       7
#     8   8   8   8   8   4   8
#     4  12  21  42  68 102 132 174 221 287 328 395
#     4  11  21  39  72 100 124 176 227 282 318 403
#     4  12  24  45  71  95 144 175 231 270 345 398
#     4  11  23  42  66  98 135 175 224 274 348 381
#     4  11  23  40  68 104 131 170 229 276 341 389
#     4  12  22  38  68  96 140 168 220 290 316 404
#     4  11  27  45  66 101 138 187 216 280 338 419
#
# _framework density 21.169203
#
# number of rings (size 3 to 8) (size 9 to 14) (size 15 to 20)
#    0.000    0.615    4.615    3.692    2.154    3.077 
#    0.000    0.000    0.000    4.615    0.000    0.000 
#    0.000    0.000    0.000    0.000    0.000    0.000 
#
# Total GULP energy -145349.963269 kJ/mol
# GULP energy per Si atom -5590.383203 kJ/mol
# Density = 2.112102 g / cm^3
# Si number density = 21.169203 Si / 1000 Ang^3
#
#
#
# Elastic Constant Matrix: (Units=GPa)
#
#
# Indices 1 2 3 4 5 6 
#
# 1 96.4818 31.7033 24.0369 0.0000 -9.3550 0.0000
# 2 31.7033 126.0253 26.3234 0.0000 0.2134 0.0000
# 3 24.0369 26.3234 42.8249 0.0000 -4.4044 0.0000
# 4 0.0000 0.0000 0.0000 21.1438 0.0000 7.7056
# 5 -9.3550 0.2134 -4.4044 0.0000 33.5156 0.0000
# 6 0.0000 0.0000 0.0000 7.7056 0.0000 40.7717
#
#
#
# Elastic Compliance Matrix: (Units=1/GPa)
#
#
# Indices 1 2 3 4 5 6 
#
# 1 0.012698 -0.002032 -0.005588 0.000000 0.002823 0.000000
# 2 -0.002032 0.009450 -0.004798 0.000000 -0.001258 0.000000
# 3 -0.005588 -0.004798 0.029680 0.000000 0.002371 0.000000
# 4 0.000000 0.000000 0.000000 0.050794 0.000000 -0.009600
# 5 0.002823 -0.001258 0.002371 0.000000 0.030944 0.000000
# 6 0.000000 0.000000 0.000000 -0.009600 0.000000 0.026341
#
#
# Mechanical properties :
#
#
# Convention : Reuss Voigt Hill
#
# Bulk Modulus (GPa) = 37.04606 47.71770 42.38188
# Shear Modulus (GPa) = 25.80762 31.30411 28.55587
#
# Velocity S-wave (km/s) = 3.49537 3.84963 3.67677
# Velocity P-wave (km/s) = 5.81619 6.50766 6.17162
#
# Compressibility (1/GPa) = 0.02699343
#
# Stress axis : x y z
#
# Youngs Moduli (GPa) = 78.75127 105.81626 33.69251
#
# Poissons Ratio (x) = 0.21502 0.18827
# Poissons Ratio (y) = 0.16002 0.16165
# Poissons Ratio (z) = 0.44006 0.50768
#
# Static dielectric constant tensor:
#      x y z
#    x 1.751730 0.000000 0.019970 
#    y 0.000000 1.832490 0.000000 
#    z 0.019970 0.000000 1.776650 
# 
# From -- ./inp_files/214360.got.cif
#   From: 2010.05.17/outbox.cif.g08.bks.cpg/sg15_108_cif.got.tgz:214360.got - 2010.06.03 18:47:42.
