data_PCOD9301285
_publ_section_title
;
Structure prediction by ZEFSAII (Michael W. Deem and Ramdas Pophale) SiO2 
 PCOD9301285
Probable space group: C 2/C
;
_chemical_formula_sum "Si O2"
_cell_formula_units_Z 64
_cell_length_a 11.925138
_cell_length_b 15.214830
_cell_length_c 30.444749
_cell_angle_alpha 90.000000
_cell_angle_beta 35.189587
_cell_angle_gamma 90.000000
_cell_volume 3183.312871
_symmetry_space_group_name_H-M "C 2/C"
_symmetry_group_IT_number 15
_symmetry_cell_setting 'monoclinic'
loop_
_space_group_symop_operation_xyz
x,y,z
-x,y,1/2-z
-x,-y,-z
x,-y,1/2+z
1/2+x,1/2+y,z
1/2-x,1/2+y,1/2-z
1/2-x,1/2-y,-z
1/2+x,1/2-y,1/2+z
loop_
_atom_site_type_symbol
_atom_site_label
_atom_site_fract_x
_atom_site_fract_y
_atom_site_fract_z
Si Si1 0.903752 0.518489 0.170709
Si Si2 0.049638 0.810154 0.914821
Si Si3 0.384525 0.160691 0.911594
Si Si4 0.186562 0.719443 0.659800
Si Si5 0.199656 0.909553 0.658286
Si Si6 0.945175 0.139984 0.923010
Si Si7 0.968454 0.038854 0.149230
Si Si8 0.163384 0.311845 0.593533
O O1 0.831665 0.524863 0.143219
O O2 0.718056 0.508217 0.262198
O O3 0.044064 0.435132 0.125742
O O4 0.004914 0.611017 0.150395
O O5 0.018940 0.714016 0.902775
O O6 0.096215 0.883020 0.862731
O O7 0.201498 0.807049 0.906311
O O8 0.835821 0.838630 0.000475
O O9 0.383061 0.216096 0.867456
O O10 0.291690 0.813177 0.631897
O O11 0.343038 0.647947 0.622624
O O12 0.000000 0.712321 0.750000
O O13 0.000000 0.904066 0.750000
O O14 0.133328 0.929673 0.630673
O O15 0.919581 0.216103 0.894133
O O16 0.791910 0.157445 0.010657
O O17 0.938518 0.043188 0.905651
#
# Coordination Sequence:
#
# PCOD9301285 Si02
#       8
#     8   8   8   8   8   8   8   8
#     4  11  24  42  65  94 126 167 213 262 317 375
#     4  11  25  44  63  93 133 166 204 264 322 376
#     4  11  24  42  66  94 124 168 214 259 315 382
#     4  11  20  40  68  91 124 170 217 260 307 374
#     4   9  20  40  62  88 126 163 209 266 312 364
#     4  11  24  42  66  94 124 168 214 259 315 382
#     4  11  24  42  65  94 126 167 213 262 317 375
#     4  11  25  44  63  93 133 166 204 264 322 376
#
# _framework density 20.104841
#
# number of rings (size 3 to 8) (size 9 to 14) (size 15 to 20)
#    0.000    1.250    3.750    1.500    3.500    2.500 
#    0.000    1.250    0.000    0.000    0.000    0.000 
#    0.000    0.000    0.000    0.000    0.000    0.000 
#
# Total GULP energy -178668.697128 kJ/mol
# GULP energy per Si atom -5583.396785 kJ/mol
# Density = 2.005908 g / cm^3
# Si number density = 20.104841 Si / 1000 Ang^3
#
#
#
# Elastic Constant Matrix: (Units=GPa)
#
#
# Indices 1 2 3 4 5 6 
#
# 1 112.1430 16.5846 4.5804 -0.0005 12.7950 0.0000
# 2 16.5846 51.8188 -4.9762 -0.0013 6.2267 -0.0005
# 3 4.5804 -4.9762 47.7824 0.0032 9.5356 0.0020
# 4 -0.0005 -0.0013 0.0032 5.9687 -0.0011 -10.7913
# 5 12.7950 6.2267 9.5356 -0.0011 23.8208 -0.0009
# 6 0.0000 -0.0005 0.0020 -10.7913 -0.0009 17.2665
#
#
#
# Elastic Compliance Matrix: (Units=1/GPa)
#
#
# Indices 1 2 3 4 5 6 
#
# 1 0.009830 -0.002642 -0.000328 0.000007 -0.004458 0.000004
# 2 -0.002642 0.021151 0.003560 -0.000008 -0.005535 -0.000005
# 3 -0.000328 0.003560 0.023346 0.000150 -0.010100 0.000090
# 4 0.000007 -0.000008 0.000150 -1.289094 -0.000154 -0.805666
# 5 -0.004458 -0.005535 -0.010100 -0.000154 0.049865 -0.000093
# 6 0.000004 -0.000005 0.000090 -0.805666 -0.000093 -0.445614
#
#
# Mechanical properties :
#
#
# Convention : Reuss Voigt Hill
#
# Bulk Modulus (GPa) = 18.01529 27.12466 22.56997
# Shear Modulus (GPa) = -3.09944 22.44823 9.67440
#
# Velocity S-wave (km/s) = -1.24297 3.34512 2.19600
# Velocity P-wave (km/s) = 2.63062 5.33298 4.20481
#
# Compressibility (1/GPa) = 0.05550840
#
# Stress axis : x y z
#
# Youngs Moduli (GPa) = 101.73009 47.28012 42.83382
#
# Poissons Ratio (x) = 0.12491 0.01404
# Poissons Ratio (y) = 0.26875 -0.15251
# Poissons Ratio (z) = 0.03334 -0.16834
#
# Static dielectric constant tensor:
#      x y z
#    x 1.691420 0.000000 0.027370 
#    y 0.000000 1.713860 0.000000 
#    z 0.027370 0.000000 1.708240 
# 
# From -- ./inp_files/311176.got.cif
#   From: 2010.05.17/outbox.cif.g08.bks.cpg/sg15_156_cif.got.tgz:311176.got - 2010.06.03 18:47:42.
