data_PCOD9301766
_publ_section_title
;
Structure prediction by ZEFSAII (Michael W. Deem and Ramdas Pophale) SiO2 
 PCOD9301766
Probable space group: C 2/C
;
_chemical_formula_sum "Si O2"
_cell_formula_units_Z 32
_cell_length_a 9.134377
_cell_length_b 19.465282
_cell_length_c 16.825562
_cell_angle_alpha 90.000000
_cell_angle_beta 150.424630
_cell_angle_gamma 90.000000
_cell_volume 1476.577504
_symmetry_space_group_name_H-M "C 2/C"
_symmetry_group_IT_number 15
_symmetry_cell_setting 'monoclinic'
loop_
_space_group_symop_operation_xyz
x,y,z
-x,y,1/2-z
-x,-y,-z
x,-y,1/2+z
1/2+x,1/2+y,z
1/2-x,1/2+y,1/2-z
1/2-x,1/2-y,-z
1/2+x,1/2-y,1/2+z
loop_
_atom_site_type_symbol
_atom_site_label
_atom_site_fract_x
_atom_site_fract_y
_atom_site_fract_z
Si Si1 0.517833 0.695952 0.491928
Si Si2 0.469000 0.965997 0.070380
Si Si3 0.353854 0.817258 0.307405
Si Si4 0.129902 0.950627 0.629511
O O1 0.364388 0.762931 0.383462
O O2 0.600657 0.698658 0.623575
O O3 0.343617 0.626235 0.390296
O O4 0.834007 0.689284 0.594017
O O5 0.653491 0.895461 0.166190
O O6 0.126951 0.948994 0.924973
O O7 0.586497 0.016564 0.194837
O O8 0.500000 0.000000 0.000000
O O9 0.000000 0.000000 0.500000
#
# Coordination Sequence:
#
# PCOD9301766 Si02
#       4
#     8   8   8   8
#     4   9  18  32  55  81 110 146 193 238 278 328
#     4  11  23  37  59  89 118 149 191 240 287 339
#     4   9  18  33  53  82 111 145 193 239 276 329
#     4  11  21  39  61  85 115 154 191 235 288 343
#
# _framework density 21.671737
#
# number of rings (size 3 to 8) (size 9 to 14) (size 15 to 20)
#    0.000    2.000    2.500    1.500    3.500    0.000 
#    0.000    0.000    0.000    9.000    0.000    0.000 
#    0.000    0.000    0.000    0.000    0.000    0.000 
#
# Total GULP energy -89470.376491 kJ/mol
# GULP energy per Si atom -5591.898531 kJ/mol
# Density = 2.162241 g / cm^3
# Si number density = 21.671737 Si / 1000 Ang^3
#
#
#
# Elastic Constant Matrix: (Units=GPa)
#
#
# Indices 1 2 3 4 5 6 
#
# 1 52.8742 13.7861 31.3852 0.0073 -11.7013 0.0057
# 2 13.7861 162.2242 77.1357 -0.0319 -27.8181 -0.0057
# 3 31.3852 77.1357 130.5121 -0.0629 -28.0754 0.0025
# 4 0.0073 -0.0319 -0.0629 40.6411 -0.0063 -11.1085
# 5 -11.7013 -27.8181 -28.0754 -0.0063 39.0208 0.0134
# 6 0.0057 -0.0057 0.0025 -11.1085 0.0134 26.7409
#
#
#
# Elastic Compliance Matrix: (Units=1/GPa)
#
#
# Indices 1 2 3 4 5 6 
#
# 1 0.022617 0.001293 -0.005378 -0.000014 0.003834 -0.000012
# 2 0.001293 0.008938 -0.004897 0.000000 0.003236 0.000000
# 3 -0.005378 -0.004897 0.012721 0.000019 0.004049 0.000005
# 4 -0.000014 0.000000 0.000019 0.027757 0.000010 0.011531
# 5 0.003834 0.003236 0.004049 0.000010 0.031997 -0.000013
# 6 -0.000012 0.000000 0.000005 0.011531 -0.000013 0.042186
#
#
# Mechanical properties :
#
#
# Convention : Reuss Voigt Hill
#
# Bulk Modulus (GPa) = 38.00824 65.58050 51.79437
# Shear Modulus (GPa) = 28.90998 36.16747 32.53872
#
# Velocity S-wave (km/s) = 3.65635 4.08962 3.87904
# Velocity P-wave (km/s) = 5.94991 7.25441 6.63430
#
# Compressibility (1/GPa) = 0.02631008
#
# Stress axis : x y z
#
# Youngs Moduli (GPa) = 44.21537 111.88232 78.61185
#
# Poissons Ratio (x) = -0.14463 0.42277
# Poissons Ratio (y) = -0.05716 0.38498
# Poissons Ratio (z) = 0.23779 0.54792
#
# Static dielectric constant tensor:
#      x y z
#    x 1.874650 -0.000040 0.065050 
#    y -0.000040 1.740410 -0.000070 
#    z 0.065050 -0.000070 1.754620 
# 
# From -- ./inp_files/22096.got.cif
#   From: 2010.05.17/outbox.cif.g08.bks.cpg/sg15_12_cif.got.tgz:22096.got - 2010.06.03 18:47:42.
