data_PCOD9301049
_publ_section_title
;
Structure prediction by ZEFSAII (Michael W. Deem and Ramdas Pophale) SiO2 
 PCOD9301049
Probable space group: C 2/C
;
_chemical_formula_sum "Si O2"
_cell_formula_units_Z 44
_cell_length_a 21.791812
_cell_length_b 20.534324
_cell_length_c 13.393491
_cell_angle_alpha 90.000000
_cell_angle_beta 158.065747
_cell_angle_gamma 90.000000
_cell_volume 2238.759548
_symmetry_space_group_name_H-M "C 2/C"
_symmetry_group_IT_number 15
_symmetry_cell_setting 'monoclinic'
loop_
_space_group_symop_operation_xyz
x,y,z
-x,y,1/2-z
-x,-y,-z
x,-y,1/2+z
1/2+x,1/2+y,z
1/2-x,1/2+y,1/2-z
1/2-x,1/2-y,-z
1/2+x,1/2-y,1/2+z
loop_
_atom_site_type_symbol
_atom_site_label
_atom_site_fract_x
_atom_site_fract_y
_atom_site_fract_z
Si Si1 0.968357 0.836886 0.415312
Si Si2 0.910697 0.240502 0.009719
Si Si3 0.500000 0.976054 0.250000
Si Si4 0.296898 0.882390 0.799136
Si Si5 0.673009 0.915237 0.881278
Si Si6 0.468991 0.210254 0.088037
O O1 0.124714 0.863065 0.591105
O O2 0.926215 0.765678 0.308127
O O3 0.996958 0.815298 0.572495
O O4 0.818153 0.884578 0.167432
O O5 0.000000 0.244605 0.250000
O O6 0.899924 0.314369 0.949662
O O7 0.719861 0.219328 0.727836
O O8 0.611946 0.931311 0.489217
O O9 0.392347 0.020635 0.162815
O O10 0.273661 0.914672 0.654745
O O11 0.526233 0.862868 0.659346
O O12 0.500000 0.225243 0.250000
#
# Coordination Sequence:
#
# PCOD9301049 Si02
#       6
#     8   8   4   8   8   8
#     4  11  22  40  68  98 128 160 214 279 334 377
#     4  11  22  38  63  98 139 165 205 267 338 387
#     4  12  26  44  62  88 134 182 222 260 314 386
#     4  11  25  41  63  97 131 171 217 264 325 390
#     4  12  22  43  68  92 127 171 223 267 318 386
#     4  11  20  36  66  99 125 162 211 270 328 387
#
# _framework density 19.653742000000001
#
# number of rings (size 3 to 8) (size 9 to 14) (size 15 to 20)
#    0.000    0.727    5.455    3.818    0.000    5.091 
#    0.000    1.818    0.000    0.000    0.000    0.000 
#    0.000    0.000    0.000    0.000    0.000    0.000 
#
# Total GULP energy -122788.803836 kJ/mol
# GULP energy per Si atom -5581.309265 kJ/mol
# Density = 1.960901 g / cm^3
# Si number density = 19.653742 Si / 1000 Ang^3
#
#
#
# Elastic Constant Matrix: (Units=GPa)
#
#
# Indices 1 2 3 4 5 6 
#
# 1 106.2844 52.0200 45.9612 0.0000 -10.9129 0.0000
# 2 52.0200 115.1263 47.1267 0.0000 0.9140 0.0000
# 3 45.9612 47.1267 82.0535 0.0000 -14.6756 0.0000
# 4 0.0000 0.0000 0.0000 28.0289 0.0000 -3.7910
# 5 -10.9129 0.9140 -14.6756 0.0000 21.4596 0.0000
# 6 0.0000 0.0000 0.0000 -3.7910 0.0000 40.6584
#
#
#
# Elastic Compliance Matrix: (Units=1/GPa)
#
#
# Indices 1 2 3 4 5 6 
#
# 1 0.013997 -0.004523 -0.004483 0.000000 0.004245 0.000000
# 2 -0.004523 0.013448 -0.006499 0.000000 -0.007318 0.000000
# 3 -0.004483 -0.006499 0.020592 0.000000 0.012079 0.000000
# 4 0.000000 0.000000 0.000000 0.036133 0.000000 0.003369
# 5 0.004245 -0.007318 0.012079 0.000000 0.057330 0.000000
# 6 0.000000 0.000000 0.000000 0.003369 0.000000 0.024909
#
#
# Mechanical properties :
#
#
# Convention : Reuss Voigt Hill
#
# Bulk Modulus (GPa) = 58.73426 65.96444 62.34935
# Shear Modulus (GPa) = 24.61893 28.58646 26.60270
#
# Velocity S-wave (km/s) = 3.54310 3.81793 3.68308
# Velocity P-wave (km/s) = 6.83282 7.28503 7.06255
#
# Compressibility (1/GPa) = 0.01702584
#
# Stress axis : x y z
#
# Youngs Moduli (GPa) = 71.44357 74.35821 48.56352
#
# Poissons Ratio (x) = 0.33633 0.21773
# Poissons Ratio (y) = 0.32314 0.31563
# Poissons Ratio (z) = 0.32030 0.48327
#
# Static dielectric constant tensor:
#      x y z
#    x 2.435770 0.000000 -0.124050 
#    y 0.000000 1.675040 0.000000 
#    z -0.124050 0.000000 1.702360 
# 
# From -- ./inp_files/78294.got.cif
#   From: 2010.05.17/outbox.cif.g08.bks.cpg/sg15_40_cif.got.tgz:78294.got - 2010.06.03 18:47:42.
