data_PCOD9301742
_publ_section_title
;
Structure prediction by ZEFSAII (Michael W. Deem and Ramdas Pophale) SiO2 
 PCOD9301742
Probable space group: C 2/C
;
_chemical_formula_sum "Si O2"
_cell_formula_units_Z 52
_cell_length_a 18.908502
_cell_length_b 5.797538
_cell_length_c 26.923657
_cell_angle_alpha 90.000000
_cell_angle_beta 123.171063
_cell_angle_gamma 90.000000
_cell_volume 2470.480208
_symmetry_space_group_name_H-M "C 2/C"
_symmetry_group_IT_number 15
_symmetry_cell_setting 'monoclinic'
loop_
_space_group_symop_operation_xyz
x,y,z
-x,y,1/2-z
-x,-y,-z
x,-y,1/2+z
1/2+x,1/2+y,z
1/2-x,1/2+y,1/2-z
1/2-x,1/2-y,-z
1/2+x,1/2-y,1/2+z
loop_
_atom_site_type_symbol
_atom_site_label
_atom_site_fract_x
_atom_site_fract_y
_atom_site_fract_z
Si Si1 0.632406 0.044727 0.156042
Si Si2 0.500000 0.170618 0.750000
Si Si3 0.727456 0.165172 0.293482
Si Si4 0.722209 0.297659 0.111080
Si Si5 0.544178 0.116226 0.363271
Si Si6 0.768101 0.500589 0.532615
Si Si7 0.129036 0.021513 0.831676
O O1 0.682614 0.154274 0.222891
O O2 0.646875 0.159684 0.107651
O O3 0.533872 0.078949 0.130002
O O4 0.682165 0.798435 0.173329
O O5 0.578477 0.340871 0.779283
O O6 0.487525 0.016660 0.697523
O O7 0.664571 0.292024 0.307338
O O8 0.740742 0.925016 0.326273
O O9 0.715108 0.480425 0.064048
O O10 0.789347 0.110957 0.117016
O O11 0.632035 0.010914 0.416228
O O12 0.571206 0.368552 0.352500
O O13 0.750000 0.250000 0.500000
O O14 0.750000 0.750000 0.500000
#
# Coordination Sequence:
#
# PCOD9301742 Si02
#       7
#     8   4   8   8   8   8   8
#     4  11  24  37  66 106 155 183 226 291 380 460
#     4  12  22  34  68 106 150 174 232 304 372 444
#     4  11  21  39  63 106 149 195 219 277 381 469
#     4  11  23  45  67  99 139 193 237 298 366 444
#     4  12  25  43  68 114 138 190 248 308 370 436
#     4  12  28  53  81 101 138 203 271 319 359 427
#     4  11  21  38  67  98 153 184 237 286 361 451
#
# _framework density 21.048539999999999
#
# number of rings (size 3 to 8) (size 9 to 14) (size 15 to 20)
#    0.000    0.615    4.615    4.154    4.308    1.231 
#    0.000    1.538    0.000    0.000    0.000    0.000 
#    0.000    0.000    0.000    0.000    0.000    0.000 
#
# Total GULP energy -144965.029536 kJ/mol
# GULP energy per Si atom -5575.578059 kJ/mol
# Density = 2.100063 g / cm^3
# Si number density = 21.048540 Si / 1000 Ang^3
#
#
#
# Elastic Constant Matrix: (Units=GPa)
#
#
# Indices 1 2 3 4 5 6 
#
# 1 143.6052 55.2153 50.3255 0.0000 17.6311 0.0000
# 2 55.2153 68.2377 24.7159 0.0000 0.0572 0.0000
# 3 50.3255 24.7159 79.6244 0.0000 -7.3757 0.0000
# 4 0.0000 0.0000 0.0000 46.1379 0.0000 -5.5992
# 5 17.6311 0.0572 -7.3757 0.0000 19.7304 0.0000
# 6 0.0000 0.0000 0.0000 -5.5992 0.0000 35.3054
#
#
#
# Elastic Compliance Matrix: (Units=1/GPa)
#
#
# Indices 1 2 3 4 5 6 
#
# 1 0.015827 -0.009675 -0.008606 0.000000 -0.017332 0.000000
# 2 -0.009675 0.022505 -0.000078 0.000000 0.008551 0.000000
# 3 -0.008606 -0.000078 0.019407 0.000000 0.014945 0.000000
# 4 0.000000 0.000000 0.000000 0.022099 0.000000 0.003505
# 5 -0.017332 0.008551 0.014945 0.000000 0.071733 0.000000
# 6 0.000000 0.000000 0.000000 0.003505 0.000000 0.028880
#
#
# Mechanical properties :
#
#
# Convention : Reuss Voigt Hill
#
# Bulk Modulus (GPa) = 47.57338 61.33119 54.45228
# Shear Modulus (GPa) = 22.30372 30.98211 26.64292
#
# Velocity S-wave (km/s) = 3.25873 3.84074 3.56165
# Velocity P-wave (km/s) = 6.06712 6.99068 6.54521
#
# Compressibility (1/GPa) = 0.02102016
#
# Stress axis : x y z
#
# Youngs Moduli (GPa) = 63.18120 44.43484 51.52842
#
# Poissons Ratio (x) = 0.42993 0.44344
# Poissons Ratio (y) = 0.61131 0.00403
# Poissons Ratio (z) = 0.54372 0.00348
#
# Static dielectric constant tensor:
#      x y z
#    x 1.791140 0.000000 -0.017850 
#    y 0.000000 1.848410 0.000000 
#    z -0.017850 0.000000 1.772410 
# 
# From -- ./inp_files/317031.got.cif
#   From: 2010.05.17/outbox.cif.g08.bks.cpg/sg15_159_cif.got.tgz:317031.got - 2010.06.03 18:47:42.
