data_PCOD9301481
_publ_section_title
;
Structure prediction by ZEFSAII (Michael W. Deem and Ramdas Pophale) SiO2 
 PCOD9301481
Probable space group: C 2/C
;
_chemical_formula_sum "Si O2"
_cell_formula_units_Z 52
_cell_length_a 17.416838
_cell_length_b 28.184220
_cell_length_c 5.245275
_cell_angle_alpha 90.000000
_cell_angle_beta 80.064369
_cell_angle_gamma 90.000000
_cell_volume 2536.184259
_symmetry_space_group_name_H-M "C 2/C"
_symmetry_group_IT_number 15
_symmetry_cell_setting 'monoclinic'
loop_
_space_group_symop_operation_xyz
x,y,z
-x,y,1/2-z
-x,-y,-z
x,-y,1/2+z
1/2+x,1/2+y,z
1/2-x,1/2+y,1/2-z
1/2-x,1/2-y,-z
1/2+x,1/2-y,1/2+z
loop_
_atom_site_type_symbol
_atom_site_label
_atom_site_fract_x
_atom_site_fract_y
_atom_site_fract_z
Si Si1 0.215879 0.122089 0.896586
Si Si2 0.583659 0.233642 0.347538
Si Si3 0.300577 0.844977 0.851743
Si Si4 0.447045 0.660018 0.532934
Si Si5 0.000000 0.328224 0.250000
Si Si6 0.822261 0.468269 0.334482
Si Si7 0.065350 0.589996 0.045136
O O1 0.246579 0.148872 0.627886
O O2 0.122927 0.123222 0.959845
O O3 0.252309 0.069523 0.861525
O O4 0.251696 0.147607 0.123874
O O5 0.500000 0.230558 0.250000
O O6 0.651901 0.204308 0.174475
O O7 0.593970 0.288819 0.396180
O O8 0.569356 0.205058 0.617668
O O9 0.362945 0.888675 0.833082
O O10 0.500000 0.650216 0.750000
O O11 0.500000 0.663313 0.250000
O O12 0.024753 0.363162 0.458607
O O13 0.819963 0.493274 0.608446
O O14 0.899528 0.438692 0.211941
O O15 0.000000 0.564017 0.250000
#
# Coordination Sequence:
#
# PCOD9301481 Si02
#       7
#     8   8   8   8   4   8   8
#     4  11  25  43  66  91 122 166 204 260 330 374
#     4  11  21  34  59  91 130 178 216 248 289 349
#     4  11  21  38  62  91 131 171 215 247 294 368
#     4  11  25  43  67  95 125 157 205 263 321 381
#     4  12  18  36  58  86 132 178 212 250 282 348
#     4  11  25  43  63  88 123 162 208 261 318 372
#     4  11  23  34  61  90 125 177 215 253 291 349
#
# _framework density 20.503240999999999
#
# number of rings (size 3 to 8) (size 9 to 14) (size 15 to 20)
#    0.000    0.923    3.846    4.615    2.154    1.846 
#    0.000    0.000    0.000    2.769    0.000    0.000 
#    0.000    0.000    0.000    0.000    0.000    0.000 
#
# Total GULP energy -145380.936015 kJ/mol
# GULP energy per Si atom -5591.574462 kJ/mol
# Density = 2.045657 g / cm^3
# Si number density = 20.503241 Si / 1000 Ang^3
#
#
#
# Elastic Constant Matrix: (Units=GPa)
#
#
# Indices 1 2 3 4 5 6 
#
# 1 83.4774 19.3136 34.2157 0.0000 -0.0222 0.0000
# 2 19.3136 43.1359 2.5484 0.0000 -1.3945 0.0000
# 3 34.2157 2.5484 102.6562 0.0000 9.2338 0.0000
# 4 0.0000 0.0000 0.0000 -161.7577 0.0000 -207.0901
# 5 -0.0222 -1.3945 9.2338 0.0000 22.3270 0.0000
# 6 0.0000 0.0000 0.0000 -207.0901 0.0000 -223.6839
#
#
#
# Elastic Compliance Matrix: (Units=1/GPa)
#
#
# Indices 1 2 3 4 5 6 
#
# 1 0.015652 -0.006644 -0.005210 0.000000 0.001755 0.000000
# 2 -0.006644 0.026103 0.001475 0.000000 0.001014 0.000000
# 3 -0.005210 0.001475 0.011875 0.000000 -0.004824 0.000000
# 4 0.000000 0.000000 0.000000 0.033367 0.000000 -0.030892
# 5 0.001755 0.001014 -0.004824 0.000000 0.046849 0.000000
# 6 0.000000 0.000000 0.000000 -0.030892 0.000000 0.024130
#
#
# Mechanical properties :
#
#
# Convention : Reuss Voigt Hill
#
# Bulk Modulus (GPa) = 30.41974 37.93611 34.17792
# Shear Modulus (GPa) = 26.35872 -61.07681 -17.35904
#
# Velocity S-wave (km/s) = 3.58940 -5.46384 -2.91288
# Velocity P-wave (km/s) = 5.66102 4.61108 2.32219
#
# Compressibility (1/GPa) = 0.03287340
#
# Stress axis : x y z
#
# Youngs Moduli (GPa) = 63.88843 38.31012 84.21016
#
# Poissons Ratio (x) = 0.25452 0.43873
# Poissons Ratio (y) = 0.42445 -0.12422
# Poissons Ratio (z) = 0.33285 -0.05651
#
# Static dielectric constant tensor:
#      x y z
#    x 1.728330 0.000000 0.015550 
#    y 0.000000 1.733010 0.000000 
#    z 0.015550 0.000000 1.782830 
# 
# From -- ./inp_files/11253.got.cif
#   From: 2010.05.17/outbox.cif.g08.bks.cpg/sg15_6_cif.got.tgz:11253.got - 2010.06.03 18:47:42.
