data_PCOD9301750
_publ_section_title
;
Structure prediction by ZEFSAII (Michael W. Deem and Ramdas Pophale) SiO2 
 PCOD9301750
Probable space group: C 2/C
;
_chemical_formula_sum "Si O2"
_cell_formula_units_Z 52
_cell_length_a 12.057518
_cell_length_b 18.872841
_cell_length_c 13.069891
_cell_angle_alpha 90.000000
_cell_angle_beta 128.266119
_cell_angle_gamma 90.000000
_cell_volume 2335.155358
_symmetry_space_group_name_H-M "C 2/C"
_symmetry_group_IT_number 15
_symmetry_cell_setting 'monoclinic'
loop_
_space_group_symop_operation_xyz
x,y,z
-x,y,1/2-z
-x,-y,-z
x,-y,1/2+z
1/2+x,1/2+y,z
1/2-x,1/2+y,1/2-z
1/2-x,1/2-y,-z
1/2+x,1/2-y,1/2+z
loop_
_atom_site_type_symbol
_atom_site_label
_atom_site_fract_x
_atom_site_fract_y
_atom_site_fract_z
Si Si1 0.761200 0.555636 0.273816
Si Si2 0.397155 0.577807 0.522648
Si Si3 0.500000 0.470796 0.750000
Si Si4 0.246582 0.312326 0.078091
Si Si5 0.424669 0.826350 0.958792
Si Si6 0.159600 0.823333 0.143438
Si Si7 0.072071 0.575370 0.691601
O O1 0.643351 0.566335 0.295049
O O2 0.851255 0.626884 0.329987
O O3 0.857467 0.485186 0.339393
O O4 0.689396 0.549044 0.122236
O O5 0.466855 0.518017 0.631962
O O6 0.299281 0.619623 0.546697
O O7 0.519705 0.629433 0.549599
O O8 0.337097 0.303816 0.233285
O O9 0.250000 0.250000 0.000000
O O10 0.086003 0.314562 0.020984
O O11 0.350746 0.749918 0.925092
O O12 0.447576 0.878708 0.067886
O O13 0.299286 0.870922 0.206976
O O14 0.000000 0.541658 0.750000
#
# Coordination Sequence:
#
# PCOD9301750 Si02
#       7
#     8   8   4   8   8   8   8
#     4  12  28  43  74 105 140 187 237 284 356 417
#     4  12  23  42  71 104 136 184 231 289 353 409
#     4  12  24  48  68 100 142 184 236 290 340 416
#     4  11  21  38  69 102 140 173 222 297 348 400
#     4  11  26  44  69 106 140 180 238 288 359 412
#     4  11  23  45  67 102 138 179 235 290 348 412
#     4  11  27  48  69  98 144 188 231 291 345 420
#
# _framework density 22.268326999999999
#
# number of rings (size 3 to 8) (size 9 to 14) (size 15 to 20)
#    0.000    0.615    4.615    2.769    6.462    1.846 
#    1.385    0.000    0.000    0.000    0.000    0.000 
#    0.000    0.000    0.000    0.000    0.000    0.000 
#
# Total GULP energy -145325.114557 kJ/mol
# GULP energy per Si atom -5589.427483 kJ/mol
# Density = 2.221764 g / cm^3
# Si number density = 22.268327 Si / 1000 Ang^3
#
#
#
# Elastic Constant Matrix: (Units=GPa)
#
#
# Indices 1 2 3 4 5 6 
#
# 1 39.0762 -8.7979 3.3882 0.0000 -5.8100 0.0000
# 2 -8.7979 55.0413 16.1275 0.0000 15.8782 0.0000
# 3 3.3882 16.1275 62.7527 0.0000 7.8618 0.0000
# 4 0.0000 0.0000 0.0000 29.0931 0.0000 -0.0132
# 5 -5.8100 15.8782 7.8618 0.0000 26.5464 0.0000
# 6 0.0000 0.0000 0.0000 -0.0132 0.0000 17.3685
#
#
#
# Elastic Compliance Matrix: (Units=1/GPa)
#
#
# Indices 1 2 3 4 5 6 
#
# 1 0.027427 0.003976 -0.003071 0.000000 0.004534 0.000000
# 2 0.003976 0.023626 -0.004803 0.000000 -0.011839 0.000000
# 3 -0.003071 -0.004803 0.017717 0.000000 -0.003046 0.000000
# 4 0.000000 0.000000 0.000000 0.034372 0.000000 0.000026
# 5 0.004534 -0.011839 -0.003046 0.000000 0.046646 0.000000
# 6 0.000000 0.000000 0.000000 0.000026 0.000000 0.057576
#
#
# Mechanical properties :
#
#
# Convention : Reuss Voigt Hill
#
# Bulk Modulus (GPa) = 16.40056 19.81176 18.10616
# Shear Modulus (GPa) = 21.23274 24.34508 22.78891
#
# Velocity S-wave (km/s) = 3.09122 3.31004 3.20250
# Velocity P-wave (km/s) = 4.48574 4.85022 4.67153
#
# Compressibility (1/GPa) = 0.06097354
#
# Stress axis : x y z
#
# Youngs Moduli (GPa) = 36.46104 42.32552 56.44145
#
# Poissons Ratio (x) = -0.16827 0.17331
# Poissons Ratio (y) = -0.14496 0.27111
# Poissons Ratio (z) = 0.11196 0.20331
#
# Static dielectric constant tensor:
#      x y z
#    x 1.679470 0.000000 0.074600 
#    y 0.000000 1.851400 0.000000 
#    z 0.074600 0.000000 1.901520 
# 
# From -- ./inp_files/89733.got.cif
#   From: 2010.05.17/outbox.cif.g08.bks.cpg/sg15_45_cif.got.tgz:89733.got - 2010.06.03 18:47:42.
