data_PCOD9301021
_publ_section_title
;
Structure prediction by ZEFSAII (Michael W. Deem and Ramdas Pophale) SiO2 
 PCOD9301021
Probable space group: C 2/C
;
_chemical_formula_sum "Si O2"
_cell_formula_units_Z 56
_cell_length_a 21.802663
_cell_length_b 6.447981
_cell_length_c 23.254281
_cell_angle_alpha 90.000000
_cell_angle_beta 118.756467
_cell_angle_gamma 90.000000
_cell_volume 2865.982745
_symmetry_space_group_name_H-M "C 2/C"
_symmetry_group_IT_number 15
_symmetry_cell_setting 'monoclinic'
loop_
_space_group_symop_operation_xyz
x,y,z
-x,y,1/2-z
-x,-y,-z
x,-y,1/2+z
1/2+x,1/2+y,z
1/2-x,1/2+y,1/2-z
1/2-x,1/2-y,-z
1/2+x,1/2-y,1/2+z
loop_
_atom_site_type_symbol
_atom_site_label
_atom_site_fract_x
_atom_site_fract_y
_atom_site_fract_z
Si Si1 0.029138 0.582696 0.601739
Si Si2 0.387836 0.941634 0.474282
Si Si3 0.243827 0.125137 0.437761
Si Si4 0.362433 0.714067 0.571190
Si Si5 0.626471 0.097593 0.839891
Si Si6 0.942744 0.318308 0.773354
Si Si7 0.487697 0.421088 0.669284
O O1 0.088124 0.595859 0.579730
O O2 0.042939 0.409664 0.657120
O O3 0.955903 0.535712 0.536877
O O4 0.020912 0.795383 0.632191
O O5 0.320258 0.086955 0.447234
O O6 0.366773 0.745777 0.504740
O O7 0.250000 0.250000 0.500000
O O8 0.193253 0.253887 0.373143
O O9 0.204738 0.910779 0.436823
O O10 0.429202 0.582995 0.621792
O O11 0.367611 0.938859 0.603597
O O12 0.558938 0.248586 0.817937
O O13 0.621544 0.946747 0.782535
O O14 0.000000 0.370944 0.750000
O O15 0.950623 0.068564 0.777671
#
# Coordination Sequence:
#
# PCOD9301021 Si02
#       7
#     8   8   8   8   8   8   8
#     4  11  24  40  63  95 137 164 208 270 333 385
#     4  11  21  43  61  96 136 167 210 267 322 391
#     4  11  23  39  68  94 127 173 218 259 321 383
#     4  11  20  38  62  94 124 167 212 259 318 380
#     4  11  23  38  64  97 126 165 219 272 315 384
#     4  12  22  38  63  91 127 163 218 269 317 385
#     4  11  20  36  59  96 125 163 209 263 331 376
#
# _framework density 19.539546000000001
#
# number of rings (size 3 to 8) (size 9 to 14) (size 15 to 20)
#    0.000    0.857    7.143    1.286    2.000    0.571 
#    2.571    0.000    3.143    0.000    0.000    0.000 
#    0.000    0.000    0.000    0.000    0.000    0.000 
#
# Total GULP energy -156196.717930 kJ/mol
# GULP energy per Si atom -5578.454212 kJ/mol
# Density = 1.949507 g / cm^3
# Si number density = 19.539546 Si / 1000 Ang^3
#
#
#
# Elastic Constant Matrix: (Units=GPa)
#
#
# Indices 1 2 3 4 5 6 
#
# 1 122.1409 40.3205 47.7641 0.0000 -4.4794 0.0000
# 2 40.3205 108.2904 41.5269 0.0001 -2.4588 0.0001
# 3 47.7641 41.5269 91.9297 0.0000 -6.2806 0.0000
# 4 0.0000 0.0001 0.0000 44.6239 0.0000 4.7614
# 5 -4.4794 -2.4588 -6.2806 0.0000 24.6928 0.0000
# 6 0.0000 0.0001 0.0000 4.7614 0.0000 21.9117
#
#
#
# Elastic Compliance Matrix: (Units=1/GPa)
#
#
# Indices 1 2 3 4 5 6 
#
# 1 0.010715 -0.002246 -0.004514 0.000000 0.000572 0.000000
# 2 -0.002246 0.011641 -0.004112 0.000000 -0.000294 0.000000
# 3 -0.004514 -0.004112 0.015262 0.000000 0.002654 0.000000
# 4 0.000000 0.000000 0.000000 0.022941 0.000000 -0.004985
# 5 0.000572 -0.000294 0.002654 0.000000 0.041247 0.000000
# 6 0.000000 0.000000 0.000000 -0.004985 0.000000 0.046721
#
#
# Mechanical properties :
#
#
# Convention : Reuss Voigt Hill
#
# Bulk Modulus (GPa) = 62.99135 64.62042 63.80589
# Shear Modulus (GPa) = 28.48033 31.09564 29.78798
#
# Velocity S-wave (km/s) = 3.82196 3.99359 3.90872
# Velocity P-wave (km/s) = 7.19614 7.37621 7.28673
#
# Compressibility (1/GPa) = 0.01587519
#
# Stress axis : x y z
#
# Youngs Moduli (GPa) = 93.33051 85.90618 65.52386
#
# Poissons Ratio (x) = 0.19291 0.29574
# Poissons Ratio (y) = 0.20958 0.26941
# Poissons Ratio (z) = 0.42125 0.35322
#
# Static dielectric constant tensor:
#      x y z
#    x 1.690840 0.000000 0.028620 
#    y 0.000000 1.722560 0.000000 
#    z 0.028620 0.000000 1.780270 
# 
# From -- ./inp_files/281030.got.cif
#   From: 2010.05.17/outbox.cif.g08.bks.cpg/sg15_141_cif.got.tgz:281030.got - 2010.06.03 18:47:42.
