data_PCOD9301509
_publ_section_title
;
Structure prediction by ZEFSAII (Michael W. Deem and Ramdas Pophale) SiO2 
 PCOD9301509
Probable space group: C 2/C
;
_chemical_formula_sum "Si O2"
_cell_formula_units_Z 64
_cell_length_a 20.776670
_cell_length_b 11.643945
_cell_length_c 28.623638
_cell_angle_alpha 90.000000
_cell_angle_beta 149.724179
_cell_angle_gamma 90.000000
_cell_volume 3491.178709
_symmetry_space_group_name_H-M "C 2/C"
_symmetry_group_IT_number 15
_symmetry_cell_setting 'monoclinic'
loop_
_space_group_symop_operation_xyz
x,y,z
-x,y,1/2-z
-x,-y,-z
x,-y,1/2+z
1/2+x,1/2+y,z
1/2-x,1/2+y,1/2-z
1/2-x,1/2-y,-z
1/2+x,1/2-y,1/2+z
loop_
_atom_site_type_symbol
_atom_site_label
_atom_site_fract_x
_atom_site_fract_y
_atom_site_fract_z
Si Si1 0.304771 0.140883 0.845672
Si Si2 0.606948 0.204512 0.166661
Si Si3 0.910342 0.456231 0.317491
Si Si4 0.723550 0.387583 0.814273
Si Si5 0.956122 0.761267 0.631245
Si Si6 0.692154 0.550986 0.608139
Si Si7 0.255028 0.741559 0.924212
Si Si8 0.946940 0.176473 0.495361
O O1 0.199627 0.228626 0.759667
O O2 0.391042 0.100371 0.856070
O O3 0.389911 0.210417 0.935668
O O4 0.240260 0.024459 0.824059
O O5 0.690974 0.163242 0.174482
O O6 0.549828 0.088066 0.152357
O O7 0.502175 0.289546 0.080070
O O8 0.772272 0.457341 0.205892
O O9 0.998170 0.370884 0.343290
O O10 0.580467 0.341113 0.714817
O O11 0.769496 0.335616 0.892425
O O12 0.860597 0.776272 0.614528
O O13 0.876714 0.779730 0.533777
O O14 0.769924 0.623943 0.619274
O O15 0.563668 0.623146 0.538353
O O16 0.655303 0.425348 0.567767
#
# Coordination Sequence:
#
# PCOD9301509 Si02
#       8
#     8   8   8   8   8   8   8   8
#     4  11  22  35  55  87 121 147 187 225 295 351
#     4  11  22  36  55  90 119 151 185 227 296 349
#     4  11  21  36  58  83 118 152 186 238 284 339
#     4  11  23  36  58  84 119 151 185 236 287 347
#     4  11  23  39  61  80 115 149 194 247 278 341
#     4  11  21  35  60  84 115 153 198 230 287 342
#     4  11  23  39  58  87 108 150 202 234 289 331
#     4  11  22  35  57  85 119 155 180 241 281 352
#
# _framework density 18.331917000000001
#
# number of rings (size 3 to 8) (size 9 to 14) (size 15 to 20)
#    0.000    1.000    6.250    1.125    3.500    1.000 
#    0.000    0.000    0.000    3.750    0.000    0.000 
#    0.000    0.000    0.000    0.000    0.000    0.000 
#
# Total GULP energy -178716.151489 kJ/mol
# GULP energy per Si atom -5584.879734 kJ/mol
# Density = 1.829019 g / cm^3
# Si number density = 18.331917 Si / 1000 Ang^3
#
#
#
# Elastic Constant Matrix: (Units=GPa)
#
#
# Indices 1 2 3 4 5 6 
#
# 1 38.6698 16.4646 12.6934 0.0000 -11.0014 0.0000
# 2 16.4646 92.9937 4.2855 0.0001 -1.2452 0.0000
# 3 12.6934 4.2855 55.7307 0.0002 -9.1612 0.0000
# 4 0.0000 0.0001 0.0002 34.4462 0.0000 -1.9810
# 5 -11.0014 -1.2452 -9.1612 0.0000 13.3465 0.0000
# 6 0.0000 0.0000 0.0000 -1.9810 0.0000 15.6741
#
#
#
# Elastic Compliance Matrix: (Units=1/GPa)
#
#
# Indices 1 2 3 4 5 6 
#
# 1 0.037578 -0.006118 -0.003484 0.000000 0.028013 0.000000
# 2 -0.006118 0.011790 -0.000182 0.000000 -0.004067 0.000000
# 3 -0.003484 -0.000182 0.020600 0.000000 0.011252 0.000000
# 4 0.000000 0.000000 0.000000 0.029243 0.000000 0.003696
# 5 0.028013 -0.004067 0.011252 0.000000 0.105360 0.000000
# 6 0.000000 0.000000 0.000000 0.003696 0.000000 0.064266
#
#
# Mechanical properties :
#
#
# Convention : Reuss Voigt Hill
#
# Bulk Modulus (GPa) = 19.84024 28.25345 24.04685
# Shear Modulus (GPa) = 16.38239 22.95675 19.66957
#
# Velocity S-wave (km/s) = 2.99265 3.54260 3.27917
# Velocity P-wave (km/s) = 4.77363 5.67265 5.24245
#
# Compressibility (1/GPa) = 0.05040260
#
# Stress axis : x y z
#
# Youngs Moduli (GPa) = 26.61150 84.81443 48.54264
#
# Poissons Ratio (x) = 0.51885 0.16910
# Poissons Ratio (y) = 0.16280 0.00883
# Poissons Ratio (z) = 0.09270 0.01543
#
# Static dielectric constant tensor:
#      x y z
#    x 1.613930 0.000000 0.000240 
#    y 0.000000 1.631420 0.000000 
#    z 0.000240 0.000000 1.653800 
# 
# From -- ./inp_files/252584.got.cif
#   From: 2010.05.17/outbox.cif.g08.bks.cpg/sg15_127_cif.got.tgz:252584.got - 2010.06.03 18:47:42.
