data_PCOD9301159
_publ_section_title
;
Structure prediction by ZEFSAII (Michael W. Deem and Ramdas Pophale) SiO2 
 PCOD9301159
Probable space group: C 2/C
;
_chemical_formula_sum "Si O2"
_cell_formula_units_Z 48
_cell_length_a 25.183427
_cell_length_b 12.915041
_cell_length_c 14.881552
_cell_angle_alpha 90.000000
_cell_angle_beta 150.352298
_cell_angle_gamma 90.000000
_cell_volume 2394.255832
_symmetry_space_group_name_H-M "C 2/C"
_symmetry_group_IT_number 15
_symmetry_cell_setting 'monoclinic'
loop_
_space_group_symop_operation_xyz
x,y,z
-x,y,1/2-z
-x,-y,-z
x,-y,1/2+z
1/2+x,1/2+y,z
1/2-x,1/2+y,1/2-z
1/2-x,1/2-y,-z
1/2+x,1/2-y,1/2+z
loop_
_atom_site_type_symbol
_atom_site_label
_atom_site_fract_x
_atom_site_fract_y
_atom_site_fract_z
Si Si1 0.867262 0.974688 0.716046
Si Si2 0.389349 0.801409 0.032647
Si Si3 0.730763 0.474430 0.745214
Si Si4 0.974279 0.150488 0.614208
Si Si5 0.522820 0.258052 0.566824
Si Si6 0.770482 0.623127 0.637891
O O1 0.828490 0.020914 0.754168
O O2 0.926461 0.867646 0.828169
O O3 0.773511 0.944319 0.509478
O O4 0.949296 0.051300 0.788750
O O5 0.500000 0.808548 0.250000
O O6 0.422343 0.763296 0.982002
O O7 0.327662 0.908356 0.928907
O O8 0.310934 0.719235 0.965305
O O9 0.646324 0.393227 0.576320
O O10 0.766023 0.555387 0.722006
O O11 0.998465 0.229863 0.569966
O O12 0.000000 0.192660 0.750000
O O13 0.613502 0.170491 0.711683
#
# Coordination Sequence:
#
# PCOD9301159 Si02
#       6
#     8   8   8   8   8   8
#     4  11  20  38  64  95 117 159 215 261 303 351
#     4  12  23  41  66  95 125 167 209 255 312 366
#     4  11  24  39  61  94 130 158 205 265 308 370
#     4  11  21  40  62  94 124 161 208 262 309 360
#     4  11  23  38  63  92 128 163 206 259 308 370
#     4  12  22  41  66  96 124 162 212 261 307 363
#
# _framework density 20.047982000000001
#
# number of rings (size 3 to 8) (size 9 to 14) (size 15 to 20)
#    0.000    0.667    6.667    5.500    0.000    0.667 
#    0.000    3.333    0.000    0.000    0.000    0.000 
#    0.000    0.000    0.000    0.000    0.000    0.000 
#
# Total GULP energy -134230.940599 kJ/mol
# GULP energy per Si atom -5592.955858 kJ/mol
# Density = 2.000235 g / cm^3
# Si number density = 20.047982 Si / 1000 Ang^3
#
#
#
# Elastic Constant Matrix: (Units=GPa)
#
#
# Indices 1 2 3 4 5 6 
#
# 1 71.6383 -5.4159 1.3215 0.0000 -17.3224 0.0000
# 2 -5.4159 26.0277 12.7278 0.0000 -2.4770 0.0000
# 3 1.3215 12.7278 54.0380 0.0000 -23.2902 0.0000
# 4 0.0000 0.0000 0.0000 27.9132 0.0000 -6.0044
# 5 -17.3224 -2.4770 -23.2902 0.0000 31.8609 0.0000
# 6 0.0000 0.0000 0.0000 -6.0044 0.0000 18.0677
#
#
#
# Elastic Compliance Matrix: (Units=1/GPa)
#
#
# Indices 1 2 3 4 5 6 
#
# 1 0.017174 0.002595 0.004497 0.000000 0.012826 0.000000
# 2 0.002595 0.044610 -0.012363 0.000000 -0.004158 0.000000
# 3 0.004497 -0.012363 0.032042 0.000000 0.024906 0.000000
# 4 0.000000 0.000000 0.000000 0.038584 0.000000 0.012823
# 5 0.012826 -0.004158 0.024906 0.000000 0.056243 0.000000
# 6 0.000000 0.000000 0.000000 0.012823 0.000000 0.059609
#
#
# Mechanical properties :
#
#
# Convention : Reuss Voigt Hill
#
# Bulk Modulus (GPa) = 12.00712 18.77454 15.39083
# Shear Modulus (GPa) = 17.44810 25.10638 21.27724
#
# Velocity S-wave (km/s) = 2.95331 3.54265 3.26132
# Velocity P-wave (km/s) = 4.19900 5.11067 4.67710
#
# Compressibility (1/GPa) = 0.08328391
#
# Stress axis : x y z
#
# Youngs Moduli (GPa) = 58.22891 22.41629 31.20923
#
# Poissons Ratio (x) = -0.05817 -0.14034
# Poissons Ratio (y) = -0.15112 0.38583
# Poissons Ratio (z) = -0.26184 0.27713
#
# Static dielectric constant tensor:
#      x y z
#    x 1.726900 0.000000 -0.016980 
#    y 0.000000 1.684790 0.000000 
#    z -0.016980 0.000000 1.717810 
# 
# From -- ./inp_files/96163.got.cif
#   From: 2010.05.17/outbox.cif.g08.bks.cpg/sg15_49_cif.got.tgz:96163.got - 2010.06.03 18:47:42.
