data_PCOD9301016
_publ_section_title
;
Structure prediction by ZEFSAII (Michael W. Deem and Ramdas Pophale) SiO2 
 PCOD9301016
Probable space group: C 2/C
;
_chemical_formula_sum "Si O2"
_cell_formula_units_Z 48
_cell_length_a 21.874517
_cell_length_b 13.992927
_cell_length_c 19.877168
_cell_angle_alpha 90.000000
_cell_angle_beta 156.245819
_cell_angle_gamma 90.000000
_cell_volume 2450.786876
_symmetry_space_group_name_H-M "C 2/C"
_symmetry_group_IT_number 15
_symmetry_cell_setting 'monoclinic'
loop_
_space_group_symop_operation_xyz
x,y,z
-x,y,1/2-z
-x,-y,-z
x,-y,1/2+z
1/2+x,1/2+y,z
1/2-x,1/2+y,1/2-z
1/2-x,1/2-y,-z
1/2+x,1/2-y,1/2+z
loop_
_atom_site_type_symbol
_atom_site_label
_atom_site_fract_x
_atom_site_fract_y
_atom_site_fract_z
Si Si1 0.200432 0.755322 0.738468
Si Si2 0.544158 0.716566 0.408731
Si Si3 0.600411 0.948196 0.154729
Si Si4 0.446903 0.511638 0.269277
Si Si5 0.596161 0.564453 0.044698
Si Si6 0.599428 0.086707 0.913376
O O1 0.147911 0.650338 0.666827
O O2 0.152584 0.838895 0.639432
O O3 0.127112 0.772697 0.738248
O O4 0.372928 0.739562 0.936178
O O5 0.546430 0.608665 0.384434
O O6 0.597143 0.796948 0.410267
O O7 0.498848 0.933699 0.118589
O O8 0.750580 0.008643 0.320102
O O9 0.500000 0.000000 0.000000
O O10 0.500000 0.476747 0.250000
O O11 0.490687 0.436499 0.371970
O O12 0.268232 0.541741 0.087952
O O13 0.500000 0.500000 0.000000
O O14 0.500000 0.052436 0.750000
#
# Coordination Sequence:
#
# PCOD9301016 Si02
#       6
#     8   8   8   8   8   8
#     4  11  21  37  60  93 124 164 209 264 310 379
#     4  11  20  36  58  86 124 161 207 252 330 380
#     4  11  23  39  63  92 127 168 212 262 319 375
#     4  12  24  37  60  91 128 172 214 261 324 388
#     4  12  21  39  62  89 127 168 215 261 317 380
#     4  11  24  39  57  89 129 167 208 263 327 396
#
# _framework density 19.585546000000001
#
# number of rings (size 3 to 8) (size 9 to 14) (size 15 to 20)
#    0.000    0.667    5.000    4.500    2.333    1.333 
#    0.000    0.000    0.000    1.000    0.000    9.333 
#    0.000    0.000    0.000    0.000    0.000    0.000 
#
# Total GULP energy -133761.633580 kJ/mol
# GULP energy per Si atom -5573.401399 kJ/mol
# Density = 1.954097 g / cm^3
# Si number density = 19.585546 Si / 1000 Ang^3
#
#
#
# Elastic Constant Matrix: (Units=GPa)
#
#
# Indices 1 2 3 4 5 6 
#
# 1 87.3758 21.9990 51.7436 0.0006 -5.8878 0.0004
# 2 21.9990 77.0629 50.0239 0.0001 -10.6543 0.0001
# 3 51.7436 50.0239 159.2898 0.0001 -11.6112 0.0001
# 4 0.0006 0.0001 0.0001 36.3494 0.0002 -6.4464
# 5 -5.8878 -10.6543 -11.6112 0.0002 38.3119 0.0002
# 6 0.0004 0.0001 0.0001 -6.4464 0.0002 20.5476
#
#
#
# Elastic Compliance Matrix: (Units=1/GPa)
#
#
# Indices 1 2 3 4 5 6 
#
# 1 0.014292 -0.001274 -0.004201 0.000000 0.000569 0.000000
# 2 -0.001274 0.016769 -0.004629 0.000000 0.003065 0.000000
# 3 -0.004201 -0.004629 0.009158 0.000000 0.000843 0.000000
# 4 0.000000 0.000000 0.000000 0.029132 0.000000 0.009139
# 5 0.000569 0.003065 0.000843 0.000000 0.027297 0.000000
# 6 0.000000 0.000000 0.000000 0.009139 0.000000 0.051535
#
#
# Mechanical properties :
#
#
# Convention : Reuss Voigt Hill
#
# Bulk Modulus (GPa) = 49.97498 63.47351 56.72425
# Shear Modulus (GPa) = 28.56191 32.37257 30.46724
#
# Velocity S-wave (km/s) = 3.82293 4.06997 3.94839
# Velocity P-wave (km/s) = 6.71253 7.38681 7.05773
#
# Compressibility (1/GPa) = 0.02001001
#
# Stress axis : x y z
#
# Youngs Moduli (GPa) = 69.97056 59.63559 109.19998
#
# Poissons Ratio (x) = 0.07599 0.45874
# Poissons Ratio (y) = 0.08916 0.50546
# Poissons Ratio (z) = 0.29394 0.27604
#
# Static dielectric constant tensor:
#      x y z
#    x 1.685670 0.000000 0.015870 
#    y 0.000000 1.726340 0.000000 
#    z 0.015870 0.000000 1.773240 
# 
# From -- ./inp_files/255725.got.cif
#   From: 2010.05.17/outbox.cif.g08.bks.cpg/sg15_128_cif.got.tgz:255725.got - 2010.06.03 18:47:42.
