data_PCOD9301740
_publ_section_title
;
Structure prediction by ZEFSAII (Michael W. Deem and Ramdas Pophale) SiO2 
 PCOD9301740
Probable space group: C 2/C
;
_chemical_formula_sum "Si O2"
_cell_formula_units_Z 48
_cell_length_a 18.127399
_cell_length_b 7.534413
_cell_length_c 17.763204
_cell_angle_alpha 90.000000
_cell_angle_beta 66.280764
_cell_angle_gamma 90.000000
_cell_volume 2221.148826
_symmetry_space_group_name_H-M "C 2/C"
_symmetry_group_IT_number 15
_symmetry_cell_setting 'monoclinic'
loop_
_space_group_symop_operation_xyz
x,y,z
-x,y,1/2-z
-x,-y,-z
x,-y,1/2+z
1/2+x,1/2+y,z
1/2-x,1/2+y,1/2-z
1/2-x,1/2-y,-z
1/2+x,1/2-y,1/2+z
loop_
_atom_site_type_symbol
_atom_site_label
_atom_site_fract_x
_atom_site_fract_y
_atom_site_fract_z
Si Si1 0.922026 0.082770 0.831482
Si Si2 0.972712 0.158605 0.449412
Si Si3 0.196806 0.808530 0.450027
Si Si4 0.778104 0.087066 0.291792
Si Si5 0.335222 0.715265 0.997475
Si Si6 0.637737 0.165685 0.856217
O O1 0.000000 0.125320 0.750000
O O2 0.946865 0.926895 0.879718
O O3 0.843707 0.028807 0.813322
O O4 0.897147 0.229660 0.903316
O O5 0.895130 0.261952 0.513216
O O6 0.043023 0.294730 0.397414
O O7 0.000000 0.000000 0.500000
O O8 0.250000 0.750000 0.500000
O O9 0.247637 0.745487 0.358178
O O10 0.174344 0.015901 0.466321
O O11 0.825196 0.163145 0.201236
O O12 0.695177 0.989879 0.301827
O O13 0.345904 0.842384 0.062128
O O14 0.250000 0.750000 0.000000
#
# Coordination Sequence:
#
# PCOD9301740 Si02
#       6
#     8   8   8   8   8   8
#     4  11  21  38  67  94 129 175 217 260 341 404
#     4  11  22  39  67  97 129 168 220 270 329 403
#     4  11  21  40  66  95 127 177 212 266 337 398
#     4  12  25  41  67  98 136 172 224 277 337 402
#     4  11  21  41  66  95 131 171 221 264 330 399
#     4  12  24  41  65  99 130 174 224 281 329 395
#
# _framework density 21.610440000000001
#
# number of rings (size 3 to 8) (size 9 to 14) (size 15 to 20)
#    0.000    0.667   10.000    1.000    0.000    0.667 
#    0.000    0.000    0.000    1.000    0.000    0.000 
#    0.000    0.000    0.000    0.000    0.000    0.000 
#
# Total GULP energy -133615.030621 kJ/mol
# GULP energy per Si atom -5567.292943 kJ/mol
# Density = 2.156125 g / cm^3
# Si number density = 21.610440 Si / 1000 Ang^3
#
#
#
# Elastic Constant Matrix: (Units=GPa)
#
#
# Indices 1 2 3 4 5 6 
#
# 1 103.5477 4.0095 28.3100 -0.0001 -24.9958 -0.0001
# 2 4.0095 32.2956 12.2815 -0.0001 -5.8465 -0.0002
# 3 28.3100 12.2815 155.6290 0.0000 -28.3510 0.0000
# 4 -0.0001 -0.0001 0.0000 27.5233 0.0000 -7.3533
# 5 -24.9958 -5.8465 -28.3510 0.0000 43.3430 -0.0001
# 6 -0.0001 -0.0002 0.0000 -7.3533 -0.0001 35.2461
#
#
#
# Elastic Compliance Matrix: (Units=1/GPa)
#
#
# Indices 1 2 3 4 5 6 
#
# 1 0.011352 0.000037 -0.000993 0.000000 0.005902 0.000000
# 2 0.000037 0.032274 -0.001994 0.000000 0.003070 0.000000
# 3 -0.000993 -0.001994 0.007504 0.000000 0.004067 0.000000
# 4 0.000000 0.000000 0.000000 0.038478 0.000000 0.008027
# 5 0.005902 0.003070 0.004067 0.000000 0.029550 0.000000
# 6 0.000000 0.000000 0.000000 0.008027 0.000000 0.030047
#
#
# Mechanical properties :
#
#
# Convention : Reuss Voigt Hill
#
# Bulk Modulus (GPa) = 22.10946 42.29716 32.20331
# Shear Modulus (GPa) = 29.38035 37.68054 33.53044
#
# Velocity S-wave (km/s) = 3.69120 4.18021 3.94329
# Velocity P-wave (km/s) = 5.33102 6.55087 5.97217
#
# Compressibility (1/GPa) = 0.04522950
#
# Stress axis : x y z
#
# Youngs Moduli (GPa) = 88.08888 30.98507 133.25481
#
# Poissons Ratio (x) = -0.00113 0.13228
# Poissons Ratio (y) = -0.00323 0.26575
# Poissons Ratio (z) = 0.08745 0.06179
#
# Static dielectric constant tensor:
#      x y z
#    x 1.770830 0.000000 -0.053860 
#    y 0.000000 1.913190 0.000000 
#    z -0.053860 0.000000 1.787580 
# 
# From -- ./inp_files/208920.got.cif
#   From: 2010.05.17/outbox.cif.g08.bks.cpg/sg15_105_cif.got.tgz:208920.got - 2010.06.03 18:47:42.
