data_PCOD9301668
_publ_section_title
;
Structure prediction by ZEFSAII (Michael W. Deem and Ramdas Pophale) SiO2 
 PCOD9301668
Probable space group: C 2/C
;
_chemical_formula_sum "Si O2"
_cell_formula_units_Z 48
_cell_length_a 16.260031
_cell_length_b 29.920666
_cell_length_c 9.688644
_cell_angle_alpha 90.000000
_cell_angle_beta 153.084608
_cell_angle_gamma 90.000000
_cell_volume 2133.739664
_symmetry_space_group_name_H-M "C 2/C"
_symmetry_group_IT_number 15
_symmetry_cell_setting 'monoclinic'
loop_
_space_group_symop_operation_xyz
x,y,z
-x,y,1/2-z
-x,-y,-z
x,-y,1/2+z
1/2+x,1/2+y,z
1/2-x,1/2+y,1/2-z
1/2-x,1/2-y,-z
1/2+x,1/2-y,1/2+z
loop_
_atom_site_type_symbol
_atom_site_label
_atom_site_fract_x
_atom_site_fract_y
_atom_site_fract_z
Si Si1 0.292975 0.128477 0.777036
Si Si2 0.781554 0.454408 0.079333
Si Si3 0.148525 0.274548 0.226790
Si Si4 0.235247 0.379182 0.953473
Si Si5 0.741648 0.716878 0.116523
Si Si6 0.224972 0.461534 0.745744
O O1 0.233912 0.093532 0.572466
O O2 0.256800 0.179987 0.684694
O O3 0.217182 0.115782 0.814185
O O4 0.513633 0.124402 0.118105
O O5 0.723393 0.493403 0.096884
O O6 0.003170 0.458413 0.408304
O O7 0.714337 0.460280 0.822379
O O8 0.250000 0.250000 0.500000
O O9 0.133577 0.240519 0.076397
O O10 0.948782 0.287106 0.979206
O O11 0.308811 0.332259 0.008420
O O12 0.285641 0.419780 0.929526
O O13 0.750000 0.750000 0.000000
#
# Coordination Sequence:
#
# PCOD9301668 Si02
#       6
#     8   8   8   8   8   8
#     4   9  17  30  45  67  98 136 173 217 269 321
#     4   9  16  25  40  63  96 131 169 211 266 325
#     4  11  23  36  55  81 113 146 185 232 277 322
#     4   9  17  29  47  67  96 135 177 216 266 322
#     4  11  21  38  57  79 109 150 189 226 272 329
#     4   9  16  25  40  64  94 132 169 212 264 326
#
# _framework density 22.495716999999999
#
# number of rings (size 3 to 8) (size 9 to 14) (size 15 to 20)
#    0.000    2.333    1.667    2.000    2.333    4.000 
#    0.000    0.000    0.000    0.000    0.000    0.000 
#    0.000    8.000    0.000    0.000    0.000    0.000 
#
# Total GULP energy -134183.012447 kJ/mol
# GULP energy per Si atom -5590.958852 kJ/mol
# Density = 2.244452 g / cm^3
# Si number density = 22.495717 Si / 1000 Ang^3
#
#
#
# Elastic Constant Matrix: (Units=GPa)
#
#
# Indices 1 2 3 4 5 6 
#
# 1 125.5994 64.6847 53.6871 0.0000 -44.8278 0.0000
# 2 64.6847 150.7899 22.0594 0.0000 -39.3968 0.0000
# 3 53.6871 22.0594 56.9969 0.0000 -20.6521 0.0000
# 4 0.0000 0.0000 0.0000 23.6158 0.0000 -14.8952
# 5 -44.8278 -39.3968 -20.6521 0.0000 47.6349 0.0000
# 6 0.0000 0.0000 0.0000 -14.8952 0.0000 33.7386
#
#
#
# Elastic Compliance Matrix: (Units=1/GPa)
#
#
# Indices 1 2 3 4 5 6 
#
# 1 0.018493 -0.003781 -0.012793 0.000000 0.008730 0.000000
# 2 -0.003781 0.009270 0.001735 0.000000 0.004861 0.000000
# 3 -0.012793 0.001735 0.029755 0.000000 0.002296 0.000000
# 4 0.000000 0.000000 0.000000 0.058686 0.000000 0.025909
# 5 0.008730 0.004861 0.002296 0.000000 0.034225 0.000000
# 6 0.000000 0.000000 0.000000 0.025909 0.000000 0.041078
#
#
# Mechanical properties :
#
#
# Convention : Reuss Voigt Hill
#
# Bulk Modulus (GPa) = 35.91839 68.24984 52.08412
# Shear Modulus (GPa) = 21.69535 33.86153 27.77844
#
# Velocity S-wave (km/s) = 3.10888 3.88396 3.51783
# Velocity P-wave (km/s) = 5.37478 7.10763 6.30106
#
# Compressibility (1/GPa) = 0.02784089
#
# Stress axis : x y z
#
# Youngs Moduli (GPa) = 54.07500 107.87795 33.60764
#
# Poissons Ratio (x) = 0.40784 0.42993
# Poissons Ratio (y) = 0.20443 -0.05830
# Poissons Ratio (z) = 0.69176 -0.18713
#
# Static dielectric constant tensor:
#      x y z
#    x 1.841510 0.000000 0.157910 
#    y 0.000000 1.774250 0.000000 
#    z 0.157910 0.000000 2.062240 
# 
# From -- ./inp_files/33788.got.cif
#   From: 2010.05.17/outbox.cif.g08.bks.cpg/sg15_17_cif.got.tgz:33788.got - 2010.06.03 18:47:42.
