data_PCOD9301992
_publ_section_title
;
Structure prediction by ZEFSAII (Michael W. Deem and Ramdas Pophale) SiO2 
 PCOD9301992
Probable space group: C 2/C
;
_chemical_formula_sum "Si O2"
_cell_formula_units_Z 40
_cell_length_a 18.009399
_cell_length_b 9.789072
_cell_length_c 12.350193
_cell_angle_alpha 90.000000
_cell_angle_beta 102.581301
_cell_angle_gamma 90.000000
_cell_volume 2124.999940
_symmetry_space_group_name_H-M "C 2/C"
_symmetry_group_IT_number 15
_symmetry_cell_setting 'monoclinic'
loop_
_space_group_symop_operation_xyz
x,y,z
-x,y,1/2-z
-x,-y,-z
x,-y,1/2+z
1/2+x,1/2+y,z
1/2-x,1/2+y,1/2-z
1/2-x,1/2-y,-z
1/2+x,1/2-y,1/2+z
loop_
_atom_site_type_symbol
_atom_site_label
_atom_site_fract_x
_atom_site_fract_y
_atom_site_fract_z
Si Si1 0.446912 0.913077 0.129691
Si Si2 0.190873 0.210546 0.388182
Si Si3 0.427517 0.184555 0.990570
Si Si4 0.273657 0.264523 0.843613
Si Si5 0.339642 0.589539 0.555428
O O1 0.500000 0.933957 0.250000
O O2 0.373775 0.825079 0.135728
O O3 0.497551 0.832300 0.056897
O O4 0.425142 0.058393 0.071755
O O5 0.250000 0.250000 0.500000
O O6 0.229849 0.199269 0.282705
O O7 0.154252 0.064855 0.406911
O O8 0.351640 0.179954 0.891802
O O9 0.416095 0.328729 0.048155
O O10 0.203724 0.177302 0.866611
O O11 0.286909 0.391840 0.930365
#
# Coordination Sequence:
#
# PCOD9301992 Si02
#       5
#     8   8   8   8   8
#     4  11  21  41  63  92 123 160 205 259 309 375
#     4  12  25  37  65  97 121 164 212 254 310 372
#     4   9  20  41  62  85 121 166 199 251 312 362
#     4   9  20  41  63  85 129 157 201 263 297 369
#     4   9  21  41  60  89 124 161 204 254 313 354
#
# _framework density 18.823529000000001
#
# number of rings (size 3 to 8) (size 9 to 14) (size 15 to 20)
#    1.200    0.800    2.000    1.200    2.800    0.800 
#    7.200    1.000    0.000    0.000    0.000    0.000 
#    0.000    0.000    0.000    0.000    0.000    0.000 
#
# Total GULP energy -111465.418126 kJ/mol
# GULP energy per Si atom -5573.270906 kJ/mol
# Density = 1.878069 g / cm^3
# Si number density = 18.823529 Si / 1000 Ang^3
#
#
#
# Elastic Constant Matrix: (Units=GPa)
#
#
# Indices 1 2 3 4 5 6 
#
# 1 24.3128 1.4367 17.4042 0.0000 -5.4402 0.0000
# 2 1.4367 59.7379 49.0813 0.0000 -7.8251 0.0000
# 3 17.4042 49.0813 130.4194 0.0000 -13.2480 0.0000
# 4 0.0000 0.0000 0.0000 12.3091 0.0000 0.7903
# 5 -5.4402 -7.8251 -13.2480 0.0000 32.0876 0.0000
# 6 0.0000 0.0000 0.0000 0.7903 0.0000 20.8873
#
#
#
# Elastic Compliance Matrix: (Units=1/GPa)
#
#
# Indices 1 2 3 4 5 6 
#
# 1 0.048016 0.006385 -0.008168 0.000000 0.006325 0.000000
# 2 0.006385 0.025236 -0.010035 0.000000 0.003094 0.000000
# 3 -0.008168 -0.010035 0.012676 0.000000 0.001402 0.000000
# 4 0.000000 0.000000 0.000000 0.081439 0.000000 -0.003081
# 5 0.006325 0.003094 0.001402 0.000000 0.033570 0.000000
# 6 0.000000 0.000000 0.000000 -0.003081 0.000000 0.047993
#
#
# Mechanical properties :
#
#
# Convention : Reuss Voigt Hill
#
# Bulk Modulus (GPa) = 16.05348 38.92383 27.48866
# Shear Modulus (GPa) = 17.04561 22.82665 19.93613
#
# Velocity S-wave (km/s) = 3.01250 3.48611 3.25792
# Velocity P-wave (km/s) = 4.54391 6.07677 5.36536
#
# Compressibility (1/GPa) = 0.06229179
#
# Stress axis : x y z
#
# Youngs Moduli (GPa) = 20.82660 39.62532 78.88624
#
# Poissons Ratio (x) = -0.25299 0.64432
# Poissons Ratio (y) = -0.13297 0.79163
# Poissons Ratio (z) = 0.17011 0.39764
#
# Static dielectric constant tensor:
#      x y z
#    x 1.649870 0.000000 -0.015170 
#    y 0.000000 1.632110 0.000000 
#    z -0.015170 0.000000 1.659910 
# 
# From -- ./inp_files/102845.got.cif
#   From: 2010.05.17/outbox.cif.g08.bks.cpg/sg15_52_cif.got.tgz:102845.got - 2010.06.03 18:47:42.
