data_PCOD9301785
_publ_section_title
;
Structure prediction by ZEFSAII (Michael W. Deem and Ramdas Pophale) SiO2 
 PCOD9301785
Probable space group: C 2/C
;
_chemical_formula_sum "Si O2"
_cell_formula_units_Z 64
_cell_length_a 8.798552
_cell_length_b 27.982178
_cell_length_c 14.378774
_cell_angle_alpha 90.000000
_cell_angle_beta 125.338290
_cell_angle_gamma 90.000000
_cell_volume 2887.834608
_symmetry_space_group_name_H-M "C 2/C"
_symmetry_group_IT_number 15
_symmetry_cell_setting 'monoclinic'
loop_
_space_group_symop_operation_xyz
x,y,z
-x,y,1/2-z
-x,-y,-z
x,-y,1/2+z
1/2+x,1/2+y,z
1/2-x,1/2+y,1/2-z
1/2-x,1/2-y,-z
1/2+x,1/2-y,1/2+z
loop_
_atom_site_type_symbol
_atom_site_label
_atom_site_fract_x
_atom_site_fract_y
_atom_site_fract_z
Si Si1 0.111424 0.296737 0.447090
Si Si2 0.464501 0.933816 0.453904
Si Si3 0.603929 0.603744 0.185817
Si Si4 0.399245 0.024868 0.312222
Si Si5 0.322702 0.718110 0.746841
Si Si6 0.265016 0.390282 0.432378
Si Si7 0.779460 0.808008 0.688934
Si Si8 0.334944 0.390549 0.253152
O O1 0.250000 0.250000 0.500000
O O2 0.165602 0.337781 0.391158
O O3 0.173776 0.325569 0.560962
O O4 0.893311 0.282812 0.366957
O O5 0.489404 0.942650 0.571725
O O6 0.652438 0.924943 0.462357
O O7 0.335251 0.890193 0.378809
O O8 0.368050 0.978639 0.366489
O O9 0.500000 0.602757 0.250000
O O10 0.717974 0.555164 0.221173
O O11 0.732684 0.650928 0.238629
O O12 0.465287 0.612750 0.051925
O O13 0.500000 0.014414 0.250000
O O14 0.500000 0.734930 0.750000
O O15 0.308406 0.757385 0.820681
O O16 0.379151 0.664381 0.792533
O O17 0.281384 0.411462 0.334375
O O18 0.000000 0.799686 0.750000
O O19 0.500000 0.412242 0.250000
#
# Coordination Sequence:
#
# PCOD9301785 Si02
#       8
#     8   8   8   8   8   8   8   8
#     4  12  21  36  69  98 129 186 238 281 338 421
#     4  11  24  46  69  99 134 180 231 271 342 424
#     4  11  22  43  66 101 131 174 231 286 339 412
#     4  11  25  44  70 100 138 175 221 286 350 407
#     4  11  25  41  60  97 142 180 228 291 353 411
#     4  12  22  42  72  94 134 182 230 287 340 417
#     4  11  21  39  63  96 131 175 241 282 335 418
#     4  11  26  42  64  99 136 176 225 284 349 405
#
# _framework density 22.161933999999999
#
# number of rings (size 3 to 8) (size 9 to 14) (size 15 to 20)
#    0.000    0.750    6.250    1.875    1.750    1.500 
#    0.000    2.500    0.000    0.000    0.000    0.000 
#    0.000    0.000    0.000    0.000    0.000    0.000 
#
# Total GULP energy -178386.533287 kJ/mol
# GULP energy per Si atom -5574.579165 kJ/mol
# Density = 2.211149 g / cm^3
# Si number density = 22.161934 Si / 1000 Ang^3
#
#
#
# Elastic Constant Matrix: (Units=GPa)
#
#
# Indices 1 2 3 4 5 6 
#
# 1 94.4891 3.4659 41.5660 0.0000 -4.2491 0.0000
# 2 3.4659 58.4121 -7.6507 0.0000 3.2626 0.0000
# 3 41.5660 -7.6507 112.0664 0.0000 -2.6629 0.0000
# 4 0.0000 0.0000 0.0000 33.7333 0.0000 5.5160
# 5 -4.2491 3.2626 -2.6629 0.0000 24.3748 0.0000
# 6 0.0000 0.0000 0.0000 5.5160 0.0000 27.5071
#
#
#
# Elastic Compliance Matrix: (Units=1/GPa)
#
#
# Indices 1 2 3 4 5 6 
#
# 1 0.012845 -0.001501 -0.004821 0.000000 0.001913 0.000000
# 2 -0.001501 0.017567 0.001698 0.000000 -0.002427 0.000000
# 3 -0.004821 0.001698 0.010830 0.000000 0.000115 0.000000
# 4 0.000000 0.000000 0.000000 0.030649 0.000000 -0.006146
# 5 0.001913 -0.002427 0.000115 0.000000 0.041697 0.000000
# 6 0.000000 0.000000 0.000000 -0.006146 0.000000 0.037587
#
#
# Mechanical properties :
#
#
# Convention : Reuss Voigt Hill
#
# Bulk Modulus (GPa) = 31.25511 37.74778 34.50144
# Shear Modulus (GPa) = 29.22478 32.29548 30.76013
#
# Velocity S-wave (km/s) = 3.63532 3.82154 3.72959
# Velocity P-wave (km/s) = 5.63511 6.04499 5.84364
#
# Compressibility (1/GPa) = 0.03199477
#
# Stress axis : x y z
#
# Youngs Moduli (GPa) = 77.84992 56.92565 92.33431
#
# Poissons Ratio (x) = 0.08542 0.44517
# Poissons Ratio (y) = 0.11682 -0.15680
# Poissons Ratio (z) = 0.37534 -0.09667
#
# Static dielectric constant tensor:
#      x y z
#    x 1.922140 0.000000 -0.012730 
#    y 0.000000 1.901180 0.000000 
#    z -0.012730 0.000000 1.848490 
# 
# From -- ./inp_files/139855.got.cif
#   From: 2010.05.17/outbox.cif.g08.bks.cpg/sg15_70_cif.got.tgz:139855.got - 2010.06.03 18:47:42.
