data_PCOD9301990
_publ_section_title
;
Structure prediction by ZEFSAII (Michael W. Deem and Ramdas Pophale) SiO2 
 PCOD9301990
Probable space group: C 2/C
;
_chemical_formula_sum "Si O2"
_cell_formula_units_Z 48
_cell_length_a 21.893219
_cell_length_b 9.329626
_cell_length_c 10.143490
_cell_angle_alpha 90.000000
_cell_angle_beta 92.778774
_cell_angle_gamma 90.000000
_cell_volume 2069.427912
_symmetry_space_group_name_H-M "C 2/C"
_symmetry_group_IT_number 15
_symmetry_cell_setting 'monoclinic'
loop_
_space_group_symop_operation_xyz
x,y,z
-x,y,1/2-z
-x,-y,-z
x,-y,1/2+z
1/2+x,1/2+y,z
1/2-x,1/2+y,1/2-z
1/2-x,1/2-y,-z
1/2+x,1/2-y,1/2+z
loop_
_atom_site_type_symbol
_atom_site_label
_atom_site_fract_x
_atom_site_fract_y
_atom_site_fract_z
Si Si1 0.741476 0.370202 0.387905
Si Si2 0.146746 0.681718 0.762519
Si Si3 0.391481 0.482300 0.631915
Si Si4 0.541011 0.006822 0.133590
Si Si5 0.692575 0.161995 0.043134
Si Si6 0.914860 0.828098 0.362078
O O1 0.750000 0.250000 0.500000
O O2 0.782386 0.304611 0.273877
O O3 0.672131 0.429197 0.391421
O O4 0.780030 0.516041 0.403972
O O5 0.121646 0.841429 0.781513
O O6 0.103028 0.587276 0.662461
O O7 0.149144 0.623116 0.913108
O O8 0.418792 0.425749 0.495647
O O9 0.429065 0.584825 0.731884
O O10 0.500000 0.955264 0.250000
O O11 0.552327 0.176435 0.142093
O O12 0.500000 0.000000 0.000000
O O13 0.750000 0.250000 0.000000
O O14 0.655124 0.266944 0.135186
#
# Coordination Sequence:
#
# PCOD9301990 Si02
#       6
#     8   8   8   8   8   8
#     4  12  25  35  66 104 151 185 229 265 361 438
#     4  11  25  41  69 100 147 186 242 294 348 430
#     4  11  25  44  69 108 149 192 225 289 363 450
#     4  12  28  51  78 103 134 189 256 319 374 416
#     4  11  21  41  63 101 148 189 222 277 346 438
#     4  11  24  47  69 102 143 184 243 293 358 427
#
# _framework density 23.194814999999998
#
# number of rings (size 3 to 8) (size 9 to 14) (size 15 to 20)
#    0.000    0.667    5.000    4.000    4.667    1.333 
#    0.000    4.167    0.000    0.000    0.000    0.000 
#    0.000    0.000    0.000    0.000    0.000    0.000 
#
# Total GULP energy -133818.265155 kJ/mol
# GULP energy per Si atom -5575.761048 kJ/mol
# Density = 2.314202 g / cm^3
# Si number density = 23.194815 Si / 1000 Ang^3
#
#
#
# Elastic Constant Matrix: (Units=GPa)
#
#
# Indices 1 2 3 4 5 6 
#
# 1 86.5285 0.1923 10.9251 0.0000 7.9310 0.0000
# 2 0.1923 91.0150 16.1170 0.0000 21.2191 0.0000
# 3 10.9251 16.1170 54.6192 0.0000 22.0396 0.0000
# 4 0.0000 0.0000 0.0000 26.1712 0.0000 -7.0981
# 5 7.9310 21.2191 22.0396 0.0000 31.1997 0.0000
# 6 0.0000 0.0000 0.0000 -7.0981 0.0000 31.8647
#
#
#
# Elastic Compliance Matrix: (Units=1/GPa)
#
#
# Indices 1 2 3 4 5 6 
#
# 1 0.011989 0.000839 -0.001658 0.000000 -0.002447 0.000000
# 2 0.000839 0.013122 -0.000493 0.000000 -0.008789 0.000000
# 3 -0.001658 -0.000493 0.025848 0.000000 -0.017502 0.000000
# 4 0.000000 0.000000 0.000000 0.040667 0.000000 0.009059
# 5 -0.002447 -0.008789 -0.017502 0.000000 0.051015 0.000000
# 6 0.000000 0.000000 0.000000 0.009059 0.000000 0.033401
#
#
# Mechanical properties :
#
#
# Convention : Reuss Voigt Hill
#
# Bulk Modulus (GPa) = 20.68980 31.84794 26.26887
# Shear Modulus (GPa) = 25.67033 31.50902 28.58967
#
# Velocity S-wave (km/s) = 3.33036 3.68972 3.51463
# Velocity P-wave (km/s) = 4.87112 5.64911 5.27448
#
# Compressibility (1/GPa) = 0.04833299
#
# Stress axis : x y z
#
# Youngs Moduli (GPa) = 83.41231 76.20891 38.68742
#
# Poissons Ratio (x) = -0.06392 0.06415
# Poissons Ratio (y) = -0.06996 0.01908
# Poissons Ratio (z) = 0.13832 0.03759
#
# Static dielectric constant tensor:
#      x y z
#    x 1.878870 0.000000 0.008880 
#    y 0.000000 1.866620 0.000000 
#    z 0.008880 0.000000 2.004700 
# 
# From -- ./inp_files/116358.got.cif
#   From: 2010.05.17/outbox.cif.g08.bks.cpg/sg15_59_cif.got.tgz:116358.got - 2010.06.03 18:47:42.
