data_PCOD9301060
_publ_section_title
;
Structure prediction by ZEFSAII (Michael W. Deem and Ramdas Pophale) SiO2 
 PCOD9301060
Probable space group: C 2/C
;
_chemical_formula_sum "Si O2"
_cell_formula_units_Z 56
_cell_length_a 5.878969
_cell_length_b 23.944676
_cell_length_c 21.074601
_cell_angle_alpha 90.000000
_cell_angle_beta 90.222774
_cell_angle_gamma 90.000000
_cell_volume 2966.649325
_symmetry_space_group_name_H-M "C 2/C"
_symmetry_group_IT_number 15
_symmetry_cell_setting 'monoclinic'
loop_
_space_group_symop_operation_xyz
x,y,z
-x,y,1/2-z
-x,-y,-z
x,-y,1/2+z
1/2+x,1/2+y,z
1/2-x,1/2+y,1/2-z
1/2-x,1/2-y,-z
1/2+x,1/2-y,1/2+z
loop_
_atom_site_type_symbol
_atom_site_label
_atom_site_fract_x
_atom_site_fract_y
_atom_site_fract_z
Si Si1 0.345159 0.083504 0.303732
Si Si2 0.203396 0.462191 0.471422
Si Si3 0.928074 0.774977 0.589377
Si Si4 0.808358 0.645318 0.101491
Si Si5 0.624905 0.836602 0.485708
Si Si6 0.746200 0.705380 0.276567
Si Si7 0.992134 0.959519 0.600225
O O1 0.500000 0.055650 0.250000
O O2 0.499831 0.116015 0.355566
O O3 0.233874 0.137669 0.269965
O O4 0.178572 0.041663 0.340402
O O5 0.160013 0.397480 0.455715
O O6 0.360987 0.459287 0.533711
O O7 0.319347 0.493067 0.411779
O O8 0.000000 0.500000 0.500000
O O9 0.829988 0.813435 0.531368
O O10 0.931086 0.712543 0.563030
O O11 0.760186 0.779857 0.648849
O O12 0.171837 0.797626 0.614481
O O13 0.613031 0.599604 0.104465
O O14 0.916271 0.653953 0.033182
O O15 0.500000 0.727022 0.250000
O O16 0.000000 0.720782 0.250000
#
# Coordination Sequence:
#
# PCOD9301060 Si02
#       7
#     8   8   8   8   8   8   8
#     4  11  22  33  55  86 122 158 193 250 307 365
#     4  11  20  37  57  81 115 154 194 243 296 364
#     4  11  22  36  56  87 124 152 196 246 304 364
#     4  12  18  38  52  87 126 151 194 245 305 368
#     4  11  22  36  55  88 121 156 194 244 307 360
#     4  11  22  37  59  87 120 161 203 247 308 372
#     4  11  21  33  57  81 116 154 194 245 299 362
#
# _framework density 18.876515000000001
#
# number of rings (size 3 to 8) (size 9 to 14) (size 15 to 20)
#    0.000    0.857    7.143    2.143    0.000    0.000 
#    0.000    0.000    0.000    0.000    7.429    0.000 
#    0.000    0.000    0.000    0.000    0.000    0.000 
#
# Total GULP energy -155949.048360 kJ/mol
# GULP energy per Si atom -5569.608870 kJ/mol
# Density = 1.883355 g / cm^3
# Si number density = 18.876515 Si / 1000 Ang^3
#
#
#
# Elastic Constant Matrix: (Units=GPa)
#
#
# Indices 1 2 3 4 5 6 
#
# 1 97.6598 34.7192 37.6441 0.0000 -18.4387 0.0000
# 2 34.7192 117.1926 35.4891 0.0000 -22.0195 0.0000
# 3 37.6441 35.4891 69.3741 0.0000 -44.4818 0.0000
# 4 0.0000 0.0000 0.0000 18.3621 0.0000 -3.1116
# 5 -18.4387 -22.0195 -44.4818 0.0000 47.4131 0.0000
# 6 0.0000 0.0000 0.0000 -3.1116 0.0000 -3.4156
#
#
#
# Elastic Compliance Matrix: (Units=1/GPa)
#
#
# Indices 1 2 3 4 5 6 
#
# 1 0.013667 -0.002104 -0.008931 0.000000 -0.004040 0.000000
# 2 -0.002104 0.010424 -0.004044 0.000000 0.000229 0.000000
# 3 -0.008931 -0.004044 0.044919 0.000000 0.036791 0.000000
# 4 0.000000 0.000000 0.000000 0.047177 0.000000 -0.042978
# 5 -0.004040 0.000229 0.036791 0.000000 0.054143 0.000000
# 6 0.000000 0.000000 0.000000 -0.042978 0.000000 -0.253620
#
#
# Mechanical properties :
#
#
# Convention : Reuss Voigt Hill
#
# Bulk Modulus (GPa) = 25.73793 55.54790 40.64291
# Shear Modulus (GPa) = -124.43364 24.23020 -50.10172
#
# Velocity S-wave (km/s) = -8.12791 3.58665 -5.15747
# Velocity P-wave (km/s) = 8.62667 6.82956 3.72669
#
# Compressibility (1/GPa) = 0.03885317
#
# Stress axis : x y z
#
# Youngs Moduli (GPa) = 73.16856 95.93339 22.26206
#
# Poissons Ratio (x) = 0.20182 0.19881
# Poissons Ratio (y) = 0.15393 0.09004
# Poissons Ratio (z) = 0.65344 0.38799
#
# Static dielectric constant tensor:
#      x y z
#    x 1.813340 0.000000 0.032540 
#    y 0.000000 1.656190 0.000000 
#    z 0.032540 0.000000 1.702890 
# 
# From -- ./inp_files/227898.got.cif
#   From: 2010.05.17/outbox.cif.g08.bks.cpg/sg15_114_cif.got.tgz:227898.got - 2010.06.03 18:47:42.
