data_PCOD9301008
_publ_section_title
;
Structure prediction by ZEFSAII (Michael W. Deem and Ramdas Pophale) SiO2 
 PCOD9301008
Probable space group: C 2/C
;
_chemical_formula_sum "Si O2"
_cell_formula_units_Z 60
_cell_length_a 15.624287
_cell_length_b 16.688132
_cell_length_c 12.523414
_cell_angle_alpha 90.000000
_cell_angle_beta 137.358378
_cell_angle_gamma 90.000000
_cell_volume 2211.987203
_symmetry_space_group_name_H-M "C 2/C"
_symmetry_group_IT_number 15
_symmetry_cell_setting 'monoclinic'
loop_
_space_group_symop_operation_xyz
x,y,z
-x,y,1/2-z
-x,-y,-z
x,-y,1/2+z
1/2+x,1/2+y,z
1/2-x,1/2+y,1/2-z
1/2-x,1/2-y,-z
1/2+x,1/2-y,1/2+z
loop_
_atom_site_type_symbol
_atom_site_label
_atom_site_fract_x
_atom_site_fract_y
_atom_site_fract_z
Si Si1 0.500000 0.901375 0.250000
Si Si2 0.608071 0.612760 0.932397
Si Si3 0.204938 0.429576 0.584504
Si Si4 0.584791 0.317639 0.650703
Si Si5 0.040795 0.310021 0.680934
Si Si6 0.166402 0.469887 0.787392
Si Si7 0.781775 0.386050 0.411738
Si Si8 0.814241 0.204984 0.856962
O O1 0.612304 0.872156 0.431028
O O2 0.414341 0.954817 0.251866
O O3 0.500000 0.586018 0.750000
O O4 0.700729 0.654756 0.930856
O O5 0.582694 0.663666 0.018288
O O6 0.684923 0.536568 0.051511
O O7 0.341683 0.390968 0.726379
O O8 0.147729 0.446872 0.647526
O O9 0.207694 0.520887 0.546167
O O10 0.679745 0.243593 0.766942
O O11 0.437300 0.307035 0.544030
O O12 0.912297 0.341331 0.510840
O O13 0.000000 0.262681 0.750000
O O14 0.105856 0.390544 0.783335
O O15 0.134034 0.268058 0.684597
O O16 0.710184 0.376059 0.232897
#
# Coordination Sequence:
#
# PCOD9301008 Si02
#       8
#     4   8   8   8   8   8   8   8
#     4  12  20  38  68  90 122 158 216 266 314 360
#     4  11  20  36  54  88 132 168 201 244 302 390
#     4  11  24  40  64  94 125 163 212 263 313 373
#     4  11  25  41  61  92 128 166 211 257 314 383
#     4  12  20  34  59  90 130 162 202 246 306 389
#     4  11  20  38  60  94 125 164 208 258 304 378
#     4  12  23  36  58  90 128 170 203 255 308 365
#     4  12  24  38  59  91 131 177 202 251 312 387
#
# _framework density 27.124929000000002
#
# number of rings (size 3 to 8) (size 9 to 14) (size 15 to 20)
#    0.000    0.533   10.000    0.400    1.867    1.600 
#    0.000    0.000    0.000    0.800    0.000    0.000 
#    0.000    0.000    0.000    0.000    0.000    0.000 
#
# Total GULP energy -167525.043285 kJ/mol
# GULP energy per Si atom -5584.168110 kJ/mol
# Density = 2.706319 g / cm^3
# Si number density = 27.124929 Si / 1000 Ang^3
#
#
#
# Elastic Constant Matrix: (Units=GPa)
#
#
# Indices 1 2 3 4 5 6 
#
# 1 32.5324 -8.0957 17.4722 0.0000 -0.8249 0.0000
# 2 -8.0957 72.5445 22.0713 0.0000 0.8023 0.0000
# 3 17.4722 22.0713 221.2414 0.0000 31.0971 0.0000
# 4 0.0000 0.0000 0.0000 43.1232 0.0000 -0.6766
# 5 -0.8249 0.8023 31.0971 0.0000 38.6649 0.0000
# 6 0.0000 0.0000 0.0000 -0.6766 0.0000 20.5260
#
#
#
# Elastic Compliance Matrix: (Units=1/GPa)
#
#
# Indices 1 2 3 4 5 6 
#
# 1 0.034017 0.004875 -0.003676 0.000000 0.003581 0.000000
# 2 0.004875 0.014946 -0.002082 0.000000 0.001469 0.000000
# 3 -0.003676 -0.002082 0.005663 0.000000 -0.004590 0.000000
# 4 0.000000 0.000000 0.000000 0.023201 0.000000 0.000765
# 5 0.003581 0.001469 -0.004590 0.000000 0.029601 0.000000
# 6 0.000000 0.000000 0.000000 0.000765 0.000000 0.048744
#
#
# Mechanical properties :
#
#
# Convention : Reuss Voigt Hill
#
# Bulk Modulus (GPa) = 18.91830 43.24599 31.08215
# Shear Modulus (GPa) = 28.48046 40.12084 34.30065
#
# Velocity S-wave (km/s) = 3.24384 3.85010 3.55990
# Velocity P-wave (km/s) = 4.58472 5.97848 5.32738
#
# Compressibility (1/GPa) = 0.05285886
#
# Stress axis : x y z
#
# Youngs Moduli (GPa) = 29.39715 66.90751 176.57960
#
# Poissons Ratio (x) = -0.32617 0.64913
# Poissons Ratio (y) = -0.14331 0.36772
# Poissons Ratio (z) = 0.10807 0.13933
#
# Static dielectric constant tensor:
#      x y z
#    x 2.235650 0.000000 -0.033380 
#    y 0.000000 2.232760 0.000000 
#    z -0.033380 0.000000 2.408340 
# 
# From -- ./inp_files/169476.got.cif
#   From: 2010.05.17/outbox.cif.g08.bks.cpg/sg15_85_cif.got.tgz:169476.got - 2010.06.03 18:47:42.
