data_PCOD9301012
_publ_section_title
;
Structure prediction by ZEFSAII (Michael W. Deem and Ramdas Pophale) SiO2 
 PCOD9301012
Probable space group: C 2/C
;
_chemical_formula_sum "Si O2"
_cell_formula_units_Z 64
_cell_length_a 19.499834
_cell_length_b 15.303504
_cell_length_c 16.223174
_cell_angle_alpha 90.000000
_cell_angle_beta 140.005447
_cell_angle_gamma 90.000000
_cell_volume 3111.543732
_symmetry_space_group_name_H-M "C 2/C"
_symmetry_group_IT_number 15
_symmetry_cell_setting 'monoclinic'
loop_
_space_group_symop_operation_xyz
x,y,z
-x,y,1/2-z
-x,-y,-z
x,-y,1/2+z
1/2+x,1/2+y,z
1/2-x,1/2+y,1/2-z
1/2-x,1/2-y,-z
1/2+x,1/2-y,1/2+z
loop_
_atom_site_type_symbol
_atom_site_label
_atom_site_fract_x
_atom_site_fract_y
_atom_site_fract_z
Si Si1 0.234115 0.870580 0.899993
Si Si2 0.086568 0.053565 0.986278
Si Si3 0.783361 0.318484 0.402116
Si Si4 0.614812 0.293534 0.390235
Si Si5 0.364161 0.363828 0.514744
Si Si6 0.029127 0.321947 0.372657
Si Si7 0.684497 0.203970 0.745690
Si Si8 0.846149 0.022278 0.780605
O O1 0.209624 0.857856 0.973042
O O2 0.193756 0.786005 0.814506
O O3 0.168621 0.951548 0.805131
O O4 0.362118 0.873450 0.006255
O O5 0.138727 0.126394 0.975423
O O6 0.960611 0.072607 0.885874
O O7 0.084586 0.958720 0.940757
O O8 0.147381 0.034168 0.128548
O O9 0.690063 0.290612 0.379238
O O10 0.881319 0.295926 0.552921
O O11 0.804667 0.265825 0.338019
O O12 0.749093 0.411214 0.332202
O O13 0.500000 0.312117 0.250000
O O14 0.442167 0.281001 0.588754
O O15 0.286417 0.353902 0.364928
O O16 0.000000 0.335661 0.250000
O O17 0.927555 0.341659 0.336397
#
# Coordination Sequence:
#
# PCOD9301012 Si02
#       8
#     8   8   8   8   8   8   8   8
#     4  11  22  36  63  94 124 165 206 260 319 384
#     4  11  23  40  68  98 125 156 207 278 326 375
#     4  11  24  43  64  90 129 170 215 270 311 381
#     4  11  24  43  67  93 128 172 220 263 323 374
#     4  11  21  34  64  97 127 158 203 263 325 384
#     4  11  20  36  57  91 131 169 199 242 316 390
#     4  11  21  39  59  90 131 167 212 253 313 389
#     4  11  23  41  65  98 126 156 212 268 329 373
#
# _framework density 20.568569
#
# number of rings (size 3 to 8) (size 9 to 14) (size 15 to 20)
#    0.000    1.000    5.000    3.000    0.000    3.000 
#    0.000    1.250    2.750    0.000    0.000    0.000 
#    0.000    0.000    0.000    0.000    0.000    0.000 
#
# Total GULP energy -178406.032456 kJ/mol
# GULP energy per Si atom -5575.188514 kJ/mol
# Density = 2.052175 g / cm^3
# Si number density = 20.568569 Si / 1000 Ang^3
#
#
#
# Elastic Constant Matrix: (Units=GPa)
#
#
# Indices 1 2 3 4 5 6 
#
# 1 87.4810 -3.2170 38.2753 0.0000 -21.4544 0.0000
# 2 -3.2170 40.5341 13.1576 0.0000 -5.6824 0.0000
# 3 38.2753 13.1576 93.8181 0.0000 -19.2177 0.0000
# 4 0.0000 0.0000 0.0000 28.1356 0.0000 -4.3576
# 5 -21.4544 -5.6824 -19.2177 0.0000 37.7633 0.0000
# 6 0.0000 0.0000 0.0000 -4.3576 0.0000 18.7380
#
#
#
# Elastic Compliance Matrix: (Units=1/GPa)
#
#
# Indices 1 2 3 4 5 6 
#
# 1 0.015651 0.003986 -0.005582 0.000000 0.006651 0.000000
# 2 0.003986 0.027040 -0.004601 0.000000 0.003992 0.000000
# 3 -0.005582 -0.004601 0.014278 0.000000 0.003403 0.000000
# 4 0.000000 0.000000 0.000000 0.036870 0.000000 0.008574
# 5 0.006651 0.003992 0.003403 0.000000 0.032592 0.000000
# 6 0.000000 0.000000 0.000000 0.008574 0.000000 0.055361
#
#
# Mechanical properties :
#
#
# Convention : Reuss Voigt Hill
#
# Bulk Modulus (GPa) = 22.43309 35.36278 28.89794
# Shear Modulus (GPa) = 23.91835 28.50186 26.21010
#
# Velocity S-wave (km/s) = 3.41377 3.72654 3.57358
# Velocity P-wave (km/s) = 5.14477 5.97880 5.57740
#
# Compressibility (1/GPa) = 0.04457700
#
# Stress axis : x y z
#
# Youngs Moduli (GPa) = 63.89358 36.98214 70.03564
#
# Poissons Ratio (x) = -0.14743 0.39093
# Poissons Ratio (y) = -0.25471 0.32222
# Poissons Ratio (z) = 0.35665 0.17015
#
# Static dielectric constant tensor:
#      x y z
#    x 1.771410 0.000000 0.020290 
#    y 0.000000 1.771110 0.000000 
#    z 0.020290 0.000000 1.742290 
# 
# From -- ./inp_files/162570.got.cif
#   From: 2010.05.17/outbox.cif.g08.bks.cpg/sg15_82_cif.got.tgz:162570.got - 2010.06.03 18:47:42.
