data_PCOD9301651
_publ_section_title
;
Structure prediction by ZEFSAII (Michael W. Deem and Ramdas Pophale) SiO2 
 PCOD9301651
Probable space group: C 2/C
;
_chemical_formula_sum "Si O2"
_cell_formula_units_Z 40
_cell_length_a 8.294938
_cell_length_b 11.464062
_cell_length_c 22.712509
_cell_angle_alpha 90.000000
_cell_angle_beta 122.915768
_cell_angle_gamma 90.000000
_cell_volume 1813.101612
_symmetry_space_group_name_H-M "C 2/C"
_symmetry_group_IT_number 15
_symmetry_cell_setting 'monoclinic'
loop_
_space_group_symop_operation_xyz
x,y,z
-x,y,1/2-z
-x,-y,-z
x,-y,1/2+z
1/2+x,1/2+y,z
1/2-x,1/2+y,1/2-z
1/2-x,1/2-y,-z
1/2+x,1/2-y,1/2+z
loop_
_atom_site_type_symbol
_atom_site_label
_atom_site_fract_x
_atom_site_fract_y
_atom_site_fract_z
Si Si1 0.630671 0.371512 0.585665
Si Si2 0.204404 0.932590 0.478532
Si Si3 0.049555 0.543779 0.825997
Si Si4 0.137801 0.506328 0.099920
Si Si5 0.319757 0.260107 0.581963
O O1 0.653047 0.341998 0.520382
O O2 0.465563 0.472487 0.553965
O O3 0.827006 0.425723 0.646953
O O4 0.545106 0.281821 0.614784
O O5 0.250609 0.913092 0.419046
O O6 0.409366 0.988576 0.539203
O O7 0.186130 0.643496 0.881396
O O8 0.000000 0.575081 0.750000
O O9 0.867070 0.522120 0.832313
O O10 0.221031 0.632532 0.096646
O O11 0.250000 0.250000 0.500000
#
# Coordination Sequence:
#
# PCOD9301651 Si02
#       5
#     8   8   8   8   8
#     4   9  18  34  58  85 116 146 184 238 291 345
#     4   8  13  30  56  82 109 136 172 227 292 341
#     4  11  24  41  57  79 119 165 201 238 292 356
#     4   9  18  34  58  85 116 146 184 238 291 345
#     4  11  21  37  66  93 113 149 198 247 300 349
#
# _framework density 22.061644000000001
#
# number of rings (size 3 to 8) (size 9 to 14) (size 15 to 20)
#    0.000    2.400    0.000    7.200    0.000    1.600 
#    0.000   25.000    0.000    0.000    0.000    0.000 
#    0.000    0.000    0.000    0.000    0.000    0.000 
#
# Total GULP energy -111407.318432 kJ/mol
# GULP energy per Si atom -5570.365922 kJ/mol
# Density = 2.201143 g / cm^3
# Si number density = 22.061644 Si / 1000 Ang^3
#
#
#
# Elastic Constant Matrix: (Units=GPa)
#
#
# Indices 1 2 3 4 5 6 
#
# 1 117.5399 21.5465 34.7955 0.0000 -34.1831 0.0000
# 2 21.5465 64.0040 24.2513 0.0000 -12.5283 0.0000
# 3 34.7955 24.2513 106.3681 0.0000 -36.7492 0.0000
# 4 0.0000 0.0000 0.0000 14.6475 0.0000 -4.6315
# 5 -34.1831 -12.5283 -36.7492 0.0000 31.5959 0.0000
# 6 0.0000 0.0000 0.0000 -4.6315 0.0000 42.0297
#
#
#
# Elastic Compliance Matrix: (Units=1/GPa)
#
#
# Indices 1 2 3 4 5 6 
#
# 1 0.012684 -0.001927 0.001283 0.000000 0.014450 0.000000
# 2 -0.001927 0.017665 -0.002838 0.000000 0.001619 0.000000
# 3 0.001283 -0.002838 0.016249 0.000000 0.019161 0.000000
# 4 0.000000 0.000000 0.000000 0.070736 0.000000 0.007795
# 5 0.014450 0.001619 0.019161 0.000000 0.070211 0.000000
# 6 0.000000 0.000000 0.000000 0.007795 0.000000 0.024652
#
#
# Mechanical properties :
#
#
# Convention : Reuss Voigt Hill
#
# Bulk Modulus (GPa) = 25.23202 49.89986 37.56594
# Shear Modulus (GPa) = 21.51724 31.47587 26.49656
#
# Velocity S-wave (km/s) = 3.12641 3.78130 3.46934
# Velocity P-wave (km/s) = 4.94918 6.46001 5.75440
#
# Compressibility (1/GPa) = 0.03963217
#
# Stress axis : x y z
#
# Youngs Moduli (GPa) = 78.84142 56.60934 61.54283
#
# Poissons Ratio (x) = 0.10911 -0.07893
# Poissons Ratio (y) = 0.15196 0.17465
# Poissons Ratio (z) = -0.10112 0.16065
#
# Static dielectric constant tensor:
#      x y z
#    x 1.887140 0.000000 -0.042050 
#    y 0.000000 1.926540 0.000000 
#    z -0.042050 0.000000 1.855630 
# 
# From -- ./inp_files/262858.got.cif
#   From: 2010.05.17/outbox.cif.g08.bks.cpg/sg15_132_cif.got.tgz:262858.got - 2010.06.03 18:47:42.
