data_PCOD9301927
_publ_section_title
;
Structure prediction by ZEFSAII (Michael W. Deem and Ramdas Pophale) SiO2 
 PCOD9301927
Probable space group: C 2/C
;
_chemical_formula_sum "Si O2"
_cell_formula_units_Z 48
_cell_length_a 14.571181
_cell_length_b 25.678635
_cell_length_c 9.333528
_cell_angle_alpha 90.000000
_cell_angle_beta 43.769219
_cell_angle_gamma 90.000000
_cell_volume 2415.822554
_symmetry_space_group_name_H-M "C 2/C"
_symmetry_group_IT_number 15
_symmetry_cell_setting 'monoclinic'
loop_
_space_group_symop_operation_xyz
x,y,z
-x,y,1/2-z
-x,-y,-z
x,-y,1/2+z
1/2+x,1/2+y,z
1/2-x,1/2+y,1/2-z
1/2-x,1/2-y,-z
1/2+x,1/2-y,1/2+z
loop_
_atom_site_type_symbol
_atom_site_label
_atom_site_fract_x
_atom_site_fract_y
_atom_site_fract_z
Si Si1 0.352088 0.951161 0.977762
Si Si2 0.643370 0.719851 0.523234
Si Si3 0.904164 0.385204 0.180725
Si Si4 0.858480 0.902406 0.485039
Si Si5 0.884271 0.262553 0.266964
Si Si6 0.191622 0.569072 0.419202
O O1 0.344157 0.904383 0.099919
O O2 0.322796 0.007172 0.078964
O O3 0.500000 0.953715 0.750000
O O4 0.247999 0.938794 0.972291
O O5 0.750000 0.750000 0.500000
O O6 0.671126 0.658443 0.504673
O O7 0.629601 0.734800 0.371526
O O8 0.500000 0.731163 0.750000
O O9 0.899488 0.323996 0.215806
O O10 0.824444 0.414556 0.396962
O O11 0.058085 0.403843 0.006647
O O12 0.825772 0.912652 0.689454
O O13 0.000000 0.912583 0.250000
O O14 0.750000 0.250000 0.500000
O O15 0.000000 0.247653 0.250000
#
# Coordination Sequence:
#
# PCOD9301927 Si02
#       6
#     8   8   8   8   8   8
#     4  12  22  39  70 102 125 177 226 273 331 399
#     4  11  25  43  66  93 131 178 227 278 337 398
#     4  11  22  38  67 101 130 166 223 285 327 386
#     4  11  26  44  61  93 140 175 216 278 338 406
#     4  12  25  42  67  98 134 179 224 280 343 404
#     4  11  21  40  67  96 136 163 224 274 332 390
#
# _framework density 19.869008000000001
#
# number of rings (size 3 to 8) (size 9 to 14) (size 15 to 20)
#    0.000    0.667    5.000    4.500    2.333    3.333 
#    0.000    0.833    0.000    0.000    0.000    0.000 
#    0.000    0.000    0.000    0.000    0.000    0.000 
#
# Total GULP energy -134033.954811 kJ/mol
# GULP energy per Si atom -5584.748117 kJ/mol
# Density = 1.982379 g / cm^3
# Si number density = 19.869008 Si / 1000 Ang^3
#
#
#
# Elastic Constant Matrix: (Units=GPa)
#
#
# Indices 1 2 3 4 5 6 
#
# 1 71.2367 36.6727 36.6851 0.0000 -2.9462 0.0000
# 2 36.6727 83.1689 41.7946 0.0000 -25.9419 0.0000
# 3 36.6851 41.7946 166.0454 0.0000 -3.2140 0.0000
# 4 0.0000 0.0000 0.0000 29.8653 0.0000 7.2324
# 5 -2.9462 -25.9419 -3.2140 0.0000 28.3123 0.0000
# 6 0.0000 0.0000 0.0000 7.2324 0.0000 18.7472
#
#
#
# Elastic Compliance Matrix: (Units=1/GPa)
#
#
# Indices 1 2 3 4 5 6 
#
# 1 0.019970 -0.010106 -0.002012 0.000000 -0.007410 0.000000
# 2 -0.010106 0.024999 -0.003645 0.000000 0.021441 0.000000
# 3 -0.002012 -0.003645 0.007332 0.000000 -0.002717 0.000000
# 4 0.000000 0.000000 0.000000 0.036934 0.000000 -0.014249
# 5 -0.007410 0.021441 -0.002717 0.000000 0.053886 0.000000
# 6 0.000000 0.000000 0.000000 -0.014249 0.000000 0.058838
#
#
# Mechanical properties :
#
#
# Convention : Reuss Voigt Hill
#
# Bulk Modulus (GPa) = 48.13245 61.19508 54.66377
# Shear Modulus (GPa) = 20.79786 29.07155 24.93470
#
# Velocity S-wave (km/s) = 3.23886 3.82928 3.54638
# Velocity P-wave (km/s) = 6.18582 7.10051 6.65889
#
# Compressibility (1/GPa) = 0.02077600
#
# Stress axis : x y z
#
# Youngs Moduli (GPa) = 50.07575 40.00137 136.39379
#
# Poissons Ratio (x) = 0.40425 0.27439
# Poissons Ratio (y) = 0.50606 0.49711
# Poissons Ratio (z) = 0.10074 0.14579
#
# Static dielectric constant tensor:
#      x y z
#    x 3.247720 0.000000 0.643900 
#    y 0.000000 1.675330 0.000000 
#    z 0.643900 0.000000 1.945110 
# 
# From -- ./inp_files/43777.got.cif
#   From: 2010.05.17/outbox.cif.g08.bks.cpg/sg15_22_cif.got.tgz:43777.got - 2010.06.03 18:47:42.
