data_PCOD9301220
_publ_section_title
;
Structure prediction by ZEFSAII (Michael W. Deem and Ramdas Pophale) SiO2 
 PCOD9301220
Probable space group: C 2/C
;
_chemical_formula_sum "Si O2"
_cell_formula_units_Z 64
_cell_length_a 32.244693
_cell_length_b 16.721216
_cell_length_c 9.217845
_cell_angle_alpha 90.000000
_cell_angle_beta 39.503309
_cell_angle_gamma 90.000000
_cell_volume 3161.523794
_symmetry_space_group_name_H-M "C 2/C"
_symmetry_group_IT_number 15
_symmetry_cell_setting 'monoclinic'
loop_
_space_group_symop_operation_xyz
x,y,z
-x,y,1/2-z
-x,-y,-z
x,-y,1/2+z
1/2+x,1/2+y,z
1/2-x,1/2+y,1/2-z
1/2-x,1/2-y,-z
1/2+x,1/2-y,1/2+z
loop_
_atom_site_type_symbol
_atom_site_label
_atom_site_fract_x
_atom_site_fract_y
_atom_site_fract_z
Si Si1 0.766676 0.437885 0.924223
Si Si2 0.672448 0.823551 0.933526
Si Si3 0.103432 0.904522 0.826804
Si Si4 0.249405 0.627318 0.510845
Si Si5 0.637534 0.340998 0.219980
Si Si6 0.935308 0.963679 0.254628
Si Si7 0.561261 0.292443 0.695329
Si Si8 0.218215 0.698796 0.895645
O O1 0.823098 0.405165 0.667743
O O2 0.762548 0.532020 0.948219
O O3 0.700329 0.398176 0.041837
O O4 0.777550 0.387223 0.040529
O O5 0.718747 0.754175 0.737719
O O6 0.710713 0.840937 0.977336
O O7 0.600297 0.788232 0.128729
O O8 0.171525 0.866067 0.696654
O O9 0.060487 0.840577 0.850715
O O10 0.116464 0.972160 0.669111
O O11 0.071597 0.948127 0.054383
O O12 0.221449 0.677811 0.719226
O O13 0.582996 0.379528 0.266085
O O14 0.608917 0.341547 0.458565
O O15 0.657943 0.253301 0.109146
O O16 0.000000 0.000000 0.000000
O O17 0.500000 0.281198 0.750000
#
# Coordination Sequence:
#
# PCOD9301220 Si02
#       8
#     8   8   8   8   8   8   8   8
#     4  11  20  39  64  95 135 173 217 282 358 428
#     4  11  22  39  63  97 130 173 224 282 361 416
#     4  12  25  42  63  97 140 179 235 278 334 410
#     4  12  24  36  67 104 135 166 223 302 361 409
#     4  11  21  42  65  92 136 186 227 276 343 419
#     4  12  26  42  63  91 138 192 232 269 326 411
#     4  12  25  43  66  92 131 185 239 282 333 418
#     4  11  21  38  64  95 133 176 223 285 356 417
#
# _framework density 20.243403000000001
#
# number of rings (size 3 to 8) (size 9 to 14) (size 15 to 20)
#    0.000    0.500    5.000    5.250    3.500    0.000 
#    0.000    0.000    0.000    0.750    0.000    0.000 
#    0.000    0.000    0.000    0.000    0.000    0.000 
#
# Total GULP energy -178465.259748 kJ/mol
# GULP energy per Si atom -5577.039367 kJ/mol
# Density = 2.019733 g / cm^3
# Si number density = 20.243403 Si / 1000 Ang^3
#
#
#
# Elastic Constant Matrix: (Units=GPa)
#
#
# Indices 1 2 3 4 5 6 
#
# 1 147.3828 50.4339 57.8581 0.0000 6.2045 0.0000
# 2 50.4339 106.7264 32.2495 0.0000 -4.6571 0.0000
# 3 57.8581 32.2495 75.3818 0.0000 12.9750 0.0000
# 4 0.0000 0.0000 0.0000 280.4859 0.0000 -58.9301
# 5 6.2045 -4.6571 12.9750 0.0000 38.1090 0.0000
# 6 0.0000 0.0000 0.0000 -58.9301 0.0000 60.5602
#
#
#
# Elastic Compliance Matrix: (Units=1/GPa)
#
#
# Indices 1 2 3 4 5 6 
#
# 1 0.010433 -0.002852 -0.006835 0.000000 0.000280 0.000000
# 2 -0.002852 0.011888 -0.003427 0.000000 0.003084 0.000000
# 3 -0.006835 -0.003427 0.021095 0.000000 -0.006488 0.000000
# 4 0.000000 0.000000 0.000000 0.004481 0.000000 0.004361
# 5 0.000280 0.003084 -0.006488 0.000000 0.028781 0.000000
# 6 0.000000 0.000000 0.000000 0.004361 0.000000 0.020756
#
#
# Mechanical properties :
#
#
# Convention : Reuss Voigt Hill
#
# Bulk Modulus (GPa) = 58.18822 67.84154 63.01488
# Shear Modulus (GPa) = 38.64202 88.42765 63.53483
#
# Velocity S-wave (km/s) = 4.37380 6.61642 5.60835
# Velocity P-wave (km/s) = 7.36977 9.58932 8.55186
#
# Compressibility (1/GPa) = 0.01718561
#
# Stress axis : x y z
#
# Youngs Moduli (GPa) = 95.85258 84.11945 47.40397
#
# Poissons Ratio (x) = 0.23994 0.32402
# Poissons Ratio (y) = 0.27340 0.16247
# Poissons Ratio (z) = 0.65519 0.28831
#
# Static dielectric constant tensor:
#      x y z
#    x 1.829410 0.000000 0.008070 
#    y 0.000000 1.748750 0.000000 
#    z 0.008070 0.000000 1.802930 
# 
# From -- ./inp_files/70600.got.cif
#   From: 2010.05.17/outbox.cif.g08.bks.cpg/sg15_36_cif.got.tgz:70600.got - 2010.06.03 18:47:42.
