data_PCOD9301914
_publ_section_title
;
Structure prediction by ZEFSAII (Michael W. Deem and Ramdas Pophale) SiO2 
 PCOD9301914
Probable space group: C 2/C
;
_chemical_formula_sum "Si O2"
_cell_formula_units_Z 56
_cell_length_a 23.018040
_cell_length_b 17.411170
_cell_length_c 9.536131
_cell_angle_alpha 90.000000
_cell_angle_beta 48.701955
_cell_angle_gamma 90.000000
_cell_volume 2871.270958
_symmetry_space_group_name_H-M "C 2/C"
_symmetry_group_IT_number 15
_symmetry_cell_setting 'monoclinic'
loop_
_space_group_symop_operation_xyz
x,y,z
-x,y,1/2-z
-x,-y,-z
x,-y,1/2+z
1/2+x,1/2+y,z
1/2-x,1/2+y,1/2-z
1/2-x,1/2-y,-z
1/2+x,1/2-y,1/2+z
loop_
_atom_site_type_symbol
_atom_site_label
_atom_site_fract_x
_atom_site_fract_y
_atom_site_fract_z
Si Si1 0.227538 0.335075 0.491505
Si Si2 0.233625 0.077762 0.287364
Si Si3 0.674595 0.698558 0.164134
Si Si4 0.464221 0.191153 0.662056
Si Si5 0.854589 0.452373 0.352203
Si Si6 0.935444 0.385524 0.734771
Si Si7 0.787784 0.916210 0.125039
O O1 0.250000 0.250000 0.500000
O O2 0.237756 0.389611 0.610546
O O3 0.138123 0.339371 0.590541
O O4 0.275607 0.369523 0.286723
O O5 0.195206 0.148758 0.267491
O O6 0.182113 0.002097 0.394637
O O7 0.301543 0.046676 0.076178
O O8 0.598683 0.749943 0.299271
O O9 0.750000 0.750000 0.000000
O O10 0.664427 0.636241 0.056929
O O11 0.500000 0.221314 0.750000
O O12 0.414877 0.115510 0.776278
O O13 0.528830 0.161996 0.450875
O O14 0.902147 0.530138 0.250809
O O15 0.794779 0.431092 0.322982
O O16 0.000000 0.394960 0.750000
#
# Coordination Sequence:
#
# PCOD9301914 Si02
#       7
#     8   8   8   8   8   8   8
#     4  12  25  37  64  93 131 167 220 273 315 378
#     4  11  21  40  66  92 125 171 228 263 321 378
#     4  11  23  41  68  90 131 176 224 275 316 395
#     4  12  26  40  63  96 132 178 213 265 335 396
#     4  11  22  40  61  92 137 177 204 246 323 421
#     4  12  26  41  60  98 141 175 208 261 340 407
#     4  11  21  40  67  93 125 169 232 264 320 380
#
# _framework density 19.503557000000001
#
# number of rings (size 3 to 8) (size 9 to 14) (size 15 to 20)
#    0.000    0.571    5.714    4.286    4.000    0.000 
#    0.000    0.000    0.000    0.857    0.000    0.000 
#    0.000    0.000    0.000    0.000    0.000    0.000 
#
# Total GULP energy -156499.859632 kJ/mol
# GULP energy per Si atom -5589.280701 kJ/mol
# Density = 1.945917 g / cm^3
# Si number density = 19.503557 Si / 1000 Ang^3
#
#
#
# Elastic Constant Matrix: (Units=GPa)
#
#
# Indices 1 2 3 4 5 6 
#
# 1 66.4441 26.0884 16.0941 0.0000 14.7081 0.0000
# 2 26.0884 108.1930 11.0040 0.0000 -3.3586 0.0000
# 3 16.0941 11.0040 52.7645 0.0000 18.3321 0.0000
# 4 0.0000 0.0000 0.0000 38.0051 0.0000 7.0099
# 5 14.7081 -3.3586 18.3321 0.0000 35.9219 0.0000
# 6 0.0000 0.0000 0.0000 7.0099 0.0000 48.5438
#
#
#
# Elastic Compliance Matrix: (Units=1/GPa)
#
#
# Indices 1 2 3 4 5 6 
#
# 1 0.018958 -0.004541 -0.002420 0.000000 -0.006952 0.000000
# 2 -0.004541 0.010689 -0.002233 0.000000 0.003998 0.000000
# 3 -0.002420 -0.002233 0.024170 0.000000 -0.011552 0.000000
# 4 0.000000 0.000000 0.000000 0.027032 0.000000 -0.003904
# 5 -0.006952 0.003998 -0.011552 0.000000 0.036954 0.000000
# 6 0.000000 0.000000 0.000000 -0.003904 0.000000 0.021164
#
#
# Mechanical properties :
#
#
# Convention : Reuss Voigt Hill
#
# Bulk Modulus (GPa) = 28.22632 37.08607 32.65619
# Shear Modulus (GPa) = 29.55688 36.10851 32.83269
#
# Velocity S-wave (km/s) = 3.89712 4.30744 4.10740
# Velocity P-wave (km/s) = 5.89524 6.61778 6.26693
#
# Compressibility (1/GPa) = 0.03542793
#
# Stress axis : x y z
#
# Youngs Moduli (GPa) = 52.74730 93.55442 41.37397
#
# Poissons Ratio (x) = 0.42483 0.10014
# Poissons Ratio (y) = 0.23953 0.09240
# Poissons Ratio (z) = 0.12766 0.20893
#
# Static dielectric constant tensor:
#      x y z
#    x 1.698270 0.000000 0.018130 
#    y 0.000000 1.629770 0.000000 
#    z 0.018130 0.000000 1.706470 
# 
# From -- ./inp_files/62667.got.cif
#   From: 2010.05.17/outbox.cif.g08.bks.cpg/sg15_32_cif.got.tgz:62667.got - 2010.06.03 18:47:42.
