data_PCOD9301372
_publ_section_title
;
Structure prediction by ZEFSAII (Michael W. Deem and Ramdas Pophale) SiO2 
 PCOD9301372
Probable space group: C 2/C
;
_chemical_formula_sum "Si O2"
_cell_formula_units_Z 52
_cell_length_a 31.195424
_cell_length_b 11.368933
_cell_length_c 9.280583
_cell_angle_alpha 90.000000
_cell_angle_beta 37.600855
_cell_angle_gamma 90.000000
_cell_volume 2008.294726
_symmetry_space_group_name_H-M "C 2/C"
_symmetry_group_IT_number 15
_symmetry_cell_setting 'monoclinic'
loop_
_space_group_symop_operation_xyz
x,y,z
-x,y,1/2-z
-x,-y,-z
x,-y,1/2+z
1/2+x,1/2+y,z
1/2-x,1/2+y,1/2-z
1/2-x,1/2-y,-z
1/2+x,1/2-y,1/2+z
loop_
_atom_site_type_symbol
_atom_site_label
_atom_site_fract_x
_atom_site_fract_y
_atom_site_fract_z
Si Si1 0.340853 0.603450 0.408446
Si Si2 0.071154 0.063202 0.608397
Si Si3 0.913700 0.727665 0.245460
Si Si4 0.500000 0.795409 0.250000
Si Si5 0.243208 0.298404 0.359809
Si Si6 0.896559 0.548812 0.849045
Si Si7 0.801609 0.520260 0.861615
O O1 0.379528 0.514716 0.417578
O O2 0.313536 0.710547 0.580606
O O3 0.264913 0.576621 0.536944
O O4 0.389875 0.604727 0.139498
O O5 0.047746 0.179271 0.757695
O O6 0.000000 0.997157 0.750000
O O7 0.830435 0.752195 0.499807
O O8 0.919631 0.588499 0.263504
O O9 0.938399 0.757136 0.016488
O O10 0.540620 0.872290 0.261277
O O11 0.250000 0.250000 0.500000
O O12 0.228724 0.435357 0.433909
O O13 0.861659 0.588192 0.790738
O O14 0.842434 0.546163 0.126595
#
# Coordination Sequence:
#
# PCOD9301372 Si02
#       7
#     8   8   8   4   8   8   8
#     4  12  24  51  79  99 143 196 240 317 376 417
#     4  12  29  50  75 109 144 197 256 305 370 451
#     4  11  26  44  68 111 148 186 250 297 361 452
#     4  12  24  44  72 102 156 210 220 302 374 450
#     4  11  23  43  73 106 136 182 245 302 360 432
#     4  11  22  41  71 104 145 189 236 286 372 440
#     4  11  20  42  71 102 137 180 236 296 358 430
#
# _framework density 25.892613999999998
#
# number of rings (size 3 to 8) (size 9 to 14) (size 15 to 20)
#    0.000    0.615    7.692    1.846    1.077    1.846 
#    4.154    0.000    0.000    0.000    0.000    0.000 
#    0.000    0.000    0.000    0.000    0.000    0.000 
#
# Total GULP energy -145257.547998 kJ/mol
# GULP energy per Si atom -5586.828769 kJ/mol
# Density = 2.583368 g / cm^3
# Si number density = 25.892614 Si / 1000 Ang^3
#
#
#
# Elastic Constant Matrix: (Units=GPa)
#
#
# Indices 1 2 3 4 5 6 
#
# 1 192.6900 31.1204 45.9096 0.0000 -1.5369 0.0000
# 2 31.1204 48.1155 29.5971 0.0000 11.6806 0.0000
# 3 45.9096 29.5971 169.4853 0.0000 27.6063 0.0000
# 4 0.0000 0.0000 0.0000 26.6546 0.0000 12.1999
# 5 -1.5369 11.6806 27.6063 0.0000 49.1018 0.0000
# 6 0.0000 0.0000 0.0000 12.1999 0.0000 14.2235
#
#
#
# Elastic Compliance Matrix: (Units=1/GPa)
#
#
# Indices 1 2 3 4 5 6 
#
# 1 0.006093 -0.003562 -0.001318 0.000000 0.001779 0.000000
# 2 -0.003562 0.025953 -0.002800 0.000000 -0.004711 0.000000
# 3 -0.001318 -0.002800 0.007314 0.000000 -0.003488 0.000000
# 4 0.000000 0.000000 0.000000 0.061765 0.000000 -0.052977
# 5 0.001779 -0.004711 -0.003488 0.000000 0.023503 0.000000
# 6 0.000000 0.000000 0.000000 -0.052977 0.000000 0.115746
#
#
# Mechanical properties :
#
#
# Convention : Reuss Voigt Hill
#
# Bulk Modulus (GPa) = 41.66628 69.28278 55.47453
# Shear Modulus (GPa) = 18.95844 38.24025 28.59935
#
# Velocity S-wave (km/s) = 2.70885 3.84719 3.32706
# Velocity P-wave (km/s) = 5.09025 6.82278 6.01918
#
# Compressibility (1/GPa) = 0.02400022
#
# Stress axis : x y z
#
# Youngs Moduli (GPa) = 164.11598 38.53085 136.71812
#
# Poissons Ratio (x) = 0.13725 0.18023
# Poissons Ratio (y) = 0.58459 0.38280
# Poissons Ratio (z) = 0.21635 0.10788
#
# Static dielectric constant tensor:
#      x y z
#    x 2.112630 0.000000 0.007690 
#    y 0.000000 2.403090 0.000000 
#    z 0.007690 0.000000 2.003160 
# 
# From -- ./inp_files/70089.got.cif
#   From: 2010.05.17/outbox.cif.g08.bks.cpg/sg15_36_cif.got.tgz:70089.got - 2010.06.03 18:47:42.
