data_PCOD9301858
_publ_section_title
;
Structure prediction by ZEFSAII (Michael W. Deem and Ramdas Pophale) SiO2 
 PCOD9301858
Probable space group: C 2/C
;
_chemical_formula_sum "Si O2"
_cell_formula_units_Z 32
_cell_length_a 26.580447
_cell_length_b 6.409290
_cell_length_c 13.760600
_cell_angle_alpha 90.000000
_cell_angle_beta 37.752480
_cell_angle_gamma 90.000000
_cell_volume 1435.289256
_symmetry_space_group_name_H-M "C 2/C"
_symmetry_group_IT_number 15
_symmetry_cell_setting 'monoclinic'
loop_
_space_group_symop_operation_xyz
x,y,z
-x,y,1/2-z
-x,-y,-z
x,-y,1/2+z
1/2+x,1/2+y,z
1/2-x,1/2+y,1/2-z
1/2-x,1/2-y,-z
1/2+x,1/2-y,1/2+z
loop_
_atom_site_type_symbol
_atom_site_label
_atom_site_fract_x
_atom_site_fract_y
_atom_site_fract_z
Si Si1 0.923130 0.136781 0.086670
Si Si2 0.693057 0.256984 0.262520
Si Si3 0.132467 0.415506 0.482902
Si Si4 0.676955 0.921668 0.125420
O O1 0.930752 0.256171 0.971000
O O2 0.897683 0.309671 0.204196
O O3 0.848740 0.972277 0.200622
O O4 0.000000 0.000000 0.000000
O O5 0.779678 0.310512 0.178627
O O6 0.632503 0.134676 0.426938
O O7 0.707671 0.105971 0.149021
O O8 0.141900 0.473046 0.580977
O O9 0.750000 0.750000 0.000000
#
# Coordination Sequence:
#
# PCOD9301858 Si02
#       4
#     8   8   8   8
#     4  11  26  44  65  98 146 176 220 297 351 392
#     4  11  21  40  69  97 132 172 235 285 334 406
#     4  11  21  39  69  99 127 179 234 279 340 415
#     4  11  23  39  71 102 129 176 242 280 330 424
#
# _framework density 22.295158000000001
#
# number of rings (size 3 to 8) (size 9 to 14) (size 15 to 20)
#    0.000    1.000    5.000    2.250    0.000    4.000 
#    0.000    7.500    0.000    0.000    0.000    0.000 
#    0.000    0.000    0.000    0.000    0.000    0.000 
#
# Total GULP energy -89383.438832 kJ/mol
# GULP energy per Si atom -5586.464927 kJ/mol
# Density = 2.224441 g / cm^3
# Si number density = 22.295158 Si / 1000 Ang^3
#
#
#
# Elastic Constant Matrix: (Units=GPa)
#
#
# Indices 1 2 3 4 5 6 
#
# 1 114.7333 51.2610 32.4168 -0.0002 15.8205 0.0000
# 2 51.2610 112.6635 21.3190 -0.0015 13.1904 0.0014
# 3 32.4168 21.3190 33.5810 -0.0004 8.3376 0.0006
# 4 -0.0002 -0.0015 -0.0004 34.2859 0.0005 2.0806
# 5 15.8205 13.1904 8.3376 0.0005 36.3631 -0.0002
# 6 0.0000 0.0014 0.0006 2.0806 -0.0002 58.4063
#
#
#
# Elastic Compliance Matrix: (Units=1/GPa)
#
#
# Indices 1 2 3 4 5 6 
#
# 1 0.013680 -0.004061 -0.010089 0.000000 -0.002165 0.000000
# 2 -0.004061 0.011482 -0.002941 0.000000 -0.001724 0.000000
# 3 -0.010089 -0.002941 0.042447 0.000000 -0.004276 0.000000
# 4 0.000000 0.000000 0.000000 0.029230 -0.000001 -0.001041
# 5 -0.002165 -0.001724 -0.004276 -0.000001 0.030048 0.000000
# 6 0.000000 0.000000 0.000000 -0.001041 0.000000 0.017159
#
#
# Mechanical properties :
#
#
# Convention : Reuss Voigt Hill
#
# Bulk Modulus (GPa) = 29.91735 52.33016 41.12376
# Shear Modulus (GPa) = 26.40322 36.20979 31.30650
#
# Velocity S-wave (km/s) = 3.44504 4.03440 3.75131
# Velocity P-wave (km/s) = 5.41039 6.72490 6.10314
#
# Compressibility (1/GPa) = 0.03342542
#
# Stress axis : x y z
#
# Youngs Moduli (GPa) = 73.10118 87.09106 23.55870
#
# Poissons Ratio (x) = 0.35372 0.23769
# Poissons Ratio (y) = 0.29690 0.06928
# Poissons Ratio (z) = 0.73755 0.25613
#
# Static dielectric constant tensor:
#      x y z
#    x 1.854210 0.000000 -0.008070 
#    y 0.000000 1.821630 0.000000 
#    z -0.008070 0.000000 1.919160 
# 
# From -- ./inp_files/158169.got.cif
#   From: 2010.05.17/outbox.cif.g08.bks.cpg/sg15_80_cif.got.tgz:158169.got - 2010.06.03 18:47:42.
