data_PCOD9301938
_publ_section_title
;
Structure prediction by ZEFSAII (Michael W. Deem and Ramdas Pophale) SiO2 
 PCOD9301938
Probable space group: C 2/C
;
_chemical_formula_sum "Si O2"
_cell_formula_units_Z 60
_cell_length_a 19.854108
_cell_length_b 15.527633
_cell_length_c 10.184800
_cell_angle_alpha 90.000000
_cell_angle_beta 54.633030
_cell_angle_gamma 90.000000
_cell_volume 2560.422653
_symmetry_space_group_name_H-M "C 2/C"
_symmetry_group_IT_number 15
_symmetry_cell_setting 'monoclinic'
loop_
_space_group_symop_operation_xyz
x,y,z
-x,y,1/2-z
-x,-y,-z
x,-y,1/2+z
1/2+x,1/2+y,z
1/2-x,1/2+y,1/2-z
1/2-x,1/2-y,-z
1/2+x,1/2-y,1/2+z
loop_
_atom_site_type_symbol
_atom_site_label
_atom_site_fract_x
_atom_site_fract_y
_atom_site_fract_z
Si Si1 0.132673 0.755008 0.912594
Si Si2 0.894714 0.445278 0.564232
Si Si3 0.021474 0.386572 0.582406
Si Si4 0.784429 0.170147 0.661649
Si Si5 0.856423 0.961222 0.294539
Si Si6 0.203636 0.528550 0.587453
Si Si7 0.000000 0.145577 0.750000
Si Si8 0.409447 0.347459 0.798750
O O1 0.233057 0.747691 0.789281
O O2 0.097954 0.782559 0.811934
O O3 0.108714 0.655944 0.957941
O O4 0.073442 0.805246 0.084361
O O5 0.961223 0.512651 0.432608
O O6 0.856722 0.480683 0.743438
O O7 0.828908 0.447219 0.521439
O O8 0.951390 0.366895 0.553379
O O9 0.000000 0.355632 0.750000
O O10 0.816674 0.095723 0.723846
O O11 0.726249 0.118940 0.626400
O O12 0.859500 0.191084 0.479269
O O13 0.943331 0.915199 0.223741
O O14 0.783488 0.965592 0.485756
O O15 0.874959 0.063621 0.271521
O O16 0.500000 0.365932 0.750000
#
# Coordination Sequence:
#
# PCOD9301938 Si02
#       8
#     8   8   8   8   8   8   4   8
#     4  12  26  45  69 108 153 195 244 311 387 454
#     4  11  22  39  69 102 143 198 251 299 368 442
#     4  11  22  40  66 101 151 196 248 303 369 456
#     4  11  25  46  71 106 151 188 242 320 379 458
#     4  11  25  46  75 106 138 191 259 310 376 446
#     4  11  21  40  68 105 137 190 244 309 360 434
#     4  12  28  46  78 104 144 200 246 312 386 458
#     4  11  26  47  78 105 145 195 254 318 378 452
#
# _framework density 23.433630999999998
#
# number of rings (size 3 to 8) (size 9 to 14) (size 15 to 20)
#    0.000    0.800    5.333    1.200    3.733    2.667 
#    0.000    4.000    0.000    0.000    0.000    0.000 
#    0.000    0.000    0.000    0.000    0.000    0.000 
#
# Total GULP energy -167023.932497 kJ/mol
# GULP energy per Si atom -5567.464417 kJ/mol
# Density = 2.338029 g / cm^3
# Si number density = 23.433631 Si / 1000 Ang^3
#
#
#
# Elastic Constant Matrix: (Units=GPa)
#
#
# Indices 1 2 3 4 5 6 
#
# 1 84.0121 7.1507 6.6734 0.0000 3.9535 0.0000
# 2 7.1507 25.7790 15.2234 0.0000 6.7022 0.0000
# 3 6.6734 15.2234 116.1156 0.0000 -7.7489 0.0000
# 4 0.0000 0.0000 0.0000 28.1105 0.0000 -16.8412
# 5 3.9535 6.7022 -7.7489 0.0000 31.9452 0.0000
# 6 0.0000 0.0000 0.0000 -16.8412 0.0000 6.2214
#
#
#
# Elastic Compliance Matrix: (Units=1/GPa)
#
#
# Indices 1 2 3 4 5 6 
#
# 1 0.012228 -0.002903 -0.000389 0.000000 -0.000999 0.000000
# 2 -0.002903 0.046377 -0.006646 0.000000 -0.010983 0.000000
# 3 -0.000389 -0.006646 0.009760 0.000000 0.003810 0.000000
# 4 0.000000 0.000000 0.000000 -0.057214 0.000000 -0.154877
# 5 -0.000999 -0.010983 0.003810 0.000000 0.034656 0.000000
# 6 0.000000 0.000000 0.000000 -0.154877 0.000000 -0.258513
#
#
# Mechanical properties :
#
#
# Convention : Reuss Voigt Hill
#
# Bulk Modulus (GPa) = 20.62316 31.55574 26.08945
# Shear Modulus (GPa) = -28.30177 26.37938 -0.96120
#
# Velocity S-wave (km/s) = -3.47903 3.35879 -0.64115
# Velocity P-wave (km/s) = 2.70526 5.34203 3.25721
#
# Compressibility (1/GPa) = 0.04848917
#
# Stress axis : x y z
#
# Youngs Moduli (GPa) = 81.77965 21.56256 102.45811
#
# Poissons Ratio (x) = 0.06259 0.03984
# Poissons Ratio (y) = 0.23737 0.68097
# Poissons Ratio (z) = 0.03180 0.14331
#
# Static dielectric constant tensor:
#      x y z
#    x 1.986030 0.000000 -0.032970 
#    y 0.000000 1.944620 0.000000 
#    z -0.032970 0.000000 1.936110 
# 
# From -- ./inp_files/57001.got.cif
#   From: 2010.05.17/outbox.cif.g08.bks.cpg/sg15_29_cif.got.tgz:57001.got - 2010.06.03 18:47:42.
