data_PCOD9301203
_publ_section_title
;
Structure prediction by ZEFSAII (Michael W. Deem and Ramdas Pophale) SiO2 
 PCOD9301203
Probable space group: C 2/C
;
_chemical_formula_sum "Si O2"
_cell_formula_units_Z 40
_cell_length_a 16.228003
_cell_length_b 19.052837
_cell_length_c 10.872368
_cell_angle_alpha 90.000000
_cell_angle_beta 146.627729
_cell_angle_gamma 90.000000
_cell_volume 1849.149727
_symmetry_space_group_name_H-M "C 2/C"
_symmetry_group_IT_number 15
_symmetry_cell_setting 'monoclinic'
loop_
_space_group_symop_operation_xyz
x,y,z
-x,y,1/2-z
-x,-y,-z
x,-y,1/2+z
1/2+x,1/2+y,z
1/2-x,1/2+y,1/2-z
1/2-x,1/2-y,-z
1/2+x,1/2-y,1/2+z
loop_
_atom_site_type_symbol
_atom_site_label
_atom_site_fract_x
_atom_site_fract_y
_atom_site_fract_z
Si Si1 0.348189 0.733227 0.001553
Si Si2 0.775425 0.618053 0.327360
Si Si3 0.000000 0.731697 0.250000
Si Si4 0.500000 0.984369 0.250000
Si Si5 0.049217 0.154928 0.591992
Si Si6 0.716676 0.895044 0.948482
O O1 0.500000 0.709085 0.250000
O O2 0.250000 0.750000 0.000000
O O3 0.360067 0.808785 0.953655
O O4 0.333742 0.680953 0.867808
O O5 0.747708 0.611410 0.148913
O O6 0.887132 0.561730 0.526427
O O7 0.603773 0.625802 0.159485
O O8 0.998138 0.781934 0.369990
O O9 0.864258 0.676724 0.104930
O O10 0.391384 0.038368 0.183030
O O11 0.137420 0.098998 0.784878
#
# Coordination Sequence:
#
# PCOD9301203 Si02
#       6
#     8   8   4   4   8   8
#     4  12  25  41  68 109 145 181 220 282 365 427
#     4  12  23  44  68  96 143 184 232 287 344 421
#     4  11  20  38  72 108 128 167 220 296 354 413
#     4  11  28  44  64  96 138 201 238 278 342 419
#     4  12  23  41  73 106 136 173 230 297 360 410
#     4  11  24  43  69 101 135 179 238 291 342 414
#
# _framework density 21.631563
#
# number of rings (size 3 to 8) (size 9 to 14) (size 15 to 20)
#    0.000    0.400    7.000    2.400    0.000    0.800 
#    3.600    0.000    0.000    0.000    0.000    0.000 
#    0.000    0.000    0.000    0.000    0.000    0.000 
#
# Total GULP energy -111387.405343 kJ/mol
# GULP energy per Si atom -5569.370267 kJ/mol
# Density = 2.158233 g / cm^3
# Si number density = 21.631563 Si / 1000 Ang^3
#
#
#
# Elastic Constant Matrix: (Units=GPa)
#
#
# Indices 1 2 3 4 5 6 
#
# 1 135.7110 20.2061 37.5423 0.0000 -8.3770 0.0000
# 2 20.2061 61.8042 38.9348 0.0000 5.4974 0.0000
# 3 37.5423 38.9348 112.0748 0.0000 -1.2205 0.0000
# 4 0.0000 0.0000 0.0000 2221.8995 0.0000-1900.2530
# 5 -8.3770 5.4974 -1.2205 0.0000 19.4689 0.0000
# 6 0.0000 0.0000 0.0000-1900.2530 0.0000 1655.9067
#
#
#
# Elastic Compliance Matrix: (Units=1/GPa)
#
#
# Indices 1 2 3 4 5 6 
#
# 1 0.008482 -0.001750 -0.002190 0.000000 0.004007 0.000000
# 2 -0.001750 0.021878 -0.007094 0.000000 -0.007375 0.000000
# 3 -0.002190 -0.007094 0.012141 0.000000 0.001822 0.000000
# 4 0.000000 0.000000 0.000000 0.024246 0.000000 0.027824
# 5 0.004007 -0.007375 0.001822 0.000000 0.055285 0.000000
# 6 0.000000 0.000000 0.000000 0.027824 0.000000 0.032533
#
#
# Mechanical properties :
#
#
# Convention : Reuss Voigt Hill
#
# Bulk Modulus (GPa) = 48.94280 55.88405 52.41342
# Shear Modulus (GPa) = 27.25644 793.64880 410.45262
#
# Velocity S-wave (km/s) = 3.55354 19.17525 13.78982
# Velocity P-wave (km/s) = 6.28583 22.71881 16.66817
#
# Compressibility (1/GPa) = 0.02043201
#
# Stress axis : x y z
#
# Youngs Moduli (GPa) = 117.89342 45.70891 82.36865
#
# Poissons Ratio (x) = 0.07999 0.18036
# Poissons Ratio (y) = 0.20632 0.58435
# Poissons Ratio (z) = 0.25815 0.32428
#
# Static dielectric constant tensor:
#      x y z
#    x 2.738490 0.000000 -0.514830 
#    y 0.000000 1.772430 0.000000 
#    z -0.514830 0.000000 2.185860 
# 
# From -- ./inp_files/107589.got.cif
#   From: 2010.05.17/outbox.cif.g08.bks.cpg/sg15_54_cif.got.tgz:107589.got - 2010.06.03 18:47:42.
