data_PCOD9301111
_publ_section_title
;
Structure prediction by ZEFSAII (Michael W. Deem and Ramdas Pophale) SiO2 
 PCOD9301111
Probable space group: C 2/C
;
_chemical_formula_sum "Si O2"
_cell_formula_units_Z 56
_cell_length_a 8.136464
_cell_length_b 19.507638
_cell_length_c 16.441003
_cell_angle_alpha 90.000000
_cell_angle_beta 106.227372
_cell_angle_gamma 90.000000
_cell_volume 2505.604070
_symmetry_space_group_name_H-M "C 2/C"
_symmetry_group_IT_number 15
_symmetry_cell_setting 'monoclinic'
loop_
_space_group_symop_operation_xyz
x,y,z
-x,y,1/2-z
-x,-y,-z
x,-y,1/2+z
1/2+x,1/2+y,z
1/2-x,1/2+y,1/2-z
1/2-x,1/2-y,-z
1/2+x,1/2-y,1/2+z
loop_
_atom_site_type_symbol
_atom_site_label
_atom_site_fract_x
_atom_site_fract_y
_atom_site_fract_z
Si Si1 0.558665 0.438340 0.567273
Si Si2 0.799010 0.011799 0.248973
Si Si3 0.963534 0.692608 0.958602
Si Si4 0.300213 0.891092 0.903896
Si Si5 0.837863 0.860391 0.283679
Si Si6 0.637410 0.259415 0.824501
Si Si7 0.900704 0.171283 0.551407
O O1 0.500000 0.500000 0.500000
O O2 0.685420 0.459875 0.657498
O O3 0.380718 0.408775 0.578542
O O4 0.647781 0.378310 0.528998
O O5 0.688386 0.053893 0.167871
O O6 0.000000 0.012665 0.250000
O O7 0.753847 0.931738 0.247117
O O8 0.764838 0.675821 0.913744
O O9 0.065713 0.725094 0.896897
O O10 0.947694 0.754762 0.021867
O O11 0.055827 0.625233 0.008636
O O12 0.276752 0.816062 0.862341
O O13 0.705543 0.800035 0.276007
O O14 0.000000 0.843801 0.250000
O O15 0.935026 0.863461 0.384342
O O16 0.500000 0.298428 0.750000
#
# Coordination Sequence:
#
# PCOD9301111 Si02
#       7
#     8   8   8   8   8   8   8
#     4  11  20  37  68  92 126 175 224 265 326 404
#     4   9  21  38  63  91 128 172 217 265 327 404
#     4  11  24  41  66  99 136 168 220 285 333 396
#     4  11  22  42  64  98 131 175 221 276 335 394
#     4  11  22  41  65  93 130 173 221 274 329 404
#     4  12  23  40  67  98 130 172 222 277 334 397
#     4  11  22  41  64  98 131 170 224 273 334 401
#
# _framework density 22.349900999999999
#
# number of rings (size 3 to 8) (size 9 to 14) (size 15 to 20)
#    0.000    1.143    4.286    3.429    0.000    0.000 
#    0.000    2.857    0.000    0.000    0.000    0.000 
#    0.000    0.000    0.000    0.000    0.000    0.000 
#
# Total GULP energy -156341.799475 kJ/mol
# GULP energy per Si atom -5583.635696 kJ/mol
# Density = 2.229903 g / cm^3
# Si number density = 22.349901 Si / 1000 Ang^3
#
#
#
# Elastic Constant Matrix: (Units=GPa)
#
#
# Indices 1 2 3 4 5 6 
#
# 1 30.3891 25.0157 3.0659 0.0000 -7.9290 0.0000
# 2 25.0157 100.5505 19.4566 0.0000 -2.3424 0.0000
# 3 3.0659 19.4566 63.2270 0.0000 -0.8614 0.0000
# 4 0.0000 0.0000 0.0000 40.2720 0.0000 -6.7574
# 5 -7.9290 -2.3424 -0.8614 0.0000 29.5638 0.0000
# 6 0.0000 0.0000 0.0000 -6.7574 0.0000 24.7149
#
#
#
# Elastic Compliance Matrix: (Units=1/GPa)
#
#
# Indices 1 2 3 4 5 6 
#
# 1 0.044888 -0.011181 0.001417 0.000000 0.011194 0.000000
# 2 -0.011181 0.013376 -0.003602 0.000000 -0.002044 0.000000
# 3 0.001417 -0.003602 0.016864 0.000000 0.000586 0.000000
# 4 0.000000 0.000000 0.000000 0.026025 0.000000 0.007116
# 5 0.011194 -0.002044 0.000586 0.000000 0.036683 0.000000
# 6 0.000000 0.000000 0.000000 0.007116 0.000000 0.042407
#
#
# Mechanical properties :
#
#
# Convention : Reuss Voigt Hill
#
# Bulk Modulus (GPa) = 20.66297 32.13810 26.40054
# Shear Modulus (GPa) = 22.41069 28.68536 25.54802
#
# Velocity S-wave (km/s) = 3.17001 3.58644 3.38463
# Velocity P-wave (km/s) = 4.76066 5.61790 5.20695
#
# Compressibility (1/GPa) = 0.04839574
#
# Stress axis : x y z
#
# Youngs Moduli (GPa) = 22.27745 74.75897 59.29883
#
# Poissons Ratio (x) = 0.83588 -0.08400
# Poissons Ratio (y) = 0.24908 0.21359
# Poissons Ratio (z) = -0.03156 0.26928
#
# Static dielectric constant tensor:
#      x y z
#    x 1.826810 0.000000 0.005420 
#    y 0.000000 1.818460 0.000000 
#    z 0.005420 0.000000 1.882780 
# 
# From -- ./inp_files/191060.got.cif
#   From: 2010.05.17/outbox.cif.g08.bks.cpg/sg15_96_cif.got.tgz:191060.got - 2010.06.03 18:47:42.
