data_PCOD9301597
_publ_section_title
;
Structure prediction by ZEFSAII (Michael W. Deem and Ramdas Pophale) SiO2 
 PCOD9301597
Probable space group: C 2/C
;
_chemical_formula_sum "Si O2"
_cell_formula_units_Z 40
_cell_length_a 21.349613
_cell_length_b 10.752031
_cell_length_c 24.038366
_cell_angle_alpha 90.000000
_cell_angle_beta 20.117042
_cell_angle_gamma 90.000000
_cell_volume 1897.871857
_symmetry_space_group_name_H-M "C 2/C"
_symmetry_group_IT_number 15
_symmetry_cell_setting 'monoclinic'
loop_
_space_group_symop_operation_xyz
x,y,z
-x,y,1/2-z
-x,-y,-z
x,-y,1/2+z
1/2+x,1/2+y,z
1/2-x,1/2+y,1/2-z
1/2-x,1/2-y,-z
1/2+x,1/2-y,1/2+z
loop_
_atom_site_type_symbol
_atom_site_label
_atom_site_fract_x
_atom_site_fract_y
_atom_site_fract_z
Si Si1 0.380328 0.926177 0.053612
Si Si2 0.216086 0.694155 0.254776
Si Si3 0.835585 0.920583 0.854429
Si Si4 0.911811 0.169155 0.526252
Si Si5 0.470513 0.824449 0.180678
O O1 0.278006 0.809767 0.166137
O O2 0.238277 0.007610 0.137976
O O3 0.540123 0.876986 0.879770
O O4 0.500000 0.000000 0.000000
O O5 0.150058 0.752795 0.368371
O O6 0.394504 0.609262 0.118330
O O7 0.922800 0.791510 0.759635
O O8 0.000000 0.985274 0.750000
O O9 0.654999 0.895895 0.042316
O O10 0.723848 0.105327 0.663781
O O11 0.971047 0.263549 0.427541
#
# Coordination Sequence:
#
# PCOD9301597 Si02
#       5
#     8   8   8   8   8
#     4  11  21  37  59  82 110 146 183 222 271 325
#     4   9  18  32  52  84 114 139 180 226 264 311
#     4  11  22  37  56  80 110 148 182 222 279 329
#     4   8  13  28  51  76 106 136 163 210 274 314
#     4   9  17  32  55  82 111 137 175 226 277 331
#
# _framework density 21.076238
#
# number of rings (size 3 to 8) (size 9 to 14) (size 15 to 20)
#    0.000    2.400    0.000    7.800    0.000    0.000 
#    0.000   23.000    0.000    0.000    0.000    0.000 
#    0.000    0.000    0.000    0.000    0.000    0.000 
#
# Total GULP energy -111398.525378 kJ/mol
# GULP energy per Si atom -5569.926269 kJ/mol
# Density = 2.102827 g / cm^3
# Si number density = 21.076238 Si / 1000 Ang^3
#
#
#
# Elastic Constant Matrix: (Units=GPa)
#
#
# Indices 1 2 3 4 5 6 
#
# 1 86.6358 27.9126 45.5082 0.0017 -32.1588 -0.0010
# 2 27.9126 46.6621 21.4909 -0.0103 -9.1824 0.0039
# 3 45.5082 21.4909 150.4482 -0.0041 -28.8883 0.0043
# 4 0.0017 -0.0103 -0.0041 21.7331 0.0019 12.1290
# 5 -32.1588 -9.1824 -28.8883 0.0019 38.5960 -0.0013
# 6 -0.0010 0.0039 0.0043 12.1290 -0.0013 7.3601
#
#
#
# Elastic Compliance Matrix: (Units=1/GPa)
#
#
# Indices 1 2 3 4 5 6 
#
# 1 0.020471 -0.008524 -0.002439 -0.000167 0.013203 0.000286
# 2 -0.008524 0.026904 -0.001634 0.000269 -0.001925 -0.000458
# 3 -0.002439 -0.001634 0.008354 0.000034 0.003831 -0.000059
# 4 -0.000167 0.000269 0.000034 0.573047 -0.000110 -0.944354
# 5 0.013203 -0.001925 0.003831 -0.000110 0.039320 0.000189
# 6 0.000286 -0.000458 -0.000059 -0.944354 0.000189 1.692118
#
#
# Mechanical properties :
#
#
# Convention : Reuss Voigt Hill
#
# Bulk Modulus (GPa) = 32.75116 52.61883 42.68500
# Shear Modulus (GPa) = 2.08717 26.12679 14.10698
#
# Velocity S-wave (km/s) = 0.99622 3.52466 2.58995
# Velocity P-wave (km/s) = 4.11052 6.44860 5.40744
#
# Compressibility (1/GPa) = 0.03053327
#
# Stress axis : x y z
#
# Youngs Moduli (GPa) = 48.84920 37.16981 119.70593
#
# Poissons Ratio (x) = 0.31683 0.29201
# Poissons Ratio (y) = 0.41639 0.19564
# Poissons Ratio (z) = 0.11916 0.06075
#
# Static dielectric constant tensor:
#      x y z
#    x 1.835660 0.000000 -0.063580 
#    y 0.000000 1.819610 0.000000 
#    z -0.063580 0.000000 1.865010 
# 
# From -- ./inp_files/60286.got.cif
#   From: 2010.05.17/outbox.cif.g08.bks.cpg/sg15_31_cif.got.tgz:60286.got - 2010.06.03 18:47:42.
