data_PCOD9301230
_publ_section_title
;
Structure prediction by ZEFSAII (Michael W. Deem and Ramdas Pophale) SiO2 
 PCOD9301230
Probable space group: C 2/C
;
_chemical_formula_sum "Si O2"
_cell_formula_units_Z 56
_cell_length_a 17.583216
_cell_length_b 11.814924
_cell_length_c 12.646850
_cell_angle_alpha 90.000000
_cell_angle_beta 97.776322
_cell_angle_gamma 90.000000
_cell_volume 2603.150593
_symmetry_space_group_name_H-M "C 2/C"
_symmetry_group_IT_number 15
_symmetry_cell_setting 'monoclinic'
loop_
_space_group_symop_operation_xyz
x,y,z
-x,y,1/2-z
-x,-y,-z
x,-y,1/2+z
1/2+x,1/2+y,z
1/2-x,1/2+y,1/2-z
1/2-x,1/2-y,-z
1/2+x,1/2-y,1/2+z
loop_
_atom_site_type_symbol
_atom_site_label
_atom_site_fract_x
_atom_site_fract_y
_atom_site_fract_z
Si Si1 0.695274 0.955058 0.882195
Si Si2 0.192484 0.099598 0.920897
Si Si3 0.915341 0.512036 0.444813
Si Si4 0.178847 0.839748 0.869402
Si Si5 0.590695 0.251969 0.285565
Si Si6 0.353287 0.250849 0.413152
Si Si7 0.824714 0.350367 0.286740
O O1 0.643736 0.859563 0.815368
O O2 0.706550 0.062175 0.808333
O O3 0.773310 0.914120 0.954384
O O4 0.643947 0.996275 0.970644
O O5 0.114986 0.170857 0.890608
O O6 0.259576 0.160501 0.864414
O O7 0.181857 0.974714 0.869143
O O8 0.905366 0.640482 0.408630
O O9 0.893698 0.419542 0.353633
O O10 0.000000 0.500000 0.500000
O O11 0.266653 0.795514 0.892601
O O12 0.150511 0.766029 0.764590
O O13 0.137385 0.806415 0.971175
O O14 0.500000 0.234200 0.250000
O O15 0.624422 0.317052 0.188430
#
# Coordination Sequence:
#
# PCOD9301230 Si02
#       7
#     8   8   8   8   8   8   8
#     4  11  21  39  63  94 120 160 216 269 313 370
#     4  11  24  40  64  96 127 167 219 261 316 390
#     4  11  22  37  58  96 130 159 207 261 333 379
#     4  11  20  41  67  95 121 160 221 266 308 380
#     4  12  25  42  63  91 135 175 206 261 328 387
#     4  11  20  39  66  90 121 166 210 262 321 374
#     4  11  21  38  67  94 121 163 208 270 321 368
#
# _framework density 21.512394
#
# number of rings (size 3 to 8) (size 9 to 14) (size 15 to 20)
#    0.000    0.857    7.143    2.143    0.000    0.000 
#    0.000    2.143    0.000    0.000    0.000    0.000 
#    0.000    0.000    0.000    0.000    0.000    0.000 
#
# Total GULP energy -156341.872152 kJ/mol
# GULP energy per Si atom -5583.638291 kJ/mol
# Density = 2.146343 g / cm^3
# Si number density = 21.512394 Si / 1000 Ang^3
#
#
#
# Elastic Constant Matrix: (Units=GPa)
#
#
# Indices 1 2 3 4 5 6 
#
# 1 60.2562 18.3078 26.3360 0.0000 23.2870 0.0000
# 2 18.3078 93.9050 19.1170 0.0000 14.8030 0.0000
# 3 26.3360 19.1170 92.4801 0.0000 9.7608 0.0000
# 4 0.0000 0.0000 0.0000 29.2963 0.0000 -4.7739
# 5 23.2870 14.8030 9.7608 0.0000 39.4267 0.0000
# 6 0.0000 0.0000 0.0000 -4.7739 0.0000 14.7845
#
#
#
# Elastic Compliance Matrix: (Units=1/GPa)
#
#
# Indices 1 2 3 4 5 6 
#
# 1 0.024167 -0.001702 -0.005228 0.000000 -0.012341 0.000000
# 2 -0.001702 0.011789 -0.001634 0.000000 -0.003016 0.000000
# 3 -0.005228 -0.001634 0.012578 0.000000 0.000587 0.000000
# 4 0.000000 0.000000 0.000000 0.036030 0.000000 0.011634
# 5 -0.012341 -0.003016 0.000587 0.000000 0.033640 0.000000
# 6 0.000000 0.000000 0.000000 0.011634 0.000000 0.071395
#
#
# Mechanical properties :
#
#
# Convention : Reuss Voigt Hill
#
# Bulk Modulus (GPa) = 31.84073 41.57367 36.70720
# Shear Modulus (GPa) = 23.02082 28.89351 25.95717
#
# Velocity S-wave (km/s) = 3.27482 3.66882 3.47740
# Velocity P-wave (km/s) = 5.39745 6.10855 5.76398
#
# Compressibility (1/GPa) = 0.03140632
#
# Stress axis : x y z
#
# Youngs Moduli (GPa) = 41.37850 84.82468 79.50610
#
# Poissons Ratio (x) = 0.14437 0.41565
# Poissons Ratio (y) = 0.07043 0.12991
# Poissons Ratio (z) = 0.21632 0.13860
#
# Static dielectric constant tensor:
#      x y z
#    x 1.742960 0.000000 -0.005930 
#    y 0.000000 1.862970 0.000000 
#    z -0.005930 0.000000 1.886520 
# 
# From -- ./inp_files/111679.got.cif
#   From: 2010.05.17/outbox.cif.g08.bks.cpg/sg15_56_cif.got.tgz:111679.got - 2010.06.03 18:47:42.
