data_PCOD9301833
_publ_section_title
;
Structure prediction by ZEFSAII (Michael W. Deem and Ramdas Pophale) SiO2 
 PCOD9301833
Probable space group: C 2/C
;
_chemical_formula_sum "Si O2"
_cell_formula_units_Z 32
_cell_length_a 20.872310
_cell_length_b 7.131306
_cell_length_c 8.936173
_cell_angle_alpha 90.000000
_cell_angle_beta 83.639951
_cell_angle_gamma 90.000000
_cell_volume 1321.934659
_symmetry_space_group_name_H-M "C 2/C"
_symmetry_group_IT_number 15
_symmetry_cell_setting 'monoclinic'
loop_
_space_group_symop_operation_xyz
x,y,z
-x,y,1/2-z
-x,-y,-z
x,-y,1/2+z
1/2+x,1/2+y,z
1/2-x,1/2+y,1/2-z
1/2-x,1/2-y,-z
1/2+x,1/2-y,1/2+z
loop_
_atom_site_type_symbol
_atom_site_label
_atom_site_fract_x
_atom_site_fract_y
_atom_site_fract_z
Si Si1 0.116462 0.275015 0.620619
Si Si2 0.453012 0.925584 0.141650
Si Si3 0.816983 0.917333 0.891903
Si Si4 0.773142 0.471880 0.331148
O O1 0.094606 0.310878 0.455116
O O2 0.078373 0.400319 0.755127
O O3 0.189168 0.350312 0.617609
O O4 0.123146 0.053482 0.649325
O O5 0.500000 0.825066 0.250000
O O6 0.500000 0.000000 0.000000
O O7 0.821531 0.702012 0.842076
O O8 0.751313 0.983244 0.826523
O O9 0.793935 0.927136 0.068491
#
# Coordination Sequence:
#
# PCOD9301833 Si02
#       4
#     8   8   8   8
#     4  11  21  39  67  91 125 177 205 258 328 376
#     4   9  21  41  66  91 119 163 225 278 321 363
#     4  11  24  37  60  92 140 168 206 246 310 390
#     4  11  23  39  58  99 136 167 206 252 305 403
#
# _framework density 24.206942999999999
#
# number of rings (size 3 to 8) (size 9 to 14) (size 15 to 20)
#    0.000    1.500    2.500    2.250    7.000    0.000 
#    0.000    0.000    0.000   30.000    0.000    0.000 
#    0.000    0.000    0.000    0.000    0.000    0.000 
#
# Total GULP energy -89258.025942 kJ/mol
# GULP energy per Si atom -5578.626621 kJ/mol
# Density = 2.415185 g / cm^3
# Si number density = 24.206943 Si / 1000 Ang^3
#
#
#
# Elastic Constant Matrix: (Units=GPa)
#
#
# Indices 1 2 3 4 5 6 
#
# 1 52.2012 17.4837 28.1712 0.0000 15.7214 0.0000
# 2 17.4837 95.0264 3.9265 0.0000 18.1921 0.0000
# 3 28.1712 3.9265 124.0387 0.0000 14.6309 0.0000
# 4 0.0000 0.0000 0.0000 21.0464 0.0000 -3.9832
# 5 15.7214 18.1921 14.6309 0.0000 53.3842 0.0000
# 6 0.0000 0.0000 0.0000 -3.9832 0.0000 11.5500
#
#
#
# Elastic Compliance Matrix: (Units=1/GPa)
#
#
# Indices 1 2 3 4 5 6 
#
# 1 0.024323 -0.003378 -0.004865 0.000000 -0.004678 0.000000
# 2 -0.003378 0.011728 0.000775 0.000000 -0.003214 0.000000
# 3 -0.004865 0.000775 0.009305 0.000000 -0.001382 0.000000
# 4 0.000000 0.000000 0.000000 0.050832 0.000000 0.017530
# 5 -0.004678 -0.003214 -0.001382 0.000000 0.021584 0.000000
# 6 0.000000 0.000000 0.000000 0.017530 0.000000 0.092626
#
#
# Mechanical properties :
#
#
# Convention : Reuss Voigt Hill
#
# Bulk Modulus (GPa) = 32.87386 41.15878 37.01632
# Shear Modulus (GPa) = 21.23369 31.97511 26.60440
#
# Velocity S-wave (km/s) = 2.96492 3.63837 3.31877
# Velocity P-wave (km/s) = 5.03298 5.88983 5.47818
#
# Compressibility (1/GPa) = 0.03041931
#
# Stress axis : x y z
#
# Youngs Moduli (GPa) = 41.11370 85.26384 107.46414
#
# Poissons Ratio (x) = 0.28806 0.52285
# Poissons Ratio (y) = 0.13890 -0.08330
# Poissons Ratio (z) = 0.20003 -0.06609
#
# Static dielectric constant tensor:
#      x y z
#    x 1.933260 0.000000 0.060540 
#    y 0.000000 1.931850 0.000000 
#    z 0.060540 0.000000 1.716200 
# 
# From -- ./inp_files/59636.got.cif
#   From: 2010.05.17/outbox.cif.g08.bks.cpg/sg15_30_cif.got.tgz:59636.got - 2010.06.03 18:47:42.
