data_PCOD9301222
_publ_section_title
;
Structure prediction by ZEFSAII (Michael W. Deem and Ramdas Pophale) SiO2 
 PCOD9301222
Probable space group: C 2/C
;
_chemical_formula_sum "Si O2"
_cell_formula_units_Z 60
_cell_length_a 12.053053
_cell_length_b 13.360742
_cell_length_c 15.529837
_cell_angle_alpha 90.000000
_cell_angle_beta 76.138598
_cell_angle_gamma 90.000000
_cell_volume 2428.059044
_symmetry_space_group_name_H-M "C 2/C"
_symmetry_group_IT_number 15
_symmetry_cell_setting 'monoclinic'
loop_
_space_group_symop_operation_xyz
x,y,z
-x,y,1/2-z
-x,-y,-z
x,-y,1/2+z
1/2+x,1/2+y,z
1/2-x,1/2+y,1/2-z
1/2-x,1/2-y,-z
1/2+x,1/2-y,1/2+z
loop_
_atom_site_type_symbol
_atom_site_label
_atom_site_fract_x
_atom_site_fract_y
_atom_site_fract_z
Si Si1 0.748232 0.363197 0.302976
Si Si2 0.414351 0.447786 0.850710
Si Si3 0.317802 0.135425 0.178994
Si Si4 0.561643 0.143801 0.061283
Si Si5 0.456547 0.287296 0.586879
Si Si6 0.500000 0.825734 0.250000
Si Si7 0.251001 0.565673 0.120568
Si Si8 0.606173 0.663863 0.665571
O O1 0.705260 0.253119 0.338209
O O2 0.883161 0.380276 0.296474
O O3 0.695947 0.459296 0.360583
O O4 0.712917 0.359484 0.208598
O O5 0.500000 0.442795 0.750000
O O6 0.288403 0.421670 0.842007
O O7 0.444343 0.369143 0.919580
O O8 0.418654 0.561885 0.879875
O O9 0.442527 0.107583 0.122749
O O10 0.310949 0.108651 0.281371
O O11 0.661305 0.063884 0.058799
O O12 0.608475 0.241615 0.103989
O O13 0.534313 0.190740 0.974285
O O14 0.452102 0.243766 0.683596
O O15 0.347522 0.353033 0.584359
O O16 0.500000 0.681805 0.750000
#
# Coordination Sequence:
#
# PCOD9301222 Si02
#       8
#     8   8   8   8   8   4   8   8
#     4  12  23  39  73  96 125 175 228 263 316 397
#     4  11  20  40  70  93 123 176 229 264 318 400
#     4  12  22  43  65 100 130 172 222 270 319 394
#     4  12  27  39  66 102 141 163 215 282 335 371
#     4  12  23  46  69  93 133 180 217 269 332 397
#     4  12  24  46  70  88 126 184 230 258 326 400
#     4  12  23  44  68  98 131 176 219 266 327 395
#     4  11  20  39  64  98 129 167 218 270 326 388
#
# _framework density 24.711096999999999
#
# number of rings (size 3 to 8) (size 9 to 14) (size 15 to 20)
#    0.000    0.267    8.667    1.600    1.867    1.067 
#    0.000    0.667    0.000    0.000    0.000    0.000 
#    0.000    0.000    0.000    0.000    0.000    0.000 
#
# Total GULP energy -167811.878492 kJ/mol
# GULP energy per Si atom -5593.729283 kJ/mol
# Density = 2.465485 g / cm^3
# Si number density = 24.711097 Si / 1000 Ang^3
#
#
#
# Elastic Constant Matrix: (Units=GPa)
#
#
# Indices 1 2 3 4 5 6 
#
# 1 143.5217 -5.7666 3.5084 0.0000 12.6235 0.0000
# 2 -5.7666 72.5251 4.6593 0.0000 3.7633 0.0000
# 3 3.5084 4.6593 39.4221 0.0000 9.2736 0.0000
# 4 0.0000 0.0000 0.0000 12.0123 0.0000 -18.5698
# 5 12.6235 3.7633 9.2736 0.0000 15.7008 0.0000
# 6 0.0000 0.0000 0.0000 -18.5698 0.0000 -28.2480
#
#
#
# Elastic Compliance Matrix: (Units=1/GPa)
#
#
# Indices 1 2 3 4 5 6 
#
# 1 0.007582 0.000903 0.000817 0.000000 -0.006794 0.000000
# 2 0.000903 0.014104 -0.000907 0.000000 -0.003571 0.000000
# 3 0.000817 -0.000907 0.029620 0.000000 -0.017934 0.000000
# 4 0.000000 0.000000 0.000000 0.041288 0.000000 -0.027142
# 5 -0.006794 -0.003571 -0.017934 0.000000 0.080602 0.000000
# 6 0.000000 0.000000 0.000000 -0.027142 0.000000 -0.017558
#
#
# Mechanical properties :
#
#
# Convention : Reuss Voigt Hill
#
# Bulk Modulus (GPa) = 18.89289 28.91900 23.90595
# Shear Modulus (GPa) = 29.12793 16.76421 22.94607
#
# Velocity S-wave (km/s) = 3.43700 2.60745 3.05056
# Velocity P-wave (km/s) = 4.83867 4.55997 4.70139
#
# Compressibility (1/GPa) = 0.05292995
#
# Stress axis : x y z
#
# Youngs Moduli (GPa) = 131.89985 70.90341 33.76115
#
# Poissons Ratio (x) = -0.06402 -0.02758
# Poissons Ratio (y) = -0.11909 0.03063
# Poissons Ratio (z) = -0.10775 0.06433
#
# Static dielectric constant tensor:
#      x y z
#    x 2.061610 0.000000 -0.015010 
#    y 0.000000 2.010110 0.000000 
#    z -0.015010 0.000000 1.996370 
# 
# From -- ./inp_files/197815.got.cif
#   From: 2010.05.17/outbox.cif.g08.bks.cpg/sg15_99_cif.got.tgz:197815.got - 2010.06.03 18:47:42.
