data_PCOD9301885
_publ_section_title
;
Structure prediction by ZEFSAII (Michael W. Deem and Ramdas Pophale) SiO2 
 PCOD9301885
Probable space group: C 2/C
;
_chemical_formula_sum "Si O2"
_cell_formula_units_Z 56
_cell_length_a 27.605344
_cell_length_b 14.274271
_cell_length_c 11.859555
_cell_angle_alpha 90.000000
_cell_angle_beta 33.332101
_cell_angle_gamma 90.000000
_cell_volume 2567.888040
_symmetry_space_group_name_H-M "C 2/C"
_symmetry_group_IT_number 15
_symmetry_cell_setting 'monoclinic'
loop_
_space_group_symop_operation_xyz
x,y,z
-x,y,1/2-z
-x,-y,-z
x,-y,1/2+z
1/2+x,1/2+y,z
1/2-x,1/2+y,1/2-z
1/2-x,1/2-y,-z
1/2+x,1/2-y,1/2+z
loop_
_atom_site_type_symbol
_atom_site_label
_atom_site_fract_x
_atom_site_fract_y
_atom_site_fract_z
Si Si1 0.101396 0.793850 0.529562
Si Si2 0.175009 0.876539 0.620527
Si Si3 0.825947 0.556174 0.574747
Si Si4 0.329615 0.580608 0.797735
Si Si5 0.808968 0.626928 0.260463
Si Si6 0.643731 0.193858 0.807511
Si Si7 0.037377 0.590021 0.367127
O O1 0.137817 0.844672 0.571036
O O2 0.107268 0.859230 0.405860
O O3 0.164133 0.705518 0.381312
O O4 0.000000 0.766109 0.750000
O O5 0.282052 0.861843 0.410693
O O6 0.146489 0.801507 0.769461
O O7 0.140899 0.980346 0.711917
O O8 0.748967 0.551321 0.634354
O O9 0.813390 0.474550 0.690960
O O10 0.827121 0.659510 0.626544
O O11 0.918193 0.551723 0.332326
O O12 0.282972 0.635199 0.992528
O O13 0.885446 0.632030 0.205944
O O14 0.544624 0.158501 0.986208
O O15 0.000000 0.500000 0.500000
#
# Coordination Sequence:
#
# PCOD9301885 Si02
#       7
#     8   8   8   8   8   8   8
#     4  12  27  44  68  97 126 173 229 273 333 388
#     4  11  25  44  66  91 130 176 226 264 329 394
#     4  11  22  38  67 100 136 171 214 260 338 397
#     4  11  23  47  65  95 131 176 222 274 321 393
#     4  11  24  39  66  99 133 171 212 273 330 398
#     4  11  21  40  62  98 131 173 213 265 319 408
#     4  11  22  36  60 100 142 168 202 269 338 392
#
# _framework density 21.807804000000001
#
# number of rings (size 3 to 8) (size 9 to 14) (size 15 to 20)
#    0.000    0.857    4.286    2.571    8.000    0.571 
#    0.000    1.429    0.000    0.000    0.000    0.000 
#    0.000    0.000    0.000    0.000    0.000    0.000 
#
# Total GULP energy -156423.998100 kJ/mol
# GULP energy per Si atom -5586.571361 kJ/mol
# Density = 2.175817 g / cm^3
# Si number density = 21.807804 Si / 1000 Ang^3
#
#
#
# Elastic Constant Matrix: (Units=GPa)
#
#
# Indices 1 2 3 4 5 6 
#
# 1 60.9498 10.8102 12.2979 0.0000 14.5906 0.0000
# 2 10.8102 104.8436 31.8574 0.0000 23.8887 0.0000
# 3 12.2979 31.8574 82.0117 0.0000 19.9275 0.0000
# 4 0.0000 0.0000 0.0000 36.9488 0.0000 17.6357
# 5 14.5906 23.8887 19.9275 0.0000 26.9111 0.0000
# 6 0.0000 0.0000 0.0000 17.6357 0.0000 32.9974
#
#
#
# Elastic Compliance Matrix: (Units=1/GPa)
#
#
# Indices 1 2 3 4 5 6 
#
# 1 0.018893 0.000575 -0.000541 0.000000 -0.010353 0.000000
# 2 0.000575 0.012416 -0.002628 0.000000 -0.009387 0.000000
# 3 -0.000541 -0.002628 0.015434 0.000000 -0.008803 0.000000
# 4 0.000000 0.000000 0.000000 0.036333 0.000000 -0.019418
# 5 -0.010353 -0.009387 -0.008803 0.000000 0.057624 0.000000
# 6 0.000000 0.000000 0.000000 -0.019418 0.000000 0.040684
#
#
# Mechanical properties :
#
#
# Convention : Reuss Voigt Hill
#
# Bulk Modulus (GPa) = 24.06417 39.74847 31.90632
# Shear Modulus (GPa) = 24.94720 32.22743 28.58731
#
# Velocity S-wave (km/s) = 3.38591 3.84838 3.62453
# Velocity P-wave (km/s) = 5.13269 6.16547 5.67263
#
# Compressibility (1/GPa) = 0.04155557
#
# Stress axis : x y z
#
# Youngs Moduli (GPa) = 52.93105 80.53946 64.79043
#
# Poissons Ratio (x) = -0.04634 0.03504
# Poissons Ratio (y) = -0.03046 0.17029
# Poissons Ratio (z) = 0.02862 0.21169
#
# Static dielectric constant tensor:
#      x y z
#    x 1.852390 0.000000 -0.070620 
#    y 0.000000 1.798360 0.000000 
#    z -0.070620 0.000000 2.062860 
# 
# From -- ./inp_files/97055.got.cif
#   From: 2010.05.17/outbox.cif.g08.bks.cpg/sg15_49_cif.got.tgz:97055.got - 2010.06.03 18:47:42.
