data_PCOD9301470
_publ_section_title
;
Structure prediction by ZEFSAII (Michael W. Deem and Ramdas Pophale) SiO2 
 PCOD9301470
Probable space group: C 2/C
;
_chemical_formula_sum "Si O2"
_cell_formula_units_Z 32
_cell_length_a 15.261822
_cell_length_b 17.800725
_cell_length_c 5.435105
_cell_angle_alpha 90.000000
_cell_angle_beta 119.401765
_cell_angle_gamma 90.000000
_cell_volume 1286.379843
_symmetry_space_group_name_H-M "C 2/C"
_symmetry_group_IT_number 15
_symmetry_cell_setting 'monoclinic'
loop_
_space_group_symop_operation_xyz
x,y,z
-x,y,1/2-z
-x,-y,-z
x,-y,1/2+z
1/2+x,1/2+y,z
1/2-x,1/2+y,1/2-z
1/2-x,1/2-y,-z
1/2+x,1/2-y,1/2+z
loop_
_atom_site_type_symbol
_atom_site_label
_atom_site_fract_x
_atom_site_fract_y
_atom_site_fract_z
Si Si1 0.803378 0.960543 0.041157
Si Si2 0.862190 0.798943 0.941364
Si Si3 0.069015 0.573560 0.140407
Si Si4 0.624946 0.775396 0.538567
O O1 0.856017 0.885897 0.009983
O O2 0.681104 0.950726 0.877120
O O3 0.828309 0.020691 0.859513
O O4 0.745617 0.776160 0.737781
O O5 0.905547 0.772595 0.740187
O O6 0.904365 0.758351 0.239438
O O7 0.094201 0.636974 0.973511
O O8 0.000000 0.612782 0.250000
O O9 0.000000 0.500000 0.000000
#
# Coordination Sequence:
#
# PCOD9301470 Si02
#       4
#     8   8   8   8
#     4  11  21  34  55  82 114 148 188 242 284 341
#     4   9  18  35  52  73 100 143 197 237 280 320
#     4  11  22  35  52  81 120 157 192 223 280 357
#     4   9  19  34  53  70 102 150 192 235 270 332
#
# _framework density 24.876014000000001
#
# number of rings (size 3 to 8) (size 9 to 14) (size 15 to 20)
#    0.000    2.000    2.500    1.500    0.000    8.000 
#    0.000    0.000    0.000    0.000    0.000    0.000 
#    0.000   20.000    0.000    0.000    0.000    0.000 
#
# Total GULP energy -89301.942951 kJ/mol
# GULP energy per Si atom -5581.371434 kJ/mol
# Density = 2.481940 g / cm^3
# Si number density = 24.876014 Si / 1000 Ang^3
#
#
#
# Elastic Constant Matrix: (Units=GPa)
#
#
# Indices 1 2 3 4 5 6 
#
# 1 111.4181 51.0755 50.2850 0.0000 -32.7553 0.0000
# 2 51.0755 116.7641 34.5922 0.0000 -15.2572 0.0000
# 3 50.2850 34.5922 123.1196 0.0000 -13.0989 0.0000
# 4 0.0000 0.0000 0.0000 17.4245 0.0000 -19.5745
# 5 -32.7553 -15.2572 -13.0989 0.0000 45.4114 0.0000
# 6 0.0000 0.0000 0.0000 -19.5745 0.0000 26.4599
#
#
#
# Elastic Compliance Matrix: (Units=1/GPa)
#
#
# Indices 1 2 3 4 5 6 
#
# 1 0.015311 -0.004378 -0.004131 0.000000 0.008381 0.000000
# 2 -0.004378 0.010867 -0.001251 0.000000 0.000132 0.000000
# 3 -0.004131 -0.001251 0.010110 0.000000 -0.000484 0.000000
# 4 0.000000 0.000000 0.000000 0.339713 0.000000 0.251313
# 5 0.008381 0.000132 -0.000484 0.000000 0.027971 0.000000
# 6 0.000000 0.000000 0.000000 0.251313 0.000000 0.223709
#
#
# Mechanical properties :
#
#
# Convention : Reuss Voigt Hill
#
# Bulk Modulus (GPa) = 59.64423 69.24524 64.44474
# Shear Modulus (GPa) = 7.65942 32.21577 19.93760
#
# Velocity S-wave (km/s) = 1.75662 3.60259 2.83411
# Velocity P-wave (km/s) = 5.30499 6.72320 6.05576
#
# Compressibility (1/GPa) = 0.01676608
#
# Stress axis : x y z
#
# Youngs Moduli (GPa) = 65.31384 92.01888 98.91624
#
# Poissons Ratio (x) = 0.40288 0.40867
# Poissons Ratio (y) = 0.28596 0.12375
# Poissons Ratio (z) = 0.26984 0.11513
#
# Static dielectric constant tensor:
#      x y z
#    x 2.105800 0.000000 -0.092470 
#    y 0.000000 2.000080 0.000000 
#    z -0.092470 0.000000 2.103950 
# 
# From -- ./inp_files/6556.got.cif
#   From: 2010.05.17/outbox.cif.g08.bks.cpg/sg15_4_cif.got.tgz:6556.got - 2010.06.03 18:47:42.
