data_PCOD9301430
_publ_section_title
;
Structure prediction by ZEFSAII (Michael W. Deem and Ramdas Pophale) SiO2 
 PCOD9301430
Probable space group: C 2/C
;
_chemical_formula_sum "Si O2"
_cell_formula_units_Z 56
_cell_length_a 19.801342
_cell_length_b 10.732489
_cell_length_c 11.736199
_cell_angle_alpha 90.000000
_cell_angle_beta 87.622724
_cell_angle_gamma 90.000000
_cell_volume 2492.003279
_symmetry_space_group_name_H-M "C 2/C"
_symmetry_group_IT_number 15
_symmetry_cell_setting 'monoclinic'
loop_
_space_group_symop_operation_xyz
x,y,z
-x,y,1/2-z
-x,-y,-z
x,-y,1/2+z
1/2+x,1/2+y,z
1/2-x,1/2+y,1/2-z
1/2-x,1/2-y,-z
1/2+x,1/2-y,1/2+z
loop_
_atom_site_type_symbol
_atom_site_label
_atom_site_fract_x
_atom_site_fract_y
_atom_site_fract_z
Si Si1 0.995885 0.066077 0.876726
Si Si2 0.657863 0.017338 0.917158
Si Si3 0.311769 0.184465 0.371378
Si Si4 0.138217 0.908645 0.003558
Si Si5 0.338121 0.723843 0.205626
Si Si6 0.933589 0.676278 0.182904
Si Si7 0.211562 0.138993 0.064845
O O1 0.000000 0.006272 0.750000
O O2 0.042491 0.190061 0.868900
O O3 0.917793 0.101100 0.895817
O O4 0.000000 0.000000 0.000000
O O5 0.651880 0.132967 0.829889
O O6 0.594666 0.924016 0.905969
O O7 0.727933 0.945633 0.889698
O O8 0.666476 0.075458 0.042743
O O9 0.309865 0.309327 0.448164
O O10 0.237771 0.179035 0.322429
O O11 0.369034 0.189381 0.270640
O O12 0.115564 0.857489 0.882384
O O13 0.169330 0.044603 0.989703
O O14 0.339768 0.693319 0.337918
O O15 0.000000 0.633533 0.250000
O O16 0.250000 0.250000 0.000000
#
# Coordination Sequence:
#
# PCOD9301430 Si02
#       7
#     8   8   8   8   8   8   8
#     4  11  26  47  74 102 141 196 250 303 371 441
#     4  11  24  42  68 102 141 184 238 296 358 445
#     4  11  20  44  73  97 136 188 233 286 374 441
#     4  11  23  45  69  96 139 183 239 293 366 443
#     4  11  24  42  72 103 139 185 228 300 383 434
#     4  11  24  45  71 100 140 197 242 295 365 440
#     4  12  27  38  69 111 141 177 235 302 373 438
#
# _framework density 22.471881
#
# number of rings (size 3 to 8) (size 9 to 14) (size 15 to 20)
#    0.000    0.857    7.143    0.857    8.000    0.571 
#    0.000    0.000    0.000    0.000    0.000    0.000 
#    0.000    0.000    0.000    0.000    0.000    0.000 
#
# Total GULP energy -156192.643164 kJ/mol
# GULP energy per Si atom -5578.308684 kJ/mol
# Density = 2.242073 g / cm^3
# Si number density = 22.471881 Si / 1000 Ang^3
#
#
#
# Elastic Constant Matrix: (Units=GPa)
#
#
# Indices 1 2 3 4 5 6 
#
# 1 68.7569 11.5954 8.4294 0.0000 -7.9670 0.0000
# 2 11.5954 110.2176 58.8081 0.0000 2.7147 0.0000
# 3 8.4294 58.8081 104.0518 0.0000 -26.1086 0.0000
# 4 0.0000 0.0000 0.0000 32.5205 0.0000 -5.7732
# 5 -7.9670 2.7147 -26.1086 0.0000 47.2250 0.0000
# 6 0.0000 0.0000 0.0000 -5.7732 0.0000 34.6529
#
#
#
# Elastic Compliance Matrix: (Units=1/GPa)
#
#
# Indices 1 2 3 4 5 6 
#
# 1 0.015157 -0.002039 0.000691 0.000000 0.003056 0.000000
# 2 -0.002039 0.014668 -0.009779 0.000000 -0.006594 0.000000
# 3 0.000691 -0.009779 0.017708 0.000000 0.010469 0.000000
# 4 0.000000 0.000000 0.000000 0.031687 0.000000 0.005279
# 5 0.003056 -0.006594 0.010469 0.000000 0.027858 0.000000
# 6 0.000000 0.000000 0.000000 0.005279 0.000000 0.029737
#
#
# Mechanical properties :
#
#
# Convention : Reuss Voigt Hill
#
# Bulk Modulus (GPa) = 39.55682 48.96577 44.26129
# Shear Modulus (GPa) = 29.85162 36.49257 33.17210
#
# Velocity S-wave (km/s) = 3.64867 4.03416 3.84625
# Velocity P-wave (km/s) = 5.94907 6.59821 6.28203
#
# Compressibility (1/GPa) = 0.02528009
#
# Stress axis : x y z
#
# Youngs Moduli (GPa) = 65.97512 68.17723 56.47016
#
# Poissons Ratio (x) = 0.13899 -0.03904
# Poissons Ratio (y) = 0.13450 0.55223
# Poissons Ratio (z) = -0.04561 0.66672
#
# Static dielectric constant tensor:
#      x y z
#    x 2.113070 0.000000 0.114830 
#    y 0.000000 1.953080 0.000000 
#    z 0.114830 0.000000 1.938020 
# 
# From -- ./inp_files/111013.got.cif
#   From: 2010.05.17/outbox.cif.g08.bks.cpg/sg15_56_cif.got.tgz:111013.got - 2010.06.03 18:47:42.
