data_PCOD9301114
_publ_section_title
;
Structure prediction by ZEFSAII (Michael W. Deem and Ramdas Pophale) SiO2 
 PCOD9301114
Probable space group: C 2/C
;
_chemical_formula_sum "Si O2"
_cell_formula_units_Z 64
_cell_length_a 25.848189
_cell_length_b 9.815453
_cell_length_c 22.242886
_cell_angle_alpha 90.000000
_cell_angle_beta 34.451922
_cell_angle_gamma 90.000000
_cell_volume 3192.485348
_symmetry_space_group_name_H-M "C 2/C"
_symmetry_group_IT_number 15
_symmetry_cell_setting 'monoclinic'
loop_
_space_group_symop_operation_xyz
x,y,z
-x,y,1/2-z
-x,-y,-z
x,-y,1/2+z
1/2+x,1/2+y,z
1/2-x,1/2+y,1/2-z
1/2-x,1/2-y,-z
1/2+x,1/2-y,1/2+z
loop_
_atom_site_type_symbol
_atom_site_label
_atom_site_fract_x
_atom_site_fract_y
_atom_site_fract_z
Si Si1 0.929876 0.642539 0.637725
Si Si2 0.123645 0.391525 0.887620
Si Si3 0.962897 0.791918 0.353777
Si Si4 0.223485 0.388721 0.994342
Si Si5 0.194909 0.899628 0.711919
Si Si6 0.259482 0.641641 0.044214
Si Si7 0.640034 0.700456 0.758724
Si Si8 0.528929 0.973668 0.153199
O O1 0.876860 0.543167 0.641854
O O2 0.879815 0.786891 0.696347
O O3 0.031474 0.640453 0.512398
O O4 0.949707 0.574915 0.684128
O O5 0.210584 0.363710 0.845713
O O6 0.122938 0.293631 0.831660
O O7 0.867252 0.867541 0.455386
O O8 0.947571 0.631532 0.382063
O O9 0.000000 0.803921 0.250000
O O10 0.045631 0.836035 0.316155
O O11 0.226103 0.503882 0.043937
O O12 0.123100 0.390568 0.060654
O O13 0.250000 0.250000 0.000000
O O14 0.292559 0.407410 0.872408
O O15 0.178605 0.056883 0.743515
O O16 0.202230 0.709188 0.153288
O O17 0.250000 0.750000 0.000000
O O18 0.500000 0.965745 0.250000
#
# Coordination Sequence:
#
# PCOD9301114 Si02
#       8
#     8   8   8   8   8   8   8   8
#     4  11  25  45  71  97 134 181 233 279 344 417
#     4  11  26  47  70  95 132 188 239 273 338 420
#     4  11  20  37  68  98 133 171 222 273 329 410
#     4  12  25  41  67 104 142 173 220 286 347 409
#     4  12  25  46  69 100 140 174 226 297 341 399
#     4  12  22  42  69 102 134 177 221 273 349 406
#     4  12  25  43  71 102 136 180 231 282 337 410
#     4  11  20  39  69  95 132 180 220 273 340 409
#
# _framework density 20.047077999999999
#
# number of rings (size 3 to 8) (size 9 to 14) (size 15 to 20)
#    0.000    0.500    6.250    2.250    1.750    2.500 
#    0.000    2.500    0.000    0.000    0.000    0.000 
#    0.000    0.000    0.000    0.000    0.000    0.000 
#
# Total GULP energy -178710.177657 kJ/mol
# GULP energy per Si atom -5584.693052 kJ/mol
# Density = 2.000145 g / cm^3
# Si number density = 20.047078 Si / 1000 Ang^3
#
#
#
# Elastic Constant Matrix: (Units=GPa)
#
#
# Indices 1 2 3 4 5 6 
#
# 1 91.7832 12.8162 31.5307 0.0000 -12.3560 0.0000
# 2 12.8162 82.9969 16.1008 0.0013 2.2644 -0.0016
# 3 31.5307 16.1008 58.2767 0.0001 -1.9765 -0.0003
# 4 0.0000 0.0013 0.0001 29.2930 -0.0002 -5.6152
# 5 -12.3560 2.2644 -1.9765 -0.0002 35.4838 0.0002
# 6 0.0000 -0.0016 -0.0003 -5.6152 0.0002 14.1998
#
#
#
# Elastic Compliance Matrix: (Units=1/GPa)
#
#
# Indices 1 2 3 4 5 6 
#
# 1 0.014123 -0.000902 -0.007237 0.000000 0.004572 0.000000
# 2 -0.000902 0.012825 -0.003100 0.000000 -0.001305 0.000001
# 3 -0.007237 -0.003100 0.021894 0.000000 -0.001103 0.000000
# 4 0.000000 0.000000 0.000000 0.036938 0.000000 0.014607
# 5 0.004572 -0.001305 -0.001103 0.000000 0.029796 0.000000
# 6 0.000000 0.000001 0.000000 0.014607 0.000000 0.076200
#
#
# Mechanical properties :
#
#
# Convention : Reuss Voigt Hill
#
# Bulk Modulus (GPa) = 37.92897 39.32801 38.62849
# Shear Modulus (GPa) = 22.41752 27.30260 24.86006
#
# Velocity S-wave (km/s) = 3.34764 3.69443 3.52530
# Velocity P-wave (km/s) = 5.82265 6.15295 5.99008
#
# Compressibility (1/GPa) = 0.02636507
#
# Stress axis : x y z
#
# Youngs Moduli (GPa) = 70.80749 77.97400 45.67446
#
# Poissons Ratio (x) = 0.07030 0.33055
# Poissons Ratio (y) = 0.06384 0.14158
# Poissons Ratio (z) = 0.51243 0.24169
#
# Static dielectric constant tensor:
#      x y z
#    x 1.646290 0.000010 -0.045900 
#    y 0.000010 1.503600 0.000000 
#    z -0.045900 0.000000 1.814250 
# 
# From -- ./inp_files/284418.got.cif
#   From: 2010.05.17/outbox.cif.g08.bks.cpg/sg15_143_cif.got.tgz:284418.got - 2010.06.03 18:47:42.
