data_PCOD9301057
_publ_section_title
;
Structure prediction by ZEFSAII (Michael W. Deem and Ramdas Pophale) SiO2 
 PCOD9301057
Probable space group: C 2/C
;
_chemical_formula_sum "Si O2"
_cell_formula_units_Z 60
_cell_length_a 7.811750
_cell_length_b 10.892467
_cell_length_c 26.356151
_cell_angle_alpha 90.000000
_cell_angle_beta 68.463268
_cell_angle_gamma 90.000000
_cell_volume 2086.049939
_symmetry_space_group_name_H-M "C 2/C"
_symmetry_group_IT_number 15
_symmetry_cell_setting 'monoclinic'
loop_
_space_group_symop_operation_xyz
x,y,z
-x,y,1/2-z
-x,-y,-z
x,-y,1/2+z
1/2+x,1/2+y,z
1/2-x,1/2+y,1/2-z
1/2-x,1/2-y,-z
1/2+x,1/2-y,1/2+z
loop_
_atom_site_type_symbol
_atom_site_label
_atom_site_fract_x
_atom_site_fract_y
_atom_site_fract_z
Si Si1 0.500000 0.031925 0.750000
Si Si2 0.223153 0.661527 0.274887
Si Si3 0.425798 0.186880 0.669170
Si Si4 0.883825 0.987697 0.591374
Si Si5 0.005432 0.351259 0.541692
Si Si6 0.256134 0.586835 0.509429
Si Si7 0.131637 0.248348 0.625935
Si Si8 0.354349 0.428000 0.862189
O O1 0.332211 0.941494 0.758459
O O2 0.537009 0.087222 0.689404
O O3 0.319775 0.763611 0.230992
O O4 0.336546 0.587058 0.304397
O O5 0.052953 0.725635 0.321986
O O6 0.275358 0.161168 0.641670
O O7 0.554767 0.294505 0.635396
O O8 0.789175 0.090065 0.566196
O O9 0.739444 0.879867 0.616510
O O10 0.049565 0.928154 0.539634
O O11 0.000803 0.022633 0.628857
O O12 0.891992 0.323950 0.502233
O O13 0.847039 0.420914 0.591465
O O14 0.159805 0.451996 0.513421
O O15 0.088097 0.247374 0.569930
#
# Coordination Sequence:
#
# PCOD9301057 Si02
#       8
#     4   8   8   8   8   8   8   8
#     4  12  24  36  62  78 104 156 194 230 280 328
#     4  11  20  37  55  78 110 149 189 237 275 327
#     4  11  20  37  55  78 110 149 189 237 275 327
#     4   8  14  23  44  71 109 146 167 229 272 320
#     4   8  14  23  44  71 109 146 167 229 272 320
#     4   8  12  22  38  76 110 132 182 216 266 332
#     4   9  17  30  51  72 111 151 175 228 288 306
#     4   9  17  30  51  72 111 151 175 228 288 306
#
# _framework density 28.762497
#
# number of rings (size 3 to 8) (size 9 to 14) (size 15 to 20)
#    0.000    2.667    2.667    0.000    0.000    0.000 
#    0.000    2.667    0.000    0.000    0.000    0.000 
#    0.000  482.133    0.000    0.000    0.000    0.000 
#
# Total GULP energy -167894.823152 kJ/mol
# GULP energy per Si atom -5596.494105 kJ/mol
# Density = 2.869703 g / cm^3
# Si number density = 28.762497 Si / 1000 Ang^3
#
#
#
# Elastic Constant Matrix: (Units=GPa)
#
#
# Indices 1 2 3 4 5 6 
#
# 1 157.9907 28.3278 53.5540 0.0000 63.5820 0.0000
# 2 28.3278 52.8926 33.8119 0.0000 11.8486 0.0000
# 3 53.5540 33.8119 123.3589 0.0000 8.7654 0.0000
# 4 0.0000 0.0000 0.0000 49.8448 0.0000 30.7521
# 5 63.5820 11.8486 8.7654 0.0000 100.4152 0.0000
# 6 0.0000 0.0000 0.0000 30.7521 0.0000 5.7315
#
#
#
# Elastic Compliance Matrix: (Units=1/GPa)
#
#
# Indices 1 2 3 4 5 6 
#
# 1 0.010263 -0.001919 -0.003505 0.000000 -0.005966 0.000000
# 2 -0.001919 0.023761 -0.005602 0.000000 -0.001100 0.000000
# 3 -0.003505 -0.005602 0.011027 0.000000 0.001918 0.000000
# 4 0.000000 0.000000 0.000000 -0.008684 0.000000 0.046594
# 5 -0.005966 -0.001100 0.001918 0.000000 0.013698 0.000000
# 6 0.000000 0.000000 0.000000 0.046594 0.000000 -0.075522
#
#
# Mechanical properties :
#
#
# Convention : Reuss Voigt Hill
#
# Bulk Modulus (GPa) = 43.48006 62.84772 53.16389
# Shear Modulus (GPa) = 1173.11082 45.76820 609.43951
#
# Velocity S-wave (km/s) = 20.21748 3.99337 14.57213
# Velocity P-wave (km/s) = 23.66739 6.56968 17.36816
#
# Compressibility (1/GPa) = 0.02299905
#
# Stress axis : x y z
#
# Youngs Moduli (GPa) = 97.44024 42.08544 90.68403
#
# Poissons Ratio (x) = 0.08077 0.31789
# Poissons Ratio (y) = 0.18700 0.50797
# Poissons Ratio (z) = 0.34157 0.23574
#
# Static dielectric constant tensor:
#      x y z
#    x 2.328580 0.000000 0.107170 
#    y 0.000000 2.360800 0.000000 
#    z 0.107170 0.000000 2.239470 
# 
# From -- ./inp_files/307769.got.cif
#   From: 2010.05.17/outbox.cif.g08.bks.cpg/sg15_154_cif.got.tgz:307769.got - 2010.06.03 18:47:42.
