data_PCOD9301671
_publ_section_title
;
Structure prediction by ZEFSAII (Michael W. Deem and Ramdas Pophale) SiO2 
 PCOD9301671
Probable space group: C 2/C
;
_chemical_formula_sum "Si O2"
_cell_formula_units_Z 32
_cell_length_a 6.881062
_cell_length_b 19.290094
_cell_length_c 9.042035
_cell_angle_alpha 90.000000
_cell_angle_beta 74.148052
_cell_angle_gamma 90.000000
_cell_volume 1154.563589
_symmetry_space_group_name_H-M "C 2/C"
_symmetry_group_IT_number 15
_symmetry_cell_setting 'monoclinic'
loop_
_space_group_symop_operation_xyz
x,y,z
-x,y,1/2-z
-x,-y,-z
x,-y,1/2+z
1/2+x,1/2+y,z
1/2-x,1/2+y,1/2-z
1/2-x,1/2-y,-z
1/2+x,1/2-y,1/2+z
loop_
_atom_site_type_symbol
_atom_site_label
_atom_site_fract_x
_atom_site_fract_y
_atom_site_fract_z
Si Si1 0.738808 0.080269 0.366376
Si Si2 0.408939 0.779601 0.612065
Si Si3 0.317289 0.159851 0.689493
Si Si4 0.747401 0.052284 0.034577
O O1 0.755899 0.161807 0.392201
O O2 0.496564 0.063595 0.410827
O O3 0.801080 0.025504 0.477183
O O4 0.819118 0.068029 0.184778
O O5 0.500000 0.803742 0.750000
O O6 0.574053 0.786935 0.448983
O O7 0.317219 0.706231 0.674948
O O8 0.500000 0.127679 0.750000
O O9 0.202880 0.104450 0.610924
#
# Coordination Sequence:
#
# PCOD9301671 Si02
#       4
#     8   8   8   8
#     4   9  17  31  52  80 105 137 183 232 265 311
#     4  11  21  38  58  82 111 148 184 225 274 328
#     4  11  23  36  56  85 114 145 182 227 276 325
#     4   9  18  30  52  79 107 137 182 230 269 310
#
# _framework density 27.716100999999998
#
# number of rings (size 3 to 8) (size 9 to 14) (size 15 to 20)
#    0.000    2.000    5.000    1.500   10.500    0.000 
#    0.000    0.000    0.000    3.000    0.000    0.000 
#    0.000    0.000    0.000    0.000    0.000    0.000 
#
# Total GULP energy -89585.169283 kJ/mol
# GULP energy per Si atom -5599.073080 kJ/mol
# Density = 2.765302 g / cm^3
# Si number density = 27.716101 Si / 1000 Ang^3
#
#
#
# Elastic Constant Matrix: (Units=GPa)
#
#
# Indices 1 2 3 4 5 6 
#
# 1 34.6522 0.4263 29.3876 0.0000 0.2377 0.0000
# 2 0.4263 91.7446 36.1980 0.0000 16.9857 0.0000
# 3 29.3876 36.1980 179.8995 0.0000 31.9238 0.0000
# 4 0.0000 0.0000 0.0000 57.6713 0.0000 0.1569
# 5 0.2377 16.9857 31.9238 0.0000 56.6140 0.0000
# 6 0.0000 0.0000 0.0000 0.1569 0.0000 25.4263
#
#
#
# Elastic Compliance Matrix: (Units=1/GPa)
#
#
# Indices 1 2 3 4 5 6 
#
# 1 0.034336 0.001859 -0.006510 0.000000 0.002969 0.000000
# 2 0.001859 0.012256 -0.002351 0.000000 -0.002359 0.000000
# 3 -0.006510 -0.002351 0.007740 0.000000 -0.003632 0.000000
# 4 0.000000 0.000000 0.000000 0.017340 0.000000 -0.000107
# 5 0.002969 -0.002359 -0.003632 0.000000 0.020407 0.000000
# 6 0.000000 0.000000 0.000000 -0.000107 0.000000 0.039330
#
#
# Mechanical properties :
#
#
# Convention : Reuss Voigt Hill
#
# Bulk Modulus (GPa) = 24.79686 48.70222 36.74954
# Shear Modulus (GPa) = 31.47556 43.96127 37.71842
#
# Velocity S-wave (km/s) = 3.37358 3.98694 3.69302
# Velocity P-wave (km/s) = 4.91334 6.22930 5.61004
#
# Compressibility (1/GPa) = 0.04032768
#
# Stress axis : x y z
#
# Youngs Moduli (GPa) = 29.12407 81.59555 129.20603
#
# Poissons Ratio (x) = -0.15171 0.84112
# Poissons Ratio (y) = -0.05415 0.30377
# Poissons Ratio (z) = 0.18959 0.19184
#
# Static dielectric constant tensor:
#      x y z
#    x 2.293620 0.000000 -0.026950 
#    y 0.000000 2.129210 0.000000 
#    z -0.026950 0.000000 2.093770 
# 
# From -- ./inp_files/28618.got.cif
#   From: 2010.05.17/outbox.cif.g08.bks.cpg/sg15_15_cif.got.tgz:28618.got - 2010.06.03 18:47:42.
