data_PCOD9301560
_publ_section_title
;
Structure prediction by ZEFSAII (Michael W. Deem and Ramdas Pophale) SiO2 
 PCOD9301560
Probable space group: C 2/C
;
_chemical_formula_sum "Si O2"
_cell_formula_units_Z 48
_cell_length_a 23.254626
_cell_length_b 5.489939
_cell_length_c 23.069555
_cell_angle_alpha 90.000000
_cell_angle_beta 49.022825
_cell_angle_gamma 90.000000
_cell_volume 2223.546897
_symmetry_space_group_name_H-M "C 2/C"
_symmetry_group_IT_number 15
_symmetry_cell_setting 'monoclinic'
loop_
_space_group_symop_operation_xyz
x,y,z
-x,y,1/2-z
-x,-y,-z
x,-y,1/2+z
1/2+x,1/2+y,z
1/2-x,1/2+y,1/2-z
1/2-x,1/2-y,-z
1/2+x,1/2-y,1/2+z
loop_
_atom_site_type_symbol
_atom_site_label
_atom_site_fract_x
_atom_site_fract_y
_atom_site_fract_z
Si Si1 0.837443 0.485847 0.055511
Si Si2 0.532189 0.852152 0.600997
Si Si3 0.021358 0.847137 0.802776
Si Si4 0.701280 0.259505 0.693193
Si Si5 0.200738 0.890494 0.824086
Si Si6 0.439017 0.698346 0.558818
O O1 0.753449 0.602848 0.111410
O O2 0.837371 0.324369 0.113842
O O3 0.897422 0.698885 0.029772
O O4 0.878337 0.344749 0.976444
O O5 0.505806 0.595285 0.646881
O O6 0.481937 0.872555 0.575162
O O7 0.515327 0.095256 0.648918
O O8 0.112633 0.807182 0.746243
O O9 0.000000 0.875227 0.750000
O O10 0.725463 0.336568 0.742717
O O11 0.730974 0.982063 0.679174
O O12 0.132053 0.079062 0.861770
O O13 0.500000 0.500000 0.500000
#
# Coordination Sequence:
#
# PCOD9301560 Si02
#       6
#     8   8   8   8   8   8
#     4  11  24  38  63 106 144 179 219 282 361 429
#     4  12  25  45  71  99 139 181 235 288 344 411
#     4  12  29  51  73  96 131 190 251 294 335 403
#     4  11  24  39  66 100 142 181 225 279 349 424
#     4  11  21  36  61 101 142 178 216 274 357 423
#     4  11  21  36  62 104 147 178 218 273 352 432
#
# _framework density 21.587130999999999
#
# number of rings (size 3 to 8) (size 9 to 14) (size 15 to 20)
#    0.000    0.667    5.000    3.000    7.000    0.000 
#    0.000    1.667    0.000    0.000    0.000    0.000 
#    0.000    0.000    0.000    0.000    0.000    0.000 
#
# Total GULP energy -133881.308206 kJ/mol
# GULP energy per Si atom -5578.387842 kJ/mol
# Density = 2.153800 g / cm^3
# Si number density = 21.587131 Si / 1000 Ang^3
#
#
#
# Elastic Constant Matrix: (Units=GPa)
#
#
# Indices 1 2 3 4 5 6 
#
# 1 59.5404 21.5672 52.7503 0.0809 -10.3019 -0.0159
# 2 21.5672 79.8083 48.9433 -0.0693 -17.1771 0.1438
# 3 52.7503 48.9433 130.8274 0.0176 -33.1225 0.0351
# 4 0.0809 -0.0693 0.0176 31.3945 -0.0911 -1.5781
# 5 -10.3019 -17.1771 -33.1225 -0.0911 32.3899 0.0669
# 6 -0.0159 0.1438 0.0351 -1.5781 0.0669 19.6169
#
#
#
# Elastic Compliance Matrix: (Units=1/GPa)
#
#
# Indices 1 2 3 4 5 6 
#
# 1 0.026466 -0.001068 -0.011178 -0.000072 -0.003580 0.000056
# 2 -0.001068 0.016560 -0.004894 0.000046 0.003438 -0.000122
# 3 -0.011178 -0.004894 0.016765 0.000039 0.010994 -0.000038
# 4 -0.000072 0.000046 0.000039 0.031983 0.000126 0.002572
# 5 -0.003580 0.003438 0.010994 0.000126 0.042801 -0.000184
# 6 0.000056 -0.000122 -0.000038 0.002572 -0.000184 0.051185
#
#
# Mechanical properties :
#
#
# Convention : Reuss Voigt Hill
#
# Bulk Modulus (GPa) = 39.19849 57.41087 48.30468
# Shear Modulus (GPa) = 21.87755 26.47461 24.17608
#
# Velocity S-wave (km/s) = 3.18693 3.50581 3.35017
# Velocity P-wave (km/s) = 5.63380 6.56051 6.11474
#
# Compressibility (1/GPa) = 0.02551118
#
# Stress axis : x y z
#
# Youngs Moduli (GPa) = 37.78404 60.38537 59.64771
#
# Poissons Ratio (x) = 0.06447 0.66675
# Poissons Ratio (y) = 0.04034 0.29194
# Poissons Ratio (z) = 0.42236 0.29555
#
# Static dielectric constant tensor:
#      x y z
#    x 1.805230 -0.000020 -0.052190 
#    y -0.000020 1.978770 0.000000 
#    z -0.052190 0.000000 1.867970 
# 
# From -- ./inp_files/254232.got.cif
#   From: 2010.05.17/outbox.cif.g08.bks.cpg/sg15_128_cif.got.tgz:254232.got - 2010.06.03 18:47:42.
