data_PCOD9301369
_publ_section_title
;
Structure prediction by ZEFSAII (Michael W. Deem and Ramdas Pophale) SiO2 
 PCOD9301369
Probable space group: C 2/C
;
_chemical_formula_sum "Si O2"
_cell_formula_units_Z 60
_cell_length_a 13.710773
_cell_length_b 13.827870
_cell_length_c 19.801720
_cell_angle_alpha 90.000000
_cell_angle_beta 42.896612
_cell_angle_gamma 90.000000
_cell_volume 2555.415776
_symmetry_space_group_name_H-M "C 2/C"
_symmetry_group_IT_number 15
_symmetry_cell_setting 'monoclinic'
loop_
_space_group_symop_operation_xyz
x,y,z
-x,y,1/2-z
-x,-y,-z
x,-y,1/2+z
1/2+x,1/2+y,z
1/2-x,1/2+y,1/2-z
1/2-x,1/2-y,-z
1/2+x,1/2-y,1/2+z
loop_
_atom_site_type_symbol
_atom_site_label
_atom_site_fract_x
_atom_site_fract_y
_atom_site_fract_z
Si Si1 0.500000 0.321652 0.750000
Si Si2 0.293437 0.492921 0.225942
Si Si3 0.011917 0.737428 0.428806
Si Si4 0.941327 0.867019 0.352059
Si Si5 0.770499 0.946115 0.951520
Si Si6 0.874903 0.920626 0.051799
Si Si7 0.553168 0.894293 0.425433
Si Si8 0.824670 0.783560 0.716927
O O1 0.378897 0.384795 0.849218
O O2 0.414613 0.261894 0.738388
O O3 0.426820 0.431727 0.186457
O O4 0.261669 0.449446 0.168033
O O5 0.345525 0.602940 0.191998
O O6 0.162717 0.476325 0.343811
O O7 0.910887 0.787815 0.424865
O O8 0.058611 0.817003 0.461679
O O9 0.964343 0.639248 0.488373
O O10 0.157074 0.722056 0.314032
O O11 0.000000 0.830252 0.250000
O O12 0.812585 0.943406 0.413000
O O13 0.810992 0.925630 0.009373
O O14 0.606884 0.916595 0.019900
O O15 0.000000 0.000000 0.000000
O O16 0.625345 0.797112 0.359423
#
# Coordination Sequence:
#
# PCOD9301369 Si02
#       8
#     4   8   8   8   8   8   8   8
#     4  12  22  40  62 108 140 184 236 308 376 426
#     4  11  24  45  71  99 148 198 243 311 376 454
#     4  11  24  43  69 105 143 194 243 304 379 449
#     4  11  22  47  74 102 144 206 249 301 386 462
#     4  12  23  40  73 109 147 191 251 315 367 451
#     4  11  20  42  70 101 144 200 237 287 391 452
#     4  12  27  44  72 114 142 190 259 314 370 449
#     4  12  24  43  70 101 149 188 240 305 377 448
#
# _framework density 23.479545000000002
#
# number of rings (size 3 to 8) (size 9 to 14) (size 15 to 20)
#    0.000    0.533    8.667    1.600    1.867    2.133 
#    0.000    0.667    2.933    0.000    0.000    0.000 
#    0.000    0.000    0.000    0.000    0.000    0.000 
#
# Total GULP energy -167847.502761 kJ/mol
# GULP energy per Si atom -5594.916759 kJ/mol
# Density = 2.342610 g / cm^3
# Si number density = 23.479545 Si / 1000 Ang^3
#
#
#
# Elastic Constant Matrix: (Units=GPa)
#
#
# Indices 1 2 3 4 5 6 
#
# 1 66.9048 30.1726 51.8232 0.0000 -4.4673 0.0000
# 2 30.1726 77.0778 44.7376 0.0000 -0.8869 0.0000
# 3 51.8232 44.7376 136.9120 0.0000 -6.8166 0.0000
# 4 0.0000 0.0000 0.0000 34.6909 0.0000 -2.6778
# 5 -4.4673 -0.8869 -6.8166 0.0000 45.6165 0.0000
# 6 0.0000 0.0000 0.0000 -2.6778 0.0000 29.8148
#
#
#
# Elastic Compliance Matrix: (Units=1/GPa)
#
#
# Indices 1 2 3 4 5 6 
#
# 1 0.022533 -0.004799 -0.006907 0.000000 0.001081 0.000000
# 2 -0.004799 0.017043 -0.003787 0.000000 -0.000705 0.000000
# 3 -0.006907 -0.003787 0.011202 0.000000 0.000924 0.000000
# 4 0.000000 0.000000 0.000000 0.029027 0.000000 0.002607
# 5 0.001081 -0.000705 0.000924 0.000000 0.022152 0.000000
# 6 0.000000 0.000000 0.000000 0.002607 0.000000 0.033775
#
#
# Mechanical properties :
#
#
# Convention : Reuss Voigt Hill
#
# Bulk Modulus (GPa) = 50.52950 59.37347 54.95148
# Shear Modulus (GPa) = 28.84895 32.30185 30.57540
#
# Velocity S-wave (km/s) = 3.50906 3.71313 3.61254
# Velocity P-wave (km/s) = 6.16323 6.61251 6.39182
#
# Compressibility (1/GPa) = 0.01979042
#
# Stress axis : x y z
#
# Youngs Moduli (GPa) = 44.37876 58.67577 89.26995
#
# Poissons Ratio (x) = 0.28160 0.61660
# Poissons Ratio (y) = 0.21299 0.33810
# Poissons Ratio (z) = 0.30653 0.22223
#
# Static dielectric constant tensor:
#      x y z
#    x 1.886500 0.000000 0.036600 
#    y 0.000000 1.931400 0.000000 
#    z 0.036600 0.000000 1.986670 
# 
# From -- ./inp_files/244691.got.cif
#   From: 2010.05.17/outbox.cif.g08.bks.cpg/sg15_123_cif.got.tgz:244691.got - 2010.06.03 18:47:42.
