data_PCOD9301918
_publ_section_title
;
Structure prediction by ZEFSAII (Michael W. Deem and Ramdas Pophale) SiO2 
 PCOD9301918
Probable space group: C 2/C
;
_chemical_formula_sum "Si O2"
_cell_formula_units_Z 44
_cell_length_a 24.524223
_cell_length_b 8.507514
_cell_length_c 13.479590
_cell_angle_alpha 90.000000
_cell_angle_beta 128.061193
_cell_angle_gamma 90.000000
_cell_volume 2214.338287
_symmetry_space_group_name_H-M "C 2/C"
_symmetry_group_IT_number 15
_symmetry_cell_setting 'monoclinic'
loop_
_space_group_symop_operation_xyz
x,y,z
-x,y,1/2-z
-x,-y,-z
x,-y,1/2+z
1/2+x,1/2+y,z
1/2-x,1/2+y,1/2-z
1/2-x,1/2-y,-z
1/2+x,1/2-y,1/2+z
loop_
_atom_site_type_symbol
_atom_site_label
_atom_site_fract_x
_atom_site_fract_y
_atom_site_fract_z
Si Si1 0.190035 0.819429 0.192602
Si Si2 0.189956 0.519267 0.074398
Si Si3 0.565411 0.440967 0.512623
Si Si4 0.000000 0.197935 0.750000
Si Si5 0.868040 0.388746 0.688895
Si Si6 0.574104 0.083818 0.583185
O O1 0.206158 0.700851 0.119399
O O2 0.256436 0.916933 0.301601
O O3 0.166017 0.720687 0.263671
O O4 0.128986 0.939984 0.094949
O O5 0.114931 0.496430 0.039034
O O6 0.182144 0.444834 0.956229
O O7 0.500000 0.500000 0.500000
O O8 0.539678 0.410761 0.372689
O O9 0.579304 0.267403 0.569755
O O10 0.938464 0.302995 0.729461
O O11 0.891107 0.542792 0.773926
O O12 0.500000 0.000000 0.500000
#
# Coordination Sequence:
#
# PCOD9301918 Si02
#       6
#     8   8   8   4   8   8
#     4  11  25  44  66  98 136 177 221 277 333 397
#     4  11  23  43  65  95 132 177 219 273 335 394
#     4  12  23  41  65  99 135 171 225 275 329 394
#     4  12  22  40  72  94 130 182 216 280 332 382
#     4  11  22  42  68  96 129 177 224 272 335 398
#     4  11  21  40  66  95 130 169 221 275 329 392
#
# _framework density 19.870494999999998
#
# number of rings (size 3 to 8) (size 9 to 14) (size 15 to 20)
#    0.000    0.727    5.455    2.727    0.000    1.455 
#    0.000    4.545    0.000    0.000    0.000    0.000 
#    0.000    0.000    0.000    0.000    0.000    0.000 
#
# Total GULP energy -122794.900648 kJ/mol
# GULP energy per Si atom -5581.586393 kJ/mol
# Density = 1.982527 g / cm^3
# Si number density = 19.870495 Si / 1000 Ang^3
#
#
#
# Elastic Constant Matrix: (Units=GPa)
#
#
# Indices 1 2 3 4 5 6 
#
# 1 44.3640 9.8481 20.9734 0.0000 4.4526 0.0000
# 2 9.8481 118.4535 77.3122 0.0000 7.7515 0.0000
# 3 20.9734 77.3122 152.2306 0.0000 -0.6927 0.0000
# 4 0.0000 0.0000 0.0000 28.9703 0.0000 8.8881
# 5 4.4526 7.7515 -0.6927 0.0000 29.6383 0.0000
# 6 0.0000 0.0000 0.0000 8.8881 0.0000 28.5811
#
#
#
# Elastic Compliance Matrix: (Units=1/GPa)
#
#
# Indices 1 2 3 4 5 6 
#
# 1 0.024557 0.000653 -0.003733 0.000000 -0.003947 0.000000
# 2 0.000653 0.013009 -0.006713 0.000000 -0.003657 0.000000
# 3 -0.003733 -0.006713 0.010504 0.000000 0.002562 0.000000
# 4 0.000000 0.000000 0.000000 0.038159 0.000000 -0.011867
# 5 -0.003947 -0.003657 0.002562 0.000000 0.035349 0.000000
# 6 0.000000 0.000000 0.000000 -0.011867 0.000000 0.038678
#
#
# Mechanical properties :
#
#
# Convention : Reuss Voigt Hill
#
# Bulk Modulus (GPa) = 35.10788 59.03504 47.07146
# Shear Modulus (GPa) = 26.40789 31.23224 28.82006
#
# Velocity S-wave (km/s) = 3.64950 3.96888 3.81254
# Velocity P-wave (km/s) = 5.95526 7.12580 6.56667
#
# Compressibility (1/GPa) = 0.02848364
#
# Stress axis : x y z
#
# Youngs Moduli (GPa) = 40.72203 76.87106 95.19850
#
# Poissons Ratio (x) = -0.05020 0.35537
# Poissons Ratio (y) = -0.02659 0.63910
# Poissons Ratio (z) = 0.15201 0.51606
#
# Static dielectric constant tensor:
#      x y z
#    x 1.744470 0.000000 -0.046650 
#    y 0.000000 1.794950 0.000000 
#    z -0.046650 0.000000 1.759440 
# 
# From -- ./inp_files/110151.got.cif
#   From: 2010.05.17/outbox.cif.g08.bks.cpg/sg15_56_cif.got.tgz:110151.got - 2010.06.03 18:47:42.
