data_PCOD9301273
_publ_section_title
;
Structure prediction by ZEFSAII (Michael W. Deem and Ramdas Pophale) SiO2 
 PCOD9301273
Probable space group: C 2/C
;
_chemical_formula_sum "Si O2"
_cell_formula_units_Z 56
_cell_length_a 12.429974
_cell_length_b 13.017047
_cell_length_c 20.267150
_cell_angle_alpha 90.000000
_cell_angle_beta 60.807366
_cell_angle_gamma 90.000000
_cell_volume 2862.740960
_symmetry_space_group_name_H-M "C 2/C"
_symmetry_group_IT_number 15
_symmetry_cell_setting 'monoclinic'
loop_
_space_group_symop_operation_xyz
x,y,z
-x,y,1/2-z
-x,-y,-z
x,-y,1/2+z
1/2+x,1/2+y,z
1/2-x,1/2+y,1/2-z
1/2-x,1/2-y,-z
1/2+x,1/2-y,1/2+z
loop_
_atom_site_type_symbol
_atom_site_label
_atom_site_fract_x
_atom_site_fract_y
_atom_site_fract_z
Si Si1 0.134036 0.224778 0.941828
Si Si2 0.132794 0.792046 0.993632
Si Si3 0.838439 0.667928 0.649840
Si Si4 0.831458 0.981022 0.986580
Si Si5 0.370604 0.496584 0.320003
Si Si6 0.431682 0.931593 0.465155
Si Si7 0.354082 0.728046 0.282714
O O1 0.130217 0.329365 0.985286
O O2 0.258918 0.221264 0.862515
O O3 0.130895 0.124294 0.989143
O O4 0.005716 0.233316 0.939084
O O5 0.143103 0.740100 0.919156
O O6 0.250000 0.750000 0.000000
O O7 0.129384 0.914727 0.989969
O O8 0.730809 0.588327 0.665631
O O9 0.819089 0.732957 0.720939
O O10 0.965435 0.604032 0.616746
O O11 0.683309 0.990547 0.029385
O O12 0.877008 0.985700 0.896993
O O13 0.500000 0.464268 0.250000
O O14 0.337585 0.605961 0.297370
O O15 0.500000 0.000000 0.500000
O O16 0.500000 0.748738 0.250000
#
# Coordination Sequence:
#
# PCOD9301273 Si02
#       7
#     8   8   8   8   8   8   8
#     4  11  24  39  67  96 129 174 224 271 331 391
#     4  11  24  42  65  97 127 171 224 275 329 399
#     4  11  24  43  66  92 130 174 214 268 336 401
#     4  12  22  41  66  99 129 168 226 278 321 397
#     4  11  25  40  65  94 134 174 212 272 342 393
#     4  11  20  40  66  92 125 174 221 267 331 392
#     4  11  25  43  64  96 134 170 217 272 334 400
#
# _framework density 19.561671
#
# number of rings (size 3 to 8) (size 9 to 14) (size 15 to 20)
#    0.000    0.857    4.286    2.571   10.000    1.143 
#    0.000    0.000    0.000    0.857    0.000    0.000 
#    0.000    0.000    0.000    0.000    0.000    0.000 
#
# Total GULP energy -156392.999043 kJ/mol
# GULP energy per Si atom -5585.464252 kJ/mol
# Density = 1.951715 g / cm^3
# Si number density = 19.561671 Si / 1000 Ang^3
#
#
#
# Elastic Constant Matrix: (Units=GPa)
#
#
# Indices 1 2 3 4 5 6 
#
# 1 98.4207 36.9927 50.9669 0.0000 -16.6546 0.0000
# 2 36.9927 99.7189 54.7402 0.0000 -3.8788 0.0000
# 3 50.9669 54.7402 130.4627 0.0000 -21.0616 0.0000
# 4 0.0000 0.0000 0.0000 31.1143 0.0000 -2.5670
# 5 -16.6546 -3.8788 -21.0616 0.0000 29.9959 0.0000
# 6 0.0000 0.0000 0.0000 -2.5670 0.0000 30.8672
#
#
#
# Elastic Compliance Matrix: (Units=1/GPa)
#
#
# Indices 1 2 3 4 5 6 
#
# 1 0.013899 -0.003149 -0.003303 0.000000 0.004991 0.000000
# 2 -0.003149 0.013901 -0.005182 0.000000 -0.003589 0.000000
# 3 -0.003303 -0.005182 0.012097 0.000000 0.005990 0.000000
# 4 0.000000 0.000000 0.000000 0.032362 0.000000 0.002691
# 5 0.004991 -0.003589 0.005990 0.000000 0.039850 0.000000
# 6 0.000000 0.000000 0.000000 0.002691 0.000000 0.032621
#
#
# Mechanical properties :
#
#
# Convention : Reuss Voigt Hill
#
# Bulk Modulus (GPa) = 60.13504 68.22242 64.17873
# Shear Modulus (GPa) = 28.81172 30.78898 29.80035
#
# Velocity S-wave (km/s) = 3.84196 3.97160 3.90732
# Velocity P-wave (km/s) = 7.10555 7.48216 7.29629
#
# Compressibility (1/GPa) = 0.01662924
#
# Stress axis : x y z
#
# Youngs Moduli (GPa) = 71.94798 71.93518 82.66762
#
# Poissons Ratio (x) = 0.22651 0.27304
# Poissons Ratio (y) = 0.22655 0.42839
# Poissons Ratio (z) = 0.23764 0.37278
#
# Static dielectric constant tensor:
#      x y z
#    x 1.741200 0.000000 -0.018230 
#    y 0.000000 1.678070 0.000000 
#    z -0.018230 0.000000 1.673540 
# 
# From -- ./inp_files/198231.got.cif
#   From: 2010.05.17/outbox.cif.g08.bks.cpg/sg15_100_cif.got.tgz:198231.got - 2010.06.03 18:47:42.
