data_PCOD9301115
_publ_section_title
;
Structure prediction by ZEFSAII (Michael W. Deem and Ramdas Pophale) SiO2 
 PCOD9301115
Probable space group: C 2/C
;
_chemical_formula_sum "Si O2"
_cell_formula_units_Z 40
_cell_length_a 31.205185
_cell_length_b 10.897597
_cell_length_c 23.661469
_cell_angle_alpha 90.000000
_cell_angle_beta 14.771558
_cell_angle_gamma 90.000000
_cell_volume 2051.545343
_symmetry_space_group_name_H-M "C 2/C"
_symmetry_group_IT_number 15
_symmetry_cell_setting 'monoclinic'
loop_
_space_group_symop_operation_xyz
x,y,z
-x,y,1/2-z
-x,-y,-z
x,-y,1/2+z
1/2+x,1/2+y,z
1/2-x,1/2+y,1/2-z
1/2-x,1/2-y,-z
1/2+x,1/2-y,1/2+z
loop_
_atom_site_type_symbol
_atom_site_label
_atom_site_fract_x
_atom_site_fract_y
_atom_site_fract_z
Si Si1 0.253706 0.998018 0.424039
Si Si2 0.018633 0.110705 0.644014
Si Si3 0.300010 0.224905 0.002013
Si Si4 0.611652 0.504815 0.802057
Si Si5 0.032528 0.393163 0.642863
O O1 0.116697 0.032092 0.647258
O O2 0.428782 0.024106 0.231454
O O3 0.198853 0.084940 0.442486
O O4 0.232979 0.859234 0.429850
O O5 0.976982 0.253282 0.704051
O O6 0.997927 0.067103 0.607161
O O7 0.500000 0.198870 0.750000
O O8 0.250000 0.250000 0.000000
O O9 0.192732 0.120079 0.171064
O O10 0.770844 0.588521 0.614708
O O11 0.500000 0.500000 0.000000
O O12 0.000000 0.422991 0.750000
#
# Coordination Sequence:
#
# PCOD9301115 Si02
#       5
#     8   8   8   8   8
#     4  11  20  37  69 104 121 165 234 284 316 393
#     4  11  21  40  66  96 134 164 219 280 335 391
#     4  12  21  41  70  94 128 171 227 280 321 402
#     4  12  27  45  61  98 140 178 219 279 353 401
#     4  12  21  40  72  99 127 173 224 274 331 404
#
# _framework density 19.497498
#
# number of rings (size 3 to 8) (size 9 to 14) (size 15 to 20)
#    0.000    0.400    8.000    3.600    0.000    0.000 
#   10.800    1.000    0.000    0.000    0.000    0.000 
#    0.000    0.000    0.000    0.000    0.000    0.000 
#
# Total GULP energy -111678.727175 kJ/mol
# GULP energy per Si atom -5583.936359 kJ/mol
# Density = 1.945312 g / cm^3
# Si number density = 19.497498 Si / 1000 Ang^3
#
#
#
# Elastic Constant Matrix: (Units=GPa)
#
#
# Indices 1 2 3 4 5 6 
#
# 1 146.1373 20.3548 68.3786 0.0013 -17.4074 -0.0038
# 2 20.3548 120.2762 12.4479 0.0020 3.2372 -0.0059
# 3 68.3786 12.4479 85.9798 -0.0003 1.0720 -0.0017
# 4 0.0013 0.0020 -0.0003 -1.9565 -0.0001 39.2337
# 5 -17.4074 3.2372 1.0720 -0.0001 23.0539 0.0012
# 6 -0.0038 -0.0059 -0.0017 39.2337 0.0012 -106.7803
#
#
#
# Elastic Compliance Matrix: (Units=1/GPa)
#
#
# Indices 1 2 3 4 5 6 
#
# 1 0.013179 -0.001440 -0.010406 -0.000001 0.010637 0.000000
# 2 -0.001440 0.008627 -0.000075 0.000000 -0.002295 0.000000
# 3 -0.010406 -0.000075 0.020026 0.000002 -0.008778 0.000001
# 4 -0.000001 0.000000 0.000002 0.080264 -0.000002 0.029491
# 5 0.010637 -0.002295 -0.008778 -0.000002 0.052139 0.000000
# 6 0.000000 0.000000 0.000001 0.029491 0.000000 0.001471
#
#
# Mechanical properties :
#
#
# Convention : Reuss Voigt Hill
#
# Bulk Modulus (GPa) = 55.58112 61.63954 58.61033
# Shear Modulus (GPa) = 24.32554 -0.38911 11.96822
#
# Velocity S-wave (km/s) = 3.53600 -0.44722 2.48025
# Velocity P-wave (km/s) = 6.72605 5.60500 6.19095
#
# Compressibility (1/GPa) = 0.01799172
#
# Stress axis : x y z
#
# Youngs Moduli (GPa) = 75.87647 115.90938 49.93419
#
# Poissons Ratio (x) = 0.16688 0.51959
# Poissons Ratio (y) = 0.10925 0.00376
# Poissons Ratio (z) = 0.78953 0.00874
#
# Static dielectric constant tensor:
#      x y z
#    x 1.649200 0.000000 -0.076290 
#    y 0.000000 1.736690 0.000000 
#    z -0.076290 0.000000 1.667420 
# 
# From -- ./inp_files/257357.got.cif
#   From: 2010.05.17/outbox.cif.g08.bks.cpg/sg15_129_cif.got.tgz:257357.got - 2010.06.03 18:47:42.
