data_PCOD9301177
_publ_section_title
;
Structure prediction by ZEFSAII (Michael W. Deem and Ramdas Pophale) SiO2 
 PCOD9301177
Probable space group: C 2/C
;
_chemical_formula_sum "Si O2"
_cell_formula_units_Z 60
_cell_length_a 11.192616
_cell_length_b 19.200827
_cell_length_c 17.791985
_cell_angle_alpha 90.000000
_cell_angle_beta 138.085834
_cell_angle_gamma 90.000000
_cell_volume 2554.248646
_symmetry_space_group_name_H-M "C 2/C"
_symmetry_group_IT_number 15
_symmetry_cell_setting 'monoclinic'
loop_
_space_group_symop_operation_xyz
x,y,z
-x,y,1/2-z
-x,-y,-z
x,-y,1/2+z
1/2+x,1/2+y,z
1/2-x,1/2+y,1/2-z
1/2-x,1/2-y,-z
1/2+x,1/2-y,1/2+z
loop_
_atom_site_type_symbol
_atom_site_label
_atom_site_fract_x
_atom_site_fract_y
_atom_site_fract_z
Si Si1 0.668015 0.178970 0.690315
Si Si2 0.351553 0.151964 0.123304
Si Si3 0.912064 0.195869 0.063522
Si Si4 0.528915 0.291188 0.068237
Si Si5 0.804717 0.993109 0.942889
Si Si6 0.500000 0.902249 0.250000
Si Si7 0.981193 0.367157 0.958229
Si Si8 0.343362 0.556311 0.122058
O O1 0.591356 0.257730 0.650831
O O2 0.552701 0.143423 0.702539
O O3 0.625289 0.139903 0.592916
O O4 0.871915 0.180580 0.812389
O O5 0.500000 0.180721 0.250000
O O6 0.439296 0.125705 0.087015
O O7 0.265960 0.082101 0.115865
O O8 0.184390 0.202369 0.028952
O O9 0.903278 0.131097 0.114729
O O10 0.750000 0.250000 0.000000
O O11 0.904420 0.168974 0.974601
O O12 0.592688 0.212289 0.082190
O O13 0.664546 0.048303 0.846441
O O14 0.812760 0.005643 0.036964
O O15 0.000000 0.000000 0.000000
O O16 0.835013 0.423564 0.914804
O O17 0.500000 0.531018 0.250000
#
# Coordination Sequence:
#
# PCOD9301177 Si02
#       8
#     8   8   8   8   8   4   8   8
#     4  11  22  39  71 106 146 181 228 299 355 424
#     4  12  29  50  72  97 143 196 241 294 362 442
#     4  11  20  38  67 109 147 180 227 289 364 423
#     4  11  24  44  70 107 142 191 239 288 370 438
#     4  12  27  51  73 101 134 193 245 288 358 432
#     4  12  22  44  70 104 144 182 234 292 352 428
#     4  11  26  45  70 107 144 187 233 300 364 425
#     4  12  25  43  72 110 145 179 238 303 359 423
#
# _framework density 23.490273999999999
#
# number of rings (size 3 to 8) (size 9 to 14) (size 15 to 20)
#    0.000    0.533    4.667    4.400    8.400    1.067 
#    4.800    0.000    0.000    0.000    0.000    0.000 
#    0.000    0.000    0.000    0.000    0.000    0.000 
#
# Total GULP energy -167935.657284 kJ/mol
# GULP energy per Si atom -5597.855243 kJ/mol
# Density = 2.343681 g / cm^3
# Si number density = 23.490274 Si / 1000 Ang^3
#
#
#
# Elastic Constant Matrix: (Units=GPa)
#
#
# Indices 1 2 3 4 5 6 
#
# 1 103.9745 -11.4737 47.0399 0.0000 3.5944 0.0000
# 2 -11.4737 39.7590 2.6073 0.0000 8.9622 0.0000
# 3 47.0399 2.6073 183.9655 0.0000 8.7040 0.0000
# 4 0.0000 0.0000 0.0000 12.9794 0.0000 -7.3352
# 5 3.5944 8.9622 8.7040 0.0000 35.0312 0.0000
# 6 0.0000 0.0000 0.0000 -7.3352 0.0000 32.6046
#
#
#
# Elastic Compliance Matrix: (Units=1/GPa)
#
#
# Indices 1 2 3 4 5 6 
#
# 1 0.011399 0.003800 -0.002901 0.000000 -0.001421 0.000000
# 2 0.003800 0.027958 -0.001023 0.000000 -0.007288 0.000000
# 3 -0.002901 -0.001023 0.006239 0.000000 -0.000991 0.000000
# 4 0.000000 0.000000 0.000000 0.088267 0.000000 0.019858
# 5 -0.001421 -0.007288 -0.000991 0.000000 0.030803 0.000000
# 6 0.000000 0.000000 0.000000 0.019858 0.000000 0.035138
#
#
# Mechanical properties :
#
#
# Convention : Reuss Voigt Hill
#
# Bulk Modulus (GPa) = 22.05202 44.89400 33.47301
# Shear Modulus (GPa) = 23.23761 35.42475 29.33118
#
# Velocity S-wave (km/s) = 3.14864 3.88759 3.53746
# Velocity P-wave (km/s) = 4.75675 6.26932 5.56467
#
# Compressibility (1/GPa) = 0.04534732
#
# Stress axis : x y z
#
# Youngs Moduli (GPa) = 87.72853 35.76774 160.28116
#
# Poissons Ratio (x) = -0.13592 0.46502
# Poissons Ratio (y) = -0.33337 0.16398
# Poissons Ratio (z) = 0.25453 0.03659
#
# Static dielectric constant tensor:
#      x y z
#    x 1.905940 0.000000 -0.007170 
#    y 0.000000 1.889410 0.000000 
#    z -0.007170 0.000000 1.910440 
# 
# From -- ./inp_files/200556.got.cif
#   From: 2010.05.17/outbox.cif.g08.bks.cpg/sg15_101_cif.got.tgz:200556.got - 2010.06.03 18:47:42.
