data_PCOD9301977
_publ_section_title
;
Structure prediction by ZEFSAII (Michael W. Deem and Ramdas Pophale) SiO2 
 PCOD9301977
Probable space group: C 2/C
;
_chemical_formula_sum "Si O2"
_cell_formula_units_Z 60
_cell_length_a 23.856264
_cell_length_b 17.357967
_cell_length_c 18.129949
_cell_angle_alpha 90.000000
_cell_angle_beta 159.257859
_cell_angle_gamma 90.000000
_cell_volume 2658.892471
_symmetry_space_group_name_H-M "C 2/C"
_symmetry_group_IT_number 15
_symmetry_cell_setting 'monoclinic'
loop_
_space_group_symop_operation_xyz
x,y,z
-x,y,1/2-z
-x,-y,-z
x,-y,1/2+z
1/2+x,1/2+y,z
1/2-x,1/2+y,1/2-z
1/2-x,1/2-y,-z
1/2+x,1/2-y,1/2+z
loop_
_atom_site_type_symbol
_atom_site_label
_atom_site_fract_x
_atom_site_fract_y
_atom_site_fract_z
Si Si1 0.000000 0.533242 0.750000
Si Si2 0.856721 0.558707 0.338418
Si Si3 0.725445 0.720248 0.633897
Si Si4 0.232851 0.783609 0.651171
Si Si5 0.128016 0.803325 0.305378
Si Si6 0.590418 0.564097 0.532465
Si Si7 0.188921 0.960751 0.320647
Si Si8 0.485604 0.154861 0.842512
O O1 0.873321 0.480742 0.552257
O O2 0.911186 0.593085 0.695285
O O3 0.820771 0.634606 0.246204
O O4 0.700701 0.507560 0.145008
O O5 0.000000 0.500000 0.500000
O O6 0.900347 0.599660 0.468720
O O7 0.779268 0.759426 0.777655
O O8 0.642674 0.640832 0.555957
O O9 0.598132 0.780415 0.445595
O O10 0.865108 0.697741 0.749643
O O11 0.334105 0.722072 0.731744
O O12 0.054335 0.787341 0.402152
O O13 0.250000 0.750000 0.500000
O O14 0.156688 0.894806 0.341383
O O15 0.413126 0.538411 0.296234
O O16 0.626854 0.568776 0.664677
#
# Coordination Sequence:
#
# PCOD9301977 Si02
#       8
#     4   8   8   8   8   8   8   8
#     4  12  28  48  68 100 150 188 226 292 374 438
#     4  11  21  40  71 104 130 172 238 299 341 401
#     4  11  24  43  74 103 132 181 242 299 347 413
#     4  11  24  43  67 104 141 180 240 297 351 417
#     4  12  26  43  65  99 146 194 228 281 359 442
#     4  11  22  44  73 102 134 177 247 295 345 402
#     4  11  26  44  72 103 141 191 233 294 360 427
#     4  11  26  43  69 105 139 183 231 286 363 430
#
# _framework density 22.565785999999999
#
# number of rings (size 3 to 8) (size 9 to 14) (size 15 to 20)
#    0.000    0.800    5.333    2.000    3.733    1.600 
#    0.000    0.000    0.000    0.000    0.000    0.000 
#    0.000    0.000    0.000    0.000    0.000    0.000 
#
# Total GULP energy -167540.746302 kJ/mol
# GULP energy per Si atom -5584.691543 kJ/mol
# Density = 2.251443 g / cm^3
# Si number density = 22.565786 Si / 1000 Ang^3
#
#
#
# Elastic Constant Matrix: (Units=GPa)
#
#
# Indices 1 2 3 4 5 6 
#
# 1 23.2990 1.5539 8.5147 -0.0042 2.2679 -0.0019
# 2 1.5539 121.7492 39.2103 -0.0049 0.3562 -0.0025
# 3 8.5147 39.2103 112.9745 -0.0067 5.3217 -0.0036
# 4 -0.0042 -0.0049 -0.0067 30.3227 -0.0041 14.1904
# 5 2.2679 0.3562 5.3217 -0.0041 29.3128 -0.0017
# 6 -0.0019 -0.0025 -0.0036 14.1904 -0.0017 33.0611
#
#
#
# Elastic Compliance Matrix: (Units=1/GPa)
#
#
# Indices 1 2 3 4 5 6 
#
# 1 0.044402 0.000536 -0.003400 0.000005 -0.002825 0.000000
# 2 0.000536 0.009260 -0.003275 0.000001 0.000441 0.000000
# 3 -0.003400 -0.003275 0.010318 0.000001 -0.001570 0.000000
# 4 0.000005 0.000001 0.000001 0.041268 0.000004 -0.017713
# 5 -0.002825 0.000441 -0.001570 0.000004 0.034613 0.000000
# 6 0.000000 0.000000 0.000000 -0.017713 0.000000 0.037850
#
#
# Mechanical properties :
#
#
# Convention : Reuss Voigt Hill
#
# Bulk Modulus (GPa) = 19.34090 39.62006 29.48048
# Shear Modulus (GPa) = 24.12865 32.45559 28.29212
#
# Velocity S-wave (km/s) = 3.27350 3.79656 3.54469
# Velocity P-wave (km/s) = 4.78301 6.06747 5.46312
#
# Compressibility (1/GPa) = 0.05170391
#
# Stress axis : x y z
#
# Youngs Moduli (GPa) = 22.52156 107.98829 96.91359
#
# Poissons Ratio (x) = -0.05793 0.32947
# Poissons Ratio (y) = -0.01208 0.31741
# Poissons Ratio (z) = 0.07656 0.35368
#
# Static dielectric constant tensor:
#      x y z
#    x 3.810600 -0.000150 0.414580 
#    y -0.000150 1.812930 -0.000030 
#    z 0.414580 -0.000030 1.948780 
# 
# From -- ./inp_files/257892.got.cif
#   From: 2010.05.17/outbox.cif.g08.bks.cpg/sg15_129_cif.got.tgz:257892.got - 2010.06.03 18:47:42.
