data_PCOD9301218
_publ_section_title
;
Structure prediction by ZEFSAII (Michael W. Deem and Ramdas Pophale) SiO2 
 PCOD9301218
Probable space group: C 2/C
;
_chemical_formula_sum "Si O2"
_cell_formula_units_Z 28
_cell_length_a 14.097287
_cell_length_b 7.194490
_cell_length_c 19.349018
_cell_angle_alpha 90.000000
_cell_angle_beta 31.558551
_cell_angle_gamma 90.000000
_cell_volume 1027.076957
_symmetry_space_group_name_H-M "C 2/C"
_symmetry_group_IT_number 15
_symmetry_cell_setting 'monoclinic'
loop_
_space_group_symop_operation_xyz
x,y,z
-x,y,1/2-z
-x,-y,-z
x,-y,1/2+z
1/2+x,1/2+y,z
1/2-x,1/2+y,1/2-z
1/2-x,1/2-y,-z
1/2+x,1/2-y,1/2+z
loop_
_atom_site_type_symbol
_atom_site_label
_atom_site_fract_x
_atom_site_fract_y
_atom_site_fract_z
Si Si1 0.351961 0.043347 0.890446
Si Si2 0.460831 0.485304 0.630026
Si Si3 0.054428 0.614896 0.398969
Si Si4 0.000000 0.810010 0.250000
O O1 0.500000 0.144612 0.750000
O O2 0.438201 0.979529 0.909382
O O3 0.160461 0.662849 0.137214
O O4 0.151124 0.125095 0.011610
O O5 0.266031 0.393644 0.745010
O O6 0.469705 0.664780 0.575271
O O7 0.464826 0.572618 0.704635
O O8 0.000000 0.500000 0.500000
#
# Coordination Sequence:
#
# PCOD9301218 Si02
#       4
#     8   8   8   4
#     4   9  20  36  61  86 120 161 205 236 302 367
#     4  11  20  39  64  90 124 156 205 255 298 362
#     4  11  23  38  63  96 119 160 209 250 302 359
#     4   8  16  34  58  84 110 160 198 236 290 366
#
# _framework density 27.261832999999999
#
# number of rings (size 3 to 8) (size 9 to 14) (size 15 to 20)
#    0.857    1.143    0.000    6.857    0.000    1.143 
#    0.000    1.429    3.143    0.000    0.000    0.000 
#    0.000    0.000    0.000    0.000    0.000    0.000 
#
# Total GULP energy -78363.199677 kJ/mol
# GULP energy per Si atom -5597.371406 kJ/mol
# Density = 2.719978 g / cm^3
# Si number density = 27.261833 Si / 1000 Ang^3
#
#
#
# Elastic Constant Matrix: (Units=GPa)
#
#
# Indices 1 2 3 4 5 6 
#
# 1 94.4812 11.6769 68.4502 -0.0001 -4.1471 -0.0001
# 2 11.6769 90.1150 25.3443 -0.0002 -20.9944 0.0000
# 3 68.4502 25.3443 184.8769 -0.0005 -60.4524 0.0001
# 4 -0.0001 -0.0002 -0.0005 24.3986 0.0001 -7.9835
# 5 -4.1471 -20.9944 -60.4524 0.0001 72.6898 0.0001
# 6 -0.0001 0.0000 0.0001 -7.9835 0.0001 22.2044
#
#
#
# Elastic Compliance Matrix: (Units=1/GPa)
#
#
# Indices 1 2 3 4 5 6 
#
# 1 0.016046 -0.001281 -0.007674 0.000000 -0.005836 0.000000
# 2 -0.001281 0.012065 -0.000088 0.000000 0.003338 0.000000
# 3 -0.007674 -0.000088 0.011140 0.000000 0.008801 0.000000
# 4 0.000000 0.000000 0.000000 0.046451 0.000000 0.016701
# 5 -0.005836 0.003338 0.008801 0.000000 0.021708 0.000000
# 6 0.000000 0.000000 0.000000 0.016701 0.000000 0.051041
#
#
# Mechanical properties :
#
#
# Convention : Reuss Voigt Hill
#
# Bulk Modulus (GPa) = 47.24545 64.49067 55.86806
# Shear Modulus (GPa) = 27.23437 41.45867 34.34652
#
# Velocity S-wave (km/s) = 3.16411 3.90392 3.55332
# Velocity P-wave (km/s) = 5.54226 6.63537 6.11330
#
# Compressibility (1/GPa) = 0.02116606
#
# Stress axis : x y z
#
# Youngs Moduli (GPa) = 62.32200 82.88139 89.76467
#
# Poissons Ratio (x) = 0.10614 0.68883
# Poissons Ratio (y) = 0.07981 0.00792
# Poissons Ratio (z) = 0.47824 0.00732
#
# Static dielectric constant tensor:
#      x y z
#    x 2.109390 0.000000 0.000690 
#    y 0.000000 2.144310 0.000000 
#    z 0.000690 0.000000 2.249890 
# 
# From -- ./inp_files/242190.got.cif
#   From: 2010.05.17/outbox.cif.g08.bks.cpg/sg15_122_cif.got.tgz:242190.got - 2010.06.03 18:47:42.
