data_PCOD9301682
_publ_section_title
;
Structure prediction by ZEFSAII (Michael W. Deem and Ramdas Pophale) SiO2 
 PCOD9301682
Probable space group: C 2/C
;
_chemical_formula_sum "Si O2"
_cell_formula_units_Z 48
_cell_length_a 8.922672
_cell_length_b 15.568496
_cell_length_c 25.037796
_cell_angle_alpha 90.000000
_cell_angle_beta 135.964109
_cell_angle_gamma 90.000000
_cell_volume 2417.633675
_symmetry_space_group_name_H-M "C 2/C"
_symmetry_group_IT_number 15
_symmetry_cell_setting 'monoclinic'
loop_
_space_group_symop_operation_xyz
x,y,z
-x,y,1/2-z
-x,-y,-z
x,-y,1/2+z
1/2+x,1/2+y,z
1/2-x,1/2+y,1/2-z
1/2-x,1/2-y,-z
1/2+x,1/2-y,1/2+z
loop_
_atom_site_type_symbol
_atom_site_label
_atom_site_fract_x
_atom_site_fract_y
_atom_site_fract_z
Si Si1 0.495141 0.225481 0.579885
Si Si2 0.562345 0.535414 0.574688
Si Si3 0.531379 0.198764 0.113924
Si Si4 0.838092 0.624150 0.161631
Si Si5 0.119979 0.310681 0.333027
Si Si6 0.752898 0.640697 0.941967
O O1 0.250000 0.250000 0.500000
O O2 0.643980 0.307924 0.606037
O O3 0.511229 0.205714 0.646854
O O4 0.596226 0.146859 0.571417
O O5 0.500000 0.500000 0.500000
O O6 0.725744 0.466889 0.641337
O O7 0.689839 0.624738 0.600609
O O8 0.364173 0.556740 0.563961
O O9 0.478753 0.126936 0.143664
O O10 0.771744 0.221924 0.158973
O O11 0.434161 0.287481 0.113372
O O12 0.402149 0.175786 0.027769
O O13 0.000000 0.648256 0.250000
O O14 0.000000 0.346025 0.250000
#
# Coordination Sequence:
#
# PCOD9301682 Si02
#       6
#     8   8   8   8   8   8
#     4  11  21  38  63  93 119 157 211 259 302 371
#     4  11  21  38  60  84 115 163 206 246 300 376
#     4   9  17  34  57  81 113 153 197 242 293 354
#     4  11  22  37  59  88 123 158 201 253 315 366
#     4  11  22  37  59  88 121 155 200 255 312 365
#     4   9  18  34  58  85 112 150 201 248 291 355
#
# _framework density 19.854123000000001
#
# number of rings (size 3 to 8) (size 9 to 14) (size 15 to 20)
#    0.000    1.667    3.333    2.500    0.000    0.000 
#    0.000    5.000    0.000    2.000    0.000    0.000 
#    0.000    0.000    0.000    0.000    0.000    0.000 
#
# Total GULP energy -133780.984534 kJ/mol
# GULP energy per Si atom -5574.207689 kJ/mol
# Density = 1.980893 g / cm^3
# Si number density = 19.854123 Si / 1000 Ang^3
#
#
#
# Elastic Constant Matrix: (Units=GPa)
#
#
# Indices 1 2 3 4 5 6 
#
# 1 151.1430 35.1897 31.1519 0.0000 -23.3264 0.0000
# 2 35.1897 52.3310 5.2725 0.0000 7.4455 0.0000
# 3 31.1519 5.2725 70.5949 0.0000 -7.8861 0.0000
# 4 0.0000 0.0000 0.0000 26.7086 0.0000 8.9955
# 5 -23.3264 7.4455 -7.8861 0.0000 27.9939 0.0000
# 6 0.0000 0.0000 0.0000 8.9955 0.0000 32.9532
#
#
#
# Elastic Compliance Matrix: (Units=1/GPa)
#
#
# Indices 1 2 3 4 5 6 
#
# 1 0.010802 -0.008445 -0.002973 0.000000 0.010409 0.000000
# 2 -0.008445 0.026782 0.000149 0.000000 -0.014118 0.000000
# 3 -0.002973 0.000149 0.015678 0.000000 0.001900 0.000000
# 4 0.000000 0.000000 0.000000 0.041232 0.000000 -0.011255
# 5 0.010409 -0.014118 0.001900 0.000000 0.048686 0.000000
# 6 0.000000 0.000000 0.000000 -0.011255 0.000000 0.033419
#
#
# Mechanical properties :
#
#
# Convention : Reuss Voigt Hill
#
# Bulk Modulus (GPa) = 32.54775 46.36632 39.45704
# Shear Modulus (GPa) = 23.88038 31.02813 27.45426
#
# Velocity S-wave (km/s) = 3.47189 3.95752 3.72263
# Velocity P-wave (km/s) = 5.70097 6.65484 6.19629
#
# Compressibility (1/GPa) = 0.03072409
#
# Stress axis : x y z
#
# Youngs Moduli (GPa) = 92.57783 37.33909 63.78241
#
# Poissons Ratio (x) = 0.31533 0.18963
# Poissons Ratio (y) = 0.78182 -0.00952
# Poissons Ratio (z) = 0.27523 -0.00557
#
# Static dielectric constant tensor:
#      x y z
#    x 1.749030 0.000000 0.009900 
#    y 0.000000 1.722520 0.000000 
#    z 0.009900 0.000000 1.714630 
# 
# From -- ./inp_files/289310.got.cif
#   From: 2010.05.17/outbox.cif.g08.bks.cpg/sg15_145_cif.got.tgz:289310.got - 2010.06.03 18:47:42.
