data_PCOD9301628
_publ_section_title
;
Structure prediction by ZEFSAII (Michael W. Deem and Ramdas Pophale) SiO2 
 PCOD9301628
Probable space group: C 2/C
;
_chemical_formula_sum "Si O2"
_cell_formula_units_Z 28
_cell_length_a 10.510986
_cell_length_b 20.924590
_cell_length_c 5.189312
_cell_angle_alpha 90.000000
_cell_angle_beta 108.111324
_cell_angle_gamma 90.000000
_cell_volume 1084.779432
_symmetry_space_group_name_H-M "C 2/C"
_symmetry_group_IT_number 15
_symmetry_cell_setting 'monoclinic'
loop_
_space_group_symop_operation_xyz
x,y,z
-x,y,1/2-z
-x,-y,-z
x,-y,1/2+z
1/2+x,1/2+y,z
1/2-x,1/2+y,1/2-z
1/2-x,1/2-y,-z
1/2+x,1/2-y,1/2+z
loop_
_atom_site_type_symbol
_atom_site_label
_atom_site_fract_x
_atom_site_fract_y
_atom_site_fract_z
Si Si1 0.916599 0.897268 0.942740
Si Si2 0.143295 0.620601 0.476747
Si Si3 0.363724 0.249434 0.789435
Si Si4 0.000000 0.544897 0.750000
O O1 0.906293 0.820133 0.903440
O O2 0.000000 0.921884 0.750000
O O3 0.762043 0.914863 0.900196
O O4 0.000000 0.911809 0.250000
O O5 0.173204 0.695818 0.524625
O O6 0.000000 0.722606 0.750000
O O7 0.124310 0.590549 0.750158
O O8 0.000000 0.617075 0.250000
O O9 0.250000 0.250000 0.500000
O O10 0.000000 0.500000 0.500000
#
# Coordination Sequence:
#
# PCOD9301628 Si02
#       4
#     8   8   8   4
#     4  11  25  41  64 102 150 185 219 269 347 436
#     4  12  24  43  75 100 141 188 245 293 351 410
#     4  11  21  37  64 102 148 188 230 270 340 431
#     4  12  28  48  74 106 134 178 250 322 356 388
#
# _framework density 25.811698
#
# number of rings (size 3 to 8) (size 9 to 14) (size 15 to 20)
#    0.000    0.571    2.857    6.857    4.000    0.000 
#    0.000    0.000    0.000    5.143    0.000    0.000 
#    0.000    0.000    0.000    0.000    0.000    0.000 
#
# Total GULP energy -78318.440654 kJ/mol
# GULP energy per Si atom -5594.174332 kJ/mol
# Density = 2.575295 g / cm^3
# Si number density = 25.811698 Si / 1000 Ang^3
#
#
#
# Elastic Constant Matrix: (Units=GPa)
#
#
# Indices 1 2 3 4 5 6 
#
# 1 241.0717 -9.0392 85.0216 0.0000 -12.9739 0.0000
# 2 -9.0392 75.7310 6.0355 0.0000 -3.3800 0.0000
# 3 85.0216 6.0355 176.3971 0.0000 6.1116 0.0000
# 4 0.0000 0.0000 0.0000 26.9314 0.0000 -20.5063
# 5 -12.9739 -3.3800 6.1116 0.0000 63.2825 0.0000
# 6 0.0000 0.0000 0.0000 -20.5063 0.0000 18.4378
#
#
#
# Elastic Compliance Matrix: (Units=1/GPa)
#
#
# Indices 1 2 3 4 5 6 
#
# 1 0.005158 0.000880 -0.002563 0.000000 0.001352 0.000000
# 2 0.000880 0.013427 -0.000918 0.000000 0.000986 0.000000
# 3 -0.002563 -0.000918 0.006979 0.000000 -0.001248 0.000000
# 4 0.000000 0.000000 0.000000 0.242458 0.000000 0.269659
# 5 0.001352 0.000986 -0.001248 0.000000 0.016253 0.000000
# 6 0.000000 0.000000 0.000000 0.269659 0.000000 0.354149
#
#
# Mechanical properties :
#
#
# Convention : Reuss Voigt Hill
#
# Bulk Modulus (GPa) = 49.10978 73.02617 61.06798
# Shear Modulus (GPa) = 7.68744 49.14246 28.41495
#
# Velocity S-wave (km/s) = 1.72764 4.36808 3.32151
# Velocity P-wave (km/s) = 4.80074 7.33441 6.19841
#
# Compressibility (1/GPa) = 0.02036254
#
# Stress axis : x y z
#
# Youngs Moduli (GPa) = 193.88020 74.47754 143.28669
#
# Poissons Ratio (x) = -0.06556 0.36724
# Poissons Ratio (y) = -0.17066 0.13151
# Poissons Ratio (z) = 0.49691 0.06836
#
# Static dielectric constant tensor:
#      x y z
#    x 2.820290 0.000000 -1.314820 
#    y 0.000000 2.108170 0.000000 
#    z -1.314820 0.000000 4.026370 
# 
# From -- ./inp_files/4520.got.cif
#   From: 2010.05.17/outbox.cif.g08.bks.cpg/sg15_3_cif.got.tgz:4520.got - 2010.06.03 18:47:42.
