data_PCOD9301940
_publ_section_title
;
Structure prediction by ZEFSAII (Michael W. Deem and Ramdas Pophale) SiO2 
 PCOD9301940
Probable space group: C 2/C
;
_chemical_formula_sum "Si O2"
_cell_formula_units_Z 44
_cell_length_a 20.382675
_cell_length_b 11.795883
_cell_length_c 27.695893
_cell_angle_alpha 90.000000
_cell_angle_beta 160.273508
_cell_angle_gamma 90.000000
_cell_volume 2247.605434
_symmetry_space_group_name_H-M "C 2/C"
_symmetry_group_IT_number 15
_symmetry_cell_setting 'monoclinic'
loop_
_space_group_symop_operation_xyz
x,y,z
-x,y,1/2-z
-x,-y,-z
x,-y,1/2+z
1/2+x,1/2+y,z
1/2-x,1/2+y,1/2-z
1/2-x,1/2-y,-z
1/2+x,1/2-y,1/2+z
loop_
_atom_site_type_symbol
_atom_site_label
_atom_site_fract_x
_atom_site_fract_y
_atom_site_fract_z
Si Si1 0.004628 0.185786 0.696486
Si Si2 0.500000 0.079380 0.750000
Si Si3 0.419518 0.915809 0.604729
Si Si4 0.005624 0.421506 0.077167
Si Si5 0.368332 0.297510 0.535475
Si Si6 0.202253 0.977651 0.789419
O O1 0.797810 0.131435 0.538671
O O2 0.044665 0.300781 0.694982
O O3 0.000000 0.213891 0.750000
O O4 0.151481 0.086167 0.786744
O O5 0.305292 0.154603 0.618296
O O6 0.475680 0.000307 0.686514
O O7 0.432331 0.984530 0.564336
O O8 0.209071 0.469122 0.197944
O O9 0.988880 0.302724 0.093521
O O10 0.866708 0.412795 0.933998
O O11 0.250000 0.250000 0.500000
O O12 0.517087 0.397303 0.652890
#
# Coordination Sequence:
#
# PCOD9301940 Si02
#       6
#     8   4   8   8   8   8
#     4  11  21  40  68  92 126 171 219 269 325 391
#     4  12  22  40  64 106 128 164 234 268 328 386
#     4  11  23  39  64  97 127 165 220 274 321 392
#     4  11  25  44  64  97 134 173 220 270 332 398
#     4  12  24  43  71  97 133 177 226 276 328 398
#     4  11  25  44  67  96 134 175 219 269 338 394
#
# _framework density 19.57639
#
# number of rings (size 3 to 8) (size 9 to 14) (size 15 to 20)
#    0.000    0.727    6.364    1.091    2.545    0.000 
#    0.000    0.909    0.000    0.000    0.000    0.000 
#    0.000    0.000    0.000    0.000    0.000    0.000 
#
# Total GULP energy -122807.103015 kJ/mol
# GULP energy per Si atom -5582.141046 kJ/mol
# Density = 1.953183 g / cm^3
# Si number density = 19.576390 Si / 1000 Ang^3
#
#
#
# Elastic Constant Matrix: (Units=GPa)
#
#
# Indices 1 2 3 4 5 6 
#
# 1 79.1090 39.4460 21.7691 -0.0107 -2.9172 0.0018
# 2 39.4460 124.1506 33.2455 -0.0209 -2.3528 0.0035
# 3 21.7691 33.2455 76.9331 -0.0426 -4.3131 0.0138
# 4 -0.0107 -0.0209 -0.0426 -122.8862 -0.0070 46.2683
# 5 -2.9172 -2.3528 -4.3131 -0.0070 23.9160 0.0026
# 6 0.0018 0.0035 0.0138 46.2683 0.0026 17.6927
#
#
#
# Elastic Compliance Matrix: (Units=1/GPa)
#
#
# Indices 1 2 3 4 5 6 
#
# 1 0.015473 -0.004229 -0.002494 0.000000 0.001022 0.000000
# 2 -0.004229 0.010266 -0.003245 0.000000 -0.000091 0.000001
# 3 -0.002494 -0.003245 0.015225 -0.000004 0.002122 0.000000
# 4 0.000000 0.000000 -0.000004 -0.004100 -0.000003 0.010723
# 5 0.001022 -0.000091 0.002122 -0.000003 0.042312 0.000000
# 6 0.000000 0.000001 0.000000 0.010723 0.000000 0.028479
#
#
# Mechanical properties :
#
#
# Convention : Reuss Voigt Hill
#
# Bulk Modulus (GPa) = 47.55242 52.12376 49.83809
# Shear Modulus (GPa) = 37.14745 -3.87338 16.63703
#
# Velocity S-wave (km/s) = 4.36083 -1.40815 2.91838
# Velocity P-wave (km/s) = 7.04977 4.90304 6.07203
#
# Compressibility (1/GPa) = 0.02102943
#
# Stress axis : x y z
#
# Youngs Moduli (GPa) = 64.62681 97.41289 65.68173
#
# Poissons Ratio (x) = 0.41198 0.16378
# Poissons Ratio (y) = 0.27332 0.21310
# Poissons Ratio (z) = 0.16115 0.31606
#
# Static dielectric constant tensor:
#      x y z
#    x 1.678380 0.000000 0.005850 
#    y 0.000000 1.708370 0.000000 
#    z 0.005850 0.000000 1.708110 
# 
# From -- ./inp_files/110711.got.cif
#   From: 2010.05.17/outbox.cif.g08.bks.cpg/sg15_56_cif.got.tgz:110711.got - 2010.06.03 18:47:42.
