data_PCOD9301316
_publ_section_title
;
Structure prediction by ZEFSAII (Michael W. Deem and Ramdas Pophale) SiO2 
 PCOD9301316
Probable space group: C 2/C
;
_chemical_formula_sum "Si O2"
_cell_formula_units_Z 48
_cell_length_a 10.689658
_cell_length_b 9.144952
_cell_length_c 24.138596
_cell_angle_alpha 90.000000
_cell_angle_beta 76.522063
_cell_angle_gamma 90.000000
_cell_volume 2294.715655
_symmetry_space_group_name_H-M "C 2/C"
_symmetry_group_IT_number 15
_symmetry_cell_setting 'monoclinic'
loop_
_space_group_symop_operation_xyz
x,y,z
-x,y,1/2-z
-x,-y,-z
x,-y,1/2+z
1/2+x,1/2+y,z
1/2-x,1/2+y,1/2-z
1/2-x,1/2-y,-z
1/2+x,1/2-y,1/2+z
loop_
_atom_site_type_symbol
_atom_site_label
_atom_site_fract_x
_atom_site_fract_y
_atom_site_fract_z
Si Si1 0.715201 0.471721 0.606398
Si Si2 0.712047 0.858644 0.116544
Si Si3 0.140059 0.869652 0.212385
Si Si4 0.344602 0.023505 0.268379
Si Si5 0.600152 0.380571 0.505167
Si Si6 0.993747 0.420482 0.059246
O O1 0.684202 0.310930 0.634023
O O2 0.634067 0.592250 0.647643
O O3 0.689814 0.448447 0.543717
O O4 0.859319 0.529757 0.597793
O O5 0.602480 0.945403 0.093790
O O6 0.723709 0.947238 0.171668
O O7 0.823859 0.842605 0.058746
O O8 0.162603 0.698905 0.223717
O O9 0.000000 0.911076 0.250000
O O10 0.257910 0.963212 0.226580
O O11 0.500000 0.987128 0.250000
O O12 0.500000 0.500000 0.500000
O O13 0.522669 0.247028 0.540113
O O14 0.000000 0.500000 0.000000
#
# Coordination Sequence:
#
# PCOD9301316 Si02
#       6
#     8   8   8   8   8   8
#     4  11  23  43  66  94 130 175 216 269 328 392
#     4  11  23  41  67  94 131 171 219 270 323 396
#     4  11  27  46  70  99 132 174 229 279 333 399
#     4  11  26  48  69 100 132 176 227 279 337 394
#     4  11  25  38  60 102 134 168 214 265 328 395
#     4  11  20  41  64  90 131 172 214 256 328 390
#
# _framework density 20.917625000000001
#
# number of rings (size 3 to 8) (size 9 to 14) (size 15 to 20)
#    0.000    1.000    3.333    3.000    4.667    7.333 
#    0.000    0.000    0.000    0.000    0.000    0.000 
#    0.000    0.000    0.000    0.000    0.000    0.000 
#
# Total GULP energy -133852.891621 kJ/mol
# GULP energy per Si atom -5577.203818 kJ/mol
# Density = 2.087002 g / cm^3
# Si number density = 20.917625 Si / 1000 Ang^3
#
#
#
# Elastic Constant Matrix: (Units=GPa)
#
#
# Indices 1 2 3 4 5 6 
#
# 1 77.8715 38.6589 6.7608 0.0000 -3.1639 0.0000
# 2 38.6589 58.6997 27.7496 0.0000 5.8330 0.0000
# 3 6.7608 27.7496 96.0284 0.0000 -1.8205 0.0000
# 4 0.0000 0.0000 0.0000 34.7426 0.0000 2.8879
# 5 -3.1639 5.8330 -1.8205 0.0000 26.6196 0.0000
# 6 0.0000 0.0000 0.0000 2.8879 0.0000 33.6314
#
#
#
# Elastic Compliance Matrix: (Units=1/GPa)
#
#
# Indices 1 2 3 4 5 6 
#
# 1 0.020598 -0.015684 0.003198 0.000000 0.006104 0.000000
# 2 -0.015684 0.032284 -0.008405 0.000000 -0.009513 0.000000
# 3 0.003198 -0.008405 0.012676 0.000000 0.003089 0.000000
# 4 0.000000 0.000000 0.000000 0.028990 0.000000 -0.002489
# 5 0.006104 -0.009513 0.003089 0.000000 0.040588 0.000000
# 6 0.000000 0.000000 0.000000 -0.002489 0.000000 0.029948
#
#
# Mechanical properties :
#
#
# Convention : Reuss Voigt Hill
#
# Bulk Modulus (GPa) = 42.06088 42.10423 42.08256
# Shear Modulus (GPa) = 23.27837 29.62742 26.45290
#
# Velocity S-wave (km/s) = 3.33957 3.76757 3.56001
# Velocity P-wave (km/s) = 5.91793 6.25287 6.08770
#
# Compressibility (1/GPa) = 0.02377506
#
# Stress axis : x y z
#
# Youngs Moduli (GPa) = 48.54783 30.97511 78.88972
#
# Poissons Ratio (x) = 0.48581 -0.25227
# Poissons Ratio (y) = 0.76142 0.66309
# Poissons Ratio (z) = -0.15524 0.26036
#
# Static dielectric constant tensor:
#      x y z
#    x 1.804980 0.000000 0.005750 
#    y 0.000000 1.740960 0.000000 
#    z 0.005750 0.000000 1.778090 
# 
# From -- ./inp_files/267622.got.cif
#   From: 2010.05.17/outbox.cif.g08.bks.cpg/sg15_134_cif.got.tgz:267622.got - 2010.06.03 18:47:42.
