data_PCOD9301479
_publ_section_title
;
Structure prediction by ZEFSAII (Michael W. Deem and Ramdas Pophale) SiO2 
 PCOD9301479
Probable space group: C 2/C
;
_chemical_formula_sum "Si O2"
_cell_formula_units_Z 40
_cell_length_a 22.791851
_cell_length_b 19.104677
_cell_length_c 24.836066
_cell_angle_alpha 90.000000
_cell_angle_beta 11.087003
_cell_angle_gamma 90.000000
_cell_volume 2079.600683
_symmetry_space_group_name_H-M "C 2/C"
_symmetry_group_IT_number 15
_symmetry_cell_setting 'monoclinic'
loop_
_space_group_symop_operation_xyz
x,y,z
-x,y,1/2-z
-x,-y,-z
x,-y,1/2+z
1/2+x,1/2+y,z
1/2-x,1/2+y,1/2-z
1/2-x,1/2-y,-z
1/2+x,1/2-y,1/2+z
loop_
_atom_site_type_symbol
_atom_site_label
_atom_site_fract_x
_atom_site_fract_y
_atom_site_fract_z
Si Si1 0.743972 0.477480 0.650113
Si Si2 0.852018 0.648527 0.438696
Si Si3 0.774273 0.065617 0.216772
Si Si4 0.199667 0.203429 0.371938
Si Si5 0.031084 0.512308 0.781539
O O1 0.758251 0.427777 0.689631
O O2 0.952012 0.542670 0.481233
O O3 0.884690 0.452000 0.466449
O O4 0.392356 0.498251 0.962340
O O5 0.000000 0.670879 0.250000
O O6 0.060777 0.678265 0.298111
O O7 0.873949 0.563836 0.421974
O O8 0.500000 0.667606 0.750000
O O9 0.868240 0.137230 0.104617
O O10 0.000000 0.000000 0.000000
O O11 0.884594 0.234026 0.677295
O O12 0.000000 0.545643 0.750000
#
# Coordination Sequence:
#
# PCOD9301479 Si02
#       5
#     8   8   8   8   8
#     4  11  21  36  62  84 115 159 201 245 312 364
#     4  11  22  37  57  76 118 173 215 245 284 338
#     4  11  24  41  66  84 120 162 216 247 314 372
#     4  12  28  40  59  87 124 158 213 264 300 346
#     4  11  21  34  58  91 121 151 204 257 301 344
#
# _framework density 19.234461
#
# number of rings (size 3 to 8) (size 9 to 14) (size 15 to 20)
#    0.000    0.800    4.000    4.200    8.400    2.400 
#    0.000    0.000    0.000    0.000    0.000    0.000 
#    0.000   16.000    0.000    0.000    0.000    0.000 
#
# Total GULP energy -111743.267866 kJ/mol
# GULP energy per Si atom -5587.163393 kJ/mol
# Density = 1.919068 g / cm^3
# Si number density = 19.234461 Si / 1000 Ang^3
#
#
#
# Elastic Constant Matrix: (Units=GPa)
#
#
# Indices 1 2 3 4 5 6 
#
# 1 164.1055 31.0803 24.1161 -0.0450 22.8324 -0.1875
# 2 31.0803 33.2130 -13.1110 -0.2542 1.1772 0.0148
# 3 24.1161 -13.1110 98.6452 0.5467 6.2007 -0.4831
# 4 -0.0450 -0.2542 0.5467 24.2860 -0.2486 11.3660
# 5 22.8324 1.1772 6.2007 -0.2486 32.8118 -0.0277
# 6 -0.1875 0.0148 -0.4831 11.3660 -0.0277 27.5242
#
#
#
# Elastic Compliance Matrix: (Units=1/GPa)
#
#
# Indices 1 2 3 4 5 6 
#
# 1 0.009131 -0.009604 -0.003168 -0.000088 -0.005411 0.000042
# 2 -0.009604 0.042004 0.007694 0.000326 0.003725 -0.000084
# 3 -0.003168 0.007694 0.011959 -0.000352 -0.000334 0.000329
# 4 -0.000088 0.000326 -0.000352 0.051064 0.000485 -0.021093
# 5 -0.005411 0.003725 -0.000334 0.000485 0.034175 -0.000211
# 6 0.000042 -0.000084 0.000329 -0.021093 -0.000211 0.045048
#
#
# Mechanical properties :
#
#
# Convention : Reuss Voigt Hill
#
# Bulk Modulus (GPa) = 18.88976 42.23717 30.56347
# Shear Modulus (GPa) = 22.60574 33.84963 28.22769
#
# Velocity S-wave (km/s) = 3.43194 4.19960 3.83503
# Velocity P-wave (km/s) = 5.05435 6.74702 5.96107
#
# Compressibility (1/GPa) = 0.05293872
#
# Stress axis : x y z
#
# Youngs Moduli (GPa) = 109.51633 23.80722 83.61875
#
# Poissons Ratio (x) = 0.22865 0.26490
# Poissons Ratio (y) = 1.05181 -0.64340
# Poissons Ratio (z) = 0.34694 -0.18318
#
# Static dielectric constant tensor:
#      x y z
#    x 1.753570 -0.000060 0.023110 
#    y -0.000060 1.665510 -0.000040 
#    z 0.023110 -0.000040 1.661460 
# 
# From -- ./inp_files/302458.got.cif
#   From: 2010.05.17/outbox.cif.g08.bks.cpg/sg15_152_cif.got.tgz:302458.got - 2010.06.03 18:47:42.
