data_PCOD9301352
_publ_section_title
;
Structure prediction by ZEFSAII (Michael W. Deem and Ramdas Pophale) SiO2 
 PCOD9301352
Probable space group: C 2/C
;
_chemical_formula_sum "Si O2"
_cell_formula_units_Z 60
_cell_length_a 22.598219
_cell_length_b 15.139327
_cell_length_c 15.827610
_cell_angle_alpha 90.000000
_cell_angle_beta 31.382627
_cell_angle_gamma 90.000000
_cell_volume 2819.850390
_symmetry_space_group_name_H-M "C 2/C"
_symmetry_group_IT_number 15
_symmetry_cell_setting 'monoclinic'
loop_
_space_group_symop_operation_xyz
x,y,z
-x,y,1/2-z
-x,-y,-z
x,-y,1/2+z
1/2+x,1/2+y,z
1/2-x,1/2+y,1/2-z
1/2-x,1/2-y,-z
1/2+x,1/2-y,1/2+z
loop_
_atom_site_type_symbol
_atom_site_label
_atom_site_fract_x
_atom_site_fract_y
_atom_site_fract_z
Si Si1 0.019872 0.629048 0.129840
Si Si2 0.593724 0.954155 0.305479
Si Si3 0.208278 0.152382 0.257333
Si Si4 0.579141 0.190701 0.412863
Si Si5 0.000000 0.891542 0.750000
Si Si6 0.232685 0.534695 0.809383
Si Si7 0.242444 0.191132 0.929561
Si Si8 0.476183 0.382791 0.967392
O O1 0.000000 0.654537 0.250000
O O2 0.952882 0.538159 0.187079
O O3 0.970669 0.697151 0.120874
O O4 0.151956 0.604765 0.954332
O O5 0.491784 0.891254 0.461630
O O6 0.672117 0.974889 0.291484
O O7 0.675806 0.890974 0.154326
O O8 0.285928 0.171894 0.244775
O O9 0.218312 0.244329 0.193911
O O10 0.078057 0.120653 0.412242
O O11 0.266644 0.062549 0.149589
O O12 0.552237 0.277662 0.499937
O O13 0.114394 0.841598 0.585759
O O14 0.979051 0.924662 0.676955
O O15 0.359792 0.570761 0.638851
O O16 0.250000 0.250000 0.000000
#
# Coordination Sequence:
#
# PCOD9301352 Si02
#       8
#     8   8   8   8   4   8   8   8
#     4  11  25  42  69  97 123 172 235 289 327 382
#     4  11  20  42  64  92 132 169 214 278 334 398
#     4  12  22  39  63  94 130 184 217 247 334 416
#     4  11  21  42  66  93 128 170 225 269 342 391
#     4  12  22  38  58 104 142 166 212 272 336 394
#     4  11  23  43  63  93 134 176 219 268 335 402
#     4  12  24  35  61 101 138 164 214 269 335 399
#     4  12  25  40  66  97 138 181 212 275 335 414
#
# _framework density 21.277725
#
# number of rings (size 3 to 8) (size 9 to 14) (size 15 to 20)
#    0.000    0.533    8.000    1.200    3.733    0.000 
#    1.200    0.667    0.000    0.000    0.000    0.000 
#    0.000    0.000    0.000    0.000    0.000    0.000 
#
# Total GULP energy -167013.991460 kJ/mol
# GULP energy per Si atom -5567.133049 kJ/mol
# Density = 2.122930 g / cm^3
# Si number density = 21.277725 Si / 1000 Ang^3
#
#
#
# Elastic Constant Matrix: (Units=GPa)
#
#
# Indices 1 2 3 4 5 6 
#
# 1 68.1720 -7.5319 43.3154 0.0000 -10.7328 0.0000
# 2 -7.5319 38.9625 10.1202 0.0000 -7.4144 0.0000
# 3 43.3154 10.1202 114.7451 0.0000 -23.2411 0.0000
# 4 0.0000 0.0000 0.0000 44.5724 0.0000 6.1983
# 5 -10.7328 -7.4144 -23.2411 0.0000 47.5306 0.0000
# 6 0.0000 0.0000 0.0000 6.1983 0.0000 11.9111
#
#
#
# Elastic Compliance Matrix: (Units=1/GPa)
#
#
# Indices 1 2 3 4 5 6 
#
# 1 0.020775 0.006443 -0.008055 0.000000 0.001758 0.000000
# 2 0.006443 0.028737 -0.004178 0.000000 0.003895 0.000000
# 3 -0.008055 -0.004178 0.012901 0.000000 0.003838 0.000000
# 4 0.000000 0.000000 0.000000 0.024186 0.000000 -0.012586
# 5 0.001758 0.003895 0.003838 0.000000 0.023920 0.000000
# 6 0.000000 0.000000 0.000000 -0.012586 0.000000 0.090505
#
#
# Mechanical properties :
#
#
# Convention : Reuss Voigt Hill
#
# Bulk Modulus (GPa) = 19.67170 34.85412 27.26291
# Shear Modulus (GPa) = 21.78184 32.53453 27.15818
#
# Velocity S-wave (km/s) = 3.20299 3.91454 3.57650
# Velocity P-wave (km/s) = 4.79000 6.07022 5.46771
#
# Compressibility (1/GPa) = 0.05083446
#
# Stress axis : x y z
#
# Youngs Moduli (GPa) = 48.13448 34.79782 77.51129
#
# Poissons Ratio (x) = -0.22419 0.62433
# Poissons Ratio (y) = -0.31012 0.32382
# Poissons Ratio (z) = 0.38771 0.14538
#
# Static dielectric constant tensor:
#      x y z
#    x 1.833240 0.000000 -0.011230 
#    y 0.000000 1.746350 0.000000 
#    z -0.011230 0.000000 1.771840 
# 
# From -- ./inp_files/219591.got.cif
#   From: 2010.05.17/outbox.cif.g08.bks.cpg/sg15_110_cif.got.tgz:219591.got - 2010.06.03 18:47:42.
