data_PCOD9301508
_publ_section_title
;
Structure prediction by ZEFSAII (Michael W. Deem and Ramdas Pophale) SiO2 
 PCOD9301508
Probable space group: C 2/C
;
_chemical_formula_sum "Si O2"
_cell_formula_units_Z 64
_cell_length_a 20.080287
_cell_length_b 16.029902
_cell_length_c 12.707963
_cell_angle_alpha 90.000000
_cell_angle_beta 47.370455
_cell_angle_gamma 90.000000
_cell_volume 3009.579273
_symmetry_space_group_name_H-M "C 2/C"
_symmetry_group_IT_number 15
_symmetry_cell_setting 'monoclinic'
loop_
_space_group_symop_operation_xyz
x,y,z
-x,y,1/2-z
-x,-y,-z
x,-y,1/2+z
1/2+x,1/2+y,z
1/2-x,1/2+y,1/2-z
1/2-x,1/2-y,-z
1/2+x,1/2-y,1/2+z
loop_
_atom_site_type_symbol
_atom_site_label
_atom_site_fract_x
_atom_site_fract_y
_atom_site_fract_z
Si Si1 0.802334 0.582197 0.629102
Si Si2 0.740611 0.051748 0.171385
Si Si3 0.433278 0.227852 0.569392
Si Si4 0.429611 0.632046 0.898026
Si Si5 0.183525 0.800052 0.146869
Si Si6 0.358840 0.803210 0.605171
Si Si7 0.896212 0.294168 0.335184
Si Si8 0.104054 0.507339 0.646204
O O1 0.757870 0.539268 0.777283
O O2 0.869062 0.659774 0.581337
O O3 0.725797 0.611490 0.630161
O O4 0.858997 0.512186 0.508377
O O5 0.702664 0.118801 0.295494
O O6 0.662818 0.045086 0.165873
O O7 0.838496 0.081228 0.025635
O O8 0.447674 0.310285 0.481893
O O9 0.531873 0.187363 0.492435
O O10 0.382510 0.245501 0.735061
O O11 0.500000 0.578384 0.750000
O O12 0.404300 0.695232 0.830148
O O13 0.169410 0.761912 0.275699
O O14 0.250000 0.750000 0.000000
O O15 0.344527 0.775273 0.499593
O O16 0.889965 0.394957 0.331539
O O17 0.000000 0.272643 0.250000
O O18 0.000000 0.482485 0.750000
#
# Coordination Sequence:
#
# PCOD9301508 Si02
#       8
#     8   8   8   8   8   8   8   8
#     4  12  23  37  62  97 133 169 216 264 334 399
#     4  12  24  40  63  96 135 171 216 273 335 390
#     4  11  22  37  65  98 126 172 220 263 331 404
#     4  12  25  44  68  94 126 175 232 283 318 378
#     4  12  22  40  66  95 128 170 227 277 322 384
#     4  11  21  38  63  93 133 171 209 275 333 390
#     4   9  20  36  56  91 134 163 195 252 330 408
#     4  11  21  35  59  95 136 167 196 254 334 408
#
# _framework density 21.265429999999999
#
# number of rings (size 3 to 8) (size 9 to 14) (size 15 to 20)
#    0.000    0.750    7.500    0.750    0.000    1.500 
#    0.000    4.375    0.000    0.750    0.000    0.000 
#    0.000    0.000    0.000    0.000    0.000    0.000 
#
# Total GULP energy -178272.249071 kJ/mol
# GULP energy per Si atom -5571.007783 kJ/mol
# Density = 2.121703 g / cm^3
# Si number density = 21.265430 Si / 1000 Ang^3
#
#
#
# Elastic Constant Matrix: (Units=GPa)
#
#
# Indices 1 2 3 4 5 6 
#
# 1 69.6205 13.2022 50.4457 0.0000 4.8301 0.0000
# 2 13.2022 31.1132 35.4828 0.0000 -2.4454 0.0000
# 3 50.4457 35.4828 181.6216 0.0000 13.7227 0.0000
# 4 0.0000 0.0000 0.0000 25.0704 0.0000 10.0881
# 5 4.8301 -2.4454 13.7227 0.0000 35.7915 0.0000
# 6 0.0000 0.0000 0.0000 10.0881 0.0000 21.6000
#
#
#
# Elastic Compliance Matrix: (Units=1/GPa)
#
#
# Indices 1 2 3 4 5 6 
#
# 1 0.018163 -0.002711 -0.004445 0.000000 -0.000932 0.000000
# 2 -0.002711 0.043094 -0.008152 0.000000 0.006436 0.000000
# 3 -0.004445 -0.008152 0.008578 0.000000 -0.003246 0.000000
# 4 0.000000 0.000000 0.000000 0.049119 0.000000 -0.022940
# 5 -0.000932 0.006436 -0.003246 0.000000 0.029750 0.000000
# 6 0.000000 0.000000 0.000000 -0.022940 0.000000 0.057010
#
#
# Mechanical properties :
#
#
# Convention : Reuss Voigt Hill
#
# Bulk Modulus (GPa) = 25.49794 53.40184 39.44989
# Shear Modulus (GPa) = 20.04776 28.70736 24.37756
#
# Velocity S-wave (km/s) = 3.07374 3.67816 3.38945
# Velocity P-wave (km/s) = 4.96120 6.57305 5.82317
#
# Compressibility (1/GPa) = 0.03921886
#
# Stress axis : x y z
#
# Youngs Moduli (GPa) = 55.05720 23.20486 116.57151
#
# Poissons Ratio (x) = 0.06292 0.51812
# Poissons Ratio (y) = 0.14929 0.95033
# Poissons Ratio (z) = 0.24471 0.18917
#
# Static dielectric constant tensor:
#      x y z
#    x 1.810230 0.000000 -0.252140 
#    y 0.000000 1.822090 0.000000 
#    z -0.252140 0.000000 1.809370 
# 
# From -- ./inp_files/113671.got.cif
#   From: 2010.05.17/outbox.cif.g08.bks.cpg/sg15_57_cif.got.tgz:113671.got - 2010.06.03 18:47:42.
