data_PCOD9301302
_publ_section_title
;
Structure prediction by ZEFSAII (Michael W. Deem and Ramdas Pophale) SiO2 
 PCOD9301302
Probable space group: C 2/C
;
_chemical_formula_sum "Si O2"
_cell_formula_units_Z 48
_cell_length_a 14.591189
_cell_length_b 11.693723
_cell_length_c 15.465596
_cell_angle_alpha 90.000000
_cell_angle_beta 109.894997
_cell_angle_gamma 90.000000
_cell_volume 2481.331702
_symmetry_space_group_name_H-M "C 2/C"
_symmetry_group_IT_number 15
_symmetry_cell_setting 'monoclinic'
loop_
_space_group_symop_operation_xyz
x,y,z
-x,y,1/2-z
-x,-y,-z
x,-y,1/2+z
1/2+x,1/2+y,z
1/2-x,1/2+y,1/2-z
1/2-x,1/2-y,-z
1/2+x,1/2-y,1/2+z
loop_
_atom_site_type_symbol
_atom_site_label
_atom_site_fract_x
_atom_site_fract_y
_atom_site_fract_z
Si Si1 0.182533 0.785156 0.559113
Si Si2 0.165568 0.424840 0.485432
Si Si3 0.696089 0.454091 0.121747
Si Si4 0.454488 0.259581 0.446452
Si Si5 0.709186 0.937653 0.162565
Si Si6 0.512705 0.052878 0.152848
O O1 0.250000 0.750000 0.500000
O O2 0.215368 0.695370 0.642163
O O3 0.067409 0.769480 0.506818
O O4 0.194501 0.916402 0.587980
O O5 0.227508 0.395159 0.420295
O O6 0.106824 0.317093 0.504949
O O7 0.228067 0.484153 0.583015
O O8 0.084938 0.517762 0.429201
O O9 0.597554 0.380822 0.082472
O O10 0.729439 0.459448 0.231822
O O11 0.454408 0.180575 0.360845
O O12 0.597902 0.969663 0.148747
O O13 0.500000 0.040094 0.250000
#
# Coordination Sequence:
#
# PCOD9301302 Si02
#       6
#     8   8   8   8   8   8
#     4  12  24  46  70  93 135 179 217 271 334 397
#     4  11  21  45  65  96 126 179 220 270 315 392
#     4  12  26  40  69  97 136 173 211 274 344 392
#     4  11  24  42  66  98 136 166 220 278 331 385
#     4  11  23  40  68  98 127 168 229 269 317 387
#     4  11  20  40  72  96 124 173 235 269 314 390
#
# _framework density 19.344450999999999
#
# number of rings (size 3 to 8) (size 9 to 14) (size 15 to 20)
#    0.000    0.667    6.667    2.000    4.667    0.000 
#    0.000    0.000    0.000    0.000    0.000    0.000 
#    0.000    0.000    0.000    0.000    0.000    0.000 
#
# Total GULP energy -134030.597272 kJ/mol
# GULP energy per Si atom -5584.608220 kJ/mol
# Density = 1.930042 g / cm^3
# Si number density = 19.344451 Si / 1000 Ang^3
#
#
#
# Elastic Constant Matrix: (Units=GPa)
#
#
# Indices 1 2 3 4 5 6 
#
# 1 50.1345 35.6253 26.6727 0.0000 2.6895 0.0000
# 2 35.6253 118.1420 48.3477 0.0000 2.9223 0.0000
# 3 26.6727 48.3477 115.8855 0.0000 -9.6534 0.0000
# 4 0.0000 0.0000 0.0000 21.4051 0.0000 1.3473
# 5 2.6895 2.9223 -9.6534 0.0000 26.8255 0.0000
# 6 0.0000 0.0000 0.0000 1.3473 0.0000 27.3828
#
#
#
# Elastic Compliance Matrix: (Units=1/GPa)
#
#
# Indices 1 2 3 4 5 6 
#
# 1 0.026684 -0.006437 -0.003733 0.000000 -0.003317 0.000000
# 2 -0.006437 0.011957 -0.003672 0.000000 -0.001979 0.000000
# 3 -0.003733 -0.003672 0.011427 0.000000 0.004886 0.000000
# 4 0.000000 0.000000 0.000000 0.046863 0.000000 -0.002306
# 5 -0.003317 -0.001979 0.004886 0.000000 0.039585 0.000000
# 6 0.000000 0.000000 0.000000 -0.002306 0.000000 0.036633
#
#
# Mechanical properties :
#
#
# Convention : Reuss Voigt Hill
#
# Bulk Modulus (GPa) = 44.67109 56.16150 50.41630
# Shear Modulus (GPa) = 24.00464 26.69044 25.34754
#
# Velocity S-wave (km/s) = 3.52647 3.71852 3.62377
# Velocity P-wave (km/s) = 6.30269 6.89434 6.60514
#
# Compressibility (1/GPa) = 0.02238584
#
# Stress axis : x y z
#
# Youngs Moduli (GPa) = 37.47533 83.63321 87.51045
#
# Poissons Ratio (x) = 0.53835 0.32664
# Poissons Ratio (y) = 0.24123 0.32131
# Poissons Ratio (z) = 0.13988 0.30708
#
# Static dielectric constant tensor:
#      x y z
#    x 1.685640 0.000000 -0.011030 
#    y 0.000000 1.690460 0.000000 
#    z -0.011030 0.000000 1.667570 
# 
# From -- ./inp_files/152164.got.cif
#   From: 2010.05.17/outbox.cif.g08.bks.cpg/sg15_77_cif.got.tgz:152164.got - 2010.06.03 18:47:42.
