data_PCOD9301546
_publ_section_title
;
Structure prediction by ZEFSAII (Michael W. Deem and Ramdas Pophale) SiO2 
 PCOD9301546
Probable space group: C 2/C
;
_chemical_formula_sum "Si O2"
_cell_formula_units_Z 40
_cell_length_a 4.972878
_cell_length_b 21.663975
_cell_length_c 22.938995
_cell_angle_alpha 90.000000
_cell_angle_beta 130.006154
_cell_angle_gamma 90.000000
_cell_volume 1892.932634
_symmetry_space_group_name_H-M "C 2/C"
_symmetry_group_IT_number 15
_symmetry_cell_setting 'monoclinic'
loop_
_space_group_symop_operation_xyz
x,y,z
-x,y,1/2-z
-x,-y,-z
x,-y,1/2+z
1/2+x,1/2+y,z
1/2-x,1/2+y,1/2-z
1/2-x,1/2-y,-z
1/2+x,1/2-y,1/2+z
loop_
_atom_site_type_symbol
_atom_site_label
_atom_site_fract_x
_atom_site_fract_y
_atom_site_fract_z
Si Si1 0.588186 0.660549 0.199679
Si Si2 0.849273 0.465493 0.873723
Si Si3 0.585650 0.387649 0.487006
Si Si4 0.229519 0.545120 0.836029
Si Si5 0.274127 0.189129 0.465203
O O1 0.500000 0.689304 0.250000
O O2 0.378272 0.595900 0.167881
O O3 0.442202 0.697686 0.124304
O O4 0.000000 0.650815 0.250000
O O5 0.596081 0.517501 0.864297
O O6 0.013049 0.490060 0.836652
O O7 0.163299 0.444985 0.960392
O O8 0.316186 0.407285 0.399553
O O9 0.399777 0.364885 0.519986
O O10 0.839525 0.333694 0.498738
O O11 0.000000 0.568852 0.750000
O O12 0.250000 0.250000 0.500000
#
# Coordination Sequence:
#
# PCOD9301546 Si02
#       5
#     8   8   8   8   8
#     4  11  21  37  61  92 119 146 193 252 295 335
#     4  11  21  36  59  86 121 157 192 235 290 349
#     4  11  23  40  61  86 118 156 199 242 287 352
#     4  12  23  36  57  88 125 161 192 229 283 352
#     4  11  24  43  64  84 114 156 199 246 299 346
#
# _framework density 21.131233999999999
#
# number of rings (size 3 to 8) (size 9 to 14) (size 15 to 20)
#    0.000    0.800    0.000   11.400    0.000    0.000 
#    0.000    3.000    0.000    0.000    0.000    0.000 
#    0.000    0.000    0.000    0.000    0.000    0.000 
#
# Total GULP energy -111977.368934 kJ/mol
# GULP energy per Si atom -5598.868447 kJ/mol
# Density = 2.108314 g / cm^3
# Si number density = 21.131234 Si / 1000 Ang^3
#
#
#
# Elastic Constant Matrix: (Units=GPa)
#
#
# Indices 1 2 3 4 5 6 
#
# 1 113.6949 6.1236 45.4044 0.0000 -11.0850 0.0000
# 2 6.1236 22.9164 35.5557 0.0000 -4.3622 0.0000
# 3 45.4044 35.5557 184.4907 0.0000 -28.3129 0.0000
# 4 0.0000 0.0000 0.0000 10.2174 0.0000 -7.4466
# 5 -11.0850 -4.3622 -28.3129 0.0000 36.2615 0.0000
# 6 0.0000 0.0000 0.0000 -7.4466 0.0000 14.4145
#
#
#
# Elastic Compliance Matrix: (Units=1/GPa)
#
#
# Indices 1 2 3 4 5 6 
#
# 1 0.009842 0.001527 -0.002530 0.000000 0.001217 0.000000
# 2 0.001527 0.062634 -0.012746 0.000000 -0.001951 0.000000
# 3 -0.002530 -0.012746 0.009254 0.000000 0.004919 0.000000
# 4 0.000000 0.000000 0.000000 0.156976 0.000000 0.081095
# 5 0.001217 -0.001951 0.004919 0.000000 0.031556 0.000000
# 6 0.000000 0.000000 0.000000 0.081095 0.000000 0.111269
#
#
# Mechanical properties :
#
#
# Convention : Reuss Voigt Hill
#
# Bulk Modulus (GPa) = 18.43935 55.02994 36.73465
# Shear Modulus (GPa) = 11.70670 27.77990 19.74330
#
# Velocity S-wave (km/s) = 2.35627 3.62973 3.05998
# Velocity P-wave (km/s) = 4.01843 6.60795 5.46868
#
# Compressibility (1/GPa) = 0.05423183
#
# Stress axis : x y z
#
# Youngs Moduli (GPa) = 101.60393 15.96586 108.05843
#
# Poissons Ratio (x) = -0.02437 0.27335
# Poissons Ratio (y) = -0.15511 1.37732
# Poissons Ratio (z) = 0.25702 0.20350
#
# Static dielectric constant tensor:
#      x y z
#    x 1.753330 0.000000 -0.007870 
#    y 0.000000 1.762250 0.000000 
#    z -0.007870 0.000000 1.787350 
# 
# From -- ./inp_files/261787.got.cif
#   From: 2010.05.17/outbox.cif.g08.bks.cpg/sg15_131_cif.got.tgz:261787.got - 2010.06.03 18:47:42.
