data_PCOD9301085
_publ_section_title
;
Structure prediction by ZEFSAII (Michael W. Deem and Ramdas Pophale) SiO2 
 PCOD9301085
Probable space group: C 2/C
;
_chemical_formula_sum "Si O2"
_cell_formula_units_Z 48
_cell_length_a 11.358404
_cell_length_b 24.012196
_cell_length_c 14.192720
_cell_angle_alpha 90.000000
_cell_angle_beta 141.624170
_cell_angle_gamma 90.000000
_cell_volume 2403.136922
_symmetry_space_group_name_H-M "C 2/C"
_symmetry_group_IT_number 15
_symmetry_cell_setting 'monoclinic'
loop_
_space_group_symop_operation_xyz
x,y,z
-x,y,1/2-z
-x,-y,-z
x,-y,1/2+z
1/2+x,1/2+y,z
1/2-x,1/2+y,1/2-z
1/2-x,1/2-y,-z
1/2+x,1/2-y,1/2+z
loop_
_atom_site_type_symbol
_atom_site_label
_atom_site_fract_x
_atom_site_fract_y
_atom_site_fract_z
Si Si1 0.034149 0.683761 0.108442
Si Si2 0.364662 0.925697 0.590007
Si Si3 0.801748 0.987279 0.184956
Si Si4 0.456449 0.404830 0.428103
Si Si5 0.377949 0.390423 0.766148
Si Si6 0.355495 0.302540 0.241989
O O1 0.228466 0.658654 0.189437
O O2 0.081657 0.740664 0.191424
O O3 0.953035 0.634260 0.121850
O O4 0.860801 0.695923 0.928605
O O5 0.500000 0.955351 0.750000
O O6 0.338975 0.958189 0.476354
O O7 0.164165 0.915874 0.514543
O O8 0.828858 0.952381 0.298214
O O9 0.000000 0.985881 0.250000
O O10 0.765434 0.051637 0.181927
O O11 0.486404 0.401939 0.558614
O O12 0.383831 0.345723 0.344297
O O13 0.500000 0.379745 0.750000
O O14 0.500000 0.322142 0.250000
#
# Coordination Sequence:
#
# PCOD9301085 Si02
#       6
#     8   8   8   8   8   8
#     4  12  24  40  63  98 132 167 210 255 329 382
#     4  11  20  37  63 100 131 157 204 267 332 387
#     4   9  20  40  64  94 129 166 211 268 322 378
#     4  11  20  40  66  96 128 166 207 267 331 374
#     4  11  25  44  62  88 132 179 223 256 303 379
#     4  12  23  40  68 102 133 154 204 275 340 390
#
# _framework density 19.973893
#
# number of rings (size 3 to 8) (size 9 to 14) (size 15 to 20)
#    0.000    1.000    5.000    3.000    0.000    0.667 
#    0.000    4.167    0.000    0.000    0.000    0.000 
#    0.000    0.000    0.000    0.000    0.000    0.000 
#
# Total GULP energy -134151.867701 kJ/mol
# GULP energy per Si atom -5589.661154 kJ/mol
# Density = 1.992843 g / cm^3
# Si number density = 19.973893 Si / 1000 Ang^3
#
#
#
# Elastic Constant Matrix: (Units=GPa)
#
#
# Indices 1 2 3 4 5 6 
#
# 1 54.7658 -9.4769 26.7714 0.0000 -17.9152 0.0000
# 2 -9.4769 52.2610 11.2884 0.0000 -7.7385 0.0000
# 3 26.7714 11.2884 136.9171 0.0000 -16.2496 0.0000
# 4 0.0000 0.0000 0.0000 56.2024 0.0000 2.1093
# 5 -17.9152 -7.7385 -16.2496 0.0000 26.8387 0.0000
# 6 0.0000 0.0000 0.0000 2.1093 0.0000 24.7844
#
#
#
# Elastic Compliance Matrix: (Units=1/GPa)
#
#
# Indices 1 2 3 4 5 6 
#
# 1 0.027782 0.008650 -0.003931 0.000000 0.018659 0.000000
# 2 0.008650 0.022819 -0.002270 0.000000 0.010979 0.000000
# 3 -0.003931 -0.002270 0.008480 0.000000 0.001856 0.000000
# 4 0.000000 0.000000 0.000000 0.017850 0.000000 -0.001519
# 5 0.018659 0.010979 0.001856 0.000000 0.054004 0.000000
# 6 0.000000 0.000000 0.000000 -0.001519 0.000000 0.040477
#
#
# Mechanical properties :
#
#
# Convention : Reuss Voigt Hill
#
# Bulk Modulus (GPa) = 15.63007 33.45662 24.54335
# Shear Modulus (GPa) = 26.61851 35.92250 31.27051
#
# Velocity S-wave (km/s) = 3.65453 4.24544 3.96102
# Velocity P-wave (km/s) = 5.06455 6.38891 5.76489
#
# Compressibility (1/GPa) = 0.06397923
#
# Stress axis : x y z
#
# Youngs Moduli (GPa) = 35.99502 43.82262 117.92931
#
# Poissons Ratio (x) = -0.37906 0.46356
# Poissons Ratio (y) = -0.31135 0.26766
# Poissons Ratio (z) = 0.14149 0.09946
#
# Static dielectric constant tensor:
#      x y z
#    x 1.694860 0.000000 -0.004640 
#    y 0.000000 1.688040 0.000000 
#    z -0.004640 0.000000 1.747430 
# 
# From -- ./inp_files/31911.got.cif
#   From: 2010.05.17/outbox.cif.g08.bks.cpg/sg15_16_cif.got.tgz:31911.got - 2010.06.03 18:47:42.
