data_PCOD9301032
_publ_section_title
;
Structure prediction by ZEFSAII (Michael W. Deem and Ramdas Pophale) SiO2 
 PCOD9301032
Probable space group: C 2/C
;
_chemical_formula_sum "Si O2"
_cell_formula_units_Z 56
_cell_length_a 14.695950
_cell_length_b 22.030748
_cell_length_c 24.223604
_cell_angle_alpha 90.000000
_cell_angle_beta 21.275018
_cell_angle_gamma 90.000000
_cell_volume 2845.684600
_symmetry_space_group_name_H-M "C 2/C"
_symmetry_group_IT_number 15
_symmetry_cell_setting 'monoclinic'
loop_
_space_group_symop_operation_xyz
x,y,z
-x,y,1/2-z
-x,-y,-z
x,-y,1/2+z
1/2+x,1/2+y,z
1/2-x,1/2+y,1/2-z
1/2-x,1/2-y,-z
1/2+x,1/2-y,1/2+z
loop_
_atom_site_type_symbol
_atom_site_label
_atom_site_fract_x
_atom_site_fract_y
_atom_site_fract_z
Si Si1 0.051177 0.372658 0.659085
Si Si2 0.514176 0.330589 0.037770
Si Si3 0.504929 0.882842 0.144822
Si Si4 0.930738 0.700616 0.119044
Si Si5 0.211141 0.672609 0.420161
Si Si6 0.700916 0.999562 0.685545
Si Si7 0.923094 0.192915 0.466914
O O1 0.345954 0.382588 0.506458
O O2 0.000000 0.343779 0.750000
O O3 0.038048 0.335340 0.610465
O O4 0.885584 0.432668 0.746853
O O5 0.565722 0.265144 0.035354
O O6 0.554085 0.328890 0.949473
O O7 0.218917 0.339126 0.210360
O O8 0.739763 0.859705 0.048946
O O9 0.388122 0.948999 0.221306
O O10 0.580641 0.868864 0.039555
O O11 0.928598 0.670878 0.059715
O O12 0.637228 0.706696 0.301276
O O13 0.500000 0.655072 0.250000
O O14 0.202891 0.742671 0.446682
O O15 0.500000 0.012150 0.750000
O O16 0.000000 0.000000 0.500000
#
# Coordination Sequence:
#
# PCOD9301032 Si02
#       7
#     8   8   8   8   8   8   8
#     4  11  23  42  63  86 122 165 214 270 317 376
#     4  11  22  38  61  92 126 164 209 260 328 379
#     4  12  22  38  63  93 129 167 206 269 327 380
#     4  11  22  38  61  93 128 164 214 257 324 393
#     4  11  22  36  57  96 134 165 205 256 326 401
#     4  11  26  43  66  97 126 166 223 279 323 376
#     4  11  20  36  62  95 130 166 204 267 322 388
#
# _framework density 19.678919
#
# number of rings (size 3 to 8) (size 9 to 14) (size 15 to 20)
#    0.000    0.857    4.286    5.571    2.000    0.000 
#    0.000    1.429    0.000    0.000    0.000    0.000 
#    0.000    0.000    0.000    0.000    0.000    0.000 
#
# Total GULP energy -156067.056016 kJ/mol
# GULP energy per Si atom -5573.823429 kJ/mol
# Density = 1.963413 g / cm^3
# Si number density = 19.678919 Si / 1000 Ang^3
#
#
#
# Elastic Constant Matrix: (Units=GPa)
#
#
# Indices 1 2 3 4 5 6 
#
# 1 136.6226 58.5882 44.5732 0.0257 14.1400 -0.0106
# 2 58.5882 115.6864 50.1193 -0.1400 12.4213 0.0227
# 3 44.5732 50.1193 72.8123 0.0295 9.8423 0.0302
# 4 0.0257 -0.1400 0.0295 34.1304 -0.0040 2.2358
# 5 14.1400 12.4213 9.8423 -0.0040 38.8499 0.0731
# 6 -0.0106 0.0227 0.0302 2.2358 0.0731 28.4195
#
#
#
# Elastic Compliance Matrix: (Units=1/GPa)
#
#
# Indices 1 2 3 4 5 6 
#
# 1 0.010130 -0.003365 -0.003657 -0.000020 -0.001685 0.000016
# 2 -0.003365 0.013565 -0.007100 0.000065 -0.001314 -0.000006
# 3 -0.003657 -0.007100 0.021096 -0.000044 -0.001743 -0.000010
# 4 -0.000020 0.000065 -0.000044 0.029451 0.000005 -0.002317
# 5 -0.001685 -0.001314 -0.001743 0.000005 0.027215 -0.000068
# 6 0.000016 -0.000006 -0.000010 -0.002317 -0.000068 0.035370
#
#
# Mechanical properties :
#
#
# Convention : Reuss Voigt Hill
#
# Bulk Modulus (GPa) = 60.43598 70.18695 65.31147
# Shear Modulus (GPa) = 29.31054 31.73600 30.52327
#
# Velocity S-wave (km/s) = 3.86351 4.02019 3.94263
# Velocity P-wave (km/s) = 7.11899 7.56919 7.34754
#
# Compressibility (1/GPa) = 0.01654643
#
# Stress axis : x y z
#
# Youngs Moduli (GPa) = 98.71701 73.71755 47.40302
#
# Poissons Ratio (x) = 0.24805 0.17337
# Poissons Ratio (y) = 0.33217 0.33656
# Poissons Ratio (z) = 0.36104 0.52340
#
# Static dielectric constant tensor:
#      x y z
#    x 1.751910 0.000090 -0.062770 
#    y 0.000090 1.744830 -0.000010 
#    z -0.062770 -0.000010 1.824830 
# 
# From -- ./inp_files/275196.got.cif
#   From: 2010.05.17/outbox.cif.g08.bks.cpg/sg15_138_cif.got.tgz:275196.got - 2010.06.03 18:47:42.
