data_PCOD9301364
_publ_section_title
;
Structure prediction by ZEFSAII (Michael W. Deem and Ramdas Pophale) SiO2 
 PCOD9301364
Probable space group: C 2/C
;
_chemical_formula_sum "Si O2"
_cell_formula_units_Z 48
_cell_length_a 15.489649
_cell_length_b 10.788274
_cell_length_c 28.845104
_cell_angle_alpha 90.000000
_cell_angle_beta 25.637634
_cell_angle_gamma 90.000000
_cell_volume 2085.597417
_symmetry_space_group_name_H-M "C 2/C"
_symmetry_group_IT_number 15
_symmetry_cell_setting 'monoclinic'
loop_
_space_group_symop_operation_xyz
x,y,z
-x,y,1/2-z
-x,-y,-z
x,-y,1/2+z
1/2+x,1/2+y,z
1/2-x,1/2+y,1/2-z
1/2-x,1/2-y,-z
1/2+x,1/2-y,1/2+z
loop_
_atom_site_type_symbol
_atom_site_label
_atom_site_fract_x
_atom_site_fract_y
_atom_site_fract_z
Si Si1 0.951312 0.720640 0.081047
Si Si2 0.387252 0.194838 0.894199
Si Si3 0.202987 0.841166 0.256667
Si Si4 0.738390 0.061188 0.627775
Si Si5 0.917283 0.060843 0.241951
Si Si6 0.263602 0.220126 0.358247
O O1 0.934423 0.755112 0.143658
O O2 0.839902 0.835484 0.109904
O O3 0.812537 0.601659 0.140632
O O4 0.156244 0.712405 0.953474
O O5 0.589882 0.134624 0.816286
O O6 0.252407 0.101191 0.930060
O O7 0.461155 0.313882 0.828439
O O8 0.250000 0.250000 0.000000
O O9 0.270701 0.777582 0.175694
O O10 0.084003 0.963446 0.299115
O O11 0.500000 0.066455 0.750000
O O12 0.805027 0.923238 0.607071
O O13 0.000000 0.008371 0.250000
O O14 0.500000 0.219167 0.250000
#
# Coordination Sequence:
#
# PCOD9301364 Si02
#       6
#     8   8   8   8   8   8
#     4  11  23  44  70  98 135 185 225 286 342 406
#     4  11  23  42  71 104 132 182 238 281 342 420
#     4  11  26  42  69 106 135 177 234 283 342 416
#     4  11  20  42  68  97 135 174 223 286 343 410
#     4  11  23  45  68  97 143 177 229 284 350 414
#     4  11  27  44  65  98 144 179 228 283 353 409
#
# _framework density 23.014989
#
# number of rings (size 3 to 8) (size 9 to 14) (size 15 to 20)
#    0.000    1.000    5.000    2.000    7.000    1.333 
#    3.000    0.000    0.000    0.000    0.000    0.000 
#    0.000    0.000    0.000    0.000    0.000    0.000 
#
# Total GULP energy -134209.148810 kJ/mol
# GULP energy per Si atom -5592.047867 kJ/mol
# Density = 2.296261 g / cm^3
# Si number density = 23.014989 Si / 1000 Ang^3
#
#
#
# Elastic Constant Matrix: (Units=GPa)
#
#
# Indices 1 2 3 4 5 6 
#
# 1 97.3334 33.8447 24.0387 0.0019 10.0710 0.0000
# 2 33.8447 70.4521 -1.1326 0.0035 5.0110 -0.0002
# 3 24.0387 -1.1326 129.3615 0.0187 21.8075 -0.0009
# 4 0.0019 0.0035 0.0187 21.7216 -0.0034 -2.3839
# 5 10.0710 5.0110 21.8075 -0.0034 30.2295 -0.0003
# 6 0.0000 -0.0002 -0.0009 -2.3839 -0.0003 37.5842
#
#
#
# Elastic Compliance Matrix: (Units=1/GPa)
#
#
# Indices 1 2 3 4 5 6 
#
# 1 0.013169 -0.006237 -0.002205 0.000001 -0.001763 0.000000
# 2 -0.006237 0.017358 0.001646 -0.000004 -0.001987 0.000000
# 3 -0.002205 0.001646 0.009195 -0.000009 -0.006171 0.000000
# 4 0.000001 -0.000004 -0.000009 0.046360 0.000012 0.002941
# 5 -0.001763 -0.001987 -0.006171 0.000012 0.038449 0.000001
# 6 0.000000 0.000000 0.000000 0.002941 0.000001 0.026793
#
#
# Mechanical properties :
#
#
# Convention : Reuss Voigt Hill
#
# Bulk Modulus (GPa) = 38.26817 45.62765 41.94791
# Shear Modulus (GPa) = 28.79766 33.93349 31.36558
#
# Velocity S-wave (km/s) = 3.54115 3.84397 3.69566
# Velocity P-wave (km/s) = 5.77782 6.29044 6.03957
#
# Compressibility (1/GPa) = 0.02613138
#
# Stress axis : x y z
#
# Youngs Moduli (GPa) = 75.93340 57.61097 108.75819
#
# Poissons Ratio (x) = 0.35929 0.23977
# Poissons Ratio (y) = 0.47356 -0.17900
# Poissons Ratio (z) = 0.16740 -0.09482
#
# Static dielectric constant tensor:
#      x y z
#    x 1.892570 0.000000 0.002920 
#    y 0.000000 1.860250 0.000000 
#    z 0.002920 0.000000 1.901530 
# 
# From -- ./inp_files/296029.got.cif
#   From: 2010.05.17/outbox.cif.g08.bks.cpg/sg15_149_cif.got.tgz:296029.got - 2010.06.03 18:47:42.
