data_PCOD9301976
_publ_section_title
;
Structure prediction by ZEFSAII (Michael W. Deem and Ramdas Pophale) SiO2 
 PCOD9301976
Probable space group: C 2/C
;
_chemical_formula_sum "Si O2"
_cell_formula_units_Z 40
_cell_length_a 17.939436
_cell_length_b 11.557184
_cell_length_c 7.767134
_cell_angle_alpha 90.000000
_cell_angle_beta 68.371092
_cell_angle_gamma 90.000000
_cell_volume 1496.970872
_symmetry_space_group_name_H-M "C 2/C"
_symmetry_group_IT_number 15
_symmetry_cell_setting 'monoclinic'
loop_
_space_group_symop_operation_xyz
x,y,z
-x,y,1/2-z
-x,-y,-z
x,-y,1/2+z
1/2+x,1/2+y,z
1/2-x,1/2+y,1/2-z
1/2-x,1/2-y,-z
1/2+x,1/2-y,1/2+z
loop_
_atom_site_type_symbol
_atom_site_label
_atom_site_fract_x
_atom_site_fract_y
_atom_site_fract_z
Si Si1 0.162674 0.588572 0.898933
Si Si2 0.332813 0.243898 0.262577
Si Si3 0.197045 0.892956 0.726022
Si Si4 0.905622 0.964798 0.374202
Si Si5 0.916935 0.616800 0.894513
O O1 0.234149 0.493003 0.825138
O O2 0.141202 0.624269 0.722453
O O3 0.177691 0.672782 0.049315
O O4 0.087075 0.514794 0.035348
O O5 0.250227 0.218652 0.227501
O O6 0.365932 0.369385 0.281645
O O7 0.396372 0.188294 0.080674
O O8 0.147013 0.917310 0.596336
O O9 0.123018 0.910995 0.920928
O O10 0.000000 0.975841 0.250000
O O11 0.000000 0.655559 0.750000
#
# Coordination Sequence:
#
# PCOD9301976 Si02
#       5
#     8   8   8   8   8
#     4  11  21  40  71 103 147 204 251 305 375 464
#     4  11  25  46  74 110 148 201 257 313 376 459
#     4  11  22  49  72 103 148 200 256 299 379 461
#     4  12  27  47  78 113 152 199 253 326 385 446
#     4  11  22  36  64 108 154 198 245 310 388 450
#
# _framework density 26.720628000000001
#
# number of rings (size 3 to 8) (size 9 to 14) (size 15 to 20)
#    0.000    0.800    6.000    3.000    2.800    0.000 
#    3.600    3.000    0.000    0.000    0.000    0.000 
#    0.000    0.000    0.000    0.000    0.000    0.000 
#
# Total GULP energy -111763.931045 kJ/mol
# GULP energy per Si atom -5588.196552 kJ/mol
# Density = 2.665981 g / cm^3
# Si number density = 26.720628 Si / 1000 Ang^3
#
#
#
# Elastic Constant Matrix: (Units=GPa)
#
#
# Indices 1 2 3 4 5 6 
#
# 1 109.5722 53.4509 16.8772 0.0000 -11.9928 0.0000
# 2 53.4509 76.7389 20.4200 0.0000 14.1099 0.0000
# 3 16.8772 20.4200 144.2200 0.0000 -6.4856 0.0000
# 4 0.0000 0.0000 0.0000 38.9820 0.0000 8.7377
# 5 -11.9928 14.1099 -6.4856 0.0000 63.3316 0.0000
# 6 0.0000 0.0000 0.0000 8.7377 0.0000 34.4215
#
#
#
# Elastic Compliance Matrix: (Units=1/GPa)
#
#
# Indices 1 2 3 4 5 6 
#
# 1 0.015505 -0.011858 0.000116 0.000000 0.005590 0.000000
# 2 -0.011858 0.023301 -0.002256 0.000000 -0.007668 0.000000
# 3 0.000116 -0.002256 0.007297 0.000000 0.001272 0.000000
# 4 0.000000 0.000000 0.000000 0.027201 0.000000 -0.006905
# 5 0.005590 -0.007668 0.001272 0.000000 0.018687 0.000000
# 6 0.000000 0.000000 0.000000 -0.006905 0.000000 0.030804
#
#
# Mechanical properties :
#
#
# Convention : Reuss Voigt Hill
#
# Bulk Modulus (GPa) = 55.23127 56.89191 56.06159
# Shear Modulus (GPa) = 31.88205 43.33255 37.60730
#
# Velocity S-wave (km/s) = 3.45797 4.03139 3.75564
# Velocity P-wave (km/s) = 6.05460 6.55798 6.31131
#
# Compressibility (1/GPa) = 0.01810569
#
# Stress axis : x y z
#
# Youngs Moduli (GPa) = 64.49501 42.91618 137.04348
#
# Poissons Ratio (x) = 0.50892 -0.01589
# Poissons Ratio (y) = 0.76481 0.30922
# Poissons Ratio (z) = -0.00748 0.09683
#
# Static dielectric constant tensor:
#      x y z
#    x 2.110760 0.000000 0.025510 
#    y 0.000000 2.245460 0.000000 
#    z 0.025510 0.000000 2.065800 
# 
# From -- ./inp_files/46928.got.cif
#   From: 2010.05.17/outbox.cif.g08.bks.cpg/sg15_24_cif.got.tgz:46928.got - 2010.06.03 18:47:42.
