data_PCOD9301835
_publ_section_title
;
Structure prediction by ZEFSAII (Michael W. Deem and Ramdas Pophale) SiO2 
 PCOD9301835
Probable space group: C 2/C
;
_chemical_formula_sum "Si O2"
_cell_formula_units_Z 48
_cell_length_a 15.000455
_cell_length_b 34.411634
_cell_length_c 5.283693
_cell_angle_alpha 90.000000
_cell_angle_beta 60.934710
_cell_angle_gamma 90.000000
_cell_volume 2383.921067
_symmetry_space_group_name_H-M "C 2/C"
_symmetry_group_IT_number 15
_symmetry_cell_setting 'monoclinic'
loop_
_space_group_symop_operation_xyz
x,y,z
-x,y,1/2-z
-x,-y,-z
x,-y,1/2+z
1/2+x,1/2+y,z
1/2-x,1/2+y,1/2-z
1/2-x,1/2-y,-z
1/2+x,1/2-y,1/2+z
loop_
_atom_site_type_symbol
_atom_site_label
_atom_site_fract_x
_atom_site_fract_y
_atom_site_fract_z
Si Si1 0.000000 0.773353 0.250000
Si Si2 0.500000 0.221264 0.750000
Si Si3 0.886470 0.601265 0.368335
Si Si4 0.500000 0.474195 0.250000
Si Si5 0.846327 0.348325 0.419428
Si Si6 0.631891 0.656832 0.436378
Si Si7 0.500000 0.609646 0.250000
Si Si8 0.331019 0.581025 0.806171
O O1 0.005175 0.747492 0.493313
O O2 0.903015 0.802154 0.407605
O O3 0.595258 0.191999 0.630296
O O4 0.872951 0.632565 0.613853
O O5 0.789060 0.572621 0.539289
O O6 0.000000 0.584440 0.250000
O O7 0.878814 0.622574 0.104921
O O8 0.500000 0.500000 0.500000
O O9 0.600859 0.447173 0.115815
O O10 0.726214 0.340676 0.614292
O O11 0.536823 0.637478 0.422740
O O12 0.666607 0.624893 0.590650
O O13 0.401691 0.584096 0.459749
#
# Coordination Sequence:
#
# PCOD9301835 Si02
#       8
#     4   4   8   4   8   8   4   8
#     4  12  25  38  58  81 118 169 208 263 330 392
#     4  12  25  40  55  78 126 161 210 263 326 412
#     4  11  21  39  67  94 120 158 218 270 310 354
#     4  12  26  42  65 102 148 172 192 236 312 388
#     4  11  23  39  60  86 117 162 205 273 331 368
#     4  11  23  37  62  88 118 155 217 273 310 367
#     4  12  16  38  64  91 126 146 206 276 308 348
#     4  11  23  38  68  97 125 167 209 262 303 363
#
# _framework density 20.134893999999999
#
# number of rings (size 3 to 8) (size 9 to 14) (size 15 to 20)
#    0.000    0.667    6.667    2.000    0.000    1.333 
#    0.000    0.000    0.000    1.000    0.000    0.000 
#    0.000    0.000    0.000    0.000    0.000    0.000 
#
# Total GULP energy -134023.819258 kJ/mol
# GULP energy per Si atom -5584.325802 kJ/mol
# Density = 2.008907 g / cm^3
# Si number density = 20.134894 Si / 1000 Ang^3
#
#
#
# Elastic Constant Matrix: (Units=GPa)
#
#
# Indices 1 2 3 4 5 6 
#
# 1 120.5894 35.7537 42.4869 0.0000 -23.5339 0.0000
# 2 35.7537 67.3232 28.2627 0.0000 0.7755 0.0000
# 3 42.4869 28.2627 97.1619 0.0000 2.7453 0.0000
# 4 0.0000 0.0000 0.0000 -14.6790 0.0000 32.6839
# 5 -23.5339 0.7755 2.7453 0.0000 58.5905 0.0000
# 6 0.0000 0.0000 0.0000 32.6839 0.0000 3.4807
#
#
#
# Elastic Compliance Matrix: (Units=1/GPa)
#
#
# Indices 1 2 3 4 5 6 
#
# 1 0.012150 -0.004808 -0.004060 0.000000 0.005134 0.000000
# 2 -0.004808 0.018822 -0.003316 0.000000 -0.002025 0.000000
# 3 -0.004060 -0.003316 0.013094 0.000000 -0.002200 0.000000
# 4 0.000000 0.000000 0.000000 -0.003110 0.000000 0.029200
# 5 0.005134 -0.002025 -0.002200 0.000000 0.019260 0.000000
# 6 0.000000 0.000000 0.000000 0.029200 0.000000 0.013114
#
#
# Mechanical properties :
#
#
# Convention : Reuss Voigt Hill
#
# Bulk Modulus (GPa) = 50.75968 55.34234 53.05101
# Shear Modulus (GPa) = 47.95552 21.38319 34.66935
#
# Velocity S-wave (km/s) = 4.88557 3.26236 4.15402
# Velocity P-wave (km/s) = 7.55577 6.46035 7.02943
#
# Compressibility (1/GPa) = 0.01970067
#
# Stress axis : x y z
#
# Youngs Moduli (GPa) = 82.30221 53.12900 76.37128
#
# Poissons Ratio (x) = 0.25542 0.31005
# Poissons Ratio (y) = 0.39568 0.25321
# Poissons Ratio (z) = 0.33412 0.17615
#
# Static dielectric constant tensor:
#      x y z
#    x 1.774370 0.000000 -0.021000 
#    y 0.000000 1.690650 0.000000 
#    z -0.021000 0.000000 1.786680 
# 
# From -- ./inp_files/8992.got.cif
#   From: 2010.05.17/outbox.cif.g08.bks.cpg/sg15_5_cif.got.tgz:8992.got - 2010.06.03 18:47:42.
