data_PCOD9301962
_publ_section_title
;
Structure prediction by ZEFSAII (Michael W. Deem and Ramdas Pophale) SiO2 
 PCOD9301962
Probable space group: C 2/C
;
_chemical_formula_sum "Si O2"
_cell_formula_units_Z 48
_cell_length_a 11.407724
_cell_length_b 16.012175
_cell_length_c 11.425419
_cell_angle_alpha 90.000000
_cell_angle_beta 103.153937
_cell_angle_gamma 90.000000
_cell_volume 2032.237065
_symmetry_space_group_name_H-M "C 2/C"
_symmetry_group_IT_number 15
_symmetry_cell_setting 'monoclinic'
loop_
_space_group_symop_operation_xyz
x,y,z
-x,y,1/2-z
-x,-y,-z
x,-y,1/2+z
1/2+x,1/2+y,z
1/2-x,1/2+y,1/2-z
1/2-x,1/2-y,-z
1/2+x,1/2-y,1/2+z
loop_
_atom_site_type_symbol
_atom_site_label
_atom_site_fract_x
_atom_site_fract_y
_atom_site_fract_z
Si Si1 0.200213 0.066892 0.092562
Si Si2 0.385441 0.092589 0.804820
Si Si3 0.695851 0.624806 0.575657
Si Si4 0.542552 0.675328 0.887227
Si Si5 0.296343 0.908309 0.844183
Si Si6 0.064710 0.643608 0.428206
O O1 0.199510 0.108959 0.220264
O O2 0.342473 0.073185 0.094211
O O3 0.157121 0.971970 0.087403
O O4 0.130508 0.114652 0.975880
O O5 0.500000 0.071969 0.750000
O O6 0.292457 0.141020 0.699837
O O7 0.321057 0.008144 0.837665
O O8 0.427972 0.140971 0.929542
O O9 0.579677 0.681696 0.564812
O O10 0.751204 0.622570 0.459261
O O11 0.500000 0.645724 0.750000
O O12 0.603111 0.765742 0.891764
O O13 0.429243 0.871508 0.856427
#
# Coordination Sequence:
#
# PCOD9301962 Si02
#       6
#     8   8   8   8   8   8
#     4  11  24  44  70  94 132 184 231 273 335 410
#     4  11  21  40  70 102 135 177 228 286 342 401
#     4  11  24  44  68 100 134 177 226 287 333 401
#     4  12  28  46  66  97 141 186 226 277 349 414
#     4  11  22  40  70 104 132 168 233 287 337 398
#     4  12  23  44  69 101 135 177 227 284 341 408
#
# _framework density 23.619292000000002
#
# number of rings (size 3 to 8) (size 9 to 14) (size 15 to 20)
#    0.000    0.667    3.333    6.000    2.333    2.667 
#    3.000    0.000    0.000    0.000    0.000    0.000 
#    0.000    0.000    0.000    0.000    0.000    0.000 
#
# Total GULP energy -134333.619877 kJ/mol
# GULP energy per Si atom -5597.234162 kJ/mol
# Density = 2.356553 g / cm^3
# Si number density = 23.619292 Si / 1000 Ang^3
#
#
#
# Elastic Constant Matrix: (Units=GPa)
#
#
# Indices 1 2 3 4 5 6 
#
# 1 66.8894 -4.6470 5.0828 0.0000 -7.0491 0.0000
# 2 -4.6470 43.1023 23.9636 0.0000 16.2976 0.0000
# 3 5.0828 23.9636 175.1447 0.0000 14.3703 0.0000
# 4 0.0000 0.0000 0.0000 22.0771 0.0000 -6.1246
# 5 -7.0491 16.2976 14.3703 0.0000 36.8576 0.0000
# 6 0.0000 0.0000 0.0000 -6.1246 0.0000 16.5245
#
#
#
# Elastic Compliance Matrix: (Units=1/GPa)
#
#
# Indices 1 2 3 4 5 6 
#
# 1 0.015380 0.001058 -0.000820 0.000000 0.002794 0.000000
# 2 0.001058 0.029427 -0.003105 0.000000 -0.011599 0.000000
# 3 -0.000820 -0.003105 0.006259 0.000000 -0.001224 0.000000
# 4 0.000000 0.000000 0.000000 0.050487 0.000000 0.018712
# 5 0.002794 -0.011599 -0.001224 0.000000 0.033272 0.000000
# 6 0.000000 0.000000 0.000000 0.018712 0.000000 0.067452
#
#
# Mechanical properties :
#
#
# Convention : Reuss Voigt Hill
#
# Bulk Modulus (GPa) = 22.06018 37.10393 29.58205
# Shear Modulus (GPa) = 22.40931 32.47429 27.44180
#
# Velocity S-wave (km/s) = 3.08355 3.71199 3.41227
# Velocity P-wave (km/s) = 4.69446 5.84082 5.29873
#
# Compressibility (1/GPa) = 0.04533055
#
# Stress axis : x y z
#
# Youngs Moduli (GPa) = 65.01832 33.98264 159.77851
#
# Poissons Ratio (x) = -0.03595 0.13107
# Poissons Ratio (y) = -0.06879 0.49616
# Poissons Ratio (z) = 0.05333 0.10553
#
# Static dielectric constant tensor:
#      x y z
#    x 1.887100 0.000000 -0.023920 
#    y 0.000000 1.871210 0.000000 
#    z -0.023920 0.000000 1.928530 
# 
# From -- ./inp_files/87770.got.cif
#   From: 2010.05.17/outbox.cif.g08.bks.cpg/sg15_44_cif.got.tgz:87770.got - 2010.06.03 18:47:42.
