data_PCOD9301303
_publ_section_title
;
Structure prediction by ZEFSAII (Michael W. Deem and Ramdas Pophale) SiO2 
 PCOD9301303
Probable space group: C 2/C
;
_chemical_formula_sum "Si O2"
_cell_formula_units_Z 40
_cell_length_a 9.526959
_cell_length_b 10.594321
_cell_length_c 21.178982
_cell_angle_alpha 90.000000
_cell_angle_beta 57.672407
_cell_angle_gamma 90.000000
_cell_volume 1806.306621
_symmetry_space_group_name_H-M "C 2/C"
_symmetry_group_IT_number 15
_symmetry_cell_setting 'monoclinic'
loop_
_space_group_symop_operation_xyz
x,y,z
-x,y,1/2-z
-x,-y,-z
x,-y,1/2+z
1/2+x,1/2+y,z
1/2-x,1/2+y,1/2-z
1/2-x,1/2-y,-z
1/2+x,1/2-y,1/2+z
loop_
_atom_site_type_symbol
_atom_site_label
_atom_site_fract_x
_atom_site_fract_y
_atom_site_fract_z
Si Si1 0.501682 0.403847 0.183363
Si Si2 0.808322 0.564925 0.812022
Si Si3 0.290398 0.287322 0.619108
Si Si4 0.634252 0.839655 0.069070
Si Si5 0.145274 0.060250 0.509844
O O1 0.500000 0.481388 0.250000
O O2 0.310917 0.378353 0.212133
O O3 0.619879 0.286226 0.169019
O O4 0.581598 0.447491 0.097009
O O5 0.736240 0.425468 0.844366
O O6 0.805432 0.655863 0.873325
O O7 0.000000 0.550607 0.750000
O O8 0.446997 0.208798 0.607433
O O9 0.324924 0.311230 0.536140
O O10 0.750000 0.750000 0.000000
O O11 0.683446 0.980768 0.035026
O O12 0.000000 0.000000 0.500000
#
# Coordination Sequence:
#
# PCOD9301303 Si02
#       5
#     8   8   8   8   8
#     4  12  24  43  67 100 135 172 223 275 335 395
#     4  11  24  45  66  94 140 175 212 281 334 388
#     4  11  23  43  71  98 130 174 226 270 331 400
#     4  11  20  40  72  97 128 175 225 263 326 397
#     4  11  21  44  70  94 135 175 217 277 325 390
#
# _framework density 22.144635000000001
#
# number of rings (size 3 to 8) (size 9 to 14) (size 15 to 20)
#    0.000    0.800    6.000    2.400    0.000    0.800 
#    0.000   22.000    0.000    0.000    0.000    0.000 
#    0.000    0.000    0.000    0.000    0.000    0.000 
#
# Total GULP energy -111518.417734 kJ/mol
# GULP energy per Si atom -5575.920887 kJ/mol
# Density = 2.209423 g / cm^3
# Si number density = 22.144635 Si / 1000 Ang^3
#
#
#
# Elastic Constant Matrix: (Units=GPa)
#
#
# Indices 1 2 3 4 5 6 
#
# 1 195.0486 64.1040 79.2144 0.0000 -9.3845 0.0000
# 2 64.1040 49.5246 11.8890 0.0000 -4.1990 0.0000
# 3 79.2144 11.8890 141.0606 0.0000 11.1345 0.0000
# 4 0.0000 0.0000 0.0000 29.8895 0.0000 -17.6191
# 5 -9.3845 -4.1990 11.1345 0.0000 58.3979 0.0000
# 6 0.0000 0.0000 0.0000 -17.6191 0.0000 33.2862
#
#
#
# Elastic Compliance Matrix: (Units=1/GPa)
#
#
# Indices 1 2 3 4 5 6 
#
# 1 0.012346 -0.014393 -0.005884 0.000000 0.002071 0.000000
# 2 -0.014393 0.037585 0.004959 0.000000 -0.000556 0.000000
# 3 -0.005884 0.004959 0.010175 0.000000 -0.002529 0.000000
# 4 0.000000 0.000000 0.000000 0.048630 0.000000 0.025741
# 5 0.002071 -0.000556 -0.002529 0.000000 0.017899 0.000000
# 6 0.000000 0.000000 0.000000 0.025741 0.000000 0.043668
#
#
# Mechanical properties :
#
#
# Convention : Reuss Voigt Hill
#
# Bulk Modulus (GPa) = 33.93284 77.33873 55.63578
# Shear Modulus (GPa) = 23.72339 39.67646 31.69992
#
# Velocity S-wave (km/s) = 3.27661 4.23744 3.78761
# Velocity P-wave (km/s) = 5.44715 7.67733 6.65630
#
# Compressibility (1/GPa) = 0.02946998
#
# Stress axis : x y z
#
# Youngs Moduli (GPa) = 80.99473 26.60662 98.28095
#
# Poissons Ratio (x) = 0.38295 0.57826
# Poissons Ratio (y) = 1.16576 -0.48735
# Poissons Ratio (z) = 0.47655 -0.13194
#
# Static dielectric constant tensor:
#      x y z
#    x 1.802730 0.000000 0.012130 
#    y 0.000000 1.878790 0.000000 
#    z 0.012130 0.000000 1.924160 
# 
# From -- ./inp_files/262992.got.cif
#   From: 2010.05.17/outbox.cif.g08.bks.cpg/sg15_132_cif.got.tgz:262992.got - 2010.06.03 18:47:42.
