data_PCOD9301679
_publ_section_title
;
Structure prediction by ZEFSAII (Michael W. Deem and Ramdas Pophale) SiO2 
 PCOD9301679
Probable space group: C 2/C
;
_chemical_formula_sum "Si O2"
_cell_formula_units_Z 48
_cell_length_a 30.602202
_cell_length_b 11.304479
_cell_length_c 8.435786
_cell_angle_alpha 90.000000
_cell_angle_beta 36.851813
_cell_angle_gamma 90.000000
_cell_volume 1750.238371
_symmetry_space_group_name_H-M "C 2/C"
_symmetry_group_IT_number 15
_symmetry_cell_setting 'monoclinic'
loop_
_space_group_symop_operation_xyz
x,y,z
-x,y,1/2-z
-x,-y,-z
x,-y,1/2+z
1/2+x,1/2+y,z
1/2-x,1/2+y,1/2-z
1/2-x,1/2-y,-z
1/2+x,1/2-y,1/2+z
loop_
_atom_site_type_symbol
_atom_site_label
_atom_site_fract_x
_atom_site_fract_y
_atom_site_fract_z
Si Si1 0.570184 0.636418 0.434445
Si Si2 0.324518 0.915553 0.997847
Si Si3 0.352554 0.664146 0.975098
Si Si4 0.950171 0.584575 0.542302
Si Si5 0.210620 0.623861 0.215568
Si Si6 0.083835 0.819594 0.547539
O O1 0.631298 0.624093 0.393206
O O2 0.559491 0.774952 0.418844
O O3 0.583627 0.599110 0.209615
O O4 0.500000 0.600963 0.750000
O O5 0.371620 0.804134 0.915543
O O6 0.265905 0.873789 0.036891
O O7 0.374288 0.015788 0.772363
O O8 0.293507 0.985290 0.233486
O O9 0.389557 0.621784 0.699237
O O10 0.267156 0.661491 0.184770
O O11 0.000000 0.575009 0.250000
O O12 0.000000 0.500000 0.500000
O O13 0.137177 0.704488 0.418142
O O14 0.000000 0.785309 0.750000
#
# Coordination Sequence:
#
# PCOD9301679 Si02
#       6
#     8   8   8   8   8   8
#     4  11  21  38  59  93 130 172 208 255 313 384
#     4  11  21  39  59  86 129 169 212 259 310 376
#     4  11  25  43  62  94 131 168 223 257 314 385
#     4  11  22  31  53  90 129 168 201 237 306 399
#     4  11  25  42  61  94 127 173 214 265 315 381
#     4  11  22  39  63  93 134 171 207 255 317 385
#
# _framework density 27.424835000000002
#
# number of rings (size 3 to 8) (size 9 to 14) (size 15 to 20)
#    0.000    1.000    3.333    6.000    4.667    0.667 
#    3.000    0.000    0.000    0.000    0.000   10.500 
#    0.000    0.000    0.000    0.000    0.000    0.000 
#
# Total GULP energy -133723.355355 kJ/mol
# GULP energy per Si atom -5571.806473 kJ/mol
# Density = 2.736242 g / cm^3
# Si number density = 27.424835 Si / 1000 Ang^3
#
#
#
# Elastic Constant Matrix: (Units=GPa)
#
#
# Indices 1 2 3 4 5 6 
#
# 1 239.5116 49.2924 41.5217 0.0000 -3.2511 0.0000
# 2 49.2924 71.9289 19.2968 0.0000 21.3402 0.0000
# 3 41.5217 19.2968 73.6179 0.0000 14.3922 0.0000
# 4 0.0000 0.0000 0.0000 19.6914 0.0000 26.4406
# 5 -3.2511 21.3402 14.3922 0.0000 56.1183 0.0000
# 6 0.0000 0.0000 0.0000 26.4406 0.0000 36.6208
#
#
#
# Elastic Compliance Matrix: (Units=1/GPa)
#
#
# Indices 1 2 3 4 5 6 
#
# 1 0.005418 -0.003739 -0.002542 0.000000 0.002388 0.000000
# 2 -0.003739 0.018952 -0.001482 0.000000 -0.007044 0.000000
# 3 -0.002542 -0.001482 0.016134 0.000000 -0.003721 0.000000
# 4 0.000000 0.000000 0.000000 1.663833 0.000000 -1.201304
# 5 0.002388 -0.007044 -0.003721 0.000000 0.021591 0.000000
# 6 0.000000 0.000000 0.000000 -1.201304 0.000000 0.894661
#
#
# Mechanical properties :
#
#
# Convention : Reuss Voigt Hill
#
# Bulk Modulus (GPa) = 40.03706 67.25335 53.64521
# Shear Modulus (GPa) = 1.89076 40.81595 21.35335
#
# Velocity S-wave (km/s) = 0.83122 3.86201 2.79339
# Velocity P-wave (km/s) = 3.94357 6.66805 5.47789
#
# Compressibility (1/GPa) = 0.02497686
#
# Stress axis : x y z
#
# Youngs Moduli (GPa) = 184.57421 52.76393 61.98248
#
# Poissons Ratio (x) = 0.19729 0.15759
# Poissons Ratio (y) = 0.69016 0.09185
# Poissons Ratio (z) = 0.46927 0.07819
#
# Static dielectric constant tensor:
#      x y z
#    x -2.888770 0.000000 3.482250 
#    y 0.000000 2.757570 0.000000 
#    z 3.482250 0.000000 -0.135480 
# 
# From -- ./inp_files/69853.got.cif
#   From: 2010.05.17/outbox.cif.g08.bks.cpg/sg15_35_cif.got.tgz:69853.got - 2010.06.03 18:47:42.
