data_PCOD9301533
_publ_section_title
;
Structure prediction by ZEFSAII (Michael W. Deem and Ramdas Pophale) SiO2 
 PCOD9301533
Probable space group: C 2/C
;
_chemical_formula_sum "Si O2"
_cell_formula_units_Z 40
_cell_length_a 13.853646
_cell_length_b 22.480347
_cell_length_c 10.848547
_cell_angle_alpha 90.000000
_cell_angle_beta 141.908973
_cell_angle_gamma 90.000000
_cell_volume 2084.310090
_symmetry_space_group_name_H-M "C 2/C"
_symmetry_group_IT_number 15
_symmetry_cell_setting 'monoclinic'
loop_
_space_group_symop_operation_xyz
x,y,z
-x,y,1/2-z
-x,-y,-z
x,-y,1/2+z
1/2+x,1/2+y,z
1/2-x,1/2+y,1/2-z
1/2-x,1/2-y,-z
1/2+x,1/2-y,1/2+z
loop_
_atom_site_type_symbol
_atom_site_label
_atom_site_fract_x
_atom_site_fract_y
_atom_site_fract_z
Si Si1 0.684104 0.390829 0.207756
Si Si2 0.901587 0.493075 0.526665
Si Si3 0.623294 0.582693 0.986010
Si Si4 0.686718 0.183637 0.451546
Si Si5 0.679738 0.550482 0.466429
O O1 0.774471 0.442923 0.371606
O O2 0.497135 0.402390 0.025345
O O3 0.745541 0.335166 0.345969
O O4 0.731492 0.399568 0.114476
O O5 0.795308 0.547909 0.466109
O O6 0.000000 0.478451 0.750000
O O7 0.000000 0.500000 0.500000
O O8 0.500000 0.586047 0.750000
O O9 0.684962 0.514709 0.042564
O O10 0.744831 0.635089 0.077765
O O11 0.500000 0.182127 0.250000
O O12 0.750000 0.250000 0.500000
O O13 0.500000 0.557484 0.250000
#
# Coordination Sequence:
#
# PCOD9301533 Si02
#       5
#     8   8   8   8   8
#     4  11  21  36  57  86 129 164 213 257 323 379
#     4  12  23  35  54  87 133 174 213 260 317 375
#     4   9  18  33  54  83 118 162 206 247 305 374
#     4  11  22  39  62  91 126 159 213 276 325 373
#     4  11  21  37  56  86 132 179 207 251 315 394
#
# _framework density 19.191002999999998
#
# number of rings (size 3 to 8) (size 9 to 14) (size 15 to 20)
#    0.000    1.200    8.000    3.000    0.000    0.000 
#    0.000    0.000    0.000    0.000    0.000    5.600 
#    0.000    0.200    0.000    0.000    0.000    0.000 
#
# Total GULP energy -111447.065191 kJ/mol
# GULP energy per Si atom -5572.353260 kJ/mol
# Density = 1.914732 g / cm^3
# Si number density = 19.191003 Si / 1000 Ang^3
#
#
#
# Elastic Constant Matrix: (Units=GPa)
#
#
# Indices 1 2 3 4 5 6 
#
# 1 153.8101 39.4118 53.3957 0.0000 4.5017 0.0000
# 2 39.4118 87.4315 35.4530 0.0000 -2.8726 0.0000
# 3 53.3957 35.4530 102.0322 0.0000 10.7261 0.0000
# 4 0.0000 0.0000 0.0000 29.4023 0.0000 1.1738
# 5 4.5017 -2.8726 10.7261 0.0000 38.0111 0.0000
# 6 0.0000 0.0000 0.0000 1.1738 0.0000 23.3187
#
#
#
# Elastic Compliance Matrix: (Units=1/GPa)
#
#
# Indices 1 2 3 4 5 6 
#
# 1 0.008329 -0.002328 -0.003533 0.000000 -0.000165 0.000000
# 2 -0.002328 0.014176 -0.003967 0.000000 0.002466 0.000000
# 3 -0.003533 -0.003967 0.013413 0.000000 -0.003666 0.000000
# 4 0.000000 0.000000 0.000000 0.034079 0.000000 -0.001715
# 5 -0.000165 0.002466 -0.003666 0.000000 0.027549 0.000000
# 6 0.000000 0.000000 0.000000 -0.001715 0.000000 0.042970
#
#
# Mechanical properties :
#
#
# Convention : Reuss Voigt Hill
#
# Bulk Modulus (GPa) = 61.48410 66.64387 64.06398
# Shear Modulus (GPa) = 30.19442 32.48064 31.33753
#
# Velocity S-wave (km/s) = 3.97087 4.11846 4.04533
# Velocity P-wave (km/s) = 7.28912 7.57744 7.43468
#
# Compressibility (1/GPa) = 0.01626437
#
# Stress axis : x y z
#
# Youngs Moduli (GPa) = 120.06034 70.53986 74.55210
#
# Poissons Ratio (x) = 0.16418 0.26337
# Poissons Ratio (y) = 0.27944 0.29576
# Poissons Ratio (z) = 0.42414 0.27984
#
# Static dielectric constant tensor:
#      x y z
#    x 1.846240 0.000000 -0.005870 
#    y 0.000000 1.653510 0.000000 
#    z -0.005870 0.000000 1.713710 
# 
# From -- ./inp_files/99553.got.cif
#   From: 2010.05.17/outbox.cif.g08.bks.cpg/sg15_50_cif.got.tgz:99553.got - 2010.06.03 18:47:42.
