data_PCOD9301930
_publ_section_title
;
Structure prediction by ZEFSAII (Michael W. Deem and Ramdas Pophale) SiO2 
 PCOD9301930
Probable space group: C 2/C
;
_chemical_formula_sum "Si O2"
_cell_formula_units_Z 40
_cell_length_a 8.602199
_cell_length_b 13.942290
_cell_length_c 16.611448
_cell_angle_alpha 90.000000
_cell_angle_beta 128.351948
_cell_angle_gamma 90.000000
_cell_volume 1562.376665
_symmetry_space_group_name_H-M "C 2/C"
_symmetry_group_IT_number 15
_symmetry_cell_setting 'monoclinic'
loop_
_space_group_symop_operation_xyz
x,y,z
-x,y,1/2-z
-x,-y,-z
x,-y,1/2+z
1/2+x,1/2+y,z
1/2-x,1/2+y,1/2-z
1/2-x,1/2-y,-z
1/2+x,1/2-y,1/2+z
loop_
_atom_site_type_symbol
_atom_site_label
_atom_site_fract_x
_atom_site_fract_y
_atom_site_fract_z
Si Si1 0.342025 0.100202 0.648230
Si Si2 0.419606 0.710109 0.114799
Si Si3 0.633413 0.045854 0.472219
Si Si4 0.239028 0.096574 0.277721
Si Si5 0.967593 0.888324 0.323626
O O1 0.500000 0.039246 0.750000
O O2 0.484674 0.184829 0.664310
O O3 0.162497 0.142506 0.641677
O O4 0.269779 0.038515 0.550317
O O5 0.624804 0.652498 0.168880
O O6 0.325685 0.646942 0.157408
O O7 0.250000 0.750000 0.000000
O O8 0.475058 0.099458 0.364926
O O9 0.813335 0.099266 0.570689
O O10 0.500000 0.000000 0.500000
O O11 0.149948 0.988030 0.240257
O O12 0.000000 0.834006 0.250000
#
# Coordination Sequence:
#
# PCOD9301930 Si02
#       5
#     8   8   8   8   8
#     4  12  23  41  71 102 133 182 233 282 344 419
#     4  11  22  41  67  96 136 185 229 272 341 421
#     4  12  22  41  70 103 137 177 227 292 344 402
#     4  11  21  40  67  99 133 176 232 273 344 412
#     4  12  23  43  69 102 141 177 234 287 343 410
#
# _framework density 25.602018999999999
#
# number of rings (size 3 to 8) (size 9 to 14) (size 15 to 20)
#    0.000    0.400    8.000    3.000    0.000    0.000 
#    0.000    1.000    4.400    0.000    0.000    0.000 
#    0.000    0.000    0.000    0.000    0.000    0.000 
#
# Total GULP energy -111408.274414 kJ/mol
# GULP energy per Si atom -5570.413721 kJ/mol
# Density = 2.554375 g / cm^3
# Si number density = 25.602019 Si / 1000 Ang^3
#
#
#
# Elastic Constant Matrix: (Units=GPa)
#
#
# Indices 1 2 3 4 5 6 
#
# 1 104.7424 -7.0157 14.8140 0.0000 19.7521 0.0000
# 2 -7.0157 39.6340 10.3341 0.0000 -1.6151 0.0000
# 3 14.8140 10.3341 173.4128 0.0000 45.0009 0.0000
# 4 0.0000 0.0000 0.0000 31.3564 0.0000 3.3113
# 5 19.7521 -1.6151 45.0009 0.0000 49.0411 0.0000
# 6 0.0000 0.0000 0.0000 3.3113 0.0000 20.0152
#
#
#
# Elastic Compliance Matrix: (Units=1/GPa)
#
#
# Indices 1 2 3 4 5 6 
#
# 1 0.010444 0.001645 0.000115 0.000000 -0.004257 0.000000
# 2 0.001645 0.026217 -0.002304 0.000000 0.002314 0.000000
# 3 0.000115 -0.002304 0.007778 0.000000 -0.007259 0.000000
# 4 0.000000 0.000000 0.000000 0.032459 0.000000 -0.005370
# 5 -0.004257 0.002314 -0.007259 0.000000 0.028843 0.000000
# 6 0.000000 0.000000 0.000000 -0.005370 0.000000 0.050850
#
#
# Mechanical properties :
#
#
# Convention : Reuss Voigt Hill
#
# Bulk Modulus (GPa) = 23.06708 39.33934 31.20321
# Shear Modulus (GPa) = 29.04804 40.05966 34.55385
#
# Velocity S-wave (km/s) = 3.37204 3.95993 3.67775
# Velocity P-wave (km/s) = 4.91836 6.02554 5.49988
#
# Compressibility (1/GPa) = 0.04335183
#
# Stress axis : x y z
#
# Youngs Moduli (GPa) = 95.74781 38.14309 128.57101
#
# Poissons Ratio (x) = -0.06276 -0.01473
# Poissons Ratio (y) = -0.15754 0.29616
# Poissons Ratio (z) = -0.01097 0.08786
#
# Static dielectric constant tensor:
#      x y z
#    x 2.179200 0.000000 -0.094410 
#    y 0.000000 2.077920 0.000000 
#    z -0.094410 0.000000 2.281530 
# 
# From -- ./inp_files/190699.got.cif
#   From: 2010.05.17/outbox.cif.g08.bks.cpg/sg15_96_cif.got.tgz:190699.got - 2010.06.03 18:47:42.
