data_PCOD9301860
_publ_section_title
;
Structure prediction by ZEFSAII (Michael W. Deem and Ramdas Pophale) SiO2 
 PCOD9301860
Probable space group: C 2/C
;
_chemical_formula_sum "Si O2"
_cell_formula_units_Z 64
_cell_length_a 20.254192
_cell_length_b 9.845766
_cell_length_c 14.671578
_cell_angle_alpha 90.000000
_cell_angle_beta 88.425414
_cell_angle_gamma 90.000000
_cell_volume 2924.672485
_symmetry_space_group_name_H-M "C 2/C"
_symmetry_group_IT_number 15
_symmetry_cell_setting 'monoclinic'
loop_
_space_group_symop_operation_xyz
x,y,z
-x,y,1/2-z
-x,-y,-z
x,-y,1/2+z
1/2+x,1/2+y,z
1/2-x,1/2+y,1/2-z
1/2-x,1/2-y,-z
1/2+x,1/2-y,1/2+z
loop_
_atom_site_type_symbol
_atom_site_label
_atom_site_fract_x
_atom_site_fract_y
_atom_site_fract_z
Si Si1 0.925335 0.938772 0.722596
Si Si2 0.436525 0.332145 0.520931
Si Si3 0.355705 0.064929 0.488858
Si Si4 0.419567 0.208836 0.007341
Si Si5 0.074223 0.735369 0.280319
Si Si6 0.260456 0.079176 0.656072
Si Si7 0.367450 0.554945 0.411317
Si Si8 0.207618 0.373238 0.687420
O O1 0.914004 0.881704 0.622016
O O2 0.883178 0.888566 0.809938
O O3 0.000000 0.909137 0.750000
O O4 0.916551 0.101637 0.722872
O O5 0.394181 0.206220 0.487424
O O6 0.511098 0.276796 0.523522
O O7 0.424231 0.453912 0.449234
O O8 0.323163 0.054934 0.589517
O O9 0.299673 0.070277 0.414055
O O10 0.403590 0.938248 0.468002
O O11 0.364526 0.317398 0.978424
O O12 0.420748 0.194130 0.115231
O O13 0.133258 0.667083 0.222096
O O14 0.000000 0.704518 0.250000
O O15 0.250023 0.235476 0.683495
O O16 0.197770 0.033252 0.598099
O O17 0.264893 0.984311 0.744290
#
# Coordination Sequence:
#
# PCOD9301860 Si02
#       8
#     8   8   8   8   8   8   8   8
#     4  11  21  39  70 108 139 180 235 292 350 414
#     4  12  24  45  74 106 145 187 231 297 361 419
#     4  12  28  48  71 103 147 187 233 290 363 422
#     4  12  25  45  71 108 143 181 235 293 357 424
#     4  11  22  43  75 104 141 180 233 294 361 418
#     4  12  29  48  73 103 140 193 241 289 351 419
#     4  12  25  44  72 108 140 188 242 293 345 418
#     4  12  27  50  73 104 142 189 240 296 351 425
#
# _framework density 21.882791999999998
#
# number of rings (size 3 to 8) (size 9 to 14) (size 15 to 20)
#    0.000    0.250    6.250    3.375    3.500    1.500 
#    0.000    0.625    0.000    0.000    0.000    0.000 
#    0.000    0.000    0.000    0.000    0.000    0.000 
#
# Total GULP energy -179096.251972 kJ/mol
# GULP energy per Si atom -5596.757874 kJ/mol
# Density = 2.183299 g / cm^3
# Si number density = 21.882792 Si / 1000 Ang^3
#
#
#
# Elastic Constant Matrix: (Units=GPa)
#
#
# Indices 1 2 3 4 5 6 
#
# 1 37.9483 13.9451 14.4762 0.0000 8.4379 0.0000
# 2 13.9451 75.5399 62.6537 0.0000 21.1212 0.0000
# 3 14.4762 62.6537 123.4974 0.0000 17.2969 0.0000
# 4 0.0000 0.0000 0.0000 33.5255 0.0000 6.9166
# 5 8.4379 21.1212 17.2969 0.0000 33.2693 0.0000
# 6 0.0000 0.0000 0.0000 6.9166 0.0000 26.6496
#
#
#
# Elastic Compliance Matrix: (Units=1/GPa)
#
#
# Indices 1 2 3 4 5 6 
#
# 1 0.028986 -0.003014 -0.001194 0.000000 -0.004818 0.000000
# 2 -0.003014 0.026078 -0.011503 0.000000 -0.009811 0.000000
# 3 -0.001194 -0.011503 0.014029 0.000000 0.000312 0.000000
# 4 0.000000 0.000000 0.000000 0.031516 0.000000 -0.008180
# 5 -0.004818 -0.009811 0.000312 0.000000 0.037346 0.000000
# 6 0.000000 0.000000 0.000000 -0.008180 0.000000 0.039647
#
#
# Mechanical properties :
#
#
# Convention : Reuss Voigt Hill
#
# Bulk Modulus (GPa) = 26.54461 46.57063 36.55762
# Shear Modulus (GPa) = 22.56514 28.41622 25.49068
#
# Velocity S-wave (km/s) = 3.21469 3.60747 3.41673
# Velocity P-wave (km/s) = 5.09270 6.21931 5.68399
#
# Compressibility (1/GPa) = 0.03767243
#
# Stress axis : x y z
#
# Youngs Moduli (GPa) = 34.49966 38.34619 71.27897
#
# Poissons Ratio (x) = 0.11556 0.08511
# Poissons Ratio (y) = 0.10397 0.81991
# Poissons Ratio (z) = 0.04119 0.44109
#
# Static dielectric constant tensor:
#      x y z
#    x 1.823700 0.000000 -0.009890 
#    y 0.000000 1.776540 0.000000 
#    z -0.009890 0.000000 1.792100 
# 
# From -- ./inp_files/172388.got.cif
#   From: 2010.05.17/outbox.cif.g08.bks.cpg/sg15_87_cif.got.tgz:172388.got - 2010.06.03 18:47:42.
