data_PCOD9301883
_publ_section_title
;
Structure prediction by ZEFSAII (Michael W. Deem and Ramdas Pophale) SiO2 
 PCOD9301883
Probable space group: C 2/C
;
_chemical_formula_sum "Si O2"
_cell_formula_units_Z 56
_cell_length_a 7.962280
_cell_length_b 11.823973
_cell_length_c 25.288310
_cell_angle_alpha 90.000000
_cell_angle_beta 70.249733
_cell_angle_gamma 90.000000
_cell_volume 2240.736592
_symmetry_space_group_name_H-M "C 2/C"
_symmetry_group_IT_number 15
_symmetry_cell_setting 'monoclinic'
loop_
_space_group_symop_operation_xyz
x,y,z
-x,y,1/2-z
-x,-y,-z
x,-y,1/2+z
1/2+x,1/2+y,z
1/2-x,1/2+y,1/2-z
1/2-x,1/2-y,-z
1/2+x,1/2-y,1/2+z
loop_
_atom_site_type_symbol
_atom_site_label
_atom_site_fract_x
_atom_site_fract_y
_atom_site_fract_z
Si Si1 0.404932 0.384941 0.555963
Si Si2 0.889122 0.486802 0.090228
Si Si3 0.000000 0.457310 0.250000
Si Si4 0.506347 0.450079 0.357511
Si Si5 0.728437 0.080884 0.508128
Si Si6 0.500000 0.413555 0.750000
Si Si7 0.424494 0.137945 0.343313
Si Si8 0.220221 0.783889 0.288799
O O1 0.469525 0.467586 0.595901
O O2 0.308480 0.460418 0.521386
O O3 0.593918 0.340617 0.512539
O O4 0.246583 0.323504 0.604637
O O5 0.704103 0.424425 0.120971
O O6 0.056784 0.402858 0.063794
O O7 0.945854 0.576876 0.128350
O O8 0.853111 0.559270 0.040893
O O9 0.905276 0.538893 0.302093
O O10 0.847732 0.371638 0.243780
O O11 0.533718 0.511704 0.298105
O O12 0.659974 0.354927 0.347060
O O13 0.663171 0.328588 0.721491
O O14 0.520122 0.238494 0.301534
#
# Coordination Sequence:
#
# PCOD9301883 Si02
#       8
#     8   8   4   8   8   4   8   8
#     4   9  18  34  65  92 120 161 210 252 309 371
#     4   9  18  34  65  92 120 161 210 252 309 371
#     4  11  24  43  58  94 134 163 206 257 294 374
#     4  11  21  40  62  94 128 165 206 253 303 373
#     4   8  16  34  62  94 114 164 206 250 322 360
#     4  11  24  43  58  94 134 163 206 257 294 374
#     4  11  21  40  62  94 128 165 206 253 303 373
#     4  11  24  39  62  89 131 171 202 253 307 355
#
# _framework density 24.991783000000002
#
# number of rings (size 3 to 8) (size 9 to 14) (size 15 to 20)
#    0.000    2.000    2.857    0.857    0.000    0.571 
#    0.000    0.000    0.000   32.571    0.000    0.000 
#    0.000    0.000    0.000    0.000    0.000    0.000 
#
# Total GULP energy -155885.018562 kJ/mol
# GULP energy per Si atom -5567.322092 kJ/mol
# Density = 2.493490 g / cm^3
# Si number density = 24.991783 Si / 1000 Ang^3
#
#
#
# Elastic Constant Matrix: (Units=GPa)
#
#
# Indices 1 2 3 4 5 6 
#
# 1 95.1204 8.3770 42.6090 0.0000 -41.5312 0.0000
# 2 8.3770 58.6013 10.9096 0.0000 -16.1827 0.0000
# 3 42.6090 10.9096 85.0005 0.0000 -9.7704 0.0000
# 4 0.0000 0.0000 0.0000 5.8641 0.0000 -15.2191
# 5 -41.5312 -16.1827 -9.7704 0.0000 78.4548 0.0000
# 6 0.0000 0.0000 0.0000 -15.2191 0.0000 30.6706
#
#
#
# Elastic Compliance Matrix: (Units=1/GPa)
#
#
# Indices 1 2 3 4 5 6 
#
# 1 0.017829 0.001367 -0.008112 0.000000 0.008710 0.000000
# 2 0.001367 0.018514 -0.002576 0.000000 0.004222 0.000000
# 3 -0.008112 -0.002576 0.015833 0.000000 -0.002854 0.000000
# 4 0.000000 0.000000 0.000000 -0.592508 0.000000 -0.294009
# 5 0.008710 0.004222 -0.002854 0.000000 0.017872 0.000000
# 6 0.000000 0.000000 0.000000 -0.294009 0.000000 -0.113286
#
#
# Mechanical properties :
#
#
# Convention : Reuss Voigt Hill
#
# Bulk Modulus (GPa) = 29.81969 40.27926 35.04948
# Shear Modulus (GPa) = -8.25186 34.78633 13.26724
#
# Velocity S-wave (km/s) = -1.81906 3.73488 2.30655
# Velocity P-wave (km/s) = 2.74694 5.89501 4.59874
#
# Compressibility (1/GPa) = 0.03353489
#
# Stress axis : x y z
#
# Youngs Moduli (GPa) = 56.08824 54.01178 63.15744
#
# Poissons Ratio (x) = -0.07382 0.51231
# Poissons Ratio (y) = -0.07665 0.16270
# Poissons Ratio (z) = 0.45497 0.13914
#
# Static dielectric constant tensor:
#      x y z
#    x 2.061290 0.000000 -0.087970 
#    y 0.000000 2.050260 0.000000 
#    z -0.087970 0.000000 2.009270 
# 
# From -- ./inp_files/288000.got.cif
#   From: 2010.05.17/outbox.cif.g08.bks.cpg/sg15_144_cif.got.tgz:288000.got - 2010.06.03 18:47:42.
