data_PCOD9301792
_publ_section_title
;
Structure prediction by ZEFSAII (Michael W. Deem and Ramdas Pophale) SiO2 
 PCOD9301792
Probable space group: C 2/C
;
_chemical_formula_sum "Si O2"
_cell_formula_units_Z 48
_cell_length_a 12.367835
_cell_length_b 30.747779
_cell_length_c 8.745374
_cell_angle_alpha 90.000000
_cell_angle_beta 45.000069
_cell_angle_gamma 90.000000
_cell_volume 2351.642746
_symmetry_space_group_name_H-M "C 2/C"
_symmetry_group_IT_number 15
_symmetry_cell_setting 'monoclinic'
loop_
_space_group_symop_operation_xyz
x,y,z
-x,y,1/2-z
-x,-y,-z
x,-y,1/2+z
1/2+x,1/2+y,z
1/2-x,1/2+y,1/2-z
1/2-x,1/2-y,-z
1/2+x,1/2-y,1/2+z
loop_
_atom_site_type_symbol
_atom_site_label
_atom_site_fract_x
_atom_site_fract_y
_atom_site_fract_z
Si Si1 0.077828 0.213109 0.512018
Si Si2 0.341796 0.474558 0.685231
Si Si3 0.265031 0.628642 0.589050
Si Si4 0.339847 0.963109 0.332325
Si Si5 0.277027 0.275441 0.131177
Si Si6 0.104080 0.878642 0.880890
O O1 0.953814 0.216980 0.498141
O O2 0.000000 0.223339 0.750000
O O3 0.207638 0.246508 0.335161
O O4 0.131073 0.162903 0.460223
O O5 0.500000 0.500000 0.500000
O O6 0.207202 0.503492 0.750435
O O7 0.350502 0.426224 0.605473
O O8 0.298044 0.466979 0.905770
O O9 0.158703 0.587097 0.722368
O O10 0.205975 0.676224 0.693523
O O11 0.307539 0.630496 0.366622
O O12 0.424160 0.619504 0.518305
O O13 0.500000 0.973339 0.250000
O O14 0.250000 0.250000 0.000000
#
# Coordination Sequence:
#
# PCOD9301792 Si02
#       6
#     8   8   8   8   8   8
#     4  11  23  38  60  90 129 157 200 263 320 361
#     4  11  21  39  64  88 118 165 212 251 304 378
#     4   9  18  36  60  87 114 155 211 255 292 363
#     4  11  23  38  60  90 129 157 200 263 320 361
#     4  11  21  39  64  88 118 165 212 251 304 378
#     4   9  18  36  60  87 114 155 211 255 292 363
#
# _framework density 20.411263000000002
#
# number of rings (size 3 to 8) (size 9 to 14) (size 15 to 20)
#    0.000    1.667    3.333    2.000    0.000    2.667 
#    0.000    0.000    0.000    0.000    0.000    0.000 
#    0.000    0.000    0.000    0.000    0.000    0.000 
#
# Total GULP energy -134027.068261 kJ/mol
# GULP energy per Si atom -5584.461178 kJ/mol
# Density = 2.036481 g / cm^3
# Si number density = 20.411263 Si / 1000 Ang^3
#
#
#
# Elastic Constant Matrix: (Units=GPa)
#
#
# Indices 1 2 3 4 5 6 
#
# 1 47.9982 29.0627 -14.3015 0.0000 -4.0509 0.0000
# 2 29.0627 170.1990 29.0631 0.0000 0.0001 0.0000
# 3 -14.3015 29.0631 47.9975 0.0000 4.0515 0.0000
# 4 0.0000 0.0000 0.0000 23.7406 0.0000 -0.0002
# 5 -4.0509 0.0001 4.0515 0.0000 19.6873 0.0000
# 6 0.0000 0.0000 0.0000 -0.0002 0.0000 23.7400
#
#
#
# Elastic Compliance Matrix: (Units=1/GPa)
#
#
# Indices 1 2 3 4 5 6 
#
# 1 0.029280 -0.007183 0.012788 0.000000 0.003393 0.000000
# 2 -0.007183 0.008329 -0.007184 0.000000 0.000000 0.000000
# 3 0.012788 -0.007184 0.029281 0.000000 -0.003395 0.000000
# 4 0.000000 0.000000 0.000000 0.042122 0.000000 0.000000
# 5 0.003393 0.000000 -0.003395 0.000000 0.052191 0.000000
# 6 0.000000 0.000000 0.000000 0.000000 0.000000 0.042123
#
#
# Mechanical properties :
#
#
# Convention : Reuss Voigt Hill
#
# Bulk Modulus (GPa) = 15.69089 39.31594 27.50341
# Shear Modulus (GPa) = 21.95597 28.25825 25.10711
#
# Velocity S-wave (km/s) = 3.28331 3.72485 3.51103
# Velocity P-wave (km/s) = 4.69868 6.14842 5.47177
#
# Compressibility (1/GPa) = 0.06373126
#
# Stress axis : x y z
#
# Youngs Moduli (GPa) = 34.15273 120.06572 34.15185
#
# Poissons Ratio (x) = 0.86248 -0.43672
# Poissons Ratio (y) = 0.24533 0.24533
# Poissons Ratio (z) = -0.43673 0.86250
#
# Static dielectric constant tensor:
#      x y z
#    x 1.736770 0.000000 0.000000 
#    y 0.000000 1.760860 0.000000 
#    z 0.000000 0.000000 1.736770 
# 
# From -- ./inp_files/44436.got.cif
#   From: 2010.05.17/outbox.cif.g08.bks.cpg/sg15_23_cif.got.tgz:44436.got - 2010.06.03 18:47:42.
