data_PCOD9301477
_publ_section_title
;
Structure prediction by ZEFSAII (Michael W. Deem and Ramdas Pophale) SiO2 
 PCOD9301477
Probable space group: C 2/C
;
_chemical_formula_sum "Si O2"
_cell_formula_units_Z 40
_cell_length_a 18.851997
_cell_length_b 20.625830
_cell_length_c 8.959900
_cell_angle_alpha 90.000000
_cell_angle_beta 141.152007
_cell_angle_gamma 90.000000
_cell_volume 2185.330136
_symmetry_space_group_name_H-M "C 2/C"
_symmetry_group_IT_number 15
_symmetry_cell_setting 'monoclinic'
loop_
_space_group_symop_operation_xyz
x,y,z
-x,y,1/2-z
-x,-y,-z
x,-y,1/2+z
1/2+x,1/2+y,z
1/2-x,1/2+y,1/2-z
1/2-x,1/2-y,-z
1/2+x,1/2-y,1/2+z
loop_
_atom_site_type_symbol
_atom_site_label
_atom_site_fract_x
_atom_site_fract_y
_atom_site_fract_z
Si Si1 0.686027 0.334440 0.752317
Si Si2 0.831562 0.163031 0.632807
Si Si3 0.077999 0.714004 0.749242
Si Si4 0.416964 0.808356 0.754091
Si Si5 0.489675 0.429377 0.911122
O O1 0.665953 0.342906 0.543055
O O2 0.626159 0.269208 0.717749
O O3 0.627989 0.394508 0.739295
O O4 0.816835 0.323081 0.005846
O O5 0.700973 0.155696 0.467849
O O6 0.874976 0.236225 0.731817
O O7 0.913562 0.114852 0.853590
O O8 0.000000 0.744803 0.750000
O O9 0.994628 0.668399 0.517733
O O10 0.500000 0.805749 0.750000
O O11 0.500000 0.432038 0.750000
O O12 0.500000 0.500000 0.000000
#
# Coordination Sequence:
#
# PCOD9301477 Si02
#       5
#     8   8   8   8   8
#     4  11  22  36  59  86 124 156 198 242 290 352
#     4  11  22  37  58  87 123 158 196 243 294 346
#     4  11  21  35  56  92 125 159 191 237 300 352
#     4  11  21  34  57  88 128 158 190 238 298 356
#     4  12  26  43  64  85 115 155 203 246 290 346
#
# _framework density 18.303868999999999
#
# number of rings (size 3 to 8) (size 9 to 14) (size 15 to 20)
#    0.000    0.800    6.000    2.400    2.800    0.000 
#    0.000    0.000    0.000    2.400    0.000    0.000 
#    0.000    0.000    0.000    0.000    0.000    0.000 
#
# Total GULP energy -111689.580388 kJ/mol
# GULP energy per Si atom -5584.479019 kJ/mol
# Density = 1.826221 g / cm^3
# Si number density = 18.303869 Si / 1000 Ang^3
#
#
#
# Elastic Constant Matrix: (Units=GPa)
#
#
# Indices 1 2 3 4 5 6 
#
# 1 124.0612 28.8863 75.7526 0.0000 6.0348 0.0000
# 2 28.8863 73.0140 38.5095 0.0000 -1.6602 0.0000
# 3 75.7526 38.5095 147.7807 0.0000 -3.6425 0.0000
# 4 0.0000 0.0000 0.0000 22.8654 0.0000 -4.3603
# 5 6.0348 -1.6602 -3.6425 0.0000 40.2362 0.0000
# 6 0.0000 0.0000 0.0000 -4.3603 0.0000 17.2808
#
#
#
# Elastic Compliance Matrix: (Units=1/GPa)
#
#
# Indices 1 2 3 4 5 6 
#
# 1 0.012150 -0.001792 -0.005821 0.000000 -0.002423 0.000000
# 2 -0.001792 0.016146 -0.003273 0.000000 0.000639 0.000000
# 3 -0.005821 -0.003273 0.010645 0.000000 0.001702 0.000000
# 4 0.000000 0.000000 0.000000 0.045945 0.000000 0.011593
# 5 -0.002423 0.000639 0.001702 0.000000 0.025397 0.000000
# 6 0.000000 0.000000 0.000000 0.011593 0.000000 0.060793
#
#
# Mechanical properties :
#
#
# Convention : Reuss Voigt Hill
#
# Bulk Modulus (GPa) = 58.24296 70.12810 64.18553
# Shear Modulus (GPa) = 25.17995 29.52364 27.35179
#
# Velocity S-wave (km/s) = 3.71302 4.02054 3.86983
# Velocity P-wave (km/s) = 7.09021 7.74270 7.42363
#
# Compressibility (1/GPa) = 0.01716946
#
# Stress axis : x y z
#
# Youngs Moduli (GPa) = 82.30546 61.93576 93.93708
#
# Poissons Ratio (x) = 0.11098 0.54679
# Poissons Ratio (y) = 0.14748 0.30747
# Poissons Ratio (z) = 0.47909 0.20272
#
# Static dielectric constant tensor:
#      x y z
#    x 1.667700 0.000000 -0.004170 
#    y 0.000000 1.607790 0.000000 
#    z -0.004170 0.000000 1.691670 
# 
# From -- ./inp_files/29340.got.cif
#   From: 2010.05.17/outbox.cif.g08.bks.cpg/sg15_15_cif.got.tgz:29340.got - 2010.06.03 18:47:42.
