data_PCOD9301335
_publ_section_title
;
Structure prediction by ZEFSAII (Michael W. Deem and Ramdas Pophale) SiO2 
 PCOD9301335
Probable space group: C 2/C
;
_chemical_formula_sum "Si O2"
_cell_formula_units_Z 40
_cell_length_a 7.500975
_cell_length_b 14.568515
_cell_length_c 21.677223
_cell_angle_alpha 90.000000
_cell_angle_beta 46.084105
_cell_angle_gamma 90.000000
_cell_volume 1706.418170
_symmetry_space_group_name_H-M "C 2/C"
_symmetry_group_IT_number 15
_symmetry_cell_setting 'monoclinic'
loop_
_space_group_symop_operation_xyz
x,y,z
-x,y,1/2-z
-x,-y,-z
x,-y,1/2+z
1/2+x,1/2+y,z
1/2-x,1/2+y,1/2-z
1/2-x,1/2-y,-z
1/2+x,1/2-y,1/2+z
loop_
_atom_site_type_symbol
_atom_site_label
_atom_site_fract_x
_atom_site_fract_y
_atom_site_fract_z
Si Si1 0.246435 0.005166 0.271376
Si Si2 0.693208 0.247932 0.084572
Si Si3 0.271234 0.787268 0.754625
Si Si4 0.475943 0.426798 0.952718
Si Si5 0.938513 0.635390 0.623521
O O1 0.500000 0.994167 0.250000
O O2 0.228413 0.107975 0.249884
O O3 0.035388 0.017447 0.375202
O O4 0.291194 0.936476 0.202988
O O5 0.398230 0.252480 0.163918
O O6 0.826821 0.156364 0.082022
O O7 0.786563 0.335180 0.100014
O O8 0.750000 0.250000 0.000000
O O9 0.500000 0.781215 0.750000
O O10 0.055157 0.726962 0.835041
O O11 0.500000 0.500000 0.000000
O O12 0.202100 0.389484 0.031692
#
# Coordination Sequence:
#
# PCOD9301335 Si02
#       5
#     8   8   8   8   8
#     4  11  20  41  69  97 140 191 230 301 373 427
#     4  11  24  43  69 100 144 192 236 302 366 431
#     4   9  19  41  65  90 139 186 227 288 368 418
#     4  12  23  42  72 106 140 185 248 301 372 438
#     4  11  23  41  75 107 138 191 252 293 369 451
#
# _framework density 23.440912999999998
#
# number of rings (size 3 to 8) (size 9 to 14) (size 15 to 20)
#    0.000    1.200    8.000    0.600    2.800    0.000 
#    0.000    4.000    0.000    0.000    0.000    0.000 
#    0.000    0.000    0.000    0.000    0.000    0.000 
#
# Total GULP energy -111469.229435 kJ/mol
# GULP energy per Si atom -5573.461472 kJ/mol
# Density = 2.338756 g / cm^3
# Si number density = 23.440913 Si / 1000 Ang^3
#
#
#
# Elastic Constant Matrix: (Units=GPa)
#
#
# Indices 1 2 3 4 5 6 
#
# 1 57.6376 44.0509 57.4817 -0.0014 15.8700 0.0017
# 2 44.0509 98.4323 52.0050 -0.0004 7.2626 0.0013
# 3 57.4817 52.0050 227.3095 -0.0032 21.8050 0.0014
# 4 -0.0014 -0.0004 -0.0032 61.1428 0.0015 4.7343
# 5 15.8700 7.2626 21.8050 0.0015 31.1514 -0.0012
# 6 0.0017 0.0013 0.0014 4.7343 -0.0012 13.3872
#
#
#
# Elastic Compliance Matrix: (Units=1/GPa)
#
#
# Indices 1 2 3 4 5 6 
#
# 1 0.034570 -0.012045 -0.004895 0.000001 -0.011377 -0.000004
# 2 -0.012045 0.015777 -0.000857 0.000000 0.003058 0.000001
# 3 -0.004895 -0.000857 0.005976 0.000000 -0.001490 0.000000
# 4 0.000001 0.000000 0.000000 0.016816 -0.000002 -0.005947
# 5 -0.011377 0.003058 -0.001490 -0.000002 0.038227 0.000005
# 6 -0.000004 0.000001 0.000000 -0.005947 0.000005 0.076802
#
#
# Mechanical properties :
#
#
# Convention : Reuss Voigt Hill
#
# Bulk Modulus (GPa) = 48.24212 76.71718 62.47965
# Shear Modulus (GPa) = 21.67590 36.45906 29.06748
#
# Velocity S-wave (km/s) = 3.04419 3.94808 3.52523
# Velocity P-wave (km/s) = 5.74292 7.31998 6.57888
#
# Compressibility (1/GPa) = 0.02072878
#
# Stress axis : x y z
#
# Youngs Moduli (GPa) = 28.92686 63.38358 167.33566
#
# Poissons Ratio (x) = 0.76348 0.81908
# Poissons Ratio (y) = 0.34844 0.14338
# Poissons Ratio (z) = 0.14159 0.05431
#
# Static dielectric constant tensor:
#      x y z
#    x 1.866490 -0.000020 0.090340 
#    y -0.000020 1.920370 0.000030 
#    z 0.090340 0.000030 1.772620 
# 
# From -- ./inp_files/264088.got.cif
#   From: 2010.05.17/outbox.cif.g08.bks.cpg/sg15_133_cif.got.tgz:264088.got - 2010.06.03 18:47:42.
