data_PCOD9301142
_publ_section_title
;
Structure prediction by ZEFSAII (Michael W. Deem and Ramdas Pophale) SiO2 
 PCOD9301142
Probable space group: C 2/C
;
_chemical_formula_sum "Si O2"
_cell_formula_units_Z 32
_cell_length_a 26.187642
_cell_length_b 10.978268
_cell_length_c 14.202157
_cell_angle_alpha 90.000000
_cell_angle_beta 19.826454
_cell_angle_gamma 90.000000
_cell_volume 1384.856923
_symmetry_space_group_name_H-M "C 2/C"
_symmetry_group_IT_number 15
_symmetry_cell_setting 'monoclinic'
loop_
_space_group_symop_operation_xyz
x,y,z
-x,y,1/2-z
-x,-y,-z
x,-y,1/2+z
1/2+x,1/2+y,z
1/2-x,1/2+y,1/2-z
1/2-x,1/2-y,-z
1/2+x,1/2-y,1/2+z
loop_
_atom_site_type_symbol
_atom_site_label
_atom_site_fract_x
_atom_site_fract_y
_atom_site_fract_z
Si Si1 0.942771 0.691692 0.580543
Si Si2 0.294687 0.564299 0.300004
Si Si3 0.636890 0.944085 0.884687
Si Si4 0.376784 0.603925 0.819990
O O1 0.005016 0.640708 0.571219
O O2 0.080768 0.762712 0.290855
O O3 0.820003 0.798935 0.793779
O O4 0.891902 0.578875 0.605556
O O5 0.169178 0.555796 0.438701
O O6 0.280670 0.471202 0.410048
O O7 0.459157 0.537232 0.966121
O O8 0.789429 0.897318 0.568743
#
# Coordination Sequence:
#
# PCOD9301142 Si02
#       4
#     8   8   8   8
#     4   9  22  36  55  92 114 145 211 233 280 376
#     4   9  21  37  57  85 117 154 198 241 295 359
#     4  11  20  38  62  83 122 157 186 251 300 334
#     4   9  20  39  57  87 116 155 197 237 294 353
#
# _framework density 23.107081000000001
#
# number of rings (size 3 to 8) (size 9 to 14) (size 15 to 20)
#    1.500    1.000    0.000    1.500    3.500    1.000 
#    4.500    3.750    0.000    0.000    0.000    0.000 
#    0.000    0.000    0.000    0.000    0.000    0.000 
#
# Total GULP energy -89392.346201 kJ/mol
# GULP energy per Si atom -5587.021638 kJ/mol
# Density = 2.305449 g / cm^3
# Si number density = 23.107081 Si / 1000 Ang^3
#
#
#
# Elastic Constant Matrix: (Units=GPa)
#
#
# Indices 1 2 3 4 5 6 
#
# 1 180.2292 46.2638 18.0212 0.0000 -0.5117 0.0000
# 2 46.2638 122.6874 11.3181 0.0000 -1.4689 0.0000
# 3 18.0212 11.3181 82.9303 0.0000 -6.2556 0.0000
# 4 0.0000 0.0000 0.0000 29.8473 0.0000 -4.2806
# 5 -0.5117 -1.4689 -6.2556 0.0000 23.6439 0.0000
# 6 0.0000 0.0000 0.0000 -4.2806 0.0000 18.3801
#
#
#
# Elastic Compliance Matrix: (Units=1/GPa)
#
#
# Indices 1 2 3 4 5 6 
#
# 1 0.006233 -0.002255 -0.001068 0.000000 -0.000288 0.000000
# 2 -0.002255 0.009072 -0.000724 0.000000 0.000323 0.000000
# 3 -0.001068 -0.000724 0.012636 0.000000 0.003275 0.000000
# 4 0.000000 0.000000 0.000000 0.034662 0.000000 0.008073
# 5 -0.000288 0.000323 0.003275 0.000000 0.043175 0.000000
# 6 0.000000 0.000000 0.000000 0.008073 0.000000 0.056287
#
#
# Mechanical properties :
#
#
# Convention : Reuss Voigt Hill
#
# Bulk Modulus (GPa) = 50.38625 59.67257 55.02941
# Shear Modulus (GPa) = 28.28449 35.05717 31.67083
#
# Velocity S-wave (km/s) = 3.50245 3.89930 3.70619
# Velocity P-wave (km/s) = 6.18135 6.79361 6.49470
#
# Compressibility (1/GPa) = 0.01984668
#
# Stress axis : x y z
#
# Youngs Moduli (GPa) = 160.42429 110.23026 79.13699
#
# Poissons Ratio (x) = 0.24862 0.08456
# Poissons Ratio (y) = 0.36183 0.05726
# Poissons Ratio (z) = 0.17141 0.07976
#
# Static dielectric constant tensor:
#      x y z
#    x 1.811660 0.000000 -0.072120 
#    y 0.000000 1.802450 0.000000 
#    z -0.072120 0.000000 1.982660 
# 
# From -- ./inp_files/93542.got.cif
#   From: 2010.05.17/outbox.cif.g08.bks.cpg/sg15_47_cif.got.tgz:93542.got - 2010.06.03 18:47:42.
