data_PCOD9301912
_publ_section_title
;
Structure prediction by ZEFSAII (Michael W. Deem and Ramdas Pophale) SiO2 
 PCOD9301912
Probable space group: C 2/C
;
_chemical_formula_sum "Si O2"
_cell_formula_units_Z 48
_cell_length_a 8.210377
_cell_length_b 28.606652
_cell_length_c 14.100015
_cell_angle_alpha 90.000000
_cell_angle_beta 139.239247
_cell_angle_gamma 90.000000
_cell_volume 2162.208900
_symmetry_space_group_name_H-M "C 2/C"
_symmetry_group_IT_number 15
_symmetry_cell_setting 'monoclinic'
loop_
_space_group_symop_operation_xyz
x,y,z
-x,y,1/2-z
-x,-y,-z
x,-y,1/2+z
1/2+x,1/2+y,z
1/2-x,1/2+y,1/2-z
1/2-x,1/2-y,-z
1/2+x,1/2-y,1/2+z
loop_
_atom_site_type_symbol
_atom_site_label
_atom_site_fract_x
_atom_site_fract_y
_atom_site_fract_z
Si Si1 0.747410 0.299631 0.200089
Si Si2 0.022167 0.447203 0.545018
Si Si3 0.763486 0.108284 0.306892
Si Si4 0.708715 0.710040 0.149855
Si Si5 0.620932 0.100361 0.698955
Si Si6 0.971752 0.047133 0.547518
O O1 0.803295 0.257258 0.295725
O O2 0.737179 0.350120 0.247171
O O3 0.000000 0.302085 0.250000
O O4 0.498232 0.291110 0.026219
O O5 0.233630 0.429304 0.710531
O O6 0.000000 0.500000 0.500000
O O7 0.036796 0.411169 0.463535
O O8 0.773603 0.445196 0.499373
O O9 0.500000 0.109190 0.250000
O O10 0.828105 0.161402 0.309137
O O11 0.967081 0.088922 0.469159
O O12 0.000000 0.708592 0.250000
O O13 0.500000 0.099554 0.750000
O O14 0.803185 0.055820 0.782938
O O15 0.000000 0.000000 0.500000
#
# Coordination Sequence:
#
# PCOD9301912 Si02
#       6
#     8   8   8   8   8   8
#     4  11  25  44  68  99 139 174 221 282 352 400
#     4  11  23  40  64  98 127 173 228 275 340 401
#     4   9  21  40  62  90 130 165 215 275 335 396
#     4  11  23  44  70 101 129 176 227 277 342 413
#     4  11  24  42  62  91 134 176 223 273 336 405
#     4  11  21  40  66  91 130 170 213 282 337 401
#
# _framework density 22.199521000000001
#
# number of rings (size 3 to 8) (size 9 to 14) (size 15 to 20)
#    0.000    1.333    1.667    3.500    2.333    2.667 
#    0.000    2.500    0.000    0.000    0.000    0.000 
#    0.000    0.000    0.000    0.000    0.000    0.000 
#
# Total GULP energy -133833.822890 kJ/mol
# GULP energy per Si atom -5576.409287 kJ/mol
# Density = 2.214899 g / cm^3
# Si number density = 22.199521 Si / 1000 Ang^3
#
#
#
# Elastic Constant Matrix: (Units=GPa)
#
#
# Indices 1 2 3 4 5 6 
#
# 1 61.0926 17.0027 12.8096 0.0000 -6.1836 0.0000
# 2 17.0027 159.1008 33.4863 0.0000 -26.4597 0.0000
# 3 12.8096 33.4863 117.3208 0.0000 -11.1947 0.0000
# 4 0.0000 0.0000 0.0000 25.8268 0.0000 0.6653
# 5 -6.1836 -26.4597 -11.1947 0.0000 29.7950 0.0000
# 6 0.0000 0.0000 0.0000 0.6653 0.0000 12.9666
#
#
#
# Elastic Compliance Matrix: (Units=1/GPa)
#
#
# Indices 1 2 3 4 5 6 
#
# 1 0.017191 -0.001227 -0.001338 0.000000 0.001975 0.000000
# 2 -0.001227 0.007739 -0.001497 0.000000 0.006055 0.000000
# 3 -0.001338 -0.001497 0.009276 0.000000 0.001878 0.000000
# 4 0.000000 0.000000 0.000000 0.038771 0.000000 -0.001989
# 5 0.001975 0.006055 0.001878 0.000000 0.040056 0.000000
# 6 0.000000 0.000000 0.000000 -0.001989 0.000000 0.077223
#
#
# Mechanical properties :
#
#
# Convention : Reuss Voigt Hill
#
# Bulk Modulus (GPa) = 38.34216 51.56793 44.95505
# Shear Modulus (GPa) = 24.14604 31.99870 28.07237
#
# Velocity S-wave (km/s) = 3.30158 3.80071 3.55991
# Velocity P-wave (km/s) = 5.64296 6.52229 6.09850
#
# Compressibility (1/GPa) = 0.02608095
#
# Stress axis : x y z
#
# Youngs Moduli (GPa) = 58.17131 129.22315 107.80208
#
# Poissons Ratio (x) = 0.15855 0.14427
# Poissons Ratio (y) = 0.07137 0.16138
# Poissons Ratio (z) = 0.07785 0.19345
#
# Static dielectric constant tensor:
#      x y z
#    x 1.909800 0.000000 0.048230 
#    y 0.000000 1.847440 0.000000 
#    z 0.048230 0.000000 1.809520 
# 
# From -- ./inp_files/139003.got.cif
#   From: 2010.05.17/outbox.cif.g08.bks.cpg/sg15_70_cif.got.tgz:139003.got - 2010.06.03 18:47:42.
