data_PCOD9301747
_publ_section_title
;
Structure prediction by ZEFSAII (Michael W. Deem and Ramdas Pophale) SiO2 
 PCOD9301747
Probable space group: C 2/C
;
_chemical_formula_sum "Si O2"
_cell_formula_units_Z 44
_cell_length_a 14.064595
_cell_length_b 7.465674
_cell_length_c 23.637963
_cell_angle_alpha 90.000000
_cell_angle_beta 54.402126
_cell_angle_gamma 90.000000
_cell_volume 2018.190723
_symmetry_space_group_name_H-M "C 2/C"
_symmetry_group_IT_number 15
_symmetry_cell_setting 'monoclinic'
loop_
_space_group_symop_operation_xyz
x,y,z
-x,y,1/2-z
-x,-y,-z
x,-y,1/2+z
1/2+x,1/2+y,z
1/2-x,1/2+y,1/2-z
1/2-x,1/2-y,-z
1/2+x,1/2-y,1/2+z
loop_
_atom_site_type_symbol
_atom_site_label
_atom_site_fract_x
_atom_site_fract_y
_atom_site_fract_z
Si Si1 0.925919 0.105086 0.655076
Si Si2 0.500000 0.490412 0.750000
Si Si3 0.240162 0.630736 0.337339
Si Si4 0.351139 0.745116 0.510110
Si Si5 0.139093 0.822311 0.002916
Si Si6 0.601551 0.211922 0.889464
O O1 0.980243 0.100057 0.698954
O O2 0.869535 0.032886 0.509788
O O3 0.022639 0.197714 0.580914
O O4 0.900809 0.900719 0.643218
O O5 0.120455 0.879694 0.704611
O O6 0.191191 0.781916 0.312826
O O7 0.188053 0.673611 0.417271
O O8 0.184146 0.442520 0.337146
O O9 0.250000 0.750000 0.500000
O O10 0.465089 0.838165 0.444227
O O11 0.250000 0.750000 0.000000
O O12 0.140790 0.734651 0.940976
#
# Coordination Sequence:
#
# PCOD9301747 Si02
#       6
#     8   4   8   8   8   8
#     4  11  25  49  69 102 144 187 237 299 346 429
#     4  12  30  50  68 104 144 196 262 282 334 444
#     4  12  25  47  74  98 144 191 236 294 358 419
#     4  11  21  38  68 109 140 169 228 290 362 431
#     4  11  21  40  70 108 144 170 226 302 367 422
#     4  11  22  44  73 108 137 175 230 303 374 422
#
# _framework density 21.801707
#
# number of rings (size 3 to 8) (size 9 to 14) (size 15 to 20)
#    0.000    0.727    3.636    6.000    5.091    0.000 
#    0.000    1.818    0.000    0.000    0.000    0.000 
#    0.000    0.000    0.000    0.000    0.000    0.000 
#
# Total GULP energy -122990.402151 kJ/mol
# GULP energy per Si atom -5590.472825 kJ/mol
# Density = 2.175209 g / cm^3
# Si number density = 21.801707 Si / 1000 Ang^3
#
#
#
# Elastic Constant Matrix: (Units=GPa)
#
#
# Indices 1 2 3 4 5 6 
#
# 1 181.6005 53.1893 41.9925 0.0000 3.1749 0.0000
# 2 53.1893 89.5176 46.4962 0.0000 -9.3365 0.0000
# 3 41.9925 46.4962 111.3822 0.0000 21.4749 0.0000
# 4 0.0000 0.0000 0.0000 -1.5891 0.0000 16.3846
# 5 3.1749 -9.3365 21.4749 0.0000 42.2346 0.0000
# 6 0.0000 0.0000 0.0000 16.3846 0.0000 37.4382
#
#
#
# Elastic Compliance Matrix: (Units=1/GPa)
#
#
# Indices 1 2 3 4 5 6 
#
# 1 0.006800 -0.003693 -0.000850 0.000000 -0.000895 0.000000
# 2 -0.003693 0.018314 -0.007857 0.000000 0.008321 0.000000
# 3 -0.000850 -0.007857 0.014303 0.000000 -0.008946 0.000000
# 4 0.000000 0.000000 0.000000 -0.114159 0.000000 0.049961
# 5 -0.000895 0.008321 -0.008946 0.000000 0.030133 0.000000
# 6 0.000000 0.000000 0.000000 0.049961 0.000000 0.004846
#
#
# Mechanical properties :
#
#
# Convention : Reuss Voigt Hill
#
# Bulk Modulus (GPa) = 68.40745 73.98400 71.19573
# Shear Modulus (GPa) = -495.53721 31.67155 -231.93283
#
# Velocity S-wave (km/s) = -15.09259 3.81558 -10.32540
# Velocity P-wave (km/s) = 16.50060 7.30891 10.46063
#
# Compressibility (1/GPa) = 0.01461829
#
# Stress axis : x y z
#
# Youngs Moduli (GPa) = 147.05314 54.60243 69.91402
#
# Poissons Ratio (x) = 0.20163 0.05940
# Poissons Ratio (y) = 0.54301 0.54935
# Poissons Ratio (z) = 0.12494 0.42904
#
# Static dielectric constant tensor:
#      x y z
#    x 1.787180 0.000000 -0.042040 
#    y 0.000000 1.720820 0.000000 
#    z -0.042040 0.000000 1.790530 
# 
# From -- ./inp_files/242052.got.cif
#   From: 2010.05.17/outbox.cif.g08.bks.cpg/sg15_122_cif.got.tgz:242052.got - 2010.06.03 18:47:42.
