data_PCOD9301922
_publ_section_title
;
Structure prediction by ZEFSAII (Michael W. Deem and Ramdas Pophale) SiO2 
 PCOD9301922
Probable space group: C 2/C
;
_chemical_formula_sum "Si O2"
_cell_formula_units_Z 56
_cell_length_a 20.351935
_cell_length_b 13.821709
_cell_length_c 14.172403
_cell_angle_alpha 90.000000
_cell_angle_beta 42.299706
_cell_angle_gamma 90.000000
_cell_volume 2683.067727
_symmetry_space_group_name_H-M "C 2/C"
_symmetry_group_IT_number 15
_symmetry_cell_setting 'monoclinic'
loop_
_space_group_symop_operation_xyz
x,y,z
-x,y,1/2-z
-x,-y,-z
x,-y,1/2+z
1/2+x,1/2+y,z
1/2-x,1/2+y,1/2-z
1/2-x,1/2-y,-z
1/2+x,1/2-y,1/2+z
loop_
_atom_site_type_symbol
_atom_site_label
_atom_site_fract_x
_atom_site_fract_y
_atom_site_fract_z
Si Si1 0.889011 0.978128 0.863806
Si Si2 0.389876 0.506954 0.649994
Si Si3 0.787301 0.148390 0.036102
Si Si4 0.759930 0.344605 0.706841
Si Si5 0.768586 0.131273 0.628611
Si Si6 0.888445 0.650500 0.402435
Si Si7 0.608958 0.970731 0.410993
O O1 0.877988 0.028363 0.773816
O O2 0.000000 0.942762 0.750000
O O3 0.865074 0.062597 0.964046
O O4 0.814271 0.896916 0.978996
O O5 0.500000 0.500000 0.500000
O O6 0.341799 0.400497 0.697295
O O7 0.335629 0.584756 0.641391
O O8 0.736924 0.181237 0.185932
O O9 0.698884 0.104803 0.067300
O O10 0.850867 0.238939 0.934597
O O11 0.766308 0.246291 0.642826
O O12 0.837780 0.430821 0.610893
O O13 0.666739 0.077549 0.761564
O O14 0.885539 0.606858 0.510281
O O15 0.000000 0.640088 0.250000
O O16 0.500000 0.000000 0.500000
#
# Coordination Sequence:
#
# PCOD9301922 Si02
#       7
#     8   8   8   8   8   8   8
#     4  12  23  43  69 100 134 177 230 282 346 402
#     4  11  23  43  70  98 134 176 226 283 338 406
#     4  11  21  40  66  97 137 166 225 296 339 408
#     4  11  23  43  66  98 134 177 224 276 345 405
#     4  11  24  44  67 100 136 175 226 281 343 410
#     4  11  24  38  64 102 130 177 228 282 354 407
#     4  11  23  45  64  94 140 181 223 281 341 414
#
# _framework density 20.871632000000002
#
# number of rings (size 3 to 8) (size 9 to 14) (size 15 to 20)
#    0.000    0.857    5.714    3.000    2.000    1.714 
#    2.571    0.714    0.000    0.000    0.000    0.000 
#    0.000    0.000    0.000    0.000    0.000    0.000 
#
# Total GULP energy -156185.638216 kJ/mol
# GULP energy per Si atom -5578.058508 kJ/mol
# Density = 2.082413 g / cm^3
# Si number density = 20.871632 Si / 1000 Ang^3
#
#
#
# Elastic Constant Matrix: (Units=GPa)
#
#
# Indices 1 2 3 4 5 6 
#
# 1 58.4087 10.7593 38.6584 0.0000 -21.0840 0.0000
# 2 10.7593 121.9339 40.0838 0.0000 -19.1051 0.0000
# 3 38.6584 40.0838 142.6940 0.0000 -27.4675 0.0000
# 4 0.0000 0.0000 0.0000 23.5971 0.0000 7.8069
# 5 -21.0840 -19.1051 -27.4675 0.0000 39.3425 0.0000
# 6 0.0000 0.0000 0.0000 7.8069 0.0000 23.2721
#
#
#
# Elastic Compliance Matrix: (Units=1/GPa)
#
#
# Indices 1 2 3 4 5 6 
#
# 1 0.023659 0.001032 -0.004809 0.000000 0.009823 0.000000
# 2 0.001032 0.009403 -0.002236 0.000000 0.003558 0.000000
# 3 -0.004809 -0.002236 0.009512 0.000000 0.002978 0.000000
# 4 0.000000 0.000000 0.000000 0.047669 0.000000 -0.015991
# 5 0.009823 0.003558 0.002978 0.000000 0.034489 0.000000
# 6 0.000000 0.000000 0.000000 -0.015991 0.000000 0.048334
#
#
# Mechanical properties :
#
#
# Convention : Reuss Voigt Hill
#
# Bulk Modulus (GPa) = 32.73433 55.78219 44.25826
# Shear Modulus (GPa) = 25.60502 32.81134 29.20818
#
# Velocity S-wave (km/s) = 3.50635 3.96922 3.74494
# Velocity P-wave (km/s) = 5.66660 6.91307 6.32064
#
# Compressibility (1/GPa) = 0.03054897
#
# Stress axis : x y z
#
# Youngs Moduli (GPa) = 42.26675 106.35316 105.12834
#
# Poissons Ratio (x) = -0.10979 0.50554
# Poissons Ratio (y) = -0.04363 0.23507
# Poissons Ratio (z) = 0.20325 0.23781
#
# Static dielectric constant tensor:
#      x y z
#    x 1.904090 0.000000 0.071040 
#    y 0.000000 1.764870 0.000000 
#    z 0.071040 0.000000 1.801090 
# 
# From -- ./inp_files/168435.got.cif
#   From: 2010.05.17/outbox.cif.g08.bks.cpg/sg15_85_cif.got.tgz:168435.got - 2010.06.03 18:47:42.
