data_PCOD9301520
_publ_section_title
;
Structure prediction by ZEFSAII (Michael W. Deem and Ramdas Pophale) SiO2 
 PCOD9301520
Probable space group: C 2/C
;
_chemical_formula_sum "Si O2"
_cell_formula_units_Z 56
_cell_length_a 17.046973
_cell_length_b 23.115567
_cell_length_c 7.922386
_cell_angle_alpha 90.000000
_cell_angle_beta 125.590181
_cell_angle_gamma 90.000000
_cell_volume 2538.665405
_symmetry_space_group_name_H-M "C 2/C"
_symmetry_group_IT_number 15
_symmetry_cell_setting 'monoclinic'
loop_
_space_group_symop_operation_xyz
x,y,z
-x,y,1/2-z
-x,-y,-z
x,-y,1/2+z
1/2+x,1/2+y,z
1/2-x,1/2+y,1/2-z
1/2-x,1/2-y,-z
1/2+x,1/2-y,1/2+z
loop_
_atom_site_type_symbol
_atom_site_label
_atom_site_fract_x
_atom_site_fract_y
_atom_site_fract_z
Si Si1 0.235187 0.782577 0.303822
Si Si2 0.187650 0.167861 0.269567
Si Si3 0.171743 0.379023 0.265008
Si Si4 0.189262 0.408744 0.766442
Si Si5 0.883161 0.488718 0.129159
Si Si6 0.014847 0.803197 0.075172
Si Si7 0.512754 0.833162 0.574748
O O1 0.250000 0.750000 0.500000
O O2 0.272267 0.732388 0.222778
O O3 0.298057 0.840689 0.360355
O O4 0.125175 0.804624 0.152599
O O5 0.248459 0.142588 0.501591
O O6 0.209581 0.122082 0.144733
O O7 0.072417 0.171542 0.144594
O O8 0.151862 0.447043 0.259148
O O9 0.063119 0.356837 0.153810
O O10 0.158290 0.451434 0.576291
O O11 0.165912 0.449332 0.896468
O O12 0.117768 0.354393 0.659415
O O13 0.000000 0.494088 0.250000
O O14 0.000000 0.824262 0.250000
O O15 0.998102 0.734557 0.061488
O O16 0.500000 0.856171 0.750000
#
# Coordination Sequence:
#
# PCOD9301520 Si02
#       7
#     8   8   8   8   8   8   8
#     4  12  22  40  66  93 127 171 214 263 324 394
#     4  11  24  41  60  94 131 166 213 269 324 388
#     4  11  25  40  58  94 132 169 218 266 327 389
#     4  11  24  39  62  92 132 169 216 265 329 388
#     4  11  23  40  61  95 129 171 219 271 327 394
#     4  11  22  39  63  95 129 163 214 260 321 398
#     4  11  21  35  62  91 129 170 208 262 323 392
#
# _framework density 22.058834000000001
#
# number of rings (size 3 to 8) (size 9 to 14) (size 15 to 20)
#    0.000    0.857    5.714    2.143    2.000    0.571 
#    0.000    0.000    0.000    0.857    0.000    0.000 
#    0.000    0.000    0.000    0.000    0.000    0.000 
#
# Total GULP energy -156200.509706 kJ/mol
# GULP energy per Si atom -5578.589632 kJ/mol
# Density = 2.200863 g / cm^3
# Si number density = 22.058834 Si / 1000 Ang^3
#
#
#
# Elastic Constant Matrix: (Units=GPa)
#
#
# Indices 1 2 3 4 5 6 
#
# 1 89.4968 35.0505 37.1907 0.0000 25.8186 0.0000
# 2 35.0505 113.6885 24.0541 0.0000 10.3847 0.0000
# 3 37.1907 24.0541 84.6920 0.0000 20.0359 0.0000
# 4 0.0000 0.0000 0.0000 15.2025 0.0000 7.3328
# 5 25.8186 10.3847 20.0359 0.0000 43.0135 0.0000
# 6 0.0000 0.0000 0.0000 7.3328 0.0000 28.7577
#
#
#
# Elastic Compliance Matrix: (Units=1/GPa)
#
#
# Indices 1 2 3 4 5 6 
#
# 1 0.016427 -0.003462 -0.004603 0.000000 -0.006880 0.000000
# 2 -0.003462 0.010139 -0.001429 0.000000 0.000296 0.000000
# 3 -0.004603 -0.001429 0.015171 0.000000 -0.003959 0.000000
# 4 0.000000 0.000000 0.000000 0.075003 0.000000 -0.019125
# 5 -0.006880 0.000296 -0.003959 0.000000 0.029151 0.000000
# 6 0.000000 0.000000 0.000000 -0.019125 0.000000 0.039650
#
#
# Mechanical properties :
#
#
# Convention : Reuss Voigt Hill
#
# Bulk Modulus (GPa) = 43.95829 53.38535 48.67182
# Shear Modulus (GPa) = 23.57240 30.16687 26.86964
#
# Velocity S-wave (km/s) = 3.27251 3.70207 3.49390
# Velocity P-wave (km/s) = 5.85236 6.52132 6.19588
#
# Compressibility (1/GPa) = 0.02274884
#
# Stress axis : x y z
#
# Youngs Moduli (GPa) = 60.87526 98.63160 65.91464
#
# Poissons Ratio (x) = 0.34149 0.30337
# Poissons Ratio (y) = 0.21076 0.09421
# Poissons Ratio (z) = 0.28018 0.14097
#
# Static dielectric constant tensor:
#      x y z
#    x 1.932010 0.000000 -0.111970 
#    y 0.000000 1.784940 0.000000 
#    z -0.111970 0.000000 1.922570 
# 
# From -- ./inp_files/51572.got.cif
#   From: 2010.05.17/outbox.cif.g08.bks.cpg/sg15_26_cif.got.tgz:51572.got - 2010.06.03 18:47:42.
