data_PCOD9301387
_publ_section_title
;
Structure prediction by ZEFSAII (Michael W. Deem and Ramdas Pophale) SiO2 
 PCOD9301387
Probable space group: C 2/C
;
_chemical_formula_sum "Si O2"
_cell_formula_units_Z 36
_cell_length_a 6.682148
_cell_length_b 13.518789
_cell_length_c 19.583999
_cell_angle_alpha 90.000000
_cell_angle_beta 117.253675
_cell_angle_gamma 90.000000
_cell_volume 1572.718681
_symmetry_space_group_name_H-M "C 2/C"
_symmetry_group_IT_number 15
_symmetry_cell_setting 'monoclinic'
loop_
_space_group_symop_operation_xyz
x,y,z
-x,y,1/2-z
-x,-y,-z
x,-y,1/2+z
1/2+x,1/2+y,z
1/2-x,1/2+y,1/2-z
1/2-x,1/2-y,-z
1/2+x,1/2-y,1/2+z
loop_
_atom_site_type_symbol
_atom_site_label
_atom_site_fract_x
_atom_site_fract_y
_atom_site_fract_z
Si Si1 0.066256 0.265409 0.412806
Si Si2 0.819976 0.588497 0.970269
Si Si3 0.126867 0.152071 0.658271
Si Si4 0.351169 0.154355 0.130845
Si Si5 0.500000 0.983603 0.250000
O O1 0.250000 0.250000 0.500000
O O2 0.194877 0.302421 0.367257
O O3 0.907930 0.347047 0.421301
O O4 0.898820 0.173203 0.378433
O O5 0.554531 0.583395 0.910660
O O6 0.834945 0.642130 0.046266
O O7 0.000000 0.500000 0.000000
O O8 0.005247 0.249275 0.669246
O O9 0.280854 0.083748 0.729666
O O10 0.451065 0.055962 0.179155
#
# Coordination Sequence:
#
# PCOD9301387 Si02
#       5
#     8   8   8   8   4
#     4  11  20  42  78  99 130 177 236 308 348 399
#     4  11  23  42  73 108 134 178 245 299 352 414
#     4  11  25  48  70 104 143 185 240 292 359 420
#     4  11  25  47  68 105 141 183 240 295 352 422
#     4  12  30  44  70 104 148 200 226 272 366 450
#
# _framework density 22.890298000000001
#
# number of rings (size 3 to 8) (size 9 to 14) (size 15 to 20)
#    0.000    0.889    4.444    2.667    6.222    1.778 
#    0.000    4.444    0.000    0.000    0.000    0.000 
#    0.000    0.000    0.000    0.000    0.000    0.000 
#
# Total GULP energy -100586.446257 kJ/mol
# GULP energy per Si atom -5588.135903 kJ/mol
# Density = 2.283820 g / cm^3
# Si number density = 22.890298 Si / 1000 Ang^3
#
#
#
# Elastic Constant Matrix: (Units=GPa)
#
#
# Indices 1 2 3 4 5 6 
#
# 1 126.2144 36.2885 42.6633 0.0000 21.0969 0.0000
# 2 36.2885 97.9040 50.6978 0.0000 36.3008 0.0000
# 3 42.6633 50.6978 108.4226 0.0000 32.4649 0.0000
# 4 0.0000 0.0000 0.0000 58.3026 0.0000 12.3241
# 5 21.0969 36.3008 32.4649 0.0000 41.7966 0.0000
# 6 0.0000 0.0000 0.0000 12.3241 0.0000 33.6073
#
#
#
# Elastic Compliance Matrix: (Units=1/GPa)
#
#
# Indices 1 2 3 4 5 6 
#
# 1 0.009496 -0.001710 -0.002536 0.000000 -0.001338 0.000000
# 2 -0.001710 0.016894 -0.004029 0.000000 -0.010680 0.000000
# 3 -0.002536 -0.004029 0.013909 0.000000 -0.006024 0.000000
# 4 0.000000 0.000000 0.000000 0.018593 0.000000 -0.006818
# 5 -0.001338 -0.010680 -0.006024 0.000000 0.038556 0.000000
# 6 0.000000 0.000000 0.000000 -0.006818 0.000000 0.032256
#
#
# Mechanical properties :
#
#
# Convention : Reuss Voigt Hill
#
# Bulk Modulus (GPa) = 42.10828 65.76002 53.93415
# Shear Modulus (GPa) = 32.43172 40.26737 36.34954
#
# Velocity S-wave (km/s) = 3.76817 4.19877 3.98928
# Velocity P-wave (km/s) = 6.11292 7.23166 6.69569
#
# Compressibility (1/GPa) = 0.02374830
#
# Stress axis : x y z
#
# Youngs Moduli (GPa) = 105.31153 59.19170 71.89698
#
# Poissons Ratio (x) = 0.10124 0.18235
# Poissons Ratio (y) = 0.18012 0.28965
# Poissons Ratio (z) = 0.26709 0.23846
#
# Static dielectric constant tensor:
#      x y z
#    x 1.897490 0.000000 0.062140 
#    y 0.000000 2.008300 0.000000 
#    z 0.062140 0.000000 1.848090 
# 
# From -- ./inp_files/226500.got.cif
#   From: 2010.05.17/outbox.cif.g08.bks.cpg/sg15_114_cif.got.tgz:226500.got - 2010.06.03 18:47:42.
