data_PCOD9301327
_publ_section_title
;
Structure prediction by ZEFSAII (Michael W. Deem and Ramdas Pophale) SiO2 
 PCOD9301327
Probable space group: C 2/C
;
_chemical_formula_sum "Si O2"
_cell_formula_units_Z 60
_cell_length_a 12.616528
_cell_length_b 14.345334
_cell_length_c 17.120192
_cell_angle_alpha 90.000000
_cell_angle_beta 76.519231
_cell_angle_gamma 90.000000
_cell_volume 3013.183891
_symmetry_space_group_name_H-M "C 2/C"
_symmetry_group_IT_number 15
_symmetry_cell_setting 'monoclinic'
loop_
_space_group_symop_operation_xyz
x,y,z
-x,y,1/2-z
-x,-y,-z
x,-y,1/2+z
1/2+x,1/2+y,z
1/2-x,1/2+y,1/2-z
1/2-x,1/2-y,-z
1/2+x,1/2-y,1/2+z
loop_
_atom_site_type_symbol
_atom_site_label
_atom_site_fract_x
_atom_site_fract_y
_atom_site_fract_z
Si Si1 0.616478 0.287619 0.773051
Si Si2 0.105326 0.352538 0.601775
Si Si3 0.654034 0.795416 0.967093
Si Si4 0.613050 0.034733 0.372849
Si Si5 0.314559 0.664034 0.674143
Si Si6 0.917679 0.673268 0.566253
Si Si7 0.500000 0.280706 0.250000
Si Si8 0.750729 0.045502 0.194784
O O1 0.500000 0.280768 0.750000
O O2 0.709564 0.228341 0.711849
O O3 0.613882 0.241790 0.859216
O O4 0.655445 0.393563 0.779904
O O5 0.126797 0.308629 0.513336
O O6 0.206097 0.399361 0.627748
O O7 0.011712 0.430320 0.602991
O O8 0.051741 0.282610 0.673135
O O9 0.677883 0.890554 0.915182
O O10 0.627598 0.716560 0.907382
O O11 0.750000 0.750000 0.000000
O O12 0.548708 0.819128 0.036342
O O13 0.656335 0.039718 0.277029
O O14 0.618664 0.930400 0.403161
O O15 0.399614 0.663882 0.730653
O O16 0.281383 0.558447 0.665043
#
# Coordination Sequence:
#
# PCOD9301327 Si02
#       8
#     8   8   8   8   8   8   4   8
#     4  12  26  46  65 101 141 176 225 278 338 413
#     4  11  20  41  68  93 133 167 229 284 319 388
#     4  11  22  40  64  99 138 171 220 282 349 402
#     4  11  21  40  65 102 132 167 227 287 329 391
#     4  12  25  43  70  97 130 189 221 271 343 406
#     4  11  25  40  67 103 134 173 227 288 339 382
#     4  12  20  46  68  90 132 184 228 270 328 406
#     4  12  25  42  66  99 131 179 226 267 344 401
#
# _framework density 19.912493000000001
#
# number of rings (size 3 to 8) (size 9 to 14) (size 15 to 20)
#    0.000    0.533    8.000    2.400    6.533    0.533 
#    0.000    0.667    0.000    0.000    0.000    0.000 
#    0.000    0.000    0.000    0.000    0.000    0.000 
#
# Total GULP energy -167605.923758 kJ/mol
# GULP energy per Si atom -5586.864125 kJ/mol
# Density = 1.986717 g / cm^3
# Si number density = 19.912493 Si / 1000 Ang^3
#
#
#
# Elastic Constant Matrix: (Units=GPa)
#
#
# Indices 1 2 3 4 5 6 
#
# 1 96.8306 25.5555 8.0304 0.0000 25.7863 0.0000
# 2 25.5555 94.2077 26.3078 0.0000 -2.8492 0.0000
# 3 8.0304 26.3078 79.9300 0.0000 11.9327 0.0000
# 4 0.0000 0.0000 0.0000 0.4897 0.0000 -3.0021
# 5 25.7863 -2.8492 11.9327 0.0000 28.6598 0.0000
# 6 0.0000 0.0000 0.0000 -3.0021 0.0000 27.6695
#
#
#
# Elastic Compliance Matrix: (Units=1/GPa)
#
#
# Indices 1 2 3 4 5 6 
#
# 1 0.015767 -0.005475 0.002577 0.000000 -0.015803 0.000000
# 2 -0.005475 0.013828 -0.005270 0.000000 0.008495 0.000000
# 3 0.002577 -0.005270 0.015366 0.000000 -0.009240 0.000000
# 4 0.000000 0.000000 0.000000 6.098115 0.000000 0.661642
# 5 -0.015803 0.008495 -0.009240 0.000000 0.053803 0.000000
# 6 0.000000 0.000000 0.000000 0.661642 0.000000 0.107929
#
#
# Mechanical properties :
#
#
# Convention : Reuss Voigt Hill
#
# Bulk Modulus (GPa) = 34.93199 43.41730 39.17465
# Shear Modulus (GPa) = 0.78980 25.43544 13.11262
#
# Velocity S-wave (km/s) = 0.63047 3.57790 2.56893
# Velocity P-wave (km/s) = 4.25568 6.23858 5.33998
#
# Compressibility (1/GPa) = 0.02862705
#
# Stress axis : x y z
#
# Youngs Moduli (GPa) = 63.42373 72.31503 65.07925
#
# Poissons Ratio (x) = 0.39590 -0.16772
# Poissons Ratio (y) = 0.34722 0.34294
# Poissons Ratio (z) = -0.16345 0.38107
#
# Static dielectric constant tensor:
#      x y z
#    x 1.757820 0.000000 0.029590 
#    y 0.000000 1.676700 0.000000 
#    z 0.029590 0.000000 1.734840 
# 
# From -- ./inp_files/197829.got.cif
#   From: 2010.05.17/outbox.cif.g08.bks.cpg/sg15_99_cif.got.tgz:197829.got - 2010.06.03 18:47:42.
