data_PCOD9301894
_publ_section_title
;
Structure prediction by ZEFSAII (Michael W. Deem and Ramdas Pophale) SiO2 
 PCOD9301894
Probable space group: C 2/C
;
_chemical_formula_sum "Si O2"
_cell_formula_units_Z 64
_cell_length_a 19.719865
_cell_length_b 19.163233
_cell_length_c 24.161115
_cell_angle_alpha 90.000000
_cell_angle_beta 159.652110
_cell_angle_gamma 90.000000
_cell_volume 3174.816865
_symmetry_space_group_name_H-M "C 2/C"
_symmetry_group_IT_number 15
_symmetry_cell_setting 'monoclinic'
loop_
_space_group_symop_operation_xyz
x,y,z
-x,y,1/2-z
-x,-y,-z
x,-y,1/2+z
1/2+x,1/2+y,z
1/2-x,1/2+y,1/2-z
1/2-x,1/2-y,-z
1/2+x,1/2-y,1/2+z
loop_
_atom_site_type_symbol
_atom_site_label
_atom_site_fract_x
_atom_site_fract_y
_atom_site_fract_z
Si Si1 0.637141 0.319081 0.180051
Si Si2 0.724497 0.674490 0.181511
Si Si3 0.932102 0.912017 0.759728
Si Si4 0.567054 0.031330 0.143230
Si Si5 0.915624 0.171400 0.034219
Si Si6 0.936773 0.582475 0.764114
Si Si7 0.430898 0.827772 0.044135
Si Si8 0.797701 0.962220 0.218434
O O1 0.651090 0.245454 0.222515
O O2 0.616285 0.386731 0.202476
O O3 0.851511 0.327662 0.315187
O O4 0.459635 0.318345 0.000701
O O5 0.845913 0.604014 0.268067
O O6 0.626574 0.668800 0.167192
O O7 0.709784 0.884194 0.591628
O O8 0.000000 0.925979 0.750000
O O9 0.057151 0.850444 0.881997
O O10 0.945656 0.981231 0.806722
O O11 0.539053 0.980364 0.174198
O O12 0.711975 0.993947 0.210053
O O13 0.373261 0.044315 0.958389
O O14 0.845224 0.250355 0.972713
O O15 0.781436 0.112792 0.904359
O O16 0.000000 0.566976 0.750000
O O17 0.051901 0.647180 0.879649
#
# Coordination Sequence:
#
# PCOD9301894 Si02
#       8
#     8   8   8   8   8   8   8   8
#     4  11  23  39  66  94 123 156 204 256 307 369
#     4  11  23  39  64  96 121 157 205 253 311 364
#     4  12  25  39  58  88 124 168 212 252 305 359
#     4  11  22  40  64  88 121 165 206 256 309 359
#     4  11  24  35  61  86 123 168 208 252 289 369
#     4  12  24  40  58  87 126 165 208 254 302 361
#     4  11  22  41  56  87 124 167 211 242 301 360
#     4  11  21  40  64  87 122 164 206 259 304 358
#
# _framework density 20.158643999999999
#
# number of rings (size 3 to 8) (size 9 to 14) (size 15 to 20)
#    0.000    0.750    5.000    3.000    7.000    4.000 
#    0.000    0.000    0.000    0.750    0.000    3.500 
#    0.000    0.000    0.000    0.000    0.000    0.000 
#
# Total GULP energy -178785.191382 kJ/mol
# GULP energy per Si atom -5587.037231 kJ/mol
# Density = 2.011276 g / cm^3
# Si number density = 20.158644 Si / 1000 Ang^3
#
#
#
# Elastic Constant Matrix: (Units=GPa)
#
#
# Indices 1 2 3 4 5 6 
#
# 1 65.2060 39.3634 0.6922 -0.0020 -21.1569 0.0087
# 2 39.3634 156.8474 44.0486 0.0058 -11.5093 -0.0005
# 3 0.6922 44.0486 71.4214 0.0577 -15.7028 0.0012
# 4 -0.0020 0.0058 0.0577 34.4329 0.0151 -11.0397
# 5 -21.1569 -11.5093 -15.7028 0.0151 24.6014 0.0016
# 6 0.0087 -0.0005 0.0012 -11.0397 0.0016 20.2004
#
#
#
# Elastic Compliance Matrix: (Units=1/GPa)
#
#
# Indices 1 2 3 4 5 6 
#
# 1 0.029676 -0.008506 0.011277 -0.000041 0.028740 -0.000038
# 2 -0.008506 0.010159 -0.007847 0.000019 -0.007571 0.000016
# 3 0.011277 -0.007847 0.023331 -0.000059 0.020919 -0.000041
# 4 -0.000041 0.000019 -0.000059 0.035212 -0.000087 0.019244
# 5 0.028740 -0.007571 0.020919 -0.000087 0.075174 -0.000067
# 6 -0.000038 0.000016 -0.000041 0.019244 -0.000067 0.060021
#
#
# Mechanical properties :
#
#
# Convention : Reuss Voigt Hill
#
# Bulk Modulus (GPa) = 18.86311 51.29815 35.08063
# Shear Modulus (GPa) = 19.12805 29.80500 24.46652
#
# Velocity S-wave (km/s) = 3.08372 3.84933 3.48760
# Velocity P-wave (km/s) = 4.69647 6.72747 5.80154
#
# Compressibility (1/GPa) = 0.05301353
#
# Stress axis : x y z
#
# Youngs Moduli (GPa) = 33.69720 98.43903 42.86094
#
# Poissons Ratio (x) = 0.83730 -0.48335
# Poissons Ratio (y) = 0.28662 0.33635
# Poissons Ratio (z) = -0.38001 0.77249
#
# Static dielectric constant tensor:
#      x y z
#    x 1.703500 0.000000 0.009050 
#    y 0.000000 1.716670 -0.000020 
#    z 0.009050 -0.000020 1.772530 
# 
# From -- ./inp_files/256040.got.cif
#   From: 2010.05.17/outbox.cif.g08.bks.cpg/sg15_129_cif.got.tgz:256040.got - 2010.06.03 18:47:42.
