data_PCOD9301401
_publ_section_title
;
Structure prediction by ZEFSAII (Michael W. Deem and Ramdas Pophale) SiO2 
 PCOD9301401
Probable space group: C 2/C
;
_chemical_formula_sum "Si O2"
_cell_formula_units_Z 60
_cell_length_a 12.302284
_cell_length_b 16.420457
_cell_length_c 22.127988
_cell_angle_alpha 90.000000
_cell_angle_beta 40.877497
_cell_angle_gamma 90.000000
_cell_volume 2925.400560
_symmetry_space_group_name_H-M "C 2/C"
_symmetry_group_IT_number 15
_symmetry_cell_setting 'monoclinic'
loop_
_space_group_symop_operation_xyz
x,y,z
-x,y,1/2-z
-x,-y,-z
x,-y,1/2+z
1/2+x,1/2+y,z
1/2-x,1/2+y,1/2-z
1/2-x,1/2-y,-z
1/2+x,1/2-y,1/2+z
loop_
_atom_site_type_symbol
_atom_site_label
_atom_site_fract_x
_atom_site_fract_y
_atom_site_fract_z
Si Si1 0.487280 0.141534 0.471193
Si Si2 0.643998 0.401440 0.642078
Si Si3 0.819378 0.079149 0.827793
Si Si4 0.279079 0.545310 0.706012
Si Si5 0.007976 0.830042 0.442751
Si Si6 0.192609 0.567766 0.060324
Si Si7 0.065963 0.080152 0.044805
Si Si8 0.500000 0.962932 0.750000
O O1 0.670860 0.124635 0.418769
O O2 0.338578 0.127781 0.581548
O O3 0.489009 0.234260 0.448892
O O4 0.441631 0.080767 0.435468
O O5 0.500000 0.377226 0.750000
O O6 0.651061 0.500514 0.641514
O O7 0.596424 0.373860 0.594884
O O8 0.781688 0.044889 0.776992
O O9 0.000000 0.122444 0.750000
O O10 0.337646 0.633771 0.659203
O O11 0.412906 0.481353 0.622080
O O12 0.106665 0.518556 0.750004
O O13 0.030532 0.864780 0.501592
O O14 0.844461 0.871697 0.483612
O O15 0.115386 0.588992 0.157551
O O16 0.274077 0.478334 0.032273
#
# Coordination Sequence:
#
# PCOD9301401 Si02
#       8
#     8   8   8   8   8   8   8   4
#     4  12  26  42  65  98 134 176 211 263 341 401
#     4  11  23  42  67  93 125 166 224 275 311 381
#     4  11  21  41  68  98 122 164 222 277 316 378
#     4  11  21  40  65  92 127 163 217 272 318 378
#     4  11  24  45  59  94 137 174 202 266 347 393
#     4  11  22  40  68  92 125 167 224 269 313 389
#     4  11  20  43  69  86 126 172 216 268 321 378
#     4  12  22  36  68 102 114 160 232 272 308 382
#
# _framework density 20.510010999999999
#
# number of rings (size 3 to 8) (size 9 to 14) (size 15 to 20)
#    0.000    0.800    6.667    3.200    1.867    0.533 
#    7.200    0.000    0.000    0.000    0.000    0.000 
#    0.000    0.000    0.000    0.000    0.000    0.000 
#
# Total GULP energy -167649.444992 kJ/mol
# GULP energy per Si atom -5588.314833 kJ/mol
# Density = 2.046333 g / cm^3
# Si number density = 20.510011 Si / 1000 Ang^3
#
#
#
# Elastic Constant Matrix: (Units=GPa)
#
#
# Indices 1 2 3 4 5 6 
#
# 1 118.1224 -9.9868 22.7148 0.0001 -6.4076 0.0000
# 2 -9.9868 25.0296 10.0717 0.0001 -12.0103 0.0000
# 3 22.7148 10.0717 71.4700 0.0004 -10.7937 -0.0002
# 4 0.0001 0.0001 0.0004 12.5251 -0.0001 2.4161
# 5 -6.4076 -12.0103 -10.7937 -0.0001 42.0215 0.0001
# 6 0.0000 0.0000 -0.0002 2.4161 0.0001 13.9602
#
#
#
# Elastic Compliance Matrix: (Units=1/GPa)
#
#
# Indices 1 2 3 4 5 6 
#
# 1 0.009867 0.006595 -0.003697 0.000000 0.002440 0.000000
# 2 0.006595 0.052286 -0.007340 0.000000 0.014064 0.000000
# 3 -0.003697 -0.007340 0.016437 0.000000 0.001560 0.000000
# 4 0.000000 0.000000 0.000000 0.082597 0.000000 -0.014295
# 5 0.002440 0.014064 0.001560 0.000000 0.028590 0.000000
# 6 0.000000 0.000000 0.000000 -0.014295 0.000000 0.074106
#
#
# Mechanical properties :
#
#
# Convention : Reuss Voigt Hill
#
# Bulk Modulus (GPa) = 14.34597 28.91348 21.62973
# Shear Modulus (GPa) = 16.89175 26.48952 21.69063
#
# Velocity S-wave (km/s) = 2.87293 3.59770 3.25555
# Velocity P-wave (km/s) = 4.24438 5.60230 4.96994
#
# Compressibility (1/GPa) = 0.06970596
#
# Stress axis : x y z
#
# Youngs Moduli (GPa) = 101.35182 19.12543 60.83890
#
# Poissons Ratio (x) = -0.12613 0.22491
# Poissons Ratio (y) = -0.66842 0.44658
# Poissons Ratio (z) = 0.37467 0.14039
#
# Static dielectric constant tensor:
#      x y z
#    x 1.749830 0.000000 0.003660 
#    y 0.000000 1.700320 0.000000 
#    z 0.003660 0.000000 1.778010 
# 
# From -- ./inp_files/239954.got.cif
#   From: 2010.05.17/outbox.cif.g08.bks.cpg/sg15_120_cif.got.tgz:239954.got - 2010.06.03 18:47:42.
