data_PCOD9301946
_publ_section_title
;
Structure prediction by ZEFSAII (Michael W. Deem and Ramdas Pophale) SiO2 
 PCOD9301946
Probable space group: C 2/C
;
_chemical_formula_sum "Si O2"
_cell_formula_units_Z 40
_cell_length_a 7.245563
_cell_length_b 23.621188
_cell_length_c 13.479173
_cell_angle_alpha 90.000000
_cell_angle_beta 47.155345
_cell_angle_gamma 90.000000
_cell_volume 1691.451839
_symmetry_space_group_name_H-M "C 2/C"
_symmetry_group_IT_number 15
_symmetry_cell_setting 'monoclinic'
loop_
_space_group_symop_operation_xyz
x,y,z
-x,y,1/2-z
-x,-y,-z
x,-y,1/2+z
1/2+x,1/2+y,z
1/2-x,1/2+y,1/2-z
1/2-x,1/2-y,-z
1/2+x,1/2-y,1/2+z
loop_
_atom_site_type_symbol
_atom_site_label
_atom_site_fract_x
_atom_site_fract_y
_atom_site_fract_z
Si Si1 0.780839 0.254689 0.606945
Si Si2 0.425423 0.057030 0.888192
Si Si3 0.280179 0.945473 0.027604
Si Si4 0.763184 0.627243 0.208454
Si Si5 0.986540 0.860041 0.012847
O O1 0.500000 0.246629 0.750000
O O2 0.750000 0.250000 0.500000
O O3 0.864484 0.315163 0.619470
O O4 0.953958 0.201736 0.570086
O O5 0.500000 0.040766 0.750000
O O6 0.276665 0.116246 0.935264
O O7 0.245797 0.009256 0.002233
O O8 0.658500 0.058358 0.878784
O O9 0.537117 0.921984 0.881871
O O10 0.067101 0.904849 0.065474
O O11 0.500000 0.613725 0.250000
O O12 0.687030 0.639053 0.349851
#
# Coordination Sequence:
#
# PCOD9301946 Si02
#       5
#     8   8   8   8   8
#     4  11  21  40  68  98 136 187 230 281 350 407
#     4  11  24  45  67 100 140 176 224 291 348 413
#     4  11  25  43  70 101 133 181 232 280 352 419
#     4  11  21  42  67  96 134 184 225 280 347 411
#     4  12  23  42  70  99 137 181 232 284 344 418
#
# _framework density 23.648323999999999
#
# number of rings (size 3 to 8) (size 9 to 14) (size 15 to 20)
#    0.000    0.800    6.000    3.000    0.000    1.600 
#    0.000    0.000    0.000    0.000    0.000    0.000 
#    0.000    0.000    0.000    0.000    0.000    0.000 
#
# Total GULP energy -111994.930351 kJ/mol
# GULP energy per Si atom -5599.746518 kJ/mol
# Density = 2.359450 g / cm^3
# Si number density = 23.648324 Si / 1000 Ang^3
#
#
#
# Elastic Constant Matrix: (Units=GPa)
#
#
# Indices 1 2 3 4 5 6 
#
# 1 60.0611 6.4484 10.2114 0.0000 25.8883 0.0000
# 2 6.4484 95.7788 5.6574 0.0000 7.8468 0.0000
# 3 10.2114 5.6574 108.0422 0.0000 31.3963 0.0000
# 4 0.0000 0.0000 0.0000 31.7656 0.0000 -23.3035
# 5 25.8883 7.8468 31.3963 0.0000 38.5603 0.0000
# 6 0.0000 0.0000 0.0000 -23.3035 0.0000 9.1139
#
#
#
# Elastic Compliance Matrix: (Units=1/GPa)
#
#
# Indices 1 2 3 4 5 6 
#
# 1 0.024251 -0.000279 0.003193 0.000000 -0.018824 0.000000
# 2 -0.000279 0.010622 0.000057 0.000000 -0.002021 0.000000
# 3 0.003193 0.000057 0.012546 0.000000 -0.012370 0.000000
# 4 0.000000 0.000000 0.000000 -0.035945 0.000000 -0.091910
# 5 -0.018824 -0.002021 -0.012370 0.000000 0.049054 0.000000
# 6 0.000000 0.000000 0.000000 -0.091910 0.000000 -0.125284
#
#
# Mechanical properties :
#
#
# Convention : Reuss Voigt Hill
#
# Bulk Modulus (GPa) = 18.74066 34.27961 26.51013
# Shear Modulus (GPa) = -94.49526 31.99227 -31.25150
#
# Velocity S-wave (km/s) = -6.32813 3.68208 -3.63920
# Velocity P-wave (km/s) = 6.74179 5.70999 2.53454
#
# Compressibility (1/GPa) = 0.05335993
#
# Stress axis : x y z
#
# Youngs Moduli (GPa) = 41.23611 94.14709 79.70984
#
# Poissons Ratio (x) = 0.02628 -0.25449
# Poissons Ratio (y) = 0.01151 -0.00458
# Poissons Ratio (z) = -0.13166 -0.00541
#
# Static dielectric constant tensor:
#      x y z
#    x 1.914500 0.000000 -0.006380 
#    y 0.000000 1.877870 0.000000 
#    z -0.006380 0.000000 1.883280 
# 
# From -- ./inp_files/135761.got.cif
#   From: 2010.05.17/outbox.cif.g08.bks.cpg/sg15_68_cif.got.tgz:135761.got - 2010.06.03 18:47:42.
