data_PCOD9301410
_publ_section_title
;
Structure prediction by ZEFSAII (Michael W. Deem and Ramdas Pophale) SiO2 
 PCOD9301410
Probable space group: C 2/C
;
_chemical_formula_sum "Si O2"
_cell_formula_units_Z 60
_cell_length_a 22.918301
_cell_length_b 9.148843
_cell_length_c 14.648146
_cell_angle_alpha 90.000000
_cell_angle_beta 116.065665
_cell_angle_gamma 90.000000
_cell_volume 2758.978572
_symmetry_space_group_name_H-M "C 2/C"
_symmetry_group_IT_number 15
_symmetry_cell_setting 'monoclinic'
loop_
_space_group_symop_operation_xyz
x,y,z
-x,y,1/2-z
-x,-y,-z
x,-y,1/2+z
1/2+x,1/2+y,z
1/2-x,1/2+y,1/2-z
1/2-x,1/2-y,-z
1/2+x,1/2-y,1/2+z
loop_
_atom_site_type_symbol
_atom_site_label
_atom_site_fract_x
_atom_site_fract_y
_atom_site_fract_z
Si Si1 0.321859 0.543950 0.015664
Si Si2 0.450211 0.596562 0.527097
Si Si3 0.992289 0.648052 0.939373
Si Si4 0.413738 0.002805 0.236355
Si Si5 0.761529 0.956190 0.656226
Si Si6 0.629553 0.852914 0.473716
Si Si7 0.717991 0.878765 0.294749
Si Si8 0.500000 0.273840 0.250000
O O1 0.379227 0.468495 0.998757
O O2 0.301328 0.478396 0.098294
O O3 0.343660 0.708188 0.055287
O O4 0.259032 0.567607 0.910107
O O5 0.500000 0.500000 0.500000
O O6 0.447162 0.744592 0.465755
O O7 0.477801 0.631953 0.647475
O O8 0.964100 0.606682 0.821094
O O9 0.066408 0.702016 0.984682
O O10 0.000000 0.500000 0.000000
O O11 0.395958 0.961355 0.120849
O O12 0.348581 0.970403 0.248217
O O13 0.444913 0.163067 0.251757
O O14 0.688069 0.920829 0.571334
O O15 0.788633 0.797119 0.706453
O O16 0.758007 0.071420 0.734392
#
# Coordination Sequence:
#
# PCOD9301410 Si02
#       8
#     8   8   8   8   8   8   8   4
#     4  11  24  47  69  98 150 183 232 290 361 431
#     4  12  28  47  72 105 145 187 237 297 365 432
#     4  12  23  42  71 106 137 180 234 295 349 425
#     4  12  22  43  74 102 141 182 244 288 356 425
#     4  11  24  45  70 103 143 186 239 292 357 429
#     4  11  20  43  71  99 138 188 229 288 352 425
#     4  11  25  43  72 104 137 190 234 291 358 426
#     4  12  28  46  70 108 144 190 236 310 360 420
#
# _framework density 21.74718
#
# number of rings (size 3 to 8) (size 9 to 14) (size 15 to 20)
#    0.000    0.533    6.667    1.600    1.867    3.200 
#    0.000    1.333    0.000    0.000    0.000    0.000 
#    0.000    0.000    0.000    0.000    0.000    0.000 
#
# Total GULP energy -167596.045188 kJ/mol
# GULP energy per Si atom -5586.534840 kJ/mol
# Density = 2.169768 g / cm^3
# Si number density = 21.747180 Si / 1000 Ang^3
#
#
#
# Elastic Constant Matrix: (Units=GPa)
#
#
# Indices 1 2 3 4 5 6 
#
# 1 124.0342 21.2837 13.1013 0.0000 -11.6582 0.0000
# 2 21.2837 53.5116 16.5223 0.0000 -4.1751 0.0000
# 3 13.1013 16.5223 54.1186 0.0000 -15.6014 0.0000
# 4 0.0000 0.0000 0.0000 38.6439 0.0000 -10.8703
# 5 -11.6582 -4.1751 -15.6014 0.0000 39.8891 0.0000
# 6 0.0000 0.0000 0.0000 -10.8703 0.0000 29.8069
#
#
#
# Elastic Compliance Matrix: (Units=1/GPa)
#
#
# Indices 1 2 3 4 5 6 
#
# 1 0.008861 -0.003185 -0.000589 0.000000 0.002026 0.000000
# 2 -0.003185 0.021781 -0.006188 0.000000 -0.001071 0.000000
# 3 -0.000589 -0.006188 0.022850 0.000000 0.008117 0.000000
# 4 0.000000 0.000000 0.000000 0.028835 0.000000 0.010516
# 5 0.002026 -0.001071 0.008117 0.000000 0.028724 0.000000
# 6 0.000000 0.000000 0.000000 0.010516 0.000000 0.037384
#
#
# Mechanical properties :
#
#
# Convention : Reuss Voigt Hill
#
# Bulk Modulus (GPa) = 29.78843 37.05322 33.42082
# Shear Modulus (GPa) = 27.84768 33.71844 30.78306
#
# Velocity S-wave (km/s) = 3.58232 3.94188 3.76639
# Velocity P-wave (km/s) = 5.55320 6.14760 5.85794
#
# Compressibility (1/GPa) = 0.03357008
#
# Stress axis : x y z
#
# Youngs Moduli (GPa) = 112.84889 45.91139 43.76451
#
# Poissons Ratio (x) = 0.14621 0.02577
# Poissons Ratio (y) = 0.35938 0.27079
# Poissons Ratio (z) = 0.06645 0.28408
#
# Static dielectric constant tensor:
#      x y z
#    x 1.955830 0.000000 -0.005590 
#    y 0.000000 2.001820 0.000000 
#    z -0.005590 0.000000 1.818060 
# 
# From -- ./inp_files/172434.got.cif
#   From: 2010.05.17/outbox.cif.g08.bks.cpg/sg15_87_cif.got.tgz:172434.got - 2010.06.03 18:47:42.
