data_PCOD9301675
_publ_section_title
;
Structure prediction by ZEFSAII (Michael W. Deem and Ramdas Pophale) SiO2 
 PCOD9301675
Probable space group: C 2/C
;
_chemical_formula_sum "Si O2"
_cell_formula_units_Z 64
_cell_length_a 8.733004
_cell_length_b 18.176391
_cell_length_c 28.939644
_cell_angle_alpha 90.000000
_cell_angle_beta 136.269782
_cell_angle_gamma 90.000000
_cell_volume 3175.471324
_symmetry_space_group_name_H-M "C 2/C"
_symmetry_group_IT_number 15
_symmetry_cell_setting 'monoclinic'
loop_
_space_group_symop_operation_xyz
x,y,z
-x,y,1/2-z
-x,-y,-z
x,-y,1/2+z
1/2+x,1/2+y,z
1/2-x,1/2+y,1/2-z
1/2-x,1/2-y,-z
1/2+x,1/2-y,1/2+z
loop_
_atom_site_type_symbol
_atom_site_label
_atom_site_fract_x
_atom_site_fract_y
_atom_site_fract_z
Si Si1 0.997449 0.971415 0.304315
Si Si2 0.727313 0.285578 0.926228
Si Si3 0.212698 0.547451 0.061004
Si Si4 0.150744 0.291642 0.197256
Si Si5 0.581102 0.701954 0.049189
Si Si6 0.926395 0.196240 0.661964
Si Si7 0.099549 0.034403 0.068437
Si Si8 0.518435 0.948568 0.201752
O O1 0.000000 0.961483 0.250000
O O2 0.180423 0.022727 0.367064
O O3 0.743623 0.996492 0.255780
O O4 0.043291 0.891281 0.337151
O O5 0.834924 0.365697 0.946913
O O6 0.553129 0.263725 0.849127
O O7 0.573233 0.287122 0.938783
O O8 0.912874 0.223101 0.971827
O O9 0.406251 0.535822 0.065030
O O10 0.000000 0.500000 0.000000
O O11 0.326657 0.274820 0.275534
O O12 0.289808 0.291060 0.179828
O O13 0.065963 0.375429 0.182718
O O14 0.782409 0.759517 0.093951
O O15 0.660193 0.618490 0.069167
O O16 0.310390 0.991371 0.135360
O O17 0.000000 0.000000 0.000000
O O18 0.500000 0.920752 0.250000
#
# Coordination Sequence:
#
# PCOD9301675 Si02
#       8
#     8   8   8   8   8   8   8   8
#     4  11  21  38  62  90 118 156 195 235 292 352
#     4   9  18  34  55  82 109 146 194 243 282 332
#     4  11  24  39  61  88 119 154 199 246 291 351
#     4   9  17  32  58  82 110 147 188 234 284 338
#     4   9  18  33  56  83 109 144 197 243 279 333
#     4   9  16  32  57  88 106 142 194 238 277 333
#     4  11  24  39  60  89 119 157 195 243 300 346
#     4  11  21  38  58  88 124 153 189 238 297 356
#
# _framework density 20.154488000000001
#
# number of rings (size 3 to 8) (size 9 to 14) (size 15 to 20)
#    0.000    2.000    3.750    1.500    1.750    3.000 
#    2.250    0.625    5.500    2.250    0.000    0.000 
#    0.000    0.000    0.000    0.000    0.000    0.000 
#
# Total GULP energy -178350.957681 kJ/mol
# GULP energy per Si atom -5573.467428 kJ/mol
# Density = 2.010862 g / cm^3
# Si number density = 20.154488 Si / 1000 Ang^3
#
#
#
# Elastic Constant Matrix: (Units=GPa)
#
#
# Indices 1 2 3 4 5 6 
#
# 1 17.1135 15.6585 22.7361 0.0000 12.3389 0.0000
# 2 15.6585 74.7641 56.7793 0.0000 16.2335 0.0000
# 3 22.7361 56.7793 130.1127 0.0001 24.6414 0.0000
# 4 0.0000 0.0000 0.0001 37.6468 0.0000 8.4558
# 5 12.3389 16.2335 24.6414 0.0000 26.4307 0.0000
# 6 0.0000 0.0000 0.0000 8.4558 0.0000 19.6112
#
#
#
# Elastic Compliance Matrix: (Units=1/GPa)
#
#
# Indices 1 2 3 4 5 6 
#
# 1 0.101094 -0.007725 -0.007596 0.000000 -0.035368 0.000000
# 2 -0.007725 0.021164 -0.007416 0.000000 -0.002478 0.000000
# 3 -0.007596 -0.007416 0.013013 0.000000 -0.004031 0.000000
# 4 0.000000 0.000000 0.000000 0.029411 0.000000 -0.012681
# 5 -0.035368 -0.002478 -0.004031 0.000000 0.059626 0.000000
# 6 0.000000 0.000000 0.000000 -0.012681 0.000000 0.056459
#
#
# Mechanical properties :
#
#
# Convention : Reuss Voigt Hill
#
# Bulk Modulus (GPa) = 11.13637 45.81534 28.47585
# Shear Modulus (GPa) = 14.03816 25.19217 19.61516
#
# Velocity S-wave (km/s) = 2.64204 3.53930 3.12306
# Velocity P-wave (km/s) = 3.85288 6.28360 5.21193
#
# Compressibility (1/GPa) = 0.08979586
#
# Stress axis : x y z
#
# Youngs Moduli (GPa) = 9.89181 47.25085 76.84780
#
# Poissons Ratio (x) = 0.36499 0.58375
# Poissons Ratio (y) = 0.07641 0.56993
# Poissons Ratio (z) = 0.07514 0.35043
#
# Static dielectric constant tensor:
#      x y z
#    x 1.796030 0.000000 0.008510 
#    y 0.000000 1.701710 0.000000 
#    z 0.008510 0.000000 1.714440 
# 
# From -- ./inp_files/308827.got.cif
#   From: 2010.05.17/outbox.cif.g08.bks.cpg/sg15_155_cif.got.tgz:308827.got - 2010.06.03 18:47:42.
