data_PCOD9301859
_publ_section_title
;
Structure prediction by ZEFSAII (Michael W. Deem and Ramdas Pophale) SiO2 
 PCOD9301859
Probable space group: C 2/C
;
_chemical_formula_sum "Si O2"
_cell_formula_units_Z 60
_cell_length_a 9.206874
_cell_length_b 23.735617
_cell_length_c 21.420331
_cell_angle_alpha 90.000000
_cell_angle_beta 142.356137
_cell_angle_gamma 90.000000
_cell_volume 2858.929613
_symmetry_space_group_name_H-M "C 2/C"
_symmetry_group_IT_number 15
_symmetry_cell_setting 'monoclinic'
loop_
_space_group_symop_operation_xyz
x,y,z
-x,y,1/2-z
-x,-y,-z
x,-y,1/2+z
1/2+x,1/2+y,z
1/2-x,1/2+y,1/2-z
1/2-x,1/2-y,-z
1/2+x,1/2-y,1/2+z
loop_
_atom_site_type_symbol
_atom_site_label
_atom_site_fract_x
_atom_site_fract_y
_atom_site_fract_z
Si Si1 0.512133 0.713984 0.414450
Si Si2 0.122070 0.719612 0.512260
Si Si3 0.243203 0.509670 0.442601
Si Si4 0.724957 0.321256 0.790068
Si Si5 0.709209 0.941047 0.734687
Si Si6 0.206186 0.089311 0.460632
Si Si7 0.000000 0.022075 0.750000
Si Si8 0.684197 0.910573 0.044366
O O1 0.750000 0.750000 0.500000
O O2 0.368911 0.740091 0.424203
O O3 0.362383 0.715541 0.298788
O O4 0.618762 0.650707 0.452140
O O5 0.250000 0.750000 0.500000
O O6 0.225143 0.656781 0.556159
O O7 0.863251 0.709864 0.392470
O O8 0.500000 0.500000 0.500000
O O9 0.179468 0.447990 0.446571
O O10 0.230096 0.554286 0.496172
O O11 0.038216 0.532491 0.327951
O O12 0.500000 0.346269 0.750000
O O13 0.849288 0.376430 0.804244
O O14 0.953691 0.938762 0.856798
O O15 0.797787 0.981331 0.709113
O O16 0.408705 0.087256 0.475751
O O17 0.865071 0.060752 0.654145
#
# Coordination Sequence:
#
# PCOD9301859 Si02
#       8
#     8   8   8   8   8   8   4   8
#     4  11  23  42  72 107 139 185 244 301 357 421
#     4  12  27  46  68 101 148 188 241 301 363 434
#     4  12  26  41  65 103 148 175 220 292 368 431
#     4  11  21  40  75 104 134 186 244 301 359 434
#     4  11  21  39  70 104 134 179 236 284 359 433
#     4  11  23  43  74 103 137 182 243 298 348 434
#     4  12  22  38  74 108 132 178 238 296 352 432
#     4  12  24  45  69 102 138 187 241 297 360 434
#
# _framework density 20.986877
#
# number of rings (size 3 to 8) (size 9 to 14) (size 15 to 20)
#    0.000    0.533    7.333    2.000    1.867    2.133 
#    0.000    2.667    0.000    1.600    0.000    0.000 
#    0.000    0.000    0.000    0.000    0.000    0.000 
#
# Total GULP energy -167256.244707 kJ/mol
# GULP energy per Si atom -5575.208157 kJ/mol
# Density = 2.093911 g / cm^3
# Si number density = 20.986877 Si / 1000 Ang^3
#
#
#
# Elastic Constant Matrix: (Units=GPa)
#
#
# Indices 1 2 3 4 5 6 
#
# 1 103.4721 46.2986 32.3482 -0.0001 1.0727 0.0000
# 2 46.2986 119.8042 50.6022 0.0000 -12.6241 0.0000
# 3 32.3482 50.6022 121.1070 -0.0004 -14.7045 -0.0002
# 4 -0.0001 0.0000 -0.0004 38.7053 -0.0002 -1.2194
# 5 1.0727 -12.6241 -14.7045 -0.0002 45.7123 -0.0001
# 6 0.0000 0.0000 -0.0002 -1.2194 -0.0001 23.1808
#
#
#
# Elastic Compliance Matrix: (Units=1/GPa)
#
#
# Indices 1 2 3 4 5 6 
#
# 1 0.012083 -0.004145 -0.001737 0.000000 -0.001987 0.000000
# 2 -0.004145 0.011657 -0.003497 0.000000 0.002192 0.000000
# 3 -0.001737 -0.003497 0.010479 0.000000 0.002446 0.000000
# 4 0.000000 0.000000 0.000000 0.025879 0.000000 0.001361
# 5 -0.001987 0.002192 0.002446 0.000000 0.023315 0.000000
# 6 0.000000 0.000000 0.000000 0.001361 0.000000 0.043211
#
#
# Mechanical properties :
#
#
# Convention : Reuss Voigt Hill
#
# Bulk Modulus (GPa) = 64.68043 66.98681 65.83362
# Shear Modulus (GPa) = 33.21476 35.86196 34.53836
#
# Velocity S-wave (km/s) = 3.98256 4.13822 4.06114
# Velocity P-wave (km/s) = 7.21347 7.40411 7.30941
#
# Compressibility (1/GPa) = 0.01546063
#
# Stress axis : x y z
#
# Youngs Moduli (GPa) = 82.76266 85.78520 95.42648
#
# Poissons Ratio (x) = 0.35560 0.16572
# Poissons Ratio (y) = 0.34307 0.33374
# Poissons Ratio (z) = 0.14372 0.30002
#
# Static dielectric constant tensor:
#      x y z
#    x 1.823460 -0.000020 0.171490 
#    y -0.000020 0.158150 0.000000 
#    z 0.171490 0.000000 2.006630 
# 
# From -- ./inp_files/234587.got.cif
#   From: 2010.05.17/outbox.cif.g08.bks.cpg/sg15_118_cif.got.tgz:234587.got - 2010.06.03 18:47:42.
