data_PCOD9301875
_publ_section_title
;
Structure prediction by ZEFSAII (Michael W. Deem and Ramdas Pophale) SiO2 
 PCOD9301875
Probable space group: C 2/C
;
_chemical_formula_sum "Si O2"
_cell_formula_units_Z 64
_cell_length_a 20.390834
_cell_length_b 17.006607
_cell_length_c 21.555554
_cell_angle_alpha 90.000000
_cell_angle_beta 28.523675
_cell_angle_gamma 90.000000
_cell_volume 3569.481249
_symmetry_space_group_name_H-M "C 2/C"
_symmetry_group_IT_number 15
_symmetry_cell_setting 'monoclinic'
loop_
_space_group_symop_operation_xyz
x,y,z
-x,y,1/2-z
-x,-y,-z
x,-y,1/2+z
1/2+x,1/2+y,z
1/2-x,1/2+y,1/2-z
1/2-x,1/2-y,-z
1/2+x,1/2-y,1/2+z
loop_
_atom_site_type_symbol
_atom_site_label
_atom_site_fract_x
_atom_site_fract_y
_atom_site_fract_z
Si Si1 0.461142 0.150427 0.542175
Si Si2 0.340005 0.331326 0.378960
Si Si3 0.747309 0.173357 0.098467
Si Si4 0.747600 0.074909 0.696186
Si Si5 0.743512 0.429339 0.716170
Si Si6 0.539484 0.663432 0.467064
Si Si7 0.574568 0.984416 0.753105
Si Si8 0.173460 0.458132 0.450850
O O1 0.371997 0.130230 0.676927
O O2 0.611167 0.112943 0.413087
O O3 0.477505 0.243138 0.521972
O O4 0.379815 0.104846 0.555473
O O5 0.500000 0.340786 0.250000
O O6 0.311974 0.262532 0.350534
O O7 0.295268 0.321673 0.487561
O O8 0.263070 0.409136 0.423146
O O9 0.633800 0.105063 0.201356
O O10 0.868508 0.153746 0.046510
O O11 0.894161 0.117781 0.583734
O O12 0.749989 0.995976 0.736012
O O13 0.698403 0.042854 0.669960
O O14 0.629886 0.369230 0.834630
O O15 0.732972 0.477643 0.661238
O O16 0.500000 0.001373 0.750000
O O17 0.459915 0.990075 0.902472
#
# Coordination Sequence:
#
# PCOD9301875 Si02
#       8
#     8   8   8   8   8   8   8   8
#     4  11  21  40  62  88 121 168 199 248 313 377
#     4  11  25  37  55  88 132 175 202 242 296 374
#     4  11  24  37  56  88 130 165 205 243 294 377
#     4  11  23  38  62  91 121 158 211 260 306 364
#     4  11  22  39  61  86 125 159 206 263 307 360
#     4  12  24  37  63  95 125 159 205 266 315 356
#     4  12  22  40  64  84 119 165 211 248 307 375
#     4  11  21  40  60  86 122 169 206 245 302 371
#
# _framework density 17.929776
#
# number of rings (size 3 to 8) (size 9 to 14) (size 15 to 20)
#    0.000    0.750    6.250    2.250    5.250    1.000 
#    0.000    0.000    0.000    0.750    0.000    0.000 
#    0.000    0.000    0.000    0.000    0.000    0.000 
#
# Total GULP energy -178375.655378 kJ/mol
# GULP energy per Si atom -5574.239231 kJ/mol
# Density = 1.788897 g / cm^3
# Si number density = 17.929776 Si / 1000 Ang^3
#
#
#
# Elastic Constant Matrix: (Units=GPa)
#
#
# Indices 1 2 3 4 5 6 
#
# 1 89.7637 36.4884 18.0601 0.0036 -5.7617 -0.0039
# 2 36.4884 62.4752 16.5134 0.0052 -2.6742 -0.0059
# 3 18.0601 16.5134 78.9869 0.0053 -9.2976 -0.0072
# 4 0.0036 0.0052 0.0053 47.6170 -0.0002 -19.8590
# 5 -5.7617 -2.6742 -9.2976 -0.0002 29.1281 0.0002
# 6 -0.0039 -0.0059 -0.0072 -19.8590 0.0002 38.1896
#
#
#
# Elastic Compliance Matrix: (Units=1/GPa)
#
#
# Indices 1 2 3 4 5 6 
#
# 1 0.014896 -0.008235 -0.001482 0.000000 0.001717 0.000000
# 2 -0.008235 0.021500 -0.002672 -0.000001 -0.000508 0.000002
# 3 -0.001482 -0.002672 0.014021 0.000000 0.003937 0.000002
# 4 0.000000 -0.000001 0.000000 0.026817 0.000000 0.013945
# 5 0.001717 -0.000508 0.003937 0.000000 0.035881 0.000001
# 6 0.000000 0.000002 0.000002 0.013945 0.000001 0.033437
#
#
# Mechanical properties :
#
#
# Convention : Reuss Voigt Hill
#
# Bulk Modulus (GPa) = 39.00148 41.48329 40.24239
# Shear Modulus (GPa) = 27.79682 33.66452 30.73067
#
# Velocity S-wave (km/s) = 3.94168 4.33780 4.14447
# Velocity P-wave (km/s) = 6.52038 6.94805 6.73761
#
# Compressibility (1/GPa) = 0.02564005
#
# Stress axis : x y z
#
# Youngs Moduli (GPa) = 67.13130 46.51096 71.32026
#
# Poissons Ratio (x) = 0.38301 0.10571
# Poissons Ratio (y) = 0.55281 0.19056
# Poissons Ratio (z) = 0.09950 0.12427
#
# Static dielectric constant tensor:
#      x y z
#    x 1.625070 0.000000 0.005850 
#    y 0.000000 1.636410 0.000000 
#    z 0.005850 0.000000 1.619500 
# 
# From -- ./inp_files/249635.got.cif
#   From: 2010.05.17/outbox.cif.g08.bks.cpg/sg15_125_cif.got.tgz:249635.got - 2010.06.03 18:47:42.
