data_PCOD9301686
_publ_section_title
;
Structure prediction by ZEFSAII (Michael W. Deem and Ramdas Pophale) SiO2 
 PCOD9301686
Probable space group: C 2/C
;
_chemical_formula_sum "Si O2"
_cell_formula_units_Z 48
_cell_length_a 15.838657
_cell_length_b 18.589202
_cell_length_c 17.900191
_cell_angle_alpha 90.000000
_cell_angle_beta 152.720798
_cell_angle_gamma 90.000000
_cell_volume 2415.528533
_symmetry_space_group_name_H-M "C 2/C"
_symmetry_group_IT_number 15
_symmetry_cell_setting 'monoclinic'
loop_
_space_group_symop_operation_xyz
x,y,z
-x,y,1/2-z
-x,-y,-z
x,-y,1/2+z
1/2+x,1/2+y,z
1/2-x,1/2+y,1/2-z
1/2-x,1/2-y,-z
1/2+x,1/2-y,1/2+z
loop_
_atom_site_type_symbol
_atom_site_label
_atom_site_fract_x
_atom_site_fract_y
_atom_site_fract_z
Si Si1 0.503411 0.993701 0.413909
Si Si2 0.937368 0.812614 0.888881
Si Si3 0.824886 0.002431 0.563923
Si Si4 0.790097 0.653541 0.566614
Si Si5 0.614923 0.168488 0.016916
Si Si6 0.127335 0.941845 0.557536
O O1 0.520206 0.907023 0.420306
O O2 0.500000 0.000000 0.500000
O O3 0.678541 0.028784 0.510022
O O4 0.329373 0.032227 0.241132
O O5 0.764294 0.833983 0.700593
O O6 0.920529 0.863271 0.947788
O O7 0.958746 0.726746 0.914285
O O8 0.130419 0.827530 0.998744
O O9 0.883994 0.051739 0.541049
O O10 0.000000 0.978470 0.750000
O O11 0.730243 0.932838 0.453200
O O12 0.764327 0.684156 0.462693
O O13 0.000000 0.673251 0.750000
O O14 0.000000 0.000000 0.500000
#
# Coordination Sequence:
#
# PCOD9301686 Si02
#       6
#     8   8   8   8   8   8
#     4  11  22  43  66  95 122 165 215 267 320 369
#     4  12  24  40  60  95 130 173 210 259 324 388
#     4  11  22  39  63  95 129 164 213 267 320 374
#     4  11  21  38  60  89 132 172 211 256 319 386
#     4  11  24  39  62  88 132 168 213 260 320 382
#     4  12  24  39  65  96 132 168 214 260 316 388
#
# _framework density 19.871428000000002
#
# number of rings (size 3 to 8) (size 9 to 14) (size 15 to 20)
#    0.000    0.667    3.333    7.500    2.333    0.000 
#    0.000    0.000    0.000    1.000    0.000    0.000 
#    0.000    0.000    0.000    0.000    0.000    0.000 
#
# Total GULP energy -133969.166573 kJ/mol
# GULP energy per Si atom -5582.048607 kJ/mol
# Density = 1.982620 g / cm^3
# Si number density = 19.871428 Si / 1000 Ang^3
#
#
#
# Elastic Constant Matrix: (Units=GPa)
#
#
# Indices 1 2 3 4 5 6 
#
# 1 126.8321 40.2859 7.4123 0.0092 -1.9664 0.0021
# 2 40.2859 91.7780 3.5998 0.0022 3.5923 0.0033
# 3 7.4123 3.5998 74.8277 0.0174 12.0576 0.0063
# 4 0.0092 0.0022 0.0174 22.9340 0.0075 2.9949
# 5 -1.9664 3.5923 12.0576 0.0075 34.0810 0.0024
# 6 0.0021 0.0033 0.0063 2.9949 0.0024 35.8663
#
#
#
# Elastic Compliance Matrix: (Units=1/GPa)
#
#
# Indices 1 2 3 4 5 6 
#
# 1 0.009253 -0.004076 -0.000929 -0.000003 0.001292 0.000000
# 2 -0.004076 0.012746 0.000048 0.000001 -0.001595 -0.000001
# 3 -0.000929 0.000048 0.014277 -0.000009 -0.005110 -0.000001
# 4 -0.000003 0.000001 -0.000009 0.044084 -0.000007 -0.003681
# 5 0.001292 -0.001595 -0.005110 -0.000007 0.031392 -0.000001
# 6 0.000000 -0.000001 -0.000001 -0.003681 -0.000001 0.028189
#
#
# Mechanical properties :
#
#
# Convention : Reuss Voigt Hill
#
# Bulk Modulus (GPa) = 37.93323 44.00376 40.96849
# Shear Modulus (GPa) = 31.51742 34.71894 33.11818
#
# Velocity S-wave (km/s) = 3.98687 4.18446 4.08686
# Velocity P-wave (km/s) = 6.35014 6.74823 6.55221
#
# Compressibility (1/GPa) = 0.02636211
#
# Stress axis : x y z
#
# Youngs Moduli (GPa) = 108.06856 78.45877 70.04213
#
# Poissons Ratio (x) = 0.31979 0.06505
# Poissons Ratio (y) = 0.44048 -0.00334
# Poissons Ratio (z) = 0.10037 -0.00374
#
# Static dielectric constant tensor:
#      x y z
#    x 1.935690 -0.000190 -0.244690 
#    y -0.000190 1.885880 0.000310 
#    z -0.244690 0.000310 2.154620 
# 
# From -- ./inp_files/249763.got.cif
#   From: 2010.05.17/outbox.cif.g08.bks.cpg/sg15_125_cif.got.tgz:249763.got - 2010.06.03 18:47:42.
