data_PCOD9301039
_publ_section_title
;
Structure prediction by ZEFSAII (Michael W. Deem and Ramdas Pophale) SiO2 
 PCOD9301039
Probable space group: C 2/C
;
_chemical_formula_sum "Si O2"
_cell_formula_units_Z 56
_cell_length_a 20.035056
_cell_length_b 18.389563
_cell_length_c 20.723741
_cell_angle_alpha 90.000000
_cell_angle_beta 158.887064
_cell_angle_gamma 90.000000
_cell_volume 2750.317303
_symmetry_space_group_name_H-M "C 2/C"
_symmetry_group_IT_number 15
_symmetry_cell_setting 'monoclinic'
loop_
_space_group_symop_operation_xyz
x,y,z
-x,y,1/2-z
-x,-y,-z
x,-y,1/2+z
1/2+x,1/2+y,z
1/2-x,1/2+y,1/2-z
1/2-x,1/2-y,-z
1/2+x,1/2-y,1/2+z
loop_
_atom_site_type_symbol
_atom_site_label
_atom_site_fract_x
_atom_site_fract_y
_atom_site_fract_z
Si Si1 0.319127 0.141982 0.907021
Si Si2 0.580090 0.895422 0.751405
Si Si3 0.968481 0.634540 0.913147
Si Si4 0.079203 0.189783 0.000876
Si Si5 0.627666 0.057177 0.802529
Si Si6 0.353339 0.288987 0.792108
Si Si7 0.373978 0.314169 0.578474
O O1 0.403309 0.099704 0.921304
O O2 0.101754 0.156628 0.697638
O O3 0.398338 0.102925 0.041593
O O4 0.413726 0.222405 0.996440
O O5 0.500000 0.878593 0.750000
O O6 0.682068 0.973756 0.841480
O O7 0.734678 0.840009 0.864770
O O8 0.962914 0.586013 0.845044
O O9 0.826383 0.702992 0.779420
O O10 0.169471 0.670011 0.104202
O O11 0.087305 0.176257 0.085763
O O12 0.500000 0.053787 0.750000
O O13 0.768730 0.119520 0.950808
O O14 0.496774 0.286364 0.862503
O O15 0.500000 0.342513 0.750000
O O16 0.250000 0.250000 0.500000
#
# Coordination Sequence:
#
# PCOD9301039 Si02
#       7
#     8   8   8   8   8   8   8
#     4  11  21  42  71  97 125 165 215 275 331 386
#     4  11  26  47  64  93 135 169 215 274 332 400
#     4  11  20  37  65  93 129 169 214 271 325 384
#     4  11  21  43  69  99 128 162 220 276 328 389
#     4  11  24  43  60  89 136 176 210 266 333 388
#     4  11  20  36  64  97 127 166 218 279 320 371
#     4  12  23  38  63  97 131 173 227 265 317 390
#
# _framework density 20.361286
#
# number of rings (size 3 to 8) (size 9 to 14) (size 15 to 20)
#    0.000    0.857    2.857    8.143    0.000    1.714 
#    7.714    1.429    0.000    0.000    0.000    0.000 
#    0.000    0.000    0.000    0.000    0.000    0.000 
#
# Total GULP energy -156220.139482 kJ/mol
# GULP energy per Si atom -5579.290696 kJ/mol
# Density = 2.031494 g / cm^3
# Si number density = 20.361286 Si / 1000 Ang^3
#
#
#
# Elastic Constant Matrix: (Units=GPa)
#
#
# Indices 1 2 3 4 5 6 
#
# 1 140.2739 29.3139 47.6474 0.0073 -18.6410 0.0025
# 2 29.3139 46.3912 19.0782 0.0013 -5.9135 0.0069
# 3 47.6474 19.0782 110.7761 -0.0008 -9.8675 0.0098
# 4 0.0073 0.0013 -0.0008 13.3252 -0.0010 -5.3332
# 5 -18.6410 -5.9135 -9.8675 -0.0010 37.4508 0.0001
# 6 0.0025 0.0069 0.0098 -5.3332 0.0001 40.6773
#
#
#
# Elastic Compliance Matrix: (Units=1/GPa)
#
#
# Indices 1 2 3 4 5 6 
#
# 1 0.009502 -0.004336 -0.003052 -0.000005 0.003241 0.000000
# 2 -0.004336 0.025442 -0.002407 -0.000002 0.001225 -0.000004
# 3 -0.003052 -0.002407 0.010840 0.000002 0.000957 -0.000002
# 4 -0.000005 -0.000002 0.000002 0.079202 0.000000 0.010384
# 5 0.003241 0.001225 0.000957 0.000000 0.028760 -0.000001
# 6 0.000000 -0.000004 -0.000002 0.010384 -0.000001 0.025945
#
#
# Mechanical properties :
#
#
# Convention : Reuss Voigt Hill
#
# Bulk Modulus (GPa) = 38.17790 54.39113 46.28452
# Shear Modulus (GPa) = 24.03688 31.71744 27.87716
#
# Velocity S-wave (km/s) = 3.43960 3.95109 3.70418
# Velocity P-wave (km/s) = 5.87923 6.89825 6.40903
#
# Compressibility (1/GPa) = 0.02619317
#
# Stress axis : x y z
#
# Youngs Moduli (GPa) = 105.23695 39.30511 92.25366
#
# Poissons Ratio (x) = 0.17044 0.28153
# Poissons Ratio (y) = 0.45634 0.22210
# Poissons Ratio (z) = 0.32115 0.09463
#
# Static dielectric constant tensor:
#      x y z
#    x 2.079480 -0.000240 0.209700 
#    y -0.000240 1.873590 -0.000190 
#    z 0.209700 -0.000190 1.939310 
# 
# From -- ./inp_files/253374.got.cif
#   From: 2010.05.17/outbox.cif.g08.bks.cpg/sg15_127_cif.got.tgz:253374.got - 2010.06.03 18:47:42.
