data_PCOD9301556
_publ_section_title
;
Structure prediction by ZEFSAII (Michael W. Deem and Ramdas Pophale) SiO2 
 PCOD9301556
Probable space group: C 2/C
;
_chemical_formula_sum "Si O2"
_cell_formula_units_Z 52
_cell_length_a 20.587889
_cell_length_b 5.370163
_cell_length_c 18.130757
_cell_angle_alpha 90.000000
_cell_angle_beta 100.989561
_cell_angle_gamma 90.000000
_cell_volume 1967.782858
_symmetry_space_group_name_H-M "C 2/C"
_symmetry_group_IT_number 15
_symmetry_cell_setting 'monoclinic'
loop_
_space_group_symop_operation_xyz
x,y,z
-x,y,1/2-z
-x,-y,-z
x,-y,1/2+z
1/2+x,1/2+y,z
1/2-x,1/2+y,1/2-z
1/2-x,1/2-y,-z
1/2+x,1/2-y,1/2+z
loop_
_atom_site_type_symbol
_atom_site_label
_atom_site_fract_x
_atom_site_fract_y
_atom_site_fract_z
Si Si1 0.889836 0.649859 0.582343
Si Si2 0.574701 0.554113 0.531163
Si Si3 0.789369 0.406381 0.946070
Si Si4 0.128781 0.277859 0.259155
Si Si5 0.691343 0.610912 0.135009
Si Si6 0.000000 0.057293 0.750000
Si Si7 0.532624 0.070983 0.136458
O O1 0.888124 0.913506 0.538323
O O2 0.848720 0.495084 0.513434
O O3 0.855845 0.637961 0.654543
O O4 0.968748 0.599641 0.606376
O O5 0.500000 0.500000 0.500000
O O6 0.613383 0.371083 0.593294
O O7 0.566809 0.815515 0.572702
O O8 0.771093 0.660929 0.898013
O O9 0.797083 0.175526 0.888530
O O10 0.750000 0.250000 0.000000
O O11 0.186679 0.162779 0.221471
O O12 0.091282 0.488698 0.204018
O O13 0.067727 0.091534 0.258512
O O14 0.996736 0.214230 0.675318
#
# Coordination Sequence:
#
# PCOD9301556 Si02
#       7
#     8   8   8   8   8   4   8
#     4  11  22  38  61  94 127 179 221 270 328 393
#     4  11  21  36  60  92 133 177 219 259 315 407
#     4  11  26  50  71  93 124 169 231 294 343 386
#     4  12  22  39  58  98 137 172 212 259 326 409
#     4  11  24  43  69  94 128 174 216 277 344 395
#     4  12  20  34  58  90 146 182 210 248 314 396
#     4  12  21  37  57  90 143 181 215 263 320 408
#
# _framework density 26.425678000000001
#
# number of rings (size 3 to 8) (size 9 to 14) (size 15 to 20)
#    0.000    0.615    4.615    5.538    0.000    1.231 
#    0.000    1.538    0.000    0.000    0.000    0.000 
#    0.000    0.000    0.000    0.000    0.000    0.000 
#
# Total GULP energy -145030.717619 kJ/mol
# GULP energy per Si atom -5578.104524 kJ/mol
# Density = 2.636553 g / cm^3
# Si number density = 26.425678 Si / 1000 Ang^3
#
#
#
# Elastic Constant Matrix: (Units=GPa)
#
#
# Indices 1 2 3 4 5 6 
#
# 1 56.5430 4.4952 21.1584 0.0000 -6.1386 0.0000
# 2 4.4952 108.4926 42.2961 0.0000 -7.4496 0.0000
# 3 21.1584 42.2961 173.9378 0.0000 -13.6889 0.0000
# 4 0.0000 0.0000 0.0000 49.6677 0.0000 -5.3289
# 5 -6.1386 -7.4496 -13.6889 0.0000 33.0857 0.0000
# 6 0.0000 0.0000 0.0000 -5.3289 0.0000 -3.6870
#
#
#
# Elastic Compliance Matrix: (Units=1/GPa)
#
#
# Indices 1 2 3 4 5 6 
#
# 1 0.018752 0.000235 -0.002130 0.000000 0.002651 0.000000
# 2 0.000235 0.010241 -0.002413 0.000000 0.001351 0.000000
# 3 -0.002130 -0.002413 0.006741 0.000000 0.001851 0.000000
# 4 0.000000 0.000000 0.000000 0.017431 0.000000 -0.025193
# 5 0.002651 0.001351 0.001851 0.000000 0.031786 0.000000
# 6 0.000000 0.000000 0.000000 -0.025193 0.000000 -0.234811
#
#
# Mechanical properties :
#
#
# Convention : Reuss Voigt Hill
#
# Bulk Modulus (GPa) = 36.87402 52.76365 44.81884
# Shear Modulus (GPa) = -37.81934 33.88152 -1.96891
#
# Velocity S-wave (km/s) = -3.78717 3.58459 -0.86411
# Velocity P-wave (km/s) = 2.26702 6.09447 4.00020
#
# Compressibility (1/GPa) = 0.02711936
#
# Stress axis : x y z
#
# Youngs Moduli (GPa) = 53.32861 97.64888 148.35664
#
# Poissons Ratio (x) = -0.02298 0.31594
# Poissons Ratio (y) = -0.01255 0.35791
# Poissons Ratio (z) = 0.11357 0.23558
#
# Static dielectric constant tensor:
#      x y z
#    x 2.240390 0.000000 0.117620 
#    y 0.000000 2.170250 0.000000 
#    z 0.117620 0.000000 1.936130 
# 
# From -- ./inp_files/220945.got.cif
#   From: 2010.05.17/outbox.cif.g08.bks.cpg/sg15_111_cif.got.tgz:220945.got - 2010.06.03 18:47:42.
