data_PCOD9301389
_publ_section_title
;
Structure prediction by ZEFSAII (Michael W. Deem and Ramdas Pophale) SiO2 
 PCOD9301389
Probable space group: C 2/C
;
_chemical_formula_sum "Si O2"
_cell_formula_units_Z 56
_cell_length_a 11.838626
_cell_length_b 17.643733
_cell_length_c 16.753000
_cell_angle_alpha 90.000000
_cell_angle_beta 130.321384
_cell_angle_gamma 90.000000
_cell_volume 2667.979978
_symmetry_space_group_name_H-M "C 2/C"
_symmetry_group_IT_number 15
_symmetry_cell_setting 'monoclinic'
loop_
_space_group_symop_operation_xyz
x,y,z
-x,y,1/2-z
-x,-y,-z
x,-y,1/2+z
1/2+x,1/2+y,z
1/2-x,1/2+y,1/2-z
1/2-x,1/2-y,-z
1/2+x,1/2-y,1/2+z
loop_
_atom_site_type_symbol
_atom_site_label
_atom_site_fract_x
_atom_site_fract_y
_atom_site_fract_z
Si Si1 0.048251 0.151665 0.517769
Si Si2 0.409745 0.217562 0.047949
Si Si3 0.771511 0.918846 0.268907
Si Si4 0.291157 0.575167 0.043343
Si Si5 0.015145 0.588113 0.529284
Si Si6 0.500000 0.833914 0.750000
Si Si7 0.764404 0.047092 0.392399
Si Si8 0.000000 0.025431 0.750000
O O1 0.181565 0.138702 0.640815
O O2 0.110544 0.136576 0.458614
O O3 0.972547 0.229512 0.506769
O O4 0.924162 0.086495 0.476300
O O5 0.508373 0.215265 0.173311
O O6 0.250000 0.250000 0.000000
O O7 0.414103 0.134226 0.011540
O O8 0.622236 0.902626 0.153708
O O9 0.761617 0.999659 0.309207
O O10 0.903398 0.924340 0.265462
O O11 0.388913 0.527681 0.149812
O O12 0.240474 0.513581 0.952533
O O13 0.150655 0.611413 0.022612
O O14 0.000000 0.500000 0.500000
O O15 0.358925 0.888099 0.670944
#
# Coordination Sequence:
#
# PCOD9301389 Si02
#       8
#     8   8   8   8   8   4   8   4
#     4  11  24  43  65  95 142 182 229 281 342 417
#     4  12  29  47  67 101 141 184 230 286 353 418
#     4  11  23  37  70 100 137 180 228 277 347 404
#     4  11  23  42  68 103 139 180 232 286 342 408
#     4  12  26  44  70 105 139 174 235 294 338 410
#     4  12  26  41  70  92 141 180 226 284 352 403
#     4  11  20  43  65 104 134 179 225 291 337 415
#     4  12  20  33  68 104 135 180 228 284 338 407
#
# _framework density 20.989661999999999
#
# number of rings (size 3 to 8) (size 9 to 14) (size 15 to 20)
#    0.000    0.571    5.714    3.429    4.000    2.286 
#    0.000    0.000    0.000    0.000    0.000    0.000 
#    0.000    0.000    0.000    0.000    0.000    0.000 
#
# Total GULP energy -156596.246579 kJ/mol
# GULP energy per Si atom -5592.723092 kJ/mol
# Density = 2.094189 g / cm^3
# Si number density = 20.989662 Si / 1000 Ang^3
#
#
#
# Elastic Constant Matrix: (Units=GPa)
#
#
# Indices 1 2 3 4 5 6 
#
# 1 83.9938 21.8156 -0.0357 0.0000 3.9662 0.0000
# 2 21.8156 65.4169 -3.8631 0.0000 -3.5855 0.0000
# 3 -0.0357 -3.8631 89.6696 0.0000 2.9681 0.0000
# 4 0.0000 0.0000 0.0000 10.6616 0.0000 1.3562
# 5 3.9662 -3.5855 2.9681 0.0000 35.4637 0.0000
# 6 0.0000 0.0000 0.0000 1.3562 0.0000 38.8002
#
#
#
# Elastic Compliance Matrix: (Units=1/GPa)
#
#
# Indices 1 2 3 4 5 6 
#
# 1 0.013166 -0.004503 -0.000125 0.000000 -0.001917 0.000000
# 2 -0.004503 0.016946 0.000657 0.000000 0.002162 0.000000
# 3 -0.000125 0.000657 0.011209 0.000000 -0.000858 0.000000
# 4 0.000000 0.000000 0.000000 0.094214 0.000000 -0.003293
# 5 -0.001917 0.002162 -0.000858 0.000000 0.028703 0.000000
# 6 0.000000 0.000000 0.000000 -0.003293 0.000000 0.025888
#
#
# Mechanical properties :
#
#
# Convention : Reuss Voigt Hill
#
# Bulk Modulus (GPa) = 29.96113 30.54600 30.25357
# Shear Modulus (GPa) = 23.90134 31.72933 27.81533
#
# Velocity S-wave (km/s) = 3.37815 3.89223 3.64427
# Velocity P-wave (km/s) = 5.43333 5.89778 5.67031
#
# Compressibility (1/GPa) = 0.03337658
#
# Stress axis : x y z
#
# Youngs Moduli (GPa) = 75.95501 59.01257 89.21660
#
# Poissons Ratio (x) = 0.26574 0.01118
# Poissons Ratio (y) = 0.34203 -0.05859
# Poissons Ratio (z) = 0.00952 -0.03875
#
# Static dielectric constant tensor:
#      x y z
#    x 1.801700 0.000000 -0.034570 
#    y 0.000000 1.785290 0.000000 
#    z -0.034570 0.000000 1.761060 
# 
# From -- ./inp_files/199626.got.cif
#   From: 2010.05.17/outbox.cif.g08.bks.cpg/sg15_100_cif.got.tgz:199626.got - 2010.06.03 18:47:42.
