data_PCOD9301550
_publ_section_title
;
Structure prediction by ZEFSAII (Michael W. Deem and Ramdas Pophale) SiO2 
 PCOD9301550
Probable space group: C 2/C
;
_chemical_formula_sum "Si O2"
_cell_formula_units_Z 64
_cell_length_a 26.808310
_cell_length_b 11.650259
_cell_length_c 20.664520
_cell_angle_alpha 90.000000
_cell_angle_beta 33.567326
_cell_angle_gamma 90.000000
_cell_volume 3568.534222
_symmetry_space_group_name_H-M "C 2/C"
_symmetry_group_IT_number 15
_symmetry_cell_setting 'monoclinic'
loop_
_space_group_symop_operation_xyz
x,y,z
-x,y,1/2-z
-x,-y,-z
x,-y,1/2+z
1/2+x,1/2+y,z
1/2-x,1/2+y,1/2-z
1/2-x,1/2-y,-z
1/2+x,1/2-y,1/2+z
loop_
_atom_site_type_symbol
_atom_site_label
_atom_site_fract_x
_atom_site_fract_y
_atom_site_fract_z
Si Si1 0.270204 0.538752 0.816232
Si Si2 0.630085 0.633256 0.912663
Si Si3 0.505513 0.765438 0.820552
Si Si4 0.436135 0.050467 0.481942
Si Si5 0.699422 0.709896 0.247322
Si Si6 0.355069 0.617236 0.050341
Si Si7 0.981383 0.321311 0.063368
Si Si8 0.283396 0.750002 0.890579
O O1 0.342541 0.589774 0.688181
O O2 0.291572 0.405918 0.803722
O O3 0.267661 0.623032 0.879164
O O4 0.171057 0.544881 0.890853
O O5 0.707312 0.722724 0.849784
O O6 0.633373 0.519044 0.952910
O O7 0.538148 0.704737 0.008141
O O8 0.500000 0.743866 0.750000
O O9 0.457804 0.884304 0.892424
O O10 0.609858 0.772354 0.727721
O O11 0.447151 0.671177 0.922668
O O12 0.479996 0.126605 0.491993
O O13 0.475616 0.923351 0.441731
O O14 0.670049 0.669239 0.351762
O O15 0.620765 0.792616 0.308170
O O16 0.275322 0.661254 0.089063
O O17 0.250000 0.750000 0.000000
#
# Coordination Sequence:
#
# PCOD9301550 Si02
#       8
#     8   8   8   8   8   8   8   8
#     4  11  21  37  59  86 123 155 193 243 297 349
#     4  11  22  36  58  86 127 155 185 244 295 363
#     4  12  23  40  60  86 117 151 201 249 284 344
#     4  11  21  36  60  86 119 154 200 241 287 354
#     4  11  22  37  57  90 126 154 191 242 293 363
#     4  11  24  38  56  91 121 154 199 237 300 351
#     4  11  22  35  57  88 119 155 193 232 308 341
#     4  12  23  40  63  85 115 156 201 247 297 344
#
# _framework density 17.934532999999998
#
# number of rings (size 3 to 8) (size 9 to 14) (size 15 to 20)
#    0.000    0.750    7.500    0.750    3.500    1.000 
#    0.000    0.000    0.000    3.000    0.000    0.000 
#    0.000    0.000    0.000    0.000    0.000    0.000 
#
# Total GULP energy -178712.020572 kJ/mol
# GULP energy per Si atom -5584.750643 kJ/mol
# Density = 1.789371 g / cm^3
# Si number density = 17.934533 Si / 1000 Ang^3
#
#
#
# Elastic Constant Matrix: (Units=GPa)
#
#
# Indices 1 2 3 4 5 6 
#
# 1 40.8097 20.4494 19.4059 0.0000 4.1648 0.0000
# 2 20.4494 95.6970 10.3289 0.0000 17.0790 0.0000
# 3 19.4059 10.3289 63.8771 0.0000 -3.8123 0.0000
# 4 0.0000 0.0000 0.0000 25.9368 0.0000 -8.1568
# 5 4.1648 17.0790 -3.8123 0.0000 31.8294 0.0000
# 6 0.0000 0.0000 0.0000 -8.1568 0.0000 26.9329
#
#
#
# Elastic Compliance Matrix: (Units=1/GPa)
#
#
# Indices 1 2 3 4 5 6 
#
# 1 0.031670 -0.005395 -0.008887 0.000000 -0.002313 0.000000
# 2 -0.005395 0.012807 -0.000806 0.000000 -0.006263 0.000000
# 3 -0.008887 -0.000806 0.018714 0.000000 0.003837 0.000000
# 4 0.000000 0.000000 0.000000 0.042614 0.000000 0.012906
# 5 -0.002313 -0.006263 0.003837 0.000000 0.035540 0.000000
# 6 0.000000 0.000000 0.000000 0.012906 0.000000 0.041038
#
#
# Mechanical properties :
#
#
# Convention : Reuss Voigt Hill
#
# Bulk Modulus (GPa) = 30.28907 33.41694 31.85300
# Shear Modulus (GPa) = 22.36500 26.95313 24.65906
#
# Velocity S-wave (km/s) = 3.53517 3.88088 3.71205
# Velocity P-wave (km/s) = 5.79557 6.22534 6.01429
#
# Compressibility (1/GPa) = 0.03301521
#
# Stress axis : x y z
#
# Youngs Moduli (GPa) = 31.57610 78.08098 53.43552
#
# Poissons Ratio (x) = 0.42128 0.47487
# Poissons Ratio (y) = 0.17037 0.04305
# Poissons Ratio (z) = 0.28061 0.06290
#
# Static dielectric constant tensor:
#      x y z
#    x 1.620070 0.000000 -0.020460 
#    y 0.000000 1.615860 0.000000 
#    z -0.020460 0.000000 1.610310 
# 
# From -- ./inp_files/257499.got.cif
#   From: 2010.05.17/outbox.cif.g08.bks.cpg/sg15_129_cif.got.tgz:257499.got - 2010.06.03 18:47:42.
