data_PCOD9301726
_publ_section_title
;
Structure prediction by ZEFSAII (Michael W. Deem and Ramdas Pophale) SiO2 
 PCOD9301726
Probable space group: C 2/C
;
_chemical_formula_sum "Si O2"
_cell_formula_units_Z 60
_cell_length_a 13.494717
_cell_length_b 21.480566
_cell_length_c 9.648655
_cell_angle_alpha 90.000000
_cell_angle_beta 71.832574
_cell_angle_gamma 90.000000
_cell_volume 2657.469013
_symmetry_space_group_name_H-M "C 2/C"
_symmetry_group_IT_number 15
_symmetry_cell_setting 'monoclinic'
loop_
_space_group_symop_operation_xyz
x,y,z
-x,y,1/2-z
-x,-y,-z
x,-y,1/2+z
1/2+x,1/2+y,z
1/2-x,1/2+y,1/2-z
1/2-x,1/2-y,-z
1/2+x,1/2-y,1/2+z
loop_
_atom_site_type_symbol
_atom_site_label
_atom_site_fract_x
_atom_site_fract_y
_atom_site_fract_z
Si Si1 0.880281 0.611727 0.159806
Si Si2 0.236107 0.292802 0.641906
Si Si3 0.743191 0.422115 0.194450
Si Si4 0.542047 0.308059 0.879228
Si Si5 0.000000 0.496891 0.750000
Si Si6 0.902285 0.810654 0.198327
Si Si7 0.791935 0.462792 0.477751
Si Si8 0.451996 0.840084 0.121272
O O1 0.846555 0.651381 0.308094
O O2 0.927482 0.546918 0.188764
O O3 0.790143 0.594262 0.088115
O O4 0.966909 0.648021 0.036070
O O5 0.250000 0.250000 0.500000
O O6 0.343163 0.328531 0.627049
O O7 0.187002 0.242241 0.769864
O O8 0.649695 0.372889 0.217719
O O9 0.738095 0.449645 0.353590
O O10 0.849327 0.381190 0.144573
O O11 0.751545 0.476092 0.075993
O O12 0.500000 0.328491 0.750000
O O13 0.564689 0.233689 0.867162
O O14 0.453673 0.322494 0.028506
O O15 0.915137 0.529831 0.884426
O O16 0.000000 0.788987 0.250000
O O17 0.500000 0.855440 0.250000
#
# Coordination Sequence:
#
# PCOD9301726 Si02
#       8
#     8   8   8   8   4   8   8   8
#     4  12  25  38  69 105 149 182 231 293 359 415
#     4  12  27  44  72 107 145 187 237 287 362 435
#     4  12  26  45  72 101 144 184 238 291 355 421
#     4  11  26  44  70 109 144 181 231 288 352 426
#     4  12  24  38  68 108 148 182 232 294 360 422
#     4  12  27  48  73 100 140 186 236 292 353 425
#     4  12  25  44  67 106 141 187 237 292 353 422
#     4  11  21  38  66 106 146 179 216 282 360 425
#
# _framework density 22.577873
#
# number of rings (size 3 to 8) (size 9 to 14) (size 15 to 20)
#    0.000    0.267    8.000    1.200    6.533    0.533 
#    0.000    0.667    0.000    0.000    0.000    0.000 
#    0.000    0.000    0.000    0.000    0.000    0.000 
#
# Total GULP energy -167740.409812 kJ/mol
# GULP energy per Si atom -5591.346994 kJ/mol
# Density = 2.252648 g / cm^3
# Si number density = 22.577873 Si / 1000 Ang^3
#
#
#
# Elastic Constant Matrix: (Units=GPa)
#
#
# Indices 1 2 3 4 5 6 
#
# 1 67.5453 -1.7491 32.1080 0.0000 -13.4246 0.0000
# 2 -1.7491 45.1409 12.1046 0.0000 -8.2157 0.0000
# 3 32.1080 12.1046 124.0527 0.0000 -8.5534 0.0000
# 4 0.0000 0.0000 0.0000 47.5912 0.0000 -4.7080
# 5 -13.4246 -8.2157 -8.5534 0.0000 32.4327 0.0000
# 6 0.0000 0.0000 0.0000 -4.7080 0.0000 20.7715
#
#
#
# Elastic Compliance Matrix: (Units=1/GPa)
#
#
# Indices 1 2 3 4 5 6 
#
# 1 0.018531 0.003281 -0.004614 0.000000 0.007285 0.000000
# 2 0.003281 0.024250 -0.002748 0.000000 0.006776 0.000000
# 3 -0.004614 -0.002748 0.009517 0.000000 -0.000096 0.000000
# 4 0.000000 0.000000 0.000000 0.021494 0.000000 0.004872
# 5 0.007285 0.006776 -0.000096 0.000000 0.035539 0.000000
# 6 0.000000 0.000000 0.000000 0.004872 0.000000 0.049247
#
#
# Mechanical properties :
#
#
# Convention : Reuss Voigt Hill
#
# Bulk Modulus (GPa) = 22.65745 35.74065 29.19905
# Shear Modulus (GPa) = 27.55527 33.11079 30.33303
#
# Velocity S-wave (km/s) = 3.49729 3.83366 3.66933
# Velocity P-wave (km/s) = 5.13469 5.95485 5.55992
#
# Compressibility (1/GPa) = 0.04413560
#
# Stress axis : x y z
#
# Youngs Moduli (GPa) = 53.96349 41.23669 105.07635
#
# Poissons Ratio (x) = -0.13530 0.48484
# Poissons Ratio (y) = -0.17706 0.28878
# Poissons Ratio (z) = 0.24900 0.11333
#
# Static dielectric constant tensor:
#      x y z
#    x 1.917890 0.000000 0.042100 
#    y 0.000000 1.875590 0.000000 
#    z 0.042100 0.000000 1.861650 
# 
# From -- ./inp_files/42591.got.cif
#   From: 2010.05.17/outbox.cif.g08.bks.cpg/sg15_22_cif.got.tgz:42591.got - 2010.06.03 18:47:42.
