data_PCOD9301954
_publ_section_title
;
Structure prediction by ZEFSAII (Michael W. Deem and Ramdas Pophale) SiO2 
 PCOD9301954
Probable space group: C 2/C
;
_chemical_formula_sum "Si O2"
_cell_formula_units_Z 48
_cell_length_a 14.818557
_cell_length_b 11.835826
_cell_length_c 25.478476
_cell_angle_alpha 90.000000
_cell_angle_beta 26.513317
_cell_angle_gamma 90.000000
_cell_volume 1994.838627
_symmetry_space_group_name_H-M "C 2/C"
_symmetry_group_IT_number 15
_symmetry_cell_setting 'monoclinic'
loop_
_space_group_symop_operation_xyz
x,y,z
-x,y,1/2-z
-x,-y,-z
x,-y,1/2+z
1/2+x,1/2+y,z
1/2-x,1/2+y,1/2-z
1/2-x,1/2-y,-z
1/2+x,1/2-y,1/2+z
loop_
_atom_site_type_symbol
_atom_site_label
_atom_site_fract_x
_atom_site_fract_y
_atom_site_fract_z
Si Si1 0.648691 0.786105 0.999304
Si Si2 0.303842 0.720314 0.114082
Si Si3 0.399210 0.030250 0.689109
Si Si4 0.500000 0.022358 0.250000
Si Si5 0.066781 0.076099 0.792181
Si Si6 0.640672 0.158830 0.020507
Si Si7 0.500000 0.387673 0.750000
O O1 0.829016 0.814882 0.866626
O O2 0.750000 0.750000 0.000000
O O3 0.486916 0.699898 0.058824
O O4 0.514432 0.894398 0.085880
O O5 0.190472 0.608744 0.153260
O O6 0.144742 0.808241 0.224102
O O7 0.398247 0.786476 0.015374
O O8 0.168401 0.060885 0.796074
O O9 0.477165 0.046436 0.707721
O O10 0.454451 0.901274 0.645515
O O11 0.825671 0.071797 0.918485
O O12 0.118439 0.969941 0.728825
O O13 0.750000 0.250000 0.000000
#
# Coordination Sequence:
#
# PCOD9301954 Si02
#       7
#     8   8   8   4   8   8   4
#     4  11  27  46  66  99 136 179 231 282 339 407
#     4  11  21  42  66  99 135 171 228 280 333 408
#     4  11  25  42  67  98 138 176 226 284 338 410
#     4  12  23  43  68 102 142 184 216 280 356 410
#     4  11  21  40  69  98 128 174 229 279 332 401
#     4  12  20  40  68 105 131 172 231 285 337 406
#     4  12  21  43  72  90 128 178 228 276 336 398
#
# _framework density 24.062097000000001
#
# number of rings (size 3 to 8) (size 9 to 14) (size 15 to 20)
#    0.000    0.667    6.667    1.000    2.333    3.333 
#    9.000    1.667    0.000    0.000    0.000    0.000 
#    0.000    0.000    0.000    0.000    0.000    0.000 
#
# Total GULP energy -134264.883458 kJ/mol
# GULP energy per Si atom -5594.370144 kJ/mol
# Density = 2.400733 g / cm^3
# Si number density = 24.062097 Si / 1000 Ang^3
#
#
#
# Elastic Constant Matrix: (Units=GPa)
#
#
# Indices 1 2 3 4 5 6 
#
# 1 158.8065 1.7311 19.7465 0.0014 -14.5049 0.0004
# 2 1.7311 25.7861 -3.2431 -0.0003 0.6488 -0.0002
# 3 19.7465 -3.2431 55.9228 0.0014 4.3662 -0.0003
# 4 0.0014 -0.0003 0.0014 10.0955 -0.0015 4.8507
# 5 -14.5049 0.6488 4.3662 -0.0015 33.5160 0.0002
# 6 0.0004 -0.0002 -0.0003 4.8507 0.0002 42.6239
#
#
#
# Elastic Compliance Matrix: (Units=1/GPa)
#
#
# Indices 1 2 3 4 5 6 
#
# 1 0.006962 -0.000902 -0.002775 0.000000 0.003392 0.000000
# 2 -0.000902 0.039220 0.002710 0.000001 -0.001503 0.000000
# 3 -0.002775 0.002710 0.019313 -0.000003 -0.003770 0.000001
# 4 0.000000 0.000001 -0.000003 0.104784 0.000005 -0.011925
# 5 0.003392 -0.001503 -0.003770 0.000005 0.031825 -0.000001
# 6 0.000000 0.000000 0.000001 -0.011925 -0.000001 0.024818
#
#
# Mechanical properties :
#
#
# Convention : Reuss Voigt Hill
#
# Bulk Modulus (GPa) = 15.73293 30.77604 23.25449
# Shear Modulus (GPa) = 19.99665 32.06580 26.03123
#
# Velocity S-wave (km/s) = 2.88591 3.65448 3.29269
# Velocity P-wave (km/s) = 4.20206 5.53398 4.91336
#
# Compressibility (1/GPa) = 0.06356095
#
# Stress axis : x y z
#
# Youngs Moduli (GPa) = 143.64321 25.49737 51.77789
#
# Poissons Ratio (x) = 0.02299 0.14370
# Poissons Ratio (y) = 0.12953 -0.14033
# Poissons Ratio (z) = 0.39866 -0.06910
#
# Static dielectric constant tensor:
#      x y z
#    x 2.014950 0.000000 0.156850 
#    y 0.000000 2.067590 0.000010 
#    z 0.156850 0.000010 2.363690 
# 
# From -- ./inp_files/143498.got.cif
#   From: 2010.05.17/outbox.cif.g08.bks.cpg/sg15_72_cif.got.tgz:143498.got - 2010.06.03 18:47:42.
