data_PCOD9301840
_publ_section_title
;
Structure prediction by ZEFSAII (Michael W. Deem and Ramdas Pophale) SiO2 
 PCOD9301840
Probable space group: C 2/C
;
_chemical_formula_sum "Si O2"
_cell_formula_units_Z 44
_cell_length_a 10.802447
_cell_length_b 25.588722
_cell_length_c 11.208664
_cell_angle_alpha 90.000000
_cell_angle_beta 138.136599
_cell_angle_gamma 90.000000
_cell_volume 2067.677460
_symmetry_space_group_name_H-M "C 2/C"
_symmetry_group_IT_number 15
_symmetry_cell_setting 'monoclinic'
loop_
_space_group_symop_operation_xyz
x,y,z
-x,y,1/2-z
-x,-y,-z
x,-y,1/2+z
1/2+x,1/2+y,z
1/2-x,1/2+y,1/2-z
1/2-x,1/2-y,-z
1/2+x,1/2-y,1/2+z
loop_
_atom_site_type_symbol
_atom_site_label
_atom_site_fract_x
_atom_site_fract_y
_atom_site_fract_z
Si Si1 0.219006 0.380495 0.947171
Si Si2 0.202384 0.975758 0.627156
Si Si3 0.793498 0.901856 0.643267
Si Si4 0.500000 0.944457 0.250000
Si Si5 0.656820 0.786993 0.034774
Si Si6 0.271115 0.694338 0.279482
O O1 0.294040 0.438710 0.988208
O O2 0.327307 0.344417 0.928093
O O3 0.000000 0.384777 0.750000
O O4 0.236497 0.345697 0.079490
O O5 0.248681 0.937509 0.771133
O O6 0.360956 0.018835 0.725805
O O7 0.000000 0.000000 0.500000
O O8 0.635771 0.911960 0.432895
O O9 0.797747 0.840981 0.683657
O O10 0.000000 0.916734 0.750000
O O11 0.652000 0.752474 0.150620
O O12 0.750000 0.750000 0.000000
O O13 0.444430 0.795516 0.852705
#
# Coordination Sequence:
#
# PCOD9301840 Si02
#       6
#     8   8   8   4   8   8
#     4   8  15  30  58  89 126 165 208 268 333 386
#     4  11  21  39  68 100 135 179 227 278 338 408
#     4  11  24  45  66  96 139 180 227 279 336 415
#     4  12  24  44  72  92 138 184 230 280 340 396
#     4   9  16  34  60  89 121 164 209 274 337 381
#     4   9  19  35  60  89 126 162 214 273 333 398
#
# _framework density 21.279914000000002
#
# number of rings (size 3 to 8) (size 9 to 14) (size 15 to 20)
#    0.000    2.182    2.727    2.182    0.000    0.000 
#    3.273    2.727    8.000    0.000    0.000    0.000 
#    0.000    0.000    0.000    0.000    0.000    0.000 
#
# Total GULP energy -122510.409261 kJ/mol
# GULP energy per Si atom -5568.654966 kJ/mol
# Density = 2.123148 g / cm^3
# Si number density = 21.279914 Si / 1000 Ang^3
#
#
#
# Elastic Constant Matrix: (Units=GPa)
#
#
# Indices 1 2 3 4 5 6 
#
# 1 59.3109 30.2261 30.4282 0.0000 10.6948 0.0000
# 2 30.2261 118.0455 49.2964 0.0000 -6.7696 0.0000
# 3 30.4282 49.2964 88.1000 0.0000 0.1192 0.0000
# 4 0.0000 0.0000 0.0000 28.3198 0.0000 -9.5672
# 5 10.6948 -6.7696 0.1192 0.0000 26.1224 0.0000
# 6 0.0000 0.0000 0.0000 -9.5672 0.0000 50.7864
#
#
#
# Elastic Compliance Matrix: (Units=1/GPa)
#
#
# Indices 1 2 3 4 5 6 
#
# 1 0.024054 -0.004337 -0.005866 0.000000 -0.010945 0.000000
# 2 -0.004337 0.012059 -0.005257 0.000000 0.004925 0.000000
# 3 -0.005866 -0.005257 0.016317 0.000000 0.000965 0.000000
# 4 0.000000 0.000000 0.000000 0.037711 0.000000 0.007104
# 5 -0.010945 0.004925 0.000965 0.000000 0.044034 0.000000
# 6 0.000000 0.000000 0.000000 0.007104 0.000000 0.021029
#
#
# Mechanical properties :
#
#
# Convention : Reuss Voigt Hill
#
# Bulk Modulus (GPa) = 46.48908 53.92866 50.20887
# Shear Modulus (GPa) = 25.86743 31.41274 28.64008
#
# Velocity S-wave (km/s) = 3.49030 3.84626 3.67260
# Velocity P-wave (km/s) = 6.17550 6.71733 6.45210
#
# Compressibility (1/GPa) = 0.02151043
#
# Stress axis : x y z
#
# Youngs Moduli (GPa) = 41.57379 82.92266 61.28644
#
# Poissons Ratio (x) = 0.35963 0.35951
# Poissons Ratio (y) = 0.18031 0.32216
# Poissons Ratio (z) = 0.24388 0.43589
#
# Static dielectric constant tensor:
#      x y z
#    x 1.787470 0.000000 -0.037810 
#    y 0.000000 1.872040 0.000000 
#    z -0.037810 0.000000 1.801370 
# 
# From -- ./inp_files/92165.got.cif
#   From: 2010.05.17/outbox.cif.g08.bks.cpg/sg15_47_cif.got.tgz:92165.got - 2010.06.03 18:47:42.
