data_PCOD9301113
_publ_section_title
;
Structure prediction by ZEFSAII (Michael W. Deem and Ramdas Pophale) SiO2 
 PCOD9301113
Probable space group: C 2/C
;
_chemical_formula_sum "Si O2"
_cell_formula_units_Z 56
_cell_length_a 13.742081
_cell_length_b 15.065355
_cell_length_c 14.405877
_cell_angle_alpha 90.000000
_cell_angle_beta 61.270112
_cell_angle_gamma 90.000000
_cell_volume 2615.287493
_symmetry_space_group_name_H-M "C 2/C"
_symmetry_group_IT_number 15
_symmetry_cell_setting 'monoclinic'
loop_
_space_group_symop_operation_xyz
x,y,z
-x,y,1/2-z
-x,-y,-z
x,-y,1/2+z
1/2+x,1/2+y,z
1/2-x,1/2+y,1/2-z
1/2-x,1/2-y,-z
1/2+x,1/2-y,1/2+z
loop_
_atom_site_type_symbol
_atom_site_label
_atom_site_fract_x
_atom_site_fract_y
_atom_site_fract_z
Si Si1 0.215841 0.919314 0.976554
Si Si2 0.497921 0.470286 0.858885
Si Si3 0.369987 0.002383 0.039418
Si Si4 0.761249 0.031294 0.715648
Si Si5 0.102297 0.694992 0.535472
Si Si6 0.401001 0.300807 0.599123
Si Si7 0.706908 0.226901 0.676048
O O1 0.165848 0.826974 0.962176
O O2 0.255488 0.968225 0.864851
O O3 0.314852 0.924012 0.004569
O O4 0.114084 0.977826 0.064717
O O5 0.500000 0.444064 0.750000
O O6 0.606792 0.530647 0.825300
O O7 0.517983 0.384170 0.913992
O O8 0.302825 0.005260 0.165875
O O9 0.356615 0.094032 0.988721
O O10 0.500000 0.000000 0.000000
O O11 0.718571 0.128657 0.711144
O O12 0.181136 0.747156 0.428539
O O13 0.117462 0.728329 0.633781
O O14 0.977164 0.713865 0.561666
O O15 0.322883 0.290359 0.724944
#
# Coordination Sequence:
#
# PCOD9301113 Si02
#       7
#     8   8   8   8   8   8   8
#     4  11  23  43  65  97 134 170 223 280 337 408
#     4  11  20  37  68  97 126 166 215 274 343 396
#     4  12  26  43  66  93 133 187 232 265 329 419
#     4  11  22  41  66  97 133 175 222 271 342 407
#     4  11  22  40  64  97 132 166 225 282 330 386
#     4  11  23  37  65  98 129 163 215 283 345 388
#     4  11  22  38  66  96 131 166 217 280 339 390
#
# _framework density 21.412559000000002
#
# number of rings (size 3 to 8) (size 9 to 14) (size 15 to 20)
#    0.000    0.857    2.857    7.286    2.000    0.571 
#    0.000    2.857    0.000    0.000    0.000    0.000 
#    0.000    0.000    0.000    0.000    0.000    0.000 
#
# Total GULP energy -156586.474321 kJ/mol
# GULP energy per Si atom -5592.374083 kJ/mol
# Density = 2.136382 g / cm^3
# Si number density = 21.412559 Si / 1000 Ang^3
#
#
#
# Elastic Constant Matrix: (Units=GPa)
#
#
# Indices 1 2 3 4 5 6 
#
# 1 119.7133 15.2034 44.7891 0.0000 -5.2929 0.0000
# 2 15.2034 46.6764 5.9317 0.0000 -4.8676 0.0000
# 3 44.7891 5.9317 98.4056 0.0000 1.8382 0.0000
# 4 0.0000 0.0000 0.0000 36.3371 0.0000 1.2179
# 5 -5.2929 -4.8676 1.8382 0.0000 21.9203 0.0000
# 6 0.0000 0.0000 0.0000 1.2179 0.0000 33.6681
#
#
#
# Elastic Compliance Matrix: (Units=1/GPa)
#
#
# Indices 1 2 3 4 5 6 
#
# 1 0.010540 -0.002591 -0.004685 0.000000 0.002362 0.000000
# 2 -0.002591 0.022768 -0.000276 0.000000 0.004453 0.000000
# 3 -0.004685 -0.000276 0.012353 0.000000 -0.002228 0.000000
# 4 0.000000 0.000000 0.000000 0.027554 0.000000 -0.000997
# 5 0.002362 0.004453 -0.002228 0.000000 0.047366 0.000000
# 6 0.000000 0.000000 0.000000 -0.000997 0.000000 0.029738
#
#
# Mechanical properties :
#
#
# Convention : Reuss Voigt Hill
#
# Bulk Modulus (GPa) = 32.72778 44.07150 38.39964
# Shear Modulus (GPa) = 28.47267 31.64319 30.05793
#
# Velocity S-wave (km/s) = 3.65049 3.84837 3.75073
# Velocity P-wave (km/s) = 5.75201 6.35400 6.06049
#
# Compressibility (1/GPa) = 0.03055508
#
# Stress axis : x y z
#
# Youngs Moduli (GPa) = 94.87973 43.92203 80.95407
#
# Poissons Ratio (x) = 0.11381 0.37927
# Poissons Ratio (y) = 0.24585 0.02236
# Poissons Ratio (z) = 0.44452 0.01213
#
# Static dielectric constant tensor:
#      x y z
#    x 1.809570 0.000000 0.005330 
#    y 0.000000 1.796440 0.000000 
#    z 0.005330 0.000000 1.726010 
# 
# From -- ./inp_files/145974.got.cif
#   From: 2010.05.17/outbox.cif.g08.bks.cpg/sg15_73_cif.got.tgz:145974.got - 2010.06.03 18:47:42.
