data_PCOD9301689
_publ_section_title
;
Structure prediction by ZEFSAII (Michael W. Deem and Ramdas Pophale) SiO2 
 PCOD9301689
Probable space group: C 2/C
;
_chemical_formula_sum "Si O2"
_cell_formula_units_Z 52
_cell_length_a 15.873422
_cell_length_b 21.453251
_cell_length_c 20.237101
_cell_angle_alpha 90.000000
_cell_angle_beta 158.226293
_cell_angle_gamma 90.000000
_cell_volume 2556.334321
_symmetry_space_group_name_H-M "C 2/C"
_symmetry_group_IT_number 15
_symmetry_cell_setting 'monoclinic'
loop_
_space_group_symop_operation_xyz
x,y,z
-x,y,1/2-z
-x,-y,-z
x,-y,1/2+z
1/2+x,1/2+y,z
1/2-x,1/2+y,1/2-z
1/2-x,1/2-y,-z
1/2+x,1/2-y,1/2+z
loop_
_atom_site_type_symbol
_atom_site_label
_atom_site_fract_x
_atom_site_fract_y
_atom_site_fract_z
Si Si1 0.033810 0.039099 0.419328
Si Si2 0.373760 0.798637 0.728199
Si Si3 0.133246 0.923748 0.561282
Si Si4 0.090742 0.507874 0.900364
Si Si5 0.330659 0.168015 0.926749
Si Si6 0.000000 0.079565 0.750000
Si Si7 0.917269 0.434842 0.973044
O O1 0.984024 0.072845 0.452514
O O2 0.852521 0.063526 0.235440
O O3 0.990817 0.966454 0.407541
O O4 0.282365 0.040460 0.568737
O O5 0.500000 0.788710 0.750000
O O6 0.194541 0.854282 0.587110
O O7 0.247755 0.735111 0.655835
O O8 0.541836 0.820151 0.909825
O O9 0.375149 0.961460 0.738372
O O10 0.294281 0.463313 0.075381
O O11 0.030904 0.558219 0.912294
O O12 0.108455 0.126419 0.776624
O O13 0.484857 0.125417 0.991979
O O14 0.000000 0.500000 0.000000
#
# Coordination Sequence:
#
# PCOD9301689 Si02
#       7
#     8   8   8   8   8   4   8
#     4  11  21  38  61  92 122 158 194 251 317 351
#     4  12  24  41  58  85 125 166 203 246 301 372
#     4  11  24  38  61  93 130 157 197 252 305 372
#     4  12  21  37  65  93 122 159 197 255 305 368
#     4  12  26  39  58  90 125 163 209 245 301 371
#     4  12  20  34  60  90 120 158 200 242 300 368
#     4  12  20  39  59  88 121 155 204 249 298 361
#
# _framework density 20.341626000000002
#
# number of rings (size 3 to 8) (size 9 to 14) (size 15 to 20)
#    0.000    0.308    8.462    1.846    0.000    1.231 
#    0.000    0.000    0.000    0.923    0.000    0.000 
#    0.000    0.000    0.000    0.000    0.000    0.000 
#
# Total GULP energy -145317.155666 kJ/mol
# GULP energy per Si atom -5589.121372 kJ/mol
# Density = 2.029533 g / cm^3
# Si number density = 20.341626 Si / 1000 Ang^3
#
#
#
# Elastic Constant Matrix: (Units=GPa)
#
#
# Indices 1 2 3 4 5 6 
#
# 1 107.9592 38.5216 26.2617 -0.0009 25.9426 0.0001
# 2 38.5216 124.3172 42.0105 0.0219 10.9408 -0.0063
# 3 26.2617 42.0105 81.0827 0.0529 18.4932 -0.0039
# 4 -0.0009 0.0219 0.0529 31.8029 -0.0069 5.3765
# 5 25.9426 10.9408 18.4932 -0.0069 30.1456 -0.0124
# 6 0.0001 -0.0063 -0.0039 5.3765 -0.0124 31.9030
#
#
#
# Elastic Compliance Matrix: (Units=1/GPa)
#
#
# Indices 1 2 3 4 5 6 
#
# 1 0.012733 -0.002966 -0.000388 0.000002 -0.009643 -0.000005
# 2 -0.002966 0.010449 -0.004849 0.000001 0.001734 0.000002
# 3 -0.000388 -0.004849 0.016851 -0.000027 -0.008244 0.000002
# 4 0.000002 0.000001 -0.000027 0.032366 0.000020 -0.005455
# 5 -0.009643 0.001734 -0.008244 0.000020 0.045899 0.000014
# 6 -0.000005 0.000002 0.000002 -0.005455 0.000014 0.032264
#
#
# Mechanical properties :
#
#
# Convention : Reuss Voigt Hill
#
# Bulk Modulus (GPa) = 42.32308 58.54965 50.43636
# Shear Modulus (GPa) = 28.59721 32.54131 30.56926
#
# Velocity S-wave (km/s) = 3.75353 4.00401 3.88079
# Velocity P-wave (km/s) = 6.29576 7.08674 6.70293
#
# Compressibility (1/GPa) = 0.02362777
#
# Stress axis : x y z
#
# Youngs Moduli (GPa) = 78.53895 95.70492 59.34264
#
# Poissons Ratio (x) = 0.28382 0.02303
# Poissons Ratio (y) = 0.23291 0.28774
# Poissons Ratio (z) = 0.03048 0.46405
#
# Static dielectric constant tensor:
#      x y z
#    x 1.815320 -0.000020 -0.063100 
#    y -0.000020 1.689160 -0.000010 
#    z -0.063100 -0.000010 1.837750 
# 
# From -- ./inp_files/277997.got.cif
#   From: 2010.05.17/outbox.cif.g08.bks.cpg/sg15_139_cif.got.tgz:277997.got - 2010.06.03 18:47:42.
