data_PCOD9301524
_publ_section_title
;
Structure prediction by ZEFSAII (Michael W. Deem and Ramdas Pophale) SiO2 
 PCOD9301524
Probable space group: C 2/C
;
_chemical_formula_sum "Si O2"
_cell_formula_units_Z 48
_cell_length_a 13.802998
_cell_length_b 18.176189
_cell_length_c 17.634992
_cell_angle_alpha 90.000000
_cell_angle_beta 157.873752
_cell_angle_gamma 90.000000
_cell_volume 1666.433437
_symmetry_space_group_name_H-M "C 2/C"
_symmetry_group_IT_number 15
_symmetry_cell_setting 'monoclinic'
loop_
_space_group_symop_operation_xyz
x,y,z
-x,y,1/2-z
-x,-y,-z
x,-y,1/2+z
1/2+x,1/2+y,z
1/2-x,1/2+y,1/2-z
1/2-x,1/2-y,-z
1/2+x,1/2-y,1/2+z
loop_
_atom_site_type_symbol
_atom_site_label
_atom_site_fract_x
_atom_site_fract_y
_atom_site_fract_z
Si Si1 0.529122 0.667924 0.551945
Si Si2 0.433069 0.519933 0.543970
Si Si3 0.426946 0.045136 0.077127
Si Si4 0.025346 0.293938 0.881779
Si Si5 0.717662 0.411606 0.842650
Si Si6 0.264321 0.245767 0.431592
O O1 0.596826 0.588579 0.632689
O O2 0.612481 0.735453 0.664470
O O3 0.617521 0.687301 0.531266
O O4 0.218729 0.674709 0.340850
O O5 0.305058 0.541051 0.530818
O O6 0.582506 0.443397 0.668223
O O7 0.185616 0.520471 0.309171
O O8 0.398404 0.128496 0.024618
O O9 0.380274 0.981795 0.983848
O O10 0.250000 0.250000 0.000000
O O11 0.500000 0.405480 0.750000
O O12 0.844942 0.332460 0.951505
O O13 0.455223 0.249503 0.655218
#
# Coordination Sequence:
#
# PCOD9301524 Si02
#       6
#     8   8   8   8   8   8
#     4  11  23  38  69 106 148 194 249 307 378 460
#     4   9  18  36  66 107 147 184 235 302 387 460
#     4   9  18  35  63 107 150 186 231 296 387 468
#     4  11  21  35  65 108 153 187 231 302 393 481
#     4   9  20  40  72 102 142 192 245 311 375 441
#     4  11  25  51  74 100 143 204 269 315 360 432
#
# _framework density 28.804030000000001
#
# number of rings (size 3 to 8) (size 9 to 14) (size 15 to 20)
#    0.000    2.000    1.667    1.500    2.333    1.333 
#    9.000    0.833    0.000   17.000    0.000    3.500 
#    0.000    0.000    0.000    0.000    0.000    0.000 
#
# Total GULP energy -134046.643503 kJ/mol
# GULP energy per Si atom -5585.276813 kJ/mol
# Density = 2.873847 g / cm^3
# Si number density = 28.804030 Si / 1000 Ang^3
#
#
#
# Elastic Constant Matrix: (Units=GPa)
#
#
# Indices 1 2 3 4 5 6 
#
# 1 184.6292 99.6403 46.9151 -0.0150 -20.0516 -0.0943
# 2 99.6403 312.3250 85.2903 0.0841 -11.6619 0.0463
# 3 46.9151 85.2903 123.7921 -0.0381 3.4012 0.0191
# 4 -0.0150 0.0841 -0.0381 53.5557 -0.0580 4.1648
# 5 -20.0516 -11.6619 3.4012 -0.0580 37.7966 -0.0740
# 6 -0.0943 0.0463 0.0191 4.1648 -0.0740 40.4767
#
#
#
# Elastic Compliance Matrix: (Units=1/GPa)
#
#
# Indices 1 2 3 4 5 6 
#
# 1 0.007114 -0.001701 -0.001617 0.000005 0.003395 0.000025
# 2 -0.001701 0.004433 -0.002428 -0.000008 0.000684 -0.000006
# 3 -0.001617 -0.002428 0.010434 0.000009 -0.002546 -0.000011
# 4 0.000005 -0.000008 0.000009 0.018823 0.000025 -0.001937
# 5 0.003395 0.000684 -0.002546 0.000025 0.028699 0.000058
# 6 0.000025 -0.000006 -0.000011 -0.001937 0.000058 0.024905
#
#
# Mechanical properties :
#
#
# Convention : Reuss Voigt Hill
#
# Bulk Modulus (GPa) = 95.35180 120.49306 107.92243
# Shear Modulus (GPa) = 45.70488 52.29251 48.99869
#
# Velocity S-wave (km/s) = 3.98773 4.26544 4.12892
# Velocity P-wave (km/s) = 7.37415 8.13520 7.76401
#
# Compressibility (1/GPa) = 0.01048748
#
# Stress axis : x y z
#
# Youngs Moduli (GPa) = 140.56782 225.56959 95.83932
#
# Poissons Ratio (x) = 0.38373 0.15500
# Poissons Ratio (y) = 0.23913 0.23274
# Poissons Ratio (z) = 0.22734 0.54779
#
# Static dielectric constant tensor:
#      x y z
#    x 2.239240 0.000020 -0.130220 
#    y 0.000020 2.293960 -0.000130 
#    z -0.130220 -0.000130 2.822240 
# 
# From -- ./inp_files/249755.got.cif
#   From: 2010.05.17/outbox.cif.g08.bks.cpg/sg15_125_cif.got.tgz:249755.got - 2010.06.03 18:47:42.
