data_PCOD9301172
_publ_section_title
;
Structure prediction by ZEFSAII (Michael W. Deem and Ramdas Pophale) SiO2 
 PCOD9301172
Probable space group: C 2/C
;
_chemical_formula_sum "Si O2"
_cell_formula_units_Z 40
_cell_length_a 16.333361
_cell_length_b 11.884921
_cell_length_c 13.636903
_cell_angle_alpha 90.000000
_cell_angle_beta 40.893939
_cell_angle_gamma 90.000000
_cell_volume 1733.021630
_symmetry_space_group_name_H-M "C 2/C"
_symmetry_group_IT_number 15
_symmetry_cell_setting 'monoclinic'
loop_
_space_group_symop_operation_xyz
x,y,z
-x,y,1/2-z
-x,-y,-z
x,-y,1/2+z
1/2+x,1/2+y,z
1/2-x,1/2+y,1/2-z
1/2-x,1/2-y,-z
1/2+x,1/2-y,1/2+z
loop_
_atom_site_type_symbol
_atom_site_label
_atom_site_fract_x
_atom_site_fract_y
_atom_site_fract_z
Si Si1 0.451262 0.616555 0.186078
Si Si2 0.771265 0.157956 0.894137
Si Si3 0.199705 0.542229 0.330715
Si Si4 0.032096 0.262288 0.936240
Si Si5 0.627452 0.580555 0.505530
O O1 0.500000 0.641025 0.250000
O O2 0.303313 0.616753 0.296888
O O3 0.520293 0.701630 0.050581
O O4 0.503932 0.494509 0.105769
O O5 0.860984 0.218909 0.734959
O O6 0.688138 0.072866 0.903052
O O7 0.750000 0.250000 0.000000
O O8 0.836749 0.071599 0.913335
O O9 0.074722 0.611928 0.423029
O O10 0.268487 0.531467 0.162271
O O11 0.908955 0.208943 0.993982
#
# Coordination Sequence:
#
# PCOD9301172 Si02
#       5
#     8   8   8   8   8
#     4  11  20  38  66  94 127 174 219 267 323 393
#     4  12  22  39  68  96 129 178 218 268 335 397
#     4  11  22  38  62 102 127 164 228 276 317 390
#     4  11  22  37  63  97 130 165 219 281 322 375
#     4  11  20  40  68  94 128 175 227 261 323 402
#
# _framework density 23.081074999999998
#
# number of rings (size 3 to 8) (size 9 to 14) (size 15 to 20)
#    0.000    0.800    8.000    1.800    0.000    0.800 
#    0.000    1.000    0.000    0.000    0.000    0.000 
#    0.000    0.000    0.000    0.000    0.000    0.000 
#
# Total GULP energy -111389.766788 kJ/mol
# GULP energy per Si atom -5569.488339 kJ/mol
# Density = 2.302854 g / cm^3
# Si number density = 23.081075 Si / 1000 Ang^3
#
#
#
# Elastic Constant Matrix: (Units=GPa)
#
#
# Indices 1 2 3 4 5 6 
#
# 1 139.3110 44.0372 59.5576 0.0000 33.6490 0.0000
# 2 44.0372 125.7421 59.5808 0.0000 5.5806 0.0000
# 3 59.5576 59.5808 105.4291 0.0000 29.6335 0.0000
# 4 0.0000 0.0000 0.0000 37.0031 0.0000 11.1716
# 5 33.6490 5.5806 29.6335 0.0000 44.8033 0.0000
# 6 0.0000 0.0000 0.0000 11.1716 0.0000 11.2983
#
#
#
# Elastic Compliance Matrix: (Units=1/GPa)
#
#
# Indices 1 2 3 4 5 6 
#
# 1 0.010515 -0.001845 -0.003369 0.000000 -0.005440 0.000000
# 2 -0.001845 0.011604 -0.006754 0.000000 0.004408 0.000000
# 3 -0.003369 -0.006754 0.017513 0.000000 -0.008212 0.000000
# 4 0.000000 0.000000 0.000000 0.038525 0.000000 -0.038093
# 5 -0.005440 0.004408 -0.008212 0.000000 0.031288 0.000000
# 6 0.000000 0.000000 0.000000 -0.038093 0.000000 0.126174
#
#
# Mechanical properties :
#
#
# Convention : Reuss Voigt Hill
#
# Bulk Modulus (GPa) = 63.70775 77.42595 70.56685
# Shear Modulus (GPa) = 18.88303 32.44138 25.66221
#
# Velocity S-wave (km/s) = 2.86338 3.75312 3.33803
# Velocity P-wave (km/s) = 6.21237 7.23873 6.74510
#
# Compressibility (1/GPa) = 0.01569668
#
# Stress axis : x y z
#
# Youngs Moduli (GPa) = 95.09815 86.17938 57.09989
#
# Poissons Ratio (x) = 0.15901 0.19234
# Poissons Ratio (y) = 0.17547 0.38566
# Poissons Ratio (z) = 0.32034 0.58207
#
# Static dielectric constant tensor:
#      x y z
#    x 1.989010 0.000000 -0.125910 
#    y 0.000000 2.129280 0.000000 
#    z -0.125910 0.000000 1.869060 
# 
# From -- ./inp_files/110751.got.cif
#   From: 2010.05.17/outbox.cif.g08.bks.cpg/sg15_56_cif.got.tgz:110751.got - 2010.06.03 18:47:42.
