data_PCOD9301714
_publ_section_title
;
Structure prediction by ZEFSAII (Michael W. Deem and Ramdas Pophale) SiO2 
 PCOD9301714
Probable space group: C 2/C
;
_chemical_formula_sum "Si O2"
_cell_formula_units_Z 52
_cell_length_a 13.088854
_cell_length_b 9.579017
_cell_length_c 20.067314
_cell_angle_alpha 90.000000
_cell_angle_beta 100.074034
_cell_angle_gamma 90.000000
_cell_volume 2477.216418
_symmetry_space_group_name_H-M "C 2/C"
_symmetry_group_IT_number 15
_symmetry_cell_setting 'monoclinic'
loop_
_space_group_symop_operation_xyz
x,y,z
-x,y,1/2-z
-x,-y,-z
x,-y,1/2+z
1/2+x,1/2+y,z
1/2-x,1/2+y,1/2-z
1/2-x,1/2-y,-z
1/2+x,1/2-y,1/2+z
loop_
_atom_site_type_symbol
_atom_site_label
_atom_site_fract_x
_atom_site_fract_y
_atom_site_fract_z
Si Si1 0.214583 0.041931 0.114966
Si Si2 0.133143 0.848994 0.995748
Si Si3 0.215824 0.143912 0.862382
Si Si4 0.283176 0.838862 0.223110
Si Si5 0.500000 0.291118 0.750000
Si Si6 0.295345 0.149890 0.401077
Si Si7 0.984864 0.987136 0.625331
O O1 0.239862 0.204626 0.113639
O O2 0.107887 0.996132 0.140212
O O3 0.198316 0.968276 0.042041
O O4 0.296143 0.966514 0.172874
O O5 0.113493 0.726967 0.047413
O O6 0.200561 0.804779 0.939186
O O7 0.034581 0.912561 0.947758
O O8 0.218607 0.133610 0.782431
O O9 0.288275 0.016017 0.895758
O O10 0.099744 0.110082 0.876339
O O11 0.398165 0.793896 0.258890
O O12 0.227121 0.718240 0.172865
O O13 0.463034 0.385816 0.684606
#
# Coordination Sequence:
#
# PCOD9301714 Si02
#       7
#     8   8   8   8   4   8   8
#     4  11  23  38  64  96 130 165 217 274 326 385
#     4   9  19  38  63  91 128 171 211 261 324 396
#     4  11  21  38  64  96 126 168 213 272 328 384
#     4  11  21  39  63  91 127 168 217 273 325 389
#     4  12  20  40  66  88 120 174 222 258 328 394
#     4   9  19  37  62  91 123 171 212 257 330 389
#     4  11  22  40  66  94 126 172 214 263 324 397
#
# _framework density 20.991302999999998
#
# number of rings (size 3 to 8) (size 9 to 14) (size 15 to 20)
#    0.000    1.538    4.615    2.308    0.000    2.462 
#    0.000    6.154    0.000    0.000    0.000    0.000 
#    0.000    0.000    0.000    0.000    0.000    0.000 
#
# Total GULP energy -144858.740627 kJ/mol
# GULP energy per Si atom -5571.490024 kJ/mol
# Density = 2.094353 g / cm^3
# Si number density = 20.991303 Si / 1000 Ang^3
#
#
#
# Elastic Constant Matrix: (Units=GPa)
#
#
# Indices 1 2 3 4 5 6 
#
# 1 59.4271 16.3176 8.3944 0.0000 -5.3709 0.0000
# 2 16.3176 152.7931 37.6483 0.0000 11.7362 0.0000
# 3 8.3944 37.6483 104.8375 0.0000 9.5404 0.0000
# 4 0.0000 0.0000 0.0000 28.6323 0.0000 -1.1294
# 5 -5.3709 11.7362 9.5404 0.0000 24.7886 0.0000
# 6 0.0000 0.0000 0.0000 -1.1294 0.0000 17.7753
#
#
#
# Elastic Compliance Matrix: (Units=1/GPa)
#
#
# Indices 1 2 3 4 5 6 
#
# 1 0.018039 -0.002041 -0.001197 0.000000 0.005336 0.000000
# 2 -0.002041 0.007563 -0.002266 0.000000 -0.003151 0.000000
# 3 -0.001197 -0.002266 0.010751 0.000000 -0.003324 0.000000
# 4 0.000000 0.000000 0.000000 0.035013 0.000000 0.002225
# 5 0.005336 -0.003151 -0.003324 0.000000 0.044268 0.000000
# 6 0.000000 0.000000 0.000000 0.002225 0.000000 0.056399
#
#
# Mechanical properties :
#
#
# Convention : Reuss Voigt Hill
#
# Bulk Modulus (GPa) = 39.45596 49.08647 44.27122
# Shear Modulus (GPa) = 26.11098 31.21906 28.66502
#
# Velocity S-wave (km/s) = 3.53072 3.86066 3.69937
# Velocity P-wave (km/s) = 5.95470 6.58087 6.27560
#
# Compressibility (1/GPa) = 0.02534471
#
# Stress axis : x y z
#
# Youngs Moduli (GPa) = 55.43491 132.22027 93.01823
#
# Poissons Ratio (x) = 0.26992 0.11133
# Poissons Ratio (y) = 0.11317 0.21076
# Poissons Ratio (z) = 0.06635 0.29958
#
# Static dielectric constant tensor:
#      x y z
#    x 1.855060 0.000000 0.001300 
#    y 0.000000 1.853150 0.000000 
#    z 0.001300 0.000000 1.766470 
# 
# From -- ./inp_files/242540.got.cif
#   From: 2010.05.17/outbox.cif.g08.bks.cpg/sg15_122_cif.got.tgz:242540.got - 2010.06.03 18:47:42.
