data_PCOD9301554
_publ_section_title
;
Structure prediction by ZEFSAII (Michael W. Deem and Ramdas Pophale) SiO2 
 PCOD9301554
Probable space group: C 2/C
;
_chemical_formula_sum "Si O2"
_cell_formula_units_Z 36
_cell_length_a 15.609274
_cell_length_b 23.587165
_cell_length_c 15.072177
_cell_angle_alpha 90.000000
_cell_angle_beta 161.299478
_cell_angle_gamma 90.000000
_cell_volume 1779.210117
_symmetry_space_group_name_H-M "C 2/C"
_symmetry_group_IT_number 15
_symmetry_cell_setting 'monoclinic'
loop_
_space_group_symop_operation_xyz
x,y,z
-x,y,1/2-z
-x,-y,-z
x,-y,1/2+z
1/2+x,1/2+y,z
1/2-x,1/2+y,1/2-z
1/2-x,1/2-y,-z
1/2+x,1/2-y,1/2+z
loop_
_atom_site_type_symbol
_atom_site_label
_atom_site_fract_x
_atom_site_fract_y
_atom_site_fract_z
Si Si1 0.500000 0.706878 0.750000
Si Si2 0.519609 0.632713 0.590938
Si Si3 0.056123 0.566419 0.058537
Si Si4 0.082444 0.210168 0.176188
Si Si5 0.761385 0.103526 0.067020
O O1 0.250000 0.750000 0.500000
O O2 0.528907 0.665259 0.693410
O O3 0.797565 0.603917 0.832228
O O4 0.434157 0.680292 0.435563
O O5 0.291260 0.584774 0.356827
O O6 0.000000 0.500000 0.000000
O O7 0.154848 0.579534 0.055626
O O8 0.342210 0.246893 0.446180
O O9 0.090025 0.160102 0.253860
O O10 0.000000 0.070408 0.250000
O O11 0.500000 0.111986 0.750000
#
# Coordination Sequence:
#
# PCOD9301554 Si02
#       5
#     4   8   8   8   8
#     4  12  24  42  70 102 144 176 216 282 338 400
#     4  11  23  42  66  96 132 167 225 264 322 403
#     4  11  24  46  68  89 128 172 217 274 332 381
#     4  11  21  36  60  88 125 169 201 243 311 375
#     4  11  23  40  61  92 127 159 211 264 312 380
#
# _framework density 20.233698
#
# number of rings (size 3 to 8) (size 9 to 14) (size 15 to 20)
#    0.000    0.889    0.000   10.000    0.000    2.667 
#    6.000    0.000    0.000    0.000    0.000    0.000 
#    0.000    0.000    0.000    0.000    0.000    0.000 
#
# Total GULP energy -100541.814579 kJ/mol
# GULP energy per Si atom -5585.656366 kJ/mol
# Density = 2.018765 g / cm^3
# Si number density = 20.233698 Si / 1000 Ang^3
#
#
#
# Elastic Constant Matrix: (Units=GPa)
#
#
# Indices 1 2 3 4 5 6 
#
# 1 180.3781 82.7932 73.8001 -0.0036 -8.7421 -0.0012
# 2 82.7932 112.0622 50.9544 0.0026 7.8195 0.0003
# 3 73.8001 50.9544 173.0278 -0.0131 21.6826 -0.0022
# 4 -0.0036 0.0026 -0.0131 87.2407 -0.0032 2.9965
# 5 -8.7421 7.8195 21.6826 -0.0032 38.2626 -0.0009
# 6 -0.0012 0.0003 -0.0022 2.9965 -0.0009 4.8028
#
#
#
# Elastic Compliance Matrix: (Units=1/GPa)
#
#
# Indices 1 2 3 4 5 6 
#
# 1 0.009956 -0.006342 -0.003042 0.000000 0.005295 0.000002
# 2 -0.006342 0.014349 -0.001046 -0.000001 -0.003789 -0.000003
# 3 -0.003042 -0.001046 0.008015 0.000001 -0.005023 0.000001
# 4 0.000000 -0.000001 0.000001 0.011714 0.000001 -0.007308
# 5 0.005295 -0.003789 -0.005023 0.000001 0.030966 0.000005
# 6 0.000002 -0.000003 0.000001 -0.007308 0.000005 0.212769
#
#
# Mechanical properties :
#
#
# Convention : Reuss Voigt Hill
#
# Bulk Modulus (GPa) = 87.26496 97.84039 92.55268
# Shear Modulus (GPa) = 16.00263 43.25593 29.62928
#
# Velocity S-wave (km/s) = 2.81533 4.62867 3.83084
# Velocity P-wave (km/s) = 7.33418 8.77646 8.08754
#
# Compressibility (1/GPa) = 0.01145935
#
# Stress axis : x y z
#
# Youngs Moduli (GPa) = 100.43947 69.69115 124.77310
#
# Poissons Ratio (x) = 0.44197 0.37962
# Poissons Ratio (y) = 0.63698 0.13050
# Poissons Ratio (z) = 0.30558 0.07289
#
# Static dielectric constant tensor:
#      x y z
#    x 1.761270 0.000000 0.032660 
#    y 0.000000 1.689890 0.000000 
#    z 0.032660 0.000000 1.724770 
# 
# From -- ./inp_files/156709.got.cif
#   From: 2010.05.17/outbox.cif.g08.bks.cpg/sg15_79_cif.got.tgz:156709.got - 2010.06.03 18:47:42.
