data_PCOD9301215
_publ_section_title
;
Structure prediction by ZEFSAII (Michael W. Deem and Ramdas Pophale) SiO2 
 PCOD9301215
Probable space group: C 2/C
;
_chemical_formula_sum "Si O2"
_cell_formula_units_Z 44
_cell_length_a 20.970455
_cell_length_b 12.108529
_cell_length_c 8.875884
_cell_angle_alpha 90.000000
_cell_angle_beta 120.848334
_cell_angle_gamma 90.000000
_cell_volume 1934.929467
_symmetry_space_group_name_H-M "C 2/C"
_symmetry_group_IT_number 15
_symmetry_cell_setting 'monoclinic'
loop_
_space_group_symop_operation_xyz
x,y,z
-x,y,1/2-z
-x,-y,-z
x,-y,1/2+z
1/2+x,1/2+y,z
1/2-x,1/2+y,1/2-z
1/2-x,1/2-y,-z
1/2+x,1/2-y,1/2+z
loop_
_atom_site_type_symbol
_atom_site_label
_atom_site_fract_x
_atom_site_fract_y
_atom_site_fract_z
Si Si1 0.500000 0.160783 0.750000
Si Si2 0.793908 0.848946 0.770284
Si Si3 0.309215 0.573319 0.631971
Si Si4 0.662345 0.113866 0.644551
Si Si5 0.875257 0.733001 0.389081
Si Si6 0.900697 0.526452 0.217224
O O1 0.435948 0.230516 0.593387
O O2 0.541591 0.073062 0.691437
O O3 0.843513 0.739454 0.812912
O O4 0.706680 0.810687 0.655743
O O5 0.814683 0.944394 0.678145
O O6 0.808945 0.894784 0.956887
O O7 0.232274 0.611606 0.616713
O O8 0.366585 0.651322 0.792628
O O9 0.602850 0.056144 0.462665
O O10 0.671398 0.034510 0.798385
O O11 0.904975 0.641224 0.307723
#
# Coordination Sequence:
#
# PCOD9301215 Si02
#       6
#     4   8   8   8   8   8
#     4  12  26  38  62  98 126 172 210 258 314 378
#     4  11  22  39  66  95 127 163 209 262 326 370
#     4  11  20  39  63  91 130 165 206 263 317 374
#     4  11  21  38  62  95 126 160 204 264 320 370
#     4  11  22  38  61  90 129 164 206 258 310 380
#     4  12  21  40  62  91 129 159 207 256 314 371
#
# _framework density 22.739844999999999
#
# number of rings (size 3 to 8) (size 9 to 14) (size 15 to 20)
#    0.000    0.727    7.273    1.636    0.000    1.455 
#    0.000    4.545    0.000    5.455    0.000    0.000 
#    0.000    0.000    0.000    0.000    0.000    0.000 
#
# Total GULP energy -122908.737556 kJ/mol
# GULP energy per Si atom -5586.760798 kJ/mol
# Density = 2.268809 g / cm^3
# Si number density = 22.739845 Si / 1000 Ang^3
#
#
#
# Elastic Constant Matrix: (Units=GPa)
#
#
# Indices 1 2 3 4 5 6 
#
# 1 29.2517 9.7097 39.3018 0.0000 -0.4373 0.0000
# 2 9.7097 142.9578 63.0709 0.0000 8.4621 0.0000
# 3 39.3018 63.0709 142.6812 0.0000 9.7450 0.0000
# 4 0.0000 0.0000 0.0000 38.4065 0.0000 8.2363
# 5 -0.4373 8.4621 9.7450 0.0000 29.2011 0.0000
# 6 0.0000 0.0000 0.0000 8.2363 0.0000 16.8498
#
#
#
# Elastic Compliance Matrix: (Units=1/GPa)
#
#
# Indices 1 2 3 4 5 6 
#
# 1 0.056720 0.003572 -0.017591 0.000000 0.005685 0.000000
# 2 0.003572 0.008961 -0.004882 0.000000 -0.000914 0.000000
# 3 -0.017591 -0.004882 0.014259 0.000000 -0.003607 0.000000
# 4 0.000000 0.000000 0.000000 0.029086 0.000000 -0.014218
# 5 0.005685 -0.000914 -0.003607 0.000000 0.035799 0.000000
# 6 0.000000 0.000000 0.000000 -0.014218 0.000000 0.066297
#
#
# Mechanical properties :
#
#
# Convention : Reuss Voigt Hill
#
# Bulk Modulus (GPa) = 23.73234 59.89506 41.81370
# Shear Modulus (GPa) = 19.01355 30.41203 24.71279
#
# Velocity S-wave (km/s) = 2.89473 3.66100 3.30018
# Velocity P-wave (km/s) = 4.65100 6.65335 5.74016
#
# Compressibility (1/GPa) = 0.04213659
#
# Stress axis : x y z
#
# Youngs Moduli (GPa) = 17.63044 111.59940 70.13275
#
# Poissons Ratio (x) = -0.39862 1.23370
# Poissons Ratio (y) = -0.06297 0.34242
# Poissons Ratio (z) = 0.31013 0.54488
#
# Static dielectric constant tensor:
#      x y z
#    x 2.004560 0.000000 0.038490 
#    y 0.000000 1.835860 0.000000 
#    z 0.038490 0.000000 1.929340 
# 
# From -- ./inp_files/60951.got.cif
#   From: 2010.05.17/outbox.cif.g08.bks.cpg/sg15_31_cif.got.tgz:60951.got - 2010.06.03 18:47:42.
