data_PCOD9301842
_publ_section_title
;
Structure prediction by ZEFSAII (Michael W. Deem and Ramdas Pophale) SiO2 
 PCOD9301842
Probable space group: C 2/C
;
_chemical_formula_sum "Si O2"
_cell_formula_units_Z 48
_cell_length_a 23.144609
_cell_length_b 19.769428
_cell_length_c 14.640023
_cell_angle_alpha 90.000000
_cell_angle_beta 161.133733
_cell_angle_gamma 90.000000
_cell_volume 2166.069967
_symmetry_space_group_name_H-M "C 2/C"
_symmetry_group_IT_number 15
_symmetry_cell_setting 'monoclinic'
loop_
_space_group_symop_operation_xyz
x,y,z
-x,y,1/2-z
-x,-y,-z
x,-y,1/2+z
1/2+x,1/2+y,z
1/2-x,1/2+y,1/2-z
1/2-x,1/2-y,-z
1/2+x,1/2-y,1/2+z
loop_
_atom_site_type_symbol
_atom_site_label
_atom_site_fract_x
_atom_site_fract_y
_atom_site_fract_z
Si Si1 0.500000 0.396881 0.250000
Si Si2 0.000000 0.342120 0.250000
Si Si3 0.932684 0.989679 0.501405
Si Si4 0.221250 0.121743 0.479992
Si Si5 0.668449 0.190663 0.318394
Si Si6 0.840011 0.616362 0.866201
Si Si7 0.064029 0.233303 0.488457
O O1 0.550817 0.444094 0.412081
O O2 0.669757 0.350673 0.482929
O O3 0.135957 0.382379 0.388489
O O4 0.102638 0.291354 0.472182
O O5 0.738796 0.953883 0.214474
O O6 0.070813 0.935281 0.749323
O O7 0.000000 0.000000 0.500000
O O8 0.308817 0.114882 0.709988
O O9 0.113182 0.192161 0.305823
O O10 0.750000 0.250000 0.500000
O O11 0.552890 0.228864 0.067925
O O12 0.543236 0.138073 0.185107
O O13 0.718599 0.677369 0.722937
#
# Coordination Sequence:
#
# PCOD9301842 Si02
#       7
#     4   4   8   8   8   8   8
#     4  12  28  51  68  99 148 184 242 302 354 430
#     4  12  20  33  66 107 132 172 222 288 354 416
#     4  11  26  48  72  97 136 187 241 307 361 416
#     4  11  22  41  69 104 137 174 237 304 355 413
#     4  12  28  45  70 104 150 193 230 284 369 452
#     4  11  22  46  72 100 138 186 238 297 356 428
#     4  11  21  39  68 103 143 174 230 291 356 422
#
# _framework density 22.159949000000001
#
# number of rings (size 3 to 8) (size 9 to 14) (size 15 to 20)
#    0.000    0.667    5.000    3.500    7.000    0.667 
#    3.000    0.000    0.000    0.000    0.000    0.000 
#    0.000    0.000    0.000    0.000    0.000    0.000 
#
# Total GULP energy -134314.397883 kJ/mol
# GULP energy per Si atom -5596.433245 kJ/mol
# Density = 2.210951 g / cm^3
# Si number density = 22.159949 Si / 1000 Ang^3
#
#
#
# Elastic Constant Matrix: (Units=GPa)
#
#
# Indices 1 2 3 4 5 6 
#
# 1 123.8461 42.1918 23.1030 0.0000 9.1001 0.0000
# 2 42.1918 86.7449 28.2890 0.0000 -0.8997 0.0000
# 3 23.1030 28.2890 57.4381 0.0000 18.2997 0.0000
# 4 0.0000 0.0000 0.0000 -25.2791 0.0000 -5.8707
# 5 9.1001 -0.8997 18.2997 0.0000 42.6782 0.0000
# 6 0.0000 0.0000 0.0000 -5.8707 0.0000 48.1468
#
#
#
# Elastic Compliance Matrix: (Units=1/GPa)
#
#
# Indices 1 2 3 4 5 6 
#
# 1 0.009948 -0.004436 -0.001287 0.000000 -0.001663 0.000000
# 2 -0.004436 0.016234 -0.007669 0.000000 0.004577 0.000000
# 3 -0.001287 -0.007669 0.025098 0.000000 -0.010649 0.000000
# 4 0.000000 0.000000 0.000000 -0.038469 0.000000 -0.004691
# 5 -0.001663 0.004577 -0.010649 0.000000 0.028448 0.000000
# 6 0.000000 0.000000 0.000000 -0.004691 0.000000 0.020198
#
#
# Mechanical properties :
#
#
# Convention : Reuss Voigt Hill
#
# Bulk Modulus (GPa) = 40.82391 50.57741 45.70066
# Shear Modulus (GPa) = 51.86349 24.73886 38.30117
#
# Velocity S-wave (km/s) = 4.84303 3.34485 4.16191
# Velocity P-wave (km/s) = 7.05235 6.14741 6.61537
#
# Compressibility (1/GPa) = 0.02449545
#
# Stress axis : x y z
#
# Youngs Moduli (GPa) = 100.52162 61.59750 39.84456
#
# Poissons Ratio (x) = 0.27327 0.05126
# Poissons Ratio (y) = 0.44595 0.30558
# Poissons Ratio (z) = 0.12933 0.47242
#
# Static dielectric constant tensor:
#      x y z
#    x 1.839300 0.000000 -0.010180 
#    y 0.000000 1.807960 0.000000 
#    z -0.010180 0.000000 1.838790 
# 
# From -- ./inp_files/174562.got.cif
#   From: 2010.05.17/outbox.cif.g08.bks.cpg/sg15_88_cif.got.tgz:174562.got - 2010.06.03 18:47:42.
