data_PCOD9301217
_publ_section_title
;
Structure prediction by ZEFSAII (Michael W. Deem and Ramdas Pophale) SiO2 
 PCOD9301217
Probable space group: C 2/C
;
_chemical_formula_sum "Si O2"
_cell_formula_units_Z 52
_cell_length_a 18.616383
_cell_length_b 18.096493
_cell_length_c 8.125235
_cell_angle_alpha 90.000000
_cell_angle_beta 67.395046
_cell_angle_gamma 90.000000
_cell_volume 2527.031319
_symmetry_space_group_name_H-M "C 2/C"
_symmetry_group_IT_number 15
_symmetry_cell_setting 'monoclinic'
loop_
_space_group_symop_operation_xyz
x,y,z
-x,y,1/2-z
-x,-y,-z
x,-y,1/2+z
1/2+x,1/2+y,z
1/2-x,1/2+y,1/2-z
1/2-x,1/2-y,-z
1/2+x,1/2-y,1/2+z
loop_
_atom_site_type_symbol
_atom_site_label
_atom_site_fract_x
_atom_site_fract_y
_atom_site_fract_z
Si Si1 0.336712 0.252997 0.002704
Si Si2 0.000000 0.680282 0.750000
Si Si3 0.323348 0.427400 0.491299
Si Si4 0.193905 0.685379 0.113383
Si Si5 0.957504 0.682106 0.455181
Si Si6 0.026987 0.143445 0.538042
Si Si7 0.874505 0.084386 0.567626
O O1 0.337012 0.214318 0.183307
O O2 0.348708 0.339927 0.010171
O O3 0.250000 0.250000 0.000000
O O4 0.414840 0.221317 0.844924
O O5 0.985626 0.638763 0.590438
O O6 0.240227 0.390884 0.595179
O O7 0.384906 0.382595 0.549412
O O8 0.339104 0.512528 0.515529
O O9 0.345110 0.414410 0.281863
O O10 0.131124 0.677970 0.023465
O O11 0.250000 0.750000 0.000000
O O12 0.978527 0.768337 0.479645
O O13 0.000000 0.661428 0.250000
O O14 0.000000 0.131877 0.750000
O O15 0.968491 0.092893 0.485507
#
# Coordination Sequence:
#
# PCOD9301217 Si02
#       7
#     8   4   8   8   8   8   8
#     4  12  26  42  67 104 139 176 239 296 346 420
#     4  12  24  40  68 106 134 174 224 298 354 420
#     4  11  24  37  62  91 133 188 221 273 343 417
#     4  12  21  42  67  92 135 185 232 287 345 409
#     4  11  20  39  63  93 132 167 227 284 343 398
#     4   9  17  36  58  83 130 179 216 259 327 413
#     4  11  23  41  56  95 139 179 224 274 345 423
#
# _framework density 20.577504999999999
#
# number of rings (size 3 to 8) (size 9 to 14) (size 15 to 20)
#    0.000    0.923    6.154    2.308    2.154    0.000 
#    4.154    0.000    0.000    0.000    2.000    3.231 
#    0.000    0.000    0.000    0.000    0.000    0.000 
#
# Total GULP energy -145050.392135 kJ/mol
# GULP energy per Si atom -5578.861236 kJ/mol
# Density = 2.053067 g / cm^3
# Si number density = 20.577505 Si / 1000 Ang^3
#
#
#
# Elastic Constant Matrix: (Units=GPa)
#
#
# Indices 1 2 3 4 5 6 
#
# 1 151.5002 18.6723 28.6853 0.0000 7.3011 0.0000
# 2 18.6723 26.1573 -9.5047 0.0000 -0.1147 0.0000
# 3 28.6853 -9.5047 95.3498 0.0000 5.1585 0.0000
# 4 0.0000 0.0000 0.0000 13.5868 0.0000 -0.9259
# 5 7.3011 -0.1147 5.1585 0.0000 30.2826 0.0000
# 6 0.0000 0.0000 0.0000 -0.9259 0.0000 29.8706
#
#
#
# Elastic Compliance Matrix: (Units=1/GPa)
#
#
# Indices 1 2 3 4 5 6 
#
# 1 0.008097 -0.006892 -0.003044 0.000000 -0.001460 0.000000
# 2 -0.006892 0.045542 0.006575 0.000000 0.000714 0.000000
# 3 -0.003044 0.006575 0.012130 0.000000 -0.001307 0.000000
# 4 0.000000 0.000000 0.000000 0.073756 0.000000 0.002286
# 5 -0.001460 0.000714 -0.001307 0.000000 0.033600 0.000000
# 6 0.000000 0.000000 0.000000 0.002286 0.000000 0.033549
#
#
# Mechanical properties :
#
#
# Convention : Reuss Voigt Hill
#
# Bulk Modulus (GPa) = 16.93608 38.74591 27.84099
# Shear Modulus (GPa) = 21.45198 30.42497 25.93847
#
# Velocity S-wave (km/s) = 3.23227 3.84937 3.55424
# Velocity P-wave (km/s) = 4.70939 6.21506 5.51386
#
# Compressibility (1/GPa) = 0.05904554
#
# Stress axis : x y z
#
# Youngs Moduli (GPa) = 123.50527 21.95753 82.44325
#
# Poissons Ratio (x) = 0.15134 0.25095
# Poissons Ratio (y) = 0.85124 -0.54204
# Poissons Ratio (z) = 0.37594 -0.14436
#
# Static dielectric constant tensor:
#      x y z
#    x 1.973160 0.000000 0.012930 
#    y 0.000000 1.698030 0.000000 
#    z 0.012930 0.000000 1.830550 
# 
# From -- ./inp_files/48479.got.cif
#   From: 2010.05.17/outbox.cif.g08.bks.cpg/sg15_25_cif.got.tgz:48479.got - 2010.06.03 18:47:42.
