data_PCOD9301797
_publ_section_title
;
Structure prediction by ZEFSAII (Michael W. Deem and Ramdas Pophale) SiO2 
 PCOD9301797
Probable space group: C 2/C
;
_chemical_formula_sum "Si O2"
_cell_formula_units_Z 40
_cell_length_a 25.790785
_cell_length_b 9.362364
_cell_length_c 13.998817
_cell_angle_alpha 90.000000
_cell_angle_beta 36.222324
_cell_angle_gamma 90.000000
_cell_volume 1997.423409
_symmetry_space_group_name_H-M "C 2/C"
_symmetry_group_IT_number 15
_symmetry_cell_setting 'monoclinic'
loop_
_space_group_symop_operation_xyz
x,y,z
-x,y,1/2-z
-x,-y,-z
x,-y,1/2+z
1/2+x,1/2+y,z
1/2-x,1/2+y,1/2-z
1/2-x,1/2-y,-z
1/2+x,1/2-y,1/2+z
loop_
_atom_site_type_symbol
_atom_site_label
_atom_site_fract_x
_atom_site_fract_y
_atom_site_fract_z
Si Si1 0.092750 0.963701 0.118250
Si Si2 0.094544 0.936287 0.830228
Si Si3 0.831453 0.144075 0.638096
Si Si4 0.274056 0.149915 0.374563
Si Si5 0.303467 0.829012 0.334760
O O1 0.000000 0.886241 0.250000
O O2 0.108898 0.014241 0.201094
O O3 0.179308 0.875718 0.965179
O O4 0.090289 0.099122 0.050294
O O5 0.110449 0.767035 0.810292
O O6 0.167152 0.010892 0.790135
O O7 0.000000 0.000000 0.000000
O O8 0.835627 0.275343 0.704627
O O9 0.752369 0.166240 0.681058
O O10 0.250000 0.250000 0.500000
O O11 0.312586 0.996098 0.346653
O O12 0.250000 0.750000 0.500000
#
# Coordination Sequence:
#
# PCOD9301797 Si02
#       5
#     8   8   8   8   8
#     4  11  22  40  68  96 128 175 223 266 340 398
#     4  12  23  41  69  97 131 175 228 277 337 410
#     4  11  22  39  65  96 132 170 222 283 331 401
#     4  11  22  39  66  98 133 171 227 278 330 406
#     4  11  21  39  64  96 129 175 224 270 337 404
#
# _framework density 20.0258
#
# number of rings (size 3 to 8) (size 9 to 14) (size 15 to 20)
#    0.000    0.800    8.000    2.400    0.000    0.000 
#    0.000    1.000    0.000    1.200    0.000    0.000 
#    0.000    0.000    0.000    0.000    0.000    0.000 
#
# Total GULP energy -111339.639156 kJ/mol
# GULP energy per Si atom -5566.981958 kJ/mol
# Density = 1.998022 g / cm^3
# Si number density = 20.025800 Si / 1000 Ang^3
#
#
#
# Elastic Constant Matrix: (Units=GPa)
#
#
# Indices 1 2 3 4 5 6 
#
# 1 98.7551 31.9309 22.0224 0.0000 28.1097 0.0000
# 2 31.9309 140.9145 44.1134 0.0000 13.4640 0.0000
# 3 22.0224 44.1134 82.7436 0.0000 17.5613 0.0000
# 4 0.0000 0.0000 0.0000 28.1529 0.0000 2.4786
# 5 28.1097 13.4640 17.5613 0.0000 51.6421 0.0000
# 6 0.0000 0.0000 0.0000 2.4786 0.0000 33.4207
#
#
#
# Elastic Compliance Matrix: (Units=1/GPa)
#
#
# Indices 1 2 3 4 5 6 
#
# 1 0.012722 -0.001976 -0.001047 0.000000 -0.006053 0.000000
# 2 -0.001976 0.008851 -0.004237 0.000000 0.000209 0.000000
# 3 -0.001047 -0.004237 0.015378 0.000000 -0.003554 0.000000
# 4 0.000000 0.000000 0.000000 0.035754 0.000000 -0.002652
# 5 -0.006053 0.000209 -0.003554 0.000000 0.023813 0.000000
# 6 0.000000 0.000000 0.000000 -0.002652 0.000000 0.030118
#
#
# Mechanical properties :
#
#
# Convention : Reuss Voigt Hill
#
# Bulk Modulus (GPa) = 44.58672 57.61629 51.10151
# Shear Modulus (GPa) = 33.63990 37.59957 35.61973
#
# Velocity S-wave (km/s) = 4.10302 4.33778 4.22203
# Velocity P-wave (km/s) = 6.69024 7.34315 7.02429
#
# Compressibility (1/GPa) = 0.02242820
#
# Stress axis : x y z
#
# Youngs Moduli (GPa) = 78.60611 112.98451 65.02970
#
# Poissons Ratio (x) = 0.22330 0.06812
# Poissons Ratio (y) = 0.15536 0.27553
# Poissons Ratio (z) = 0.08234 0.47871
#
# Static dielectric constant tensor:
#      x y z
#    x 1.761930 0.000000 -0.002430 
#    y 0.000000 1.760160 0.000000 
#    z -0.002430 0.000000 1.772480 
# 
# From -- ./inp_files/176061.got.cif
#   From: 2010.05.17/outbox.cif.g08.bks.cpg/sg15_89_cif.got.tgz:176061.got - 2010.06.03 18:47:42.
