data_PCOD9301272
_publ_section_title
;
Structure prediction by ZEFSAII (Michael W. Deem and Ramdas Pophale) SiO2 
 PCOD9301272
Probable space group: C 2/C
;
_chemical_formula_sum "Si O2"
_cell_formula_units_Z 64
_cell_length_a 13.515373
_cell_length_b 26.720672
_cell_length_c 14.066904
_cell_angle_alpha 90.000000
_cell_angle_beta 137.393984
_cell_angle_gamma 90.000000
_cell_volume 3439.003491
_symmetry_space_group_name_H-M "C 2/C"
_symmetry_group_IT_number 15
_symmetry_cell_setting 'monoclinic'
loop_
_space_group_symop_operation_xyz
x,y,z
-x,y,1/2-z
-x,-y,-z
x,-y,1/2+z
1/2+x,1/2+y,z
1/2-x,1/2+y,1/2-z
1/2-x,1/2-y,-z
1/2+x,1/2-y,1/2+z
loop_
_atom_site_type_symbol
_atom_site_label
_atom_site_fract_x
_atom_site_fract_y
_atom_site_fract_z
Si Si1 0.603351 0.327304 0.743494
Si Si2 0.293495 0.250221 0.284944
Si Si3 0.877149 0.771573 0.023975
Si Si4 0.543505 0.386923 0.389894
Si Si5 0.149516 0.145922 0.584485
Si Si6 0.670635 0.943331 0.377675
Si Si7 0.656233 0.527439 0.102940
Si Si8 0.342068 0.559419 0.179455
O O1 0.500000 0.302127 0.750000
O O2 0.745062 0.295151 0.818199
O O3 0.496648 0.340275 0.578992
O O4 0.652020 0.380535 0.818201
O O5 0.456363 0.250849 0.354413
O O6 0.280240 0.301984 0.333132
O O7 0.177914 0.243752 0.119017
O O8 0.887946 0.831029 0.053545
O O9 0.750000 0.750000 0.000000
O O10 0.500000 0.398070 0.250000
O O11 0.399819 0.382033 0.354141
O O12 0.639861 0.428127 0.513559
O O13 0.246111 0.107496 0.593693
O O14 0.500000 0.936110 0.250000
O O15 0.721533 0.957678 0.519734
O O16 0.726685 0.987475 0.349375
O O17 0.683899 0.545516 0.229827
O O18 0.500000 0.500000 0.000000
O O19 0.500000 0.541652 0.250000
#
# Coordination Sequence:
#
# PCOD9301272 Si02
#       8
#     8   8   8   8   8   8   8   8
#     4  11  20  40  66  92 124 176 228 266 316 398
#     4  11  22  37  64  93 130 170 229 271 316 400
#     4  11  22  42  62  96 135 180 218 275 344 391
#     4  11  22  39  69 100 126 170 236 276 323 411
#     4  11  21  43  61  95 134 172 220 272 329 405
#     4  12  27  43  64 102 139 167 216 286 351 392
#     4  12  22  40  72  96 122 172 233 277 327 403
#     4  11  20  42  70  91 125 180 218 264 335 403
#
# _framework density 18.610040999999999
#
# number of rings (size 3 to 8) (size 9 to 14) (size 15 to 20)
#    0.000    0.750    8.750    1.875    1.750    2.500 
#    0.000    2.500    0.000    0.000    0.000    0.000 
#    0.000    0.000    0.000    0.000    0.000    0.000 
#
# Total GULP energy -178498.406444 kJ/mol
# GULP energy per Si atom -5578.075201 kJ/mol
# Density = 1.856768 g / cm^3
# Si number density = 18.610041 Si / 1000 Ang^3
#
#
#
# Elastic Constant Matrix: (Units=GPa)
#
#
# Indices 1 2 3 4 5 6 
#
# 1 106.5084 56.2543 48.7110 0.0000 -6.4065 0.0000
# 2 56.2543 88.6044 34.0664 0.0000 6.8033 0.0000
# 3 48.7110 34.0664 106.3858 0.0000 -12.4724 0.0000
# 4 0.0000 0.0000 0.0000 16.3354 0.0000 -4.0859
# 5 -6.4065 6.8033 -12.4724 0.0000 41.7311 0.0000
# 6 0.0000 0.0000 0.0000 -4.0859 0.0000 28.6555
#
#
#
# Elastic Compliance Matrix: (Units=1/GPa)
#
#
# Indices 1 2 3 4 5 6 
#
# 1 0.016157 -0.008822 -0.004263 0.000000 0.002645 0.000000
# 2 -0.008822 0.018186 -0.002374 0.000000 -0.005029 0.000000
# 3 -0.004263 -0.002374 0.012519 0.000000 0.003474 0.000000
# 4 0.000000 0.000000 0.000000 0.063481 0.000000 0.009052
# 5 0.002645 -0.005029 0.003474 0.000000 0.026227 0.000000
# 6 0.000000 0.000000 0.000000 0.009052 0.000000 0.036188
#
#
# Mechanical properties :
#
#
# Convention : Reuss Voigt Hill
#
# Bulk Modulus (GPa) = 62.71593 64.39577 63.55585
# Shear Modulus (GPa) = 23.92460 28.17553 26.05006
#
# Velocity S-wave (km/s) = 3.58938 3.89523 3.74543
# Velocity P-wave (km/s) = 7.13803 7.41001 7.27529
#
# Compressibility (1/GPa) = 0.01594491
#
# Stress axis : x y z
#
# Youngs Moduli (GPa) = 61.89197 54.98749 79.87894
#
# Poissons Ratio (x) = 0.48511 0.34051
# Poissons Ratio (y) = 0.54602 0.18960
# Poissons Ratio (z) = 0.26384 0.13052
#
# Static dielectric constant tensor:
#      x y z
#    x 1.674650 0.000000 -0.053910 
#    y 0.000000 1.668290 0.000000 
#    z -0.053910 0.000000 1.661670 
# 
# From -- ./inp_files/156823.got.cif
#   From: 2010.05.17/outbox.cif.g08.bks.cpg/sg15_79_cif.got.tgz:156823.got - 2010.06.03 18:47:42.
