data_PCOD9301383
_publ_section_title
;
Structure prediction by ZEFSAII (Michael W. Deem and Ramdas Pophale) SiO2 
 PCOD9301383
Probable space group: C 2/C
;
_chemical_formula_sum "Si O2"
_cell_formula_units_Z 40
_cell_length_a 13.812966
_cell_length_b 18.660052
_cell_length_c 10.101648
_cell_angle_alpha 90.000000
_cell_angle_beta 45.930799
_cell_angle_gamma 90.000000
_cell_volume 1870.763827
_symmetry_space_group_name_H-M "C 2/C"
_symmetry_group_IT_number 15
_symmetry_cell_setting 'monoclinic'
loop_
_space_group_symop_operation_xyz
x,y,z
-x,y,1/2-z
-x,-y,-z
x,-y,1/2+z
1/2+x,1/2+y,z
1/2-x,1/2+y,1/2-z
1/2-x,1/2-y,-z
1/2+x,1/2-y,1/2+z
loop_
_atom_site_type_symbol
_atom_site_label
_atom_site_fract_x
_atom_site_fract_y
_atom_site_fract_z
Si Si1 0.223837 0.545608 0.093722
Si Si2 0.000000 0.661992 0.250000
Si Si3 0.940471 0.221118 0.022417
Si Si4 0.823922 0.713130 0.055298
Si Si5 0.120071 0.453678 0.960455
Si Si6 0.000000 0.103994 0.750000
O O1 0.235757 0.532990 0.239187
O O2 0.123602 0.613461 0.179355
O O3 0.151210 0.486972 0.072900
O O4 0.364714 0.559215 0.889365
O O5 0.053925 0.711293 0.081333
O O6 0.050349 0.236780 0.029233
O O7 0.990275 0.154841 0.887377
O O8 0.792165 0.212850 0.221970
O O9 0.883673 0.631610 0.003198
O O10 0.750000 0.750000 0.000000
O O11 0.000000 0.500000 0.000000
#
# Coordination Sequence:
#
# PCOD9301383 Si02
#       6
#     8   4   8   8   8   4
#     4  12  24  44  70 103 141 189 247 296 362 440
#     4  11  20  42  76 102 133 192 248 294 353 446
#     4  11  22  43  72 103 143 182 240 296 371 444
#     4  12  26  45  70 109 146 186 236 306 377 435
#     4  12  25  47  72 103 145 196 248 294 364 455
#     4  11  24  42  70 100 137 184 232 308 363 432
#
# _framework density 21.381640000000001
#
# number of rings (size 3 to 8) (size 9 to 14) (size 15 to 20)
#    0.000    0.400    6.000    1.800    0.000   10.400 
#    3.600    0.000    0.000    0.000    0.000    0.000 
#    0.000    0.000    0.000    0.000    0.000    0.000 
#
# Total GULP energy -111640.388943 kJ/mol
# GULP energy per Si atom -5582.019447 kJ/mol
# Density = 2.133297 g / cm^3
# Si number density = 21.381640 Si / 1000 Ang^3
#
#
#
# Elastic Constant Matrix: (Units=GPa)
#
#
# Indices 1 2 3 4 5 6 
#
# 1 81.9046 45.3131 -5.5641 -0.0001 4.1372 0.0000
# 2 45.3131 80.9570 21.3551 -0.0001 -8.2592 0.0000
# 3 -5.5641 21.3551 105.5445 0.0000 -16.6424 0.0000
# 4 -0.0001 -0.0001 0.0000 13.5280 0.0001 -4.9661
# 5 4.1372 -8.2592 -16.6424 0.0001 45.0767 0.0000
# 6 0.0000 0.0000 0.0000 -4.9661 0.0000 23.1202
#
#
#
# Elastic Compliance Matrix: (Units=1/GPa)
#
#
# Indices 1 2 3 4 5 6 
#
# 1 0.019029 -0.011710 0.002929 0.000000 -0.002811 0.000000
# 2 -0.011710 0.020352 -0.004224 0.000000 0.003244 0.000000
# 3 0.002929 -0.004224 0.010957 0.000000 0.003003 0.000000
# 4 0.000000 0.000000 0.000000 0.080248 0.000000 0.017237
# 5 -0.002811 0.003244 0.003003 0.000000 0.024145 0.000000
# 6 0.000000 0.000000 0.000000 0.017237 0.000000 0.046955
#
#
# Mechanical properties :
#
#
# Convention : Reuss Voigt Hill
#
# Bulk Modulus (GPa) = 41.10351 43.40159 42.25255
# Shear Modulus (GPa) = 21.20397 30.16511 25.68454
#
# Velocity S-wave (km/s) = 3.15253 3.76013 3.46965
# Velocity P-wave (km/s) = 5.70234 6.26051 5.98794
#
# Compressibility (1/GPa) = 0.02432882
#
# Stress axis : x y z
#
# Youngs Moduli (GPa) = 52.55158 49.13570 91.26465
#
# Poissons Ratio (x) = 0.57539 -0.26735
# Poissons Ratio (y) = 0.61539 0.38547
# Poissons Ratio (z) = -0.15394 0.20753
#
# Static dielectric constant tensor:
#      x y z
#    x 1.804870 0.000000 0.024630 
#    y 0.000000 1.803030 0.000000 
#    z 0.024630 0.000000 1.781480 
# 
# From -- ./inp_files/98124.got.cif
#   From: 2010.05.17/outbox.cif.g08.bks.cpg/sg15_50_cif.got.tgz:98124.got - 2010.06.03 18:47:42.
