data_PCOD9301920
_publ_section_title
;
Structure prediction by ZEFSAII (Michael W. Deem and Ramdas Pophale) SiO2 
 PCOD9301920
Probable space group: C 2/C
;
_chemical_formula_sum "Si O2"
_cell_formula_units_Z 44
_cell_length_a 8.175400
_cell_length_b 12.734216
_cell_length_c 19.405832
_cell_angle_alpha 90.000000
_cell_angle_beta 116.584523
_cell_angle_gamma 90.000000
_cell_volume 1806.694221
_symmetry_space_group_name_H-M "C 2/C"
_symmetry_group_IT_number 15
_symmetry_cell_setting 'monoclinic'
loop_
_space_group_symop_operation_xyz
x,y,z
-x,y,1/2-z
-x,-y,-z
x,-y,1/2+z
1/2+x,1/2+y,z
1/2-x,1/2+y,1/2-z
1/2-x,1/2-y,-z
1/2+x,1/2-y,1/2+z
loop_
_atom_site_type_symbol
_atom_site_label
_atom_site_fract_x
_atom_site_fract_y
_atom_site_fract_z
Si Si1 0.802202 0.926122 0.395316
Si Si2 0.793814 0.232273 0.691867
Si Si3 0.500000 0.186044 0.750000
Si Si4 0.910641 0.225341 0.476266
Si Si5 0.343751 0.076170 0.492827
Si Si6 0.577685 0.501097 0.334894
O O1 0.619200 0.878750 0.328033
O O2 0.743368 0.977829 0.456208
O O3 0.952133 0.847424 0.455649
O O4 0.908647 0.977830 0.352892
O O5 0.660620 0.235671 0.732698
O O6 0.700997 0.300256 0.614204
O O7 0.823734 0.110956 0.667834
O O8 0.000000 0.266166 0.750000
O O9 0.750000 0.250000 0.500000
O O10 0.053237 0.314790 0.476871
O O11 0.500000 0.000000 0.500000
O O12 0.204607 0.077666 0.402960
O O13 0.500000 0.546648 0.250000
#
# Coordination Sequence:
#
# PCOD9301920 Si02
#       6
#     8   8   4   8   8   8
#     4  12  24  41  72  98 132 183 227 274 342 410
#     4  11  21  40  66  97 129 175 227 273 329 412
#     4  12  20  38  68  98 126 182 226 266 334 406
#     4  12  23  42  66 100 135 175 226 281 336 400
#     4  12  24  42  65 100 132 175 225 279 336 401
#     4  11  22  44  68  97 133 173 224 278 333 412
#
# _framework density 24.353870000000001
#
# number of rings (size 3 to 8) (size 9 to 14) (size 15 to 20)
#    0.000    0.364    9.091    1.091    0.000    0.000 
#    1.636    1.818    0.000    2.182    0.000    0.000 
#    0.000    0.000    0.000    0.000    0.000    0.000 
#
# Total GULP energy -122951.233888 kJ/mol
# GULP energy per Si atom -5588.692449 kJ/mol
# Density = 2.429844 g / cm^3
# Si number density = 24.353870 Si / 1000 Ang^3
#
#
#
# Elastic Constant Matrix: (Units=GPa)
#
#
# Indices 1 2 3 4 5 6 
#
# 1 180.0044 35.8726 60.0040 0.0000 -0.9864 0.0000
# 2 35.8726 33.6582 24.6204 0.0000 -1.2135 0.0000
# 3 60.0040 24.6204 221.3646 0.0000 18.8748 0.0000
# 4 0.0000 0.0000 0.0000 18.0650 0.0000 -4.8747
# 5 -0.9864 -1.2135 18.8748 0.0000 66.0378 0.0000
# 6 0.0000 0.0000 0.0000 -4.8747 0.0000 23.4673
#
#
#
# Elastic Compliance Matrix: (Units=1/GPa)
#
#
# Indices 1 2 3 4 5 6 
#
# 1 0.007351 -0.006906 -0.001254 0.000000 0.000341 0.000000
# 2 -0.006906 0.039008 -0.002582 0.000000 0.001352 0.000000
# 3 -0.001254 -0.002582 0.005279 0.000000 -0.001575 0.000000
# 4 0.000000 0.000000 0.000000 0.058643 0.000000 0.012182
# 5 0.000341 0.001352 -0.001575 0.000000 0.015623 0.000000
# 6 0.000000 0.000000 0.000000 0.012182 0.000000 0.045143
#
#
# Mechanical properties :
#
#
# Convention : Reuss Voigt Hill
#
# Bulk Modulus (GPa) = 33.16156 75.11346 54.13751
# Shear Modulus (GPa) = 24.68149 42.48270 33.58210
#
# Velocity S-wave (km/s) = 3.18693 4.18112 3.71741
# Velocity P-wave (km/s) = 5.21423 7.36332 6.37992
#
# Compressibility (1/GPa) = 0.03015539
#
# Stress axis : x y z
#
# Youngs Moduli (GPa) = 136.02763 25.63588 189.43978
#
# Poissons Ratio (x) = 0.17703 0.23751
# Poissons Ratio (y) = 0.93937 0.48910
# Poissons Ratio (z) = 0.17054 0.06619
#
# Static dielectric constant tensor:
#      x y z
#    x 1.854750 0.000000 0.003560 
#    y 0.000000 2.016060 0.000000 
#    z 0.003560 0.000000 1.910390 
# 
# From -- ./inp_files/189353.got.cif
#   From: 2010.05.17/outbox.cif.g08.bks.cpg/sg15_95_cif.got.tgz:189353.got - 2010.06.03 18:47:42.
