data_PCOD9301150
_publ_section_title
;
Structure prediction by ZEFSAII (Michael W. Deem and Ramdas Pophale) SiO2 
 PCOD9301150
Probable space group: C 2/C
;
_chemical_formula_sum "Si O2"
_cell_formula_units_Z 64
_cell_length_a 18.588667
_cell_length_b 13.435620
_cell_length_c 15.469618
_cell_angle_alpha 90.000000
_cell_angle_beta 53.015004
_cell_angle_gamma 90.000000
_cell_volume 3086.169983
_symmetry_space_group_name_H-M "C 2/C"
_symmetry_group_IT_number 15
_symmetry_cell_setting 'monoclinic'
loop_
_space_group_symop_operation_xyz
x,y,z
-x,y,1/2-z
-x,-y,-z
x,-y,1/2+z
1/2+x,1/2+y,z
1/2-x,1/2+y,1/2-z
1/2-x,1/2-y,-z
1/2+x,1/2-y,1/2+z
loop_
_atom_site_type_symbol
_atom_site_label
_atom_site_fract_x
_atom_site_fract_y
_atom_site_fract_z
Si Si1 0.369095 0.879290 0.930946
Si Si2 0.338511 0.352353 0.717150
Si Si3 0.014477 0.187851 0.995100
Si Si4 0.208359 0.552855 0.193085
Si Si5 0.782867 0.157917 0.678133
Si Si6 0.572158 0.339158 0.121840
Si Si7 0.202110 0.946747 0.152390
Si Si8 0.532159 0.910677 0.918222
O O1 0.369343 0.759877 0.937855
O O2 0.470798 0.911295 0.877029
O O3 0.332584 0.910522 0.865507
O O4 0.303917 0.931671 0.046948
O O5 0.443625 0.334777 0.621988
O O6 0.298030 0.389390 0.654729
O O7 0.280562 0.254629 0.782707
O O8 0.320655 0.444335 0.794472
O O9 0.980596 0.137192 0.929020
O O10 0.012376 0.305637 0.977086
O O11 0.118918 0.164329 0.936581
O O12 0.229413 0.436542 0.180163
O O13 0.135678 0.579034 0.319093
O O14 0.805663 0.131298 0.762169
O O15 0.500000 0.314569 0.250000
O O16 0.636952 0.419590 0.119675
O O17 0.500000 0.000000 0.000000
#
# Coordination Sequence:
#
# PCOD9301150 Si02
#       8
#     8   8   8   8   8   8   8   8
#     4  11  22  37  62  97 123 163 205 267 327 367
#     4  11  23  41  63  90 129 169 217 257 314 385
#     4  11  22  39  66  93 128 167 206 268 321 374
#     4  11  22  38  62  93 130 164 209 264 312 389
#     4  11  22  41  62  92 129 165 214 257 316 382
#     4  11  20  38  62  94 128 158 206 269 323 377
#     4  11  23  39  62  90 128 165 209 263 315 382
#     4  11  21  39  66  95 124 162 214 267 321 376
#
# _framework density 20.737680000000001
#
# number of rings (size 3 to 8) (size 9 to 14) (size 15 to 20)
#    0.000    1.000    2.500    7.500    0.000    2.000 
#    2.250    0.625    0.000    1.500    0.000    0.000 
#    0.000    0.000    0.000    0.000    0.000    0.000 
#
# Total GULP energy -178879.752911 kJ/mol
# GULP energy per Si atom -5589.992278 kJ/mol
# Density = 2.069048 g / cm^3
# Si number density = 20.737680 Si / 1000 Ang^3
#
#
#
# Elastic Constant Matrix: (Units=GPa)
#
#
# Indices 1 2 3 4 5 6 
#
# 1 37.2575 25.8593 4.5273 0.0000 2.7068 0.0000
# 2 25.8593 93.5806 23.1648 0.0000 -9.3303 0.0000
# 3 4.5273 23.1648 99.9332 0.0000 -39.3367 0.0000
# 4 0.0000 0.0000 0.0000 -79.0362 0.0000 6.4179
# 5 2.7068 -9.3303 -39.3367 0.0000 26.6534 0.0000
# 6 0.0000 0.0000 0.0000 6.4179 0.0000 31.4446
#
#
#
# Elastic Compliance Matrix: (Units=1/GPa)
#
#
# Indices 1 2 3 4 5 6 
#
# 1 0.035433 -0.010000 -0.004967 0.000000 -0.014430 0.000000
# 2 -0.010000 0.014159 -0.001141 0.000000 0.004288 0.000000
# 3 -0.004967 -0.001141 0.025146 0.000000 0.037217 0.000000
# 4 0.000000 0.000000 0.000000 -0.012446 0.000000 0.002540
# 5 -0.014430 0.004288 0.037217 0.000000 0.095411 0.000000
# 6 0.000000 0.000000 0.000000 0.002540 0.000000 0.031283
#
#
# Mechanical properties :
#
#
# Convention : Reuss Voigt Hill
#
# Bulk Modulus (GPa) = 23.51814 37.54157 30.52985
# Shear Modulus (GPa) = 21.24235 7.62704 14.43469
#
# Velocity S-wave (km/s) = 3.20400 1.91986 2.64116
# Velocity P-wave (km/s) = 5.00528 4.80175 4.90457
#
# Compressibility (1/GPa) = 0.04252038
#
# Stress axis : x y z
#
# Youngs Moduli (GPa) = 28.22208 70.62416 39.76801
#
# Poissons Ratio (x) = 0.70628 0.19754
# Poissons Ratio (y) = 0.28223 0.04539
# Poissons Ratio (z) = 0.14019 0.08061
#
# Static dielectric constant tensor:
#      x y z
#    x 1.750810 0.000000 -0.013930 
#    y 0.000000 1.721640 0.000000 
#    z -0.013930 0.000000 1.774710 
# 
# From -- ./inp_files/215041.got.cif
#   From: 2010.05.17/outbox.cif.g08.bks.cpg/sg15_108_cif.got.tgz:215041.got - 2010.06.03 18:47:42.
