data_PCOD9301045
_publ_section_title
;
Structure prediction by ZEFSAII (Michael W. Deem and Ramdas Pophale) SiO2 
 PCOD9301045
Probable space group: C 2/C
;
_chemical_formula_sum "Si O2"
_cell_formula_units_Z 40
_cell_length_a 16.864445
_cell_length_b 17.024626
_cell_length_c 11.856439
_cell_angle_alpha 90.000000
_cell_angle_beta 148.137038
_cell_angle_gamma 90.000000
_cell_volume 1796.994972
_symmetry_space_group_name_H-M "C 2/C"
_symmetry_group_IT_number 15
_symmetry_cell_setting 'monoclinic'
loop_
_space_group_symop_operation_xyz
x,y,z
-x,y,1/2-z
-x,-y,-z
x,-y,1/2+z
1/2+x,1/2+y,z
1/2-x,1/2+y,1/2-z
1/2-x,1/2-y,-z
1/2+x,1/2-y,1/2+z
loop_
_atom_site_type_symbol
_atom_site_label
_atom_site_fract_x
_atom_site_fract_y
_atom_site_fract_z
Si Si1 0.889945 0.937090 0.020984
Si Si2 0.267650 0.663761 0.073713
Si Si3 0.379142 0.847127 0.853903
Si Si4 0.438443 0.329401 0.443441
Si Si5 0.311359 0.916514 0.246632
O O1 0.760407 0.872956 0.892624
O O2 0.787341 0.006505 0.846780
O O3 0.000000 0.968144 0.250000
O O4 0.002959 0.891732 0.075690
O O5 0.183065 0.655764 0.091710
O O6 0.443727 0.657685 0.313039
O O7 0.250000 0.750000 0.000000
O O8 0.207250 0.602572 0.908831
O O9 0.441402 0.760162 0.905761
O O10 0.515157 0.908852 0.011965
O O11 0.274027 0.348015 0.289157
#
# Coordination Sequence:
#
# PCOD9301045 Si02
#       5
#     8   8   8   8   8
#     4  11  26  45  60  87 132 183 222 261 326 383
#     4  11  20  36  66 102 134 156 205 265 339 393
#     4  11  23  41  67  99 127 166 221 276 317 394
#     4  11  22  40  66  94 129 172 217 270 322 389
#     4  12  22  38  66  99 136 163 211 270 336 391
#
# _framework density 22.259385000000002
#
# number of rings (size 3 to 8) (size 9 to 14) (size 15 to 20)
#    0.000    0.800    4.000    4.800    0.000    2.400 
#    0.000    3.000    0.000    0.000    0.000    0.000 
#    0.000    0.000    0.000    0.000    0.000    0.000 
#
# Total GULP energy -111743.384183 kJ/mol
# GULP energy per Si atom -5587.169209 kJ/mol
# Density = 2.220872 g / cm^3
# Si number density = 22.259385 Si / 1000 Ang^3
#
#
#
# Elastic Constant Matrix: (Units=GPa)
#
#
# Indices 1 2 3 4 5 6 
#
# 1 46.9603 32.0069 22.8234 0.0000 39.5974 0.0000
# 2 32.0069 90.1290 0.9304 0.0000 2.1229 0.0000
# 3 22.8234 0.9304 100.6591 0.0000 32.4841 0.0000
# 4 0.0000 0.0000 0.0000 27.4323 0.0000 9.9446
# 5 39.5974 2.1229 32.4841 0.0000 24.0350 0.0000
# 6 0.0000 0.0000 0.0000 9.9446 0.0000 34.3134
#
#
#
# Elastic Compliance Matrix: (Units=1/GPa)
#
#
# Indices 1 2 3 4 5 6 
#
# 1 -0.023113 0.007062 -0.012258 0.000000 0.054022 0.000000
# 2 0.007062 0.008969 0.004126 0.000000 -0.018003 0.000000
# 3 -0.012258 0.004126 0.011131 0.000000 0.004787 0.000000
# 4 0.000000 0.000000 0.000000 0.040733 0.000000 -0.011805
# 5 0.054022 -0.018003 0.004787 0.000000 -0.052275 0.000000
# 6 0.000000 0.000000 0.000000 -0.011805 0.000000 0.032564
#
#
# Mechanical properties :
#
#
# Convention : Reuss Voigt Hill
#
# Bulk Modulus (GPa) = -193.99976 38.80775 -77.59600
# Shear Modulus (GPa) = 271.24937 29.28865 150.26901
#
# Velocity S-wave (km/s) = 11.05093 3.63132 8.22525
# Velocity P-wave (km/s) = 8.68834 5.92065 7.43443
#
# Compressibility (1/GPa) = -0.00515465
#
# Stress axis : x y z
#
# Youngs Moduli (GPa) = -43.26629 111.49776 89.83996
#
# Poissons Ratio (x) = -0.78739 1.10129
# Poissons Ratio (y) = 0.30554 -0.37064
# Poissons Ratio (z) = -0.53037 -0.45999
#
# Static dielectric constant tensor:
#      x y z
#    x 1.828990 0.000000 -0.034380 
#    y 0.000000 1.998760 0.000000 
#    z -0.034380 0.000000 1.856230 
# 
# From -- ./inp_files/37875.got.cif
#   From: 2010.05.17/outbox.cif.g08.bks.cpg/sg15_19_cif.got.tgz:37875.got - 2010.06.03 18:47:42.
