data_PCOD9301377
_publ_section_title
;
Structure prediction by ZEFSAII (Michael W. Deem and Ramdas Pophale) SiO2 
 PCOD9301377
Probable space group: C 2/C
;
_chemical_formula_sum "Si O2"
_cell_formula_units_Z 48
_cell_length_a 13.355371
_cell_length_b 6.908776
_cell_length_c 18.976582
_cell_angle_alpha 90.000000
_cell_angle_beta 95.852723
_cell_angle_gamma 90.000000
_cell_volume 1741.828094
_symmetry_space_group_name_H-M "C 2/C"
_symmetry_group_IT_number 15
_symmetry_cell_setting 'monoclinic'
loop_
_space_group_symop_operation_xyz
x,y,z
-x,y,1/2-z
-x,-y,-z
x,-y,1/2+z
1/2+x,1/2+y,z
1/2-x,1/2+y,1/2-z
1/2-x,1/2-y,-z
1/2+x,1/2-y,1/2+z
loop_
_atom_site_type_symbol
_atom_site_label
_atom_site_fract_x
_atom_site_fract_y
_atom_site_fract_z
Si Si1 0.388220 0.568850 0.223276
Si Si2 0.339789 0.116119 0.404525
Si Si3 0.118596 0.470158 0.756883
Si Si4 0.635944 0.505274 0.439902
Si Si5 0.295850 0.464147 0.857331
Si Si6 0.953183 0.716723 0.958141
O O1 0.500000 0.519486 0.250000
O O2 0.376712 0.799038 0.229368
O O3 0.371930 0.503729 0.144189
O O4 0.325252 0.474997 0.280315
O O5 0.340798 0.071896 0.319861
O O6 0.440605 0.010947 0.439857
O O7 0.256063 0.028763 0.452028
O O8 0.316023 0.345067 0.404906
O O9 0.183374 0.395015 0.829523
O O10 0.000000 0.416744 0.750000
O O11 0.593671 0.317911 0.476098
O O12 0.562167 0.684888 0.454765
O O13 0.375326 0.309384 0.892904
#
# Coordination Sequence:
#
# PCOD9301377 Si02
#       6
#     8   8   8   8   8   8
#     4  11  20  42  72  98 133 180 231 293 351 418
#     4  12  25  43  70 104 138 184 238 291 363 431
#     4  11  22  41  69 100 140 183 234 305 359 426
#     4  11  23  46  76  97 143 197 233 290 376 427
#     4  12  23  41  72 102 137 182 238 300 358 426
#     4  11  26  48  70 101 146 191 235 300 357 439
#
# _framework density 27.557251999999998
#
# number of rings (size 3 to 8) (size 9 to 14) (size 15 to 20)
#    0.000    0.667    6.667    1.500    0.000    1.333 
#    3.000    3.333    0.000    0.000    0.000    0.000 
#    0.000    0.000    0.000    0.000    0.000    0.000 
#
# Total GULP energy -134301.852329 kJ/mol
# GULP energy per Si atom -5595.910514 kJ/mol
# Density = 2.749453 g / cm^3
# Si number density = 27.557252 Si / 1000 Ang^3
#
#
#
# Elastic Constant Matrix: (Units=GPa)
#
#
# Indices 1 2 3 4 5 6 
#
# 1 137.3392 9.6586 25.4732 0.0000 1.1193 0.0000
# 2 9.6586 128.8288 12.4239 0.0000 -23.7400 0.0000
# 3 25.4732 12.4239 129.5899 0.0000 -19.0991 0.0000
# 4 0.0000 0.0000 0.0000 32.5785 0.0000 -4.0808
# 5 1.1193 -23.7400 -19.0991 0.0000 49.8077 0.0000
# 6 0.0000 0.0000 0.0000 -4.0808 0.0000 16.8907
#
#
#
# Elastic Compliance Matrix: (Units=1/GPa)
#
#
# Indices 1 2 3 4 5 6 
#
# 1 0.007630 -0.000617 -0.001600 0.000000 -0.001079 0.000000
# 2 -0.000617 0.008566 -0.000102 0.000000 0.004058 0.000000
# 3 -0.001600 -0.000102 0.008521 0.000000 0.003255 0.000000
# 4 0.000000 0.000000 0.000000 0.031653 0.000000 0.007647
# 5 -0.001079 0.004058 0.003255 0.000000 0.023283 0.000000
# 6 0.000000 0.000000 0.000000 0.007647 0.000000 0.061052
#
#
# Mechanical properties :
#
#
# Convention : Reuss Voigt Hill
#
# Bulk Modulus (GPa) = 49.80061 54.54102 52.17082
# Shear Modulus (GPa) = 32.88720 43.06886 37.97803
#
# Velocity S-wave (km/s) = 3.45833 3.95762 3.71637
# Velocity P-wave (km/s) = 5.83589 6.38111 6.11458
#
# Compressibility (1/GPa) = 0.02008007
#
# Stress axis : x y z
#
# Youngs Moduli (GPa) = 131.05979 116.74034 117.36335
#
# Poissons Ratio (x) = 0.07198 0.18775
# Poissons Ratio (y) = 0.08081 0.01197
# Poissons Ratio (z) = 0.20966 0.01191
#
# Static dielectric constant tensor:
#      x y z
#    x 2.301080 0.000000 0.090620 
#    y 0.000000 2.195460 0.000000 
#    z 0.090620 0.000000 2.103800 
# 
# From -- ./inp_files/241988.got.cif
#   From: 2010.05.17/outbox.cif.g08.bks.cpg/sg15_121_cif.got.tgz:241988.got - 2010.06.03 18:47:42.
