data_PCOD9301877
_publ_section_title
;
Structure prediction by ZEFSAII (Michael W. Deem and Ramdas Pophale) SiO2 
 PCOD9301877
Probable space group: C 2/C
;
_chemical_formula_sum "Si O2"
_cell_formula_units_Z 60
_cell_length_a 26.716190
_cell_length_b 14.897680
_cell_length_c 8.092285
_cell_angle_alpha 90.000000
_cell_angle_beta 109.624948
_cell_angle_gamma 90.000000
_cell_volume 3033.711944
_symmetry_space_group_name_H-M "C 2/C"
_symmetry_group_IT_number 15
_symmetry_cell_setting 'monoclinic'
loop_
_space_group_symop_operation_xyz
x,y,z
-x,y,1/2-z
-x,-y,-z
x,-y,1/2+z
1/2+x,1/2+y,z
1/2-x,1/2+y,1/2-z
1/2-x,1/2-y,-z
1/2+x,1/2-y,1/2+z
loop_
_atom_site_type_symbol
_atom_site_label
_atom_site_fract_x
_atom_site_fract_y
_atom_site_fract_z
Si Si1 0.213833 0.111131 0.574483
Si Si2 0.196281 0.266225 0.153453
Si Si3 0.880170 0.775680 0.626365
Si Si4 0.500000 0.233392 0.750000
Si Si5 0.618795 0.905929 0.924516
Si Si6 0.487977 0.897868 0.541384
Si Si7 0.258612 0.414709 0.778916
Si Si8 0.637508 0.094935 0.093984
O O1 0.254243 0.181037 0.707246
O O2 0.153663 0.147716 0.505305
O O3 0.233017 0.104234 0.406088
O O4 0.217916 0.011366 0.651812
O O5 0.151472 0.236754 0.237060
O O6 0.166675 0.337099 0.005277
O O7 0.217067 0.172114 0.102050
O O8 0.943950 0.786254 0.707971
O O9 0.868766 0.684424 0.515040
O O10 0.493615 0.169976 0.581119
O O11 0.630270 0.010056 0.968941
O O12 0.575839 0.885150 0.017871
O O13 0.600290 0.900303 0.713901
O O14 0.500000 0.883719 0.750000
O O15 0.500000 0.000000 0.500000
O O16 0.195903 0.418272 0.733648
#
# Coordination Sequence:
#
# PCOD9301877 Si02
#       8
#     8   8   8   4   8   8   8   8
#     4  11  22  40  62  88 127 156 203 258 303 380
#     4  11  21  40  60  87 125 157 199 252 303 376
#     4  11  22  42  61  88 119 163 209 251 310 369
#     4  12  24  40  68  84 122 174 214 260 318 368
#     4  12  24  35  57  86 126 160 200 251 296 368
#     4  12  24  40  56  90 127 168 214 252 305 375
#     4  11  22  37  59  89 119 160 197 243 312 360
#     4  12  22  35  57  89 126 162 199 242 306 370
#
# _framework density 19.777750000000001
#
# number of rings (size 3 to 8) (size 9 to 14) (size 15 to 20)
#    0.000    0.533    6.000    4.800    0.000    1.600 
#    0.000    0.000    0.000    3.200    1.733    0.000 
#    0.000    0.000    0.000    0.000    0.000    0.000 
#
# Total GULP energy -167537.810857 kJ/mol
# GULP energy per Si atom -5584.593695 kJ/mol
# Density = 1.973273 g / cm^3
# Si number density = 19.777750 Si / 1000 Ang^3
#
#
#
# Elastic Constant Matrix: (Units=GPa)
#
#
# Indices 1 2 3 4 5 6 
#
# 1 88.6835 19.6959 16.9906 0.0000 10.1085 0.0000
# 2 19.6959 90.7035 13.4653 0.0000 15.4747 0.0000
# 3 16.9906 13.4653 47.4066 0.0000 11.5232 0.0000
# 4 0.0000 0.0000 0.0000 24.7559 0.0000 14.3469
# 5 10.1085 15.4747 11.5232 0.0000 31.2890 0.0000
# 6 0.0000 0.0000 0.0000 14.3469 0.0000 18.0696
#
#
#
# Elastic Compliance Matrix: (Units=1/GPa)
#
#
# Indices 1 2 3 4 5 6 
#
# 1 0.012581 -0.001897 -0.003526 0.000000 -0.001828 0.000000
# 2 -0.001897 0.012533 -0.001672 0.000000 -0.004970 0.000000
# 3 -0.003526 -0.001672 0.024553 0.000000 -0.007076 0.000000
# 4 0.000000 0.000000 0.000000 0.074824 0.000000 -0.059409
# 5 -0.001828 -0.004970 -0.007076 0.000000 0.037615 0.000000
# 6 0.000000 0.000000 0.000000 -0.059409 0.000000 0.102511
#
#
# Mechanical properties :
#
#
# Convention : Reuss Voigt Hill
#
# Bulk Modulus (GPa) = 28.18688 36.34411 32.26549
# Shear Modulus (GPa) = 17.20389 26.59900 21.90145
#
# Velocity S-wave (km/s) = 2.95254 3.67126 3.33134
# Velocity P-wave (km/s) = 5.08980 6.03217 5.58091
#
# Compressibility (1/GPa) = 0.03547750
#
# Stress axis : x y z
#
# Youngs Moduli (GPa) = 79.48373 79.78991 40.72850
#
# Poissons Ratio (x) = 0.15133 0.14361
# Poissons Ratio (y) = 0.15075 0.06810
# Poissons Ratio (z) = 0.28026 0.13341
#
# Static dielectric constant tensor:
#      x y z
#    x 1.806620 0.000000 0.026510 
#    y 0.000000 1.672830 0.000000 
#    z 0.026510 0.000000 1.727690 
# 
# From -- ./inp_files/61604.got.cif
#   From: 2010.05.17/outbox.cif.g08.bks.cpg/sg15_31_cif.got.tgz:61604.got - 2010.06.03 18:47:42.
