data_PCOD9301583
_publ_section_title
;
Structure prediction by ZEFSAII (Michael W. Deem and Ramdas Pophale) SiO2 
 PCOD9301583
Probable space group: C 2/C
;
_chemical_formula_sum "Si O2"
_cell_formula_units_Z 56
_cell_length_a 20.386178
_cell_length_b 22.202721
_cell_length_c 12.505804
_cell_angle_alpha 90.000000
_cell_angle_beta 25.023780
_cell_angle_gamma 90.000000
_cell_volume 2394.353266
_symmetry_space_group_name_H-M "C 2/C"
_symmetry_group_IT_number 15
_symmetry_cell_setting 'monoclinic'
loop_
_space_group_symop_operation_xyz
x,y,z
-x,y,1/2-z
-x,-y,-z
x,-y,1/2+z
1/2+x,1/2+y,z
1/2-x,1/2+y,1/2-z
1/2-x,1/2-y,-z
1/2+x,1/2-y,1/2+z
loop_
_atom_site_type_symbol
_atom_site_label
_atom_site_fract_x
_atom_site_fract_y
_atom_site_fract_z
Si Si1 0.879014 0.373996 0.027648
Si Si2 0.177180 0.413687 0.965308
Si Si3 0.170470 0.231952 0.898882
Si Si4 0.113480 0.194406 0.285623
Si Si5 0.374432 0.147441 0.166745
Si Si6 0.837233 0.034116 0.754152
Si Si7 0.099260 0.848550 0.209827
O O1 0.791517 0.309766 0.155216
O O2 0.744651 0.424333 0.215379
O O3 0.000000 0.381364 0.750000
O O4 0.971708 0.375799 0.002544
O O5 0.288018 0.366475 0.860332
O O6 0.197110 0.403310 0.807247
O O7 0.216205 0.480109 0.948074
O O8 0.000000 0.398804 0.250000
O O9 0.267921 0.252168 0.858930
O O10 0.121180 0.295050 0.916829
O O11 0.005463 0.199066 0.135192
O O12 0.996136 0.187694 0.560897
O O13 0.268229 0.170763 0.421330
O O14 0.871356 0.083508 0.793853
O O15 0.000000 0.000000 0.500000
O O16 0.000000 0.846951 0.250000
#
# Coordination Sequence:
#
# PCOD9301583 Si02
#       7
#     8   8   8   8   8   8   8
#     4  12  23  36  64 101 134 167 207 261 331 396
#     4  11  25  46  66  87 128 176 223 272 322 370
#     4  11  21  36  64  97 138 166 207 260 331 399
#     4  11  22  40  64  94 131 172 211 264 331 389
#     4  11  24  41  64 100 132 168 215 264 329 389
#     4  12  23  43  63  88 129 172 214 265 317 387
#     4  12  21  39  62  97 131 167 210 260 331 389
#
# _framework density 23.388361
#
# number of rings (size 3 to 8) (size 9 to 14) (size 15 to 20)
#    0.000    0.571    8.571    0.429    2.000    1.714 
#    2.571    2.857    0.000    0.000    0.000    0.000 
#    0.000    0.000    0.000    0.000    0.000    0.000 
#
# Total GULP energy -156357.329383 kJ/mol
# GULP energy per Si atom -5584.190335 kJ/mol
# Density = 2.333513 g / cm^3
# Si number density = 23.388361 Si / 1000 Ang^3
#
#
#
# Elastic Constant Matrix: (Units=GPa)
#
#
# Indices 1 2 3 4 5 6 
#
# 1 146.8345 25.6433 49.7852 -0.0087 -29.4134 0.0071
# 2 25.6433 75.2442 17.1531 -0.0102 -13.6855 0.0003
# 3 49.7852 17.1531 99.2927 -0.0149 -14.6893 0.0034
# 4 -0.0087 -0.0102 -0.0149 31.1693 0.0043 -38.6484
# 5 -29.4134 -13.6855 -14.6893 0.0043 32.1143 -0.0065
# 6 0.0071 0.0003 0.0034 -38.6484 -0.0065 1.2793
#
#
#
# Elastic Compliance Matrix: (Units=1/GPa)
#
#
# Indices 1 2 3 4 5 6 
#
# 1 0.009570 -0.001241 -0.003610 0.000000 0.006585 0.000001
# 2 -0.001241 0.014839 -0.001259 -0.000001 0.004611 -0.000004
# 3 -0.003610 -0.001259 0.012367 0.000000 0.001814 -0.000003
# 4 0.000000 -0.000001 0.000000 -0.000880 -0.000005 -0.026584
# 5 0.006585 0.004611 0.001814 -0.000005 0.039965 -0.000003
# 6 0.000001 -0.000004 -0.000003 -0.026584 -0.000003 -0.021440
#
#
# Mechanical properties :
#
#
# Convention : Reuss Voigt Hill
#
# Bulk Modulus (GPa) = 40.72282 56.28162 48.50222
# Shear Modulus (GPa) = 66.82122 28.16523 47.49323
#
# Velocity S-wave (km/s) = 5.35092 3.47398 4.51115
# Velocity P-wave (km/s) = 7.45827 6.34095 6.92219
#
# Compressibility (1/GPa) = 0.02455626
#
# Stress axis : x y z
#
# Youngs Moduli (GPa) = 104.49093 67.39158 80.85974
#
# Poissons Ratio (x) = 0.08362 0.29190
# Poissons Ratio (y) = 0.12966 0.10181
# Poissons Ratio (z) = 0.37720 0.08485
#
# Static dielectric constant tensor:
#      x y z
#    x 1.949100 0.000000 0.049560 
#    y 0.000000 1.868920 0.000000 
#    z 0.049560 0.000000 2.009130 
# 
# From -- ./inp_files/174721.got.cif
#   From: 2010.05.17/outbox.cif.g08.bks.cpg/sg15_88_cif.got.tgz:174721.got - 2010.06.03 18:47:42.
