data_PCOD9301681
_publ_section_title
;
Structure prediction by ZEFSAII (Michael W. Deem and Ramdas Pophale) SiO2 
 PCOD9301681
Probable space group: C 2/C
;
_chemical_formula_sum "Si O2"
_cell_formula_units_Z 48
_cell_length_a 22.639642
_cell_length_b 8.994061
_cell_length_c 15.733394
_cell_angle_alpha 90.000000
_cell_angle_beta 47.151679
_cell_angle_gamma 90.000000
_cell_volume 2348.791923
_symmetry_space_group_name_H-M "C 2/C"
_symmetry_group_IT_number 15
_symmetry_cell_setting 'monoclinic'
loop_
_space_group_symop_operation_xyz
x,y,z
-x,y,1/2-z
-x,-y,-z
x,-y,1/2+z
1/2+x,1/2+y,z
1/2-x,1/2+y,1/2-z
1/2-x,1/2-y,-z
1/2+x,1/2-y,1/2+z
loop_
_atom_site_type_symbol
_atom_site_label
_atom_site_fract_x
_atom_site_fract_y
_atom_site_fract_z
Si Si1 0.159945 0.210719 0.393208
Si Si2 0.612394 0.055400 0.820282
Si Si3 0.430338 0.885043 0.463386
Si Si4 0.085734 0.339401 0.619209
Si Si5 0.829217 0.739004 0.306556
Si Si6 0.414485 0.413123 0.072967
O O1 0.154708 0.294565 0.308547
O O2 0.086240 0.260149 0.526618
O O3 0.239170 0.267244 0.363640
O O4 0.151726 0.037094 0.384993
O O5 0.526281 0.092447 0.865014
O O6 0.657936 0.937781 0.718970
O O7 0.598364 0.965702 0.922034
O O8 0.416208 0.711831 0.497010
O O9 0.394995 0.987236 0.422300
O O10 0.146153 0.246102 0.619857
O O11 0.000000 0.333524 0.750000
O O12 0.887851 0.830677 0.186158
O O13 0.500000 0.500000 0.000000
#
# Coordination Sequence:
#
# PCOD9301681 Si02
#       6
#     8   8   8   8   8   8
#     4  11  22  37  58  90 124 151 195 254 308 351
#     4   9  17  34  57  78 108 150 198 232 284 350
#     4   9  18  34  57  81 104 147 199 242 276 345
#     4  11  21  38  60  82 116 163 205 239 292 368
#     4  11  22  37  59  88 121 161 197 242 306 359
#     4  11  21  38  63  90 117 152 204 255 290 349
#
# _framework density 20.436038
#
# number of rings (size 3 to 8) (size 9 to 14) (size 15 to 20)
#    0.000    1.667    3.333    2.500    0.000    0.000 
#    0.000    5.000    0.000    0.000    0.000    0.000 
#    0.000    0.000    0.000    0.000    0.000    0.000 
#
# Total GULP energy -133748.399122 kJ/mol
# GULP energy per Si atom -5572.849963 kJ/mol
# Density = 2.038952 g / cm^3
# Si number density = 20.436038 Si / 1000 Ang^3
#
#
#
# Elastic Constant Matrix: (Units=GPa)
#
#
# Indices 1 2 3 4 5 6 
#
# 1 50.5478 8.8055 -1.4145 0.0000 0.9987 0.0002
# 2 8.8055 106.7819 12.6938 -0.0011 4.8436 0.0020
# 3 -1.4145 12.6938 41.9710 -0.0001 6.6896 0.0005
# 4 0.0000 -0.0011 -0.0001 28.5405 -0.0001 6.3468
# 5 0.9987 4.8436 6.6896 -0.0001 26.6971 0.0000
# 6 0.0002 0.0020 0.0005 6.3468 0.0000 26.7434
#
#
#
# Elastic Compliance Matrix: (Units=1/GPa)
#
#
# Indices 1 2 3 4 5 6 
#
# 1 0.020147 -0.001786 0.001341 0.000000 -0.000766 0.000000
# 2 -0.001786 0.009902 -0.002895 0.000001 -0.001004 -0.000001
# 3 0.001341 -0.002895 0.025697 0.000000 -0.005964 0.000000
# 4 0.000000 0.000001 0.000000 0.036990 0.000000 -0.008779
# 5 -0.000766 -0.001004 -0.005964 0.000000 0.039163 0.000000
# 6 0.000000 -0.000001 0.000000 -0.008779 0.000000 0.039476
#
#
# Mechanical properties :
#
#
# Convention : Reuss Voigt Hill
#
# Bulk Modulus (GPa) = 20.38039 26.60781 23.49410
# Shear Modulus (GPa) = 25.71889 28.34392 27.03141
#
# Velocity S-wave (km/s) = 3.55139 3.72823 3.64088
# Velocity P-wave (km/s) = 5.17793 5.61972 5.40334
#
# Compressibility (1/GPa) = 0.04906677
#
# Stress axis : x y z
#
# Youngs Moduli (GPa) = 49.63502 100.99119 38.91463
#
# Poissons Ratio (x) = 0.18038 -0.05219
# Poissons Ratio (y) = 0.08865 0.11265
# Poissons Ratio (z) = -0.06657 0.29236
#
# Static dielectric constant tensor:
#      x y z
#    x 1.789440 0.000000 -0.021420 
#    y 0.000000 1.750740 0.000000 
#    z -0.021420 0.000000 1.756200 
# 
# From -- ./inp_files/214097.got.cif
#   From: 2010.05.17/outbox.cif.g08.bks.cpg/sg15_108_cif.got.tgz:214097.got - 2010.06.03 18:47:42.
