data_PCOD9301919
_publ_section_title
;
Structure prediction by ZEFSAII (Michael W. Deem and Ramdas Pophale) SiO2 
 PCOD9301919
Probable space group: C 2/C
;
_chemical_formula_sum "Si O2"
_cell_formula_units_Z 48
_cell_length_a 9.546095
_cell_length_b 10.644505
_cell_length_c 24.234087
_cell_angle_alpha 90.000000
_cell_angle_beta 76.774295
_cell_angle_gamma 90.000000
_cell_volume 2397.194617
_symmetry_space_group_name_H-M "C 2/C"
_symmetry_group_IT_number 15
_symmetry_cell_setting 'monoclinic'
loop_
_space_group_symop_operation_xyz
x,y,z
-x,y,1/2-z
-x,-y,-z
x,-y,1/2+z
1/2+x,1/2+y,z
1/2-x,1/2+y,1/2-z
1/2-x,1/2-y,-z
1/2+x,1/2-y,1/2+z
loop_
_atom_site_type_symbol
_atom_site_label
_atom_site_fract_x
_atom_site_fract_y
_atom_site_fract_z
Si Si1 0.172123 0.410338 0.725428
Si Si2 0.675945 0.034759 0.892259
Si Si3 0.797672 0.266527 0.559633
Si Si4 0.668388 0.627003 0.721257
Si Si5 0.381529 0.841761 0.986975
Si Si6 0.860635 0.477637 0.387110
O O1 0.252588 0.514628 0.754036
O O2 0.218743 0.267161 0.733335
O O3 0.197952 0.444473 0.659138
O O4 0.000000 0.415794 0.750000
O O5 0.796296 0.107388 0.846781
O O6 0.613440 0.099279 0.952815
O O7 0.534143 0.030808 0.866306
O O8 0.734559 0.900065 0.907907
O O9 0.750000 0.250000 0.500000
O O10 0.721389 0.154273 0.599500
O O11 0.971521 0.271349 0.542319
O O12 0.500000 0.619709 0.750000
O O13 0.250000 0.750000 0.000000
O O14 0.344947 0.947336 0.945516
#
# Coordination Sequence:
#
# PCOD9301919 Si02
#       6
#     8   8   8   8   8   8
#     4  11  25  46  70  94 134 181 225 276 342 398
#     4  11  22  42  67  95 135 174 223 279 333 398
#     4  11  21  40  66  96 128 178 224 260 332 411
#     4  11  27  46  69 102 133 173 233 285 333 403
#     4  11  23  39  63  96 138 169 216 280 336 390
#     4  11  22  41  68  95 130 179 220 269 338 401
#
# _framework density 20.023406000000001
#
# number of rings (size 3 to 8) (size 9 to 14) (size 15 to 20)
#    0.000    1.000    5.000    2.000    2.333    5.333 
#    3.000    0.000    0.000    0.000    0.000    0.000 
#    0.000    0.000    0.000    0.000    0.000    0.000 
#
# Total GULP energy -133988.143631 kJ/mol
# GULP energy per Si atom -5582.839318 kJ/mol
# Density = 1.997783 g / cm^3
# Si number density = 20.023406 Si / 1000 Ang^3
#
#
#
# Elastic Constant Matrix: (Units=GPa)
#
#
# Indices 1 2 3 4 5 6 
#
# 1 40.4969 64.1975 19.4537 0.0000 -0.7170 0.0000
# 2 64.1975 161.2706 36.2757 0.0000 -5.4082 0.0000
# 3 19.4537 36.2757 95.9608 0.0000 -6.0112 0.0000
# 4 0.0000 0.0000 0.0000 29.0856 0.0000 -1.3971
# 5 -0.7170 -5.4082 -6.0112 0.0000 21.6903 0.0000
# 6 0.0000 0.0000 0.0000 -1.3971 0.0000 39.1341
#
#
#
# Elastic Compliance Matrix: (Units=1/GPa)
#
#
# Indices 1 2 3 4 5 6 
#
# 1 0.068881 -0.026653 -0.004236 0.000000 -0.005542 0.000000
# 2 -0.026653 0.017111 -0.000868 0.000000 0.003145 0.000000
# 3 -0.004236 -0.000868 0.011790 0.000000 0.002911 0.000000
# 4 0.000000 0.000000 0.000000 0.034440 0.000000 0.001230
# 5 -0.005542 0.003145 0.002911 0.000000 0.047511 0.000000
# 6 0.000000 0.000000 0.000000 0.001230 0.000000 0.025597
#
#
# Mechanical properties :
#
#
# Convention : Reuss Voigt Hill
#
# Bulk Modulus (GPa) = 29.18097 59.73134 44.45616
# Shear Modulus (GPa) = 17.84009 29.83543 23.83776
#
# Velocity S-wave (km/s) = 2.98814 3.86428 3.45410
# Velocity P-wave (km/s) = 5.14882 7.05731 6.17722
#
# Compressibility (1/GPa) = 0.03426890
#
# Stress axis : x y z
#
# Youngs Moduli (GPa) = 14.51779 58.44096 84.81622
#
# Poissons Ratio (x) = 1.55761 0.35926
# Poissons Ratio (y) = 0.38694 0.07365
# Poissons Ratio (z) = 0.06149 0.05074
#
# Static dielectric constant tensor:
#      x y z
#    x 1.669400 0.000000 -0.009270 
#    y 0.000000 1.696990 0.000000 
#    z -0.009270 0.000000 1.737380 
# 
# From -- ./inp_files/263491.got.cif
#   From: 2010.05.17/outbox.cif.g08.bks.cpg/sg15_132_cif.got.tgz:263491.got - 2010.06.03 18:47:42.
