data_PCOD9301121
_publ_section_title
;
Structure prediction by ZEFSAII (Michael W. Deem and Ramdas Pophale) SiO2 
 PCOD9301121
Probable space group: C 2/C
;
_chemical_formula_sum "Si O2"
_cell_formula_units_Z 64
_cell_length_a 28.877838
_cell_length_b 11.707750
_cell_length_c 22.474198
_cell_angle_alpha 90.000000
_cell_angle_beta 153.132823
_cell_angle_gamma 90.000000
_cell_volume 3433.898750
_symmetry_space_group_name_H-M "C 2/C"
_symmetry_group_IT_number 15
_symmetry_cell_setting 'monoclinic'
loop_
_space_group_symop_operation_xyz
x,y,z
-x,y,1/2-z
-x,-y,-z
x,-y,1/2+z
1/2+x,1/2+y,z
1/2-x,1/2+y,1/2-z
1/2-x,1/2-y,-z
1/2+x,1/2-y,1/2+z
loop_
_atom_site_type_symbol
_atom_site_label
_atom_site_fract_x
_atom_site_fract_y
_atom_site_fract_z
Si Si1 0.718650 0.277974 0.249560
Si Si2 0.990582 0.374061 0.171093
Si Si3 0.667491 0.316039 0.731516
Si Si4 0.296372 0.103847 0.651798
Si Si5 0.434895 0.394994 0.615955
Si Si6 0.114787 0.454166 0.641765
Si Si7 0.037135 0.084005 0.488212
Si Si8 0.689761 0.015740 0.598037
O O1 0.798693 0.218189 0.296151
O O2 0.639471 0.179537 0.178527
O O3 0.778754 0.351340 0.368198
O O4 0.647724 0.366745 0.131789
O O5 0.952856 0.241705 0.124804
O O6 0.000000 0.406338 0.250000
O O7 0.106075 0.383503 0.278876
O O8 0.908657 0.459588 0.046686
O O9 0.716937 0.224488 0.831026
O O10 0.546725 0.315586 0.602499
O O11 0.711592 0.437837 0.802260
O O12 0.182173 0.076502 0.500165
O O13 0.333775 0.016093 0.744243
O O14 0.500000 0.423717 0.750000
O O15 0.459406 0.450426 0.578271
O O16 0.168136 0.492772 0.642399
O O17 0.000000 0.500000 0.500000
O O18 0.000000 0.000000 0.500000
#
# Coordination Sequence:
#
# PCOD9301121 Si02
#       8
#     8   8   8   8   8   8   8   8
#     4  11  23  36  58  91 123 159 203 257 316 369
#     4  11  24  38  61  89 122 164 207 256 317 376
#     4  11  21  34  59  87 126 158 196 258 310 376
#     4  12  21  40  62  87 126 162 205 256 312 381
#     4  11  24  39  59  92 127 164 211 256 326 387
#     4  11  21  36  63  90 120 160 201 250 311 371
#     4  12  22  38  58  91 125 160 201 258 317 370
#     4  11  20  38  54  89 121 155 203 253 305 376
#
# _framework density 18.637706999999999
#
# number of rings (size 3 to 8) (size 9 to 14) (size 15 to 20)
#    0.000    0.750    7.500    1.500    1.750    3.000 
#    0.000    0.000    0.000    1.500    0.000    0.000 
#    0.000    0.000    0.000    0.000    0.000    0.000 
#
# Total GULP energy -178255.552545 kJ/mol
# GULP energy per Si atom -5570.486017 kJ/mol
# Density = 1.859529 g / cm^3
# Si number density = 18.637707 Si / 1000 Ang^3
#
#
#
# Elastic Constant Matrix: (Units=GPa)
#
#
# Indices 1 2 3 4 5 6 
#
# 1 79.5409 29.2821 46.3172 0.0000 -4.7778 0.0000
# 2 29.2821 63.4936 31.6720 0.0000 -4.1808 0.0000
# 3 46.3172 31.6720 135.4922 0.0000 9.7214 0.0000
# 4 0.0000 0.0000 0.0000 17.8262 0.0000 8.9769
# 5 -4.7778 -4.1808 9.7214 0.0000 25.6840 0.0000
# 6 0.0000 0.0000 0.0000 8.9769 0.0000 21.6618
#
#
#
# Elastic Compliance Matrix: (Units=1/GPa)
#
#
# Indices 1 2 3 4 5 6 
#
# 1 0.017806 -0.005354 -0.005150 0.000000 0.004390 0.000000
# 2 -0.005354 0.019984 -0.003087 0.000000 0.003426 0.000000
# 3 -0.005150 -0.003087 0.010246 0.000000 -0.005339 0.000000
# 4 0.000000 0.000000 0.000000 0.070891 0.000000 -0.029378
# 5 0.004390 0.003426 -0.005339 0.000000 0.042330 0.000000
# 6 0.000000 0.000000 0.000000 -0.029378 0.000000 0.058339
#
#
# Mechanical properties :
#
#
# Convention : Reuss Voigt Hill
#
# Bulk Modulus (GPa) = 47.95324 54.78548 51.36936
# Shear Modulus (GPa) = 19.70609 24.45142 22.07876
#
# Velocity S-wave (km/s) = 3.25518 3.62599 3.44558
# Velocity P-wave (km/s) = 6.31769 6.85487 6.59175
#
# Compressibility (1/GPa) = 0.02085365
#
# Stress axis : x y z
#
# Youngs Moduli (GPa) = 56.16139 50.03996 97.60101
#
# Poissons Ratio (x) = 0.26789 0.50268
# Poissons Ratio (y) = 0.30066 0.30130
# Poissons Ratio (z) = 0.28925 0.15448
#
# Static dielectric constant tensor:
#      x y z
#    x 1.664180 0.000000 0.012780 
#    y 0.000000 1.718580 0.000000 
#    z 0.012780 0.000000 1.663840 
# 
# From -- ./inp_files/257533.got.cif
#   From: 2010.05.17/outbox.cif.g08.bks.cpg/sg15_129_cif.got.tgz:257533.got - 2010.06.03 18:47:42.
