data_PCOD9301656
_publ_section_title
;
Structure prediction by ZEFSAII (Michael W. Deem and Ramdas Pophale) SiO2 
 PCOD9301656
Probable space group: C 2/C
;
_chemical_formula_sum "Si O2"
_cell_formula_units_Z 44
_cell_length_a 7.831157
_cell_length_b 12.257084
_cell_length_c 22.084736
_cell_angle_alpha 90.000000
_cell_angle_beta 60.979890
_cell_angle_gamma 90.000000
_cell_volume 1853.702498
_symmetry_space_group_name_H-M "C 2/C"
_symmetry_group_IT_number 15
_symmetry_cell_setting 'monoclinic'
loop_
_space_group_symop_operation_xyz
x,y,z
-x,y,1/2-z
-x,-y,-z
x,-y,1/2+z
1/2+x,1/2+y,z
1/2-x,1/2+y,1/2-z
1/2-x,1/2-y,-z
1/2+x,1/2-y,1/2+z
loop_
_atom_site_type_symbol
_atom_site_label
_atom_site_fract_x
_atom_site_fract_y
_atom_site_fract_z
Si Si1 0.048354 0.636944 0.330748
Si Si2 0.651688 0.066299 0.012189
Si Si3 0.499118 0.359784 0.383065
Si Si4 0.000000 0.871225 0.750000
Si Si5 0.135110 0.105482 0.350308
Si Si6 0.125009 0.848892 0.495908
O O1 0.059452 0.768807 0.324577
O O2 0.268922 0.586409 0.292509
O O3 0.961067 0.618292 0.412826
O O4 0.868963 0.602305 0.317708
O O5 0.774198 0.140083 0.944531
O O6 0.791985 0.970833 0.011893
O O7 0.500000 0.000000 0.000000
O O8 0.555158 0.482303 0.353843
O O9 0.602970 0.334121 0.428652
O O10 0.965668 0.825790 0.687239
O O11 0.059911 0.148458 0.427720
O O12 0.250000 0.750000 0.500000
#
# Coordination Sequence:
#
# PCOD9301656 Si02
#       6
#     8   8   8   4   8   8
#     4  12  24  46  72  98 144 186 232 288 348 422
#     4  11  21  37  68 106 139 173 221 291 358 416
#     4  11  22  44  71 109 132 171 234 287 367 416
#     4  12  28  50  62 100 140 190 244 276 332 424
#     4  11  24  48  69  97 146 183 228 293 343 418
#     4  11  21  39  70 107 140 169 220 295 358 417
#
# _framework density 23.736280000000001
#
# number of rings (size 3 to 8) (size 9 to 14) (size 15 to 20)
#    0.000    0.727    3.636    6.545    2.545    0.000 
#    6.545    0.000    0.000    0.000    0.000    0.000 
#    0.000    0.000    0.000    0.000    0.000    0.000 
#
# Total GULP energy -122566.202337 kJ/mol
# GULP energy per Si atom -5571.191015 kJ/mol
# Density = 2.368226 g / cm^3
# Si number density = 23.736280 Si / 1000 Ang^3
#
#
#
# Elastic Constant Matrix: (Units=GPa)
#
#
# Indices 1 2 3 4 5 6 
#
# 1 159.8085 7.3016 31.3801 0.0000 -7.6449 0.0000
# 2 7.3016 74.8048 14.4432 0.0000 -9.3849 0.0000
# 3 31.3801 14.4432 82.2289 0.0000 -33.9980 0.0000
# 4 0.0000 0.0000 0.0000 3.7619 0.0000 -2.1284
# 5 -7.6449 -9.3849 -33.9980 0.0000 50.6616 0.0000
# 6 0.0000 0.0000 0.0000 -2.1284 0.0000 38.4609
#
#
#
# Elastic Compliance Matrix: (Units=1/GPa)
#
#
# Indices 1 2 3 4 5 6 
#
# 1 0.006803 -0.000216 -0.002976 0.000000 -0.001011 0.000000
# 2 -0.000216 0.013905 -0.001811 0.000000 0.001328 0.000000
# 3 -0.002976 -0.001811 0.018394 0.000000 0.011560 0.000000
# 4 0.000000 0.000000 0.000000 0.274413 0.000000 0.015186
# 5 -0.001011 0.001328 0.011560 0.000000 0.027590 0.000000
# 6 0.000000 0.000000 0.000000 0.015186 0.000000 0.026841
#
#
# Mechanical properties :
#
#
# Convention : Reuss Voigt Hill
#
# Bulk Modulus (GPa) = 34.36806 47.01021 40.68914
# Shear Modulus (GPa) = 12.89816 36.15805 24.52811
#
# Velocity S-wave (km/s) = 2.33361 3.90721 3.21808
# Velocity P-wave (km/s) = 4.66600 6.34061 5.56663
#
# Compressibility (1/GPa) = 0.02909678
#
# Stress axis : x y z
#
# Youngs Moduli (GPa) = 146.98462 71.91413 54.36446
#
# Poissons Ratio (x) = 0.01555 0.16180
# Poissons Ratio (y) = 0.03178 0.09844
# Poissons Ratio (z) = 0.43746 0.13022
#
# Static dielectric constant tensor:
#      x y z
#    x 1.899760 0.000000 0.008130 
#    y 0.000000 1.876790 0.000000 
#    z 0.008130 0.000000 1.945160 
# 
# From -- ./inp_files/263452.got.cif
#   From: 2010.05.17/outbox.cif.g08.bks.cpg/sg15_132_cif.got.tgz:263452.got - 2010.06.03 18:47:42.
