data_PCOD9301192
_publ_section_title
;
Structure prediction by ZEFSAII (Michael W. Deem and Ramdas Pophale) SiO2 
 PCOD9301192
Probable space group: C 2/C
;
_chemical_formula_sum "Si O2"
_cell_formula_units_Z 44
_cell_length_a 11.893597
_cell_length_b 20.142113
_cell_length_c 8.822559
_cell_angle_alpha 90.000000
_cell_angle_beta 77.460310
_cell_angle_gamma 90.000000
_cell_volume 2063.134428
_symmetry_space_group_name_H-M "C 2/C"
_symmetry_group_IT_number 15
_symmetry_cell_setting 'monoclinic'
loop_
_space_group_symop_operation_xyz
x,y,z
-x,y,1/2-z
-x,-y,-z
x,-y,1/2+z
1/2+x,1/2+y,z
1/2-x,1/2+y,1/2-z
1/2-x,1/2-y,-z
1/2+x,1/2-y,1/2+z
loop_
_atom_site_type_symbol
_atom_site_label
_atom_site_fract_x
_atom_site_fract_y
_atom_site_fract_z
Si Si1 0.183441 0.635898 0.268584
Si Si2 0.000000 0.930482 0.750000
Si Si3 0.500000 0.247324 0.250000
Si Si4 0.500000 0.018942 0.250000
Si Si5 0.079302 0.856091 0.993013
Si Si6 0.682091 0.539752 0.686400
Si Si7 0.818629 0.560132 0.942392
O O1 0.105119 0.699236 0.261156
O O2 0.302407 0.646461 0.141668
O O3 0.199624 0.622233 0.442292
O O4 0.106995 0.569556 0.248374
O O5 0.985098 0.885435 0.903100
O O6 0.101121 0.980475 0.768595
O O7 0.463103 0.291097 0.406549
O O8 0.551153 0.965669 0.115367
O O9 0.108021 0.906744 0.119547
O O10 0.759647 0.569238 0.796640
O O11 0.757638 0.501829 0.541052
#
# Coordination Sequence:
#
# PCOD9301192 Si02
#       7
#     8   4   4   4   8   8   8
#     4  11  24  46  68  96 140 181 228 282 329 404
#     4  12  23  40  70 100 145 172 214 284 356 394
#     4  11  29  46  70  92 135 197 238 268 320 395
#     4  11  20  38  70 104 140 169 218 280 366 397
#     4  12  25  46  69  98 137 182 229 278 334 407
#     4  12  23  39  68 110 137 168 215 285 358 408
#     4  12  22  39  68 107 141 168 214 281 353 409
#
# _framework density 21.326774
#
# number of rings (size 3 to 8) (size 9 to 14) (size 15 to 20)
#    0.000    0.364    7.273    2.182    2.545    0.000 
#    0.000    6.364    0.000    0.000    0.000    0.000 
#    0.000    0.000    0.000    0.000    0.000    0.000 
#
# Total GULP energy -122817.956547 kJ/mol
# GULP energy per Si atom -5582.634388 kJ/mol
# Density = 2.127823 g / cm^3
# Si number density = 21.326774 Si / 1000 Ang^3
#
#
#
# Elastic Constant Matrix: (Units=GPa)
#
#
# Indices 1 2 3 4 5 6 
#
# 1 71.8123 24.4227 26.2094 0.0000 -1.2359 0.0000
# 2 24.4227 104.6107 44.3756 0.0000 2.0937 0.0000
# 3 26.2094 44.3756 93.5235 0.0000 12.8030 0.0000
# 4 0.0000 0.0000 0.0000 21.5541 0.0000 -8.2728
# 5 -1.2359 2.0937 12.8030 0.0000 60.0392 0.0000
# 6 0.0000 0.0000 0.0000 -8.2728 0.0000 13.2263
#
#
#
# Elastic Compliance Matrix: (Units=1/GPa)
#
#
# Indices 1 2 3 4 5 6 
#
# 1 0.016016 -0.002242 -0.003585 0.000000 0.001172 0.000000
# 2 -0.002242 0.012321 -0.005308 0.000000 0.000656 0.000000
# 3 -0.003585 -0.005308 0.014627 0.000000 -0.003008 0.000000
# 4 0.000000 0.000000 0.000000 0.061052 0.000000 0.038187
# 5 0.001172 0.000656 -0.003008 0.000000 0.017298 0.000000
# 6 0.000000 0.000000 0.000000 0.038187 0.000000 0.099492
#
#
# Mechanical properties :
#
#
# Convention : Reuss Voigt Hill
#
# Bulk Modulus (GPa) = 48.32036 51.10689 49.71362
# Shear Modulus (GPa) = 20.00200 30.62650 25.31425
#
# Velocity S-wave (km/s) = 3.06581 3.79365 3.44898
# Velocity P-wave (km/s) = 5.93621 6.57303 6.26272
#
# Compressibility (1/GPa) = 0.02069521
#
# Stress axis : x y z
#
# Youngs Moduli (GPa) = 62.43638 81.16213 68.36464
#
# Poissons Ratio (x) = 0.18195 0.24510
# Poissons Ratio (y) = 0.13997 0.36286
# Poissons Ratio (z) = 0.22385 0.43078
#
# Static dielectric constant tensor:
#      x y z
#    x 1.868330 0.000000 -0.034280 
#    y 0.000000 1.739250 0.000000 
#    z -0.034280 0.000000 1.819620 
# 
# From -- ./inp_files/30789.got.cif
#   From: 2010.05.17/outbox.cif.g08.bks.cpg/sg15_16_cif.got.tgz:30789.got - 2010.06.03 18:47:42.
