data_PCOD9301416
_publ_section_title
;
Structure prediction by ZEFSAII (Michael W. Deem and Ramdas Pophale) SiO2 
 PCOD9301416
Probable space group: C 2/C
;
_chemical_formula_sum "Si O2"
_cell_formula_units_Z 40
_cell_length_a 6.135693
_cell_length_b 23.443826
_cell_length_c 12.001619
_cell_angle_alpha 90.000000
_cell_angle_beta 91.870002
_cell_angle_gamma 90.000000
_cell_volume 1725.442917
_symmetry_space_group_name_H-M "C 2/C"
_symmetry_group_IT_number 15
_symmetry_cell_setting 'monoclinic'
loop_
_space_group_symop_operation_xyz
x,y,z
-x,y,1/2-z
-x,-y,-z
x,-y,1/2+z
1/2+x,1/2+y,z
1/2-x,1/2+y,1/2-z
1/2-x,1/2-y,-z
1/2+x,1/2-y,1/2+z
loop_
_atom_site_type_symbol
_atom_site_label
_atom_site_fract_x
_atom_site_fract_y
_atom_site_fract_z
Si Si1 0.438758 0.141584 0.535337
Si Si2 0.091013 0.064572 0.626593
Si Si3 0.500000 0.381103 0.750000
Si Si4 0.681987 0.787998 0.659445
Si Si5 0.000000 0.691322 0.750000
Si Si6 0.736748 0.050874 0.429789
O O1 0.210360 0.120946 0.583869
O O2 0.424578 0.199172 0.461709
O O3 0.583556 0.153899 0.647712
O O4 0.533818 0.090730 0.460069
O O5 0.000000 0.066700 0.750000
O O6 0.891479 0.050878 0.540853
O O7 0.273129 0.014389 0.612020
O O8 0.349900 0.340055 0.674493
O O9 0.642591 0.418338 0.669897
O O10 0.500000 0.794257 0.750000
O O11 0.816257 0.731772 0.693083
#
# Coordination Sequence:
#
# PCOD9301416 Si02
#       6
#     8   8   4   8   4   8
#     4  12  24  45  68  99 133 178 219 273 333 391
#     4  11  24  41  66 103 141 173 212 266 329 396
#     4  11  20  44  66 100 132 170 226 267 322 396
#     4  11  24  44  70  94 125 179 227 275 331 391
#     4  11  28  44  64  98 130 168 230 285 334 382
#     4  11  23  41  70  99 136 176 217 263 326 406
#
# _framework density 23.182455000000001
#
# number of rings (size 3 to 8) (size 9 to 14) (size 15 to 20)
#    0.000    0.800    5.000    2.400    0.000    3.200 
#    0.000    0.000    0.000    0.000    0.000    0.000 
#    0.000    0.000    0.000    0.000    0.000    0.000 
#
# Total GULP energy -111791.241696 kJ/mol
# GULP energy per Si atom -5589.562085 kJ/mol
# Density = 2.312969 g / cm^3
# Si number density = 23.182455 Si / 1000 Ang^3
#
#
#
# Elastic Constant Matrix: (Units=GPa)
#
#
# Indices 1 2 3 4 5 6 
#
# 1 35.6318 14.4704 21.5279 0.0000 -12.9196 0.0000
# 2 14.4704 76.5135 28.0283 0.0000 -21.2594 0.0000
# 3 21.5279 28.0283 177.3703 0.0000 -20.1554 0.0000
# 4 0.0000 0.0000 0.0000 43.6933 0.0000 -15.5307
# 5 -12.9196 -21.2594 -20.1554 0.0000 33.2898 0.0000
# 6 0.0000 0.0000 0.0000 -15.5307 0.0000 70.9635
#
#
#
# Elastic Compliance Matrix: (Units=1/GPa)
#
#
# Indices 1 2 3 4 5 6 
#
# 1 0.034387 -0.002772 -0.002599 0.000000 0.010001 0.000000
# 2 -0.002772 0.016472 -0.001281 0.000000 0.008667 0.000000
# 3 -0.002599 -0.001281 0.006388 0.000000 0.002040 0.000000
# 4 0.000000 0.000000 0.000000 0.024817 0.000000 0.005431
# 5 0.010001 0.008667 0.002040 0.000000 0.040691 0.000000
# 6 0.000000 0.000000 0.000000 0.005431 0.000000 0.015280
#
#
# Mechanical properties :
#
#
# Convention : Reuss Voigt Hill
#
# Bulk Modulus (GPa) = 22.75791 46.39654 34.57723
# Shear Modulus (GPa) = 30.12257 44.62192 37.37224
#
# Velocity S-wave (km/s) = 3.60859 4.39203 4.01944
# Velocity P-wave (km/s) = 5.21543 6.76587 6.04060
#
# Compressibility (1/GPa) = 0.04394076
#
# Stress axis : x y z
#
# Youngs Moduli (GPa) = 29.08040 60.71081 156.54989
#
# Poissons Ratio (x) = 0.16832 0.40689
# Poissons Ratio (y) = 0.08062 0.20061
# Poissons Ratio (z) = 0.07558 0.07780
#
# Static dielectric constant tensor:
#      x y z
#    x 1.879900 0.000000 0.055590 
#    y 0.000000 1.907390 0.000000 
#    z 0.055590 0.000000 1.865790 
# 
# From -- ./inp_files/73157.got.cif
#   From: 2010.05.17/outbox.cif.g08.bks.cpg/sg15_37_cif.got.tgz:73157.got - 2010.06.03 18:47:42.
