data_PCOD9301264
_publ_section_title
;
Structure prediction by ZEFSAII (Michael W. Deem and Ramdas Pophale) SiO2 
 PCOD9301264
Probable space group: C 2/C
;
_chemical_formula_sum "Si O2"
_cell_formula_units_Z 40
_cell_length_a 13.492499
_cell_length_b 9.800439
_cell_length_c 13.267579
_cell_angle_alpha 90.000000
_cell_angle_beta 111.811263
_cell_angle_gamma 90.000000
_cell_volume 1628.811134
_symmetry_space_group_name_H-M "C 2/C"
_symmetry_group_IT_number 15
_symmetry_cell_setting 'monoclinic'
loop_
_space_group_symop_operation_xyz
x,y,z
-x,y,1/2-z
-x,-y,-z
x,-y,1/2+z
1/2+x,1/2+y,z
1/2-x,1/2+y,1/2-z
1/2-x,1/2-y,-z
1/2+x,1/2-y,1/2+z
loop_
_atom_site_type_symbol
_atom_site_label
_atom_site_fract_x
_atom_site_fract_y
_atom_site_fract_z
Si Si1 0.892756 0.537474 0.272086
Si Si2 0.544223 0.391629 0.098626
Si Si3 0.275865 0.186251 0.631323
Si Si4 0.351609 0.319672 0.156667
Si Si5 0.804950 0.545284 0.439662
O O1 0.825917 0.398501 0.239728
O O2 0.835841 0.670851 0.201458
O O3 0.899083 0.556064 0.394208
O O4 0.000000 0.525333 0.250000
O O5 0.648395 0.334975 0.080277
O O6 0.440192 0.310680 0.101110
O O7 0.599866 0.409992 0.231215
O O8 0.500000 0.500000 0.000000
O O9 0.286638 0.347668 0.634214
O O10 0.328006 0.108576 0.556558
O O11 0.249391 0.398037 0.075155
#
# Coordination Sequence:
#
# PCOD9301264 Si02
#       5
#     8   8   8   8   8
#     4  12  23  43  62  88 127 166 204 256 309 367
#     4  11  20  40  64  96 118 162 205 253 303 373
#     4  11  24  40  64  92 127 159 205 263 308 363
#     4  11  22  40  69  89 122 168 207 249 310 375
#     4  11  22  43  63  90 123 166 205 254 310 363
#
# _framework density 24.557787000000001
#
# number of rings (size 3 to 8) (size 9 to 14) (size 15 to 20)
#    0.000    0.800    8.000    0.000    0.000    1.600 
#    3.600    0.000    0.000    0.000    0.000    0.000 
#    0.000    0.000    0.000    0.000    0.000    0.000 
#
# Total GULP energy -111395.678456 kJ/mol
# GULP energy per Si atom -5569.783923 kJ/mol
# Density = 2.450189 g / cm^3
# Si number density = 24.557787 Si / 1000 Ang^3
#
#
#
# Elastic Constant Matrix: (Units=GPa)
#
#
# Indices 1 2 3 4 5 6 
#
# 1 79.2198 5.5318 26.4308 0.0000 -38.1913 0.0000
# 2 5.5318 74.2526 0.6244 0.0000 24.9634 0.0000
# 3 26.4308 0.6244 75.0939 0.0000 -28.0026 0.0000
# 4 0.0000 0.0000 0.0000 32.5107 0.0000 -2.9429
# 5 -38.1913 24.9634 -28.0026 0.0000 47.7572 0.0000
# 6 0.0000 0.0000 0.0000 -2.9429 0.0000 27.6908
#
#
#
# Elastic Compliance Matrix: (Units=1/GPa)
#
#
# Indices 1 2 3 4 5 6 
#
# 1 0.026343 -0.011251 0.001114 0.000000 0.027601 0.000000
# 2 -0.011251 0.022278 -0.005020 0.000000 -0.023586 0.000000
# 3 0.001114 -0.005020 0.018272 0.000000 0.014229 0.000000
# 4 0.000000 0.000000 0.000000 0.031058 0.000000 0.003301
# 5 0.027601 -0.023586 0.014229 0.000000 0.063684 0.000000
# 6 0.000000 0.000000 0.000000 0.003301 0.000000 0.036464
#
#
# Mechanical properties :
#
#
# Convention : Reuss Voigt Hill
#
# Bulk Modulus (GPa) = 27.33896 32.63779 29.98838
# Shear Modulus (GPa) = 20.78070 34.65704 27.71887
#
# Velocity S-wave (km/s) = 2.91210 3.76073 3.36329
# Velocity P-wave (km/s) = 4.73960 5.67243 5.22687
#
# Compressibility (1/GPa) = 0.03657783
#
# Stress axis : x y z
#
# Youngs Moduli (GPa) = 37.96003 44.88804 54.72727
#
# Poissons Ratio (x) = 0.50505 -0.06097
# Poissons Ratio (y) = 0.42710 0.27476
# Poissons Ratio (z) = -0.04229 0.22536
#
# Static dielectric constant tensor:
#      x y z
#    x 1.953520 0.000000 -0.024340 
#    y 0.000000 2.023950 0.000000 
#    z -0.024340 0.000000 2.039450 
# 
# From -- ./inp_files/150547.got.cif
#   From: 2010.05.17/outbox.cif.g08.bks.cpg/sg15_76_cif.got.tgz:150547.got - 2010.06.03 18:47:42.
