data_PCOD9301064
_publ_section_title
;
Structure prediction by ZEFSAII (Michael W. Deem and Ramdas Pophale) SiO2 
 PCOD9301064
Probable space group: C 2/C
;
_chemical_formula_sum "Si O2"
_cell_formula_units_Z 60
_cell_length_a 15.058715
_cell_length_b 20.801647
_cell_length_c 11.750694
_cell_angle_alpha 90.000000
_cell_angle_beta 66.537358
_cell_angle_gamma 90.000000
_cell_volume 3376.524885
_symmetry_space_group_name_H-M "C 2/C"
_symmetry_group_IT_number 15
_symmetry_cell_setting 'monoclinic'
loop_
_space_group_symop_operation_xyz
x,y,z
-x,y,1/2-z
-x,-y,-z
x,-y,1/2+z
1/2+x,1/2+y,z
1/2-x,1/2+y,1/2-z
1/2-x,1/2-y,-z
1/2+x,1/2-y,1/2+z
loop_
_atom_site_type_symbol
_atom_site_label
_atom_site_fract_x
_atom_site_fract_y
_atom_site_fract_z
Si Si1 0.613004 0.429987 0.661883
Si Si2 0.118761 0.280708 0.893184
Si Si3 0.339080 0.700431 0.964430
Si Si4 0.336246 0.310155 0.724814
Si Si5 0.106312 0.312449 0.162307
Si Si6 0.000000 0.274730 0.750000
Si Si7 0.321369 0.363482 0.105045
Si Si8 0.618231 0.422230 0.189511
O O1 0.500000 0.429473 0.750000
O O2 0.655285 0.382291 0.734978
O O3 0.640007 0.398509 0.527363
O O4 0.643250 0.504149 0.649055
O O5 0.223039 0.294800 0.787024
O O6 0.120296 0.203481 0.908315
O O7 0.041171 0.307482 0.842632
O O8 0.110844 0.308189 0.023699
O O9 0.416005 0.730111 0.839737
O O10 0.330944 0.627478 0.923869
O O11 0.250000 0.750000 0.000000
O O12 0.372525 0.699303 0.078234
O O13 0.385787 0.258783 0.784548
O O14 0.206245 0.347254 0.150787
O O15 0.000000 0.338830 0.250000
O O16 0.343399 0.404706 0.205126
O O17 0.500000 0.415370 0.250000
#
# Coordination Sequence:
#
# PCOD9301064 Si02
#       8
#     8   8   8   8   8   4   8   8
#     4  11  25  36  59  88 118 162 196 240 295 368
#     4  11  20  37  58  87 125 154 199 251 305 351
#     4  12  22  37  59  87 121 155 195 247 304 355
#     4  11  21  37  56  90 120 154 203 248 300 354
#     4  11  21  37  63  89 117 156 204 254 299 350
#     4  12  22  36  56  90 128 154 186 258 306 358
#     4  11  21  41  58  84 122 160 201 248 298 356
#     4  11  25  40  58  90 124 161 194 242 306 368
#
# _framework density 17.769749999999998
#
# number of rings (size 3 to 8) (size 9 to 14) (size 15 to 20)
#    0.000    0.800    6.000    2.800    5.600    1.067 
#    0.000    0.000    0.000    0.800    3.467    0.000 
#    0.000    0.000    0.000    0.000    0.000    0.000 
#
# Total GULP energy -167341.562955 kJ/mol
# GULP energy per Si atom -5578.052099 kJ/mol
# Density = 1.772931 g / cm^3
# Si number density = 17.769750 Si / 1000 Ang^3
#
#
#
# Elastic Constant Matrix: (Units=GPa)
#
#
# Indices 1 2 3 4 5 6 
#
# 1 105.4079 36.1548 42.8404 0.0000 13.6989 0.0000
# 2 36.1548 96.3506 32.1501 0.0000 -1.9166 0.0000
# 3 42.8404 32.1501 109.3855 0.0000 10.3386 0.0000
# 4 0.0000 0.0000 0.0000 21.1397 0.0000 -2.6896
# 5 13.6989 -1.9166 10.3386 0.0000 39.1533 0.0000
# 6 0.0000 0.0000 0.0000 -2.6896 0.0000 13.5491
#
#
#
# Elastic Compliance Matrix: (Units=1/GPa)
#
#
# Indices 1 2 3 4 5 6 
#
# 1 0.012650 -0.003639 -0.003538 0.000000 -0.003670 0.000000
# 2 -0.003639 0.012640 -0.002532 0.000000 0.002561 0.000000
# 3 -0.003538 -0.002532 0.011452 0.000000 -0.001910 0.000000
# 4 0.000000 0.000000 0.000000 0.048530 0.000000 0.009633
# 5 -0.003670 0.002561 -0.001910 0.000000 0.027454 0.000000
# 6 0.000000 0.000000 0.000000 0.009633 0.000000 0.075718
#
#
# Mechanical properties :
#
#
# Convention : Reuss Voigt Hill
#
# Bulk Modulus (GPa) = 57.72180 59.27050 58.49615
# Shear Modulus (GPa) = 23.40415 28.10168 25.75291
#
# Velocity S-wave (km/s) = 3.63309 3.98104 3.81104
# Velocity P-wave (km/s) = 7.08187 7.38638 7.23573
#
# Compressibility (1/GPa) = 0.01732448
#
# Stress axis : x y z
#
# Youngs Moduli (GPa) = 79.05103 79.11308 87.31923
#
# Poissons Ratio (x) = 0.28792 0.30892
# Poissons Ratio (y) = 0.28769 0.22108
# Poissons Ratio (z) = 0.27967 0.20030
#
# Static dielectric constant tensor:
#      x y z
#    x 1.672270 0.000000 0.004230 
#    y 0.000000 1.603280 0.000000 
#    z 0.004230 0.000000 1.609800 
# 
# From -- ./inp_files/99752.got.cif
#   From: 2010.05.17/outbox.cif.g08.bks.cpg/sg15_50_cif.got.tgz:99752.got - 2010.06.03 18:47:42.
