data_PCOD9301655
_publ_section_title
;
Structure prediction by ZEFSAII (Michael W. Deem and Ramdas Pophale) SiO2 
 PCOD9301655
Probable space group: C 2/C
;
_chemical_formula_sum "Si O2"
_cell_formula_units_Z 44
_cell_length_a 22.147021
_cell_length_b 13.781702
_cell_length_c 13.844200
_cell_angle_alpha 90.000000
_cell_angle_beta 156.341573
_cell_angle_gamma 90.000000
_cell_volume 1695.653462
_symmetry_space_group_name_H-M "C 2/C"
_symmetry_group_IT_number 15
_symmetry_cell_setting 'monoclinic'
loop_
_space_group_symop_operation_xyz
x,y,z
-x,y,1/2-z
-x,-y,-z
x,-y,1/2+z
1/2+x,1/2+y,z
1/2-x,1/2+y,1/2-z
1/2-x,1/2-y,-z
1/2+x,1/2-y,1/2+z
loop_
_atom_site_type_symbol
_atom_site_label
_atom_site_fract_x
_atom_site_fract_y
_atom_site_fract_z
Si Si1 0.703616 0.845528 0.706115
Si Si2 0.500000 0.312053 0.250000
Si Si3 0.500000 0.500000 0.000000
Si Si4 0.071514 0.662239 0.213137
Si Si5 0.760739 0.566763 0.744960
Si Si6 0.000000 0.323046 0.250000
Si Si7 0.774976 0.546434 0.540749
O O1 0.611450 0.811087 0.663387
O O2 0.636660 0.783730 0.518829
O O3 0.667178 0.958857 0.635132
O O4 0.881834 0.857909 0.999700
O O5 0.603858 0.247040 0.334664
O O6 0.623443 0.434587 0.116708
O O7 0.634937 0.542433 0.264910
O O8 0.157446 0.562459 0.359101
O O9 0.893570 0.641416 0.963199
O O10 0.729285 0.570679 0.583903
O O11 0.102124 0.381080 0.322304
#
# Coordination Sequence:
#
# PCOD9301655 Si02
#       7
#     8   4   4   8   8   4   8
#     4  11  24  42  69 102 137 186 230 293 347 425
#     4  12  27  42  68 107 146 178 234 286 363 424
#     4  12  22  32  60 104 146 164 220 314 344 388
#     4  11  22  46  70  94 135 190 237 280 347 433
#     4  11  22  40  68 101 134 178 245 287 341 403
#     4  12  19  42  70  95 130 180 228 288 357 404
#     4  11  21  37  68 104 128 179 236 292 341 406
#
# _framework density 25.948696999999999
#
# number of rings (size 3 to 8) (size 9 to 14) (size 15 to 20)
#    0.000    0.727    5.455    3.818    5.091    0.000 
#    3.273    0.909    8.000    0.000    0.000    0.000 
#    0.000    0.000    0.000    0.000    0.000    0.000 
#
# Total GULP energy -122489.998671 kJ/mol
# GULP energy per Si atom -5567.727212 kJ/mol
# Density = 2.588964 g / cm^3
# Si number density = 25.948697 Si / 1000 Ang^3
#
#
#
# Elastic Constant Matrix: (Units=GPa)
#
#
# Indices 1 2 3 4 5 6 
#
# 1 99.5356 -2.3513 32.7756 0.0000 11.8932 0.0000
# 2 -2.3513 32.8969 7.5592 0.0000 -2.7402 0.0000
# 3 32.7756 7.5592 213.8776 0.0000 -2.4016 0.0000
# 4 0.0000 0.0000 0.0000 12.2474 0.0000 -9.3590
# 5 11.8932 -2.7402 -2.4016 0.0000 38.8173 0.0000
# 6 0.0000 0.0000 0.0000 -9.3590 0.0000 14.1934
#
#
#
# Elastic Compliance Matrix: (Units=1/GPa)
#
#
# Indices 1 2 3 4 5 6 
#
# 1 0.011060 0.000910 -0.001766 0.000000 -0.003434 0.000000
# 2 0.000910 0.030893 -0.001211 0.000000 0.001827 0.000000
# 3 -0.001766 -0.001211 0.004998 0.000000 0.000765 0.000000
# 4 0.000000 0.000000 0.000000 0.164579 0.000000 0.108522
# 5 -0.003434 0.001827 0.000765 0.000000 0.026990 0.000000
# 6 0.000000 0.000000 0.000000 0.108522 0.000000 0.142014
#
#
# Mechanical properties :
#
#
# Convention : Reuss Voigt Hill
#
# Bulk Modulus (GPa) = 23.35448 46.91968 35.13708
# Shear Modulus (GPa) = 12.53327 33.60674 23.07000
#
# Velocity S-wave (km/s) = 2.20011 3.60269 2.98495
# Velocity P-wave (km/s) = 3.93367 5.95204 5.04483
#
# Compressibility (1/GPa) = 0.04281834
#
# Stress axis : x y z
#
# Youngs Moduli (GPa) = 90.41753 32.36928 200.09931
#
# Poissons Ratio (x) = -0.02946 0.35329
# Poissons Ratio (y) = -0.08230 0.24229
# Poissons Ratio (z) = 0.15964 0.03919
#
# Static dielectric constant tensor:
#      x y z
#    x 2.017040 0.000000 -0.046100 
#    y 0.000000 2.061790 0.000000 
#    z -0.046100 0.000000 2.112630 
# 
# From -- ./inp_files/174306.got.cif
#   From: 2010.05.17/outbox.cif.g08.bks.cpg/sg15_88_cif.got.tgz:174306.got - 2010.06.03 18:47:42.
