data_PCOD9301446
_publ_section_title
;
Structure prediction by ZEFSAII (Michael W. Deem and Ramdas Pophale) SiO2 
 PCOD9301446
Probable space group: C 2/C
;
_chemical_formula_sum "Si O2"
_cell_formula_units_Z 64
_cell_length_a 21.927162
_cell_length_b 23.931957
_cell_length_c 8.144749
_cell_angle_alpha 90.000000
_cell_angle_beta 118.700395
_cell_angle_gamma 90.000000
_cell_volume 3748.941583
_symmetry_space_group_name_H-M "C 2/C"
_symmetry_group_IT_number 15
_symmetry_cell_setting 'monoclinic'
loop_
_space_group_symop_operation_xyz
x,y,z
-x,y,1/2-z
-x,-y,-z
x,-y,1/2+z
1/2+x,1/2+y,z
1/2-x,1/2+y,1/2-z
1/2-x,1/2-y,-z
1/2+x,1/2-y,1/2+z
loop_
_atom_site_type_symbol
_atom_site_label
_atom_site_fract_x
_atom_site_fract_y
_atom_site_fract_z
Si Si1 0.377305 0.722969 0.783912
Si Si2 0.333196 0.267470 0.845345
Si Si3 0.705730 0.167369 0.254071
Si Si4 0.153810 0.437780 0.125501
Si Si5 0.483689 0.116820 0.921063
Si Si6 0.018897 0.744414 0.583957
Si Si7 0.623660 0.061614 0.200053
Si Si8 0.249845 0.342374 0.196516
O O1 0.358197 0.726840 0.567106
O O2 0.348182 0.781108 0.822790
O O3 0.330718 0.674198 0.803904
O O4 0.459139 0.720459 0.916703
O O5 0.274350 0.314587 0.743496
O O6 0.403361 0.267189 0.833748
O O7 0.293882 0.208099 0.778440
O O8 0.666601 0.110431 0.163549
O O9 0.729004 0.161698 0.475632
O O10 0.150150 0.501892 0.173797
O O11 0.223972 0.401263 0.233366
O O12 0.092078 0.407022 0.141888
O O13 0.136338 0.435147 0.910240
O O14 0.500000 0.118859 0.750000
O O15 0.485486 0.180539 0.988604
O O16 0.542650 0.076282 0.070483
O O17 0.000000 0.743087 0.750000
#
# Coordination Sequence:
#
# PCOD9301446 Si02
#       8
#     8   8   8   8   8   8   8   8
#     4   9  16  31  52  70  89 121 160 195 232 280
#     4   9  16  31  52  70  89 121 160 195 232 280
#     4   8  16  30  50  71  90 117 160 201 231 272
#     4  11  21  34  50  69  94 127 163 199 235 273
#     4  11  22  34  45  65  98 133 167 195 224 274
#     4  11  21  30  44  73 104 127 152 191 241 286
#     4  11  21  34  50  69  94 127 163 199 235 273
#     4   8  16  30  50  71  90 117 160 201 231 272
#
# _framework density 17.071484999999999
#
# number of rings (size 3 to 8) (size 9 to 14) (size 15 to 20)
#    0.000    2.250    2.500    3.375    0.000    1.000 
#    0.000    5.000    0.000    0.000    0.000    0.875 
#    0.000    0.000    0.000    0.000    0.000    0.000 
#
# Total GULP energy -178477.493165 kJ/mol
# GULP energy per Si atom -5577.421661 kJ/mol
# Density = 1.703263 g / cm^3
# Si number density = 17.071485 Si / 1000 Ang^3
#
#
#
# Elastic Constant Matrix: (Units=GPa)
#
#
# Indices 1 2 3 4 5 6 
#
# 1 109.1939 41.9749 -2.7205 0.0000 1.8649 0.0000
# 2 41.9749 71.2443 -5.1750 0.0000 -0.4200 0.0000
# 3 -2.7205 -5.1750 8.9371 0.0000 -3.5923 0.0000
# 4 0.0000 0.0000 0.0000 17.8451 0.0000 -4.2067
# 5 1.8649 -0.4200 -3.5923 0.0000 12.7598 0.0000
# 6 0.0000 0.0000 0.0000 -4.2067 0.0000 33.4853
#
#
#
# Elastic Compliance Matrix: (Units=1/GPa)
#
#
# Indices 1 2 3 4 5 6 
#
# 1 0.011905 -0.007135 -0.001467 0.000000 -0.002388 0.000000
# 2 -0.007135 0.019048 0.010745 0.000000 0.004695 0.000000
# 3 -0.001467 0.010745 0.132941 0.000000 0.037996 0.000000
# 4 0.000000 0.000000 0.000000 0.057748 0.000000 0.007255
# 5 -0.002388 0.004695 0.037996 0.000000 0.089572 0.000000
# 6 0.000000 0.000000 0.000000 0.007255 0.000000 0.030775
#
#
# Mechanical properties :
#
#
# Convention : Reuss Voigt Hill
#
# Bulk Modulus (GPa) = 5.94601 28.61491 17.28046
# Shear Modulus (GPa) = 12.69800 23.17108 17.93454
#
# Velocity S-wave (km/s) = 2.73025 3.68815 3.24474
# Velocity P-wave (km/s) = 3.66464 5.91057 4.91754
#
# Compressibility (1/GPa) = 0.16817998
#
# Stress axis : x y z
#
# Youngs Moduli (GPa) = 83.99940 52.49926 7.52213
#
# Poissons Ratio (x) = 0.37456 0.01104
# Poissons Ratio (y) = 0.59930 -0.08082
# Poissons Ratio (z) = 0.12325 -0.56410
#
# Static dielectric constant tensor:
#      x y z
#    x 1.589510 0.000000 -0.008410 
#    y 0.000000 1.595040 0.000000 
#    z -0.008410 0.000000 1.610240 
# 
# From -- ./inp_files/57888.got.cif
#   From: 2010.05.17/outbox.cif.g08.bks.cpg/sg15_29_cif.got.tgz:57888.got - 2010.06.03 18:47:42.
