data_PCOD9301660
_publ_section_title
;
Structure prediction by ZEFSAII (Michael W. Deem and Ramdas Pophale) SiO2 
 PCOD9301660
Probable space group: C 2/C
;
_chemical_formula_sum "Si O2"
_cell_formula_units_Z 40
_cell_length_a 19.436865
_cell_length_b 6.270755
_cell_length_c 24.974530
_cell_angle_alpha 90.000000
_cell_angle_beta 141.561655
_cell_angle_gamma 90.000000
_cell_volume 1892.364403
_symmetry_space_group_name_H-M "C 2/C"
_symmetry_group_IT_number 15
_symmetry_cell_setting 'monoclinic'
loop_
_space_group_symop_operation_xyz
x,y,z
-x,y,1/2-z
-x,-y,-z
x,-y,1/2+z
1/2+x,1/2+y,z
1/2-x,1/2+y,1/2-z
1/2-x,1/2-y,-z
1/2+x,1/2-y,1/2+z
loop_
_atom_site_type_symbol
_atom_site_label
_atom_site_fract_x
_atom_site_fract_y
_atom_site_fract_z
Si Si1 0.676236 0.308237 0.066408
Si Si2 0.636035 0.658888 0.954043
Si Si3 0.231889 0.350729 0.261731
Si Si4 0.099973 0.811678 0.850620
Si Si5 0.977298 0.429440 0.098034
O O1 0.697303 0.353525 0.140758
O O2 0.785154 0.185830 0.110914
O O3 0.667459 0.515872 0.023995
O O4 0.568233 0.175510 0.983878
O O5 0.583388 0.528735 0.872851
O O6 0.543862 0.822206 0.917524
O O7 0.750000 0.750000 0.000000
O O8 0.251175 0.598578 0.249235
O O9 0.099390 0.359471 0.187404
O O10 0.101058 0.644616 0.900246
O O11 0.000000 0.764098 0.750000
#
# Coordination Sequence:
#
# PCOD9301660 Si02
#       5
#     8   8   8   8   8
#     4  11  24  44  72 105 147 182 239 304 370 439
#     4  11  21  37  69 109 143 179 226 293 386 456
#     4  12  32  52  72 104 144 202 265 300 347 420
#     4  11  21  38  68 110 142 178 228 296 385 448
#     4  11  24  45  72 103 144 186 234 303 371 435
#
# _framework density 21.13758
#
# number of rings (size 3 to 8) (size 9 to 14) (size 15 to 20)
#    0.000    0.800    6.000    1.200    8.400    4.000 
#    0.000    0.000    0.000    0.000    0.000    0.000 
#    0.000    0.000    0.000    0.000    0.000    0.000 
#
# Total GULP energy -111394.551792 kJ/mol
# GULP energy per Si atom -5569.727590 kJ/mol
# Density = 2.108947 g / cm^3
# Si number density = 21.137580 Si / 1000 Ang^3
#
#
#
# Elastic Constant Matrix: (Units=GPa)
#
#
# Indices 1 2 3 4 5 6 
#
# 1 28.8811 23.8967 -0.0889 0.0000 -12.8780 0.0001
# 2 23.8967 106.9183 18.9030 -0.0001 -22.1246 0.0006
# 3 -0.0889 18.9030 98.6852 0.0000 -28.0155 0.0000
# 4 0.0000 -0.0001 0.0000 22.2869 0.0000 14.3131
# 5 -12.8780 -22.1246 -28.0155 0.0000 34.0309 0.0000
# 6 0.0001 0.0006 0.0000 14.3131 0.0000 12.0044
#
#
#
# Elastic Compliance Matrix: (Units=1/GPa)
#
#
# Indices 1 2 3 4 5 6 
#
# 1 0.050355 -0.008502 0.007196 -0.000001 0.019452 0.000001
# 2 -0.008502 0.012243 -0.001313 0.000002 0.003661 -0.000003
# 3 0.007196 -0.001313 0.014253 0.000000 0.013603 0.000000
# 4 -0.000001 0.000002 0.000000 0.191531 0.000001 -0.228367
# 5 0.019452 0.003661 0.013603 0.000001 0.050325 -0.000001
# 6 0.000001 -0.000003 0.000000 -0.228367 -0.000001 0.355589
#
#
# Mechanical properties :
#
#
# Convention : Reuss Voigt Hill
#
# Bulk Modulus (GPa) = 13.96392 35.54514 24.75453
# Shear Modulus (GPa) = 7.10828 26.44935 16.77881
#
# Velocity S-wave (km/s) = 1.83580 3.54120 2.82049
# Velocity P-wave (km/s) = 3.33378 5.79420 4.72688
#
# Compressibility (1/GPa) = 0.07161311
#
# Stress axis : x y z
#
# Youngs Moduli (GPa) = 19.85901 81.68027 70.16079
#
# Poissons Ratio (x) = 0.69441 -0.50489
# Poissons Ratio (y) = 0.16883 0.09215
# Poissons Ratio (z) = -0.14291 0.10728
#
# Static dielectric constant tensor:
#      x y z
#    x 1.787220 0.000000 0.010370 
#    y 0.000000 1.891570 0.000000 
#    z 0.010370 0.000000 1.712090 
# 
# From -- ./inp_files/170570.got.cif
#   From: 2010.05.17/outbox.cif.g08.bks.cpg/sg15_86_cif.got.tgz:170570.got - 2010.06.03 18:47:42.
