data_PCOD9301490
_publ_section_title
;
Structure prediction by ZEFSAII (Michael W. Deem and Ramdas Pophale) SiO2 
 PCOD9301490
Probable space group: C 2/C
;
_chemical_formula_sum "Si O2"
_cell_formula_units_Z 48
_cell_length_a 12.759745
_cell_length_b 8.942425
_cell_length_c 22.825126
_cell_angle_alpha 90.000000
_cell_angle_beta 44.208850
_cell_angle_gamma 90.000000
_cell_volume 1815.996873
_symmetry_space_group_name_H-M "C 2/C"
_symmetry_group_IT_number 15
_symmetry_cell_setting 'monoclinic'
loop_
_space_group_symop_operation_xyz
x,y,z
-x,y,1/2-z
-x,-y,-z
x,-y,1/2+z
1/2+x,1/2+y,z
1/2-x,1/2+y,1/2-z
1/2-x,1/2-y,-z
1/2+x,1/2-y,1/2+z
loop_
_atom_site_type_symbol
_atom_site_label
_atom_site_fract_x
_atom_site_fract_y
_atom_site_fract_z
Si Si1 0.007750 0.889308 0.558501
Si Si2 0.073430 0.717857 0.337138
Si Si3 0.977497 0.715916 0.833825
Si Si4 0.822684 0.626479 0.077898
Si Si5 0.240929 0.518506 0.697649
Si Si6 0.305591 0.950354 0.972396
O O1 0.951842 0.808060 0.640451
O O2 0.077700 0.759038 0.491209
O O3 0.134821 0.006844 0.526714
O O4 0.853927 0.970058 0.600407
O O5 0.133910 0.630295 0.371530
O O6 0.143876 0.622212 0.256798
O O7 0.143008 0.883570 0.308925
O O8 0.892999 0.696602 0.414656
O O9 0.851204 0.827009 0.860092
O O10 0.891320 0.581368 0.901304
O O11 0.110775 0.642238 0.743136
O O12 0.838439 0.484224 0.028379
#
# Coordination Sequence:
#
# PCOD9301490 Si02
#       6
#     8   8   8   8   8   8
#     4   9  17  35  58  82 115 150 192 237 288 345
#     4  11  22  35  58  86 116 157 193 240 291 349
#     4   8  16  34  56  84 113 149 188 233 289 345
#     4   9  18  35  62  85 111 153 204 235 274 359
#     4  11  21  35  54  86 119 156 190 241 297 342
#     4   8  17  34  57  85 113 146 189 243 289 340
#
# _framework density 26.431764000000001
#
# number of rings (size 3 to 8) (size 9 to 14) (size 15 to 20)
#    0.000    2.667    1.667    2.500    0.000    2.000 
#    0.000    0.000    0.000    2.000   13.000    0.000 
#    0.000    0.000    0.000    0.000    0.000    0.000 
#
# Total GULP energy -133982.560635 kJ/mol
# GULP energy per Si atom -5582.606693 kJ/mol
# Density = 2.637160 g / cm^3
# Si number density = 26.431764 Si / 1000 Ang^3
#
#
#
# Elastic Constant Matrix: (Units=GPa)
#
#
# Indices 1 2 3 4 5 6 
#
# 1 55.3538 -15.7633 27.8123 0.0000 -11.5632 0.0000
# 2 -15.7633 89.5634 16.2415 0.0000 -10.7342 0.0000
# 3 27.8123 16.2415 90.2081 0.0000 -56.9585 0.0000
# 4 0.0000 0.0000 0.0000 45.5155 0.0000 -14.8862
# 5 -11.5632 -10.7342 -56.9585 0.0000 45.4458 0.0000
# 6 0.0000 0.0000 0.0000 -14.8862 0.0000 26.7866
#
#
#
# Elastic Compliance Matrix: (Units=1/GPa)
#
#
# Indices 1 2 3 4 5 6 
#
# 1 0.026214 0.006194 -0.019470 0.000000 -0.016269 0.000000
# 2 0.006194 0.013009 -0.006311 0.000000 -0.003261 0.000000
# 3 -0.019470 -0.006311 0.067848 0.000000 0.078591 0.000000
# 4 0.000000 0.000000 0.000000 0.026851 0.000000 0.014922
# 5 -0.016269 -0.003261 0.078591 0.000000 0.115595 0.000000
# 6 0.000000 0.000000 0.000000 0.014922 0.000000 0.045625
#
#
# Mechanical properties :
#
#
# Convention : Reuss Voigt Hill
#
# Bulk Modulus (GPa) = 14.72800 32.41183 23.56992
# Shear Modulus (GPa) = 14.00768 37.33856 25.67312
#
# Velocity S-wave (km/s) = 2.30458 3.76259 3.11995
# Velocity P-wave (km/s) = 3.55888 5.58258 4.68139
#
# Compressibility (1/GPa) = 0.06789787
#
# Stress axis : x y z
#
# Youngs Moduli (GPa) = 38.14827 76.86913 14.73880
#
# Poissons Ratio (x) = -0.47616 0.28696
# Poissons Ratio (y) = -0.23631 0.09302
# Poissons Ratio (z) = 0.74274 0.48513
#
# Static dielectric constant tensor:
#      x y z
#    x 2.169440 0.000000 -0.040110 
#    y 0.000000 2.076410 0.000000 
#    z -0.040110 0.000000 2.088740 
# 
# From -- ./inp_files/295410.got.cif
#   From: 2010.05.17/outbox.cif.g08.bks.cpg/sg15_148_cif.got.tgz:295410.got - 2010.06.03 18:47:42.
