data_PCOD9301535
_publ_section_title
;
Structure prediction by ZEFSAII (Michael W. Deem and Ramdas Pophale) SiO2 
 PCOD9301535
Probable space group: C 2/C
;
_chemical_formula_sum "Si O2"
_cell_formula_units_Z 48
_cell_length_a 19.375222
_cell_length_b 17.295970
_cell_length_c 9.603089
_cell_angle_alpha 90.000000
_cell_angle_beta 132.673219
_cell_angle_gamma 90.000000
_cell_volume 2366.064987
_symmetry_space_group_name_H-M "C 2/C"
_symmetry_group_IT_number 15
_symmetry_cell_setting 'monoclinic'
loop_
_space_group_symop_operation_xyz
x,y,z
-x,y,1/2-z
-x,-y,-z
x,-y,1/2+z
1/2+x,1/2+y,z
1/2-x,1/2+y,1/2-z
1/2-x,1/2-y,-z
1/2+x,1/2-y,1/2+z
loop_
_atom_site_type_symbol
_atom_site_label
_atom_site_fract_x
_atom_site_fract_y
_atom_site_fract_z
Si Si1 0.952707 0.232713 0.556394
Si Si2 0.514873 0.854767 0.109289
Si Si3 0.784916 0.174119 0.135815
Si Si4 0.774175 0.593398 0.692236
Si Si5 0.295891 0.823867 0.490517
Si Si6 0.170509 0.578032 0.199036
O O1 0.012017 0.282166 0.526269
O O2 0.876418 0.190703 0.354162
O O3 0.895616 0.296338 0.567881
O O4 0.000000 0.186573 0.750000
O O5 0.500000 0.834242 0.250000
O O6 0.621768 0.879918 0.221427
O O7 0.441135 0.922120 0.974790
O O8 0.710402 0.140301 0.143832
O O9 0.750000 0.250000 0.000000
O O10 0.794482 0.109186 0.030090
O O11 0.744827 0.645987 0.782525
O O12 0.785068 0.505911 0.756504
O O13 0.250000 0.750000 0.500000
O O14 0.306126 0.891136 0.615864
#
# Coordination Sequence:
#
# PCOD9301535 Si02
#       6
#     8   8   8   8   8   8
#     4  11  22  38  59  88 120 162 212 258 298 356
#     4  11  21  36  57  89 133 164 194 240 310 386
#     4  12  21  41  63  86 124 168 214 256 297 373
#     4  11  24  37  58  92 126 165 201 250 309 374
#     4  11  21  37  59  85 117 161 205 247 300 365
#     4  12  22  37  60  92 127 162 200 251 317 372
#
# _framework density 20.286847000000002
#
# number of rings (size 3 to 8) (size 9 to 14) (size 15 to 20)
#    0.000    0.667    8.333    1.500    0.000    0.000 
#    0.000    0.000    0.000    1.000    0.000    0.000 
#    0.000    0.000    0.000    0.000    0.000    0.000 
#
# Total GULP energy -133860.339259 kJ/mol
# GULP energy per Si atom -5577.514136 kJ/mol
# Density = 2.024067 g / cm^3
# Si number density = 20.286847 Si / 1000 Ang^3
#
#
#
# Elastic Constant Matrix: (Units=GPa)
#
#
# Indices 1 2 3 4 5 6 
#
# 1 62.7286 33.1216 30.0606 0.0000 -32.1117 0.0000
# 2 33.1216 78.6164 39.4317 0.0000 -5.0837 0.0000
# 3 30.0606 39.4317 170.2215 0.0000 -26.7140 0.0000
# 4 0.0000 0.0000 0.0000 29.3559 0.0000 -2.5298
# 5 -32.1117 -5.0837 -26.7140 0.0000 34.7399 0.0000
# 6 0.0000 0.0000 0.0000 -2.5298 0.0000 20.8906
#
#
#
# Elastic Compliance Matrix: (Units=1/GPa)
#
#
# Indices 1 2 3 4 5 6 
#
# 1 0.044964 -0.017579 0.002559 0.000000 0.040958 0.000000
# 2 -0.017579 0.021273 -0.004418 0.000000 -0.016533 0.000000
# 3 0.002559 -0.004418 0.007638 0.000000 0.007592 0.000000
# 4 0.000000 0.000000 0.000000 0.034424 0.000000 0.004169
# 5 0.040958 -0.016533 0.007592 0.000000 0.070063 0.000000
# 6 0.000000 0.000000 0.000000 0.004169 0.000000 0.048373
#
#
# Mechanical properties :
#
#
# Convention : Reuss Voigt Hill
#
# Bulk Modulus (GPa) = 28.57182 57.42157 42.99669
# Shear Modulus (GPa) = 18.03250 30.92745 24.47998
#
# Velocity S-wave (km/s) = 2.98464 3.90873 3.47752
# Velocity P-wave (km/s) = 5.09823 6.98120 6.11265
#
# Compressibility (1/GPa) = 0.03499952
#
# Stress axis : x y z
#
# Youngs Moduli (GPa) = 22.24002 47.00799 130.92913
#
# Poissons Ratio (x) = 0.82634 -0.33510
# Poissons Ratio (y) = 0.39095 0.57847
# Poissons Ratio (z) = -0.05692 0.20769
#
# Static dielectric constant tensor:
#      x y z
#    x 1.743260 0.000000 0.007470 
#    y 0.000000 1.727770 0.000000 
#    z 0.007470 0.000000 1.861430 
# 
# From -- ./inp_files/57619.got.cif
#   From: 2010.05.17/outbox.cif.g08.bks.cpg/sg15_29_cif.got.tgz:57619.got - 2010.06.03 18:47:42.
