data_PCOD9301306
_publ_section_title
;
Structure prediction by ZEFSAII (Michael W. Deem and Ramdas Pophale) SiO2 
 PCOD9301306
Probable space group: C 2/C
;
_chemical_formula_sum "Si O2"
_cell_formula_units_Z 40
_cell_length_a 12.025015
_cell_length_b 13.613520
_cell_length_c 16.059706
_cell_angle_alpha 90.000000
_cell_angle_beta 141.726653
_cell_angle_gamma 90.000000
_cell_volume 1628.450637
_symmetry_space_group_name_H-M "C 2/C"
_symmetry_group_IT_number 15
_symmetry_cell_setting 'monoclinic'
loop_
_space_group_symop_operation_xyz
x,y,z
-x,y,1/2-z
-x,-y,-z
x,-y,1/2+z
1/2+x,1/2+y,z
1/2-x,1/2+y,1/2-z
1/2-x,1/2-y,-z
1/2+x,1/2-y,1/2+z
loop_
_atom_site_type_symbol
_atom_site_label
_atom_site_fract_x
_atom_site_fract_y
_atom_site_fract_z
Si Si1 0.825296 0.554338 0.055619
Si Si2 0.000000 0.715580 0.250000
Si Si3 0.000000 0.370791 0.250000
Si Si4 0.436825 0.233100 0.560406
Si Si5 0.476069 0.602506 0.943697
Si Si6 0.714698 0.879101 0.139000
O O1 0.977963 0.637123 0.161221
O O2 0.871970 0.450987 0.127704
O O3 0.657031 0.611030 0.996772
O O4 0.784869 0.543139 0.934974
O O5 0.832813 0.786598 0.173653
O O6 0.061367 0.294812 0.213944
O O7 0.250000 0.250000 0.500000
O O8 0.459531 0.322797 0.510436
O O9 0.510380 0.147874 0.542171
O O10 0.318149 0.592813 0.783540
O O11 0.500000 0.500000 0.000000
#
# Coordination Sequence:
#
# PCOD9301306 Si02
#       6
#     8   4   4   8   8   8
#     4  11  23  45  77 110 150 188 258 324 374 453
#     4  11  20  40  73 112 140 184 245 316 378 429
#     4  11  28  52  71 116 154 206 253 306 388 463
#     4  12  26  49  71 101 159 200 250 303 383 466
#     4  12  25  46  73 108 150 196 254 314 378 458
#     4  12  23  44  78 113 144 193 255 316 386 447
#
# _framework density 24.563227000000001
#
# number of rings (size 3 to 8) (size 9 to 14) (size 15 to 20)
#    0.000    0.400    4.000    5.400    0.000    0.800 
#   10.800    0.000    0.000    0.000    0.000    0.000 
#    0.000    0.000    0.000    0.000    0.000    0.000 
#
# Total GULP energy -111412.166497 kJ/mol
# GULP energy per Si atom -5570.608325 kJ/mol
# Density = 2.450732 g / cm^3
# Si number density = 24.563227 Si / 1000 Ang^3
#
#
#
# Elastic Constant Matrix: (Units=GPa)
#
#
# Indices 1 2 3 4 5 6 
#
# 1 166.2826 49.0258 61.1675 0.0004 -21.0599 0.0002
# 2 49.0258 116.6288 96.2535 0.0003 -18.3809 0.0002
# 3 61.1675 96.2535 149.4795 0.0009 -44.2669 0.0006
# 4 0.0004 0.0003 0.0009 28.9190 0.0005 3.5448
# 5 -21.0599 -18.3809 -44.2669 0.0005 54.6697 0.0003
# 6 0.0002 0.0002 0.0006 3.5448 0.0003 33.0375
#
#
#
# Elastic Compliance Matrix: (Units=1/GPa)
#
#
# Indices 1 2 3 4 5 6 
#
# 1 0.007195 -0.001428 -0.001771 0.000000 0.000858 0.000000
# 2 -0.001428 0.019447 -0.013371 0.000000 -0.004838 0.000000
# 3 -0.001771 -0.013371 0.019062 -0.000001 0.010257 0.000000
# 4 0.000000 0.000000 -0.000001 0.035040 -0.000001 -0.003760
# 5 0.000858 -0.004838 0.010257 -0.000001 0.025301 0.000000
# 6 0.000000 0.000000 0.000000 -0.003760 0.000000 0.030672
#
#
# Mechanical properties :
#
#
# Convention : Reuss Voigt Hill
#
# Bulk Modulus (GPa) = 79.58808 93.92049 86.75429
# Shear Modulus (GPa) = 28.72855 38.38819 33.55837
#
# Velocity S-wave (km/s) = 3.42362 3.95756 3.70023
# Velocity P-wave (km/s) = 6.93541 7.69430 7.32469
#
# Compressibility (1/GPa) = 0.01256470
#
# Stress axis : x y z
#
# Youngs Moduli (GPa) = 138.98863 51.42245 52.46122
#
# Poissons Ratio (x) = 0.07342 0.09289
# Poissons Ratio (y) = 0.19846 0.70145
# Poissons Ratio (z) = 0.24610 0.68756
#
# Static dielectric constant tensor:
#      x y z
#    x 2.146180 0.000000 0.053270 
#    y 0.000000 1.915850 0.000000 
#    z 0.053270 0.000000 2.003380 
# 
# From -- ./inp_files/143960.got.cif
#   From: 2010.05.17/outbox.cif.g08.bks.cpg/sg15_72_cif.got.tgz:143960.got - 2010.06.03 18:47:42.
