data_PCOD9301897
_publ_section_title
;
Structure prediction by ZEFSAII (Michael W. Deem and Ramdas Pophale) SiO2 
 PCOD9301897
Probable space group: C 2/C
;
_chemical_formula_sum "Si O2"
_cell_formula_units_Z 56
_cell_length_a 23.767320
_cell_length_b 14.345606
_cell_length_c 9.637563
_cell_angle_alpha 90.000000
_cell_angle_beta 57.912210
_cell_angle_gamma 90.000000
_cell_volume 2784.006889
_symmetry_space_group_name_H-M "C 2/C"
_symmetry_group_IT_number 15
_symmetry_cell_setting 'monoclinic'
loop_
_space_group_symop_operation_xyz
x,y,z
-x,y,1/2-z
-x,-y,-z
x,-y,1/2+z
1/2+x,1/2+y,z
1/2-x,1/2+y,1/2-z
1/2-x,1/2-y,-z
1/2+x,1/2-y,1/2+z
loop_
_atom_site_type_symbol
_atom_site_label
_atom_site_fract_x
_atom_site_fract_y
_atom_site_fract_z
Si Si1 0.731494 0.954355 0.457418
Si Si2 0.805912 0.387739 0.698015
Si Si3 0.417658 0.736793 0.205092
Si Si4 0.958046 0.959963 0.681289
Si Si5 0.810623 0.740349 0.620803
Si Si6 0.571766 0.232409 0.483207
Si Si7 0.629184 0.623272 0.690979
O O1 0.716567 0.948204 0.640045
O O2 0.702535 0.859599 0.429511
O O3 0.809981 0.939343 0.334940
O O4 0.704723 0.046993 0.420828
O O5 0.757496 0.296667 0.755728
O O6 0.881388 0.353835 0.621154
O O7 0.414402 0.625261 0.185221
O O8 0.358598 0.774909 0.188502
O O9 0.411075 0.755337 0.377030
O O10 0.492013 0.772835 0.068626
O O11 0.000000 0.914536 0.750000
O O12 0.921881 0.047290 0.797983
O O13 0.000000 0.000000 0.500000
O O14 0.845909 0.805327 0.458308
O O15 0.596567 0.319059 0.358475
#
# Coordination Sequence:
#
# PCOD9301897 Si02
#       7
#     8   8   8   8   8   8   8
#     4  11  24  43  68  97 123 168 219 265 315 381
#     4  11  24  45  68  95 128 168 214 270 318 375
#     4  11  24  39  62  97 130 172 212 261 323 379
#     4  12  21  35  57  95 131 164 205 247 312 394
#     4  11  23  43  66  96 128 169 216 257 324 385
#     4  11  22  43  63  88 137 168 206 268 323 370
#     4  11  21  40  64  90 136 169 202 263 323 379
#
# _framework density 20.114892000000001
#
# number of rings (size 3 to 8) (size 9 to 14) (size 15 to 20)
#    0.000    0.857    5.714    2.571    2.000    5.143 
#    0.000    0.714    0.000    0.000    0.000    0.000 
#    0.000    0.000    0.000    0.000    0.000    0.000 
#
# Total GULP energy -156396.201365 kJ/mol
# GULP energy per Si atom -5585.578620 kJ/mol
# Density = 2.006911 g / cm^3
# Si number density = 20.114892 Si / 1000 Ang^3
#
#
#
# Elastic Constant Matrix: (Units=GPa)
#
#
# Indices 1 2 3 4 5 6 
#
# 1 71.3915 3.7599 12.5616 0.0000 10.6616 0.0000
# 2 3.7599 24.8971 -2.6059 0.0000 -10.8138 0.0000
# 3 12.5616 -2.6059 54.7333 0.0000 -4.8188 0.0000
# 4 0.0000 0.0000 0.0000 19.1628 0.0000 5.8691
# 5 10.6616 -10.8138 -4.8188 0.0000 22.3056 0.0000
# 6 0.0000 0.0000 0.0000 5.8691 0.0000 37.8379
#
#
#
# Elastic Compliance Matrix: (Units=1/GPa)
#
#
# Indices 1 2 3 4 5 6 
#
# 1 0.017650 -0.009466 -0.005758 0.000000 -0.014269 0.000000
# 2 -0.009466 0.057161 0.007882 0.000000 0.033939 0.000000
# 3 -0.005758 0.007882 0.020944 0.000000 0.011098 0.000000
# 4 0.000000 0.000000 0.000000 0.054787 0.000000 -0.008498
# 5 -0.014269 0.033939 0.011098 0.000000 0.070503 0.000000
# 6 0.000000 0.000000 0.000000 -0.008498 0.000000 0.027747
#
#
# Mechanical properties :
#
#
# Convention : Reuss Voigt Hill
#
# Bulk Modulus (GPa) = 12.33474 19.82813 16.08143
# Shear Modulus (GPa) = 17.21177 25.01499 21.11338
#
# Velocity S-wave (km/s) = 2.92836 3.53030 3.24333
# Velocity P-wave (km/s) = 4.19276 5.14745 4.69443
#
# Compressibility (1/GPa) = 0.08107185
#
# Stress axis : x y z
#
# Youngs Moduli (GPa) = 56.65780 17.49452 47.74592
#
# Poissons Ratio (x) = 0.16560 0.27491
# Poissons Ratio (y) = 0.53631 -0.37633
# Poissons Ratio (z) = 0.32622 -0.13789
#
# Static dielectric constant tensor:
#      x y z
#    x 2.790490 0.000000 -0.590130 
#    y 0.000000 1.691630 0.000000 
#    z -0.590130 0.000000 2.028540 
# 
# From -- ./inp_files/61821.got.cif
#   From: 2010.05.17/outbox.cif.g08.bks.cpg/sg15_31_cif.got.tgz:61821.got - 2010.06.03 18:47:42.
