data_PCOD9301110
_publ_section_title
;
Structure prediction by ZEFSAII (Michael W. Deem and Ramdas Pophale) SiO2 
 PCOD9301110
Probable space group: C 2/C
;
_chemical_formula_sum "Si O2"
_cell_formula_units_Z 52
_cell_length_a 5.344815
_cell_length_b 27.661205
_cell_length_c 15.454000
_cell_angle_alpha 90.000000
_cell_angle_beta 72.321138
_cell_angle_gamma 90.000000
_cell_volume 2176.879491
_symmetry_space_group_name_H-M "C 2/C"
_symmetry_group_IT_number 15
_symmetry_cell_setting 'monoclinic'
loop_
_space_group_symop_operation_xyz
x,y,z
-x,y,1/2-z
-x,-y,-z
x,-y,1/2+z
1/2+x,1/2+y,z
1/2-x,1/2+y,1/2-z
1/2-x,1/2-y,-z
1/2+x,1/2-y,1/2+z
loop_
_atom_site_type_symbol
_atom_site_label
_atom_site_fract_x
_atom_site_fract_y
_atom_site_fract_z
Si Si1 0.500000 0.930744 0.250000
Si Si2 0.375027 0.860780 0.981780
Si Si3 0.500000 0.661016 0.250000
Si Si4 0.621493 0.207920 0.569398
Si Si5 0.000000 0.003380 0.750000
Si Si6 0.369925 0.926126 0.673733
Si Si7 0.898314 0.145785 0.661169
Si Si8 0.280543 0.779137 0.847513
O O1 0.251802 0.963102 0.244670
O O2 0.338278 0.892891 0.325448
O O3 0.434749 0.909265 0.921717
O O4 0.336681 0.814891 0.921099
O O5 0.613344 0.841313 0.015427
O O6 0.131645 0.867541 0.071376
O O7 0.260481 0.624734 0.286138
O O8 0.466029 0.695101 0.172597
O O9 0.750000 0.250000 0.500000
O O10 0.770672 0.196210 0.642233
O O11 0.325774 0.226715 0.615896
O O12 0.857425 0.964096 0.828969
O O13 0.500000 0.943665 0.750000
O O14 0.000000 0.145337 0.750000
O O15 0.500000 0.778334 0.750000
#
# Coordination Sequence:
#
# PCOD9301110 Si02
#       8
#     4   8   4   8   4   8   8   8
#     4  12  26  57  80 123 156 213 268 325 412 498
#     4  12  25  48  72 113 157 212 267 331 398 475
#     4  11  20  37  68 108 156 200 252 323 404 473
#     4  12  28  47  70 109 157 213 276 331 379 469
#     4  11  26  48  90 119 162 195 266 340 408 507
#     4  11  22  44  79 120 155 201 249 333 422 475
#     4  12  29  52  81 106 156 221 269 330 402 474
#     4  12  25  42  68 108 159 207 272 328 390 458
#
# _framework density 23.887404
#
# number of rings (size 3 to 8) (size 9 to 14) (size 15 to 20)
#    0.000    0.308    6.154    2.308    0.000    3.692 
#    0.000    1.538    0.000    0.000    0.000    0.000 
#    0.000    0.000    0.000    0.000    0.000    0.000 
#
# Total GULP energy -145242.755976 kJ/mol
# GULP energy per Si atom -5586.259845 kJ/mol
# Density = 2.383304 g / cm^3
# Si number density = 23.887404 Si / 1000 Ang^3
#
#
#
# Elastic Constant Matrix: (Units=GPa)
#
#
# Indices 1 2 3 4 5 6 
#
# 1 134.0212 53.5079 67.3829 0.0000 -8.3107 0.0000
# 2 53.5079 113.7774 56.6660 0.0000 -6.2010 0.0000
# 3 67.3829 56.6660 166.5019 0.0000 -25.4412 0.0000
# 4 0.0000 0.0000 0.0000 14.8192 0.0000 -4.8948
# 5 -8.3107 -6.2010 -25.4412 0.0000 56.6769 0.0000
# 6 0.0000 0.0000 0.0000 -4.8948 0.0000 77.8964
#
#
#
# Elastic Compliance Matrix: (Units=1/GPa)
#
#
# Indices 1 2 3 4 5 6 
#
# 1 0.010327 -0.003336 -0.003080 0.000000 -0.000233 0.000000
# 2 -0.003336 0.011673 -0.002687 0.000000 -0.000418 0.000000
# 3 -0.003080 -0.002687 0.008646 0.000000 0.003135 0.000000
# 4 0.000000 0.000000 0.000000 0.068910 0.000000 0.004330
# 5 -0.000233 -0.000418 0.003135 0.000000 0.018971 0.000000
# 6 0.000000 0.000000 0.000000 0.004330 0.000000 0.013110
#
#
# Mechanical properties :
#
#
# Convention : Reuss Voigt Hill
#
# Bulk Modulus (GPa) = 80.37345 85.49046 82.93195
# Shear Modulus (GPa) = 32.46986 45.66142 39.06564
#
# Velocity S-wave (km/s) = 3.69085 4.37684 4.04840
# Velocity P-wave (km/s) = 7.20299 7.83639 7.52635
#
# Compressibility (1/GPa) = 0.01244192
#
# Stress axis : x y z
#
# Youngs Moduli (GPa) = 96.83129 85.66730 115.66334
#
# Poissons Ratio (x) = 0.28575 0.35622
# Poissons Ratio (y) = 0.32299 0.31075
# Poissons Ratio (z) = 0.29822 0.23016
#
# Static dielectric constant tensor:
#      x y z
#    x 2.431670 0.000000 0.008260 
#    y 0.000000 1.924490 0.000000 
#    z 0.008260 0.000000 1.963200 
# 
# From -- ./inp_files/130732.got.cif
#   From: 2010.05.17/outbox.cif.g08.bks.cpg/sg15_66_cif.got.tgz:130732.got - 2010.06.03 18:47:42.
