data_PCOD9301460
_publ_section_title
;
Structure prediction by ZEFSAII (Michael W. Deem and Ramdas Pophale) SiO2 
 PCOD9301460
Probable space group: C 2/C
;
_chemical_formula_sum "Si O2"
_cell_formula_units_Z 44
_cell_length_a 22.788106
_cell_length_b 17.887367
_cell_length_c 8.842466
_cell_angle_alpha 90.000000
_cell_angle_beta 42.832693
_cell_angle_gamma 90.000000
_cell_volume 2450.459041
_symmetry_space_group_name_H-M "C 2/C"
_symmetry_group_IT_number 15
_symmetry_cell_setting 'monoclinic'
loop_
_space_group_symop_operation_xyz
x,y,z
-x,y,1/2-z
-x,-y,-z
x,-y,1/2+z
1/2+x,1/2+y,z
1/2-x,1/2+y,1/2-z
1/2-x,1/2-y,-z
1/2+x,1/2-y,1/2+z
loop_
_atom_site_type_symbol
_atom_site_label
_atom_site_fract_x
_atom_site_fract_y
_atom_site_fract_z
Si Si1 0.104011 0.910704 0.070335
Si Si2 0.156614 0.044577 0.136318
Si Si3 0.423494 0.748965 0.497265
Si Si4 0.500000 0.390057 0.750000
Si Si5 0.403311 0.234395 0.372690
Si Si6 0.256435 0.693559 0.629398
O O1 0.117096 0.822534 0.068227
O O2 0.000000 0.920061 0.250000
O O3 0.157491 0.956602 0.097007
O O4 0.140657 0.939589 0.841282
O O5 0.073470 0.064591 0.191046
O O6 0.223919 0.108026 0.956254
O O7 0.466007 0.666702 0.443436
O O8 0.403012 0.785007 0.695519
O O9 0.337736 0.727981 0.567882
O O10 0.500000 0.785662 0.250000
O O11 0.500000 0.221067 0.250000
O O12 0.329802 0.194590 0.608489
O O13 0.250000 0.750000 0.500000
#
# Coordination Sequence:
#
# PCOD9301460 Si02
#       6
#     8   8   8   4   8   8
#     4  11  22  31  53  79 113 144 181 212 280 333
#     4  11  21  33  50  78 111 150 175 223 266 334
#     4   9  19  32  53  78 108 143 180 224 270 322
#     4   8  16  30  48  72 110 138 172 206 266 322
#     4  11  21  36  56  83 111 149 184 226 274 328
#     4  11  21  37  52  76 116 152 185 226 270 324
#
# _framework density 17.955819999999999
#
# number of rings (size 3 to 8) (size 9 to 14) (size 15 to 20)
#    0.545    1.091    2.727    4.364    5.091    0.000 
#    0.000    0.000    0.000    0.000    0.000    2.545 
#    0.000    0.000    0.000    0.000    0.000    0.000 
#
# Total GULP energy -122518.128350 kJ/mol
# GULP energy per Si atom -5569.005834 kJ/mol
# Density = 1.791495 g / cm^3
# Si number density = 17.955820 Si / 1000 Ang^3
#
#
#
# Elastic Constant Matrix: (Units=GPa)
#
#
# Indices 1 2 3 4 5 6 
#
# 1 38.3765 11.7599 41.0620 0.0000 -1.0967 0.0000
# 2 11.7599 47.8448 23.6918 0.0000 -8.2787 0.0000
# 3 41.0620 23.6918 141.3259 0.0000 4.4329 0.0000
# 4 0.0000 0.0000 0.0000 18.4925 0.0000 -1.4000
# 5 -1.0967 -8.2787 4.4329 0.0000 29.6490 0.0000
# 6 0.0000 0.0000 0.0000 -1.4000 0.0000 13.7962
#
#
#
# Elastic Compliance Matrix: (Units=1/GPa)
#
#
# Indices 1 2 3 4 5 6 
#
# 1 0.038707 -0.003904 -0.010652 0.000000 0.001934 0.000000
# 2 -0.003904 0.024716 -0.003236 0.000000 0.007241 0.000000
# 3 -0.010652 -0.003236 0.010805 0.000000 -0.002913 0.000000
# 4 0.000000 0.000000 0.000000 0.054495 0.000000 0.005530
# 5 0.001934 0.007241 -0.002913 0.000000 0.036257 0.000000
# 6 0.000000 0.000000 0.000000 0.005530 0.000000 0.073045
#
#
# Mechanical properties :
#
#
# Convention : Reuss Voigt Hill
#
# Bulk Modulus (GPa) = 25.87856 42.28608 34.08232
# Shear Modulus (GPa) = 17.45257 22.45644 19.95450
#
# Velocity S-wave (km/s) = 3.12103 3.54029 3.33725
# Velocity P-wave (km/s) = 5.23750 6.34923 5.81997
#
# Compressibility (1/GPa) = 0.03864203
#
# Stress axis : x y z
#
# Youngs Moduli (GPa) = 25.83496 40.45984 92.55181
#
# Poissons Ratio (x) = 0.15797 0.98590
# Poissons Ratio (y) = 0.10087 0.29950
# Poissons Ratio (z) = 0.27521 0.13093
#
# Static dielectric constant tensor:
#      x y z
#    x 1.620290 0.000000 0.024120 
#    y 0.000000 1.656800 0.000000 
#    z 0.024120 0.000000 1.668640 
# 
# From -- ./inp_files/57188.got.cif
#   From: 2010.05.17/outbox.cif.g08.bks.cpg/sg15_29_cif.got.tgz:57188.got - 2010.06.03 18:47:42.
