data_PCOD9301978
_publ_section_title
;
Structure prediction by ZEFSAII (Michael W. Deem and Ramdas Pophale) SiO2 
 PCOD9301978
Probable space group: C 2/C
;
_chemical_formula_sum "Si O2"
_cell_formula_units_Z 52
_cell_length_a 10.018958
_cell_length_b 27.447555
_cell_length_c 16.045702
_cell_angle_alpha 90.000000
_cell_angle_beta 146.475210
_cell_angle_gamma 90.000000
_cell_volume 2437.014984
_symmetry_space_group_name_H-M "C 2/C"
_symmetry_group_IT_number 15
_symmetry_cell_setting 'monoclinic'
loop_
_space_group_symop_operation_xyz
x,y,z
-x,y,1/2-z
-x,-y,-z
x,-y,1/2+z
1/2+x,1/2+y,z
1/2-x,1/2+y,1/2-z
1/2-x,1/2-y,-z
1/2+x,1/2-y,1/2+z
loop_
_atom_site_type_symbol
_atom_site_label
_atom_site_fract_x
_atom_site_fract_y
_atom_site_fract_z
Si Si1 0.080462 0.305001 0.124922
Si Si2 0.676399 0.103412 0.455793
Si Si3 0.000000 0.158453 0.750000
Si Si4 0.758209 0.999836 0.932861
Si Si5 0.331812 0.893055 0.080685
Si Si6 0.298825 0.357895 0.839847
Si Si7 0.199090 0.220060 0.294485
O O1 0.357299 0.310720 0.243348
O O2 0.078940 0.270640 0.204398
O O3 0.964953 0.357701 0.084895
O O4 0.934687 0.279424 0.974276
O O5 0.796771 0.126986 0.598293
O O6 0.774435 0.049294 0.494272
O O7 0.385764 0.104683 0.301580
O O8 0.748036 0.135590 0.411394
O O9 0.500000 0.995055 0.750000
O O10 0.729012 0.050245 0.968570
O O11 0.000000 0.000000 0.000000
O O12 0.500000 0.893782 0.250000
O O13 0.076615 0.869428 0.970097
O O14 0.249505 0.308159 0.764659
O O15 0.000000 0.194051 0.250000
#
# Coordination Sequence:
#
# PCOD9301978 Si02
#       7
#     8   8   4   8   8   8   8
#     4  12  28  45  68 100 139 184 236 298 350 425
#     4  11  23  44  70 102 143 186 236 285 352 424
#     4  12  28  46  66 102 146 180 236 296 356 410
#     4  11  21  40  71 107 139 188 238 290 356 431
#     4  11  23  40  71 105 137 180 236 293 349 413
#     4  11  22  44  70  97 140 184 228 285 353 421
#     4  12  26  46  71  99 135 179 234 290 362 422
#
# _framework density 21.337579999999999
#
# number of rings (size 3 to 8) (size 9 to 14) (size 15 to 20)
#    0.000    0.615    6.154    1.846    6.462    1.846 
#    0.000    2.308    0.000    0.000    0.000    0.000 
#    0.000    0.000    0.000    0.000    0.000    0.000 
#
# Total GULP energy -145157.307904 kJ/mol
# GULP energy per Si atom -5582.973381 kJ/mol
# Density = 2.128901 g / cm^3
# Si number density = 21.337580 Si / 1000 Ang^3
#
#
#
# Elastic Constant Matrix: (Units=GPa)
#
#
# Indices 1 2 3 4 5 6 
#
# 1 71.0260 34.0133 25.7186 0.0000 9.9812 0.0000
# 2 34.0133 94.9312 17.0946 0.0000 -15.8685 0.0000
# 3 25.7186 17.0946 109.1150 0.0000 2.7821 0.0000
# 4 0.0000 0.0000 0.0000 11.8458 0.0000 9.3316
# 5 9.9812 -15.8685 2.7821 0.0000 43.1224 0.0000
# 6 0.0000 0.0000 0.0000 9.3316 0.0000 21.9227
#
#
#
# Elastic Compliance Matrix: (Units=1/GPa)
#
#
# Indices 1 2 3 4 5 6 
#
# 1 0.020042 -0.007804 -0.003315 0.000000 -0.007297 0.000000
# 2 -0.007804 0.014656 -0.000641 0.000000 0.007241 0.000000
# 3 -0.003315 -0.000641 0.010050 0.000000 -0.000117 0.000000
# 4 0.000000 0.000000 0.000000 0.127005 0.000000 -0.054061
# 5 -0.007297 0.007241 -0.000117 0.000000 0.027551 0.000000
# 6 0.000000 0.000000 0.000000 -0.054061 0.000000 0.068626
#
#
# Mechanical properties :
#
#
# Convention : Reuss Voigt Hill
#
# Bulk Modulus (GPa) = 47.11032 47.63614 47.37323
# Shear Modulus (GPa) = 16.74890 28.59455 22.67172
#
# Velocity S-wave (km/s) = 2.80473 3.66471 3.26318
# Velocity P-wave (km/s) = 5.71097 6.34668 6.03720
#
# Compressibility (1/GPa) = 0.02122677
#
# Stress axis : x y z
#
# Youngs Moduli (GPa) = 49.89420 68.23225 99.50697
#
# Poissons Ratio (x) = 0.53247 0.32991
# Poissons Ratio (y) = 0.38936 0.06382
# Poissons Ratio (z) = 0.16542 0.04376
#
# Static dielectric constant tensor:
#      x y z
#    x 1.773450 0.000000 0.029240 
#    y 0.000000 1.824090 0.000000 
#    z 0.029240 0.000000 1.766520 
# 
# From -- ./inp_files/139879.got.cif
#   From: 2010.05.17/outbox.cif.g08.bks.cpg/sg15_70_cif.got.tgz:139879.got - 2010.06.03 18:47:42.
