data_PCOD9301258
_publ_section_title
;
Structure prediction by ZEFSAII (Michael W. Deem and Ramdas Pophale) SiO2 
 PCOD9301258
Probable space group: C 2/C
;
_chemical_formula_sum "Si O2"
_cell_formula_units_Z 56
_cell_length_a 26.526172
_cell_length_b 17.549069
_cell_length_c 9.490685
_cell_angle_alpha 90.000000
_cell_angle_beta 44.145000
_cell_angle_gamma 90.000000
_cell_volume 3077.037223
_symmetry_space_group_name_H-M "C 2/C"
_symmetry_group_IT_number 15
_symmetry_cell_setting 'monoclinic'
loop_
_space_group_symop_operation_xyz
x,y,z
-x,y,1/2-z
-x,-y,-z
x,-y,1/2+z
1/2+x,1/2+y,z
1/2-x,1/2+y,1/2-z
1/2-x,1/2-y,-z
1/2+x,1/2-y,1/2+z
loop_
_atom_site_type_symbol
_atom_site_label
_atom_site_fract_x
_atom_site_fract_y
_atom_site_fract_z
Si Si1 0.356705 0.766763 0.631109
Si Si2 0.645079 0.267676 0.043372
Si Si3 0.554971 0.929719 0.395766
Si Si4 0.776744 0.534685 0.952051
Si Si5 0.256883 0.403377 0.679667
Si Si6 0.500000 0.184636 0.250000
Si Si7 0.739716 0.307458 0.388420
Si Si8 0.500000 0.165403 0.750000
O O1 0.339756 0.737486 0.820788
O O2 0.307928 0.842039 0.704861
O O3 0.332571 0.711435 0.553293
O O4 0.440823 0.786100 0.451532
O O5 0.564498 0.238565 0.175609
O O6 0.670967 0.352314 0.947658
O O7 0.696667 0.211274 0.850388
O O8 0.636623 0.960001 0.245594
O O9 0.532161 0.871310 0.564982
O O10 0.544893 0.885275 0.269581
O O11 0.500000 0.000000 0.500000
O O12 0.745369 0.457628 0.950544
O O13 0.744485 0.607881 0.936549
O O14 0.759018 0.546098 0.151335
O O15 0.750000 0.250000 0.500000
#
# Coordination Sequence:
#
# PCOD9301258 Si02
#       8
#     8   8   8   8   8   4   8   4
#     4  11  23  40  62  90 129 161 211 264 310 377
#     4  11  24  42  62  92 123 166 220 260 317 371
#     4  12  25  38  58  93 135 166 203 251 325 394
#     4  12  25  39  63  90 129 166 212 251 329 375
#     4  11  25  40  61  91 126 168 209 265 304 386
#     4  12  25  40  68  89 124 176 210 266 314 383
#     4  11  20  40  63  88 118 166 211 260 305 379
#     4  12  21  40  56  91 126 160 202 256 318 371
#
# _framework density 18.199324000000001
#
# number of rings (size 3 to 8) (size 9 to 14) (size 15 to 20)
#    0.000    0.571    7.143    3.000    6.000    0.000 
#    0.000    0.000    0.000    1.714    0.000    0.000 
#    0.000    0.000    0.000    0.000    0.000    0.000 
#
# Total GULP energy -156459.202076 kJ/mol
# GULP energy per Si atom -5587.828646 kJ/mol
# Density = 1.815790 g / cm^3
# Si number density = 18.199324 Si / 1000 Ang^3
#
#
#
# Elastic Constant Matrix: (Units=GPa)
#
#
# Indices 1 2 3 4 5 6 
#
# 1 75.9048 28.3356 16.6047 0.0000 0.9485 0.0000
# 2 28.3356 55.9803 14.0938 0.0000 -10.0576 0.0000
# 3 16.6047 14.0938 70.4443 0.0000 8.3704 0.0000
# 4 0.0000 0.0000 0.0000 5.7780 0.0000 5.5914
# 5 0.9485 -10.0576 8.3704 0.0000 34.3380 0.0000
# 6 0.0000 0.0000 0.0000 5.5914 0.0000 36.1738
#
#
#
# Elastic Compliance Matrix: (Units=1/GPa)
#
#
# Indices 1 2 3 4 5 6 
#
# 1 0.016789 -0.008441 -0.001977 0.000000 -0.002454 0.000000
# 2 -0.008441 0.024639 -0.003939 0.000000 0.008410 0.000000
# 3 -0.001977 -0.003939 0.016045 0.000000 -0.005010 0.000000
# 4 0.000000 0.000000 0.000000 0.203511 0.000000 -0.031457
# 5 -0.002454 0.008410 -0.005010 0.000000 0.032875 0.000000
# 6 0.000000 0.000000 0.000000 -0.031457 0.000000 0.032507
#
#
# Mechanical properties :
#
#
# Convention : Reuss Voigt Hill
#
# Bulk Modulus (GPa) = 34.77267 35.59974 35.18621
# Shear Modulus (GPa) = 13.71119 24.81099 19.26109
#
# Velocity S-wave (km/s) = 2.74777 3.69628 3.25674
# Velocity P-wave (km/s) = 5.40510 6.14981 5.78944
#
# Compressibility (1/GPa) = 0.02875822
#
# Stress axis : x y z
#
# Youngs Moduli (GPa) = 59.56405 40.58635 62.32465
#
# Poissons Ratio (x) = 0.34260 0.12321
# Poissons Ratio (y) = 0.50279 0.24550
# Poissons Ratio (z) = 0.11775 0.15987
#
# Static dielectric constant tensor:
#      x y z
#    x 1.643280 0.000000 0.027760 
#    y 0.000000 1.617140 0.000000 
#    z 0.027760 0.000000 1.713840 
# 
# From -- ./inp_files/62698.got.cif
#   From: 2010.05.17/outbox.cif.g08.bks.cpg/sg15_32_cif.got.tgz:62698.got - 2010.06.03 18:47:42.
