data_PCOD9301050
_publ_section_title
;
Structure prediction by ZEFSAII (Michael W. Deem and Ramdas Pophale) SiO2 
 PCOD9301050
Probable space group: C 2/C
;
_chemical_formula_sum "Si O2"
_cell_formula_units_Z 40
_cell_length_a 8.551466
_cell_length_b 11.698063
_cell_length_c 16.466715
_cell_angle_alpha 90.000000
_cell_angle_beta 85.819274
_cell_angle_gamma 90.000000
_cell_volume 1642.874260
_symmetry_space_group_name_H-M "C 2/C"
_symmetry_group_IT_number 15
_symmetry_cell_setting 'monoclinic'
loop_
_space_group_symop_operation_xyz
x,y,z
-x,y,1/2-z
-x,-y,-z
x,-y,1/2+z
1/2+x,1/2+y,z
1/2-x,1/2+y,1/2-z
1/2-x,1/2-y,-z
1/2+x,1/2-y,1/2+z
loop_
_atom_site_type_symbol
_atom_site_label
_atom_site_fract_x
_atom_site_fract_y
_atom_site_fract_z
Si Si1 0.147598 0.194453 0.877405
Si Si2 0.123712 0.122915 0.063382
Si Si3 0.696028 0.767010 0.632660
Si Si4 0.135071 0.957354 0.811721
Si Si5 0.853168 0.417015 0.026838
O O1 0.278553 0.292231 0.881926
O O2 0.976910 0.216804 0.845564
O O3 0.209266 0.079050 0.832054
O O4 0.108948 0.173766 0.974368
O O5 0.959935 0.088016 0.106722
O O6 0.218107 0.006806 0.049702
O O7 0.743936 0.853496 0.702755
O O8 0.828516 0.672421 0.603013
O O9 0.668870 0.842832 0.552858
O O10 0.000000 0.968572 0.750000
O O11 0.000000 0.500000 0.000000
#
# Coordination Sequence:
#
# PCOD9301050 Si02
#       5
#     8   8   8   8   8
#     4  11  23  42  71  98 127 160 217 272 320 375
#     4  11  22  41  69 100 125 163 213 270 328 378
#     4  11  23  38  65  94 130 163 205 264 320 371
#     4  12  27  44  61  90 134 177 214 257 317 388
#     4  11  20  36  68 103 126 154 205 273 328 369
#
# _framework density 24.347570999999999
#
# number of rings (size 3 to 8) (size 9 to 14) (size 15 to 20)
#    0.000    0.800    6.000    3.000    2.800    1.600 
#    0.000    0.000    0.000    0.000    0.000    0.000 
#    0.000    0.000    0.000    0.000    0.000    0.000 
#
# Total GULP energy -111802.704535 kJ/mol
# GULP energy per Si atom -5590.135227 kJ/mol
# Density = 2.429216 g / cm^3
# Si number density = 24.347571 Si / 1000 Ang^3
#
#
#
# Elastic Constant Matrix: (Units=GPa)
#
#
# Indices 1 2 3 4 5 6 
#
# 1 56.1554 44.6728 -3.2625 0.0000 7.4107 0.0000
# 2 44.6728 142.7781 29.9446 0.0000 18.2363 0.0000
# 3 -3.2625 29.9446 81.4481 0.0000 24.6205 0.0000
# 4 0.0000 0.0000 0.0000 11.7270 0.0000 21.5220
# 5 7.4107 18.2363 24.6205 0.0000 19.5943 0.0000
# 6 0.0000 0.0000 0.0000 21.5220 0.0000 44.9067
#
#
#
# Elastic Compliance Matrix: (Units=1/GPa)
#
#
# Indices 1 2 3 4 5 6 
#
# 1 0.026520 -0.008398 0.007771 0.000000 -0.011978 0.000000
# 2 -0.008398 0.010670 -0.003576 0.000000 -0.002262 0.000000
# 3 0.007771 -0.003576 0.022229 0.000000 -0.027543 0.000000
# 4 0.000000 0.000000 0.000000 0.708053 0.000000 -0.339342
# 5 -0.011978 -0.002262 -0.027543 0.000000 0.092279 0.000000
# 6 0.000000 0.000000 0.000000 -0.339342 0.000000 0.184902
#
#
# Mechanical properties :
#
#
# Convention : Reuss Voigt Hill
#
# Bulk Modulus (GPa) = 19.60214 47.01015 33.30614
# Shear Modulus (GPa) = 4.67262 29.18069 16.92666
#
# Velocity S-wave (km/s) = 1.38683 3.46570 2.63954
# Velocity P-wave (km/s) = 3.26080 5.94682 4.79570
#
# Compressibility (1/GPa) = 0.05101484
#
# Stress axis : x y z
#
# Youngs Moduli (GPa) = 37.70688 93.71976 44.98574
#
# Poissons Ratio (x) = 0.78701 -0.34957
# Poissons Ratio (y) = 0.31664 0.16085
# Poissons Ratio (z) = -0.29300 0.33510
#
# Static dielectric constant tensor:
#      x y z
#    x 2.208900 0.000000 -0.088650 
#    y 0.000000 2.041480 0.000000 
#    z -0.088650 0.000000 2.022550 
# 
# From -- ./inp_files/187900.got.cif
#   From: 2010.05.17/outbox.cif.g08.bks.cpg/sg15_94_cif.got.tgz:187900.got - 2010.06.03 18:47:42.
