data_PCOD9301074
_publ_section_title
;
Structure prediction by ZEFSAII (Michael W. Deem and Ramdas Pophale) SiO2 
 PCOD9301074
Probable space group: C 2/C
;
_chemical_formula_sum "Si O2"
_cell_formula_units_Z 48
_cell_length_a 14.787723
_cell_length_b 21.190955
_cell_length_c 11.300021
_cell_angle_alpha 90.000000
_cell_angle_beta 137.915251
_cell_angle_gamma 90.000000
_cell_volume 2373.309426
_symmetry_space_group_name_H-M "C 2/C"
_symmetry_group_IT_number 15
_symmetry_cell_setting 'monoclinic'
loop_
_space_group_symop_operation_xyz
x,y,z
-x,y,1/2-z
-x,-y,-z
x,-y,1/2+z
1/2+x,1/2+y,z
1/2-x,1/2+y,1/2-z
1/2-x,1/2-y,-z
1/2+x,1/2-y,1/2+z
loop_
_atom_site_type_symbol
_atom_site_label
_atom_site_fract_x
_atom_site_fract_y
_atom_site_fract_z
Si Si1 0.235469 0.804171 0.389515
Si Si2 0.851987 0.085394 0.543193
Si Si3 0.347209 0.155776 0.565840
Si Si4 0.812879 0.242606 0.232207
Si Si5 0.990539 0.151161 0.996118
Si Si6 0.142056 0.941432 0.956241
O O1 0.250000 0.750000 0.500000
O O2 0.243448 0.871115 0.466927
O O3 0.325525 0.779286 0.368425
O O4 0.092536 0.810459 0.182816
O O5 0.884698 0.119358 0.451270
O O6 0.000000 0.082963 0.750000
O O7 0.811652 0.013361 0.481291
O O8 0.500000 0.140901 0.750000
O O9 0.312867 0.194855 0.413101
O O10 0.301343 0.203502 0.624380
O O11 0.252052 0.095477 0.486396
O O12 0.944880 0.198660 0.346576
O O13 0.894209 0.098389 0.960603
O O14 0.000000 0.942572 0.750000
#
# Coordination Sequence:
#
# PCOD9301074 Si02
#       6
#     8   8   8   8   8   8
#     4  11  21  37  58  93 129 159 201 261 316 374
#     4   9  21  36  60  90 122 163 213 259 311 373
#     4  11  24  39  61  91 127 161 206 266 322 371
#     4  11  22  37  63  89 122 164 209 254 321 372
#     4  11  20  37  61  94 122 162 211 265 308 375
#     4  11  21  39  64  93 122 165 215 263 312 374
#
# _framework density 20.224921999999999
#
# number of rings (size 3 to 8) (size 9 to 14) (size 15 to 20)
#    0.000    1.333    5.000    1.500    2.333    0.000 
#    0.000    0.000    3.667    2.000    0.000    0.000 
#    0.000    0.000    0.000    0.000    0.000    0.000 
#
# Total GULP energy -133731.211636 kJ/mol
# GULP energy per Si atom -5572.133818 kJ/mol
# Density = 2.017889 g / cm^3
# Si number density = 20.224922 Si / 1000 Ang^3
#
#
#
# Elastic Constant Matrix: (Units=GPa)
#
#
# Indices 1 2 3 4 5 6 
#
# 1 60.4575 34.5727 3.1554 0.0000 -7.1554 0.0000
# 2 34.5727 138.1515 31.9588 0.0000 3.8682 0.0000
# 3 3.1554 31.9588 60.6457 0.0000 2.7349 0.0000
# 4 0.0000 0.0000 0.0000 21.7054 0.0000 1.7913
# 5 -7.1554 3.8682 2.7349 0.0000 32.3486 0.0000
# 6 0.0000 0.0000 0.0000 1.7913 0.0000 31.2462
#
#
#
# Elastic Compliance Matrix: (Units=1/GPa)
#
#
# Indices 1 2 3 4 5 6 
#
# 1 0.020244 -0.005592 0.001668 0.000000 0.005005 0.000000
# 2 -0.005592 0.009800 -0.004783 0.000000 -0.002004 0.000000
# 3 0.001668 -0.004783 0.018953 0.000000 -0.000661 0.000000
# 4 0.000000 0.000000 0.000000 0.046291 0.000000 -0.002654
# 5 0.005005 -0.002004 -0.000661 0.000000 0.032316 0.000000
# 6 0.000000 0.000000 0.000000 -0.002654 0.000000 0.032156
#
#
# Mechanical properties :
#
#
# Convention : Reuss Voigt Hill
#
# Bulk Modulus (GPa) = 31.66332 44.29206 37.97769
# Shear Modulus (GPa) = 26.63795 29.69788 28.16792
#
# Velocity S-wave (km/s) = 3.63310 3.83610 3.73598
# Velocity P-wave (km/s) = 5.76965 6.44734 6.11789
#
# Compressibility (1/GPa) = 0.03158229
#
# Stress axis : x y z
#
# Youngs Moduli (GPa) = 49.39799 102.03569 52.76228
#
# Poissons Ratio (x) = 0.57059 -0.08800
# Poissons Ratio (y) = 0.27623 0.25238
# Poissons Ratio (z) = -0.08239 0.48807
#
# Static dielectric constant tensor:
#      x y z
#    x 1.785760 0.000000 -0.017860 
#    y 0.000000 1.737950 0.000000 
#    z -0.017860 0.000000 1.746080 
# 
# From -- ./inp_files/99974.got.cif
#   From: 2010.05.17/outbox.cif.g08.bks.cpg/sg15_50_cif.got.tgz:99974.got - 2010.06.03 18:47:42.
