data_PCOD9301828
_publ_section_title
;
Structure prediction by ZEFSAII (Michael W. Deem and Ramdas Pophale) SiO2 
 PCOD9301828
Probable space group: C 2/C
;
_chemical_formula_sum "Si O2"
_cell_formula_units_Z 48
_cell_length_a 17.167537
_cell_length_b 6.420317
_cell_length_c 28.140967
_cell_angle_alpha 90.000000
_cell_angle_beta 41.945170
_cell_angle_gamma 90.000000
_cell_volume 2073.253256
_symmetry_space_group_name_H-M "C 2/C"
_symmetry_group_IT_number 15
_symmetry_cell_setting 'monoclinic'
loop_
_space_group_symop_operation_xyz
x,y,z
-x,y,1/2-z
-x,-y,-z
x,-y,1/2+z
1/2+x,1/2+y,z
1/2-x,1/2+y,1/2-z
1/2-x,1/2-y,-z
1/2+x,1/2-y,1/2+z
loop_
_atom_site_type_symbol
_atom_site_label
_atom_site_fract_x
_atom_site_fract_y
_atom_site_fract_z
Si Si1 0.068071 0.189946 0.070589
Si Si2 0.183858 0.710572 0.164957
Si Si3 0.718324 0.058101 0.048758
Si Si4 0.232525 0.827284 0.311171
Si Si5 0.595602 0.961240 0.417258
Si Si6 0.906220 0.980157 0.214795
O O1 0.137635 0.387473 0.059748
O O2 0.957860 0.287497 0.093528
O O3 0.021288 0.036861 0.133216
O O4 0.158637 0.060566 0.997257
O O5 0.156266 0.631666 0.125010
O O6 0.242594 0.520284 0.166505
O O7 0.286102 0.880631 0.112755
O O8 0.093099 0.819269 0.242122
O O9 0.750000 0.250000 0.000000
O O10 0.130622 0.673812 0.375222
O O11 0.191710 0.897177 0.277645
O O12 0.351983 0.697578 0.256552
O O13 0.500000 0.000000 0.500000
#
# Coordination Sequence:
#
# PCOD9301828 Si02
#       6
#     8   8   8   8   8   8
#     4  11  25  44  69  98 138 183 232 284 348 413
#     4  11  24  42  70 101 135 176 225 288 343 408
#     4  11  27  48  68  94 141 187 232 285 342 418
#     4  11  21  39  67 102 136 165 223 287 343 401
#     4  11  23  37  69 104 129 170 229 282 345 406
#     4  11  22  40  68 101 135 174 224 286 347 408
#
# _framework density 23.152018999999999
#
# number of rings (size 3 to 8) (size 9 to 14) (size 15 to 20)
#    0.000    1.000    3.333    3.000    4.667    5.333 
#    0.000    5.000    0.000    0.000    0.000    0.000 
#    0.000    0.000    0.000    0.000    0.000    0.000 
#
# Total GULP energy -134314.554610 kJ/mol
# GULP energy per Si atom -5596.439775 kJ/mol
# Density = 2.309932 g / cm^3
# Si number density = 23.152019 Si / 1000 Ang^3
#
#
#
# Elastic Constant Matrix: (Units=GPa)
#
#
# Indices 1 2 3 4 5 6 
#
# 1 48.7053 21.0366 7.3048 0.0017 10.6639 -0.0077
# 2 21.0366 98.2702 35.2406 -0.0178 12.4598 0.0634
# 3 7.3048 35.2406 127.7216 0.0088 6.7349 0.0121
# 4 0.0017 -0.0178 0.0088 51.3679 -0.0045 -0.8949
# 5 10.6639 12.4598 6.7349 -0.0045 38.5632 -0.0046
# 6 -0.0077 0.0634 0.0121 -0.8949 -0.0046 18.8764
#
#
#
# Elastic Compliance Matrix: (Units=1/GPa)
#
#
# Indices 1 2 3 4 5 6 
#
# 1 0.023547 -0.004448 0.000149 -0.000002 -0.005101 0.000023
# 2 -0.004448 0.012522 -0.003080 0.000004 -0.002278 -0.000042
# 3 0.000149 -0.003080 0.008701 -0.000003 -0.000566 0.000005
# 4 -0.000002 0.000004 -0.000003 0.019484 0.000002 0.000924
# 5 -0.005101 -0.002278 -0.000566 0.000002 0.028177 0.000013
# 6 0.000023 -0.000042 0.000005 0.000924 0.000013 0.053020
#
#
# Mechanical properties :
#
#
# Convention : Reuss Voigt Hill
#
# Bulk Modulus (GPa) = 33.31988 44.65123 38.98556
# Shear Modulus (GPa) = 29.37531 35.83584 32.60558
#
# Velocity S-wave (km/s) = 3.56589 3.93854 3.75684
# Velocity P-wave (km/s) = 5.60153 6.32541 5.97444
#
# Compressibility (1/GPa) = 0.03001211
#
# Stress axis : x y z
#
# Youngs Moduli (GPa) = 42.46836 79.86176 114.93256
#
# Poissons Ratio (x) = 0.35519 -0.01717
# Poissons Ratio (y) = 0.18888 0.35404
# Poissons Ratio (z) = -0.00634 0.24601
#
# Static dielectric constant tensor:
#      x y z
#    x 1.858230 0.000000 -0.011950 
#    y 0.000000 1.884440 0.000000 
#    z -0.011950 0.000000 1.910150 
# 
# From -- ./inp_files/317078.got.cif
#   From: 2010.05.17/outbox.cif.g08.bks.cpg/sg15_159_cif.got.tgz:317078.got - 2010.06.03 18:47:42.
