data_PCOD9301829
_publ_section_title
;
Structure prediction by ZEFSAII (Michael W. Deem and Ramdas Pophale) SiO2 
 PCOD9301829
Probable space group: C 2/C
;
_chemical_formula_sum "Si O2"
_cell_formula_units_Z 40
_cell_length_a 23.150070
_cell_length_b 9.149486
_cell_length_c 8.461880
_cell_angle_alpha 90.000000
_cell_angle_beta 66.316256
_cell_angle_gamma 90.000000
_cell_volume 1641.365908
_symmetry_space_group_name_H-M "C 2/C"
_symmetry_group_IT_number 15
_symmetry_cell_setting 'monoclinic'
loop_
_space_group_symop_operation_xyz
x,y,z
-x,y,1/2-z
-x,-y,-z
x,-y,1/2+z
1/2+x,1/2+y,z
1/2-x,1/2+y,1/2-z
1/2-x,1/2-y,-z
1/2+x,1/2-y,1/2+z
loop_
_atom_site_type_symbol
_atom_site_label
_atom_site_fract_x
_atom_site_fract_y
_atom_site_fract_z
Si Si1 0.888396 0.352723 0.226970
Si Si2 0.345770 0.416984 0.367158
Si Si3 0.721979 0.329348 0.752988
Si Si4 0.459518 0.389128 0.440202
Si Si5 0.371819 0.164947 0.102958
O O1 0.814703 0.312207 0.271815
O O2 0.895269 0.518917 0.164261
O O3 0.902143 0.330165 0.396386
O O4 0.929138 0.239795 0.077683
O O5 0.297462 0.344505 0.542938
O O6 0.309961 0.539186 0.308895
O O7 0.401862 0.473789 0.417402
O O8 0.376903 0.300123 0.216043
O O9 0.796297 0.336006 0.654975
O O10 0.500000 0.329130 0.250000
O O11 0.500000 0.500000 0.500000
#
# Coordination Sequence:
#
# PCOD9301829 Si02
#       5
#     8   8   8   8   8
#     4  11  24  41  67 101 138 184 231 277 337 408
#     4  11  23  40  68 104 137 182 235 278 332 407
#     4  11  21  39  67 104 144 189 224 267 332 412
#     4  11  25  47  72  99 128 172 234 299 340 384
#     4  12  23  43  66 104 150 181 216 277 342 415
#
# _framework density 24.369947
#
# number of rings (size 3 to 8) (size 9 to 14) (size 15 to 20)
#    0.000    0.800    0.000    9.600    0.000    3.200 
#    0.000    4.000    0.000    3.600    0.000    1.400 
#    0.000    0.000    0.000    0.000    0.000    0.000 
#
# Total GULP energy -112129.329194 kJ/mol
# GULP energy per Si atom -5606.466460 kJ/mol
# Density = 2.431448 g / cm^3
# Si number density = 24.369947 Si / 1000 Ang^3
#
#
#
# Elastic Constant Matrix: (Units=GPa)
#
#
# Indices 1 2 3 4 5 6 
#
# 1 117.3073 34.1705 32.9983 0.0000 19.1776 0.0000
# 2 34.1705 103.0095 45.6989 0.0000 22.9593 0.0000
# 3 32.9983 45.6989 207.9132 0.0000 4.5415 0.0000
# 4 0.0000 0.0000 0.0000 21.8841 0.0000 -2.0404
# 5 19.1776 22.9593 4.5415 0.0000 37.9440 0.0000
# 6 0.0000 0.0000 0.0000 -2.0404 0.0000 11.2086
#
#
#
# Elastic Compliance Matrix: (Units=1/GPa)
#
#
# Indices 1 2 3 4 5 6 
#
# 1 0.010021 -0.002024 -0.001064 0.000000 -0.003712 0.000000
# 2 -0.002024 0.012875 -0.002367 0.000000 -0.006484 0.000000
# 3 -0.001064 -0.002367 0.005470 0.000000 0.001315 0.000000
# 4 0.000000 0.000000 0.000000 0.046484 0.000000 0.008462
# 5 -0.003712 -0.006484 0.001315 0.000000 0.031997 0.000000
# 6 0.000000 0.000000 0.000000 0.008462 0.000000 0.090758
#
#
# Mechanical properties :
#
#
# Convention : Reuss Voigt Hill
#
# Bulk Modulus (GPa) = 57.29367 72.66284 64.97825
# Shear Modulus (GPa) = 23.32815 35.23149 29.27982
#
# Velocity S-wave (km/s) = 3.09730 3.80635 3.46999
# Velocity P-wave (km/s) = 6.02927 7.01421 6.54030
#
# Compressibility (1/GPa) = 0.01745394
#
# Stress axis : x y z
#
# Youngs Moduli (GPa) = 99.79441 77.67253 182.81124
#
# Poissons Ratio (x) = 0.15725 0.19457
# Poissons Ratio (y) = 0.20203 0.43269
# Poissons Ratio (z) = 0.10621 0.18384
#
# Static dielectric constant tensor:
#      x y z
#    x 1.974850 0.000000 -0.021260 
#    y 0.000000 1.909010 0.000000 
#    z -0.021260 0.000000 1.929580 
# 
# From -- ./inp_files/59924.got.cif
#   From: 2010.05.17/outbox.cif.g08.bks.cpg/sg15_30_cif.got.tgz:59924.got - 2010.06.03 18:47:42.
