data_PCOD9301982
_publ_section_title
;
Structure prediction by ZEFSAII (Michael W. Deem and Ramdas Pophale) SiO2 
 PCOD9301982
Probable space group: C 2/C
;
_chemical_formula_sum "Si O2"
_cell_formula_units_Z 40
_cell_length_a 12.517842
_cell_length_b 12.538757
_cell_length_c 21.269811
_cell_angle_alpha 90.000000
_cell_angle_beta 32.042729
_cell_angle_gamma 90.000000
_cell_volume 1771.230888
_symmetry_space_group_name_H-M "C 2/C"
_symmetry_group_IT_number 15
_symmetry_cell_setting 'monoclinic'
loop_
_space_group_symop_operation_xyz
x,y,z
-x,y,1/2-z
-x,-y,-z
x,-y,1/2+z
1/2+x,1/2+y,z
1/2-x,1/2+y,1/2-z
1/2-x,1/2-y,-z
1/2+x,1/2-y,1/2+z
loop_
_atom_site_type_symbol
_atom_site_label
_atom_site_fract_x
_atom_site_fract_y
_atom_site_fract_z
Si Si1 0.737800 0.585220 0.129977
Si Si2 0.271203 0.879829 0.198727
Si Si3 0.853610 0.422070 0.426188
Si Si4 0.950035 0.215289 0.507936
Si Si5 0.850524 0.140552 0.972209
O O1 0.500000 0.593467 0.250000
O O2 0.800549 0.477651 0.134607
O O3 0.844536 0.691161 0.102188
O O4 0.794211 0.596096 0.028652
O O5 0.408141 0.899656 0.192509
O O6 0.036015 0.879870 0.331949
O O7 0.367773 0.772560 0.121381
O O8 0.712749 0.347224 0.453555
O O9 0.809237 0.546282 0.442692
O O10 0.051665 0.141483 0.508082
O O11 0.750000 0.250000 0.000000
#
# Coordination Sequence:
#
# PCOD9301982 Si02
#       5
#     8   8   8   8   8
#     4  11  21  40  72  95 132 178 239 279 344 420
#     4  11  24  44  71  98 137 184 234 289 345 418
#     4  11  24  45  63 104 138 179 235 286 350 423
#     4  11  26  41  69 104 141 182 233 292 353 412
#     4  12  26  44  71 103 142 184 237 283 354 419
#
# _framework density 22.583164
#
# number of rings (size 3 to 8) (size 9 to 14) (size 15 to 20)
#    0.000    0.800    2.000    7.800    5.600    1.600 
#    0.000    2.000    0.000    0.000    0.000    0.000 
#    0.000    0.000    0.000    0.000    0.000    0.000 
#
# Total GULP energy -111730.188946 kJ/mol
# GULP energy per Si atom -5586.509447 kJ/mol
# Density = 2.253176 g / cm^3
# Si number density = 22.583164 Si / 1000 Ang^3
#
#
#
# Elastic Constant Matrix: (Units=GPa)
#
#
# Indices 1 2 3 4 5 6 
#
# 1 52.0513 -1.8118 13.5368 0.0000 5.5023 -0.0001
# 2 -1.8118 87.5339 15.4126 -0.0003 5.0637 0.0000
# 3 13.5368 15.4126 65.5384 -0.0023 -14.4264 0.0001
# 4 0.0000 -0.0003 -0.0023 22.5228 0.0003 -7.9551
# 5 5.5023 5.0637 -14.4264 0.0003 22.3074 0.0001
# 6 -0.0001 0.0000 0.0001 -7.9551 0.0001 56.7777
#
#
#
# Elastic Compliance Matrix: (Units=1/GPa)
#
#
# Indices 1 2 3 4 5 6 
#
# 1 0.022451 0.002449 -0.007642 -0.000001 -0.011036 0.000000
# 2 0.002449 0.012740 -0.004980 0.000000 -0.006717 0.000000
# 3 -0.007642 -0.004980 0.021771 0.000002 0.017095 0.000000
# 4 -0.000001 0.000000 0.000002 0.046711 0.000001 0.006545
# 5 -0.011036 -0.006717 0.017095 0.000001 0.060131 0.000000
# 6 0.000000 0.000000 0.000000 0.006545 0.000000 0.018530
#
#
# Mechanical properties :
#
#
# Convention : Reuss Voigt Hill
#
# Bulk Modulus (GPa) = 27.31169 28.82210 28.06690
# Shear Modulus (GPa) = 23.26809 32.18730 27.72770
#
# Velocity S-wave (km/s) = 3.21336 3.77938 3.50780
# Velocity P-wave (km/s) = 5.08799 5.64228 5.37229
#
# Compressibility (1/GPa) = 0.03661435
#
# Stress axis : x y z
#
# Youngs Moduli (GPa) = 44.54105 78.49087 45.93270
#
# Poissons Ratio (x) = -0.19220 0.35103
# Poissons Ratio (y) = -0.10907 0.22877
# Poissons Ratio (z) = 0.34040 0.39092
#
# Static dielectric constant tensor:
#      x y z
#    x 1.898700 0.000000 -0.029320 
#    y 0.000000 1.903550 0.000000 
#    z -0.029320 0.000000 1.885940 
# 
# From -- ./inp_files/141708.got.cif
#   From: 2010.05.17/outbox.cif.g08.bks.cpg/sg15_71_cif.got.tgz:141708.got - 2010.06.03 18:47:42.
