data_PCOD9301329
_publ_section_title
;
Structure prediction by ZEFSAII (Michael W. Deem and Ramdas Pophale) SiO2 
 PCOD9301329
Probable space group: C 2/C
;
_chemical_formula_sum "Si O2"
_cell_formula_units_Z 44
_cell_length_a 12.800484
_cell_length_b 11.250692
_cell_length_c 15.736150
_cell_angle_alpha 90.000000
_cell_angle_beta 113.742615
_cell_angle_gamma 90.000000
_cell_volume 2074.424575
_symmetry_space_group_name_H-M "C 2/C"
_symmetry_group_IT_number 15
_symmetry_cell_setting 'monoclinic'
loop_
_space_group_symop_operation_xyz
x,y,z
-x,y,1/2-z
-x,-y,-z
x,-y,1/2+z
1/2+x,1/2+y,z
1/2-x,1/2+y,1/2-z
1/2-x,1/2-y,-z
1/2+x,1/2-y,1/2+z
loop_
_atom_site_type_symbol
_atom_site_label
_atom_site_fract_x
_atom_site_fract_y
_atom_site_fract_z
Si Si1 0.319679 0.558049 0.271639
Si Si2 0.616745 0.715446 0.347510
Si Si3 0.624847 0.981454 0.330247
Si Si4 0.013134 0.134617 0.038674
Si Si5 0.000000 0.876579 0.250000
Si Si6 0.621930 0.219567 0.429533
O O1 0.298524 0.636847 0.181342
O O2 0.209653 0.505540 0.279818
O O3 0.375690 0.636447 0.364560
O O4 0.415054 0.460626 0.276427
O O5 0.500000 0.713978 0.250000
O O6 0.588341 0.660192 0.429072
O O7 0.652663 0.850255 0.371871
O O8 0.500000 0.980794 0.250000
O O9 0.625104 0.082622 0.402094
O O10 0.035670 0.233225 0.974444
O O11 0.000000 0.000000 0.000000
O O12 0.920133 0.795062 0.165516
O O13 0.750000 0.250000 0.500000
#
# Coordination Sequence:
#
# PCOD9301329 Si02
#       6
#     8   8   8   8   4   8
#     4  11  21  42  72  96 134 186 237 283 344 422
#     4   9  21  41  64  96 131 179 229 283 346 406
#     4  11  25  41  65 101 143 182 223 289 359 411
#     4  11  20  41  68  97 134 177 238 289 331 422
#     4  12  24  44  76 102 132 190 244 280 354 420
#     4  12  25  40  70 106 143 183 231 291 351 418
#
# _framework density 21.210701
#
# number of rings (size 3 to 8) (size 9 to 14) (size 15 to 20)
#    0.000    1.091    7.273    0.000    2.545    2.182 
#    0.000    0.909    0.000    0.000    0.000    0.000 
#    0.000    0.000    0.000    0.000    0.000    0.000 
#
# Total GULP energy -122889.856034 kJ/mol
# GULP energy per Si atom -5585.902547 kJ/mol
# Density = 2.116242 g / cm^3
# Si number density = 21.210701 Si / 1000 Ang^3
#
#
#
# Elastic Constant Matrix: (Units=GPa)
#
#
# Indices 1 2 3 4 5 6 
#
# 1 104.5974 51.2268 40.8071 0.0000 -31.4965 0.0000
# 2 51.2268 170.5289 61.5475 0.0000 -38.7145 0.0000
# 3 40.8071 61.5475 102.7863 0.0000 -24.9953 0.0000
# 4 0.0000 0.0000 0.0000 7.3694 0.0000 0.8770
# 5 -31.4965 -38.7145 -24.9953 0.0000 49.2160 0.0000
# 6 0.0000 0.0000 0.0000 0.8770 0.0000 9.5789
#
#
#
# Elastic Compliance Matrix: (Units=1/GPa)
#
#
# Indices 1 2 3 4 5 6 
#
# 1 0.013199 -0.001632 -0.002876 0.000000 0.005702 0.000000
# 2 -0.001632 0.008494 -0.003499 0.000000 0.003859 0.000000
# 3 -0.002876 -0.003499 0.013519 0.000000 0.002273 0.000000
# 4 0.000000 0.000000 0.000000 0.137190 0.000000 -0.012561
# 5 0.005702 0.003859 0.002273 0.000000 0.028158 0.000000
# 6 0.000000 0.000000 0.000000 -0.012561 0.000000 0.105546
#
#
# Mechanical properties :
#
#
# Convention : Reuss Voigt Hill
#
# Bulk Modulus (GPa) = 52.09447 76.11949 64.10698
# Shear Modulus (GPa) = 15.21977 28.18828 21.70403
#
# Velocity S-wave (km/s) = 2.68162 3.64945 3.20231
# Velocity P-wave (km/s) = 5.84824 7.32961 6.63043
#
# Compressibility (1/GPa) = 0.01919589
#
# Stress axis : x y z
#
# Youngs Moduli (GPa) = 75.76324 117.73491 73.97158
#
# Poissons Ratio (x) = 0.19219 0.21274
# Poissons Ratio (y) = 0.12368 0.25885
# Poissons Ratio (z) = 0.21790 0.41199
#
# Static dielectric constant tensor:
#      x y z
#    x 1.731430 0.000000 -0.009040 
#    y 0.000000 1.781810 0.000000 
#    z -0.009040 0.000000 1.782880 
# 
# From -- ./inp_files/142246.got.cif
#   From: 2010.05.17/outbox.cif.g08.bks.cpg/sg15_72_cif.got.tgz:142246.got - 2010.06.03 18:47:42.
