data_PCOD9301076
_publ_section_title
;
Structure prediction by ZEFSAII (Michael W. Deem and Ramdas Pophale) SiO2 
 PCOD9301076
Probable space group: C 2/C
;
_chemical_formula_sum "Si O2"
_cell_formula_units_Z 56
_cell_length_a 16.950289
_cell_length_b 14.170524
_cell_length_c 11.487065
_cell_angle_alpha 90.000000
_cell_angle_beta 53.566188
_cell_angle_gamma 90.000000
_cell_volume 2219.839658
_symmetry_space_group_name_H-M "C 2/C"
_symmetry_group_IT_number 15
_symmetry_cell_setting 'monoclinic'
loop_
_space_group_symop_operation_xyz
x,y,z
-x,y,1/2-z
-x,-y,-z
x,-y,1/2+z
1/2+x,1/2+y,z
1/2-x,1/2+y,1/2-z
1/2-x,1/2-y,-z
1/2+x,1/2-y,1/2+z
loop_
_atom_site_type_symbol
_atom_site_label
_atom_site_fract_x
_atom_site_fract_y
_atom_site_fract_z
Si Si1 0.113360 0.234664 0.384294
Si Si2 0.754695 0.660084 0.577711
Si Si3 0.292898 0.541486 0.449461
Si Si4 0.112824 0.347767 0.169805
Si Si5 0.408950 0.968986 0.660529
Si Si6 0.438095 0.251621 0.184256
Si Si7 0.816337 0.968641 0.674042
O O1 0.150142 0.322223 0.429636
O O2 0.145163 0.266485 0.230164
O O3 0.160423 0.137823 0.384071
O O4 0.000152 0.226995 0.514396
O O5 0.750000 0.750000 0.500000
O O6 0.756649 0.562116 0.511872
O O7 0.655633 0.679775 0.736656
O O8 0.210209 0.623617 0.511599
O O9 0.338891 0.536303 0.541615
O O10 0.357186 0.533737 0.273112
O O11 0.092166 0.450656 0.242014
O O12 0.000000 0.315497 0.250000
O O13 0.416904 0.860596 0.695847
O O14 0.300044 0.979387 0.702503
O O15 0.500000 0.000000 0.500000
O O16 0.500000 0.269909 0.250000
#
# Coordination Sequence:
#
# PCOD9301076 Si02
#       7
#     8   8   8   8   8   8   8
#     4  12  25  43  66 103 146 193 237 303 369 438
#     4  12  21  42  66 101 142 181 246 293 354 430
#     4  11  24  43  68  97 143 189 236 298 355 426
#     4  11  24  39  64 104 146 181 235 293 375 436
#     4  11  20  37  62 101 142 173 225 292 363 426
#     4  12  23  36  67 102 138 184 237 300 357 422
#     4  11  24  44  68 103 140 188 241 294 361 436
#
# _framework density 25.227049999999998
#
# number of rings (size 3 to 8) (size 9 to 14) (size 15 to 20)
#    0.000    0.571    5.714    3.857    2.000    0.571 
#    0.000    2.143    0.000    2.571    0.000    0.000 
#    0.000    0.000    0.000    0.000    0.000    0.000 
#
# Total GULP energy -156026.610302 kJ/mol
# GULP energy per Si atom -5572.378939 kJ/mol
# Density = 2.516963 g / cm^3
# Si number density = 25.227050 Si / 1000 Ang^3
#
#
#
# Elastic Constant Matrix: (Units=GPa)
#
#
# Indices 1 2 3 4 5 6 
#
# 1 27.3580 2.2157 14.9517 0.0000 9.2816 0.0000
# 2 2.2157 50.7376 10.7375 0.0000 -6.8074 0.0000
# 3 14.9517 10.7375 118.2814 0.0000 3.5532 0.0000
# 4 0.0000 0.0000 0.0000 44.1840 0.0000 7.9443
# 5 9.2816 -6.8074 3.5532 0.0000 41.2341 0.0000
# 6 0.0000 0.0000 0.0000 7.9443 0.0000 4.6048
#
#
#
# Elastic Compliance Matrix: (Units=1/GPa)
#
#
# Indices 1 2 3 4 5 6 
#
# 1 0.042638 -0.002100 -0.004913 0.000000 -0.009521 0.000000
# 2 -0.002100 0.020711 -0.001736 0.000000 0.004041 0.000000
# 3 -0.004913 -0.001736 0.009232 0.000000 0.000024 0.000000
# 4 0.000000 0.000000 0.000000 0.032810 0.000000 -0.056605
# 5 -0.009521 0.004041 0.000024 0.000000 0.027060 0.000000
# 6 0.000000 0.000000 0.000000 -0.056605 0.000000 0.314822
#
#
# Mechanical properties :
#
#
# Convention : Reuss Voigt Hill
#
# Bulk Modulus (GPa) = 18.15446 28.02077 23.08761
# Shear Modulus (GPa) = 10.34915 29.23606 19.79261
#
# Velocity S-wave (km/s) = 2.02764 3.40798 2.80407
# Velocity P-wave (km/s) = 3.56284 5.15920 4.43346
#
# Compressibility (1/GPa) = 0.05508288
#
# Stress axis : x y z
#
# Youngs Moduli (GPa) = 23.45346 48.28453 108.31473
#
# Poissons Ratio (x) = 0.10138 0.53216
# Poissons Ratio (y) = 0.04924 0.18804
# Poissons Ratio (z) = 0.11523 0.08383
#
# Static dielectric constant tensor:
#      x y z
#    x 2.168870 0.000000 -0.042840 
#    y 0.000000 1.933270 0.000000 
#    z -0.042840 0.000000 2.485570 
# 
# From -- ./inp_files/105631.got.cif
#   From: 2010.05.17/outbox.cif.g08.bks.cpg/sg15_53_cif.got.tgz:105631.got - 2010.06.03 18:47:42.
