data_PCOD9301529
_publ_section_title
;
Structure prediction by ZEFSAII (Michael W. Deem and Ramdas Pophale) SiO2 
 PCOD9301529
Probable space group: C 2/C
;
_chemical_formula_sum "Si O2"
_cell_formula_units_Z 64
_cell_length_a 17.686769
_cell_length_b 20.683820
_cell_length_c 9.698457
_cell_angle_alpha 90.000000
_cell_angle_beta 89.852374
_cell_angle_gamma 90.000000
_cell_volume 3547.974227
_symmetry_space_group_name_H-M "C 2/C"
_symmetry_group_IT_number 15
_symmetry_cell_setting 'monoclinic'
loop_
_space_group_symop_operation_xyz
x,y,z
-x,y,1/2-z
-x,-y,-z
x,-y,1/2+z
1/2+x,1/2+y,z
1/2-x,1/2+y,1/2-z
1/2-x,1/2-y,-z
1/2+x,1/2-y,1/2+z
loop_
_atom_site_type_symbol
_atom_site_label
_atom_site_fract_x
_atom_site_fract_y
_atom_site_fract_z
Si Si1 0.323215 0.705457 0.994489
Si Si2 0.962674 0.049165 0.897388
Si Si3 0.315173 0.805838 0.494628
Si Si4 0.588115 0.728380 0.223051
Si Si5 0.087456 0.742532 0.270034
Si Si6 0.079721 0.862589 0.475562
Si Si7 0.730831 0.436602 0.410515
Si Si8 0.287284 0.440851 0.407767
O O1 0.368254 0.713730 0.136724
O O2 0.250000 0.750000 0.000000
O O3 0.374504 0.734249 0.871139
O O4 0.293999 0.632298 0.965674
O O5 0.874919 0.041088 0.888122
O O6 0.000000 0.041814 0.750000
O O7 0.992913 0.116538 0.956882
O O8 0.000000 0.000000 0.000000
O O9 0.250000 0.750000 0.500000
O O10 0.370393 0.783254 0.369611
O O11 0.361113 0.805741 0.638863
O O12 0.277554 0.875045 0.466464
O O13 0.500000 0.743821 0.250000
O O14 0.591843 0.664470 0.127374
O O15 0.089583 0.805430 0.367363
O O16 0.000000 0.722465 0.250000
O O17 0.142724 0.915648 0.436282
O O18 0.745829 0.442021 0.246669
O O19 0.745308 0.504030 0.490409
#
# Coordination Sequence:
#
# PCOD9301529 Si02
#       8
#     8   8   8   8   8   8   8   8
#     4  12  24  38  60  92 121 154 204 266 305 355
#     4  12  21  34  50  77 114 162 196 231 275 351
#     4  11  21  41  65  86 124 169 209 254 317 370
#     4  11  23  37  61  91 122 157 204 259 307 361
#     4  11  21  39  64  86 120 163 205 252 309 374
#     4  11  21  36  56  78 123 167 204 231 295 364
#     4  12  24  39  58  86 119 172 208 251 300 365
#     4  12  24  39  55  85 123 164 212 250 299 366
#
# _framework density 18.038461999999999
#
# number of rings (size 3 to 8) (size 9 to 14) (size 15 to 20)
#    0.000    0.500    6.250    4.875    1.750    1.500 
#    0.000    0.000    0.000    0.000    0.000   14.875 
#    0.000    0.000    0.000    0.000    0.000    0.000 
#
# Total GULP energy -178678.668146 kJ/mol
# GULP energy per Si atom -5583.708380 kJ/mol
# Density = 1.799741 g / cm^3
# Si number density = 18.038462 Si / 1000 Ang^3
#
#
#
# Elastic Constant Matrix: (Units=GPa)
#
#
# Indices 1 2 3 4 5 6 
#
# 1 81.4369 33.4805 53.3347 0.0000 4.6624 0.0000
# 2 33.4805 86.4093 56.6726 0.0000 3.2325 0.0000
# 3 53.3347 56.6726 162.3119 0.0000 25.0649 0.0000
# 4 0.0000 0.0000 0.0000 19.3041 0.0000 6.1451
# 5 4.6624 3.2325 25.0649 0.0000 27.8642 0.0000
# 6 0.0000 0.0000 0.0000 6.1451 0.0000 34.1038
#
#
#
# Elastic Compliance Matrix: (Units=1/GPa)
#
#
# Indices 1 2 3 4 5 6 
#
# 1 0.016566 -0.003558 -0.004456 0.000000 0.001649 0.000000
# 2 -0.003558 0.016066 -0.004929 0.000000 0.003166 0.000000
# 3 -0.004456 -0.004929 0.010618 0.000000 -0.008234 0.000000
# 4 0.000000 0.000000 0.000000 0.054955 0.000000 -0.009902
# 5 0.001649 0.003166 -0.008234 0.000000 0.042652 0.000000
# 6 0.000000 0.000000 0.000000 -0.009902 0.000000 0.031107
#
#
# Mechanical properties :
#
#
# Convention : Reuss Voigt Hill
#
# Bulk Modulus (GPa) = 57.59227 68.57040 63.08133
# Shear Modulus (GPa) = 24.55355 28.69909 26.62632
#
# Velocity S-wave (km/s) = 3.69342 3.99305 3.84615
# Velocity P-wave (km/s) = 7.08415 7.70424 7.40069
#
# Compressibility (1/GPa) = 0.01736344
#
# Stress axis : x y z
#
# Youngs Moduli (GPa) = 60.36448 62.24352 94.18225
#
# Poissons Ratio (x) = 0.22146 0.41966
# Poissons Ratio (y) = 0.21478 0.46425
# Poissons Ratio (z) = 0.26897 0.30682
#
# Static dielectric constant tensor:
#      x y z
#    x 1.630850 0.000000 -0.015190 
#    y 0.000000 1.664530 0.000000 
#    z -0.015190 0.000000 1.651450 
# 
# From -- ./inp_files/50235.got.cif
#   From: 2010.05.17/outbox.cif.g08.bks.cpg/sg15_26_cif.got.tgz:50235.got - 2010.06.03 18:47:42.
