data_PCOD9301227
_publ_section_title
;
Structure prediction by ZEFSAII (Michael W. Deem and Ramdas Pophale) SiO2 
 PCOD9301227
Probable space group: C 2/C
;
_chemical_formula_sum "Si O2"
_cell_formula_units_Z 64
_cell_length_a 12.819591
_cell_length_b 22.049594
_cell_length_c 11.676551
_cell_angle_alpha 90.000000
_cell_angle_beta 71.943536
_cell_angle_gamma 90.000000
_cell_volume 3138.024842
_symmetry_space_group_name_H-M "C 2/C"
_symmetry_group_IT_number 15
_symmetry_cell_setting 'monoclinic'
loop_
_space_group_symop_operation_xyz
x,y,z
-x,y,1/2-z
-x,-y,-z
x,-y,1/2+z
1/2+x,1/2+y,z
1/2-x,1/2+y,1/2-z
1/2-x,1/2-y,-z
1/2+x,1/2-y,1/2+z
loop_
_atom_site_type_symbol
_atom_site_label
_atom_site_fract_x
_atom_site_fract_y
_atom_site_fract_z
Si Si1 0.472215 0.356477 0.625895
Si Si2 0.372909 0.727354 0.988547
Si Si3 0.318922 0.053834 0.487858
Si Si4 0.683530 0.925907 0.935764
Si Si5 0.877611 0.883295 0.316462
Si Si6 0.828231 0.894240 0.094326
Si Si7 0.002271 0.653122 0.111405
Si Si8 0.820469 0.032052 0.178460
O O1 0.500000 0.349143 0.750000
O O2 0.390688 0.304754 0.605453
O O3 0.580086 0.360466 0.511063
O O4 0.417518 0.421717 0.620929
O O5 0.396039 0.673559 0.891831
O O6 0.460733 0.780768 0.942785
O O7 0.250000 0.750000 0.000000
O O8 0.206944 0.071619 0.592463
O O9 0.402631 0.108414 0.465519
O O10 0.282509 0.045349 0.369118
O O11 0.368847 0.991420 0.518053
O O12 0.608722 0.876186 0.900206
O O13 0.781945 0.947287 0.817995
O O14 0.727980 0.901083 0.041312
O O15 0.819531 0.861639 0.219104
O O16 0.000000 0.908377 0.250000
O O17 0.851680 0.963323 0.133166
O O18 0.000000 0.652906 0.250000
#
# Coordination Sequence:
#
# PCOD9301227 Si02
#       8
#     8   8   8   8   8   8   8   8
#     4  12  24  43  65  99 140 180 226 286 351 408
#     4  12  26  47  72  97 133 184 242 292 337 412
#     4  11  22  43  68 102 138 174 228 283 338 417
#     4  11  24  42  66 103 142 175 222 281 353 416
#     4  12  22  42  69 100 135 173 232 282 345 405
#     4  11  24  39  66 102 140 175 221 283 351 419
#     4  12  25  45  73  97 132 188 238 281 338 412
#     4  11  20  39  65  99 138 177 219 276 353 414
#
# _framework density 20.394995999999999
#
# number of rings (size 3 to 8) (size 9 to 14) (size 15 to 20)
#    0.000    0.500    7.500    1.125    0.000    1.500 
#    2.250    1.250    0.000    0.000    0.000    0.000 
#    0.000    0.000    0.000    0.000    0.000    0.000 
#
# Total GULP energy -178562.120987 kJ/mol
# GULP energy per Si atom -5580.066281 kJ/mol
# Density = 2.034858 g / cm^3
# Si number density = 20.394996 Si / 1000 Ang^3
#
#
#
# Elastic Constant Matrix: (Units=GPa)
#
#
# Indices 1 2 3 4 5 6 
#
# 1 74.6310 37.5250 27.1201 0.0000 15.6633 0.0000
# 2 37.5250 74.2688 12.0537 0.0000 12.6419 0.0000
# 3 27.1201 12.0537 72.2505 0.0000 26.6751 0.0000
# 4 0.0000 0.0000 0.0000 11.5707 0.0000 3.9950
# 5 15.6633 12.6419 26.6751 0.0000 40.0802 0.0000
# 6 0.0000 0.0000 0.0000 3.9950 0.0000 24.5443
#
#
#
# Elastic Compliance Matrix: (Units=1/GPa)
#
#
# Indices 1 2 3 4 5 6 
#
# 1 0.020302 -0.009122 -0.005610 0.000000 -0.001323 0.000000
# 2 -0.009122 0.018377 0.001567 0.000000 -0.003274 0.000000
# 3 -0.005610 0.001567 0.019964 0.000000 -0.011589 0.000000
# 4 0.000000 0.000000 0.000000 0.091572 0.000000 -0.014905
# 5 -0.001323 -0.003274 -0.011589 0.000000 0.034212 0.000000
# 6 0.000000 0.000000 0.000000 -0.014905 0.000000 0.043169
#
#
# Mechanical properties :
#
#
# Convention : Reuss Voigt Hill
#
# Bulk Modulus (GPa) = 30.94834 41.61644 36.28239
# Shear Modulus (GPa) = 18.88952 24.86914 21.87933
#
# Velocity S-wave (km/s) = 3.04663 3.49574 3.27888
# Velocity P-wave (km/s) = 5.25199 6.06161 5.67126
#
# Compressibility (1/GPa) = 0.03231191
#
# Stress axis : x y z
#
# Youngs Moduli (GPa) = 49.25528 54.41676 50.09084
#
# Poissons Ratio (x) = 0.49640 0.28103
# Poissons Ratio (y) = 0.44932 -0.07850
# Poissons Ratio (z) = 0.27634 -0.08528
#
# Static dielectric constant tensor:
#      x y z
#    x 1.747070 0.000000 0.009100 
#    y 0.000000 1.727120 0.000000 
#    z 0.009100 0.000000 1.747530 
# 
# From -- ./inp_files/91236.got.cif
#   From: 2010.05.17/outbox.cif.g08.bks.cpg/sg15_46_cif.got.tgz:91236.got - 2010.06.03 18:47:42.
