data_PCOD9301253
_publ_section_title
;
Structure prediction by ZEFSAII (Michael W. Deem and Ramdas Pophale) SiO2 
 PCOD9301253
Probable space group: C 2/C
;
_chemical_formula_sum "Si O2"
_cell_formula_units_Z 48
_cell_length_a 26.058207
_cell_length_b 7.634670
_cell_length_c 19.946021
_cell_angle_alpha 90.000000
_cell_angle_beta 149.480660
_cell_angle_gamma 90.000000
_cell_volume 2015.156216
_symmetry_space_group_name_H-M "C 2/C"
_symmetry_group_IT_number 15
_symmetry_cell_setting 'monoclinic'
loop_
_space_group_symop_operation_xyz
x,y,z
-x,y,1/2-z
-x,-y,-z
x,-y,1/2+z
1/2+x,1/2+y,z
1/2-x,1/2+y,1/2-z
1/2-x,1/2-y,-z
1/2+x,1/2-y,1/2+z
loop_
_atom_site_type_symbol
_atom_site_label
_atom_site_fract_x
_atom_site_fract_y
_atom_site_fract_z
Si Si1 0.781001 0.478310 0.560061
Si Si2 0.769816 0.418131 0.696211
Si Si3 0.048973 0.037494 0.946243
Si Si4 0.080324 0.364926 0.893168
Si Si5 0.380149 0.141387 0.921168
Si Si6 0.088057 0.831441 0.794679
O O1 0.798356 0.391698 0.651604
O O2 0.679219 0.124252 0.459774
O O3 0.846204 0.657255 0.640077
O O4 0.667482 0.531574 0.414792
O O5 0.664434 0.532708 0.578303
O O6 0.725896 0.239824 0.678888
O O7 0.857645 0.513712 0.835541
O O8 0.962758 0.901429 0.831448
O O9 0.050142 0.172092 0.884118
O O10 0.045702 0.187587 0.001382
O O11 0.000000 0.430152 0.750000
O O12 0.089578 0.457923 0.975762
O O13 0.000000 0.808062 0.750000
#
# Coordination Sequence:
#
# PCOD9301253 Si02
#       6
#     8   8   8   8   8   8
#     4  11  23  34  68  97 122 158 222 262 304 378
#     4   9  19  39  60  93 118 171 208 250 311 374
#     4   8  20  38  64  80 128 172 195 256 313 377
#     4   9  20  40  62  93 120 168 207 260 312 370
#     4   8  20  37  67  83 127 175 198 254 322 367
#     4  11  20  40  58  96 129 161 201 271 324 360
#
# _framework density 23.819492
#
# number of rings (size 3 to 8) (size 9 to 14) (size 15 to 20)
#    2.000    0.333    1.667    1.000    2.333    5.333 
#    3.000    1.667    0.000    0.000    0.000    0.000 
#    0.000    0.000    0.000    0.000    0.000    0.000 
#
# Total GULP energy -133628.438057 kJ/mol
# GULP energy per Si atom -5567.851586 kJ/mol
# Density = 2.376528 g / cm^3
# Si number density = 23.819492 Si / 1000 Ang^3
#
#
#
# Elastic Constant Matrix: (Units=GPa)
#
#
# Indices 1 2 3 4 5 6 
#
# 1 31.6930 6.7385 26.3389 0.0000 -5.1586 0.0000
# 2 6.7385 56.4774 32.6062 0.0000 -9.0857 0.0000
# 3 26.3389 32.6062 154.0394 0.0000 -23.3892 0.0000
# 4 0.0000 0.0000 0.0000 1.3903 0.0000 -7.5755
# 5 -5.1586 -9.0857 -23.3892 0.0000 40.0692 0.0000
# 6 0.0000 0.0000 0.0000 -7.5755 0.0000 18.2658
#
#
#
# Elastic Compliance Matrix: (Units=1/GPa)
#
#
# Indices 1 2 3 4 5 6 
#
# 1 0.036858 -0.000775 -0.005974 0.000000 0.001082 0.000000
# 2 -0.000775 0.020380 -0.003835 0.000000 0.002283 0.000000
# 3 -0.005974 -0.003835 0.008862 0.000000 0.003534 0.000000
# 4 0.000000 0.000000 0.000000 -0.570932 0.000000 -0.236786
# 5 0.001082 0.002283 0.003534 0.000000 0.027677 0.000000
# 6 0.000000 0.000000 0.000000 -0.236786 0.000000 -0.043457
#
#
# Mechanical properties :
#
#
# Convention : Reuss Voigt Hill
#
# Bulk Modulus (GPa) = 22.25534 41.50857 31.88196
# Shear Modulus (GPa) = -10.32061 23.71348 6.69643
#
# Velocity S-wave (km/s) = -2.08381 3.15866 1.67852
# Velocity P-wave (km/s) = 1.89049 5.54680 4.14372
#
# Compressibility (1/GPa) = 0.04493304
#
# Stress axis : x y z
#
# Youngs Moduli (GPa) = 27.13089 49.06811 112.84549
#
# Poissons Ratio (x) = 0.03801 0.67414
# Poissons Ratio (y) = 0.02102 0.43274
# Poissons Ratio (z) = 0.16208 0.18817
#
# Static dielectric constant tensor:
#      x y z
#    x 1.960420 0.000000 0.047690 
#    y 0.000000 1.946960 0.000000 
#    z 0.047690 0.000000 1.980950 
# 
# From -- ./inp_files/259093.got.cif
#   From: 2010.05.17/outbox.cif.g08.bks.cpg/sg15_130_cif.got.tgz:259093.got - 2010.06.03 18:47:42.
