data_PCOD9301769
_publ_section_title
;
Structure prediction by ZEFSAII (Michael W. Deem and Ramdas Pophale) SiO2 
 PCOD9301769
Probable space group: C 2/C
;
_chemical_formula_sum "Si O2"
_cell_formula_units_Z 40
_cell_length_a 20.805382
_cell_length_b 5.079495
_cell_length_c 23.031823
_cell_angle_alpha 90.000000
_cell_angle_beta 140.418674
_cell_angle_gamma 90.000000
_cell_volume 1550.892847
_symmetry_space_group_name_H-M "C 2/C"
_symmetry_group_IT_number 15
_symmetry_cell_setting 'monoclinic'
loop_
_space_group_symop_operation_xyz
x,y,z
-x,y,1/2-z
-x,-y,-z
x,-y,1/2+z
1/2+x,1/2+y,z
1/2-x,1/2+y,1/2-z
1/2-x,1/2-y,-z
1/2+x,1/2-y,1/2+z
loop_
_atom_site_type_symbol
_atom_site_label
_atom_site_fract_x
_atom_site_fract_y
_atom_site_fract_z
Si Si1 0.940025 0.789628 0.326309
Si Si2 0.109285 0.622676 0.534490
Si Si3 0.170255 0.862752 0.140258
Si Si4 0.223008 0.003401 0.441018
Si Si5 0.388844 0.785647 0.232419
O O1 0.841381 0.802666 0.299665
O O2 0.930576 0.581426 0.267312
O O3 0.028585 0.700260 0.430089
O O4 0.955697 0.085452 0.316292
O O5 0.095870 0.345352 0.556818
O O6 0.210082 0.576515 0.567518
O O7 0.129896 0.851513 0.594979
O O8 0.280651 0.818575 0.190223
O O9 0.250000 0.750000 0.500000
O O10 0.250000 0.250000 0.500000
O O11 0.127504 0.135040 0.339862
#
# Coordination Sequence:
#
# PCOD9301769 Si02
#       5
#     8   8   8   8   8
#     4  12  22  38  60  95 129 155 195 264 315 367
#     4  11  23  39  62  91 121 162 211 250 307 384
#     4  11  21  39  61  89 128 170 197 236 311 398
#     4  11  23  44  65  82 114 166 214 259 311 374
#     4  11  23  38  61  91 121 159 209 253 311 381
#
# _framework density 25.791595999999998
#
# number of rings (size 3 to 8) (size 9 to 14) (size 15 to 20)
#    0.000    0.800    0.000   10.800    0.000    0.000 
#    0.000    6.000    0.000    0.000    0.000    0.000 
#    0.000    0.000    0.000    0.000    0.000    0.000 
#
# Total GULP energy -111770.548031 kJ/mol
# GULP energy per Si atom -5588.527402 kJ/mol
# Density = 2.573289 g / cm^3
# Si number density = 25.791596 Si / 1000 Ang^3
#
#
#
# Elastic Constant Matrix: (Units=GPa)
#
#
# Indices 1 2 3 4 5 6 
#
# 1 54.6724 20.8635 3.4673 0.0054 -14.3007 -0.0357
# 2 20.8635 189.7197 43.3210 0.0056 -15.8396 -0.0440
# 3 3.4673 43.3210 98.9753 0.0016 -12.3166 -0.0116
# 4 0.0054 0.0056 0.0016 69.5348 0.0019 -17.6452
# 5 -14.3007 -15.8396 -12.3166 0.0019 36.4133 0.0028
# 6 -0.0357 -0.0440 -0.0116 -17.6452 0.0028 25.0612
#
#
#
# Elastic Compliance Matrix: (Units=1/GPa)
#
#
# Indices 1 2 3 4 5 6 
#
# 1 0.020982 -0.001901 0.001065 0.000006 0.007773 0.000030
# 2 -0.001901 0.006138 -0.002485 0.000002 0.001083 0.000008
# 3 0.001065 -0.002485 0.011558 0.000000 0.003246 0.000002
# 4 0.000006 0.000002 0.000000 0.017510 0.000001 0.012328
# 5 0.007773 0.001083 0.003246 0.000001 0.032084 0.000012
# 6 0.000030 0.000008 0.000002 0.012328 0.000012 0.048582
#
#
# Mechanical properties :
#
#
# Convention : Reuss Voigt Hill
#
# Bulk Modulus (GPa) = 31.21706 53.18567 42.20136
# Shear Modulus (GPa) = 32.43031 44.58291 38.50661
#
# Velocity S-wave (km/s) = 3.54983 4.16213 3.86812
# Velocity P-wave (km/s) = 5.37881 6.61543 6.02891
#
# Compressibility (1/GPa) = 0.03203377
#
# Stress axis : x y z
#
# Youngs Moduli (GPa) = 47.65953 162.92219 86.52023
#
# Poissons Ratio (x) = 0.30980 -0.09210
# Poissons Ratio (y) = 0.09062 0.21502
# Poissons Ratio (z) = -0.05074 0.40489
#
# Static dielectric constant tensor:
#      x y z
#    x 2.130760 0.000010 0.038910 
#    y 0.000010 1.978200 -0.000010 
#    z 0.038910 -0.000010 2.019770 
# 
# From -- ./inp_files/254535.got.cif
#   From: 2010.05.17/outbox.cif.g08.bks.cpg/sg15_128_cif.got.tgz:254535.got - 2010.06.03 18:47:42.
