data_PCOD9301762
_publ_section_title
;
Structure prediction by ZEFSAII (Michael W. Deem and Ramdas Pophale) SiO2 
 PCOD9301762
Probable space group: C 2/C
;
_chemical_formula_sum "Si O2"
_cell_formula_units_Z 56
_cell_length_a 23.492762
_cell_length_b 13.714276
_cell_length_c 8.102352
_cell_angle_alpha 90.000000
_cell_angle_beta 92.696519
_cell_angle_gamma 90.000000
_cell_volume 2607.575703
_symmetry_space_group_name_H-M "C 2/C"
_symmetry_group_IT_number 15
_symmetry_cell_setting 'monoclinic'
loop_
_space_group_symop_operation_xyz
x,y,z
-x,y,1/2-z
-x,-y,-z
x,-y,1/2+z
1/2+x,1/2+y,z
1/2-x,1/2+y,1/2-z
1/2-x,1/2-y,-z
1/2+x,1/2-y,1/2+z
loop_
_atom_site_type_symbol
_atom_site_label
_atom_site_fract_x
_atom_site_fract_y
_atom_site_fract_z
Si Si1 0.500611 0.115024 0.448281
Si Si2 0.196147 0.228544 0.787416
Si Si3 0.162513 0.477281 0.311701
Si Si4 0.790144 0.970082 0.366878
Si Si5 0.375089 0.145344 0.005517
Si Si6 0.810831 0.848691 0.706725
Si Si7 0.119172 0.296803 0.480106
O O1 0.500000 0.120932 0.250000
O O2 0.559036 0.164903 0.519324
O O3 0.446040 0.172012 0.511812
O O4 0.500000 0.000000 0.500000
O O5 0.205257 0.113243 0.773650
O O6 0.168803 0.270071 0.951442
O O7 0.254779 0.283633 0.743797
O O8 0.146925 0.251201 0.646585
O O9 0.226631 0.511239 0.338652
O O10 0.123535 0.570019 0.338880
O O11 0.152229 0.396852 0.449787
O O12 0.149659 0.420054 0.144035
O O13 0.797127 0.911435 0.537880
O O14 0.826778 0.066503 0.338620
O O15 0.862062 0.776193 0.664191
#
# Coordination Sequence:
#
# PCOD9301762 Si02
#       7
#     8   8   8   8   8   8   8
#     4  12  24  38  61  88 120 158 194 240 299 358
#     4  11  21  39  59  87 120 159 200 243 298 357
#     4  12  21  35  57  89 126 158 191 243 292 358
#     4  11  22  36  59  87 122 159 199 238 299 354
#     4  12  24  34  56  89 122 156 198 240 294 356
#     4  11  22  38  61  87 119 164 197 247 298 352
#     4  11  22  40  58  83 124 159 197 241 300 358
#
# _framework density 21.475885999999999
#
# number of rings (size 3 to 8) (size 9 to 14) (size 15 to 20)
#    0.000    0.571    7.143    3.429    0.000    1.714 
#    0.000    0.000    0.000    0.857    0.000    0.000 
#    0.000    0.000    0.000    0.000    0.000    0.000 
#
# Total GULP energy -156592.516711 kJ/mol
# GULP energy per Si atom -5592.589883 kJ/mol
# Density = 2.142701 g / cm^3
# Si number density = 21.475886 Si / 1000 Ang^3
#
#
#
# Elastic Constant Matrix: (Units=GPa)
#
#
# Indices 1 2 3 4 5 6 
#
# 1 129.7304 51.6122 25.8114 0.0000 -23.1448 0.0000
# 2 51.6122 121.0947 5.7261 0.0000 -14.5525 0.0000
# 3 25.8114 5.7261 50.7266 0.0000 -4.0168 0.0000
# 4 0.0000 0.0000 0.0000 40.6737 0.0000 -9.9635
# 5 -23.1448 -14.5525 -4.0168 0.0000 20.2644 0.0000
# 6 0.0000 0.0000 0.0000 -9.9635 0.0000 36.3994
#
#
#
# Elastic Compliance Matrix: (Units=1/GPa)
#
#
# Indices 1 2 3 4 5 6 
#
# 1 0.011913 -0.003643 -0.004856 0.000000 0.010027 0.000000
# 2 -0.003643 0.010165 0.000970 0.000000 0.003332 0.000000
# 3 -0.004856 0.000970 0.022037 0.000000 -0.000482 0.000000
# 4 0.000000 0.000000 0.000000 0.026353 0.000000 0.007214
# 5 0.010027 0.003332 -0.000482 0.000000 0.063097 0.000000
# 6 0.000000 0.000000 0.000000 0.007214 0.000000 0.029448
#
#
# Mechanical properties :
#
#
# Convention : Reuss Voigt Hill
#
# Bulk Modulus (GPa) = 34.41580 51.98344 43.19962
# Shear Modulus (GPa) = 26.63027 34.02764 30.32895
#
# Velocity S-wave (km/s) = 3.52519 3.98484 3.76205
# Velocity P-wave (km/s) = 5.71222 6.74018 6.24738
#
# Compressibility (1/GPa) = 0.02905642
#
# Stress axis : x y z
#
# Youngs Moduli (GPa) = 83.94419 98.37601 45.37832
#
# Poissons Ratio (x) = 0.35835 0.22037
# Poissons Ratio (y) = 0.30578 -0.04401
# Poissons Ratio (z) = 0.40766 -0.09541
#
# Static dielectric constant tensor:
#      x y z
#    x 1.766310 0.000000 -0.039010 
#    y 0.000000 1.791230 0.000000 
#    z -0.039010 0.000000 1.955530 
# 
# From -- ./inp_files/55602.got.cif
#   From: 2010.05.17/outbox.cif.g08.bks.cpg/sg15_28_cif.got.tgz:55602.got - 2010.06.03 18:47:42.
