data_PCOD9301528
_publ_section_title
;
Structure prediction by ZEFSAII (Michael W. Deem and Ramdas Pophale) SiO2 
 PCOD9301528
Probable space group: C 2/C
;
_chemical_formula_sum "Si O2"
_cell_formula_units_Z 64
_cell_length_a 17.952645
_cell_length_b 30.663521
_cell_length_c 14.444707
_cell_angle_alpha 90.000000
_cell_angle_beta 152.232531
_cell_angle_gamma 90.000000
_cell_volume 3704.565686
_symmetry_space_group_name_H-M "C 2/C"
_symmetry_group_IT_number 15
_symmetry_cell_setting 'monoclinic'
loop_
_space_group_symop_operation_xyz
x,y,z
-x,y,1/2-z
-x,-y,-z
x,-y,1/2+z
1/2+x,1/2+y,z
1/2-x,1/2+y,1/2-z
1/2-x,1/2-y,-z
1/2+x,1/2-y,1/2+z
loop_
_atom_site_type_symbol
_atom_site_label
_atom_site_fract_x
_atom_site_fract_y
_atom_site_fract_z
Si Si1 0.831392 0.521119 0.843495
Si Si2 0.655219 0.553852 0.044611
Si Si3 0.759844 0.621556 0.299458
Si Si4 0.811637 0.698157 0.656444
Si Si5 0.636938 0.104697 0.743210
Si Si6 0.806366 0.708735 0.438184
Si Si7 0.802607 0.027026 0.609183
Si Si8 0.158118 0.924133 0.868983
O O1 0.704304 0.485325 0.668134
O O2 0.806581 0.566623 0.762975
O O3 0.819247 0.528904 0.939663
O O4 0.000000 0.500000 0.000000
O O5 0.706578 0.599307 0.146131
O O6 0.466167 0.550506 0.820178
O O7 0.739897 0.545200 0.038808
O O8 0.739195 0.673072 0.293154
O O9 0.665348 0.597343 0.277200
O O10 0.947137 0.610201 0.521715
O O11 0.785804 0.652692 0.680422
O O12 0.753393 0.696084 0.485163
O O13 0.740422 0.741056 0.624975
O O14 0.002370 0.704706 0.857533
O O15 0.687718 0.089721 0.901651
O O16 0.841604 0.976106 0.638431
O O17 0.000000 0.910323 0.750000
#
# Coordination Sequence:
#
# PCOD9301528 Si02
#       8
#     8   8   8   8   8   8   8   8
#     4  12  22  35  55  81 107 144 187 227 276 328
#     4  11  22  38  54  75 108 152 186 226 274 319
#     4  11  22  36  54  77 111 147 186 221 277 331
#     4   9  18  33  52  74 112 137 176 214 276 323
#     4  11  21  36  52  82 110 145 181 225 271 330
#     4   9  18  34  52  76 106 143 168 223 266 332
#     4  11  23  38  52  74 114 146 187 234 269 315
#     4  12  21  32  53  78 107 148 188 224 264 319
#
# _framework density 17.275979
#
# number of rings (size 3 to 8) (size 9 to 14) (size 15 to 20)
#    0.000    1.250    6.250    0.750    1.750    1.500 
#    0.000    0.000    0.000    0.000    0.000    0.875 
#    0.000    0.000    0.000    0.000    0.000    0.000 
#
# Total GULP energy -178635.762343 kJ/mol
# GULP energy per Si atom -5582.367573 kJ/mol
# Density = 1.723666 g / cm^3
# Si number density = 17.275979 Si / 1000 Ang^3
#
#
#
# Elastic Constant Matrix: (Units=GPa)
#
#
# Indices 1 2 3 4 5 6 
#
# 1 88.6924 26.2041 6.9281 0.0000 -13.1774 0.0000
# 2 26.2041 124.6158 23.8436 0.0000 -11.9355 0.0000
# 3 6.9281 23.8436 43.4238 0.0000 -8.9118 0.0000
# 4 0.0000 0.0000 0.0000 19.2695 0.0000 -5.0220
# 5 -13.1774 -11.9355 -8.9118 0.0000 16.0361 0.0000
# 6 0.0000 0.0000 0.0000 -5.0220 0.0000 27.2014
#
#
#
# Elastic Compliance Matrix: (Units=1/GPa)
#
#
# Indices 1 2 3 4 5 6 
#
# 1 0.013277 -0.002037 0.001048 0.000000 0.009976 0.000000
# 2 -0.002037 0.009569 -0.004302 0.000000 0.003058 0.000000
# 3 0.001048 -0.004302 0.027929 0.000000 0.013180 0.000000
# 4 0.000000 0.000000 0.000000 0.054519 0.000000 0.010065
# 5 0.009976 0.003058 0.013180 0.000000 0.080158 0.000000
# 6 0.000000 0.000000 0.000000 0.010065 0.000000 0.038621
#
#
# Mechanical properties :
#
#
# Convention : Reuss Voigt Hill
#
# Bulk Modulus (GPa) = 24.88010 41.18708 33.03359
# Shear Modulus (GPa) = 20.15705 25.81846 22.98776
#
# Velocity S-wave (km/s) = 3.41950 3.87003 3.65172
# Velocity P-wave (km/s) = 5.47937 6.62284 6.07805
#
# Compressibility (1/GPa) = 0.04019276
#
# Stress axis : x y z
#
# Youngs Moduli (GPa) = 75.31750 104.50520 35.80553
#
# Poissons Ratio (x) = 0.21286 -0.03751
# Poissons Ratio (y) = 0.15341 0.15402
# Poissons Ratio (z) = -0.07890 0.44955
#
# Static dielectric constant tensor:
#      x y z
#    x 1.600380 0.000000 0.015720 
#    y 0.000000 1.592710 0.000000 
#    z 0.015720 0.000000 1.616450 
# 
# From -- ./inp_files/164522.got.cif
#   From: 2010.05.17/outbox.cif.g08.bks.cpg/sg15_83_cif.got.tgz:164522.got - 2010.06.03 18:47:42.
