data_PCOD9301787
_publ_section_title
;
Structure prediction by ZEFSAII (Michael W. Deem and Ramdas Pophale) SiO2 
 PCOD9301787
Probable space group: C 2/C
;
_chemical_formula_sum "Si O2"
_cell_formula_units_Z 44
_cell_length_a 11.252392
_cell_length_b 19.968279
_cell_length_c 13.865171
_cell_angle_alpha 90.000000
_cell_angle_beta 139.153020
_cell_angle_gamma 90.000000
_cell_volume 2037.585075
_symmetry_space_group_name_H-M "C 2/C"
_symmetry_group_IT_number 15
_symmetry_cell_setting 'monoclinic'
loop_
_space_group_symop_operation_xyz
x,y,z
-x,y,1/2-z
-x,-y,-z
x,-y,1/2+z
1/2+x,1/2+y,z
1/2-x,1/2+y,1/2-z
1/2-x,1/2-y,-z
1/2+x,1/2-y,1/2+z
loop_
_atom_site_type_symbol
_atom_site_label
_atom_site_fract_x
_atom_site_fract_y
_atom_site_fract_z
Si Si1 0.776381 0.593295 0.802561
Si Si2 0.277232 0.675807 0.921274
Si Si3 0.814316 0.805228 0.756381
Si Si4 0.204761 0.221261 0.868130
Si Si5 0.328476 0.089544 0.475120
Si Si6 0.000000 0.996466 0.250000
O O1 0.715133 0.625193 0.664020
O O2 0.813988 0.657176 0.896316
O O3 0.617522 0.547975 0.748302
O O4 0.971830 0.558111 0.910666
O O5 0.212444 0.746002 0.837680
O O6 0.476062 0.684849 0.088832
O O7 0.154607 0.644566 0.929682
O O8 0.720953 0.778523 0.796867
O O9 0.732461 0.871839 0.659152
O O10 0.000000 0.196504 0.750000
O O11 0.250000 0.250000 0.000000
O O12 0.158759 0.041593 0.395436
#
# Coordination Sequence:
#
# PCOD9301787 Si02
#       6
#     8   8   8   8   8   4
#     4  11  25  44  71  98 135 185 228 284 342 408
#     4  11  23  43  68 106 142 172 227 291 355 410
#     4  11  22  39  69 106 139 176 226 289 353 409
#     4  11  21  39  63  99 137 174 219 277 343 402
#     4  12  24  46  67 102 136 182 234 283 341 409
#     4  12  26  48  70  94 146 184 242 272 332 428
#
# _framework density 21.594190000000001
#
# number of rings (size 3 to 8) (size 9 to 14) (size 15 to 20)
#    0.000    0.727    2.727    7.091    0.000    3.636 
#    0.000    0.000    0.000    0.000    0.000    0.000 
#    0.000    0.000    0.000    0.000    0.000    0.000 
#
# Total GULP energy -123070.812324 kJ/mol
# GULP energy per Si atom -5594.127833 kJ/mol
# Density = 2.154504 g / cm^3
# Si number density = 21.594190 Si / 1000 Ang^3
#
#
#
# Elastic Constant Matrix: (Units=GPa)
#
#
# Indices 1 2 3 4 5 6 
#
# 1 115.2177 29.4039 46.3165 0.0000 9.1900 0.0000
# 2 29.4039 64.1803 36.8207 0.0000 -1.7113 0.0000
# 3 46.3165 36.8207 129.6762 0.0000 15.2266 0.0000
# 4 0.0000 0.0000 0.0000 25.3627 0.0000 2.6001
# 5 9.1900 -1.7113 15.2266 0.0000 54.5909 0.0000
# 6 0.0000 0.0000 0.0000 2.6001 0.0000 41.4999
#
#
#
# Elastic Compliance Matrix: (Units=1/GPa)
#
#
# Indices 1 2 3 4 5 6 
#
# 1 0.010734 -0.003376 -0.002740 0.000000 -0.001148 0.000000
# 2 -0.003376 0.019917 -0.004745 0.000000 0.002516 0.000000
# 3 -0.002740 -0.004745 0.010340 0.000000 -0.002571 0.000000
# 4 0.000000 0.000000 0.000000 0.039683 0.000000 -0.002486
# 5 -0.001148 0.002516 -0.002571 0.000000 0.019307 0.000000
# 6 0.000000 0.000000 0.000000 -0.002486 0.000000 0.024252
#
#
# Mechanical properties :
#
#
# Convention : Reuss Voigt Hill
#
# Bulk Modulus (GPa) = 51.90024 59.35072 55.62548
# Shear Modulus (GPa) = 32.81294 37.39291 35.10293
#
# Velocity S-wave (km/s) = 3.90234 4.16579 4.03621
# Velocity P-wave (km/s) = 6.66265 7.11917 6.89469
#
# Compressibility (1/GPa) = 0.01926773
#
# Stress axis : x y z
#
# Youngs Moduli (GPa) = 93.16144 50.20790 96.71633
#
# Poissons Ratio (x) = 0.16951 0.26504
# Poissons Ratio (y) = 0.31453 0.45891
# Poissons Ratio (z) = 0.25530 0.23823
#
# Static dielectric constant tensor:
#      x y z
#    x 1.803530 0.000000 0.034290 
#    y 0.000000 1.828520 0.000000 
#    z 0.034290 0.000000 1.765320 
# 
# From -- ./inp_files/30930.got.cif
#   From: 2010.05.17/outbox.cif.g08.bks.cpg/sg15_16_cif.got.tgz:30930.got - 2010.06.03 18:47:42.
