data_PCOD9301913
_publ_section_title
;
Structure prediction by ZEFSAII (Michael W. Deem and Ramdas Pophale) SiO2 
 PCOD9301913
Probable space group: C 2/C
;
_chemical_formula_sum "Si O2"
_cell_formula_units_Z 56
_cell_length_a 15.326155
_cell_length_b 17.651448
_cell_length_c 11.072465
_cell_angle_alpha 90.000000
_cell_angle_beta 67.325835
_cell_angle_gamma 90.000000
_cell_volume 2763.910892
_symmetry_space_group_name_H-M "C 2/C"
_symmetry_group_IT_number 15
_symmetry_cell_setting 'monoclinic'
loop_
_space_group_symop_operation_xyz
x,y,z
-x,y,1/2-z
-x,-y,-z
x,-y,1/2+z
1/2+x,1/2+y,z
1/2-x,1/2+y,1/2-z
1/2-x,1/2-y,-z
1/2+x,1/2-y,1/2+z
loop_
_atom_site_type_symbol
_atom_site_label
_atom_site_fract_x
_atom_site_fract_y
_atom_site_fract_z
Si Si1 0.410581 0.641626 0.587929
Si Si2 0.270126 0.444941 0.496622
Si Si3 0.739315 0.231201 0.269830
Si Si4 0.891751 0.355266 0.815179
Si Si5 0.652510 0.491221 0.785778
Si Si6 0.884398 0.206115 0.975987
Si Si7 0.101969 0.842977 0.680398
O O1 0.323329 0.694356 0.677196
O O2 0.415770 0.563155 0.658372
O O3 0.508291 0.687177 0.546780
O O4 0.394197 0.625115 0.455995
O O5 0.165430 0.413343 0.572043
O O6 0.297257 0.482912 0.610915
O O7 0.284001 0.490519 0.365719
O O8 0.337053 0.370701 0.453604
O O9 0.668078 0.161536 0.274959
O O10 0.807466 0.208950 0.343649
O O11 0.815348 0.234359 0.119842
O O12 0.887831 0.272453 0.877621
O O13 0.000000 0.377753 0.750000
O O14 0.604614 0.411656 0.776095
O O15 0.000000 0.803433 0.750000
#
# Coordination Sequence:
#
# PCOD9301913 Si02
#       7
#     8   8   8   8   8   8   8
#     4  12  24  40  67  98 132 175 215 270 333 394
#     4  11  24  41  64  95 134 172 218 269 329 393
#     4  11  22  42  64  93 131 172 219 273 326 381
#     4  11  21  40  66  92 125 168 226 280 315 376
#     4  12  24  41  66  96 137 175 210 270 336 395
#     4  11  22  39  64  98 127 168 219 278 324 384
#     4  12  24  42  64  95 140 171 212 268 337 398
#
# _framework density 20.261144999999999
#
# number of rings (size 3 to 8) (size 9 to 14) (size 15 to 20)
#    0.000    0.571    7.143    3.857    2.000    1.143 
#    0.000    0.714    0.000    0.857    0.000    0.000 
#    0.000    0.000    0.000    0.000    0.000    0.000 
#
# Total GULP energy -156410.569585 kJ/mol
# GULP energy per Si atom -5586.091771 kJ/mol
# Density = 2.021503 g / cm^3
# Si number density = 20.261145 Si / 1000 Ang^3
#
#
#
# Elastic Constant Matrix: (Units=GPa)
#
#
# Indices 1 2 3 4 5 6 
#
# 1 125.2481 25.8892 49.7023 0.0000 -23.7862 0.0000
# 2 25.8892 46.5981 23.9517 0.0000 -11.6467 0.0000
# 3 49.7023 23.9517 95.6251 0.0000 4.5470 0.0000
# 4 0.0000 0.0000 0.0000 36.2949 0.0000 2.8762
# 5 -23.7862 -11.6467 4.5470 0.0000 36.4319 0.0000
# 6 0.0000 0.0000 0.0000 2.8762 0.0000 19.4757
#
#
#
# Elastic Compliance Matrix: (Units=1/GPa)
#
#
# Indices 1 2 3 4 5 6 
#
# 1 0.012493 -0.001457 -0.006533 0.000000 0.008506 0.000000
# 2 -0.001457 0.027882 -0.006645 0.000000 0.008792 0.000000
# 3 -0.006533 -0.006645 0.015916 0.000000 -0.008376 0.000000
# 4 0.000000 0.000000 0.000000 0.027878 0.000000 -0.004117
# 5 0.008506 0.008792 -0.008376 0.000000 0.036858 0.000000
# 6 0.000000 0.000000 0.000000 -0.004117 0.000000 0.051954
#
#
# Mechanical properties :
#
#
# Convention : Reuss Voigt Hill
#
# Bulk Modulus (GPa) = 37.00680 51.83975 44.42327
# Shear Modulus (GPa) = 23.66769 29.63571 26.65170
#
# Velocity S-wave (km/s) = 3.42150 3.82866 3.63079
# Velocity P-wave (km/s) = 5.82353 6.72207 6.28886
#
# Compressibility (1/GPa) = 0.02702206
#
# Stress axis : x y z
#
# Youngs Moduli (GPa) = 80.04271 35.86507 62.83091
#
# Poissons Ratio (x) = 0.05225 0.41048
# Poissons Ratio (y) = 0.11662 0.41748
# Poissons Ratio (z) = 0.52293 0.23831
#
# Static dielectric constant tensor:
#      x y z
#    x 1.778320 0.000000 0.041610 
#    y 0.000000 1.714690 0.000000 
#    z 0.041610 0.000000 1.760140 
# 
# From -- ./inp_files/98650.got.cif
#   From: 2010.05.17/outbox.cif.g08.bks.cpg/sg15_50_cif.got.tgz:98650.got - 2010.06.03 18:47:42.
