data_PCOD9301095
_publ_section_title
;
Structure prediction by ZEFSAII (Michael W. Deem and Ramdas Pophale) SiO2 
 PCOD9301095
Probable space group: C 2/C
;
_chemical_formula_sum "Si O2"
_cell_formula_units_Z 64
_cell_length_a 28.226032
_cell_length_b 14.705112
_cell_length_c 11.164503
_cell_angle_alpha 90.000000
_cell_angle_beta 143.031417
_cell_angle_gamma 90.000000
_cell_volume 2786.790923
_symmetry_space_group_name_H-M "C 2/C"
_symmetry_group_IT_number 15
_symmetry_cell_setting 'monoclinic'
loop_
_space_group_symop_operation_xyz
x,y,z
-x,y,1/2-z
-x,-y,-z
x,-y,1/2+z
1/2+x,1/2+y,z
1/2-x,1/2+y,1/2-z
1/2-x,1/2-y,-z
1/2+x,1/2-y,1/2+z
loop_
_atom_site_type_symbol
_atom_site_label
_atom_site_fract_x
_atom_site_fract_y
_atom_site_fract_z
Si Si1 0.324300 0.373178 0.860884
Si Si2 0.942217 0.192727 0.986770
Si Si3 0.823394 0.619692 0.598737
Si Si4 0.882697 0.784141 0.599543
Si Si5 0.573989 0.772042 0.809927
Si Si6 0.584908 0.504006 0.110818
Si Si7 0.780532 0.953322 0.424604
Si Si8 0.951554 0.484105 0.775184
O O1 0.259398 0.353258 0.629551
O O2 0.402796 0.418456 0.962702
O O3 0.351796 0.283751 0.986246
O O4 0.283885 0.457865 0.849245
O O5 0.901726 0.256458 0.005775
O O6 0.033226 0.172769 0.199979
O O7 0.938221 0.229582 0.845748
O O8 0.901004 0.095358 0.914040
O O9 0.869373 0.713996 0.680476
O O10 0.802112 0.571484 0.680174
O O11 0.876656 0.549745 0.633228
O O12 0.813559 0.856515 0.447054
O O13 0.500000 0.759024 0.750000
O O14 0.578462 0.880279 0.798113
O O15 0.654076 0.520361 0.344308
O O16 0.500000 0.500000 0.000000
O O17 0.000000 0.503438 0.750000
O O18 0.000000 0.500000 0.000000
#
# Coordination Sequence:
#
# PCOD9301095 Si02
#       8
#     8   8   8   8   8   8   8   8
#     4  11  25  42  68 105 148 191 232 299 380 449
#     4  11  22  39  70 104 137 181 243 301 363 435
#     4  11  28  46  69 102 144 192 249 305 376 453
#     4  11  24  41  67 101 140 182 237 298 361 442
#     4  11  25  45  74 108 146 192 249 308 371 447
#     4  11  20  37  64  98 143 185 230 287 356 447
#     4  11  23  41  65  99 144 191 225 290 368 446
#     4  11  28  54  84 108 144 201 267 330 377 440
#
# _framework density 22.965482999999999
#
# number of rings (size 3 to 8) (size 9 to 14) (size 15 to 20)
#    0.000    1.000    3.750    1.875    7.000    1.000 
#    2.250    1.250    0.000    0.000    0.000    0.000 
#    0.000    0.000    0.000    0.000    0.000    0.000 
#
# Total GULP energy -178653.655696 kJ/mol
# GULP energy per Si atom -5582.926740 kJ/mol
# Density = 2.291321 g / cm^3
# Si number density = 22.965483 Si / 1000 Ang^3
#
#
#
# Elastic Constant Matrix: (Units=GPa)
#
#
# Indices 1 2 3 4 5 6 
#
# 1 110.0695 34.3995 25.5902 0.0000 8.8941 0.0000
# 2 34.3995 109.1561 17.4643 0.0000 11.1107 0.0000
# 3 25.5902 17.4643 51.2724 0.0000 -5.2367 0.0000
# 4 0.0000 0.0000 0.0000 2.9475 0.0000 2.0576
# 5 8.8941 11.1107 -5.2367 0.0000 27.2389 0.0000
# 6 0.0000 0.0000 0.0000 2.0576 0.0000 31.7824
#
#
#
# Elastic Compliance Matrix: (Units=1/GPa)
#
#
# Indices 1 2 3 4 5 6 
#
# 1 0.011343 -0.002354 -0.005243 0.000000 -0.003751 0.000000
# 2 -0.002354 0.010800 -0.002933 0.000000 -0.004200 0.000000
# 3 -0.005243 -0.002933 0.023885 0.000000 0.007500 0.000000
# 4 0.000000 0.000000 0.000000 0.355330 0.000000 -0.023004
# 5 -0.003751 -0.004200 0.007500 0.000000 0.041092 0.000000
# 6 0.000000 0.000000 0.000000 -0.023004 0.000000 0.032953
#
#
# Mechanical properties :
#
#
# Convention : Reuss Voigt Hill
#
# Bulk Modulus (GPa) = 40.04924 47.26734 43.65829
# Shear Modulus (GPa) = 9.90521 25.26336 17.58428
#
# Velocity S-wave (km/s) = 2.07905 3.32031 2.77010
# Velocity P-wave (km/s) = 4.82079 5.94356 5.41137
#
# Compressibility (1/GPa) = 0.02496926
#
# Stress axis : x y z
#
# Youngs Moduli (GPa) = 88.16146 92.59437 41.86689
#
# Poissons Ratio (x) = 0.21796 0.21949
# Poissons Ratio (y) = 0.20753 0.12278
# Poissons Ratio (z) = 0.46219 0.27156
#
# Static dielectric constant tensor:
#      x y z
#    x 1.979370 0.000000 -0.062890 
#    y 0.000000 1.919850 0.000000 
#    z -0.062890 0.000000 1.852810 
# 
# From -- ./inp_files/123533.got.cif
#   From: 2010.05.17/outbox.cif.g08.bks.cpg/sg15_62_cif.got.tgz:123533.got - 2010.06.03 18:47:42.
