data_PCOD9301452
_publ_section_title
;
Structure prediction by ZEFSAII (Michael W. Deem and Ramdas Pophale) SiO2 
 PCOD9301452
Probable space group: C 2/C
;
_chemical_formula_sum "Si O2"
_cell_formula_units_Z 56
_cell_length_a 27.992897
_cell_length_b 13.815427
_cell_length_c 30.573128
_cell_angle_alpha 90.000000
_cell_angle_beta 166.887095
_cell_angle_gamma 90.000000
_cell_volume 2682.442344
_symmetry_space_group_name_H-M "C 2/C"
_symmetry_group_IT_number 15
_symmetry_cell_setting 'monoclinic'
loop_
_space_group_symop_operation_xyz
x,y,z
-x,y,1/2-z
-x,-y,-z
x,-y,1/2+z
1/2+x,1/2+y,z
1/2-x,1/2+y,1/2-z
1/2-x,1/2-y,-z
1/2+x,1/2-y,1/2+z
loop_
_atom_site_type_symbol
_atom_site_label
_atom_site_fract_x
_atom_site_fract_y
_atom_site_fract_z
Si Si1 0.381364 0.173926 0.545598
Si Si2 0.317210 0.082785 0.910643
Si Si3 0.732803 0.620146 0.224777
Si Si4 0.343386 0.607809 0.822094
Si Si5 0.204479 0.621870 0.901333
Si Si6 0.103689 0.644174 0.039605
Si Si7 0.568562 0.504752 0.764125
O O1 0.322512 0.275931 0.515072
O O2 0.599197 0.131427 0.759265
O O3 0.378751 0.193990 0.491383
O O4 0.208971 0.090769 0.399812
O O5 0.208233 0.079556 0.860552
O O6 0.159401 0.119625 0.732414
O O7 0.354533 0.968518 0.934638
O O8 0.546251 0.127725 0.104304
O O9 0.685426 0.506497 0.192822
O O10 0.748908 0.664990 0.287544
O O11 0.542737 0.650310 0.024444
O O12 0.128985 0.650893 0.649116
O O13 0.000000 0.612805 0.750000
O O14 0.371208 0.536876 0.059780
O O15 0.500000 0.544035 0.750000
#
# Coordination Sequence:
#
# PCOD9301452 Si02
#       7
#     8   8   8   8   8   8   8
#     4  11  21  32  45  57  73 101 144 182 224 253
#     4   8  16  26  40  60  77  97 122 158 207 255
#     4   8  13  25  42  59  81  94 109 149 206 259
#     4   8  13  25  42  60  80  93 111 147 206 263
#     4  12  22  34  45  53  72 110 149 193 225 245
#     4   8  16  26  39  61  77  92 119 161 209 261
#     4  11  21  33  44  57  78 105 144 185 217 249
#
# _framework density 20.876498000000002
#
# number of rings (size 3 to 8) (size 9 to 14) (size 15 to 20)
#    0.000    2.571    2.857    2.571    0.000    6.857 
#    0.000    0.000    0.000    0.000    0.000    0.000 
#    0.000    0.000    0.000    0.000    0.000    0.000 
#
# Total GULP energy -156224.091601 kJ/mol
# GULP energy per Si atom -5579.431843 kJ/mol
# Density = 2.082898 g / cm^3
# Si number density = 20.876498 Si / 1000 Ang^3
#
#
#
# Elastic Constant Matrix: (Units=GPa)
#
#
# Indices 1 2 3 4 5 6 
#
# 1 152.2280 5.8041 49.5909 0.0324 -0.8823 0.0301
# 2 5.8041 28.6536 -0.7575 -0.5412 -5.8771 -0.2466
# 3 49.5909 -0.7575 107.0527 0.0250 -30.9328 -0.0324
# 4 0.0324 -0.5412 0.0250 9.2503 0.0244 -1.1251
# 5 -0.8823 -5.8771 -30.9328 0.0244 30.4318 0.0044
# 6 0.0301 -0.2466 -0.0324 -1.1251 0.0044 13.5079
#
#
#
# Elastic Compliance Matrix: (Units=1/GPa)
#
#
# Indices 1 2 3 4 5 6 
#
# 1 0.008536 -0.003166 -0.005779 -0.000196 -0.006238 -0.000105
# 2 -0.003166 0.038375 0.005454 0.002318 0.012861 0.000910
# 3 -0.005779 0.005454 0.017433 0.000264 0.018606 0.000170
# 4 -0.000196 0.002318 0.000264 0.109351 0.000621 0.009151
# 5 -0.006238 0.012861 0.018606 0.000621 0.054075 0.000327
# 6 -0.000105 0.000910 0.000170 0.009151 0.000327 0.074810
#
#
# Mechanical properties :
#
#
# Convention : Reuss Voigt Hill
#
# Bulk Modulus (GPa) = 17.43322 44.13438 30.78380
# Shear Modulus (GPa) = 15.21223 26.19112 20.70168
#
# Velocity S-wave (km/s) = 2.70233 3.54584 3.15243
# Velocity P-wave (km/s) = 4.25506 6.16040 5.29415
#
# Compressibility (1/GPa) = 0.05736175
#
# Stress axis : x y z
#
# Youngs Moduli (GPa) = 117.14506 26.05882 57.36236
#
# Poissons Ratio (x) = 0.08250 0.33152
# Poissons Ratio (y) = 0.37089 -0.31286
# Poissons Ratio (z) = 0.67702 -0.14213
#
# Static dielectric constant tensor:
#      x y z
#    x 1.809770 -0.000010 -0.013060 
#    y -0.000010 1.752820 -0.000110 
#    z -0.013060 -0.000110 1.775740 
# 
# From -- ./inp_files/250237.got.cif
#   From: 2010.05.17/outbox.cif.g08.bks.cpg/sg15_126_cif.got.tgz:250237.got - 2010.06.03 18:47:42.
