data_PCOD9301487
_publ_section_title
;
Structure prediction by ZEFSAII (Michael W. Deem and Ramdas Pophale) SiO2 
 PCOD9301487
Probable space group: C 2/C
;
_chemical_formula_sum "Si O2"
_cell_formula_units_Z 64
_cell_length_a 11.592317
_cell_length_b 16.310743
_cell_length_c 29.194301
_cell_angle_alpha 90.000000
_cell_angle_beta 31.731479
_cell_angle_gamma 90.000000
_cell_volume 2903.203414
_symmetry_space_group_name_H-M "C 2/C"
_symmetry_group_IT_number 15
_symmetry_cell_setting 'monoclinic'
loop_
_space_group_symop_operation_xyz
x,y,z
-x,y,1/2-z
-x,-y,-z
x,-y,1/2+z
1/2+x,1/2+y,z
1/2-x,1/2+y,1/2-z
1/2-x,1/2-y,-z
1/2+x,1/2-y,1/2+z
loop_
_atom_site_type_symbol
_atom_site_label
_atom_site_fract_x
_atom_site_fract_y
_atom_site_fract_z
Si Si1 0.887786 0.262332 0.190236
Si Si2 0.174919 0.222949 0.904378
Si Si3 0.823118 0.453330 0.525447
Si Si4 0.868434 0.107348 0.961157
Si Si5 0.917172 0.348291 0.647819
Si Si6 0.021222 0.141337 0.678200
Si Si7 0.452230 0.546207 0.217359
Si Si8 0.059307 0.286713 0.426078
O O1 0.705358 0.200587 0.270963
O O2 0.735567 0.341338 0.234823
O O3 0.978621 0.242152 0.109302
O O4 0.074236 0.276732 0.164426
O O5 0.133221 0.295764 0.881517
O O6 0.090578 0.137231 0.910831
O O7 0.039899 0.242194 0.996247
O O8 0.713805 0.516449 0.526060
O O9 0.616299 0.417309 0.624229
O O10 0.000000 0.500000 0.500000
O O11 0.951153 0.377128 0.461212
O O12 0.675797 0.142825 0.057689
O O13 0.887691 0.148156 0.904363
O O14 0.806691 0.437457 0.694769
O O15 0.181907 0.197515 0.653284
O O16 0.032307 0.046968 0.689368
O O17 0.500000 0.585880 0.250000
#
# Coordination Sequence:
#
# PCOD9301487 Si02
#       8
#     8   8   8   8   8   8   8   8
#     4  12  26  39  63 101 136 177 223 283 334 411
#     4  12  24  44  65  98 138 184 229 271 347 426
#     4  11  21  39  64 102 134 171 218 284 347 403
#     4  11  23  41  69  97 132 179 225 281 341 411
#     4  12  23  40  68  97 129 172 228 279 331 398
#     4  11  23  40  65 100 132 168 220 283 346 394
#     4  11  21  34  61  98 131 160 214 281 337 388
#     4  12  23  43  68  97 139 178 223 284 352 411
#
# _framework density 22.044613999999999
#
# number of rings (size 3 to 8) (size 9 to 14) (size 15 to 20)
#    0.000    0.500    5.000    6.000    1.750    0.000 
#    0.000    0.625    0.000    0.000    6.500    0.000 
#    0.000    0.000    0.000    0.000    0.000    0.000 
#
# Total GULP energy -178514.164956 kJ/mol
# GULP energy per Si atom -5578.567655 kJ/mol
# Density = 2.199444 g / cm^3
# Si number density = 22.044614 Si / 1000 Ang^3
#
#
#
# Elastic Constant Matrix: (Units=GPa)
#
#
# Indices 1 2 3 4 5 6 
#
# 1 72.6297 35.7320 18.4631 0.0047 4.6705 0.0023
# 2 35.7320 47.2221 20.2178 0.0009 3.6874 0.0007
# 3 18.4631 20.2178 113.3475 -0.0119 13.6330 0.0052
# 4 0.0047 0.0009 -0.0119 29.6270 0.0096 -7.5025
# 5 4.6705 3.6874 13.6330 0.0096 43.7908 0.0039
# 6 0.0023 0.0007 0.0052 -7.5025 0.0039 20.1792
#
#
#
# Elastic Compliance Matrix: (Units=1/GPa)
#
#
# Indices 1 2 3 4 5 6 
#
# 1 0.022006 -0.016344 -0.000574 -0.000004 -0.000792 -0.000003
# 2 -0.016344 0.035086 -0.003585 0.000001 -0.000095 0.000002
# 3 -0.000574 -0.003585 0.009882 0.000005 -0.002713 0.000000
# 4 -0.000004 0.000001 0.000005 0.037261 -0.000011 0.013853
# 5 -0.000792 -0.000095 -0.002713 -0.000011 0.023773 -0.000008
# 6 -0.000003 0.000002 0.000000 0.013853 -0.000008 0.054707
#
#
# Mechanical properties :
#
#
# Convention : Reuss Voigt Hill
#
# Bulk Modulus (GPa) = 38.50813 42.44723 40.47768
# Shear Modulus (GPa) = 21.51687 29.30515 25.41101
#
# Velocity S-wave (km/s) = 3.12759 3.64999 3.39884
# Velocity P-wave (km/s) = 5.52708 6.08771 5.81415
#
# Compressibility (1/GPa) = 0.02596854
#
# Stress axis : x y z
#
# Youngs Moduli (GPa) = 45.44180 28.50153 101.19768
#
# Poissons Ratio (x) = 0.46583 0.05809
# Poissons Ratio (y) = 0.74270 0.36275
# Poissons Ratio (z) = 0.02608 0.10216
#
# Static dielectric constant tensor:
#      x y z
#    x 1.914250 -0.000010 -0.031040 
#    y -0.000010 1.940230 0.000020 
#    z -0.031040 0.000020 1.897930 
# 
# From -- ./inp_files/311629.got.cif
#   From: 2010.05.17/outbox.cif.g08.bks.cpg/sg15_156_cif.got.tgz:311629.got - 2010.06.03 18:47:42.
