data_PCOD9301246
_publ_section_title
;
Structure prediction by ZEFSAII (Michael W. Deem and Ramdas Pophale) SiO2 
 PCOD9301246
Probable space group: C 2/C
;
_chemical_formula_sum "Si O2"
_cell_formula_units_Z 60
_cell_length_a 21.159474
_cell_length_b 14.470506
_cell_length_c 27.220789
_cell_angle_alpha 90.000000
_cell_angle_beta 160.146905
_cell_angle_gamma 90.000000
_cell_volume 2830.540317
_symmetry_space_group_name_H-M "C 2/C"
_symmetry_group_IT_number 15
_symmetry_cell_setting 'monoclinic'
loop_
_space_group_symop_operation_xyz
x,y,z
-x,y,1/2-z
-x,-y,-z
x,-y,1/2+z
1/2+x,1/2+y,z
1/2-x,1/2+y,1/2-z
1/2-x,1/2-y,-z
1/2+x,1/2-y,1/2+z
loop_
_atom_site_type_symbol
_atom_site_label
_atom_site_fract_x
_atom_site_fract_y
_atom_site_fract_z
Si Si1 0.269805 0.302619 0.640794
Si Si2 0.801729 0.848152 0.964971
Si Si3 0.938647 0.979644 0.509503
Si Si4 0.836550 0.543894 0.044281
Si Si5 0.903840 0.701532 0.285588
Si Si6 0.623973 0.293630 0.671332
Si Si7 0.547453 0.886242 0.230747
Si Si8 0.500000 0.540407 0.250000
O O1 0.258813 0.292385 0.692346
O O2 0.421703 0.221527 0.743901
O O3 0.370623 0.393403 0.691119
O O4 0.066106 0.270523 0.470022
O O5 0.691805 0.803256 0.838272
O O6 0.677808 0.902009 0.914436
O O7 0.931303 0.775375 0.087736
O O8 0.927832 0.927722 0.032651
O O9 0.737271 0.934939 0.356178
O O10 0.056275 0.899239 0.619815
O O11 0.000000 0.000000 0.500000
O O12 0.630878 0.531331 0.874470
O O13 0.992644 0.602838 0.130059
O O14 0.893953 0.435916 0.086853
O O15 0.750978 0.721805 0.216060
O O16 0.500000 0.918560 0.250000
#
# Coordination Sequence:
#
# PCOD9301246 Si02
#       8
#     8   8   8   8   8   8   8   4
#     4  11  25  43  71 107 142 182 229 291 355 419
#     4  12  25  45  73 100 136 182 239 292 349 413
#     4  11  21  41  68 100 133 180 229 279 345 426
#     4  12  25  45  69  99 142 185 238 285 354 413
#     4  12  26  46  72 102 137 182 240 292 348 414
#     4  11  24  45  70 104 141 180 231 286 356 420
#     4  11  20  39  71  96 132 180 230 281 336 418
#     4  12  28  44  66 110 148 184 230 290 354 428
#
# _framework density 21.197365999999999
#
# number of rings (size 3 to 8) (size 9 to 14) (size 15 to 20)
#    0.000    0.533    4.667    3.200    5.600    1.067 
#    2.400    0.667    0.000    0.000    0.000    0.000 
#    0.000    0.000    0.000    0.000    0.000    0.000 
#
# Total GULP energy -167231.252418 kJ/mol
# GULP energy per Si atom -5574.375081 kJ/mol
# Density = 2.114912 g / cm^3
# Si number density = 21.197366 Si / 1000 Ang^3
#
#
#
# Elastic Constant Matrix: (Units=GPa)
#
#
# Indices 1 2 3 4 5 6 
#
# 1 73.5150 -28.5181 17.9280 0.0148 -13.7200 0.0074
# 2 -28.5181 -5.5964 22.3907 0.0236 -39.9467 0.0258
# 3 17.9280 22.3907 79.5495 -0.0098 -20.3107 0.0073
# 4 0.0148 0.0236 -0.0098 32.3469 0.0194 5.3898
# 5 -13.7200 -39.9467 -20.3107 0.0194 18.2523 0.0036
# 6 0.0074 0.0258 0.0073 5.3898 0.0036 23.8359
#
#
#
# Elastic Compliance Matrix: (Units=1/GPa)
#
#
# Indices 1 2 3 4 5 6 
#
# 1 0.010455 -0.005920 -0.002782 0.000003 -0.008194 0.000005
# 2 -0.005920 -0.006493 -0.002239 0.000018 -0.021152 0.000009
# 3 -0.002782 -0.002239 0.016823 0.000002 0.011729 -0.000004
# 4 0.000003 0.000018 0.000002 0.032125 0.000011 -0.007264
# 5 -0.008194 -0.021152 0.011729 0.000011 0.015387 0.000017
# 6 0.000005 0.000009 -0.000004 -0.007264 0.000017 0.043596
#
#
# Mechanical properties :
#
#
# Convention : Reuss Voigt Hill
#
# Bulk Modulus (GPa) = -911.30397 19.00769 -446.14814
# Shear Modulus (GPa) = 37.47851 23.93152 30.70501
#
# Velocity S-wave (km/s) = 4.20941 3.36368 3.81008
# Velocity P-wave (km/s) = 20.17973 4.90635 13.84105
#
# Compressibility (1/GPa) = -0.00109733
#
# Stress axis : x y z
#
# Youngs Moduli (GPa) = 95.64587 -154.01308 59.44407
#
# Poissons Ratio (x) = -0.91182 0.16537
# Poissons Ratio (y) = 0.56626 0.13308
# Poissons Ratio (z) = 0.26608 -0.34479
#
# Static dielectric constant tensor:
#      x y z
#    x 1.817790 0.000000 -0.023240 
#    y 0.000000 1.883570 -0.000020 
#    z -0.023240 -0.000020 1.810860 
# 
# From -- ./inp_files/301215.got.cif
#   From: 2010.05.17/outbox.cif.g08.bks.cpg/sg15_151_cif.got.tgz:301215.got - 2010.06.03 18:47:42.
