data_PCOD9301183
_publ_section_title
;
Structure prediction by ZEFSAII (Michael W. Deem and Ramdas Pophale) SiO2 
 PCOD9301183
Probable space group: C 2/C
;
_chemical_formula_sum "Si O2"
_cell_formula_units_Z 48
_cell_length_a 10.592994
_cell_length_b 27.946155
_cell_length_c 9.299470
_cell_angle_alpha 90.000000
_cell_angle_beta 125.726779
_cell_angle_gamma 90.000000
_cell_volume 2234.877687
_symmetry_space_group_name_H-M "C 2/C"
_symmetry_group_IT_number 15
_symmetry_cell_setting 'monoclinic'
loop_
_space_group_symop_operation_xyz
x,y,z
-x,y,1/2-z
-x,-y,-z
x,-y,1/2+z
1/2+x,1/2+y,z
1/2-x,1/2+y,1/2-z
1/2-x,1/2-y,-z
1/2+x,1/2-y,1/2+z
loop_
_atom_site_type_symbol
_atom_site_label
_atom_site_fract_x
_atom_site_fract_y
_atom_site_fract_z
Si Si1 0.383146 0.757753 0.462961
Si Si2 0.757750 0.908967 0.879166
Si Si3 0.500000 0.833020 0.750000
Si Si4 0.163919 0.812601 0.130109
Si Si5 0.125614 0.003640 0.460617
Si Si6 0.000000 0.129110 0.750000
Si Si7 0.680589 0.607405 0.408707
O O1 0.250000 0.750000 0.500000
O O2 0.494140 0.797984 0.608579
O O3 0.296066 0.775031 0.262196
O O4 0.495867 0.713385 0.500444
O O5 0.642541 0.869019 0.859803
O O6 0.747092 0.900967 0.701054
O O7 0.923316 0.897880 0.064521
O O8 0.742589 0.963727 0.921721
O O9 0.132897 0.841045 0.258295
O O10 0.215602 0.847920 0.036423
O O11 0.197329 0.056469 0.498874
O O12 0.000000 0.996711 0.250000
O O13 0.000000 0.000000 0.500000
O O14 0.500000 0.613497 0.250000
#
# Coordination Sequence:
#
# PCOD9301183 Si02
#       7
#     8   8   4   8   8   4   8
#     4  12  22  41  69  98 134 175 237 281 329 408
#     4  12  24  42  69 104 138 174 228 281 345 407
#     4  12  25  42  70 104 140 180 220 283 348 408
#     4  12  23  40  67  97 132 179 225 285 334 399
#     4  11  20  38  68 105 131 173 228 281 326 399
#     4  12  19  34  74  96 126 176 230 269 320 410
#     4  11  24  40  66 101 141 170 230 291 338 390
#
# _framework density 21.477684
#
# number of rings (size 3 to 8) (size 9 to 14) (size 15 to 20)
#    0.000    0.333   10.833    0.000    0.000    0.000 
#    0.000    5.000    0.000    0.000    0.000    0.000 
#    0.000    0.000    0.000    0.000    0.000    0.000 
#
# Total GULP energy -133732.846749 kJ/mol
# GULP energy per Si atom -5572.201948 kJ/mol
# Density = 2.142880 g / cm^3
# Si number density = 21.477684 Si / 1000 Ang^3
#
#
#
# Elastic Constant Matrix: (Units=GPa)
#
#
# Indices 1 2 3 4 5 6 
#
# 1 17.3090 34.2095 33.2352 0.0000 -4.7223 0.0000
# 2 34.2095 148.5554 69.1367 0.0000 -4.2860 0.0000
# 3 33.2352 69.1367 112.3935 0.0000 -14.6804 0.0000
# 4 0.0000 0.0000 0.0000 52.4091 0.0000 -6.7257
# 5 -4.7223 -4.2860 -14.6804 0.0000 30.7097 0.0000
# 6 0.0000 0.0000 0.0000 -6.7257 0.0000 58.6290
#
#
#
# Elastic Compliance Matrix: (Units=1/GPa)
#
#
# Indices 1 2 3 4 5 6 
#
# 1 0.176701 -0.023217 -0.037164 0.000000 0.006165 0.000000
# 2 -0.023217 0.012552 -0.001166 0.000000 -0.002376 0.000000
# 3 -0.037164 -0.001166 0.021158 0.000000 0.004237 0.000000
# 4 0.000000 0.000000 0.000000 0.019366 0.000000 0.002222
# 5 0.006165 -0.002376 0.004237 0.000000 0.035205 0.000000
# 6 0.000000 0.000000 0.000000 0.002222 0.000000 0.017311
#
#
# Mechanical properties :
#
#
# Convention : Reuss Voigt Hill
#
# Bulk Modulus (GPa) = 11.45270 61.26898 36.36084
# Shear Modulus (GPa) = 11.50767 37.79467 24.65117
#
# Velocity S-wave (km/s) = 2.31724 4.19945 3.39153
# Velocity P-wave (km/s) = 3.53602 7.21821 5.68357
#
# Compressibility (1/GPa) = 0.08731564
#
# Stress axis : x y z
#
# Youngs Moduli (GPa) = 5.65928 79.66785 47.26417
#
# Poissons Ratio (x) = 1.84965 1.75654
# Poissons Ratio (y) = 0.13139 0.05512
# Poissons Ratio (z) = 0.21032 0.09290
#
# Static dielectric constant tensor:
#      x y z
#    x 1.736040 0.000000 -0.008380 
#    y 0.000000 1.904450 0.000000 
#    z -0.008380 0.000000 1.822180 
# 
# From -- ./inp_files/33457.got.cif
#   From: 2010.05.17/outbox.cif.g08.bks.cpg/sg15_17_cif.got.tgz:33457.got - 2010.06.03 18:47:42.
