data_PCOD9301611
_publ_section_title
;
Structure prediction by ZEFSAII (Michael W. Deem and Ramdas Pophale) SiO2 
 PCOD9301611
Probable space group: C 2/C
;
_chemical_formula_sum "Si O2"
_cell_formula_units_Z 48
_cell_length_a 13.432453
_cell_length_b 22.524514
_cell_length_c 16.923455
_cell_angle_alpha 90.000000
_cell_angle_beta 32.725758
_cell_angle_gamma 90.000000
_cell_volume 2768.157234
_symmetry_space_group_name_H-M "C 2/C"
_symmetry_group_IT_number 15
_symmetry_cell_setting 'monoclinic'
loop_
_space_group_symop_operation_xyz
x,y,z
-x,y,1/2-z
-x,-y,-z
x,-y,1/2+z
1/2+x,1/2+y,z
1/2-x,1/2+y,1/2-z
1/2-x,1/2-y,-z
1/2+x,1/2-y,1/2+z
loop_
_atom_site_type_symbol
_atom_site_label
_atom_site_fract_x
_atom_site_fract_y
_atom_site_fract_z
Si Si1 0.116810 0.528943 0.851766
Si Si2 0.602273 0.864516 0.264658
Si Si3 0.689360 0.060412 0.158879
Si Si4 0.035252 0.233122 0.139348
Si Si5 0.487077 0.621339 0.064513
Si Si6 0.992787 0.001555 0.349139
O O1 0.034117 0.591577 0.878489
O O2 0.129832 0.487841 0.764989
O O3 0.325923 0.533369 0.742803
O O4 0.000000 0.500000 0.000000
O O5 0.500000 0.877249 0.250000
O O6 0.570257 0.795206 0.302050
O O7 0.816316 0.878760 0.110014
O O8 0.500000 0.085140 0.250000
O O9 0.821113 0.106855 0.115889
O O10 0.813557 0.028474 0.008731
O O11 0.000000 0.208144 0.250000
O O12 0.250000 0.250000 0.000000
O O13 0.980502 0.184277 0.112557
O O14 0.491079 0.567512 0.124893
O O15 0.000000 0.002940 0.250000
#
# Coordination Sequence:
#
# PCOD9301611 Si02
#       6
#     8   8   8   8   8   8
#     4  11  22  36  58  92 119 159 198 237 299 361
#     4  11  21  37  62  84 124 157 184 248 302 346
#     4  11  22  39  61  85 121 159 200 246 294 347
#     4  11  22  36  59  90 117 154 193 238 300 356
#     4  11  21  40  58  88 123 154 196 245 298 353
#     4  11  22  36  60  89 122 155 197 246 295 360
#
# _framework density 17.340055
#
# number of rings (size 3 to 8) (size 9 to 14) (size 15 to 20)
#    0.000    1.000    6.667    3.000    2.333    2.667 
#    0.000    0.000    0.000    2.000    0.000    0.000 
#    0.000    0.000    0.000    0.000    0.000    0.000 
#
# Total GULP energy -133985.666515 kJ/mol
# GULP energy per Si atom -5582.736105 kJ/mol
# Density = 1.730059 g / cm^3
# Si number density = 17.340055 Si / 1000 Ang^3
#
#
#
# Elastic Constant Matrix: (Units=GPa)
#
#
# Indices 1 2 3 4 5 6 
#
# 1 134.6268 69.6106 57.0578 0.0017 -9.2656 -0.0051
# 2 69.6106 102.5703 31.6996 0.0039 7.2164 -0.0034
# 3 57.0578 31.6996 108.7406 -0.0084 7.3432 0.0011
# 4 0.0017 0.0039 -0.0084 27.2389 0.0026 8.8624
# 5 -9.2656 7.2164 7.3432 0.0026 37.4813 -0.0004
# 6 -0.0051 -0.0034 0.0011 8.8624 -0.0004 27.2826
#
#
#
# Elastic Compliance Matrix: (Units=1/GPa)
#
#
# Indices 1 2 3 4 5 6 
#
# 1 0.014784 -0.008742 -0.005644 -0.000003 0.006444 0.000003
# 2 -0.008742 0.015965 0.000290 -0.000001 -0.005292 0.000001
# 3 -0.005644 0.000290 0.012334 0.000006 -0.003868 -0.000003
# 4 -0.000003 -0.000001 0.000006 0.041051 -0.000005 -0.013335
# 5 0.006444 -0.005292 -0.003868 -0.000005 0.030049 0.000003
# 6 0.000003 0.000001 -0.000003 -0.013335 0.000003 0.040985
#
#
# Mechanical properties :
#
#
# Convention : Reuss Voigt Hill
#
# Bulk Modulus (GPa) = 67.15197 73.63038 70.39118
# Shear Modulus (GPa) = 26.55012 30.90520 28.72766
#
# Velocity S-wave (km/s) = 3.91723 4.22631 4.07470
# Velocity P-wave (km/s) = 7.69871 8.14680 7.92592
#
# Compressibility (1/GPa) = 0.01489160
#
# Stress axis : x y z
#
# Youngs Moduli (GPa) = 67.64206 62.63707 81.07601
#
# Poissons Ratio (x) = 0.54759 0.45758
# Poissons Ratio (y) = 0.59134 -0.02355
# Poissons Ratio (z) = 0.38176 -0.01820
#
# Static dielectric constant tensor:
#      x y z
#    x 1.596640 -0.000020 0.001410 
#    y -0.000020 1.618400 0.000020 
#    z 0.001410 0.000020 1.613130 
# 
# From -- ./inp_files/32010.got.cif
#   From: 2010.05.17/outbox.cif.g08.bks.cpg/sg15_17_cif.got.tgz:32010.got - 2010.06.03 18:47:42.
