data_PCOD9301116
_publ_section_title
;
Structure prediction by ZEFSAII (Michael W. Deem and Ramdas Pophale) SiO2 
 PCOD9301116
Probable space group: C 2/C
;
_chemical_formula_sum "Si O2"
_cell_formula_units_Z 40
_cell_length_a 8.091904
_cell_length_b 12.674373
_cell_length_c 18.244130
_cell_angle_alpha 90.000000
_cell_angle_beta 126.010919
_cell_angle_gamma 90.000000
_cell_volume 1513.553806
_symmetry_space_group_name_H-M "C 2/C"
_symmetry_group_IT_number 15
_symmetry_cell_setting 'monoclinic'
loop_
_space_group_symop_operation_xyz
x,y,z
-x,y,1/2-z
-x,-y,-z
x,-y,1/2+z
1/2+x,1/2+y,z
1/2-x,1/2+y,1/2-z
1/2-x,1/2-y,-z
1/2+x,1/2-y,1/2+z
loop_
_atom_site_type_symbol
_atom_site_label
_atom_site_fract_x
_atom_site_fract_y
_atom_site_fract_z
Si Si1 0.304185 0.971759 0.365591
Si Si2 0.758659 0.611324 0.693519
Si Si3 0.965406 0.084560 0.376261
Si Si4 0.325566 0.752228 0.436091
Si Si5 0.602397 0.172407 0.179430
O O1 0.213459 0.917189 0.267542
O O2 0.384204 0.870437 0.429345
O O3 0.453238 0.062825 0.375197
O O4 0.152116 0.037634 0.378396
O O5 0.647471 0.518728 0.621413
O O6 0.682300 0.727293 0.654542
O O7 0.000000 0.605206 0.750000
O O8 0.989608 0.171305 0.445657
O O9 0.804913 0.137510 0.276954
O O10 0.250000 0.750000 0.500000
O O11 0.109190 0.715420 0.342913
#
# Coordination Sequence:
#
# PCOD9301116 Si02
#       5
#     8   8   8   8   8
#     4  11  24  43  68 101 135 166 226 290 341 403
#     4  11  20  37  69 105 130 165 221 292 349 388
#     4  11  22  40  72  98 131 172 226 290 338 386
#     4  12  27  46  66  95 144 188 223 272 338 416
#     4  11  22  40  69  98 130 169 228 287 337 395
#
# _framework density 26.427868
#
# number of rings (size 3 to 8) (size 9 to 14) (size 15 to 20)
#    0.000    0.800    4.000    6.600    0.000    1.600 
#    0.000    1.000    0.000    0.000    0.000    0.000 
#    0.000    0.000    0.000    0.000    0.000    0.000 
#
# Total GULP energy -111772.492594 kJ/mol
# GULP energy per Si atom -5588.624630 kJ/mol
# Density = 2.636772 g / cm^3
# Si number density = 26.427868 Si / 1000 Ang^3
#
#
#
# Elastic Constant Matrix: (Units=GPa)
#
#
# Indices 1 2 3 4 5 6 
#
# 1 110.3143 38.2344 -11.9535 0.0000 -25.2083 0.0000
# 2 38.2344 232.3030 42.8953 0.0000 -29.4099 0.0000
# 3 -11.9535 42.8953 81.9354 0.0000 -21.2327 0.0000
# 4 0.0000 0.0000 0.0000 23.9079 0.0000 -17.6368
# 5 -25.2083 -29.4099 -21.2327 0.0000 31.2396 0.0000
# 6 0.0000 0.0000 0.0000 -17.6368 0.0000 29.5911
#
#
#
# Elastic Compliance Matrix: (Units=1/GPa)
#
#
# Indices 1 2 3 4 5 6 
#
# 1 0.013437 -0.001664 0.006354 0.000000 0.013595 0.000000
# 2 -0.001664 0.005286 -0.002511 0.000000 0.001928 0.000000
# 3 0.006354 -0.002511 0.018404 0.000000 0.015273 0.000000
# 4 0.000000 0.000000 0.000000 0.074649 0.000000 0.044492
# 5 0.013595 0.001928 0.015273 0.000000 0.055176 0.000000
# 6 0.000000 0.000000 0.000000 0.044492 0.000000 0.060312
#
#
# Mechanical properties :
#
#
# Convention : Reuss Voigt Hill
#
# Bulk Modulus (GPa) = 24.10390 62.54502 43.32446
# Shear Modulus (GPa) = 21.12082 40.63949 30.88016
#
# Velocity S-wave (km/s) = 2.83006 3.92567 3.42200
# Velocity P-wave (km/s) = 4.45190 6.65324 5.66061
#
# Compressibility (1/GPa) = 0.04148707
#
# Stress axis : x y z
#
# Youngs Moduli (GPa) = 74.42184 189.17219 54.33626
#
# Poissons Ratio (x) = 0.31473 -0.34527
# Poissons Ratio (y) = 0.12382 0.13642
# Poissons Ratio (z) = -0.47291 0.47494
#
# Static dielectric constant tensor:
#      x y z
#    x 2.060830 0.000000 -0.030600 
#    y 0.000000 2.056450 0.000000 
#    z -0.030600 0.000000 2.322420 
# 
# From -- ./inp_files/195731.got.cif
#   From: 2010.05.17/outbox.cif.g08.bks.cpg/sg15_98_cif.got.tgz:195731.got - 2010.06.03 18:47:42.
