data_PCOD9301409
_publ_section_title
;
Structure prediction by ZEFSAII (Michael W. Deem and Ramdas Pophale) SiO2 
 PCOD9301409
Probable space group: C 2/C
;
_chemical_formula_sum "Si O2"
_cell_formula_units_Z 52
_cell_length_a 8.435535
_cell_length_b 17.864719
_cell_length_c 19.050775
_cell_angle_alpha 90.000000
_cell_angle_beta 131.779497
_cell_angle_gamma 90.000000
_cell_volume 2140.888442
_symmetry_space_group_name_H-M "C 2/C"
_symmetry_group_IT_number 15
_symmetry_cell_setting 'monoclinic'
loop_
_space_group_symop_operation_xyz
x,y,z
-x,y,1/2-z
-x,-y,-z
x,-y,1/2+z
1/2+x,1/2+y,z
1/2-x,1/2+y,1/2-z
1/2-x,1/2-y,-z
1/2+x,1/2-y,1/2+z
loop_
_atom_site_type_symbol
_atom_site_label
_atom_site_fract_x
_atom_site_fract_y
_atom_site_fract_z
Si Si1 0.534764 0.851215 0.376048
Si Si2 0.679610 0.608072 0.667841
Si Si3 0.269430 0.053926 0.145698
Si Si4 0.000000 0.825103 0.750000
Si Si5 0.794376 0.416705 0.935569
Si Si6 0.741628 0.077750 0.522524
Si Si7 0.749542 0.219028 0.304611
O O1 0.693347 0.848867 0.356139
O O2 0.324148 0.889320 0.279857
O O3 0.668783 0.894400 0.473312
O O4 0.431578 0.777874 0.380996
O O5 0.653291 0.520681 0.637838
O O6 0.435228 0.631357 0.600809
O O7 0.500000 0.043978 0.250000
O O8 0.208266 0.137274 0.150806
O O9 0.253076 0.053995 0.057230
O O10 0.110305 0.876630 0.840031
O O11 0.185511 0.783725 0.759595
O O12 0.767006 0.506098 0.927794
O O13 0.008898 0.389015 0.961980
O O14 0.500000 0.236170 0.250000
#
# Coordination Sequence:
#
# PCOD9301409 Si02
#       7
#     8   8   8   4   8   8   8
#     4  11  25  47  69 110 142 195 245 310 371 450
#     4  11  22  43  77 102 148 194 255 308 367 449
#     4  11  20  43  71 106 142 201 250 302 370 449
#     4  12  26  50  68 106 150 200 244 316 372 456
#     4  11  25  44  70 108 151 186 250 311 382 438
#     4  11  24  40  70 113 144 190 250 311 377 445
#     4  11  27  47  76 107 154 198 253 306 385 448
#
# _framework density 24.288981
#
# number of rings (size 3 to 8) (size 9 to 14) (size 15 to 20)
#    0.000    0.923    3.077    4.154    4.308    4.308 
#    2.769    1.538    0.000    0.000    0.000    0.000 
#    0.000    0.000    0.000    0.000    0.000    0.000 
#
# Total GULP energy -145153.185936 kJ/mol
# GULP energy per Si atom -5582.814844 kJ/mol
# Density = 2.423370 g / cm^3
# Si number density = 24.288981 Si / 1000 Ang^3
#
#
#
# Elastic Constant Matrix: (Units=GPa)
#
#
# Indices 1 2 3 4 5 6 
#
# 1 122.7051 29.8031 41.0709 0.0001 35.0292 0.0000
# 2 29.8031 70.0923 -9.2120 0.0000 -0.7085 0.0000
# 3 41.0709 -9.2120 120.2841 0.0001 19.6638 0.0001
# 4 0.0001 0.0000 0.0001 27.1975 0.0001 -6.3334
# 5 35.0292 -0.7085 19.6638 0.0001 38.1927 0.0001
# 6 0.0000 0.0000 0.0001 -6.3334 0.0001 38.3252
#
#
#
# Elastic Compliance Matrix: (Units=1/GPa)
#
#
# Indices 1 2 3 4 5 6 
#
# 1 0.014141 -0.006585 -0.003486 0.000000 -0.011297 0.000000
# 2 -0.006585 0.017482 0.002781 0.000000 0.004932 0.000000
# 3 -0.003486 0.002781 0.010030 0.000000 -0.001915 0.000000
# 4 0.000000 0.000000 0.000000 0.038240 0.000000 0.006319
# 5 -0.011297 0.004932 -0.001915 0.000000 0.037622 0.000000
# 6 0.000000 0.000000 0.000000 0.006319 0.000000 0.027137
#
#
# Mechanical properties :
#
#
# Convention : Reuss Voigt Hill
#
# Bulk Modulus (GPa) = 36.93669 48.48951 42.71310
# Shear Modulus (GPa) = 29.71677 37.50437 33.61057
#
# Velocity S-wave (km/s) = 3.50160 3.93375 3.72395
# Velocity P-wave (km/s) = 5.62036 6.37491 6.00949
#
# Compressibility (1/GPa) = 0.02707335
#
# Stress axis : x y z
#
# Youngs Moduli (GPa) = 70.71765 57.20110 99.70100
#
# Poissons Ratio (x) = 0.37667 0.34754
# Poissons Ratio (y) = 0.46567 -0.27727
# Poissons Ratio (z) = 0.24651 -0.15908
#
# Static dielectric constant tensor:
#      x y z
#    x 2.060920 0.000000 0.041830 
#    y 0.000000 2.028060 0.000000 
#    z 0.041830 0.000000 1.884620 
# 
# From -- ./inp_files/192601.got.cif
#   From: 2010.05.17/outbox.cif.g08.bks.cpg/sg15_97_cif.got.tgz:192601.got - 2010.06.03 18:47:42.
