data_PCOD9301945
_publ_section_title
;
Structure prediction by ZEFSAII (Michael W. Deem and Ramdas Pophale) SiO2 
 PCOD9301945
Probable space group: C 2/C
;
_chemical_formula_sum "Si O2"
_cell_formula_units_Z 64
_cell_length_a 31.002429
_cell_length_b 14.012306
_cell_length_c 9.637950
_cell_angle_alpha 90.000000
_cell_angle_beta 136.226977
_cell_angle_gamma 90.000000
_cell_volume 2896.493852
_symmetry_space_group_name_H-M "C 2/C"
_symmetry_group_IT_number 15
_symmetry_cell_setting 'monoclinic'
loop_
_space_group_symop_operation_xyz
x,y,z
-x,y,1/2-z
-x,-y,-z
x,-y,1/2+z
1/2+x,1/2+y,z
1/2-x,1/2+y,1/2-z
1/2-x,1/2-y,-z
1/2+x,1/2-y,1/2+z
loop_
_atom_site_type_symbol
_atom_site_label
_atom_site_fract_x
_atom_site_fract_y
_atom_site_fract_z
Si Si1 0.163553 0.538125 0.661489
Si Si2 0.536030 0.936212 0.977429
Si Si3 0.815936 0.760602 0.730452
Si Si4 0.507465 0.735865 0.604096
Si Si5 0.346668 0.266136 0.105091
Si Si6 0.139484 0.931223 0.136967
Si Si7 0.908915 0.101761 0.282099
Si Si8 0.220075 0.433737 0.022727
O O1 0.098930 0.510942 0.580112
O O2 0.165592 0.651563 0.691628
O O3 0.216802 0.485114 0.868886
O O4 0.172013 0.519040 0.519941
O O5 0.500000 0.925377 0.750000
O O6 0.534419 0.828228 0.031035
O O7 0.500000 0.000000 0.000000
O O8 0.750000 0.750000 0.500000
O O9 0.861938 0.818139 0.736843
O O10 0.820015 0.805822 0.895522
O O11 0.500000 0.716110 0.750000
O O12 0.580140 0.759070 0.748666
O O13 0.478434 0.644201 0.461450
O O14 0.350111 0.340165 0.238667
O O15 0.303663 0.175097 0.042218
O O16 0.211176 0.950937 0.260177
O O17 0.106782 0.010792 0.157470
O O18 0.103963 0.915946 0.909862
#
# Coordination Sequence:
#
# PCOD9301945 Si02
#       8
#     8   8   8   8   8   8   8   8
#     4  11  22  39  64  99 131 181 217 266 355 406
#     4  11  21  41  67 102 138 178 221 272 338 416
#     4  11  21  40  68  98 134 178 229 284 346 422
#     4  11  22  46  72  96 143 184 229 286 350 431
#     4  11  24  45  67  99 135 184 226 288 362 401
#     4  12  27  45  70 101 135 185 238 300 351 416
#     4  12  25  46  69 101 137 180 243 289 354 425
#     4  11  23  43  67 100 141 176 229 286 347 419
#
# _framework density 22.095679000000001
#
# number of rings (size 3 to 8) (size 9 to 14) (size 15 to 20)
#    0.000    0.750    2.500    7.875    0.000    3.000 
#    4.500    0.000    0.000    0.000    0.000    0.000 
#    0.000    0.000    0.000    0.000    0.000    0.000 
#
# Total GULP energy -178754.964334 kJ/mol
# GULP energy per Si atom -5586.092635 kJ/mol
# Density = 2.204539 g / cm^3
# Si number density = 22.095679 Si / 1000 Ang^3
#
#
#
# Elastic Constant Matrix: (Units=GPa)
#
#
# Indices 1 2 3 4 5 6 
#
# 1 72.9304 20.4518 28.6515 0.0000 -14.4215 0.0000
# 2 20.4518 70.4267 40.4996 0.0000 -18.6091 0.0000
# 3 28.6515 40.4996 120.2886 0.0000 -21.7742 0.0000
# 4 0.0000 0.0000 0.0000 32.8461 0.0000 -0.5294
# 5 -14.4215 -18.6091 -21.7742 0.0000 43.5720 0.0000
# 6 0.0000 0.0000 0.0000 -0.5294 0.0000 13.7219
#
#
#
# Elastic Compliance Matrix: (Units=1/GPa)
#
#
# Indices 1 2 3 4 5 6 
#
# 1 0.015947 -0.002434 -0.002432 0.000000 0.003024 0.000000
# 2 -0.002434 0.019035 -0.004951 0.000000 0.004850 0.000000
# 3 -0.002432 -0.004951 0.011029 0.000000 0.002592 0.000000
# 4 0.000000 0.000000 0.000000 0.030464 0.000000 0.001175
# 5 0.003024 0.004850 0.002592 0.000000 0.027318 0.000000
# 6 0.000000 0.000000 0.000000 0.001175 0.000000 0.072921
#
#
# Mechanical properties :
#
#
# Convention : Reuss Voigt Hill
#
# Bulk Modulus (GPa) = 37.91118 49.20574 43.55846
# Shear Modulus (GPa) = 24.37363 29.63084 27.00224
#
# Velocity S-wave (km/s) = 3.32489 3.66597 3.49959
# Velocity P-wave (km/s) = 5.65109 6.34325 6.00715
#
# Compressibility (1/GPa) = 0.02637744
#
# Stress axis : x y z
#
# Youngs Moduli (GPa) = 62.70595 52.53597 90.67235
#
# Poissons Ratio (x) = 0.12786 0.22049
# Poissons Ratio (y) = 0.15261 0.44893
# Poissons Ratio (z) = 0.15249 0.26011
#
# Static dielectric constant tensor:
#      x y z
#    x 1.817130 0.000000 -0.004020 
#    y 0.000000 1.876190 0.000000 
#    z -0.004020 0.000000 1.743390 
# 
# From -- ./inp_files/70166.got.cif
#   From: 2010.05.17/outbox.cif.g08.bks.cpg/sg15_36_cif.got.tgz:70166.got - 2010.06.03 18:47:42.
