data_PCOD9301040
_publ_section_title
;
Structure prediction by ZEFSAII (Michael W. Deem and Ramdas Pophale) SiO2 
 PCOD9301040
Probable space group: C 2/C
;
_chemical_formula_sum "Si O2"
_cell_formula_units_Z 48
_cell_length_a 20.317836
_cell_length_b 9.834274
_cell_length_c 13.308409
_cell_angle_alpha 90.000000
_cell_angle_beta 47.831769
_cell_angle_gamma 90.000000
_cell_volume 1970.914521
_symmetry_space_group_name_H-M "C 2/C"
_symmetry_group_IT_number 15
_symmetry_cell_setting 'monoclinic'
loop_
_space_group_symop_operation_xyz
x,y,z
-x,y,1/2-z
-x,-y,-z
x,-y,1/2+z
1/2+x,1/2+y,z
1/2-x,1/2+y,1/2-z
1/2-x,1/2-y,-z
1/2+x,1/2-y,1/2+z
loop_
_atom_site_type_symbol
_atom_site_label
_atom_site_fract_x
_atom_site_fract_y
_atom_site_fract_z
Si Si1 0.332270 0.327934 0.969728
Si Si2 0.621792 0.107710 0.425758
Si Si3 0.189386 0.082756 0.370459
Si Si4 0.317854 0.861209 0.014420
Si Si5 0.381753 0.477816 0.251057
Si Si6 0.063396 0.683741 0.276945
O O1 0.388168 0.223379 0.979847
O O2 0.296729 0.445694 0.080254
O O3 0.250000 0.250000 0.000000
O O4 0.388474 0.406719 0.827973
O O5 0.721986 0.126774 0.279823
O O6 0.561353 0.120964 0.389616
O O7 0.624223 0.964992 0.479426
O O8 0.163575 0.210552 0.464376
O O9 0.117385 0.044348 0.359393
O O10 0.217927 0.913669 0.133587
O O11 0.343228 0.860063 0.871378
O O12 0.442202 0.346257 0.202437
O O13 0.000000 0.645069 0.250000
#
# Coordination Sequence:
#
# PCOD9301040 Si02
#       6
#     8   8   8   8   8   8
#     4  12  21  34  60 100 126 156 202 271 317 362
#     4  11  23  37  62  97 127 157 211 260 318 366
#     4  11  20  36  64  98 127 155 208 262 318 371
#     4  11  22  39  67  93 124 161 212 269 313 369
#     4  11  22  38  63  95 127 159 214 260 321 368
#     4  12  25  43  62  89 133 176 210 252 314 389
#
# _framework density 24.354174
#
# number of rings (size 3 to 8) (size 9 to 14) (size 15 to 20)
#    0.000    0.667    8.333    2.500    0.000    0.667 
#    0.000    3.333    0.000    2.000    0.000    0.000 
#    0.000    0.000    0.000    0.000    0.000    0.000 
#
# Total GULP energy -134357.666014 kJ/mol
# GULP energy per Si atom -5598.236084 kJ/mol
# Density = 2.429874 g / cm^3
# Si number density = 24.354174 Si / 1000 Ang^3
#
#
#
# Elastic Constant Matrix: (Units=GPa)
#
#
# Indices 1 2 3 4 5 6 
#
# 1 115.0639 50.6022 38.9969 0.0000 40.6168 0.0000
# 2 50.6022 132.1192 45.7385 0.0000 27.8902 0.0000
# 3 38.9969 45.7385 80.4160 0.0000 43.0027 0.0000
# 4 0.0000 0.0000 0.0000 46.3420 0.0000 30.1218
# 5 40.6168 27.8902 43.0027 0.0000 45.3408 0.0000
# 6 0.0000 0.0000 0.0000 30.1218 0.0000 18.1998
#
#
#
# Elastic Compliance Matrix: (Units=1/GPa)
#
#
# Indices 1 2 3 4 5 6 
#
# 1 0.013780 -0.003314 0.001448 0.000000 -0.011679 0.000000
# 2 -0.003314 0.010268 -0.004958 0.000000 0.001354 0.000000
# 3 0.001448 -0.004958 0.027628 0.000000 -0.024451 0.000000
# 4 0.000000 0.000000 0.000000 -0.284776 0.000000 0.471322
# 5 -0.011679 0.001354 -0.024451 0.000000 0.054874 -0.000001
# 6 0.000000 0.000000 0.000000 0.471322 -0.000001 -0.725123
#
#
# Mechanical properties :
#
#
# Convention : Reuss Voigt Hill
#
# Bulk Modulus (GPa) = 26.29528 66.47494 46.38511
# Shear Modulus (GPa) = -5.70110 34.79394 14.54642
#
# Velocity S-wave (km/s) = -1.53166 3.78387 2.44660
# Velocity P-wave (km/s) = 2.77353 6.81502 5.20274
#
# Compressibility (1/GPa) = 0.03802964
#
# Stress axis : x y z
#
# Youngs Moduli (GPa) = 72.56879 97.38539 36.19493
#
# Poissons Ratio (x) = 0.32269 -0.05239
# Poissons Ratio (y) = 0.24046 0.17944
# Poissons Ratio (z) = -0.10504 0.48279
#
# Static dielectric constant tensor:
#      x y z
#    x 2.051180 0.000000 -0.069320 
#    y 0.000000 1.893550 0.000000 
#    z -0.069320 0.000000 1.952910 
# 
# From -- ./inp_files/166152.got.cif
#   From: 2010.05.17/outbox.cif.g08.bks.cpg/sg15_84_cif.got.tgz:166152.got - 2010.06.03 18:47:42.
