data_PCOD9301758
_publ_section_title
;
Structure prediction by ZEFSAII (Michael W. Deem and Ramdas Pophale) SiO2 
 PCOD9301758
Probable space group: C 2/C
;
_chemical_formula_sum "Si O2"
_cell_formula_units_Z 64
_cell_length_a 16.285444
_cell_length_b 9.579320
_cell_length_c 28.456196
_cell_angle_alpha 90.000000
_cell_angle_beta 134.631314
_cell_angle_gamma 90.000000
_cell_volume 3159.168686
_symmetry_space_group_name_H-M "C 2/C"
_symmetry_group_IT_number 15
_symmetry_cell_setting 'monoclinic'
loop_
_space_group_symop_operation_xyz
x,y,z
-x,y,1/2-z
-x,-y,-z
x,-y,1/2+z
1/2+x,1/2+y,z
1/2-x,1/2+y,1/2-z
1/2-x,1/2-y,-z
1/2+x,1/2-y,1/2+z
loop_
_atom_site_type_symbol
_atom_site_label
_atom_site_fract_x
_atom_site_fract_y
_atom_site_fract_z
Si Si1 0.079124 0.910401 0.390471
Si Si2 0.082900 0.589568 0.721463
Si Si3 0.933306 0.363323 0.551855
Si Si4 0.071654 0.905574 0.731004
Si Si5 0.832749 0.494485 0.146850
Si Si6 0.250664 0.091130 0.517111
Si Si7 0.271734 0.200097 0.901411
Si Si8 0.327091 0.997522 0.842341
O O1 0.066651 0.759909 0.409637
O O2 0.170267 0.890554 0.384738
O O3 0.137579 0.013212 0.451907
O O4 0.967023 0.979285 0.322487
O O5 0.044414 0.750246 0.701952
O O6 0.161094 0.573569 0.799315
O O7 0.144438 0.540054 0.699425
O O8 0.966469 0.501631 0.683902
O O9 0.855868 0.494545 0.539003
O O10 0.872173 0.303966 0.480745
O O11 0.062983 0.411890 0.595331
O O12 0.207091 0.915923 0.795096
O O13 0.000000 0.926415 0.750000
O O14 0.764359 0.413163 0.078780
O O15 0.778196 0.647018 0.126983
O O16 0.250000 0.250000 0.500000
O O17 0.311574 0.130783 0.869398
#
# Coordination Sequence:
#
# PCOD9301758 Si02
#       8
#     8   8   8   8   8   8   8   8
#     4  11  22  43  72 100 139 183 242 293 341 439
#     4  11  26  43  66 103 147 186 236 294 361 425
#     4  11  23  45  68 108 143 182 236 303 358 425
#     4  12  26  46  67 101 140 190 241 287 357 437
#     4  11  21  44  71  99 142 192 238 287 349 435
#     4  11  21  38  75 106 137 187 242 291 351 423
#     4  11  22  42  71 104 133 184 244 284 352 427
#     4  12  27  43  71  99 147 186 234 303 363 416
#
# _framework density 20.258493999999999
#
# number of rings (size 3 to 8) (size 9 to 14) (size 15 to 20)
#    0.000    0.750    6.250    1.875    3.500    2.000 
#    0.000    0.000    0.000    3.000    0.000    0.000 
#    0.000    0.000    0.000    0.000    0.000    0.000 
#
# Total GULP energy -178912.515890 kJ/mol
# GULP energy per Si atom -5591.016122 kJ/mol
# Density = 2.021238 g / cm^3
# Si number density = 20.258494 Si / 1000 Ang^3
#
#
#
# Elastic Constant Matrix: (Units=GPa)
#
#
# Indices 1 2 3 4 5 6 
#
# 1 95.8242 40.4806 27.1608 0.0000 -3.0744 0.0000
# 2 40.4806 135.1869 45.6248 0.0000 4.1606 0.0000
# 3 27.1608 45.6248 54.3404 0.0000 16.2748 0.0000
# 4 0.0000 0.0000 0.0000 18.2929 0.0000 -14.7627
# 5 -3.0744 4.1606 16.2748 0.0000 39.0946 0.0000
# 6 0.0000 0.0000 0.0000 -14.7627 0.0000 19.1639
#
#
#
# Elastic Compliance Matrix: (Units=1/GPa)
#
#
# Indices 1 2 3 4 5 6 
#
# 1 0.013102 -0.002025 -0.005966 0.000000 0.003729 0.000000
# 2 -0.002025 0.010924 -0.008870 0.000000 0.002371 0.000000
# 3 -0.005966 -0.008870 0.032776 0.000000 -0.013169 0.000000
# 4 0.000000 0.000000 0.000000 0.144497 0.000000 0.111313
# 5 0.003729 0.002371 -0.013169 0.000000 0.031102 0.000000
# 6 0.000000 0.000000 0.000000 0.111313 0.000000 0.137930
#
#
# Mechanical properties :
#
#
# Convention : Reuss Voigt Hill
#
# Bulk Modulus (GPa) = 43.32534 56.87598 50.10066
# Shear Modulus (GPa) = 12.14342 26.78262 19.46302
#
# Velocity S-wave (km/s) = 2.45097 3.63994 3.10293
# Velocity P-wave (km/s) = 5.42608 6.76769 6.13368
#
# Compressibility (1/GPa) = 0.02308118
#
# Stress axis : x y z
#
# Youngs Moduli (GPa) = 76.32663 91.54120 30.51027
#
# Poissons Ratio (x) = 0.18533 0.18201
# Poissons Ratio (y) = 0.15453 0.27063
# Poissons Ratio (z) = 0.45533 0.81197
#
# Static dielectric constant tensor:
#      x y z
#    x 1.701270 0.000000 -0.003090 
#    y 0.000000 1.711710 0.000000 
#    z -0.003090 0.000000 1.730690 
# 
# From -- ./inp_files/315720.got.cif
#   From: 2010.05.17/outbox.cif.g08.bks.cpg/sg15_158_cif.got.tgz:315720.got - 2010.06.03 18:47:42.
