data_PCOD9301719
_publ_section_title
;
Structure prediction by ZEFSAII (Michael W. Deem and Ramdas Pophale) SiO2 
 PCOD9301719
Probable space group: C 2/C
;
_chemical_formula_sum "Si O2"
_cell_formula_units_Z 48
_cell_length_a 16.570056
_cell_length_b 29.328753
_cell_length_c 9.720081
_cell_angle_alpha 90.000000
_cell_angle_beta 29.145050
_cell_angle_gamma 90.000000
_cell_volume 2300.574292
_symmetry_space_group_name_H-M "C 2/C"
_symmetry_group_IT_number 15
_symmetry_cell_setting 'monoclinic'
loop_
_space_group_symop_operation_xyz
x,y,z
-x,y,1/2-z
-x,-y,-z
x,-y,1/2+z
1/2+x,1/2+y,z
1/2-x,1/2+y,1/2-z
1/2-x,1/2-y,-z
1/2+x,1/2-y,1/2+z
loop_
_atom_site_type_symbol
_atom_site_label
_atom_site_fract_x
_atom_site_fract_y
_atom_site_fract_z
Si Si1 0.165417 0.630083 0.844632
Si Si2 0.167222 0.526658 0.907879
Si Si3 0.822623 0.967926 0.455831
Si Si4 0.735977 0.864163 0.542496
Si Si5 0.752203 0.272773 0.847336
Si Si6 0.133655 0.279773 0.267660
O O1 0.195686 0.575876 0.793229
O O2 0.200978 0.668267 0.677552
O O3 0.260145 0.644553 0.843769
O O4 0.965180 0.634460 0.151908
O O5 0.185749 0.489203 0.762297
O O6 0.298177 0.517303 0.834635
O O7 0.000000 0.529336 0.250000
O O8 0.802310 0.913452 0.483622
O O9 0.000000 0.981601 0.250000
O O10 0.800845 0.824692 0.544447
O O11 0.646749 0.243075 0.899368
O O12 0.941744 0.276446 0.512031
O O13 0.750000 0.250000 0.000000
O O14 0.250000 0.250000 0.000000
#
# Coordination Sequence:
#
# PCOD9301719 Si02
#       6
#     8   8   8   8   8   8
#     4   9  17  37  63  80 115 161 205 234 292 361
#     4  11  21  40  67  88 118 166 210 244 297 374
#     4  11  23  39  60  93 131 151 198 261 314 350
#     4   9  18  36  60  86 111 161 208 242 276 370
#     4  11  21  38  65  86 115 160 209 239 294 366
#     4  11  23  39  58  90 125 153 193 258 308 349
#
# _framework density 20.864356999999998
#
# number of rings (size 3 to 8) (size 9 to 14) (size 15 to 20)
#    0.000    1.667    5.000    2.000    0.000    1.333 
#    3.000    1.667    0.000    0.000    0.000    0.000 
#    0.000    0.000    0.000    0.000    0.000    0.000 
#
# Total GULP energy -133883.690119 kJ/mol
# GULP energy per Si atom -5578.487088 kJ/mol
# Density = 2.081687 g / cm^3
# Si number density = 20.864357 Si / 1000 Ang^3
#
#
#
# Elastic Constant Matrix: (Units=GPa)
#
#
# Indices 1 2 3 4 5 6 
#
# 1 61.6776 11.2240 3.8657 0.0000 -10.0061 0.0000
# 2 11.2240 76.1017 22.7907 0.0000 12.7335 0.0000
# 3 3.8657 22.7907 64.6123 0.0000 1.3219 0.0000
# 4 0.0000 0.0000 0.0000 30.7053 0.0000 12.5380
# 5 -10.0061 12.7335 1.3219 0.0000 26.1890 0.0000
# 6 0.0000 0.0000 0.0000 12.5380 0.0000 30.3733
#
#
#
# Elastic Compliance Matrix: (Units=1/GPa)
#
#
# Indices 1 2 3 4 5 6 
#
# 1 0.018470 -0.004325 0.000233 0.000000 0.009148 0.000000
# 2 -0.004325 0.017061 -0.005561 0.000000 -0.009667 0.000000
# 3 0.000233 -0.005561 0.017385 0.000000 0.001916 0.000000
# 4 0.000000 0.000000 0.000000 0.039170 0.000000 -0.016169
# 5 0.009148 -0.009667 0.001916 0.000000 0.046283 0.000000
# 6 0.000000 0.000000 0.000000 -0.016169 0.000000 0.039598
#
#
# Mechanical properties :
#
#
# Convention : Reuss Voigt Hill
#
# Bulk Modulus (GPa) = 29.75232 30.90584 30.32908
# Shear Modulus (GPa) = 23.98353 28.42094 26.20223
#
# Velocity S-wave (km/s) = 3.39410 3.69477 3.54762
# Velocity P-wave (km/s) = 5.44525 5.74862 5.59899
#
# Compressibility (1/GPa) = 0.03361083
#
# Stress axis : x y z
#
# Youngs Moduli (GPa) = 54.14256 58.61274 57.51930
#
# Poissons Ratio (x) = 0.25347 -0.01341
# Poissons Ratio (y) = 0.23414 0.31989
# Poissons Ratio (z) = -0.01263 0.32597
#
# Static dielectric constant tensor:
#      x y z
#    x 1.773990 0.000000 -0.036800 
#    y 0.000000 1.762120 0.000000 
#    z -0.036800 0.000000 1.866620 
# 
# From -- ./inp_files/52740.got.cif
#   From: 2010.05.17/outbox.cif.g08.bks.cpg/sg15_27_cif.got.tgz:52740.got - 2010.06.03 18:47:42.
