data_PCOD9301917
_publ_section_title
;
Structure prediction by ZEFSAII (Michael W. Deem and Ramdas Pophale) SiO2 
 PCOD9301917
Probable space group: C 2/C
;
_chemical_formula_sum "Si O2"
_cell_formula_units_Z 40
_cell_length_a 12.790721
_cell_length_b 18.232889
_cell_length_c 8.991786
_cell_angle_alpha 90.000000
_cell_angle_beta 76.502136
_cell_angle_gamma 90.000000
_cell_volume 2039.068797
_symmetry_space_group_name_H-M "C 2/C"
_symmetry_group_IT_number 15
_symmetry_cell_setting 'monoclinic'
loop_
_space_group_symop_operation_xyz
x,y,z
-x,y,1/2-z
-x,-y,-z
x,-y,1/2+z
1/2+x,1/2+y,z
1/2-x,1/2+y,1/2-z
1/2-x,1/2-y,-z
1/2+x,1/2-y,1/2+z
loop_
_atom_site_type_symbol
_atom_site_label
_atom_site_fract_x
_atom_site_fract_y
_atom_site_fract_z
Si Si1 0.952859 0.294873 0.105516
Si Si2 0.335009 0.361205 0.648733
Si Si3 0.325367 0.770986 0.619660
Si Si4 0.080955 0.986601 0.337226
Si Si5 0.773623 0.869693 0.327800
O O1 0.908105 0.211513 0.124896
O O2 0.852378 0.348870 0.114121
O O3 0.000000 0.313235 0.250000
O O4 0.054815 0.293044 0.964233
O O5 0.230273 0.336443 0.772726
O O6 0.384399 0.431091 0.714460
O O7 0.312288 0.380939 0.484469
O O8 0.250000 0.750000 0.500000
O O9 0.324099 0.701802 0.731466
O O10 0.187382 0.936448 0.291448
O O11 0.000000 0.948726 0.250000
O O12 0.000000 0.000000 0.500000
#
# Coordination Sequence:
#
# PCOD9301917 Si02
#       5
#     8   8   8   8   8
#     4  11  21  40  66  95 127 163 210 265 315 379
#     4  11  24  41  64  96 128 163 216 265 319 380
#     4  11  22  38  68  94 125 170 213 257 316 386
#     4  12  25  42  67  93 129 169 215 269 325 380
#     4  11  25  41  60  99 130 163 211 268 322 379
#
# _framework density 19.616797999999999
#
# number of rings (size 3 to 8) (size 9 to 14) (size 15 to 20)
#    0.000    0.800    6.000    4.200    2.800    2.400 
#    0.000    1.000    0.000    0.000    0.000    0.000 
#    0.000    0.000    0.000    0.000    0.000    0.000 
#
# Total GULP energy -111479.980981 kJ/mol
# GULP energy per Si atom -5573.999049 kJ/mol
# Density = 1.957215 g / cm^3
# Si number density = 19.616798 Si / 1000 Ang^3
#
#
#
# Elastic Constant Matrix: (Units=GPa)
#
#
# Indices 1 2 3 4 5 6 
#
# 1 121.0016 45.6646 45.5601 0.0000 -43.1325 0.0000
# 2 45.6646 83.7477 2.0202 0.0000 -30.7568 0.0000
# 3 45.5601 2.0202 80.8731 0.0000 -40.8636 0.0000
# 4 0.0000 0.0000 0.0000 23.9520 0.0000 -5.3165
# 5 -43.1325 -30.7568 -40.8636 0.0000 57.4484 0.0000
# 6 0.0000 0.0000 0.0000 -5.3165 0.0000 21.7988
#
#
#
# Elastic Compliance Matrix: (Units=1/GPa)
#
#
# Indices 1 2 3 4 5 6 
#
# 1 0.014095 -0.006679 -0.006609 0.000000 0.002306 0.000000
# 2 -0.006679 0.019924 0.009555 0.000000 0.012449 0.000000
# 3 -0.006609 0.009555 0.024863 0.000000 0.017839 0.000000
# 4 0.000000 0.000000 0.000000 0.044140 0.000000 0.010765
# 5 0.002306 0.012449 0.017839 0.000000 0.038493 0.000000
# 6 0.000000 0.000000 0.000000 0.010765 0.000000 0.048500
#
#
# Mechanical properties :
#
#
# Convention : Reuss Voigt Hill
#
# Bulk Modulus (GPa) = 19.44870 52.45691 35.95281
# Shear Modulus (GPa) = 23.29709 33.46501 28.38105
#
# Velocity S-wave (km/s) = 3.44991 4.13478 3.80777
# Velocity P-wave (km/s) = 5.07986 7.04231 6.13999
#
# Compressibility (1/GPa) = 0.05141732
#
# Stress axis : x y z
#
# Youngs Moduli (GPa) = 70.94505 50.19061 40.22004
#
# Poissons Ratio (x) = 0.33524 0.26580
# Poissons Ratio (y) = 0.47387 -0.38431
# Poissons Ratio (z) = 0.46885 -0.47959
#
# Static dielectric constant tensor:
#      x y z
#    x 1.477990 0.000000 0.493780 
#    y 0.000000 1.693950 0.000000 
#    z 0.493780 0.000000 0.932770 
# 
# From -- ./inp_files/29061.got.cif
#   From: 2010.05.17/outbox.cif.g08.bks.cpg/sg15_15_cif.got.tgz:29061.got - 2010.06.03 18:47:42.
