data_PCOD9301261
_publ_section_title
;
Structure prediction by ZEFSAII (Michael W. Deem and Ramdas Pophale) SiO2 
 PCOD9301261
Probable space group: C 2/C
;
_chemical_formula_sum "Si O2"
_cell_formula_units_Z 48
_cell_length_a 20.133628
_cell_length_b 12.439893
_cell_length_c 14.323064
_cell_angle_alpha 90.000000
_cell_angle_beta 138.456413
_cell_angle_gamma 90.000000
_cell_volume 2379.098012
_symmetry_space_group_name_H-M "C 2/C"
_symmetry_group_IT_number 15
_symmetry_cell_setting 'monoclinic'
loop_
_space_group_symop_operation_xyz
x,y,z
-x,y,1/2-z
-x,-y,-z
x,-y,1/2+z
1/2+x,1/2+y,z
1/2-x,1/2+y,1/2-z
1/2-x,1/2-y,-z
1/2+x,1/2-y,1/2+z
loop_
_atom_site_type_symbol
_atom_site_label
_atom_site_fract_x
_atom_site_fract_y
_atom_site_fract_z
Si Si1 0.200450 0.394391 0.740412
Si Si2 0.925711 0.785884 0.418076
Si Si3 0.114160 0.624798 0.355194
Si Si4 0.721439 0.450998 0.325735
Si Si5 0.906527 0.821471 0.040543
Si Si6 0.515534 0.553535 0.165113
O O1 0.128764 0.319571 0.602026
O O2 0.147420 0.400847 0.785181
O O3 0.225895 0.500924 0.710510
O O4 0.306327 0.340331 0.877198
O O5 0.839605 0.845771 0.268631
O O6 0.015461 0.757694 0.442104
O O7 0.968566 0.871287 0.536501
O O8 0.196191 0.571804 0.509568
O O9 0.113930 0.751395 0.388298
O O10 0.000000 0.587985 0.250000
O O11 0.631785 0.529419 0.265950
O O12 0.956303 0.938990 0.106643
O O13 0.500000 0.604089 0.250000
#
# Coordination Sequence:
#
# PCOD9301261 Si02
#       6
#     8   8   8   8   8   8
#     4  12  23  41  68  95 134 169 217 271 325 384
#     4  11  22  40  66  95 129 170 212 275 322 374
#     4  12  25  40  65 101 129 172 217 267 332 382
#     4  11  24  41  65  98 134 172 215 267 327 386
#     4  11  20  40  63  99 128 157 216 274 322 378
#     4  11  22  40  68  96 129 170 221 271 319 384
#
# _framework density 20.175712999999998
#
# number of rings (size 3 to 8) (size 9 to 14) (size 15 to 20)
#    0.000    0.667    6.667    3.000    2.333    0.667 
#    0.000    1.667    0.000    0.000    0.000    0.000 
#    0.000    0.000    0.000    0.000    0.000    0.000 
#
# Total GULP energy -134093.457239 kJ/mol
# GULP energy per Si atom -5587.227385 kJ/mol
# Density = 2.012979 g / cm^3
# Si number density = 20.175713 Si / 1000 Ang^3
#
#
#
# Elastic Constant Matrix: (Units=GPa)
#
#
# Indices 1 2 3 4 5 6 
#
# 1 125.3494 43.6427 48.8460 0.0000 2.2540 0.0000
# 2 43.6427 33.8191 30.5869 0.0000 2.8311 0.0000
# 3 48.8460 30.5869 135.6095 0.0000 13.9666 0.0000
# 4 0.0000 0.0000 0.0000 31.3373 0.0000 -0.6831
# 5 2.2540 2.8311 13.9666 0.0000 37.4409 0.0000
# 6 0.0000 0.0000 0.0000 -0.6831 0.0000 22.9902
#
#
#
# Elastic Compliance Matrix: (Units=1/GPa)
#
#
# Indices 1 2 3 4 5 6 
#
# 1 0.014694 -0.017796 -0.001379 0.000000 0.000976 0.000000
# 2 -0.017796 0.058704 -0.006743 0.000000 -0.000852 0.000000
# 3 -0.001379 -0.006743 0.009703 0.000000 -0.003027 0.000000
# 4 0.000000 0.000000 0.000000 0.031932 0.000000 0.000949
# 5 0.000976 -0.000852 -0.003027 0.000000 0.027844 0.000000
# 6 0.000000 0.000000 0.000000 0.000949 0.000000 0.043525
#
#
# Mechanical properties :
#
#
# Convention : Reuss Voigt Hill
#
# Bulk Modulus (GPa) = 31.98456 60.10325 46.04391
# Shear Modulus (GPa) = 20.10782 29.80052 24.95417
#
# Velocity S-wave (km/s) = 3.16038 3.84741 3.52069
# Velocity P-wave (km/s) = 5.40414 7.04211 6.27678
#
# Compressibility (1/GPa) = 0.03126508
#
# Stress axis : x y z
#
# Youngs Moduli (GPa) = 68.05677 17.03452 103.05575
#
# Poissons Ratio (x) = 0.30315 0.14213
# Poissons Ratio (y) = 1.21114 0.69490
# Poissons Ratio (z) = 0.09386 0.11486
#
# Static dielectric constant tensor:
#      x y z
#    x 1.734770 0.000000 -0.006760 
#    y 0.000000 1.740110 0.000000 
#    z -0.006760 0.000000 1.723150 
# 
# From -- ./inp_files/167921.got.cif
#   From: 2010.05.17/outbox.cif.g08.bks.cpg/sg15_84_cif.got.tgz:167921.got - 2010.06.03 18:47:42.
