data_PCOD9301186
_publ_section_title
;
Structure prediction by ZEFSAII (Michael W. Deem and Ramdas Pophale) SiO2 
 PCOD9301186
Probable space group: C 2/C
;
_chemical_formula_sum "Si O2"
_cell_formula_units_Z 56
_cell_length_a 21.366022
_cell_length_b 17.331145
_cell_length_c 9.475340
_cell_angle_alpha 90.000000
_cell_angle_beta 131.558461
_cell_angle_gamma 90.000000
_cell_volume 2625.484286
_symmetry_space_group_name_H-M "C 2/C"
_symmetry_group_IT_number 15
_symmetry_cell_setting 'monoclinic'
loop_
_space_group_symop_operation_xyz
x,y,z
-x,y,1/2-z
-x,-y,-z
x,-y,1/2+z
1/2+x,1/2+y,z
1/2-x,1/2+y,1/2-z
1/2-x,1/2-y,-z
1/2+x,1/2-y,1/2+z
loop_
_atom_site_type_symbol
_atom_site_label
_atom_site_fract_x
_atom_site_fract_y
_atom_site_fract_z
Si Si1 0.940668 0.282124 0.771185
Si Si2 0.294617 0.000280 0.943631
Si Si3 0.173418 0.872823 0.155707
Si Si4 0.350645 0.381006 0.702110
Si Si5 0.985984 0.112525 0.891600
Si Si6 0.713385 0.722247 0.148172
Si Si7 0.345622 0.098437 0.279577
O O1 0.989233 0.206047 0.891394
O O2 0.859537 0.252010 0.563756
O O3 0.914388 0.336881 0.857317
O O4 0.000000 0.325430 0.750000
O O5 0.223927 0.942506 0.896033
O O6 0.353625 0.950201 0.932206
O O7 0.246226 0.063732 0.777359
O O8 0.340652 0.043624 0.137666
O O9 0.102935 0.897740 0.164229
O O10 0.218069 0.790138 0.245751
O O11 0.135478 0.867842 0.942414
O O12 0.321602 0.306331 0.751917
O O13 0.435097 0.413575 0.899137
O O14 0.000000 0.086129 0.750000
O O15 0.757503 0.645305 0.153945
#
# Coordination Sequence:
#
# PCOD9301186 Si02
#       7
#     8   8   8   8   8   8   8
#     4  11  20  38  68  97 120 171 221 277 306 383
#     4  11  24  39  65  93 133 172 215 265 323 396
#     4  12  23  40  65  96 127 176 218 273 326 373
#     4  11  24  41  59  99 137 164 210 279 331 384
#     4  11  23  39  64  95 132 169 217 261 326 392
#     4  11  21  38  70  94 124 168 233 273 310 388
#     4  11  22  42  65  97 127 175 225 262 325 381
#
# _framework density 21.329398000000001
#
# number of rings (size 3 to 8) (size 9 to 14) (size 15 to 20)
#    0.000    0.857    7.143    2.143    2.000    0.571 
#    0.000    0.714    0.000    0.000    0.000    0.000 
#    0.000    0.000    0.000    0.000    0.000    0.000 
#
# Total GULP energy -156457.447155 kJ/mol
# GULP energy per Si atom -5587.765970 kJ/mol
# Density = 2.128085 g / cm^3
# Si number density = 21.329398 Si / 1000 Ang^3
#
#
#
# Elastic Constant Matrix: (Units=GPa)
#
#
# Indices 1 2 3 4 5 6 
#
# 1 72.1781 14.0888 -0.3130 0.0000 -26.5193 0.0000
# 2 14.0888 59.5686 6.4743 0.0000 -13.9527 0.0000
# 3 -0.3130 6.4743 56.7823 0.0000 -19.3920 0.0000
# 4 0.0000 0.0000 0.0000 21.7267 0.0000 -3.4278
# 5 -26.5193 -13.9527 -19.3920 0.0000 26.5124 0.0000
# 6 0.0000 0.0000 0.0000 -3.4278 0.0000 30.5562
#
#
#
# Elastic Compliance Matrix: (Units=1/GPa)
#
#
# Indices 1 2 3 4 5 6 
#
# 1 0.027410 0.000842 0.012756 0.000000 0.037190 0.000000
# 2 0.000842 0.019294 0.002079 0.000000 0.012517 0.000000
# 3 0.012756 0.002079 0.029559 0.000000 0.035474 0.000000
# 4 0.000000 0.000000 0.000000 0.046856 0.000000 0.005256
# 5 0.037190 0.012517 0.035474 0.000000 0.107452 0.000000
# 6 0.000000 0.000000 0.000000 0.005256 0.000000 0.033316
#
#
# Mechanical properties :
#
#
# Convention : Reuss Voigt Hill
#
# Bulk Modulus (GPa) = 9.29214 25.44769 17.36992
# Shear Modulus (GPa) = 18.62855 26.97766 22.80310
#
# Velocity S-wave (km/s) = 2.95850 3.56028 3.27325
# Velocity P-wave (km/s) = 4.00453 5.37191 4.73781
#
# Compressibility (1/GPa) = 0.10761779
#
# Stress axis : x y z
#
# Youngs Moduli (GPa) = 36.48325 51.82942 33.83026
#
# Poissons Ratio (x) = -0.04363 -0.43154
# Poissons Ratio (y) = -0.03071 -0.07035
# Poissons Ratio (z) = -0.46538 -0.10778
#
# Static dielectric constant tensor:
#      x y z
#    x 1.826630 0.000000 -0.030920 
#    y 0.000000 1.797280 0.000000 
#    z -0.030920 0.000000 1.729660 
# 
# From -- ./inp_files/62787.got.cif
#   From: 2010.05.17/outbox.cif.g08.bks.cpg/sg15_32_cif.got.tgz:62787.got - 2010.06.03 18:47:42.
