data_PCOD9301898
_publ_section_title
;
Structure prediction by ZEFSAII (Michael W. Deem and Ramdas Pophale) SiO2 
 PCOD9301898
Probable space group: C 2/C
;
_chemical_formula_sum "Si O2"
_cell_formula_units_Z 64
_cell_length_a 14.419840
_cell_length_b 11.870376
_cell_length_c 19.394489
_cell_angle_alpha 90.000000
_cell_angle_beta 88.402255
_cell_angle_gamma 90.000000
_cell_volume 3318.443119
_symmetry_space_group_name_H-M "C 2/C"
_symmetry_group_IT_number 15
_symmetry_cell_setting 'monoclinic'
loop_
_space_group_symop_operation_xyz
x,y,z
-x,y,1/2-z
-x,-y,-z
x,-y,1/2+z
1/2+x,1/2+y,z
1/2-x,1/2+y,1/2-z
1/2-x,1/2-y,-z
1/2+x,1/2-y,1/2+z
loop_
_atom_site_type_symbol
_atom_site_label
_atom_site_fract_x
_atom_site_fract_y
_atom_site_fract_z
Si Si1 0.558324 0.662085 0.181935
Si Si2 0.941256 0.074672 0.053430
Si Si3 0.598753 0.087103 0.736477
Si Si4 0.219309 0.101650 0.946748
Si Si5 0.605236 0.961983 0.386563
Si Si6 0.354628 0.789583 0.991944
Si Si7 0.244660 0.845685 0.602600
Si Si8 0.388039 0.025222 0.392532
O O1 0.500000 0.621143 0.250000
O O2 0.495826 0.624681 0.118170
O O3 0.574841 0.796046 0.197776
O O4 0.663556 0.627882 0.159538
O O5 0.913661 0.181486 0.008443
O O6 0.852434 0.995943 0.074264
O O7 0.000000 0.000000 0.000000
O O8 0.500000 0.026869 0.750000
O O9 0.631917 0.100322 0.813778
O O10 0.650469 0.006086 0.682584
O O11 0.221521 0.215610 0.901433
O O12 0.323318 0.051957 0.941855
O O13 0.201569 0.132825 0.027108
O O14 0.626758 0.881067 0.449384
O O15 0.668560 0.072636 0.388360
O O16 0.495944 0.991617 0.394121
O O17 0.250000 0.750000 0.000000
O O18 0.375484 0.848604 0.918978
#
# Coordination Sequence:
#
# PCOD9301898 Si02
#       8
#     8   8   8   8   8   8   8   8
#     4  11  23  43  69  92 130 177 224 265 330 403
#     4  12  25  42  68  95 134 180 217 271 338 398
#     4   9  20  41  63  93 124 167 218 263 318 393
#     4  11  23  40  64 100 135 169 220 273 329 394
#     4  11  24  41  70  98 128 172 221 271 334 385
#     4  12  24  39  62 100 131 167 221 276 324 381
#     4  11  23  40  66  99 133 169 223 279 321 394
#     4  11  21  40  64  92 130 168 220 270 317 390
#
# _framework density 19.286152999999999
#
# number of rings (size 3 to 8) (size 9 to 14) (size 15 to 20)
#    0.000    1.000    5.000    2.625    1.750    1.000 
#    2.250    0.000    2.750    0.000    0.000    0.000 
#    0.000    0.000    0.000    0.000    0.000    0.000 
#
# Total GULP energy -178293.404209 kJ/mol
# GULP energy per Si atom -5571.668882 kJ/mol
# Density = 1.924226 g / cm^3
# Si number density = 19.286153 Si / 1000 Ang^3
#
#
#
# Elastic Constant Matrix: (Units=GPa)
#
#
# Indices 1 2 3 4 5 6 
#
# 1 106.7974 52.0021 28.4935 0.0000 -17.7055 0.0000
# 2 52.0021 116.7348 25.4137 0.0000 -0.9364 0.0000
# 3 28.4935 25.4137 77.6824 0.0000 -16.1072 0.0000
# 4 0.0000 0.0000 0.0000 27.7013 0.0000 -3.4460
# 5 -17.7055 -0.9364 -16.1072 0.0000 30.0856 0.0000
# 6 0.0000 0.0000 0.0000 -3.4460 0.0000 35.9607
#
#
#
# Elastic Compliance Matrix: (Units=1/GPa)
#
#
# Indices 1 2 3 4 5 6 
#
# 1 0.013758 -0.005695 -0.001734 0.000000 0.006991 0.000000
# 2 -0.005695 0.011641 -0.002631 0.000000 -0.004398 0.000000
# 3 -0.001734 -0.002631 0.015907 0.000000 0.007414 0.000000
# 4 0.000000 0.000000 0.000000 0.036535 0.000000 0.003501
# 5 0.006991 -0.004398 0.007414 0.000000 0.041185 0.000000
# 6 0.000000 0.000000 0.000000 0.003501 0.000000 0.028144
#
#
# Mechanical properties :
#
#
# Convention : Reuss Voigt Hill
#
# Bulk Modulus (GPa) = 47.20148 57.00369 52.10259
# Shear Modulus (GPa) = 28.67745 31.76988 30.22367
#
# Velocity S-wave (km/s) = 3.86028 4.06308 3.96298
# Velocity P-wave (km/s) = 6.66306 7.18558 6.92925
#
# Compressibility (1/GPa) = 0.02118578
#
# Stress axis : x y z
#
# Youngs Moduli (GPa) = 72.68296 85.90208 62.86581
#
# Poissons Ratio (x) = 0.48925 0.10898
# Poissons Ratio (y) = 0.41396 0.16542
# Poissons Ratio (z) = 0.12600 0.22603
#
# Static dielectric constant tensor:
#      x y z
#    x 1.684340 0.000000 -0.011060 
#    y 0.000000 1.546010 0.000000 
#    z -0.011060 0.000000 1.720690 
# 
# From -- ./inp_files/204475.got.cif
#   From: 2010.05.17/outbox.cif.g08.bks.cpg/sg15_103_cif.got.tgz:204475.got - 2010.06.03 18:47:42.
