data_PCOD9301709
_publ_section_title
;
Structure prediction by ZEFSAII (Michael W. Deem and Ramdas Pophale) SiO2 
 PCOD9301709
Probable space group: C 2/C
;
_chemical_formula_sum "Si O2"
_cell_formula_units_Z 48
_cell_length_a 20.532715
_cell_length_b 12.602625
_cell_length_c 26.638674
_cell_angle_alpha 90.000000
_cell_angle_beta 160.553992
_cell_angle_gamma 90.000000
_cell_volume 2294.868612
_symmetry_space_group_name_H-M "C 2/C"
_symmetry_group_IT_number 15
_symmetry_cell_setting 'monoclinic'
loop_
_space_group_symop_operation_xyz
x,y,z
-x,y,1/2-z
-x,-y,-z
x,-y,1/2+z
1/2+x,1/2+y,z
1/2-x,1/2+y,1/2-z
1/2-x,1/2-y,-z
1/2+x,1/2-y,1/2+z
loop_
_atom_site_type_symbol
_atom_site_label
_atom_site_fract_x
_atom_site_fract_y
_atom_site_fract_z
Si Si1 0.080866 0.780882 0.100400
Si Si2 0.996049 0.176776 0.065300
Si Si3 0.801408 0.052423 0.580412
Si Si4 0.629533 0.070044 0.556148
Si Si5 0.795318 0.802236 0.584874
Si Si6 0.539076 0.546771 0.903790
O O1 0.279166 0.716521 0.260921
O O2 0.008973 0.861976 0.090770
O O3 0.082417 0.841576 0.048255
O O4 0.921749 0.691292 0.971653
O O5 0.868112 0.273870 0.993789
O O6 0.945942 0.068528 0.059228
O O7 0.624218 0.066552 0.491276
O O8 0.000000 0.100810 0.750000
O O9 0.795637 0.080033 0.517029
O O10 0.820262 0.925819 0.594184
O O11 0.846273 0.037403 0.729214
O O12 0.500000 0.000000 0.500000
O O13 0.750000 0.750000 0.500000
O O14 0.000000 0.754664 0.750000
#
# Coordination Sequence:
#
# PCOD9301709 Si02
#       6
#     8   8   8   8   8   8
#     4  12  25  41  68  96 130 176 220 270 327 387
#     4  12  24  41  67 100 133 169 221 277 324 395
#     4   9  21  38  65  94 130 170 216 264 316 394
#     4  11  21  41  69  95 126 175 222 259 323 400
#     4  11  21  38  63  95 131 168 209 264 334 388
#     4  11  23  43  63  96 135 169 219 276 330 381
#
# _framework density 20.916229000000001
#
# number of rings (size 3 to 8) (size 9 to 14) (size 15 to 20)
#    0.000    1.000    5.000    2.500    2.333    0.667 
#    0.000    0.000    0.000    0.000    0.000    0.000 
#    0.000    0.000    0.000    0.000    0.000    0.000 
#
# Total GULP energy -133650.446727 kJ/mol
# GULP energy per Si atom -5568.768614 kJ/mol
# Density = 2.086862 g / cm^3
# Si number density = 20.916229 Si / 1000 Ang^3
#
#
#
# Elastic Constant Matrix: (Units=GPa)
#
#
# Indices 1 2 3 4 5 6 
#
# 1 171.2483 16.0334 10.6550 0.0071 -7.7106 -0.0005
# 2 16.0334 42.8115 -7.1989 0.0204 -2.9137 -0.0069
# 3 10.6550 -7.1989 33.8816 0.0007 -6.1040 0.0070
# 4 0.0071 0.0204 0.0007 6.7484 0.0052 16.4436
# 5 -7.7106 -2.9137 -6.1040 0.0052 27.1004 -0.0011
# 6 -0.0005 -0.0069 0.0070 16.4436 -0.0011 8.5702
#
#
#
# Elastic Compliance Matrix: (Units=1/GPa)
#
#
# Indices 1 2 3 4 5 6 
#
# 1 0.006282 -0.002686 -0.002373 0.000000 0.000964 0.000000
# 2 -0.002686 0.025779 0.006966 0.000032 0.003577 -0.000045
# 3 -0.002373 0.006966 0.033097 -0.000006 0.007529 -0.000009
# 4 0.000000 0.000032 -0.000006 -0.040319 0.000013 0.077361
# 5 0.000964 0.003577 0.007529 0.000013 0.039254 -0.000023
# 6 0.000000 -0.000045 -0.000009 0.077361 -0.000023 -0.031749
#
#
# Mechanical properties :
#
#
# Convention : Reuss Voigt Hill
#
# Bulk Modulus (GPa) = 14.49829 31.88006 23.18918
# Shear Modulus (GPa) = 97.04955 23.71392 60.38174
#
# Velocity S-wave (km/s) = 6.81908 3.37078 5.37876
# Velocity P-wave (km/s) = 8.30340 5.51584 7.04879
#
# Compressibility (1/GPa) = 0.06897363
#
# Stress axis : x y z
#
# Youngs Moduli (GPa) = 159.18532 38.79134 30.21409
#
# Poissons Ratio (x) = 0.10419 0.07168
# Poissons Ratio (y) = 0.42757 -0.21048
# Poissons Ratio (z) = 0.37767 -0.27023
#
# Static dielectric constant tensor:
#      x y z
#    x 1.812160 -0.000070 0.050500 
#    y -0.000070 1.659530 0.000000 
#    z 0.050500 0.000000 1.773130 
# 
# From -- ./inp_files/117716.got.cif
#   From: 2010.05.17/outbox.cif.g08.bks.cpg/sg15_59_cif.got.tgz:117716.got - 2010.06.03 18:47:42.
