data_PCOD9301739
_publ_section_title
;
Structure prediction by ZEFSAII (Michael W. Deem and Ramdas Pophale) SiO2 
 PCOD9301739
Probable space group: C 2/C
;
_chemical_formula_sum "Si O2"
_cell_formula_units_Z 44
_cell_length_a 11.354240
_cell_length_b 21.111400
_cell_length_c 13.153294
_cell_angle_alpha 90.000000
_cell_angle_beta 44.479208
_cell_angle_gamma 90.000000
_cell_volume 2209.077734
_symmetry_space_group_name_H-M "C 2/C"
_symmetry_group_IT_number 15
_symmetry_cell_setting 'monoclinic'
loop_
_space_group_symop_operation_xyz
x,y,z
-x,y,1/2-z
-x,-y,-z
x,-y,1/2+z
1/2+x,1/2+y,z
1/2-x,1/2+y,1/2-z
1/2-x,1/2-y,-z
1/2+x,1/2-y,1/2+z
loop_
_atom_site_type_symbol
_atom_site_label
_atom_site_fract_x
_atom_site_fract_y
_atom_site_fract_z
Si Si1 0.008065 0.627632 0.358201
Si Si2 0.404867 0.619220 0.704701
Si Si3 0.884035 0.865615 0.623717
Si Si4 0.000000 0.069285 0.250000
Si Si5 0.318212 0.976751 0.075812
Si Si6 0.195149 0.730938 0.917550
O O1 0.198313 0.605593 0.253992
O O2 0.000000 0.655239 0.250000
O O3 0.870936 0.572088 0.453223
O O4 0.956401 0.681661 0.469328
O O5 0.500000 0.602133 0.750000
O O6 0.522884 0.613263 0.535809
O O7 0.256033 0.568693 0.790627
O O8 0.334249 0.689425 0.772002
O O9 0.987469 0.886860 0.657980
O O10 0.853250 0.791282 0.619421
O O11 0.170814 0.026455 0.140402
O O12 0.500000 0.000000 0.000000
O O13 0.250000 0.750000 0.000000
#
# Coordination Sequence:
#
# PCOD9301739 Si02
#       6
#     8   8   8   4   8   8
#     4  11  22  38  69 105 131 172 233 303 351 400
#     4  11  22  40  69 107 130 173 237 301 346 398
#     4  12  24  41  67 103 144 184 228 285 362 417
#     4  12  28  46  68 100 152 196 226 286 352 440
#     4  11  24  46  67  95 141 182 243 281 349 428
#     4  11  21  38  67 102 140 170 232 301 347 407
#
# _framework density 19.917814
#
# number of rings (size 3 to 8) (size 9 to 14) (size 15 to 20)
#    0.000    0.727    6.364    2.182    0.000    2.182 
#    0.000    3.636    0.000    0.000    0.000    0.000 
#    0.000    0.000    0.000    0.000    0.000    0.000 
#
# Total GULP energy -122733.356839 kJ/mol
# GULP energy per Si atom -5578.788947 kJ/mol
# Density = 1.987248 g / cm^3
# Si number density = 19.917814 Si / 1000 Ang^3
#
#
#
# Elastic Constant Matrix: (Units=GPa)
#
#
# Indices 1 2 3 4 5 6 
#
# 1 105.9767 62.9963 65.4133 0.0000 -2.6959 0.0000
# 2 62.9963 108.6931 54.0346 0.0000 -4.8676 0.0000
# 3 65.4133 54.0346 157.8075 -0.0001 -7.1671 0.0000
# 4 0.0000 0.0000 -0.0001 29.1512 0.0000 -7.2870
# 5 -2.6959 -4.8676 -7.1671 0.0000 35.9131 0.0000
# 6 0.0000 0.0000 0.0000 -7.2870 0.0000 25.8329
#
#
#
# Elastic Compliance Matrix: (Units=1/GPa)
#
#
# Indices 1 2 3 4 5 6 
#
# 1 0.016519 -0.007453 -0.004324 0.000000 -0.000633 0.000000
# 2 -0.007453 0.014470 -0.001818 0.000000 0.001039 0.000000
# 3 -0.004324 -0.001818 0.008806 0.000000 0.001186 0.000000
# 4 0.000000 0.000000 0.000000 0.036906 0.000000 0.010411
# 5 -0.000633 0.001039 0.001186 0.000000 0.028175 0.000000
# 6 0.000000 0.000000 0.000000 0.010411 0.000000 0.041647
#
#
# Mechanical properties :
#
#
# Convention : Reuss Voigt Hill
#
# Bulk Modulus (GPa) = 79.33683 81.92951 80.63317
# Shear Modulus (GPa) = 28.10318 30.84831 29.47574
#
# Velocity S-wave (km/s) = 3.76035 3.93972 3.85108
# Velocity P-wave (km/s) = 7.66630 7.86882 7.76822
#
# Compressibility (1/GPa) = 0.01260449
#
# Stress axis : x y z
#
# Youngs Moduli (GPa) = 60.53514 69.10771 113.56192
#
# Poissons Ratio (x) = 0.51505 0.49108
# Poissons Ratio (y) = 0.45116 0.20648
# Poissons Ratio (z) = 0.26177 0.12565
#
# Static dielectric constant tensor:
#      x y z
#    x 1.718550 0.000000 -0.059740 
#    y 0.000000 1.775130 0.000000 
#    z -0.059740 0.000000 1.747860 
# 
# From -- ./inp_files/147014.got.cif
#   From: 2010.05.17/outbox.cif.g08.bks.cpg/sg15_74_cif.got.tgz:147014.got - 2010.06.03 18:47:42.
