data_PCOD9301367
_publ_section_title
;
Structure prediction by ZEFSAII (Michael W. Deem and Ramdas Pophale) SiO2 
 PCOD9301367
Probable space group: C 2/C
;
_chemical_formula_sum "Si O2"
_cell_formula_units_Z 52
_cell_length_a 6.582188
_cell_length_b 14.223209
_cell_length_c 27.261737
_cell_angle_alpha 90.000000
_cell_angle_beta 108.088892
_cell_angle_gamma 90.000000
_cell_volume 2426.097319
_symmetry_space_group_name_H-M "C 2/C"
_symmetry_group_IT_number 15
_symmetry_cell_setting 'monoclinic'
loop_
_space_group_symop_operation_xyz
x,y,z
-x,y,1/2-z
-x,-y,-z
x,-y,1/2+z
1/2+x,1/2+y,z
1/2-x,1/2+y,1/2-z
1/2-x,1/2-y,-z
1/2+x,1/2-y,1/2+z
loop_
_atom_site_type_symbol
_atom_site_label
_atom_site_fract_x
_atom_site_fract_y
_atom_site_fract_z
Si Si1 0.933396 0.325385 0.096196
Si Si2 0.000000 0.729317 0.250000
Si Si3 0.716750 0.715266 0.052695
Si Si4 0.371419 0.123978 0.789610
Si Si5 0.164741 0.077142 0.493017
Si Si6 0.273169 0.413131 0.709540
Si Si7 0.829324 0.367568 0.906072
O O1 0.779680 0.235220 0.094344
O O2 0.158503 0.293504 0.088498
O O3 0.978401 0.372630 0.151520
O O4 0.819899 0.391873 0.048165
O O5 0.187333 0.798195 0.282277
O O6 0.098226 0.660632 0.216214
O O7 0.495443 0.660952 0.031968
O O8 0.918902 0.651986 0.081490
O O9 0.750000 0.750000 0.000000
O O10 0.500000 0.146841 0.750000
O O11 0.279519 0.019005 0.777973
O O12 0.290639 0.067111 0.451045
O O13 0.000000 0.000000 0.500000
O O14 0.500000 0.386274 0.750000
O O15 0.272330 0.409618 0.650598
#
# Coordination Sequence:
#
# PCOD9301367 Si02
#       7
#     8   4   8   8   8   8   8
#     4  11  23  43  67  98 135 183 230 290 353 424
#     4  12  24  52  76 102 142 186 242 304 368 422
#     4  11  20  42  69  94 130 181 228 276 355 422
#     4  12  27  48  73 105 142 188 243 298 367 429
#     4  11  25  40  62 100 140 177 228 286 349 429
#     4  12  27  48  75 105 143 189 245 301 362 437
#     4  11  23  44  68  98 136 181 233 291 354 421
#
# _framework density 21.433602
#
# number of rings (size 3 to 8) (size 9 to 14) (size 15 to 20)
#    0.000    0.615    4.615    4.154    2.154    4.308 
#    2.769    0.000    0.000    0.000    0.000    0.000 
#    0.000    0.000    0.000    0.000    0.000    0.000 
#
# Total GULP energy -145353.970735 kJ/mol
# GULP energy per Si atom -5590.537336 kJ/mol
# Density = 2.138482 g / cm^3
# Si number density = 21.433602 Si / 1000 Ang^3
#
#
#
# Elastic Constant Matrix: (Units=GPa)
#
#
# Indices 1 2 3 4 5 6 
#
# 1 112.8753 31.9665 63.4103 0.0000 -4.2490 0.0000
# 2 31.9665 84.2322 22.1157 0.0000 -7.5024 0.0000
# 3 63.4103 22.1157 168.4098 0.0000 -8.1710 0.0000
# 4 0.0000 0.0000 0.0000 68.8918 0.0000 8.9779
# 5 -4.2490 -7.5024 -8.1710 0.0000 28.0390 0.0000
# 6 0.0000 0.0000 0.0000 8.9779 0.0000 43.1388
#
#
#
# Elastic Compliance Matrix: (Units=1/GPa)
#
#
# Indices 1 2 3 4 5 6 
#
# 1 0.012179 -0.003565 -0.004133 0.000000 -0.000313 0.000000
# 2 -0.003565 0.013570 -0.000294 0.000000 0.003005 0.000000
# 3 -0.004133 -0.000294 0.007606 0.000000 0.001512 0.000000
# 4 0.000000 0.000000 0.000000 0.014920 0.000000 -0.003105
# 5 -0.000313 0.003005 0.001512 0.000000 0.036862 0.000000
# 6 0.000000 0.000000 0.000000 -0.003105 0.000000 0.023827
#
#
# Mechanical properties :
#
#
# Convention : Reuss Voigt Hill
#
# Bulk Modulus (GPa) = 57.56522 66.72248 62.14385
# Shear Modulus (GPa) = 38.24489 44.54888 41.39689
#
# Velocity S-wave (km/s) = 4.22873 4.56396 4.39954
# Velocity P-wave (km/s) = 7.12451 7.67922 7.40706
#
# Compressibility (1/GPa) = 0.01737160
#
# Stress axis : x y z
#
# Youngs Moduli (GPa) = 82.11075 73.69427 131.47735
#
# Poissons Ratio (x) = 0.26269 0.54335
# Poissons Ratio (y) = 0.29270 0.03865
# Poissons Ratio (z) = 0.33933 0.02167
#
# Static dielectric constant tensor:
#      x y z
#    x 1.809910 0.000000 -0.035730 
#    y 0.000000 1.769810 0.000000 
#    z -0.035730 0.000000 1.773380 
# 
# From -- ./inp_files/305451.got.cif
#   From: 2010.05.17/outbox.cif.g08.bks.cpg/sg15_153_cif.got.tgz:305451.got - 2010.06.03 18:47:42.
