data_PCOD9301353
_publ_section_title
;
Structure prediction by ZEFSAII (Michael W. Deem and Ramdas Pophale) SiO2 
 PCOD9301353
Probable space group: C 2/C
;
_chemical_formula_sum "Si O2"
_cell_formula_units_Z 64
_cell_length_a 8.578534
_cell_length_b 21.920077
_cell_length_c 16.083158
_cell_angle_alpha 90.000000
_cell_angle_beta 92.304100
_cell_angle_gamma 90.000000
_cell_volume 3021.866128
_symmetry_space_group_name_H-M "C 2/C"
_symmetry_group_IT_number 15
_symmetry_cell_setting 'monoclinic'
loop_
_space_group_symop_operation_xyz
x,y,z
-x,y,1/2-z
-x,-y,-z
x,-y,1/2+z
1/2+x,1/2+y,z
1/2-x,1/2+y,1/2-z
1/2-x,1/2-y,-z
1/2+x,1/2-y,1/2+z
loop_
_atom_site_type_symbol
_atom_site_label
_atom_site_fract_x
_atom_site_fract_y
_atom_site_fract_z
Si Si1 0.324312 0.305789 0.056389
Si Si2 0.113474 0.387654 0.579486
Si Si3 0.903248 0.710879 0.166319
Si Si4 0.428602 0.660217 0.333845
Si Si5 0.618686 0.480204 0.640977
Si Si6 0.315071 0.062018 0.987815
Si Si7 0.274895 0.505681 0.172701
Si Si8 0.358479 0.308293 0.510954
O O1 0.314186 0.274718 0.145394
O O2 0.253993 0.369460 0.026952
O O3 0.250000 0.250000 0.000000
O O4 0.511628 0.311686 0.056064
O O5 0.203305 0.426622 0.652049
O O6 0.246758 0.365908 0.519022
O O7 0.023887 0.326387 0.609005
O O8 0.983480 0.428191 0.532355
O O9 0.755874 0.667115 0.169209
O O10 0.000000 0.718757 0.250000
O O11 0.500000 0.681440 0.250000
O O12 0.444672 0.588211 0.344677
O O13 0.527171 0.693320 0.406910
O O14 0.710832 0.475292 0.554775
O O15 0.715848 0.499746 0.726242
O O16 0.449564 0.512197 0.642375
O O17 0.323877 0.034292 0.895328
O O18 0.250000 0.250000 0.500000
#
# Coordination Sequence:
#
# PCOD9301353 Si02
#       8
#     8   8   8   8   8   8   8   8
#     4  12  21  43  65  93 129 171 218 270 328 403
#     4  12  22  38  64  95 131 162 220 275 331 392
#     4  12  24  38  63 100 129 170 217 269 337 396
#     4  12  21  39  64  94 130 163 217 277 322 389
#     4  11  20  42  65  90 124 169 223 274 331 394
#     4  12  24  41  65  94 129 179 218 279 335 399
#     4  11  24  39  64  97 125 164 224 279 333 396
#     4  12  21  35  63  98 128 166 210 270 328 393
#
# _framework density 21.178968000000001
#
# number of rings (size 3 to 8) (size 9 to 14) (size 15 to 20)
#    0.000    0.250    8.750    2.250    0.000    0.000 
#    2.250    0.000    0.000    0.000    0.000    0.000 
#    0.000    0.000    0.000    0.000    0.000    0.000 
#
# Total GULP energy -178177.744498 kJ/mol
# GULP energy per Si atom -5568.054516 kJ/mol
# Density = 2.113076 g / cm^3
# Si number density = 21.178968 Si / 1000 Ang^3
#
#
#
# Elastic Constant Matrix: (Units=GPa)
#
#
# Indices 1 2 3 4 5 6 
#
# 1 94.7348 4.5751 3.4582 0.0000 14.4435 0.0000
# 2 4.5751 43.5832 21.3230 0.0000 1.9142 0.0000
# 3 3.4582 21.3230 72.3579 0.0000 28.2330 0.0000
# 4 0.0000 0.0000 0.0000 10.3177 0.0000 -1.9454
# 5 14.4435 1.9142 28.2330 0.0000 34.3090 0.0000
# 6 0.0000 0.0000 0.0000 -1.9454 0.0000 6.1222
#
#
#
# Elastic Compliance Matrix: (Units=1/GPa)
#
#
# Indices 1 2 3 4 5 6 
#
# 1 0.011659 -0.002348 0.002944 0.000000 -0.007200 0.000000
# 2 -0.002348 0.028612 -0.011905 0.000000 0.009189 0.000000
# 3 0.002944 -0.011905 0.025647 0.000000 -0.021680 0.000000
# 4 0.000000 0.000000 0.000000 0.103098 0.000000 0.032761
# 5 -0.007200 0.009189 -0.021680 0.000000 0.049506 0.000000
# 6 0.000000 0.000000 0.000000 0.032761 0.000000 0.173752
#
#
# Mechanical properties :
#
#
# Convention : Reuss Voigt Hill
#
# Bulk Modulus (GPa) = 23.09409 29.93206 26.51307
# Shear Modulus (GPa) = 11.64620 22.23775 16.94197
#
# Velocity S-wave (km/s) = 2.34753 3.24387 2.83140
# Velocity P-wave (km/s) = 4.27502 5.30979 4.82025
#
# Compressibility (1/GPa) = 0.04330112
#
# Stress axis : x y z
#
# Youngs Moduli (GPa) = 85.76724 34.95050 38.99100
#
# Poissons Ratio (x) = 0.08207 -0.11479
# Poissons Ratio (y) = 0.20139 0.46417
# Poissons Ratio (z) = -0.25251 0.41607
#
# Static dielectric constant tensor:
#      x y z
#    x 1.934400 0.000000 -0.168160 
#    y 0.000000 1.849380 0.000000 
#    z -0.168160 0.000000 1.948010 
# 
# From -- ./inp_files/192975.got.cif
#   From: 2010.05.17/outbox.cif.g08.bks.cpg/sg15_97_cif.got.tgz:192975.got - 2010.06.03 18:47:42.
