data_PCOD9301699
_publ_section_title
;
Structure prediction by ZEFSAII (Michael W. Deem and Ramdas Pophale) SiO2 
 PCOD9301699
Probable space group: C 2/C
;
_chemical_formula_sum "Si O2"
_cell_formula_units_Z 52
_cell_length_a 28.880259
_cell_length_b 11.828053
_cell_length_c 9.330453
_cell_angle_alpha 90.000000
_cell_angle_beta 128.330996
_cell_angle_gamma 90.000000
_cell_volume 2500.214912
_symmetry_space_group_name_H-M "C 2/C"
_symmetry_group_IT_number 15
_symmetry_cell_setting 'monoclinic'
loop_
_space_group_symop_operation_xyz
x,y,z
-x,y,1/2-z
-x,-y,-z
x,-y,1/2+z
1/2+x,1/2+y,z
1/2-x,1/2+y,1/2-z
1/2-x,1/2-y,-z
1/2+x,1/2-y,1/2+z
loop_
_atom_site_type_symbol
_atom_site_label
_atom_site_fract_x
_atom_site_fract_y
_atom_site_fract_z
Si Si1 0.500000 0.724696 0.750000
Si Si2 0.319931 0.440265 0.263761
Si Si3 0.129553 0.537924 0.944426
Si Si4 0.799868 0.338157 0.375715
Si Si5 0.729214 0.875611 0.489392
Si Si6 0.948433 0.575789 0.962196
Si Si7 0.874530 0.117381 0.578657
O O1 0.474862 0.811569 0.582496
O O2 0.442412 0.651996 0.681862
O O3 0.268279 0.352321 0.210143
O O4 0.354890 0.502582 0.458867
O O5 0.362510 0.391113 0.224820
O O6 0.282368 0.538834 0.113279
O O7 0.188820 0.613293 0.053927
O O8 0.091541 0.599587 0.751322
O O9 0.158266 0.418277 0.946790
O O10 0.087189 0.500002 0.990599
O O11 0.802902 0.397802 0.224678
O O12 0.830062 0.216206 0.435948
O O13 0.750000 0.750000 0.500000
O O14 0.000000 0.500000 0.000000
#
# Coordination Sequence:
#
# PCOD9301699 Si02
#       7
#     4   8   8   8   8   8   8
#     4  12  26  44  72  88 136 188 218 278 330 390
#     4  11  25  40  68  98 131 174 223 273 334 401
#     4  11  22  38  67  94 136 166 212 274 340 396
#     4  11  21  42  67 101 133 170 213 280 347 395
#     4  11  21  38  63 100 135 170 207 272 345 400
#     4  12  21  42  64  95 124 173 224 269 326 386
#     4  12  24  46  67  94 133 175 230 272 333 403
#
# _framework density 20.798210999999998
#
# number of rings (size 3 to 8) (size 9 to 14) (size 15 to 20)
#    0.000    0.615    7.692    0.462    0.000    0.615 
#    5.538    0.000    3.385    0.000    0.000    0.000 
#    0.000    0.000    0.000    0.000    0.000    0.000 
#
# Total GULP energy -144941.377484 kJ/mol
# GULP energy per Si atom -5574.668365 kJ/mol
# Density = 2.075087 g / cm^3
# Si number density = 20.798211 Si / 1000 Ang^3
#
#
#
# Elastic Constant Matrix: (Units=GPa)
#
#
# Indices 1 2 3 4 5 6 
#
# 1 217.7465 49.4998 29.8937 0.0000 9.8506 0.0000
# 2 49.4998 51.2123 12.3816 0.0000 11.8925 0.0000
# 3 29.8937 12.3816 60.8676 0.0000 2.8585 0.0000
# 4 0.0000 0.0000 0.0000 22.8863 0.0000 -3.4276
# 5 9.8506 11.8925 2.8585 0.0000 25.5261 0.0000
# 6 0.0000 0.0000 0.0000 -3.4276 0.0000 32.8771
#
#
#
# Elastic Compliance Matrix: (Units=1/GPa)
#
#
# Indices 1 2 3 4 5 6 
#
# 1 0.006089 -0.005531 -0.001886 0.000000 0.000438 0.000000
# 2 -0.005531 0.027931 -0.002467 0.000000 -0.010602 0.000000
# 3 -0.001886 -0.002467 0.017863 0.000000 -0.000123 0.000000
# 4 0.000000 0.000000 0.000000 0.044387 0.000000 0.004628
# 5 0.000438 -0.010602 -0.000123 0.000000 0.043960 0.000000
# 6 0.000000 0.000000 0.000000 0.004628 0.000000 0.030899
#
#
# Mechanical properties :
#
#
# Convention : Reuss Voigt Hill
#
# Bulk Modulus (GPa) = 31.13854 57.04184 44.09019
# Shear Modulus (GPa) = 24.80123 32.12799 28.46461
#
# Velocity S-wave (km/s) = 3.45696 3.93459 3.70348
# Velocity P-wave (km/s) = 5.56223 6.93738 6.28751
#
# Compressibility (1/GPa) = 0.03211454
#
# Stress axis : x y z
#
# Youngs Moduli (GPa) = 164.23133 35.80193 55.98169
#
# Poissons Ratio (x) = 0.19803 0.10558
# Poissons Ratio (y) = 0.90840 0.13812
# Poissons Ratio (z) = 0.30972 0.08833
#
# Static dielectric constant tensor:
#      x y z
#    x 1.834670 0.000000 0.014560 
#    y 0.000000 1.762050 0.000000 
#    z 0.014560 0.000000 1.975040 
# 
# From -- ./inp_files/65614.got.cif
#   From: 2010.05.17/outbox.cif.g08.bks.cpg/sg15_33_cif.got.tgz:65614.got - 2010.06.03 18:47:42.
