data_PCOD9301385
_publ_section_title
;
Structure prediction by ZEFSAII (Michael W. Deem and Ramdas Pophale) SiO2 
 PCOD9301385
Probable space group: C 2/C
;
_chemical_formula_sum "Si O2"
_cell_formula_units_Z 36
_cell_length_a 6.582109
_cell_length_b 14.997660
_cell_length_c 15.096725
_cell_angle_alpha 90.000000
_cell_angle_beta 102.312445
_cell_angle_gamma 90.000000
_cell_volume 1456.014036
_symmetry_space_group_name_H-M "C 2/C"
_symmetry_group_IT_number 15
_symmetry_cell_setting 'monoclinic'
loop_
_space_group_symop_operation_xyz
x,y,z
-x,y,1/2-z
-x,-y,-z
x,-y,1/2+z
1/2+x,1/2+y,z
1/2-x,1/2+y,1/2-z
1/2-x,1/2-y,-z
1/2+x,1/2-y,1/2+z
loop_
_atom_site_type_symbol
_atom_site_label
_atom_site_fract_x
_atom_site_fract_y
_atom_site_fract_z
Si Si1 0.451267 0.156429 0.928283
Si Si2 0.594172 0.477780 0.412252
Si Si3 0.000000 0.762634 0.750000
Si Si4 0.348432 0.006377 0.658205
Si Si5 0.622684 0.857959 0.623785
O O1 0.455438 0.215004 0.840497
O O2 0.547788 0.194338 0.028555
O O3 0.225347 0.112921 0.923949
O O4 0.595355 0.071181 0.917144
O O5 0.500000 0.500000 0.500000
O O6 0.385681 0.477918 0.334997
O O7 0.739551 0.556799 0.392253
O O8 0.778740 0.809109 0.704728
O O9 0.500000 0.035319 0.750000
O O10 0.414446 0.905325 0.642206
#
# Coordination Sequence:
#
# PCOD9301385 Si02
#       5
#     8   8   4   8   8
#     4  11  23  43  70 101 143 195 237 301 355 430
#     4  11  20  42  77 102 130 184 254 303 355 419
#     4  12  26  46  64 108 164 192 234 290 372 454
#     4  11  21  41  72 105 134 178 251 304 347 424
#     4  11  23  43  70 100 145 193 235 298 362 426
#
# _framework density 24.725037
#
# number of rings (size 3 to 8) (size 9 to 14) (size 15 to 20)
#    0.000    0.889    5.556    3.333    0.000    2.667 
#    0.000    7.778    0.000    0.000    0.000    0.000 
#    0.000    0.000    0.000    0.000    0.000    0.000 
#
# Total GULP energy -100590.594581 kJ/mol
# GULP energy per Si atom -5588.366366 kJ/mol
# Density = 2.466876 g / cm^3
# Si number density = 24.725037 Si / 1000 Ang^3
#
#
#
# Elastic Constant Matrix: (Units=GPa)
#
#
# Indices 1 2 3 4 5 6 
#
# 1 143.3093 27.6403 52.2358 0.0000 24.3745 0.0000
# 2 27.6403 50.0309 44.9860 0.0000 7.8917 0.0000
# 3 52.2358 44.9860 163.5709 0.0000 42.5198 0.0000
# 4 0.0000 0.0000 0.0000 28.6347 0.0000 -11.3881
# 5 24.3745 7.8917 42.5198 0.0000 52.3448 0.0000
# 6 0.0000 0.0000 0.0000 -11.3881 0.0000 30.6623
#
#
#
# Elastic Compliance Matrix: (Units=1/GPa)
#
#
# Indices 1 2 3 4 5 6 
#
# 1 0.008450 -0.003231 -0.001158 0.000000 -0.002507 0.000000
# 2 -0.003231 0.028039 -0.007570 0.000000 0.003427 0.000000
# 3 -0.001158 -0.007570 0.010304 0.000000 -0.006690 0.000000
# 4 0.000000 0.000000 0.000000 0.040975 0.000000 0.015218
# 5 -0.002507 0.003427 -0.006690 0.000000 0.025189 0.000000
# 6 0.000000 0.000000 0.000000 0.015218 0.000000 0.038265
#
#
# Mechanical properties :
#
#
# Convention : Reuss Voigt Hill
#
# Bulk Modulus (GPa) = 43.71835 67.40392 55.56114
# Shear Modulus (GPa) = 27.35727 37.79830 32.57778
#
# Velocity S-wave (km/s) = 3.32996 3.91416 3.63382
# Velocity P-wave (km/s) = 5.70132 6.91000 6.33455
#
# Compressibility (1/GPa) = 0.02287369
#
# Stress axis : x y z
#
# Youngs Moduli (GPa) = 118.34859 35.66414 97.04630
#
# Poissons Ratio (x) = 0.11525 0.11238
# Poissons Ratio (y) = 0.38244 0.73467
# Poissons Ratio (z) = 0.13705 0.26999
#
# Static dielectric constant tensor:
#      x y z
#    x 2.022730 0.000000 0.052230 
#    y 0.000000 1.991180 0.000000 
#    z 0.052230 0.000000 2.095410 
# 
# From -- ./inp_files/226535.got.cif
#   From: 2010.05.17/outbox.cif.g08.bks.cpg/sg15_114_cif.got.tgz:226535.got - 2010.06.03 18:47:42.
