data_PCOD9301070
_publ_section_title
;
Structure prediction by ZEFSAII (Michael W. Deem and Ramdas Pophale) SiO2 
 PCOD9301070
Probable space group: C 2/C
;
_chemical_formula_sum "Si O2"
_cell_formula_units_Z 48
_cell_length_a 19.153743
_cell_length_b 14.529738
_cell_length_c 9.846940
_cell_angle_alpha 90.000000
_cell_angle_beta 70.917634
_cell_angle_gamma 90.000000
_cell_volume 2589.806534
_symmetry_space_group_name_H-M "C 2/C"
_symmetry_group_IT_number 15
_symmetry_cell_setting 'monoclinic'
loop_
_space_group_symop_operation_xyz
x,y,z
-x,y,1/2-z
-x,-y,-z
x,-y,1/2+z
1/2+x,1/2+y,z
1/2-x,1/2+y,1/2-z
1/2-x,1/2-y,-z
1/2+x,1/2-y,1/2+z
loop_
_atom_site_type_symbol
_atom_site_label
_atom_site_fract_x
_atom_site_fract_y
_atom_site_fract_z
Si Si1 0.194690 0.202357 0.426817
Si Si2 0.778057 0.512057 0.369000
Si Si3 0.555106 0.840924 0.091298
Si Si4 0.381985 0.976872 0.053624
Si Si5 0.211486 0.689163 0.635019
Si Si6 0.039700 0.715045 0.077410
O O1 0.250000 0.250000 0.500000
O O2 0.203213 0.259680 0.282516
O O3 0.109054 0.213889 0.529286
O O4 0.224088 0.098325 0.381252
O O5 0.847958 0.504341 0.221067
O O6 0.811916 0.522682 0.497130
O O7 0.747243 0.408712 0.375367
O O8 0.500000 0.842393 0.250000
O O9 0.632444 0.824256 0.115000
O O10 0.524658 0.772389 0.994701
O O11 0.563918 0.941271 0.020816
O O12 0.421098 0.879792 0.999550
O O13 0.250000 0.750000 0.500000
O O14 0.000000 0.707755 0.250000
#
# Coordination Sequence:
#
# PCOD9301070 Si02
#       6
#     8   8   8   8   8   8
#     4  12  23  40  62  91 133 168 213 263 317 394
#     4  11  21  39  62  93 125 163 217 258 315 380
#     4  11  21  38  58  90 128 159 213 260 324 391
#     4  11  20  37  60  93 126 164 207 268 333 376
#     4  11  24  41  66  92 120 170 214 269 320 368
#     4  12  23  37  59  96 132 173 203 267 337 385
#
# _framework density 18.534203000000002
#
# number of rings (size 3 to 8) (size 9 to 14) (size 15 to 20)
#    0.000    0.667    5.000    5.000    2.333    0.000 
#    0.000    0.000    0.000    2.000    0.000    0.000 
#    0.000    0.000    0.000    0.000    0.000    0.000 
#
# Total GULP energy -133846.999809 kJ/mol
# GULP energy per Si atom -5576.958325 kJ/mol
# Density = 1.849202 g / cm^3
# Si number density = 18.534203 Si / 1000 Ang^3
#
#
#
# Elastic Constant Matrix: (Units=GPa)
#
#
# Indices 1 2 3 4 5 6 
#
# 1 88.3845 53.8158 37.6469 0.0000 3.0347 0.0000
# 2 53.8158 119.0295 44.0278 0.0000 -13.8380 0.0000
# 3 37.6469 44.0278 127.5451 0.0000 -9.6780 0.0000
# 4 0.0000 0.0000 0.0000 24.4181 0.0000 -1.0269
# 5 3.0347 -13.8380 -9.6780 0.0000 23.4927 0.0000
# 6 0.0000 0.0000 0.0000 -1.0269 0.0000 35.0366
#
#
#
# Elastic Compliance Matrix: (Units=1/GPa)
#
#
# Indices 1 2 3 4 5 6 
#
# 1 0.017668 -0.007771 -0.003152 0.000000 -0.008158 0.000000
# 2 -0.007771 0.013520 -0.001747 0.000000 0.008248 0.000000
# 3 -0.003152 -0.001747 0.009628 0.000000 0.003344 0.000000
# 4 0.000000 0.000000 0.000000 0.041004 0.000000 0.001202
# 5 -0.008158 0.008248 0.003344 0.000000 0.049856 0.000000
# 6 0.000000 0.000000 0.000000 0.001202 0.000000 0.028577
#
#
# Mechanical properties :
#
#
# Convention : Reuss Voigt Hill
#
# Bulk Modulus (GPa) = 64.61709 67.32669 65.97189
# Shear Modulus (GPa) = 26.21225 29.88740 28.04982
#
# Velocity S-wave (km/s) = 3.76475 4.02002 3.89448
# Velocity P-wave (km/s) = 7.33738 7.61261 7.47626
#
# Compressibility (1/GPa) = 0.01547578
#
# Stress axis : x y z
#
# Youngs Moduli (GPa) = 56.59871 73.96529 103.86848
#
# Poissons Ratio (x) = 0.57477 0.32735
# Poissons Ratio (y) = 0.43982 0.18151
# Poissons Ratio (z) = 0.17838 0.12925
#
# Static dielectric constant tensor:
#      x y z
#    x 1.754980 0.000000 0.083970 
#    y 0.000000 1.665140 0.000000 
#    z 0.083970 0.000000 1.681200 
# 
# From -- ./inp_files/55254.got.cif
#   From: 2010.05.17/outbox.cif.g08.bks.cpg/sg15_28_cif.got.tgz:55254.got - 2010.06.03 18:47:42.
