data_PCOD9301691
_publ_section_title
;
Structure prediction by ZEFSAII (Michael W. Deem and Ramdas Pophale) SiO2 
 PCOD9301691
Probable space group: C 2/C
;
_chemical_formula_sum "Si O2"
_cell_formula_units_Z 40
_cell_length_a 23.204219
_cell_length_b 9.363521
_cell_length_c 8.552204
_cell_angle_alpha 90.000000
_cell_angle_beta 85.915332
_cell_angle_gamma 90.000000
_cell_volume 1853.444699
_symmetry_space_group_name_H-M "C 2/C"
_symmetry_group_IT_number 15
_symmetry_cell_setting 'monoclinic'
loop_
_space_group_symop_operation_xyz
x,y,z
-x,y,1/2-z
-x,-y,-z
x,-y,1/2+z
1/2+x,1/2+y,z
1/2-x,1/2+y,1/2-z
1/2-x,1/2-y,-z
1/2+x,1/2-y,1/2+z
loop_
_atom_site_type_symbol
_atom_site_label
_atom_site_fract_x
_atom_site_fract_y
_atom_site_fract_z
Si Si1 0.360240 0.855463 0.883003
Si Si2 0.957760 0.420371 0.389645
Si Si3 0.337810 0.570079 0.753704
Si Si4 0.643585 0.294493 0.582917
Si Si5 0.295683 0.073262 0.714171
O O1 0.370297 0.691100 0.846537
O O2 0.415372 0.953850 0.838829
O O3 0.312154 0.916009 0.772405
O O4 0.336277 0.884038 0.061179
O O5 0.913621 0.296359 0.447904
O O6 0.000000 0.360657 0.250000
O O7 0.000000 0.500000 0.500000
O O8 0.363416 0.414763 0.782447
O O9 0.338187 0.619158 0.574074
O O10 0.270826 0.574181 0.819169
O O11 0.688900 0.180435 0.645976
#
# Coordination Sequence:
#
# PCOD9301691 Si02
#       5
#     8   8   8   8   8
#     4  11  22  38  63  92 121 162 210 249 301 373
#     4  11  23  44  66  85 114 160 213 265 305 354
#     4  12  22  39  60  92 131 161 194 254 310 370
#     4  11  24  39  61  92 124 163 208 250 306 372
#     4  11  21  38  61  93 128 166 199 240 304 379
#
# _framework density 21.581439
#
# number of rings (size 3 to 8) (size 9 to 14) (size 15 to 20)
#    0.000    0.800    0.000   10.800    0.000    0.000 
#    0.000    5.000    0.000    0.000    0.000    0.000 
#    0.000    0.000    0.000    0.000    0.000    0.000 
#
# Total GULP energy -111847.718409 kJ/mol
# GULP energy per Si atom -5592.385920 kJ/mol
# Density = 2.153232 g / cm^3
# Si number density = 21.581439 Si / 1000 Ang^3
#
#
#
# Elastic Constant Matrix: (Units=GPa)
#
#
# Indices 1 2 3 4 5 6 
#
# 1 77.7620 27.6585 2.9614 0.0000 -3.4281 0.0000
# 2 27.6585 117.9764 -0.9609 0.0000 11.2691 0.0000
# 3 2.9614 -0.9609 69.3850 0.0000 3.8002 0.0000
# 4 0.0000 0.0000 0.0000 37.8770 0.0000 8.6195
# 5 -3.4281 11.2691 3.8002 0.0000 22.4065 0.0000
# 6 0.0000 0.0000 0.0000 8.6195 0.0000 18.0136
#
#
#
# Elastic Compliance Matrix: (Units=1/GPa)
#
#
# Indices 1 2 3 4 5 6 
#
# 1 0.014434 -0.003799 -0.000903 0.000000 0.004272 0.000000
# 2 -0.003799 0.009914 0.000610 0.000000 -0.005671 0.000000
# 3 -0.000903 0.000610 0.014619 0.000000 -0.002924 0.000000
# 4 0.000000 0.000000 0.000000 0.029627 0.000000 -0.014177
# 5 0.004272 -0.005671 -0.002924 0.000000 0.048632 0.000000
# 6 0.000000 0.000000 0.000000 -0.014177 0.000000 0.062297
#
#
# Mechanical properties :
#
#
# Convention : Reuss Voigt Hill
#
# Bulk Modulus (GPa) = 32.48542 36.04905 34.26724
# Shear Modulus (GPa) = 25.25660 31.35703 28.30682
#
# Velocity S-wave (km/s) = 3.42467 3.81591 3.62557
# Velocity P-wave (km/s) = 5.54283 6.01289 5.78264
#
# Compressibility (1/GPa) = 0.03078304
#
# Stress axis : x y z
#
# Youngs Moduli (GPa) = 69.28179 100.87134 68.40188
#
# Poissons Ratio (x) = 0.38324 0.06174
# Poissons Ratio (y) = 0.26322 -0.04173
# Poissons Ratio (z) = 0.06254 -0.06153
#
# Static dielectric constant tensor:
#      x y z
#    x 1.737220 0.000000 0.014910 
#    y 0.000000 1.787810 0.000000 
#    z 0.014910 0.000000 1.847940 
# 
# From -- ./inp_files/59895.got.cif
#   From: 2010.05.17/outbox.cif.g08.bks.cpg/sg15_30_cif.got.tgz:59895.got - 2010.06.03 18:47:42.
