data_PCOD9301817
_publ_section_title
;
Structure prediction by ZEFSAII (Michael W. Deem and Ramdas Pophale) SiO2 
 PCOD9301817
Probable space group: C 2/C
;
_chemical_formula_sum "Si O2"
_cell_formula_units_Z 48
_cell_length_a 10.271536
_cell_length_b 25.970396
_cell_length_c 10.751016
_cell_angle_alpha 90.000000
_cell_angle_beta 125.026086
_cell_angle_gamma 90.000000
_cell_volume 2348.494103
_symmetry_space_group_name_H-M "C 2/C"
_symmetry_group_IT_number 15
_symmetry_cell_setting 'monoclinic'
loop_
_space_group_symop_operation_xyz
x,y,z
-x,y,1/2-z
-x,-y,-z
x,-y,1/2+z
1/2+x,1/2+y,z
1/2-x,1/2+y,1/2-z
1/2-x,1/2-y,-z
1/2+x,1/2-y,1/2+z
loop_
_atom_site_type_symbol
_atom_site_label
_atom_site_fract_x
_atom_site_fract_y
_atom_site_fract_z
Si Si1 0.597018 0.195134 0.171840
Si Si2 0.500000 0.523955 0.750000
Si Si3 0.234904 0.107411 0.775971
Si Si4 0.000000 0.481565 0.750000
Si Si5 0.578470 0.912151 0.561983
Si Si6 0.713942 0.220929 0.611790
Si Si7 0.303878 0.453462 0.479522
O O1 0.500000 0.192462 0.250000
O O2 0.647508 0.138116 0.167039
O O3 0.729093 0.238066 0.257281
O O4 0.472167 0.211337 0.998411
O O5 0.646407 0.562759 0.805298
O O6 0.452122 0.487652 0.607386
O O7 0.206255 0.165027 0.816442
O O8 0.173212 0.094426 0.602563
O O9 0.425677 0.100582 0.891814
O O10 0.008055 0.448095 0.630243
O O11 0.164406 0.512927 0.839479
O O12 0.717812 0.936107 0.558615
O O13 0.750000 0.250000 0.500000
#
# Coordination Sequence:
#
# PCOD9301817 Si02
#       7
#     8   4   8   4   8   8   8
#     4   9  18  36  57  90 116 148 201 257 303 365
#     4  12  26  40  59  96 131 166 214 256 316 370
#     4  11  23  41  63  94 126 168 206 263 321 368
#     4  12  20  38  65  86 119 162 218 256 296 368
#     4  11  21  39  66  91 118 167 218 253 307 380
#     4   9  20  36  61  89 121 150 203 258 314 362
#     4  12  24  42  61  88 130 167 210 260 310 379
#
# _framework density 20.43863
#
# number of rings (size 3 to 8) (size 9 to 14) (size 15 to 20)
#    0.000    1.333    4.167    2.000    3.500    0.000 
#    3.000    0.833    0.000    0.000    0.000    0.000 
#    0.000    0.000    0.000    0.000    0.000    0.000 
#
# Total GULP energy -133782.485094 kJ/mol
# GULP energy per Si atom -5574.270212 kJ/mol
# Density = 2.039211 g / cm^3
# Si number density = 20.438630 Si / 1000 Ang^3
#
#
#
# Elastic Constant Matrix: (Units=GPa)
#
#
# Indices 1 2 3 4 5 6 
#
# 1 30.3827 17.9659 7.0199 0.0000 -11.3304 0.0000
# 2 17.9659 125.0760 57.9432 0.0000 -0.4368 0.0000
# 3 7.0199 57.9432 95.2596 0.0000 2.5781 0.0000
# 4 0.0000 0.0000 0.0000 41.5019 0.0000 0.6080
# 5 -11.3304 -0.4368 2.5781 0.0000 25.6885 0.0000
# 6 0.0000 0.0000 0.0000 0.6080 0.0000 3.3327
#
#
#
# Elastic Compliance Matrix: (Units=1/GPa)
#
#
# Indices 1 2 3 4 5 6 
#
# 1 0.043746 -0.006241 0.000054 0.000000 0.019183 0.000000
# 2 -0.006241 0.012042 -0.006814 0.000000 -0.001864 0.000000
# 3 0.000054 -0.006814 0.014681 0.000000 -0.001566 0.000000
# 4 0.000000 0.000000 0.000000 0.024160 0.000000 -0.004408
# 5 0.019183 -0.001864 -0.001566 0.000000 0.047515 0.000000
# 6 0.000000 0.000000 0.000000 -0.004408 0.000000 0.300863
#
#
# Mechanical properties :
#
#
# Convention : Reuss Voigt Hill
#
# Bulk Modulus (GPa) = 22.48996 46.28626 34.38811
# Shear Modulus (GPa) = 10.33417 25.29058 17.81237
#
# Velocity S-wave (km/s) = 2.25104 3.52147 2.95533
# Velocity P-wave (km/s) = 4.21708 6.26338 5.33918
#
# Compressibility (1/GPa) = 0.04446428
#
# Stress axis : x y z
#
# Youngs Moduli (GPa) = 22.85937 83.04281 68.11533
#
# Poissons Ratio (x) = 0.51831 -0.00365
# Poissons Ratio (y) = 0.14268 0.46416
# Poissons Ratio (z) = -0.00122 0.56588
#
# Static dielectric constant tensor:
#      x y z
#    x 1.600010 0.000000 0.083760 
#    y 0.000000 1.791630 0.000000 
#    z 0.083760 0.000000 1.696040 
# 
# From -- ./inp_files/91001.got.cif
#   From: 2010.05.17/outbox.cif.g08.bks.cpg/sg15_46_cif.got.tgz:91001.got - 2010.06.03 18:47:42.
