data_PCOD9301961
_publ_section_title
;
Structure prediction by ZEFSAII (Michael W. Deem and Ramdas Pophale) SiO2 
 PCOD9301961
Probable space group: C 2/C
;
_chemical_formula_sum "Si O2"
_cell_formula_units_Z 40
_cell_length_a 16.411147
_cell_length_b 10.673931
_cell_length_c 22.734171
_cell_angle_alpha 90.000000
_cell_angle_beta 23.602905
_cell_angle_gamma 90.000000
_cell_volume 1594.526090
_symmetry_space_group_name_H-M "C 2/C"
_symmetry_group_IT_number 15
_symmetry_cell_setting 'monoclinic'
loop_
_space_group_symop_operation_xyz
x,y,z
-x,y,1/2-z
-x,-y,-z
x,-y,1/2+z
1/2+x,1/2+y,z
1/2-x,1/2+y,1/2-z
1/2-x,1/2-y,-z
1/2+x,1/2-y,1/2+z
loop_
_atom_site_type_symbol
_atom_site_label
_atom_site_fract_x
_atom_site_fract_y
_atom_site_fract_z
Si Si1 0.062605 0.756286 0.775541
Si Si2 0.515140 0.848429 0.492070
Si Si3 0.554957 0.257603 0.333429
Si Si4 0.031183 0.019914 0.079893
Si Si5 0.162646 0.492903 0.729130
O O1 0.301488 0.790058 0.615493
O O2 0.203935 0.707177 0.830771
O O3 0.000000 0.760382 0.750000
O O4 0.963509 0.860657 0.882256
O O5 0.530424 0.794148 0.548274
O O6 0.500000 0.000000 0.500000
O O7 0.532476 0.882059 0.322006
O O8 0.459951 0.393571 0.387059
O O9 0.539182 0.135198 0.303946
O O10 0.820844 0.018635 0.179715
O O11 0.204747 0.014372 0.916549
#
# Coordination Sequence:
#
# PCOD9301961 Si02
#       5
#     8   8   8   8   8
#     4  12  27  43  66 107 152 180 227 303 374 413
#     4  12  24  41  74 108 135 187 245 292 347 424
#     4  12  21  42  74 104 130 182 253 293 329 418
#     4  11  21  42  68 101 134 187 245 289 335 434
#     4  11  21  40  70 101 139 184 238 293 346 422
#
# _framework density 25.085823000000001
#
# number of rings (size 3 to 8) (size 9 to 14) (size 15 to 20)
#    0.000    0.400    8.000    1.200    0.000    0.800 
#    0.000    1.000    0.000    3.600    0.000    0.000 
#    0.000    0.000    0.000    0.000    0.000    0.000 
#
# Total GULP energy -112051.310239 kJ/mol
# GULP energy per Si atom -5602.565512 kJ/mol
# Density = 2.502873 g / cm^3
# Si number density = 25.085823 Si / 1000 Ang^3
#
#
#
# Elastic Constant Matrix: (Units=GPa)
#
#
# Indices 1 2 3 4 5 6 
#
# 1 54.3232 24.2208 -2.5146 -0.0071 14.0003 0.0091
# 2 24.2208 291.0530 41.0532 -0.0043 21.3502 0.0010
# 3 -2.5146 41.0532 84.7272 -0.0120 10.2381 0.0169
# 4 -0.0071 -0.0043 -0.0120 45.4895 0.0052 23.0068
# 5 14.0003 21.3502 10.2381 0.0052 30.9206 -0.0107
# 6 0.0091 0.0010 0.0169 23.0068 -0.0107 10.0321
#
#
#
# Elastic Compliance Matrix: (Units=1/GPa)
#
#
# Indices 1 2 3 4 5 6 
#
# 1 0.021654 -0.001449 0.002509 -0.000139 -0.009634 0.000284
# 2 -0.001449 0.003912 -0.001762 0.000008 -0.001462 -0.000017
# 3 0.002509 -0.001762 0.013251 -0.000118 -0.004307 0.000242
# 4 -0.000139 0.000008 -0.000118 -0.137505 0.000228 0.315343
# 5 -0.009634 -0.001462 -0.004307 0.000228 0.039138 -0.000466
# 6 0.000284 -0.000017 0.000242 0.315343 -0.000466 -0.623502
#
#
# Mechanical properties :
#
#
# Convention : Reuss Voigt Hill
#
# Bulk Modulus (GPa) = 26.72907 61.73581 44.23244
# Shear Modulus (GPa) = -7.47187 41.77805 17.15309
#
# Velocity S-wave (km/s) = -1.72771 4.08536 2.61775
# Velocity P-wave (km/s) = 2.58809 6.84959 5.17760
#
# Compressibility (1/GPa) = 0.03741245
#
# Stress axis : x y z
#
# Youngs Moduli (GPa) = 46.18190 255.61443 75.46533
#
# Poissons Ratio (x) = 0.37042 -0.18933
# Poissons Ratio (y) = 0.06692 0.13297
# Poissons Ratio (z) = -0.11587 0.45038
#
# Static dielectric constant tensor:
#      x y z
#    x 1.999670 0.000010 -0.011540 
#    y 0.000010 2.061890 0.000010 
#    z -0.011540 0.000010 1.973330 
# 
# From -- ./inp_files/248524.got.cif
#   From: 2010.05.17/outbox.cif.g08.bks.cpg/sg15_125_cif.got.tgz:248524.got - 2010.06.03 18:47:42.
