data_PCOD9301030
_publ_section_title
;
Structure prediction by ZEFSAII (Michael W. Deem and Ramdas Pophale) SiO2 
 PCOD9301030
Probable space group: C 2/C
;
_chemical_formula_sum "Si O2"
_cell_formula_units_Z 56
_cell_length_a 8.917107
_cell_length_b 22.754177
_cell_length_c 13.365387
_cell_angle_alpha 90.000000
_cell_angle_beta 91.200633
_cell_angle_gamma 90.000000
_cell_volume 2711.260766
_symmetry_space_group_name_H-M "C 2/C"
_symmetry_group_IT_number 15
_symmetry_cell_setting 'monoclinic'
loop_
_space_group_symop_operation_xyz
x,y,z
-x,y,1/2-z
-x,-y,-z
x,-y,1/2+z
1/2+x,1/2+y,z
1/2-x,1/2+y,1/2-z
1/2-x,1/2-y,-z
1/2+x,1/2-y,1/2+z
loop_
_atom_site_type_symbol
_atom_site_label
_atom_site_fract_x
_atom_site_fract_y
_atom_site_fract_z
Si Si1 0.716202 0.708868 0.348826
Si Si2 0.919887 0.183763 0.855276
Si Si3 0.547459 0.450027 0.634786
Si Si4 0.056836 0.357972 0.513482
Si Si5 0.721342 0.846059 0.860466
Si Si6 0.071517 0.757767 0.549373
Si Si7 0.812408 0.065451 0.956309
O O1 0.776230 0.774744 0.336845
O O2 0.803056 0.680146 0.443471
O O3 0.766632 0.671095 0.254866
O O4 0.542417 0.712365 0.371420
O O5 0.881174 0.120077 0.896406
O O6 0.000000 0.180398 0.750000
O O7 0.015235 0.217225 0.941889
O O8 0.500000 0.452014 0.750000
O O9 0.656932 0.395598 0.615839
O O10 0.642704 0.507257 0.603793
O O11 0.400389 0.442395 0.562971
O O12 0.138193 0.415727 0.471307
O O13 0.939849 0.367232 0.602433
O O14 0.963516 0.311956 0.443311
O O15 0.771009 0.786801 0.919546
#
# Coordination Sequence:
#
# PCOD9301030 Si02
#       7
#     8   8   8   8   8   8   8
#     4  11  20  37  62  92 124 166 206 256 319 379
#     4  11  20  36  62  90 120 161 215 256 311 381
#     4  11  24  42  67  94 119 167 221 268 316 384
#     4  11  21  37  59  91 129 163 207 253 326 378
#     4  12  23  36  62  95 129 164 209 263 316 384
#     4  11  20  38  59  90 129 165 201 262 312 376
#     4  11  22  43  66  88 124 169 212 266 316 381
#
# _framework density 20.654598
#
# number of rings (size 3 to 8) (size 9 to 14) (size 15 to 20)
#    0.000    0.857    4.286    6.000    0.000    0.571 
#    0.000    0.000    0.000    0.000    0.000    0.000 
#    0.000    0.000    0.000    0.000    0.000    0.000 
#
# Total GULP energy -156411.505837 kJ/mol
# GULP energy per Si atom -5586.125208 kJ/mol
# Density = 2.060759 g / cm^3
# Si number density = 20.654598 Si / 1000 Ang^3
#
#
#
# Elastic Constant Matrix: (Units=GPa)
#
#
# Indices 1 2 3 4 5 6 
#
# 1 98.8443 39.1922 23.3731 0.0000 -22.8557 0.0000
# 2 39.1922 117.9770 15.0580 0.0000 -11.8976 0.0000
# 3 23.3731 15.0580 83.6067 0.0000 -29.6575 0.0000
# 4 0.0000 0.0000 0.0000 26.1392 0.0000 -2.9982
# 5 -22.8557 -11.8976 -29.6575 0.0000 28.2137 0.0000
# 6 0.0000 0.0000 0.0000 -2.9982 0.0000 34.7160
#
#
#
# Elastic Compliance Matrix: (Units=1/GPa)
#
#
# Indices 1 2 3 4 5 6 
#
# 1 0.013781 -0.003613 0.000347 0.000000 0.010005 0.000000
# 2 -0.003613 0.009810 -0.000522 0.000000 0.000661 0.000000
# 3 0.000347 -0.000522 0.019102 0.000000 0.020141 0.000000
# 4 0.000000 0.000000 0.000000 0.038639 0.000000 0.003337
# 5 0.010005 0.000661 0.020141 0.000000 0.064999 0.000000
# 6 0.000000 0.000000 0.000000 0.003337 0.000000 0.029093
#
#
# Mechanical properties :
#
#
# Convention : Reuss Voigt Hill
#
# Bulk Modulus (GPa) = 28.47690 50.63051 39.55370
# Shear Modulus (GPa) = 25.67957 32.66744 29.17350
#
# Velocity S-wave (km/s) = 3.52985 3.98126 3.76233
# Velocity P-wave (km/s) = 5.51636 6.76018 6.16970
#
# Compressibility (1/GPa) = 0.03511618
#
# Stress axis : x y z
#
# Youngs Moduli (GPa) = 72.56353 101.93790 52.34986
#
# Poissons Ratio (x) = 0.36834 -0.01818
# Poissons Ratio (y) = 0.26220 0.02734
# Poissons Ratio (z) = -0.02520 0.05325
#
# Static dielectric constant tensor:
#      x y z
#    x 1.774750 0.000000 -0.040330 
#    y 0.000000 1.756930 0.000000 
#    z -0.040330 0.000000 1.780830 
# 
# From -- ./inp_files/136459.got.cif
#   From: 2010.05.17/outbox.cif.g08.bks.cpg/sg15_69_cif.got.tgz:136459.got - 2010.06.03 18:47:42.
