data_PCOD9301987
_publ_section_title
;
Structure prediction by ZEFSAII (Michael W. Deem and Ramdas Pophale) SiO2 
 PCOD9301987
Probable space group: C 2/C
;
_chemical_formula_sum "Si O2"
_cell_formula_units_Z 40
_cell_length_a 9.198328
_cell_length_b 18.649045
_cell_length_c 15.880863
_cell_angle_alpha 90.000000
_cell_angle_beta 132.143761
_cell_angle_gamma 90.000000
_cell_volume 2019.897847
_symmetry_space_group_name_H-M "C 2/C"
_symmetry_group_IT_number 15
_symmetry_cell_setting 'monoclinic'
loop_
_space_group_symop_operation_xyz
x,y,z
-x,y,1/2-z
-x,-y,-z
x,-y,1/2+z
1/2+x,1/2+y,z
1/2-x,1/2+y,1/2-z
1/2-x,1/2-y,-z
1/2+x,1/2-y,1/2+z
loop_
_atom_site_type_symbol
_atom_site_label
_atom_site_fract_x
_atom_site_fract_y
_atom_site_fract_z
Si Si1 0.471013 0.533120 0.831095
Si Si2 0.182790 0.405143 0.355057
Si Si3 0.084735 0.527883 0.442141
Si Si4 0.877128 0.819083 0.574784
Si Si5 0.231552 0.878220 0.783502
O O1 0.500000 0.565849 0.750000
O O2 0.318036 0.571404 0.831272
O O3 0.384152 0.452981 0.781411
O O4 0.684188 0.536889 0.955338
O O5 0.075192 0.468765 0.365039
O O6 0.324975 0.371003 0.478344
O O7 0.000000 0.358086 0.250000
O O8 0.000000 0.500000 0.500000
O O9 0.957210 0.596833 0.364683
O O10 0.750000 0.750000 0.500000
O O11 0.796579 0.851231 0.631634
O O12 0.113183 0.820054 0.681218
#
# Coordination Sequence:
#
# PCOD9301987 Si02
#       5
#     8   8   8   8   8
#     4  12  21  37  61 100 143 160 200 281 342 393
#     4  12  23  35  65 105 123 171 220 260 340 393
#     4  12  19  36  61  96 135 165 202 277 339 388
#     4  11  24  42  62  91 133 179 227 259 300 409
#     4  11  21  41  60  93 135 165 212 272 338 358
#
# _framework density 19.802983000000001
#
# number of rings (size 3 to 8) (size 9 to 14) (size 15 to 20)
#    0.000    0.400   10.000    0.600    2.800    0.000 
#    0.000    0.000    0.000    1.200   10.400    0.000 
#    0.000    0.000    0.000    0.000    0.000    0.000 
#
# Total GULP energy -111425.805650 kJ/mol
# GULP energy per Si atom -5571.290282 kJ/mol
# Density = 1.975791 g / cm^3
# Si number density = 19.802983 Si / 1000 Ang^3
#
#
#
# Elastic Constant Matrix: (Units=GPa)
#
#
# Indices 1 2 3 4 5 6 
#
# 1 106.9101 29.3764 54.9855 0.0000 5.4177 0.0000
# 2 29.3764 52.0328 32.3529 0.0000 -3.9191 0.0000
# 3 54.9855 32.3529 164.5279 0.0000 15.8469 0.0000
# 4 0.0000 0.0000 0.0000 34.7662 0.0000 5.5461
# 5 5.4177 -3.9191 15.8469 0.0000 48.8858 0.0000
# 6 0.0000 0.0000 0.0000 5.5461 0.0000 7.0488
#
#
#
# Elastic Compliance Matrix: (Units=1/GPa)
#
#
# Indices 1 2 3 4 5 6 
#
# 1 0.012377 -0.005154 -0.003046 0.000000 -0.000797 0.000000
# 2 -0.005154 0.024555 -0.003459 0.000000 0.003661 0.000000
# 3 -0.003046 -0.003459 0.008021 0.000000 -0.002540 0.000000
# 4 0.000000 0.000000 0.000000 0.032892 0.000000 -0.025880
# 5 -0.000797 0.003661 -0.002540 0.000000 0.021661 0.000000
# 6 0.000000 0.000000 0.000000 -0.025880 0.000000 0.162230
#
#
# Mechanical properties :
#
#
# Convention : Reuss Voigt Hill
#
# Bulk Modulus (GPa) = 46.22102 61.87782 54.04942
# Shear Modulus (GPa) = 17.10781 31.92390 24.51585
#
# Velocity S-wave (km/s) = 2.94241 4.01942 3.52232
# Velocity P-wave (km/s) = 5.91057 7.27018 6.62534
#
# Compressibility (1/GPa) = 0.02163518
#
# Stress axis : x y z
#
# Youngs Moduli (GPa) = 80.79599 40.72566 124.67666
#
# Poissons Ratio (x) = 0.20989 0.37978
# Poissons Ratio (y) = 0.41640 0.43121
# Poissons Ratio (z) = 0.24612 0.14086
#
# Static dielectric constant tensor:
#      x y z
#    x 1.699030 0.000000 -0.000200 
#    y 0.000000 1.759920 0.000000 
#    z -0.000200 0.000000 1.821640 
# 
# From -- ./inp_files/76822.got.cif
#   From: 2010.05.17/outbox.cif.g08.bks.cpg/sg15_39_cif.got.tgz:76822.got - 2010.06.03 18:47:42.
