data_PCOD9301916
_publ_section_title
;
Structure prediction by ZEFSAII (Michael W. Deem and Ramdas Pophale) SiO2 
 PCOD9301916
Probable space group: C 2/C
;
_chemical_formula_sum "Si O2"
_cell_formula_units_Z 60
_cell_length_a 22.945449
_cell_length_b 17.184168
_cell_length_c 12.238495
_cell_angle_alpha 90.000000
_cell_angle_beta 42.038526
_cell_angle_gamma 90.000000
_cell_volume 3231.380385
_symmetry_space_group_name_H-M "C 2/C"
_symmetry_group_IT_number 15
_symmetry_cell_setting 'monoclinic'
loop_
_space_group_symop_operation_xyz
x,y,z
-x,y,1/2-z
-x,-y,-z
x,-y,1/2+z
1/2+x,1/2+y,z
1/2-x,1/2+y,1/2-z
1/2-x,1/2-y,-z
1/2+x,1/2-y,1/2+z
loop_
_atom_site_type_symbol
_atom_site_label
_atom_site_fract_x
_atom_site_fract_y
_atom_site_fract_z
Si Si1 0.466013 0.220701 0.117657
Si Si2 0.500000 0.648623 0.750000
Si Si3 0.163255 0.315208 0.351969
Si Si4 0.583656 0.236539 0.561957
Si Si5 0.707182 0.165108 0.037892
Si Si6 0.823072 0.942571 0.526652
Si Si7 0.238784 0.147991 0.188250
Si Si8 0.193558 0.121182 0.001828
O O1 0.474573 0.294734 0.185563
O O2 0.387751 0.168982 0.274361
O O3 0.559637 0.179261 0.988483
O O4 0.442694 0.245374 0.027505
O O5 0.582264 0.596454 0.605579
O O6 0.196296 0.344178 0.423506
O O7 0.189700 0.224083 0.305157
O O8 0.215001 0.357200 0.183304
O O9 0.500000 0.215416 0.750000
O O10 0.660599 0.173047 0.460544
O O11 0.625113 0.316113 0.550773
O O12 0.766106 0.100262 0.012707
O O13 0.750000 0.250000 0.000000
O O14 0.777710 0.921362 0.704686
O O15 0.829550 0.033597 0.496194
O O16 0.202515 0.131541 0.118848
#
# Coordination Sequence:
#
# PCOD9301916 Si02
#       8
#     8   4   8   8   8   8   8   8
#     4  12  19  38  67  99 119 160 227 271 304 360
#     4  12  24  38  66  98 134 154 208 278 310 378
#     4  11  21  40  66  94 123 169 218 266 304 368
#     4  11  23  39  67  94 122 169 221 259 311 377
#     4  12  19  38  65  93 124 165 220 258 312 370
#     4  12  26  42  63  97 132 170 202 261 331 381
#     4  11  21  44  64  88 126 172 217 260 307 374
#     4  11  27  41  62  92 137 172 200 258 330 386
#
# _framework density 18.567916
#
# number of rings (size 3 to 8) (size 9 to 14) (size 15 to 20)
#    0.000    0.533    6.667    4.000    2.800    0.000 
#    0.000    2.000    0.000    0.000    0.000    0.000 
#    0.000    0.000    0.000    0.000    0.000    0.000 
#
# Total GULP energy -167767.793008 kJ/mol
# GULP energy per Si atom -5592.259767 kJ/mol
# Density = 1.852565 g / cm^3
# Si number density = 18.567916 Si / 1000 Ang^3
#
#
#
# Elastic Constant Matrix: (Units=GPa)
#
#
# Indices 1 2 3 4 5 6 
#
# 1 117.1700 23.1344 37.5140 0.0000 25.6568 0.0000
# 2 23.1344 35.3993 15.5017 0.0000 3.5032 0.0000
# 3 37.5140 15.5017 103.0310 0.0000 -1.4313 0.0000
# 4 0.0000 0.0000 0.0000 11.6886 0.0000 -3.1551
# 5 25.6568 3.5032 -1.4313 0.0000 57.3727 0.0000
# 6 0.0000 0.0000 0.0000 -3.1551 0.0000 3.6274
#
#
#
# Elastic Compliance Matrix: (Units=1/GPa)
#
#
# Indices 1 2 3 4 5 6 
#
# 1 0.011910 -0.005730 -0.003545 0.000000 -0.005065 0.000000
# 2 -0.005730 0.033221 -0.002906 0.000000 0.000461 0.000000
# 3 -0.003545 -0.002906 0.011462 0.000000 0.002049 0.000000
# 4 0.000000 0.000000 0.000000 0.111802 0.000000 0.097245
# 5 -0.005065 0.000461 0.002049 0.000000 0.019718 0.000000
# 6 0.000000 0.000000 0.000000 0.097245 0.000000 0.360266
#
#
# Mechanical properties :
#
#
# Convention : Reuss Voigt Hill
#
# Bulk Modulus (GPa) = 31.02499 45.32230 38.17365
# Shear Modulus (GPa) = 8.56924 26.50110 17.53517
#
# Velocity S-wave (km/s) = 2.15060 3.78200 3.07641
# Velocity P-wave (km/s) = 4.78665 6.59797 5.76391
#
# Compressibility (1/GPa) = 0.03223208
#
# Stress axis : x y z
#
# Youngs Moduli (GPa) = 83.96431 30.10187 87.24442
#
# Poissons Ratio (x) = 0.17248 0.30925
# Poissons Ratio (y) = 0.48111 0.25349
# Poissons Ratio (z) = 0.29762 0.08746
#
# Static dielectric constant tensor:
#      x y z
#    x 1.633120 0.000000 -0.003780 
#    y 0.000000 1.608170 0.000000 
#    z -0.003780 0.000000 1.650630 
# 
# From -- ./inp_files/119453.got.cif
#   From: 2010.05.17/outbox.cif.g08.bks.cpg/sg15_60_cif.got.tgz:119453.got - 2010.06.03 18:47:42.
