data_PCOD9301526
_publ_section_title
;
Structure prediction by ZEFSAII (Michael W. Deem and Ramdas Pophale) SiO2 
 PCOD9301526
Probable space group: C 2/C
;
_chemical_formula_sum "Si O2"
_cell_formula_units_Z 56
_cell_length_a 21.471379
_cell_length_b 13.774779
_cell_length_c 8.773174
_cell_angle_alpha 90.000000
_cell_angle_beta 117.226201
_cell_angle_gamma 90.000000
_cell_volume 2307.301332
_symmetry_space_group_name_H-M "C 2/C"
_symmetry_group_IT_number 15
_symmetry_cell_setting 'monoclinic'
loop_
_space_group_symop_operation_xyz
x,y,z
-x,y,1/2-z
-x,-y,-z
x,-y,1/2+z
1/2+x,1/2+y,z
1/2-x,1/2+y,1/2-z
1/2-x,1/2-y,-z
1/2+x,1/2-y,1/2+z
loop_
_atom_site_type_symbol
_atom_site_label
_atom_site_fract_x
_atom_site_fract_y
_atom_site_fract_z
Si Si1 0.359756 0.138994 0.687160
Si Si2 0.244054 0.796089 0.265886
Si Si3 0.225726 0.093351 0.046047
Si Si4 0.361614 0.961861 0.860383
Si Si5 0.409437 0.236835 0.321137
Si Si6 0.575632 0.404083 0.396943
Si Si7 0.039669 0.183715 0.152403
O O1 0.283017 0.172597 0.657156
O O2 0.361448 0.078615 0.531830
O O3 0.406501 0.234903 0.732629
O O4 0.390052 0.067838 0.853245
O O5 0.253569 0.874946 0.411382
O O6 0.277987 0.695710 0.365532
O O7 0.160922 0.775377 0.171725
O O8 0.283087 0.035416 0.203891
O O9 0.149588 0.044886 0.944666
O O10 0.399835 0.878132 0.804264
O O11 0.413257 0.297613 0.169474
O O12 0.478953 0.263359 0.488299
O O13 0.500000 0.435331 0.250000
O O14 0.571833 0.393615 0.573714
O O15 0.000000 0.139108 0.250000
#
# Coordination Sequence:
#
# PCOD9301526 Si02
#       7
#     8   8   8   8   8   8   8
#     4  12  24  37  54  81 114 157 188 235 273 331
#     4   9  18  34  60  79 105 141 190 229 285 321
#     4   9  17  35  58  82 107 143 183 238 273 334
#     4  11  24  35  53  78 115 146 197 221 282 321
#     4   9  20  38  55  81 107 149 184 234 275 341
#     4   9  18  33  60  83 110 142 183 227 290 331
#     4  11  21  36  51  81 115 146 191 227 275 321
#
# _framework density 24.270780999999999
#
# number of rings (size 3 to 8) (size 9 to 14) (size 15 to 20)
#    0.000    2.000    2.857    1.714    2.000    4.000 
#    0.000    0.000    0.000    0.000    0.000   17.000 
#    0.000    0.000    0.000    0.000    0.000    0.000 
#
# Total GULP energy -156526.308511 kJ/mol
# GULP energy per Si atom -5590.225304 kJ/mol
# Density = 2.421554 g / cm^3
# Si number density = 24.270781 Si / 1000 Ang^3
#
#
#
# Elastic Constant Matrix: (Units=GPa)
#
#
# Indices 1 2 3 4 5 6 
#
# 1 83.3449 14.1004 20.7615 0.0000 -3.1626 0.0000
# 2 14.1004 68.3205 7.5469 0.0000 -14.6833 0.0000
# 3 20.7615 7.5469 84.1727 0.0000 -4.5325 0.0000
# 4 0.0000 0.0000 0.0000 14.5072 0.0000 -14.3282
# 5 -3.1626 -14.6833 -4.5325 0.0000 46.0056 0.0000
# 6 0.0000 0.0000 0.0000 -14.3282 0.0000 2.5907
#
#
#
# Elastic Compliance Matrix: (Units=1/GPa)
#
#
# Indices 1 2 3 4 5 6 
#
# 1 0.013157 -0.002416 -0.003038 0.000000 -0.000166 0.000000
# 2 -0.002416 0.016269 -0.000595 0.000000 0.004968 0.000000
# 3 -0.003038 -0.000595 0.012729 0.000000 0.000855 0.000000
# 4 0.000000 0.000000 0.000000 -0.015447 0.000000 -0.085433
# 5 -0.000166 0.004968 0.000855 0.000000 0.023395 0.000000
# 6 0.000000 0.000000 0.000000 -0.085433 0.000000 -0.086500
#
#
# Mechanical properties :
#
#
# Convention : Reuss Voigt Hill
#
# Bulk Modulus (GPa) = 33.26892 35.62841 34.44867
# Shear Modulus (GPa) = -350.13099 25.51600 -162.30750
#
# Velocity S-wave (km/s) = -12.02387 3.24590 -8.18650
# Velocity P-wave (km/s) = 13.38011 5.36277 8.66799
#
# Compressibility (1/GPa) = 0.03005808
#
# Stress axis : x y z
#
# Youngs Moduli (GPa) = 76.00282 61.46716 78.56060
#
# Poissons Ratio (x) = 0.14848 0.23864
# Poissons Ratio (y) = 0.18359 0.04677
# Poissons Ratio (z) = 0.23087 0.03660
#
# Static dielectric constant tensor:
#      x y z
#    x 1.975180 0.000000 -0.015320 
#    y 0.000000 1.968040 0.000000 
#    z -0.015320 0.000000 1.943130 
# 
# From -- ./inp_files/62556.got.cif
#   From: 2010.05.17/outbox.cif.g08.bks.cpg/sg15_32_cif.got.tgz:62556.got - 2010.06.03 18:47:42.
