data_PCOD9301088
_publ_section_title
;
Structure prediction by ZEFSAII (Michael W. Deem and Ramdas Pophale) SiO2 
 PCOD9301088
Probable space group: C 2/C
;
_chemical_formula_sum "Si O2"
_cell_formula_units_Z 32
_cell_length_a 23.854942
_cell_length_b 8.725035
_cell_length_c 19.083326
_cell_angle_alpha 90.000000
_cell_angle_beta 158.061882
_cell_angle_gamma 90.000000
_cell_volume 1483.926065
_symmetry_space_group_name_H-M "C 2/C"
_symmetry_group_IT_number 15
_symmetry_cell_setting 'monoclinic'
loop_
_space_group_symop_operation_xyz
x,y,z
-x,y,1/2-z
-x,-y,-z
x,-y,1/2+z
1/2+x,1/2+y,z
1/2-x,1/2+y,1/2-z
1/2-x,1/2-y,-z
1/2+x,1/2-y,1/2+z
loop_
_atom_site_type_symbol
_atom_site_label
_atom_site_fract_x
_atom_site_fract_y
_atom_site_fract_z
Si Si1 0.766787 0.276894 0.331438
Si Si2 0.808344 0.229784 0.145368
Si Si3 0.915748 0.603592 0.497621
Si Si4 0.478260 0.549188 0.891842
O O1 0.862375 0.428991 0.421205
O O2 0.650614 0.212259 0.139580
O O3 0.662802 0.335823 0.273072
O O4 0.880034 0.138328 0.472303
O O5 0.675124 0.165868 0.039818
O O6 0.905744 0.374252 0.286443
O O7 0.934085 0.097475 0.296662
O O8 0.750000 0.250000 0.000000
O O9 0.500000 0.500000 0.000000
#
# Coordination Sequence:
#
# PCOD9301088 Si02
#       4
#     8   8   8   8
#     4  11  20  37  63  93 124 157 211 267 306 348
#     4  11  23  40  60  88 127 167 205 249 317 383
#     4  11  21  37  61  92 121 162 209 259 307 367
#     4  11  21  40  60  96 126 152 216 262 302 370
#
# _framework density 21.564416999999999
#
# number of rings (size 3 to 8) (size 9 to 14) (size 15 to 20)
#    0.000    1.000    7.500    0.750    0.000    6.000 
#    0.000    1.250    0.000    9.000    0.000    0.000 
#    0.000    0.000    0.000    0.000    0.000    0.000 
#
# Total GULP energy -89343.636108 kJ/mol
# GULP energy per Si atom -5583.977257 kJ/mol
# Density = 2.151534 g / cm^3
# Si number density = 21.564417 Si / 1000 Ang^3
#
#
#
# Elastic Constant Matrix: (Units=GPa)
#
#
# Indices 1 2 3 4 5 6 
#
# 1 18.0890 12.9727 19.1753 0.0000 1.6463 0.0000
# 2 12.9727 54.7842 45.3092 0.0000 -4.2003 0.0000
# 3 19.1753 45.3092 99.1135 0.0000 -8.7861 0.0000
# 4 0.0000 0.0000 0.0000 53.5203 0.0000 20.8835
# 5 1.6463 -4.2003 -8.7861 0.0000 31.8870 0.0000
# 6 0.0000 0.0000 0.0000 20.8835 0.0000 31.8758
#
#
#
# Elastic Compliance Matrix: (Units=1/GPa)
#
#
# Indices 1 2 3 4 5 6 
#
# 1 0.074102 -0.009193 -0.010845 0.000000 -0.008025 0.000000
# 2 -0.009193 0.030491 -0.012057 0.000000 0.001169 0.000000
# 3 -0.010845 -0.012057 0.018049 0.000000 0.003945 0.000000
# 4 0.000000 0.000000 0.000000 0.025101 0.000000 -0.016445
# 5 -0.008025 0.001169 0.003945 0.000000 0.033016 0.000000
# 6 0.000000 0.000000 0.000000 -0.016445 0.000000 0.042146
#
#
# Mechanical properties :
#
#
# Convention : Reuss Voigt Hill
#
# Bulk Modulus (GPa) = 17.10787 36.32233 26.71510
# Shear Modulus (GPa) = 16.30895 29.75859 23.03377
#
# Velocity S-wave (km/s) = 2.75306 3.71885 3.27178
# Velocity P-wave (km/s) = 4.24928 5.94306 5.16606
#
# Compressibility (1/GPa) = 0.05845262
#
# Stress axis : x y z
#
# Youngs Moduli (GPa) = 13.49491 32.79605 55.40448
#
# Poissons Ratio (x) = 0.30149 0.60088
# Poissons Ratio (y) = 0.12406 0.66800
# Poissons Ratio (z) = 0.14636 0.39542
#
# Static dielectric constant tensor:
#      x y z
#    x 1.789250 0.000000 0.037170 
#    y 0.000000 1.882140 0.000000 
#    z 0.037170 0.000000 1.822830 
# 
# From -- ./inp_files/102199.got.cif
#   From: 2010.05.17/outbox.cif.g08.bks.cpg/sg15_52_cif.got.tgz:102199.got - 2010.06.03 18:47:42.
