data_PCOD9301601
_publ_section_title
;
Structure prediction by ZEFSAII (Michael W. Deem and Ramdas Pophale) SiO2 
 PCOD9301601
Probable space group: C 2/C
;
_chemical_formula_sum "Si O2"
_cell_formula_units_Z 64
_cell_length_a 15.142005
_cell_length_b 20.278358
_cell_length_c 11.764344
_cell_angle_alpha 90.000000
_cell_angle_beta 88.319059
_cell_angle_gamma 90.000000
_cell_volume 3610.746156
_symmetry_space_group_name_H-M "C 2/C"
_symmetry_group_IT_number 15
_symmetry_cell_setting 'monoclinic'
loop_
_space_group_symop_operation_xyz
x,y,z
-x,y,1/2-z
-x,-y,-z
x,-y,1/2+z
1/2+x,1/2+y,z
1/2-x,1/2+y,1/2-z
1/2-x,1/2-y,-z
1/2+x,1/2-y,1/2+z
loop_
_atom_site_type_symbol
_atom_site_label
_atom_site_fract_x
_atom_site_fract_y
_atom_site_fract_z
Si Si1 0.395267 0.884204 0.761012
Si Si2 0.101964 0.769172 0.216731
Si Si3 0.189807 0.183852 0.494467
Si Si4 0.523684 0.887609 0.377629
Si Si5 0.758886 0.708196 0.884394
Si Si6 0.817107 0.559181 0.484008
Si Si7 0.589700 0.254910 0.798591
Si Si8 0.338066 0.089517 0.009592
O O1 0.500000 0.897175 0.750000
O O2 0.384968 0.809149 0.805655
O O3 0.354300 0.932250 0.855308
O O4 0.348480 0.889080 0.640609
O O5 0.126633 0.809976 0.104863
O O6 0.169965 0.787357 0.314197
O O7 0.000000 0.778382 0.250000
O O8 0.250000 0.250000 0.500000
O O9 0.244059 0.116234 0.498975
O O10 0.137026 0.194463 0.380257
O O11 0.500000 0.907476 0.250000
O O12 0.605129 0.924923 0.429840
O O13 0.554951 0.810820 0.367121
O O14 0.437780 0.902458 0.456401
O O15 0.839882 0.731934 0.799986
O O16 0.750000 0.750000 0.000000
O O17 0.781328 0.636401 0.930839
O O18 0.797270 0.483069 0.504766
O O19 0.500000 0.283371 0.750000
#
# Coordination Sequence:
#
# PCOD9301601 Si02
#       8
#     8   8   8   8   8   8   8   8
#     4  11  22  37  56  91 127 159 207 249 310 381
#     4  11  24  40  66  91 121 164 216 271 310 361
#     4  12  22  41  63  90 125 170 214 254 305 374
#     4  11  21  37  59  90 129 167 199 240 314 389
#     4  12  23  40  60  91 128 162 209 263 320 365
#     4  12  25  39  59  88 131 175 202 246 307 389
#     4  11  22  38  67  93 127 165 210 264 313 374
#     4  12  26  37  59  92 129 166 201 255 317 384
#
# _framework density 17.724868000000001
#
# number of rings (size 3 to 8) (size 9 to 14) (size 15 to 20)
#    0.000    0.500    8.750    0.375    5.250    0.000 
#    0.000    0.000    0.000    1.500    0.000    0.000 
#    0.000    0.000    0.000    0.000    0.000    0.000 
#
# Total GULP energy -178747.945098 kJ/mol
# GULP energy per Si atom -5585.873284 kJ/mol
# Density = 1.768453 g / cm^3
# Si number density = 17.724868 Si / 1000 Ang^3
#
#
#
# Elastic Constant Matrix: (Units=GPa)
#
#
# Indices 1 2 3 4 5 6 
#
# 1 90.2181 37.0548 25.5837 0.0000 14.4810 0.0000
# 2 37.0548 88.1271 17.9858 0.0000 -3.7336 0.0000
# 3 25.5837 17.9858 90.4532 0.0000 5.4539 0.0000
# 4 0.0000 0.0000 0.0000 19.1370 0.0000 0.5338
# 5 14.4810 -3.7336 5.4539 0.0000 32.8993 0.0000
# 6 0.0000 0.0000 0.0000 0.5338 0.0000 17.8751
#
#
#
# Elastic Compliance Matrix: (Units=1/GPa)
#
#
# Indices 1 2 3 4 5 6 
#
# 1 0.015589 -0.006300 -0.002727 0.000000 -0.007124 0.000000
# 2 -0.006300 0.014474 -0.001376 0.000000 0.004644 0.000000
# 3 -0.002727 -0.001376 0.012159 0.000000 -0.000972 0.000000
# 4 0.000000 0.000000 0.000000 0.052298 0.000000 -0.001562
# 5 -0.007124 0.004644 -0.000972 0.000000 0.034220 0.000000
# 6 0.000000 0.000000 0.000000 -0.001562 0.000000 0.055990
#
#
# Mechanical properties :
#
#
# Convention : Reuss Voigt Hill
#
# Bulk Modulus (GPa) = 46.69486 47.78299 47.23892
# Shear Modulus (GPa) = 23.51022 26.52724 25.01873
#
# Velocity S-wave (km/s) = 3.64592 3.87280 3.76108
# Velocity P-wave (km/s) = 6.64268 6.85674 6.75055
#
# Compressibility (1/GPa) = 0.02141564
#
# Stress axis : x y z
#
# Youngs Moduli (GPa) = 64.14971 69.09078 82.24427
#
# Poissons Ratio (x) = 0.43526 0.22427
# Poissons Ratio (y) = 0.40413 0.11318
# Poissons Ratio (z) = 0.17492 0.09508
#
# Static dielectric constant tensor:
#      x y z
#    x 1.610060 0.000000 -0.008600 
#    y 0.000000 1.642200 0.000000 
#    z -0.008600 0.000000 1.622280 
# 
# From -- ./inp_files/98791.got.cif
#   From: 2010.05.17/outbox.cif.g08.bks.cpg/sg15_50_cif.got.tgz:98791.got - 2010.06.03 18:47:42.
