data_PCOD9301710
_publ_section_title
;
Structure prediction by ZEFSAII (Michael W. Deem and Ramdas Pophale) SiO2 
 PCOD9301710
Probable space group: C 2/C
;
_chemical_formula_sum "Si O2"
_cell_formula_units_Z 32
_cell_length_a 14.181264
_cell_length_b 12.241649
_cell_length_c 10.488506
_cell_angle_alpha 90.000000
_cell_angle_beta 39.264855
_cell_angle_gamma 90.000000
_cell_volume 1152.411984
_symmetry_space_group_name_H-M "C 2/C"
_symmetry_group_IT_number 15
_symmetry_cell_setting 'monoclinic'
loop_
_space_group_symop_operation_xyz
x,y,z
-x,y,1/2-z
-x,-y,-z
x,-y,1/2+z
1/2+x,1/2+y,z
1/2-x,1/2+y,1/2-z
1/2-x,1/2-y,-z
1/2+x,1/2-y,1/2+z
loop_
_atom_site_type_symbol
_atom_site_label
_atom_site_fract_x
_atom_site_fract_y
_atom_site_fract_z
Si Si1 0.141739 0.684889 0.521791
Si Si2 0.999840 0.298425 0.923837
Si Si3 0.805785 0.105654 0.008894
Si Si4 0.263703 0.462728 0.276348
O O1 0.250000 0.750000 0.500000
O O2 0.219277 0.581301 0.378595
O O3 0.000000 0.647949 0.750000
O O4 0.080541 0.751882 0.464339
O O5 0.898383 0.206823 0.966196
O O6 0.883835 0.390870 0.091673
O O7 0.868766 0.359039 0.792391
O O8 0.832689 0.998476 0.068310
O O9 0.837612 0.088185 0.826238
#
# Coordination Sequence:
#
# PCOD9301710 Si02
#       4
#     8   8   8   8
#     4  11  21  38  63  95 132 174 223 278 335 401
#     4  11  23  43  68 100 136 184 230 284 343 418
#     4  11  24  44  72 101 137 181 235 284 344 413
#     4  11  23  43  71 100 135 187 232 278 343 426
#
# _framework density 27.767847
#
# number of rings (size 3 to 8) (size 9 to 14) (size 15 to 20)
#    0.000    1.000    0.000   10.500    0.000    0.000 
#    0.000   10.000    0.000    0.000    0.000    0.000 
#    0.000    0.000    0.000    0.000    0.000    0.000 
#
# Total GULP energy -89831.096593 kJ/mol
# GULP energy per Si atom -5614.443537 kJ/mol
# Density = 2.770465 g / cm^3
# Si number density = 27.767847 Si / 1000 Ang^3
#
#
#
# Elastic Constant Matrix: (Units=GPa)
#
#
# Indices 1 2 3 4 5 6 
#
# 1 209.3511 87.5378 32.0592 0.0000 41.1563 0.0000
# 2 87.5378 120.5592 15.4166 0.0000 -1.2227 0.0000
# 3 32.0592 15.4166 114.0911 0.0000 9.8684 0.0000
# 4 0.0000 0.0000 0.0000 40.3440 0.0000 13.7640
# 5 41.1563 -1.2227 9.8684 0.0000 51.4154 0.0000
# 6 0.0000 0.0000 0.0000 13.7640 0.0000 68.5331
#
#
#
# Elastic Compliance Matrix: (Units=1/GPa)
#
#
# Indices 1 2 3 4 5 6 
#
# 1 0.009095 -0.006544 -0.001046 0.000000 -0.007236 0.000000
# 2 -0.006544 0.013158 -0.000426 0.000000 0.005633 0.000000
# 3 -0.001046 -0.000426 0.009198 0.000000 -0.000938 0.000000
# 4 0.000000 0.000000 0.000000 0.026610 0.000000 -0.005344
# 5 -0.007236 0.005633 -0.000938 0.000000 0.025555 0.000000
# 6 0.000000 0.000000 0.000000 -0.005344 0.000000 0.015665
#
#
# Mechanical properties :
#
#
# Convention : Reuss Voigt Hill
#
# Bulk Modulus (GPa) = 64.85526 79.33649 72.09588
# Shear Modulus (GPa) = 41.51007 52.65769 47.08388
#
# Velocity S-wave (km/s) = 3.87058 4.35944 4.12227
# Velocity P-wave (km/s) = 6.58652 7.34663 6.97693
#
# Compressibility (1/GPa) = 0.01541895
#
# Stress axis : x y z
#
# Youngs Moduli (GPa) = 109.94464 76.00040 108.72459
#
# Poissons Ratio (x) = 0.49734 0.11369
# Poissons Ratio (y) = 0.71946 0.04636
# Poissons Ratio (z) = 0.11497 0.03240
#
# Static dielectric constant tensor:
#      x y z
#    x 2.284770 0.000000 0.052900 
#    y 0.000000 2.189670 0.000000 
#    z 0.052900 0.000000 2.191780 
# 
# From -- ./inp_files/84910.got.cif
#   From: 2010.05.17/outbox.cif.g08.bks.cpg/sg15_43_cif.got.tgz:84910.got - 2010.06.03 18:47:42.
