data_PCOD9301132
_publ_section_title
;
Structure prediction by ZEFSAII (Michael W. Deem and Ramdas Pophale) SiO2 
 PCOD9301132
Probable space group: C 2/C
;
_chemical_formula_sum "Si O2"
_cell_formula_units_Z 36
_cell_length_a 24.205642
_cell_length_b 13.459476
_cell_length_c 11.461068
_cell_angle_alpha 90.000000
_cell_angle_beta 154.705897
_cell_angle_gamma 90.000000
_cell_volume 1595.390398
_symmetry_space_group_name_H-M "C 2/C"
_symmetry_group_IT_number 15
_symmetry_cell_setting 'monoclinic'
loop_
_space_group_symop_operation_xyz
x,y,z
-x,y,1/2-z
-x,-y,-z
x,-y,1/2+z
1/2+x,1/2+y,z
1/2-x,1/2+y,1/2-z
1/2-x,1/2-y,-z
1/2+x,1/2-y,1/2+z
loop_
_atom_site_type_symbol
_atom_site_label
_atom_site_fract_x
_atom_site_fract_y
_atom_site_fract_z
Si Si1 0.501652 0.121150 0.387433
Si Si2 0.777890 0.907351 0.395394
Si Si3 0.549869 0.331138 0.577051
Si Si4 0.500000 0.559553 0.750000
Si Si5 0.726189 0.655908 0.867305
O O1 0.500000 0.158409 0.250000
O O2 0.630916 0.055745 0.634115
O O3 0.529361 0.213530 0.524618
O O4 0.354166 0.087907 0.128322
O O5 0.779502 0.833912 0.284816
O O6 0.880339 0.993009 0.564082
O O7 0.832993 0.854502 0.614676
O O8 0.558505 0.375062 0.465190
O O9 0.416913 0.379238 0.373535
O O10 0.750000 0.750000 0.000000
#
# Coordination Sequence:
#
# PCOD9301132 Si02
#       5
#     8   8   8   4   8
#     4   9  19  37  60  85 114 151 195 248 298 341
#     4  11  21  36  58  89 116 155 198 243 293 355
#     4  11  20  38  60  86 117 155 203 242 290 357
#     4  12  24  36  60  88 128 158 196 244 298 352
#     4   9  19  36  62  85 113 152 197 247 296 344
#
# _framework density 22.565010000000001
#
# number of rings (size 3 to 8) (size 9 to 14) (size 15 to 20)
#    0.000    1.778    3.333    1.333    0.000    0.000 
#    0.000    1.111    4.889    0.000    0.000    0.000 
#    0.000    0.000    0.000    0.000    0.000    0.000 
#
# Total GULP energy -100291.104893 kJ/mol
# GULP energy per Si atom -5571.728050 kJ/mol
# Density = 2.251365 g / cm^3
# Si number density = 22.565010 Si / 1000 Ang^3
#
#
#
# Elastic Constant Matrix: (Units=GPa)
#
#
# Indices 1 2 3 4 5 6 
#
# 1 73.4002 10.5574 47.5965 0.0000 -18.3506 0.0000
# 2 10.5574 19.9738 12.4290 0.0000 -8.9894 0.0000
# 3 47.5965 12.4290 159.5055 0.0000 1.1591 0.0000
# 4 0.0000 0.0000 0.0000 9.4190 0.0000 -20.0304
# 5 -18.3506 -8.9894 1.1591 0.0000 73.7561 0.0000
# 6 0.0000 0.0000 0.0000 -20.0304 0.0000 10.1501
#
#
#
# Elastic Compliance Matrix: (Units=1/GPa)
#
#
# Indices 1 2 3 4 5 6 
#
# 1 0.018761 -0.004769 -0.005257 0.000000 0.004169 0.000000
# 2 -0.004769 0.057117 -0.003070 0.000000 0.005823 0.000000
# 3 -0.005257 -0.003070 0.008090 0.000000 -0.001809 0.000000
# 4 0.000000 0.000000 0.000000 -0.033212 0.000000 -0.065542
# 5 0.004169 0.005823 -0.001809 0.000000 0.015334 0.000000
# 6 0.000000 0.000000 0.000000 -0.065542 0.000000 -0.030820
#
#
# Mechanical properties :
#
#
# Convention : Reuss Voigt Hill
#
# Bulk Modulus (GPa) = 17.30781 43.78279 30.54530
# Shear Modulus (GPa) = 61.94149 30.81814 46.37982
#
# Velocity S-wave (km/s) = 5.24498 3.69961 4.53856
# Velocity P-wave (km/s) = 6.66083 6.13959 6.40551
#
# Compressibility (1/GPa) = 0.05777739
#
# Stress axis : x y z
#
# Youngs Moduli (GPa) = 53.30173 17.50777 123.60258
#
# Poissons Ratio (x) = 0.08349 0.64978
# Poissons Ratio (y) = 0.25418 0.37946
# Poissons Ratio (z) = 0.28021 0.05375
#
# Static dielectric constant tensor:
#      x y z
#    x 1.888800 0.000000 0.020950 
#    y 0.000000 1.841700 0.000000 
#    z 0.020950 0.000000 1.848770 
# 
# From -- ./inp_files/76331.got.cif
#   From: 2010.05.17/outbox.cif.g08.bks.cpg/sg15_39_cif.got.tgz:76331.got - 2010.06.03 18:47:42.
