data_PCOD9301534
_publ_section_title
;
Structure prediction by ZEFSAII (Michael W. Deem and Ramdas Pophale) SiO2 
 PCOD9301534
Probable space group: C 2/C
;
_chemical_formula_sum "Si O2"
_cell_formula_units_Z 44
_cell_length_a 24.421522
_cell_length_b 17.150637
_cell_length_c 15.511840
_cell_angle_alpha 90.000000
_cell_angle_beta 161.343216
_cell_angle_gamma 90.000000
_cell_volume 2078.396685
_symmetry_space_group_name_H-M "C 2/C"
_symmetry_group_IT_number 15
_symmetry_cell_setting 'monoclinic'
loop_
_space_group_symop_operation_xyz
x,y,z
-x,y,1/2-z
-x,-y,-z
x,-y,1/2+z
1/2+x,1/2+y,z
1/2-x,1/2+y,1/2-z
1/2-x,1/2-y,-z
1/2+x,1/2-y,1/2+z
loop_
_atom_site_type_symbol
_atom_site_label
_atom_site_fract_x
_atom_site_fract_y
_atom_site_fract_z
Si Si1 0.154911 0.984684 0.111196
Si Si2 0.789375 0.976000 0.623005
Si Si3 0.109649 0.422024 0.183736
Si Si4 0.653868 0.207197 0.252227
Si Si5 0.172549 0.647217 0.459741
Si Si6 0.000000 0.889739 0.250000
O O1 0.256265 0.927536 0.197141
O O2 0.257376 0.023823 0.344445
O O3 0.986338 0.949353 0.905478
O O4 0.074447 0.052021 0.932740
O O5 0.690652 0.932580 0.399143
O O6 0.759680 0.067889 0.558804
O O7 0.000000 0.500000 0.000000
O O8 0.989947 0.345723 0.006635
O O9 0.694214 0.297045 0.291396
O O10 0.606397 0.199013 0.281704
O O11 0.836949 0.164839 0.520556
O O12 0.000000 0.624229 0.250000
#
# Coordination Sequence:
#
# PCOD9301534 Si02
#       6
#     8   8   8   8   8   4
#     4  11  21  37  59  87 123 157 203 261 309 372
#     4  11  23  36  62  94 119 157 209 261 314 369
#     4  12  20  37  58  88 127 158 199 261 314 364
#     4  11  23  35  58  87 122 160 197 251 316 371
#     4  11  21  36  57  89 123 158 205 254 305 372
#     4  12  18  42  56  86 122 160 192 258 312 360
#
# _framework density 21.170165999999998
#
# number of rings (size 3 to 8) (size 9 to 14) (size 15 to 20)
#    0.000    0.727    8.182    1.091    0.000    0.000 
#    0.000    0.000    0.000    4.364    4.727    0.000 
#    0.000    0.182    0.000    0.000    0.000    0.000 
#
# Total GULP energy -122538.543760 kJ/mol
# GULP energy per Si atom -5569.933807 kJ/mol
# Density = 2.112198 g / cm^3
# Si number density = 21.170166 Si / 1000 Ang^3
#
#
#
# Elastic Constant Matrix: (Units=GPa)
#
#
# Indices 1 2 3 4 5 6 
#
# 1 84.9770 20.2118 57.5766 0.0000 -14.3116 0.0000
# 2 20.2118 94.6383 52.5996 0.0000 1.7333 0.0000
# 3 57.5766 52.5996 116.0784 0.0000 -13.3605 0.0000
# 4 0.0000 0.0000 0.0000 30.0368 0.0000 -9.8573
# 5 -14.3116 1.7333 -13.3605 0.0000 55.6474 0.0000
# 6 0.0000 0.0000 0.0000 -9.8573 0.0000 14.3593
#
#
#
# Elastic Compliance Matrix: (Units=1/GPa)
#
#
# Indices 1 2 3 4 5 6 
#
# 1 0.018182 0.001245 -0.009306 0.000000 0.002403 0.000000
# 2 0.001245 0.014436 -0.007378 0.000000 -0.001901 0.000000
# 3 -0.009306 -0.007378 0.016789 0.000000 0.001867 0.000000
# 4 0.000000 0.000000 0.000000 0.042974 0.000000 0.029500
# 5 0.002403 -0.001901 0.001867 0.000000 0.019096 0.000000
# 6 0.000000 0.000000 0.000000 0.029500 0.000000 0.089892
#
#
# Mechanical properties :
#
#
# Convention : Reuss Voigt Hill
#
# Bulk Modulus (GPa) = 53.96901 61.82998 57.89950
# Shear Modulus (GPa) = 20.97112 31.02906 26.00009
#
# Velocity S-wave (km/s) = 3.15079 3.83260 3.50830
# Velocity P-wave (km/s) = 6.22776 6.98961 6.61965
#
# Compressibility (1/GPa) = 0.01852915
#
# Stress axis : x y z
#
# Youngs Moduli (GPa) = 54.99993 69.27094 59.56267
#
# Poissons Ratio (x) = -0.08626 0.55430
# Poissons Ratio (y) = -0.06849 0.43945
# Poissons Ratio (z) = 0.51184 0.51108
#
# Static dielectric constant tensor:
#      x y z
#    x 1.930540 0.000000 0.018870 
#    y 0.000000 1.791850 0.000000 
#    z 0.018870 0.000000 1.823810 
# 
# From -- ./inp_files/174292.got.cif
#   From: 2010.05.17/outbox.cif.g08.bks.cpg/sg15_88_cif.got.tgz:174292.got - 2010.06.03 18:47:42.
