data_PCOD9301077
_publ_section_title
;
Structure prediction by ZEFSAII (Michael W. Deem and Ramdas Pophale) SiO2 
 PCOD9301077
Probable space group: C 2/C
;
_chemical_formula_sum "Si O2"
_cell_formula_units_Z 48
_cell_length_a 25.127881
_cell_length_b 7.487138
_cell_length_c 22.421471
_cell_angle_alpha 90.000000
_cell_angle_beta 153.821700
_cell_angle_gamma 90.000000
_cell_volume 1860.963426
_symmetry_space_group_name_H-M "C 2/C"
_symmetry_group_IT_number 15
_symmetry_cell_setting 'monoclinic'
loop_
_space_group_symop_operation_xyz
x,y,z
-x,y,1/2-z
-x,-y,-z
x,-y,1/2+z
1/2+x,1/2+y,z
1/2-x,1/2+y,1/2-z
1/2-x,1/2-y,-z
1/2+x,1/2-y,1/2+z
loop_
_atom_site_type_symbol
_atom_site_label
_atom_site_fract_x
_atom_site_fract_y
_atom_site_fract_z
Si Si1 0.619230 0.925204 0.686960
Si Si2 0.068925 0.630119 0.944808
Si Si3 0.371704 0.914428 0.124518
Si Si4 0.558357 0.282883 0.580004
Si Si5 0.800939 0.073567 0.718474
Si Si6 0.879896 0.019841 0.166597
O O1 0.522410 0.802610 0.553386
O O2 0.723948 0.784194 0.799439
O O3 0.545616 0.993381 0.670578
O O4 0.646458 0.113260 0.683106
O O5 0.176948 0.528553 0.085620
O O6 0.121280 0.678835 0.934257
O O7 0.027820 0.783129 0.947974
O O8 0.500000 0.016244 0.250000
O O9 0.377774 0.738019 0.171523
O O10 0.245568 0.017493 0.995860
O O11 0.627264 0.468065 0.657048
O O12 0.868757 0.058592 0.722043
O O13 0.000000 0.973656 0.250000
#
# Coordination Sequence:
#
# PCOD9301077 Si02
#       6
#     8   8   8   8   8   8
#     4   9  21  39  52  87 123 143 196 243 281 360
#     4   9  20  37  56  88 113 150 200 238 289 361
#     4   9  16  31  56  81 111 148 190 245 290 344
#     4   9  19  39  56  85 118 151 192 238 290 354
#     4  11  20  37  62  81 117 157 190 244 297 348
#     4   9  18  31  54  86 109 145 201 236 289 361
#
# _framework density 25.793091
#
# number of rings (size 3 to 8) (size 9 to 14) (size 15 to 20)
#    1.000    1.667    0.000    2.500    0.000    1.333 
#    3.000    2.500    0.000    4.000    0.000    0.000 
#    0.000    0.000    0.000    0.000    0.000    0.000 
#
# Total GULP energy -133664.536319 kJ/mol
# GULP energy per Si atom -5569.355680 kJ/mol
# Density = 2.573439 g / cm^3
# Si number density = 25.793091 Si / 1000 Ang^3
#
#
#
# Elastic Constant Matrix: (Units=GPa)
#
#
# Indices 1 2 3 4 5 6 
#
# 1 96.1227 8.3609 -6.6218 0.0000 11.4298 0.0000
# 2 8.3609 116.9019 -8.1521 0.0000 1.6174 0.0000
# 3 -6.6218 -8.1521 62.2666 0.0000 37.7039 0.0000
# 4 0.0000 0.0000 0.0000 4.0828 0.0000 14.5886
# 5 11.4298 1.6174 37.7039 0.0000 42.2358 0.0000
# 6 0.0000 0.0000 0.0000 14.5886 0.0000 17.5578
#
#
#
# Elastic Compliance Matrix: (Units=1/GPa)
#
#
# Indices 1 2 3 4 5 6 
#
# 1 0.012035 -0.000241 0.006997 0.000000 -0.009494 0.000000
# 2 -0.000241 0.008806 0.002812 0.000000 -0.002782 0.000000
# 3 0.006997 0.002812 0.040013 0.000000 -0.037721 0.000000
# 4 0.000000 0.000000 0.000000 -0.124398 0.000000 0.103361
# 5 -0.009494 -0.002782 -0.037721 0.000000 0.060026 0.000000
# 6 0.000000 0.000000 0.000000 0.103361 0.000000 -0.028927
#
#
# Mechanical properties :
#
#
# Convention : Reuss Voigt Hill
#
# Bulk Modulus (GPa) = 12.50166 29.16280 20.83223
# Shear Modulus (GPa) = -200.67430 31.55555 -84.55938
#
# Velocity S-wave (km/s) = -8.83009 3.50152 -5.73192
# Velocity P-wave (km/s) = 9.95506 5.26104 5.97598
#
# Compressibility (1/GPa) = 0.07998941
#
# Stress axis : x y z
#
# Youngs Moduli (GPa) = 83.08861 113.55874 24.99184
#
# Poissons Ratio (x) = 0.02742 -0.17487
# Poissons Ratio (y) = 0.02006 -0.07027
# Poissons Ratio (z) = -0.58139 -0.31930
#
# Static dielectric constant tensor:
#      x y z
#    x 2.065330 0.000000 -0.030620 
#    y 0.000000 2.003730 0.000000 
#    z -0.030620 0.000000 2.230110 
# 
# From -- ./inp_files/283252.got.cif
#   From: 2010.05.17/outbox.cif.g08.bks.cpg/sg15_142_cif.got.tgz:283252.got - 2010.06.03 18:47:42.
