data_PCOD9301317
_publ_section_title
;
Structure prediction by ZEFSAII (Michael W. Deem and Ramdas Pophale) SiO2 
 PCOD9301317
Probable space group: C 2/C
;
_chemical_formula_sum "Si O2"
_cell_formula_units_Z 40
_cell_length_a 16.827290
_cell_length_b 12.356913
_cell_length_c 10.319554
_cell_angle_alpha 90.000000
_cell_angle_beta 120.284205
_cell_angle_gamma 90.000000
_cell_volume 1852.954868
_symmetry_space_group_name_H-M "C 2/C"
_symmetry_group_IT_number 15
_symmetry_cell_setting 'monoclinic'
loop_
_space_group_symop_operation_xyz
x,y,z
-x,y,1/2-z
-x,-y,-z
x,-y,1/2+z
1/2+x,1/2+y,z
1/2-x,1/2+y,1/2-z
1/2-x,1/2-y,-z
1/2+x,1/2-y,1/2+z
loop_
_atom_site_type_symbol
_atom_site_label
_atom_site_fract_x
_atom_site_fract_y
_atom_site_fract_z
Si Si1 0.023159 0.136400 0.418144
Si Si2 0.164295 0.038756 0.989922
Si Si3 0.647570 0.247720 0.580951
Si Si4 0.305340 0.782756 0.916678
Si Si5 0.783141 0.489807 0.344659
O O1 0.112933 0.200970 0.534260
O O2 0.000000 0.158673 0.250000
O O3 0.940745 0.195204 0.426271
O O4 0.065759 0.013633 0.448335
O O5 0.161491 0.169303 0.973990
O O6 0.238399 0.001932 0.163181
O O7 0.198201 0.000957 0.877034
O O8 0.732258 0.272321 0.743884
O O9 0.657263 0.118404 0.578792
O O10 0.341090 0.905006 0.933680
O O11 0.250000 0.750000 0.000000
#
# Coordination Sequence:
#
# PCOD9301317 Si02
#       5
#     8   8   8   8   8
#     4  12  22  39  69  97 128 177 228 263 320 406
#     4  11  23  41  67  97 134 171 221 266 335 391
#     4  11  23  38  64  99 132 168 215 283 330 379
#     4  11  20  41  64  93 130 177 222 262 324 404
#     4  11  22  42  71  92 134 177 213 270 334 391
#
# _framework density 21.587140999999999
#
# number of rings (size 3 to 8) (size 9 to 14) (size 15 to 20)
#    0.000    0.800    6.000    2.400    0.000    0.800 
#    0.000    0.000    0.000    0.000    0.000    0.000 
#    0.000    0.000    0.000    0.000    0.000    0.000 
#
# Total GULP energy -111380.229978 kJ/mol
# GULP energy per Si atom -5569.011499 kJ/mol
# Density = 2.153801 g / cm^3
# Si number density = 21.587141 Si / 1000 Ang^3
#
#
#
# Elastic Constant Matrix: (Units=GPa)
#
#
# Indices 1 2 3 4 5 6 
#
# 1 51.1281 9.7267 18.0740 0.0000 12.7364 0.0000
# 2 9.7267 188.7046 2.2653 0.0000 9.7429 0.0000
# 3 18.0740 2.2653 34.9921 0.0000 1.6075 0.0000
# 4 0.0000 0.0000 0.0000 -35.6873 0.0000 -51.0249
# 5 12.7364 9.7429 1.6075 0.0000 34.4146 0.0000
# 6 0.0000 0.0000 0.0000 -51.0249 0.0000 -19.4216
#
#
#
# Elastic Compliance Matrix: (Units=1/GPa)
#
#
# Indices 1 2 3 4 5 6 
#
# 1 0.026654 -0.000748 -0.013304 0.000000 -0.009031 0.000000
# 2 -0.000748 0.005402 0.000094 0.000000 -0.001257 0.000000
# 3 -0.013304 0.000094 0.035294 0.000000 0.003248 0.000000
# 4 0.000000 0.000000 0.000000 0.010166 0.000000 -0.026709
# 5 -0.009031 -0.001257 0.003248 0.000000 0.032604 0.000000
# 6 0.000000 0.000000 0.000000 -0.026709 0.000000 0.018680
#
#
# Mechanical properties :
#
#
# Convention : Reuss Voigt Hill
#
# Bulk Modulus (GPa) = 25.35831 37.21743 31.28787
# Shear Modulus (GPa) = 29.43617 12.17838 20.80728
#
# Velocity S-wave (km/s) = 3.69670 2.37776 3.10800
# Velocity P-wave (km/s) = 5.47661 4.98160 5.23496
#
# Compressibility (1/GPa) = 0.03943480
#
# Stress axis : x y z
#
# Youngs Moduli (GPa) = 37.51834 185.13046 28.33328
#
# Poissons Ratio (x) = 0.13845 0.37694
# Poissons Ratio (y) = 0.02806 -0.00267
# Poissons Ratio (z) = 0.49914 -0.01747
#
# Static dielectric constant tensor:
#      x y z
#    x 1.817310 0.000000 -0.018570 
#    y 0.000000 1.979070 0.000000 
#    z -0.018570 0.000000 1.694210 
# 
# From -- ./inp_files/103558.got.cif
#   From: 2010.05.17/outbox.cif.g08.bks.cpg/sg15_52_cif.got.tgz:103558.got - 2010.06.03 18:47:42.
