data_PCOD9301135
_publ_section_title
;
Structure prediction by ZEFSAII (Michael W. Deem and Ramdas Pophale) SiO2 
 PCOD9301135
Probable space group: C 2/C
;
_chemical_formula_sum "Si O2"
_cell_formula_units_Z 60
_cell_length_a 13.597956
_cell_length_b 19.795258
_cell_length_c 15.331826
_cell_angle_alpha 90.000000
_cell_angle_beta 54.369338
_cell_angle_gamma 90.000000
_cell_volume 3354.335985
_symmetry_space_group_name_H-M "C 2/C"
_symmetry_group_IT_number 15
_symmetry_cell_setting 'monoclinic'
loop_
_space_group_symop_operation_xyz
x,y,z
-x,y,1/2-z
-x,-y,-z
x,-y,1/2+z
1/2+x,1/2+y,z
1/2-x,1/2+y,1/2-z
1/2-x,1/2-y,-z
1/2+x,1/2-y,1/2+z
loop_
_atom_site_type_symbol
_atom_site_label
_atom_site_fract_x
_atom_site_fract_y
_atom_site_fract_z
Si Si1 0.309651 0.308070 0.028620
Si Si2 0.934148 0.775847 0.583487
Si Si3 0.000000 0.789544 0.250000
Si Si4 0.825203 0.273597 0.695782
Si Si5 0.524668 0.872467 0.981974
Si Si6 0.683925 0.677599 0.521345
Si Si7 0.105239 0.420317 0.126076
Si Si8 0.099329 0.423280 0.624674
O O1 0.318240 0.282451 0.123772
O O2 0.223639 0.373038 0.070311
O O3 0.250000 0.250000 0.000000
O O4 0.450772 0.308311 0.927773
O O5 0.806754 0.778982 0.696462
O O6 0.912769 0.815011 0.504986
O O7 0.959094 0.697326 0.545992
O O8 0.927512 0.744971 0.215117
O O9 0.894883 0.832790 0.350998
O O10 0.859954 0.342578 0.628796
O O11 0.454702 0.914151 0.944714
O O12 0.554285 0.911342 0.054643
O O13 0.750000 0.750000 0.500000
O O14 0.784446 0.624906 0.439256
O O15 0.132461 0.499136 0.126237
O O16 0.000000 0.400005 0.250000
O O17 0.000000 0.404042 0.750000
#
# Coordination Sequence:
#
# PCOD9301135 Si02
#       8
#     8   8   4   8   8   8   8   8
#     4  11  22  39  57  88 123 159 213 247 303 370
#     4  11  21  34  60  95 120 159 194 269 311 360
#     4  12  20  36  60 100 126 162 204 258 332 364
#     4  11  21  33  63  95 127 154 201 263 317 363
#     4  11  20  38  60  94 123 153 211 261 306 370
#     4  12  21  35  62  94 128 152 201 262 315 378
#     4  11  24  43  63  87 126 169 213 256 309 375
#     4  11  24  40  66  94 125 165 207 263 322 378
#
# _framework density 17.887295000000002
#
# number of rings (size 3 to 8) (size 9 to 14) (size 15 to 20)
#    0.000    0.800    8.000    2.000    1.867    0.000 
#    0.000    0.667    2.933    0.000    0.000    0.000 
#    0.000    0.000    0.000    0.000    0.000    0.000 
#
# Total GULP energy -167305.925046 kJ/mol
# GULP energy per Si atom -5576.864168 kJ/mol
# Density = 1.784658 g / cm^3
# Si number density = 17.887295 Si / 1000 Ang^3
#
#
#
# Elastic Constant Matrix: (Units=GPa)
#
#
# Indices 1 2 3 4 5 6 
#
# 1 120.6018 37.0492 39.7797 0.0000 -6.8310 0.0000
# 2 37.0492 91.7764 35.4838 0.0000 -15.4143 0.0000
# 3 39.7797 35.4838 119.3835 0.0000 -22.1936 0.0000
# 4 0.0000 0.0000 0.0000 21.1782 0.0000 -7.7706
# 5 -6.8310 -15.4143 -22.1936 0.0000 37.0156 0.0000
# 6 0.0000 0.0000 0.0000 -7.7706 0.0000 25.1531
#
#
#
# Elastic Compliance Matrix: (Units=1/GPa)
#
#
# Indices 1 2 3 4 5 6 
#
# 1 0.010084 -0.003245 -0.002589 0.000000 -0.001043 0.000000
# 2 -0.003245 0.013724 -0.002304 0.000000 0.003735 0.000000
# 3 -0.002589 -0.002304 0.010868 0.000000 0.005079 0.000000
# 4 0.000000 0.000000 0.000000 0.053255 0.000000 0.016452
# 5 -0.001043 0.003735 0.005079 0.000000 0.031424 0.000000
# 6 0.000000 0.000000 0.000000 0.016452 0.000000 0.044839
#
#
# Mechanical properties :
#
#
# Convention : Reuss Voigt Hill
#
# Bulk Modulus (GPa) = 54.34718 61.82079 58.08399
# Shear Modulus (GPa) = 26.79499 31.29931 29.04715
#
# Velocity S-wave (km/s) = 3.87459 4.18761 4.03413
# Velocity P-wave (km/s) = 7.10392 7.61694 7.36490
#
# Compressibility (1/GPa) = 0.01840022
#
# Stress axis : x y z
#
# Youngs Moduli (GPa) = 99.17157 72.86601 92.01258
#
# Poissons Ratio (x) = 0.23642 0.23826
# Poissons Ratio (y) = 0.32177 0.21196
# Poissons Ratio (z) = 0.25680 0.16785
#
# Static dielectric constant tensor:
#      x y z
#    x 1.646730 0.000000 0.002620 
#    y 0.000000 1.606760 0.000000 
#    z 0.002620 0.000000 1.677530 
# 
# From -- ./inp_files/147106.got.cif
#   From: 2010.05.17/outbox.cif.g08.bks.cpg/sg15_74_cif.got.tgz:147106.got - 2010.06.03 18:47:42.
