data_PCOD9301188
_publ_section_title
;
Structure prediction by ZEFSAII (Michael W. Deem and Ramdas Pophale) SiO2 
 PCOD9301188
Probable space group: C 2/C
;
_chemical_formula_sum "Si O2"
_cell_formula_units_Z 48
_cell_length_a 14.546361
_cell_length_b 11.907644
_cell_length_c 13.892792
_cell_angle_alpha 90.000000
_cell_angle_beta 109.417867
_cell_angle_gamma 90.000000
_cell_volume 2269.531662
_symmetry_space_group_name_H-M "C 2/C"
_symmetry_group_IT_number 15
_symmetry_cell_setting 'monoclinic'
loop_
_space_group_symop_operation_xyz
x,y,z
-x,y,1/2-z
-x,-y,-z
x,-y,1/2+z
1/2+x,1/2+y,z
1/2-x,1/2+y,1/2-z
1/2-x,1/2-y,-z
1/2+x,1/2-y,1/2+z
loop_
_atom_site_type_symbol
_atom_site_label
_atom_site_fract_x
_atom_site_fract_y
_atom_site_fract_z
Si Si1 0.505594 0.717068 0.576814
Si Si2 0.704952 0.967813 0.800060
Si Si3 0.799289 0.856365 0.463691
Si Si4 0.788969 0.008752 0.645800
Si Si5 0.500000 0.547445 0.750000
Si Si6 0.300393 0.247731 0.915442
Si Si7 0.000000 0.386641 0.750000
O O1 0.595829 0.681085 0.541437
O O2 0.481068 0.616280 0.643992
O O3 0.415523 0.753372 0.477495
O O4 0.522979 0.812704 0.663399
O O5 0.770301 0.863328 0.856136
O O6 0.596952 0.955549 0.803206
O O7 0.745775 0.085361 0.854454
O O8 0.708711 0.953944 0.686421
O O9 0.750000 0.750000 0.500000
O O10 0.795440 0.955466 0.542717
O O11 0.896243 0.988572 0.728308
O O12 0.754197 0.137874 0.643868
O O13 0.250000 0.250000 0.000000
#
# Coordination Sequence:
#
# PCOD9301188 Si02
#       7
#     8   8   8   8   4   8   4
#     4  11  22  41  72  99 135 177 229 284 335 411
#     4  12  26  44  71 100 141 178 231 286 338 413
#     4  12  27  45  65 102 144 178 225 292 344 396
#     4  12  26  42  71 102 138 179 226 288 345 404
#     4  11  20  38  69 102 126 172 231 275 350 396
#     4  12  22  45  69 101 130 178 232 279 343 410
#     4  11  22  44  73  98 134 194 231 265 346 422
#
# _framework density 21.149739
#
# number of rings (size 3 to 8) (size 9 to 14) (size 15 to 20)
#    0.000    0.333    6.667    2.000    4.667    2.667 
#    0.000    4.167    0.000    0.000    0.000    0.000 
#    0.000    0.000    0.000    0.000    0.000    0.000 
#
# Total GULP energy -133770.956837 kJ/mol
# GULP energy per Si atom -5573.789868 kJ/mol
# Density = 2.110160 g / cm^3
# Si number density = 21.149739 Si / 1000 Ang^3
#
#
#
# Elastic Constant Matrix: (Units=GPa)
#
#
# Indices 1 2 3 4 5 6 
#
# 1 145.0781 53.3076 33.7155 0.0000 -9.5668 0.0000
# 2 53.3076 69.7937 20.4787 0.0000 0.4304 0.0000
# 3 33.7155 20.4787 68.5420 0.0000 -10.8147 0.0000
# 4 0.0000 0.0000 0.0000 14.3543 0.0000 -5.2757
# 5 -9.5668 0.4304 -10.8147 0.0000 44.6542 0.0000
# 6 0.0000 0.0000 0.0000 -5.2757 0.0000 36.9214
#
#
#
# Elastic Compliance Matrix: (Units=1/GPa)
#
#
# Indices 1 2 3 4 5 6 
#
# 1 0.010196 -0.007015 -0.002666 0.000000 0.001606 0.000000
# 2 -0.007015 0.020609 -0.003093 0.000000 -0.002451 0.000000
# 3 -0.002666 -0.003093 0.017405 0.000000 0.003674 0.000000
# 4 0.000000 0.000000 0.000000 0.073527 0.000000 0.010506
# 5 0.001606 -0.002451 0.003674 0.000000 0.023652 0.000000
# 6 0.000000 0.000000 0.000000 0.010506 0.000000 0.028586
#
#
# Mechanical properties :
#
#
# Convention : Reuss Voigt Hill
#
# Bulk Modulus (GPa) = 44.12932 55.37970 49.75451
# Shear Modulus (GPa) = 24.14558 30.91343 27.52950
#
# Velocity S-wave (km/s) = 3.38250 3.82730 3.61175
# Velocity P-wave (km/s) = 6.01378 6.76553 6.40070
#
# Compressibility (1/GPa) = 0.02266067
#
# Stress axis : x y z
#
# Youngs Moduli (GPa) = 98.07754 48.52275 57.45521
#
# Poissons Ratio (x) = 0.34040 0.15317
# Poissons Ratio (y) = 0.68804 0.17773
# Poissons Ratio (z) = 0.26147 0.15010
#
# Static dielectric constant tensor:
#      x y z
#    x 1.836410 0.000000 0.029050 
#    y 0.000000 1.823850 0.000000 
#    z 0.029050 0.000000 1.790460 
# 
# From -- ./inp_files/152233.got.cif
#   From: 2010.05.17/outbox.cif.g08.bks.cpg/sg15_77_cif.got.tgz:152233.got - 2010.06.03 18:47:42.
