data_PCOD9301752
_publ_section_title
;
Structure prediction by ZEFSAII (Michael W. Deem and Ramdas Pophale) SiO2 
 PCOD9301752
Probable space group: C 2/C
;
_chemical_formula_sum "Si O2"
_cell_formula_units_Z 48
_cell_length_a 21.706836
_cell_length_b 6.540044
_cell_length_c 23.114254
_cell_angle_alpha 90.000000
_cell_angle_beta 134.951159
_cell_angle_gamma 90.000000
_cell_volume 2322.266043
_symmetry_space_group_name_H-M "C 2/C"
_symmetry_group_IT_number 15
_symmetry_cell_setting 'monoclinic'
loop_
_space_group_symop_operation_xyz
x,y,z
-x,y,1/2-z
-x,-y,-z
x,-y,1/2+z
1/2+x,1/2+y,z
1/2-x,1/2+y,1/2-z
1/2-x,1/2-y,-z
1/2+x,1/2-y,1/2+z
loop_
_atom_site_type_symbol
_atom_site_label
_atom_site_fract_x
_atom_site_fract_y
_atom_site_fract_z
Si Si1 0.982197 0.871988 0.306029
Si Si2 0.304339 0.082887 0.867577
Si Si3 0.799699 0.561216 0.561008
Si Si4 0.844700 0.215976 0.199011
Si Si5 0.338698 0.898822 0.772742
Si Si6 0.359239 0.726705 0.514052
O O1 0.921878 0.703773 0.297403
O O2 0.000000 0.820919 0.250000
O O3 0.066671 0.894979 0.402392
O O4 0.927054 0.079543 0.268697
O O5 0.242334 0.250420 0.795369
O O6 0.237275 0.939359 0.859280
O O7 0.347146 0.943849 0.846439
O O8 0.368433 0.197437 0.954394
O O9 0.750000 0.750000 0.500000
O O10 0.858353 0.659024 0.649430
O O11 0.729235 0.406285 0.542374
O O12 0.848741 0.428493 0.546284
O O13 0.824352 0.382870 0.233619
#
# Coordination Sequence:
#
# PCOD9301752 Si02
#       6
#     8   8   8   8   8   8
#     4  11  26  43  63  99 142 171 215 279 347 395
#     4  11  22  41  69  98 127 175 234 272 321 399
#     4  11  21  38  69  97 128 178 226 271 335 398
#     4  11  22  41  66  94 129 182 222 267 336 397
#     4  11  23  42  69  94 132 181 223 276 329 403
#     4  11  24  40  65 103 139 167 226 288 322 402
#
# _framework density 20.669467000000001
#
# number of rings (size 3 to 8) (size 9 to 14) (size 15 to 20)
#    0.000    1.000    5.000    2.000    4.667    4.000 
#    0.000    0.833    0.000    0.000    0.000    0.000 
#    0.000    0.000    0.000    0.000    0.000    0.000 
#
# Total GULP energy -134090.434944 kJ/mol
# GULP energy per Si atom -5587.101456 kJ/mol
# Density = 2.062242 g / cm^3
# Si number density = 20.669467 Si / 1000 Ang^3
#
#
#
# Elastic Constant Matrix: (Units=GPa)
#
#
# Indices 1 2 3 4 5 6 
#
# 1 60.5461 22.1257 23.8215 0.0000 -18.6320 0.0000
# 2 22.1257 85.2907 22.5437 0.0001 -11.1466 0.0003
# 3 23.8215 22.5437 95.9097 0.0000 -16.5747 -0.0001
# 4 0.0000 0.0001 0.0000 37.7794 0.0000 -9.5321
# 5 -18.6320 -11.1466 -16.5747 0.0000 30.9614 0.0000
# 6 0.0000 0.0003 -0.0001 -9.5321 0.0000 11.9524
#
#
#
# Elastic Compliance Matrix: (Units=1/GPa)
#
#
# Indices 1 2 3 4 5 6 
#
# 1 0.022203 -0.003632 -0.002841 0.000000 0.010533 0.000000
# 2 -0.003632 0.013395 -0.001973 0.000000 0.001580 0.000000
# 3 -0.002841 -0.001973 0.012317 0.000000 0.004174 0.000000
# 4 0.000000 0.000000 0.000000 0.033137 0.000000 0.026427
# 5 0.010533 0.001580 0.004174 0.000000 0.041440 0.000000
# 6 0.000000 0.000000 0.000000 0.026427 0.000000 0.104741
#
#
# Mechanical properties :
#
#
# Convention : Reuss Voigt Hill
#
# Bulk Modulus (GPa) = 32.23477 42.08095 37.15786
# Shear Modulus (GPa) = 19.64897 27.68899 23.66898
#
# Velocity S-wave (km/s) = 3.08657 3.66404 3.38763
# Velocity P-wave (km/s) = 5.32276 6.18897 5.77214
#
# Compressibility (1/GPa) = 0.03102241
#
# Stress axis : x y z
#
# Youngs Moduli (GPa) = 45.03969 74.65486 81.18766
#
# Poissons Ratio (x) = 0.27117 0.23062
# Poissons Ratio (y) = 0.16360 0.16020
# Poissons Ratio (z) = 0.12794 0.14731
#
# Static dielectric constant tensor:
#      x y z
#    x 1.766980 0.000000 -0.016320 
#    y 0.000000 1.720050 0.000000 
#    z -0.016320 0.000000 1.766140 
# 
# From -- ./inp_files/254478.got.cif
#   From: 2010.05.17/outbox.cif.g08.bks.cpg/sg15_128_cif.got.tgz:254478.got - 2010.06.03 18:47:42.
