data_PCOD9301716
_publ_section_title
;
Structure prediction by ZEFSAII (Michael W. Deem and Ramdas Pophale) SiO2 
 PCOD9301716
Probable space group: C 2/C
;
_chemical_formula_sum "Si O2"
_cell_formula_units_Z 44
_cell_length_a 20.427649
_cell_length_b 17.620720
_cell_length_c 9.669514
_cell_angle_alpha 90.000000
_cell_angle_beta 141.699943
_cell_angle_gamma 90.000000
_cell_volume 2157.168699
_symmetry_space_group_name_H-M "C 2/C"
_symmetry_group_IT_number 15
_symmetry_cell_setting 'monoclinic'
loop_
_space_group_symop_operation_xyz
x,y,z
-x,y,1/2-z
-x,-y,-z
x,-y,1/2+z
1/2+x,1/2+y,z
1/2-x,1/2+y,1/2-z
1/2-x,1/2-y,-z
1/2+x,1/2-y,1/2+z
loop_
_atom_site_type_symbol
_atom_site_label
_atom_site_fract_x
_atom_site_fract_y
_atom_site_fract_z
Si Si1 0.877814 0.340849 0.032318
Si Si2 0.500000 0.814231 0.750000
Si Si3 0.751704 0.958786 0.538597
Si Si4 0.203806 0.783866 0.565592
Si Si5 0.920525 0.433622 0.832353
Si Si6 0.874489 0.046502 0.524107
O O1 0.822554 0.384229 0.068859
O O2 0.795926 0.280898 0.833744
O O3 0.880968 0.403100 0.913777
O O4 0.000000 0.316914 0.250000
O O5 0.397686 0.763163 0.557074
O O6 0.475426 0.866913 0.839973
O O7 0.670923 0.029665 0.412680
O O8 0.815810 0.978005 0.506544
O O9 0.835189 0.955563 0.801123
O O10 0.250000 0.750000 0.500000
O O11 0.164142 0.871069 0.482956
O O12 0.000000 0.500000 0.000000
O O13 0.000000 0.040945 0.750000
#
# Coordination Sequence:
#
# PCOD9301716 Si02
#       6
#     8   4   8   8   8   8
#     4  11  22  38  65  97 138 168 220 283 329 390
#     4  12  24  40  70  92 130 172 224 266 330 406
#     4  11  21  38  64  99 133 171 222 285 335 375
#     4  11  22  42  64  93 129 186 221 258 331 414
#     4  12  22  37  66  99 125 162 216 283 339 377
#     4  11  23  40  65  95 138 177 227 271 330 401
#
# _framework density 20.397106000000001
#
# number of rings (size 3 to 8) (size 9 to 14) (size 15 to 20)
#    0.000    0.727    8.182    1.636    0.000    0.000 
#    0.000    0.909    4.000    2.182    0.000    0.000 
#    0.000    0.000    0.000    0.000    0.000    0.000 
#
# Total GULP energy -122829.579489 kJ/mol
# GULP energy per Si atom -5583.162704 kJ/mol
# Density = 2.035068 g / cm^3
# Si number density = 20.397106 Si / 1000 Ang^3
#
#
#
# Elastic Constant Matrix: (Units=GPa)
#
#
# Indices 1 2 3 4 5 6 
#
# 1 27.3756 7.8050 14.2148 0.0000 21.7579 0.0000
# 2 7.8050 51.9150 35.0742 0.0000 12.3235 0.0000
# 3 14.2148 35.0742 162.8502 0.0000 37.7977 0.0000
# 4 0.0000 0.0000 0.0000 31.0334 0.0000 -1.1446
# 5 21.7579 12.3235 37.7977 0.0000 38.1390 0.0000
# 6 0.0000 0.0000 0.0000 -1.1446 0.0000 19.8206
#
#
#
# Elastic Compliance Matrix: (Units=1/GPa)
#
#
# Indices 1 2 3 4 5 6 
#
# 1 0.069299 -0.003348 0.004672 0.000000 -0.043082 0.000000
# 2 -0.003348 0.023011 -0.004392 0.000000 -0.001173 0.000000
# 3 0.004672 -0.004392 0.009050 0.000000 -0.010215 0.000000
# 4 0.000000 0.000000 0.000000 0.032292 0.000000 0.001865
# 5 -0.043082 -0.001173 -0.010215 0.000000 0.061300 0.000000
# 6 0.000000 0.000000 0.000000 0.001865 0.000000 0.050560
#
#
# Mechanical properties :
#
#
# Convention : Reuss Voigt Hill
#
# Bulk Modulus (GPa) = 10.50153 39.59207 25.04680
# Shear Modulus (GPa) = 17.64356 30.13504 23.88930
#
# Velocity S-wave (km/s) = 2.94428 3.84789 3.42601
# Velocity P-wave (km/s) = 4.08878 6.26055 5.28737
#
# Compressibility (1/GPa) = 0.09522423
#
# Stress axis : x y z
#
# Youngs Moduli (GPa) = 14.43016 43.45741 110.50326
#
# Poissons Ratio (x) = 0.14549 -0.51623
# Poissons Ratio (y) = 0.04831 0.48528
# Poissons Ratio (z) = -0.06741 0.19084
#
# Static dielectric constant tensor:
#      x y z
#    x 1.751040 0.000000 0.013330 
#    y 0.000000 1.721670 0.000000 
#    z 0.013330 0.000000 1.764990 
# 
# From -- ./inp_files/119321.got.cif
#   From: 2010.05.17/outbox.cif.g08.bks.cpg/sg15_60_cif.got.tgz:119321.got - 2010.06.03 18:47:42.
