data_PCOD9301575
_publ_section_title
;
Structure prediction by ZEFSAII (Michael W. Deem and Ramdas Pophale) SiO2 
 PCOD9301575
Probable space group: C 2/C
;
_chemical_formula_sum "Si O2"
_cell_formula_units_Z 60
_cell_length_a 17.488574
_cell_length_b 19.596007
_cell_length_c 9.811352
_cell_angle_alpha 90.000000
_cell_angle_beta 55.190039
_cell_angle_gamma 90.000000
_cell_volume 2760.707755
_symmetry_space_group_name_H-M "C 2/C"
_symmetry_group_IT_number 15
_symmetry_cell_setting 'monoclinic'
loop_
_space_group_symop_operation_xyz
x,y,z
-x,y,1/2-z
-x,-y,-z
x,-y,1/2+z
1/2+x,1/2+y,z
1/2-x,1/2+y,1/2-z
1/2-x,1/2-y,-z
1/2+x,1/2-y,1/2+z
loop_
_atom_site_type_symbol
_atom_site_label
_atom_site_fract_x
_atom_site_fract_y
_atom_site_fract_z
Si Si1 0.389047 0.528730 0.264759
Si Si2 0.433427 0.096599 0.132051
Si Si3 0.000000 0.283586 0.750000
Si Si4 0.314818 0.737056 0.066337
Si Si5 0.253222 0.840052 0.368096
Si Si6 0.081958 0.448893 0.278919
Si Si7 0.757315 0.630675 0.159097
Si Si8 0.924679 0.921519 0.012558
O O1 0.291505 0.558745 0.319029
O O2 0.412810 0.458731 0.167549
O O3 0.394276 0.526705 0.421763
O O4 0.466292 0.584684 0.134361
O O5 0.445713 0.163818 0.207907
O O6 0.363971 0.117223 0.083043
O O7 0.395233 0.029521 0.247393
O O8 0.531393 0.071748 0.971840
O O9 0.077914 0.241659 0.589588
O O10 0.294013 0.791696 0.208883
O O11 0.250000 0.750000 0.000000
O O12 0.287408 0.666073 0.164044
O O13 0.325089 0.903675 0.312768
O O14 0.243550 0.822623 0.538979
O O15 0.148669 0.860911 0.427736
O O16 0.000000 0.437117 0.250000
#
# Coordination Sequence:
#
# PCOD9301575 Si02
#       8
#     8   8   4   8   8   8   8   8
#     4   9  19  37  60  90 124 161 202 255 309 371
#     4  11  22  39  65  97 135 166 206 264 325 397
#     4  12  24  46  64  90 134 168 216 272 318 388
#     4  12  27  44  64  88 123 171 218 264 317 369
#     4  11  23  41  64  94 127 164 217 264 315 384
#     4  11  21  36  64 100 130 168 205 258 337 394
#     4  11  23  42  65  92 126 168 218 262 311 379
#     4   9  19  37  61  89 126 159 201 255 317 369
#
# _framework density 21.733557000000001
#
# number of rings (size 3 to 8) (size 9 to 14) (size 15 to 20)
#    0.000    1.333    4.667    1.200    0.000    2.133 
#    4.800    1.333    2.933    0.000    0.000    0.000 
#    0.000    0.000    0.000    0.000    0.000    0.000 
#
# Total GULP energy -167336.132278 kJ/mol
# GULP energy per Si atom -5577.871076 kJ/mol
# Density = 2.168409 g / cm^3
# Si number density = 21.733557 Si / 1000 Ang^3
#
#
#
# Elastic Constant Matrix: (Units=GPa)
#
#
# Indices 1 2 3 4 5 6 
#
# 1 71.2245 -2.0530 4.7521 0.0000 -2.9682 0.0000
# 2 -2.0530 17.9544 5.2515 0.0000 -5.1740 0.0000
# 3 4.7521 5.2515 86.8931 0.0000 -1.3034 0.0000
# 4 0.0000 0.0000 0.0000 22.8753 0.0000 3.0155
# 5 -2.9682 -5.1740 -1.3034 0.0000 30.8095 0.0000
# 6 0.0000 0.0000 0.0000 3.0155 0.0000 9.7788
#
#
#
# Elastic Compliance Matrix: (Units=1/GPa)
#
#
# Indices 1 2 3 4 5 6 
#
# 1 0.014241 0.002391 -0.000897 0.000000 0.001736 0.000000
# 2 0.002391 0.059947 -0.003602 0.000000 0.010145 0.000000
# 3 -0.000897 -0.003602 0.011772 0.000000 -0.000193 0.000000
# 4 0.000000 0.000000 0.000000 0.045568 0.000000 -0.014052
# 5 0.001736 0.010145 -0.000193 0.000000 0.034320 0.000000
# 6 0.000000 0.000000 0.000000 -0.014052 0.000000 0.106595
#
#
# Mechanical properties :
#
#
# Convention : Reuss Voigt Hill
#
# Bulk Modulus (GPa) = 12.23321 21.33038 16.78180
# Shear Modulus (GPa) = 16.45238 23.90082 20.17660
#
# Velocity S-wave (km/s) = 2.75435 3.31980 3.05021
# Velocity P-wave (km/s) = 3.96941 4.95283 4.48814
#
# Compressibility (1/GPa) = 0.08174468
#
# Stress axis : x y z
#
# Youngs Moduli (GPa) = 70.21866 16.68139 84.94564
#
# Poissons Ratio (x) = -0.03989 0.07622
# Poissons Ratio (y) = -0.16789 0.30594
# Poissons Ratio (z) = 0.06301 0.06008
#
# Static dielectric constant tensor:
#      x y z
#    x 1.907600 0.000000 0.099740 
#    y 0.000000 1.784700 0.000000 
#    z 0.099740 0.000000 1.905650 
# 
# From -- ./inp_files/51524.got.cif
#   From: 2010.05.17/outbox.cif.g08.bks.cpg/sg15_26_cif.got.tgz:51524.got - 2010.06.03 18:47:42.
