data_PCOD9301782
_publ_section_title
;
Structure prediction by ZEFSAII (Michael W. Deem and Ramdas Pophale) SiO2 
 PCOD9301782
Probable space group: C 2/C
;
_chemical_formula_sum "Si O2"
_cell_formula_units_Z 48
_cell_length_a 6.297075
_cell_length_b 22.671027
_cell_length_c 18.235600
_cell_angle_alpha 90.000000
_cell_angle_beta 101.861947
_cell_angle_gamma 90.000000
_cell_volume 2547.743008
_symmetry_space_group_name_H-M "C 2/C"
_symmetry_group_IT_number 15
_symmetry_cell_setting 'monoclinic'
loop_
_space_group_symop_operation_xyz
x,y,z
-x,y,1/2-z
-x,-y,-z
x,-y,1/2+z
1/2+x,1/2+y,z
1/2-x,1/2+y,1/2-z
1/2-x,1/2-y,-z
1/2+x,1/2-y,1/2+z
loop_
_atom_site_type_symbol
_atom_site_label
_atom_site_fract_x
_atom_site_fract_y
_atom_site_fract_z
Si Si1 0.012307 0.257386 0.946227
Si Si2 0.381319 0.583389 0.442406
Si Si3 0.100341 0.551274 0.558498
Si Si4 0.364081 0.467510 0.666278
Si Si5 0.969079 0.638137 0.333966
Si Si6 0.743590 0.155217 0.967534
O O1 0.981092 0.297948 0.872558
O O2 0.888712 0.195427 0.923734
O O3 0.897655 0.297289 0.999649
O O4 0.250000 0.250000 0.000000
O O5 0.292737 0.573494 0.518481
O O6 0.485294 0.534374 0.396298
O O7 0.575111 0.629264 0.465606
O O8 0.174951 0.606051 0.384162
O O9 0.193494 0.519411 0.636917
O O10 0.000000 0.500000 0.500000
O O11 0.919809 0.601302 0.562660
O O12 0.500000 0.476302 0.750000
O O13 0.234804 0.405227 0.664869
O O14 0.000000 0.642877 0.250000
#
# Coordination Sequence:
#
# PCOD9301782 Si02
#       6
#     8   8   8   8   8   8
#     4  11  21  39  63  95 122 164 215 265 321 384
#     4  12  20  39  63  95 127 162 211 272 314 392
#     4  12  22  37  63  99 126 168 220 259 324 392
#     4  12  25  39  61  98 132 172 213 271 337 384
#     4  12  23  39  64  99 127 158 218 276 334 382
#     4  11  22  36  65  93 125 161 216 262 318 376
#
# _framework density 18.840205000000001
#
# number of rings (size 3 to 8) (size 9 to 14) (size 15 to 20)
#    0.000    0.333   10.000    0.500    0.000    0.000 
#    0.000    0.000    0.000    6.000    0.000    0.000 
#    0.000    0.000    0.000    0.000    0.000    0.000 
#
# Total GULP energy -133656.981961 kJ/mol
# GULP energy per Si atom -5569.040915 kJ/mol
# Density = 1.879732 g / cm^3
# Si number density = 18.840205 Si / 1000 Ang^3
#
#
#
# Elastic Constant Matrix: (Units=GPa)
#
#
# Indices 1 2 3 4 5 6 
#
# 1 89.7549 50.1289 42.9221 0.0000 11.6362 0.0000
# 2 50.1289 116.2821 53.1205 0.0000 12.3700 0.0000
# 3 42.9221 53.1205 108.8767 0.0000 16.9672 0.0000
# 4 0.0000 0.0000 0.0000 25.6035 0.0000 1.1416
# 5 11.6362 12.3700 16.9672 0.0000 29.4618 0.0000
# 6 0.0000 0.0000 0.0000 1.1416 0.0000 52.3435
#
#
#
# Elastic Compliance Matrix: (Units=1/GPa)
#
#
# Indices 1 2 3 4 5 6 
#
# 1 0.015895 -0.005036 -0.003472 0.000000 -0.002164 0.000000
# 2 -0.005036 0.012739 -0.004072 0.000000 -0.001015 0.000000
# 3 -0.003472 -0.004072 0.013249 0.000000 -0.004549 0.000000
# 4 0.000000 0.000000 0.000000 0.039095 0.000000 -0.000853
# 5 -0.002164 -0.001015 -0.004549 0.000000 0.037843 0.000000
# 6 0.000000 0.000000 0.000000 -0.000853 0.000000 0.019123
#
#
# Mechanical properties :
#
#
# Convention : Reuss Voigt Hill
#
# Bulk Modulus (GPa) = 59.79677 67.47297 63.63487
# Shear Modulus (GPa) = 29.64229 32.73123 31.18676
#
# Velocity S-wave (km/s) = 3.97085 4.17262 4.07299
# Velocity P-wave (km/s) = 7.26852 7.68801 7.48120
#
# Compressibility (1/GPa) = 0.01672331
#
# Stress axis : x y z
#
# Youngs Moduli (GPa) = 62.91287 78.50032 75.47755
#
# Poissons Ratio (x) = 0.39533 0.26205
# Poissons Ratio (y) = 0.31683 0.30733
# Poissons Ratio (z) = 0.21843 0.31963
#
# Static dielectric constant tensor:
#      x y z
#    x 1.738050 0.000000 -0.034970 
#    y 0.000000 1.741630 0.000000 
#    z -0.034970 0.000000 1.626740 
# 
# From -- ./inp_files/185244.got.cif
#   From: 2010.05.17/outbox.cif.g08.bks.cpg/sg15_93_cif.got.tgz:185244.got - 2010.06.03 18:47:42.
