data_PCOD9301313
_publ_section_title
;
Structure prediction by ZEFSAII (Michael W. Deem and Ramdas Pophale) SiO2 
 PCOD9301313
Probable space group: C 2/C
;
_chemical_formula_sum "Si O2"
_cell_formula_units_Z 56
_cell_length_a 15.607085
_cell_length_b 15.689675
_cell_length_c 10.312292
_cell_angle_alpha 90.000000
_cell_angle_beta 121.367377
_cell_angle_gamma 90.000000
_cell_volume 2156.111222
_symmetry_space_group_name_H-M "C 2/C"
_symmetry_group_IT_number 15
_symmetry_cell_setting 'monoclinic'
loop_
_space_group_symop_operation_xyz
x,y,z
-x,y,1/2-z
-x,-y,-z
x,-y,1/2+z
1/2+x,1/2+y,z
1/2-x,1/2+y,1/2-z
1/2-x,1/2-y,-z
1/2+x,1/2-y,1/2+z
loop_
_atom_site_type_symbol
_atom_site_label
_atom_site_fract_x
_atom_site_fract_y
_atom_site_fract_z
Si Si1 0.274397 0.720571 0.311664
Si Si2 0.459171 0.260972 0.081101
Si Si3 0.452625 0.558130 0.853969
Si Si4 0.310671 0.961283 0.079895
Si Si5 0.223099 0.577244 0.669040
Si Si6 0.382502 0.652798 0.141126
Si Si7 0.907916 0.679363 0.487038
O O1 0.344122 0.707575 0.492776
O O2 0.266554 0.822363 0.300024
O O3 0.341791 0.681748 0.248979
O O4 0.167810 0.679905 0.195622
O O5 0.500000 0.231461 0.250000
O O6 0.524267 0.343715 0.095591
O O7 0.482812 0.191976 0.988769
O O8 0.500000 0.547903 0.750000
O O9 0.335750 0.540723 0.759443
O O10 0.500000 0.500000 0.000000
O O11 0.199419 0.915173 0.977275
O O12 0.386103 0.898959 0.062793
O O13 0.315204 0.048517 0.002152
O O14 0.330813 0.964023 0.248576
O O15 0.500000 0.628501 0.250000
O O16 0.380498 0.737604 0.051245
#
# Coordination Sequence:
#
# PCOD9301313 Si02
#       7
#     8   8   8   8   8   8   8
#     4  11  22  41  70  94 133 177 229 283 334 403
#     4  11  25  43  67  99 136 176 231 288 348 411
#     4  11  25  44  62  99 145 179 220 281 349 420
#     4  11  25  40  68 101 141 176 224 284 344 413
#     4  12  24  44  63 103 142 178 225 280 350 414
#     4  11  20  40  77 101 125 174 239 286 325 395
#     4  11  21  44  69 100 127 174 243 280 328 412
#
# _framework density 25.972685999999999
#
# number of rings (size 3 to 8) (size 9 to 14) (size 15 to 20)
#    0.000    0.857    5.714    1.714    4.000    2.286 
#    0.000    0.714    0.000    0.000    0.000    0.000 
#    0.000    0.000    0.000    0.000    0.000    0.000 
#
# Total GULP energy -156851.331485 kJ/mol
# GULP energy per Si atom -5601.833267 kJ/mol
# Density = 2.591357 g / cm^3
# Si number density = 25.972686 Si / 1000 Ang^3
#
#
#
# Elastic Constant Matrix: (Units=GPa)
#
#
# Indices 1 2 3 4 5 6 
#
# 1 94.6701 7.6516 15.8345 0.0000 -12.8569 0.0000
# 2 7.6516 61.9450 -7.9059 0.0000 -19.5481 0.0000
# 3 15.8345 -7.9059 86.9915 0.0000 -11.1413 0.0000
# 4 0.0000 0.0000 0.0000 33.8391 0.0000 -12.2731
# 5 -12.8569 -19.5481 -11.1413 0.0000 43.4595 0.0000
# 6 0.0000 0.0000 0.0000 -12.2731 0.0000 -3.7112
#
#
#
# Elastic Compliance Matrix: (Units=1/GPa)
#
#
# Indices 1 2 3 4 5 6 
#
# 1 0.011272 -0.000836 -0.001808 0.000000 0.002495 0.000000
# 2 -0.000836 0.019605 0.003134 0.000000 0.009375 0.000000
# 3 -0.001808 0.003134 0.012636 0.000000 0.004114 0.000000
# 4 0.000000 0.000000 0.000000 0.013436 0.000000 -0.044434
# 5 0.002495 0.009375 0.004114 0.000000 0.029020 0.000000
# 6 0.000000 0.000000 0.000000 -0.044434 0.000000 -0.122511
#
#
# Mechanical properties :
#
#
# Convention : Reuss Voigt Hill
#
# Bulk Modulus (GPa) = 22.47468 30.52968 26.50218
# Shear Modulus (GPa) = -220.34006 29.91924 -95.21041
#
# Velocity S-wave (km/s) = -9.22060 3.39772 -6.06115
# Velocity P-wave (km/s) = 10.23168 5.21275 6.22554
#
# Compressibility (1/GPa) = 0.04449451
#
# Stress axis : x y z
#
# Youngs Moduli (GPa) = 88.71675 51.00737 79.13704
#
# Poissons Ratio (x) = 0.04263 0.14309
# Poissons Ratio (y) = 0.07414 -0.24805
# Poissons Ratio (z) = 0.16041 -0.15988
#
# Static dielectric constant tensor:
#      x y z
#    x 2.019630 0.000000 0.009660 
#    y 0.000000 2.054440 0.000000 
#    z 0.009660 0.000000 2.072370 
# 
# From -- ./inp_files/105814.got.cif
#   From: 2010.05.17/outbox.cif.g08.bks.cpg/sg15_53_cif.got.tgz:105814.got - 2010.06.03 18:47:42.
