data_PCOD9301495
_publ_section_title
;
Structure prediction by ZEFSAII (Michael W. Deem and Ramdas Pophale) SiO2 
 PCOD9301495
Probable space group: C 2/C
;
_chemical_formula_sum "Si O2"
_cell_formula_units_Z 56
_cell_length_a 14.227155
_cell_length_b 20.103634
_cell_length_c 11.274513
_cell_angle_alpha 90.000000
_cell_angle_beta 63.542077
_cell_angle_gamma 90.000000
_cell_volume 2886.958080
_symmetry_space_group_name_H-M "C 2/C"
_symmetry_group_IT_number 15
_symmetry_cell_setting 'monoclinic'
loop_
_space_group_symop_operation_xyz
x,y,z
-x,y,1/2-z
-x,-y,-z
x,-y,1/2+z
1/2+x,1/2+y,z
1/2-x,1/2+y,1/2-z
1/2-x,1/2-y,-z
1/2+x,1/2-y,1/2+z
loop_
_atom_site_type_symbol
_atom_site_label
_atom_site_fract_x
_atom_site_fract_y
_atom_site_fract_z
Si Si1 0.995669 0.244322 0.107925
Si Si2 0.340207 0.641219 0.481179
Si Si3 0.007731 0.396178 0.058158
Si Si4 0.976859 0.965153 0.638290
Si Si5 0.894525 0.410834 0.742935
Si Si6 0.158777 0.441744 0.185218
Si Si7 0.692172 0.644428 0.267957
O O1 0.992543 0.317235 0.056197
O O2 0.892946 0.198918 0.142366
O O3 0.000000 0.249835 0.250000
O O4 0.102426 0.207506 0.006721
O O5 0.439055 0.594200 0.397621
O O6 0.266102 0.598449 0.607649
O O7 0.286505 0.655850 0.384358
O O8 0.895654 0.425168 0.159457
O O9 0.085160 0.412009 0.123448
O O10 0.061045 0.425888 0.912886
O O11 0.000000 0.003859 0.750000
O O12 0.864299 0.928464 0.694911
O O13 0.000000 0.000000 0.500000
O O14 0.847136 0.478749 0.824549
O O15 0.799423 0.359533 0.780220
O O16 0.000000 0.388624 0.750000
#
# Coordination Sequence:
#
# PCOD9301495 Si02
#       7
#     8   8   8   8   8   8   8
#     4   9  18  36  61  90 114 144 192 249 301 338
#     4   9  18  33  58  87 115 148 186 250 300 343
#     4  11  22  37  55  86 118 149 194 244 283 345
#     4   9  17  32  53  82 115 150 196 243 298 354
#     4  12  24  38  56  80 119 163 195 233 293 351
#     4  11  21  35  56  84 118 146 191 240 287 342
#     4   9  19  35  57  82 116 150 192 242 296 346
#
# _framework density 19.397580000000001
#
# number of rings (size 3 to 8) (size 9 to 14) (size 15 to 20)
#    0.000    2.000    4.286    3.000    0.000    1.714 
#    0.000    2.143    0.000    3.429    0.000    0.000 
#    0.000    0.000    0.000    0.000    0.000    0.000 
#
# Total GULP energy -156007.836785 kJ/mol
# GULP energy per Si atom -5571.708457 kJ/mol
# Density = 1.935343 g / cm^3
# Si number density = 19.397580 Si / 1000 Ang^3
#
#
#
# Elastic Constant Matrix: (Units=GPa)
#
#
# Indices 1 2 3 4 5 6 
#
# 1 106.8604 37.5232 14.9140 0.0000 -9.6325 0.0000
# 2 37.5232 74.5438 13.5142 0.0000 1.0705 0.0000
# 3 14.9140 13.5142 66.4011 0.0000 -7.0797 0.0000
# 4 0.0000 0.0000 0.0000 17.8653 0.0000 4.4947
# 5 -9.6325 1.0705 -7.0797 0.0000 29.6460 0.0000
# 6 0.0000 0.0000 0.0000 4.4947 0.0000 13.4851
#
#
#
# Elastic Compliance Matrix: (Units=1/GPa)
#
#
# Indices 1 2 3 4 5 6 
#
# 1 0.011908 -0.005854 -0.001076 0.000000 0.003824 0.000000
# 2 -0.005854 0.016849 -0.002444 0.000000 -0.003094 0.000000
# 3 -0.001076 -0.002444 0.016183 0.000000 0.003603 0.000000
# 4 0.000000 0.000000 0.000000 0.061098 0.000000 -0.020365
# 5 0.003824 -0.003094 0.003603 0.000000 0.035946 0.000000
# 6 0.000000 0.000000 0.000000 -0.020365 0.000000 0.080944
#
#
# Mechanical properties :
#
#
# Convention : Reuss Voigt Hill
#
# Bulk Modulus (GPa) = 38.17824 42.18979 40.18402
# Shear Modulus (GPa) = 19.96741 24.32288 22.14514
#
# Velocity S-wave (km/s) = 3.21187 3.54491 3.38249
# Velocity P-wave (km/s) = 5.78615 6.20906 6.00133
#
# Compressibility (1/GPa) = 0.02619293
#
# Stress axis : x y z
#
# Youngs Moduli (GPa) = 83.97366 59.34932 61.79236
#
# Poissons Ratio (x) = 0.34745 0.06646
# Poissons Ratio (y) = 0.49161 0.15104
# Poissons Ratio (z) = 0.09031 0.14506
#
# Static dielectric constant tensor:
#      x y z
#    x 1.803770 0.000000 0.035050 
#    y 0.000000 1.687420 0.000000 
#    z 0.035050 0.000000 1.762130 
# 
# From -- ./inp_files/98688.got.cif
#   From: 2010.05.17/outbox.cif.g08.bks.cpg/sg15_50_cif.got.tgz:98688.got - 2010.06.03 18:47:42.
