data_PCOD9301849
_publ_section_title
;
Structure prediction by ZEFSAII (Michael W. Deem and Ramdas Pophale) SiO2 
 PCOD9301849
Probable space group: C 2/C
;
_chemical_formula_sum "Si O2"
_cell_formula_units_Z 56
_cell_length_a 14.421808
_cell_length_b 22.102031
_cell_length_c 9.582773
_cell_angle_alpha 90.000000
_cell_angle_beta 120.834492
_cell_angle_gamma 90.000000
_cell_volume 2622.768884
_symmetry_space_group_name_H-M "C 2/C"
_symmetry_group_IT_number 15
_symmetry_cell_setting 'monoclinic'
loop_
_space_group_symop_operation_xyz
x,y,z
-x,y,1/2-z
-x,-y,-z
x,-y,1/2+z
1/2+x,1/2+y,z
1/2-x,1/2+y,1/2-z
1/2-x,1/2-y,-z
1/2+x,1/2-y,1/2+z
loop_
_atom_site_type_symbol
_atom_site_label
_atom_site_fract_x
_atom_site_fract_y
_atom_site_fract_z
Si Si1 0.500000 0.623822 0.250000
Si Si2 0.375224 0.811008 0.172749
Si Si3 0.638349 0.197169 0.135935
Si Si4 0.877520 0.201978 0.382969
Si Si5 0.500000 0.727574 0.750000
Si Si6 0.723532 0.429104 0.022875
Si Si7 0.678137 0.990624 0.150763
Si Si8 0.006843 0.586484 0.100203
O O1 0.453930 0.665277 0.338258
O O2 0.398116 0.586643 0.113446
O O3 0.500000 0.829430 0.250000
O O4 0.369078 0.769616 0.307311
O O5 0.352687 0.773498 0.010996
O O6 0.293216 0.867582 0.103062
O O7 0.756012 0.177905 0.278051
O O8 0.580782 0.236845 0.208530
O O9 0.566108 0.137824 0.060562
O O10 0.922996 0.197241 0.574315
O O11 0.776827 0.468359 0.939250
O O12 0.733852 0.468046 0.171980
O O13 0.586134 0.028887 0.160863
O O14 0.610080 0.933718 0.040761
O O15 0.000000 0.610859 0.250000
#
# Coordination Sequence:
#
# PCOD9301849 Si02
#       8
#     4   8   8   8   4   8   8   8
#     4  12  26  52  72  99 137 198 246 274 330 438
#     4  12  23  42  74 104 134 186 235 289 349 418
#     4  12  23  42  67 101 138 182 226 284 348 422
#     4  12  26  46  67 100 146 180 240 285 337 418
#     4  12  26  42  64 101 143 186 214 288 352 408
#     4  12  27  44  74 102 138 184 235 288 357 411
#     4  11  24  43  65 104 136 171 226 297 348 407
#     4  11  21  39  68  98 139 166 219 291 361 404
#
# _framework density 21.351482000000001
#
# number of rings (size 3 to 8) (size 9 to 14) (size 15 to 20)
#    0.000    0.286    7.143    1.714    4.000    0.571 
#    2.571    0.000    0.000    0.000    0.000    0.000 
#    0.000    0.000    0.000    0.000    0.000    0.000 
#
# Total GULP energy -156461.036585 kJ/mol
# GULP energy per Si atom -5587.894164 kJ/mol
# Density = 2.130289 g / cm^3
# Si number density = 21.351482 Si / 1000 Ang^3
#
#
#
# Elastic Constant Matrix: (Units=GPa)
#
#
# Indices 1 2 3 4 5 6 
#
# 1 87.9726 26.5409 41.6715 0.0000 17.4123 0.0000
# 2 26.5409 60.9086 44.6490 0.0000 7.7523 0.0000
# 3 41.6715 44.6490 180.7863 0.0000 9.8449 0.0000
# 4 0.0000 0.0000 0.0000 32.0520 0.0000 15.8065
# 5 17.4123 7.7523 9.8449 0.0000 45.2031 0.0000
# 6 0.0000 0.0000 0.0000 15.8065 0.0000 34.3662
#
#
#
# Elastic Compliance Matrix: (Units=1/GPa)
#
#
# Indices 1 2 3 4 5 6 
#
# 1 0.014494 -0.004251 -0.002051 0.000000 -0.004407 0.000000
# 2 -0.004251 0.021552 -0.004282 0.000000 -0.001126 0.000000
# 3 -0.002051 -0.004282 0.007062 0.000000 -0.000014 0.000000
# 4 0.000000 0.000000 0.000000 0.040352 0.000000 -0.018560
# 5 -0.004407 -0.001126 -0.000014 0.000000 0.024016 0.000000
# 6 0.000000 0.000000 0.000000 -0.018560 0.000000 0.037635
#
#
# Mechanical properties :
#
#
# Convention : Reuss Voigt Hill
#
# Bulk Modulus (GPa) = 45.57694 61.71002 53.64348
# Shear Modulus (GPa) = 28.80316 36.77802 32.79059
#
# Velocity S-wave (km/s) = 3.67686 4.15481 3.92312
# Velocity P-wave (km/s) = 6.27838 7.20981 6.76016
#
# Compressibility (1/GPa) = 0.02194092
#
# Stress axis : x y z
#
# Youngs Moduli (GPa) = 68.99633 46.39843 141.59697
#
# Poissons Ratio (x) = 0.19725 0.29039
# Poissons Ratio (y) = 0.29332 0.60626
# Poissons Ratio (z) = 0.14150 0.19866
#
# Static dielectric constant tensor:
#      x y z
#    x 1.776350 0.000000 -0.004640 
#    y 0.000000 1.807970 0.000000 
#    z -0.004640 0.000000 1.806960 
# 
# From -- ./inp_files/42794.got.cif
#   From: 2010.05.17/outbox.cif.g08.bks.cpg/sg15_22_cif.got.tgz:42794.got - 2010.06.03 18:47:42.
