data_PCOD9301949
_publ_section_title
;
Structure prediction by ZEFSAII (Michael W. Deem and Ramdas Pophale) SiO2 
 PCOD9301949
Probable space group: C 2/C
;
_chemical_formula_sum "Si O2"
_cell_formula_units_Z 56
_cell_length_a 20.908163
_cell_length_b 11.200065
_cell_length_c 10.745974
_cell_angle_alpha 90.000000
_cell_angle_beta 88.392823
_cell_angle_gamma 90.000000
_cell_volume 2515.424722
_symmetry_space_group_name_H-M "C 2/C"
_symmetry_group_IT_number 15
_symmetry_cell_setting 'monoclinic'
loop_
_space_group_symop_operation_xyz
x,y,z
-x,y,1/2-z
-x,-y,-z
x,-y,1/2+z
1/2+x,1/2+y,z
1/2-x,1/2+y,1/2-z
1/2-x,1/2-y,-z
1/2+x,1/2-y,1/2+z
loop_
_atom_site_type_symbol
_atom_site_label
_atom_site_fract_x
_atom_site_fract_y
_atom_site_fract_z
Si Si1 0.993499 0.401811 0.389046
Si Si2 0.337104 0.585417 0.945128
Si Si3 0.229407 0.212644 0.208292
Si Si4 0.346431 0.602716 0.666770
Si Si5 0.133955 0.719610 0.521122
Si Si6 0.203467 0.489696 0.893832
Si Si7 0.876418 0.291366 0.093356
O O1 0.047865 0.298808 0.395345
O O2 0.000000 0.456195 0.250000
O O3 0.000000 0.500000 0.500000
O O4 0.925702 0.334179 0.404144
O O5 0.362583 0.556774 0.804241
O O6 0.260595 0.571334 0.939707
O O7 0.353639 0.502011 0.063246
O O8 0.359836 0.720783 0.968739
O O9 0.277684 0.325279 0.189062
O O10 0.183394 0.194940 0.091172
O O11 0.270072 0.091393 0.220758
O O12 0.175686 0.231761 0.313302
O O13 0.386598 0.711277 0.602500
O O14 0.180576 0.610329 0.489492
O O15 0.142505 0.571415 0.883128
#
# Coordination Sequence:
#
# PCOD9301949 Si02
#       7
#     8   8   8   8   8   8   8
#     4  12  27  48  72 100 141 193 235 288 335 415
#     4  12  24  42  67 107 144 176 231 288 363 415
#     4  11  21  40  69 100 141 183 227 282 353 409
#     4  11  24  41  70 106 140 186 224 298 353 418
#     4  11  22  44  69  96 142 188 236 276 349 410
#     4  11  21  41  65 106 141 178 223 294 347 415
#     4  12  26  41  67 107 139 184 233 282 349 416
#
# _framework density 22.262643000000001
#
# number of rings (size 3 to 8) (size 9 to 14) (size 15 to 20)
#    0.000    0.571    7.143    2.143    0.000    1.143 
#    2.571    0.714    0.000    0.000    0.000    0.000 
#    0.000    0.000    0.000    0.000    0.000    0.000 
#
# Total GULP energy -155950.933579 kJ/mol
# GULP energy per Si atom -5569.676199 kJ/mol
# Density = 2.221197 g / cm^3
# Si number density = 22.262643 Si / 1000 Ang^3
#
#
#
# Elastic Constant Matrix: (Units=GPa)
#
#
# Indices 1 2 3 4 5 6 
#
# 1 40.1547 14.8330 23.7639 0.0000 -11.7991 0.0000
# 2 14.8330 89.4532 41.3021 0.0000 3.1387 0.0000
# 3 23.7639 41.3021 148.4262 0.0000 -11.4214 0.0000
# 4 0.0000 0.0000 0.0000 42.2533 0.0000 3.0760
# 5 -11.7991 3.1387 -11.4214 0.0000 21.2521 0.0000
# 6 0.0000 0.0000 0.0000 3.0760 0.0000 13.4263
#
#
#
# Elastic Compliance Matrix: (Units=1/GPa)
#
#
# Indices 1 2 3 4 5 6 
#
# 1 0.033572 -0.004997 -0.002601 0.000000 0.017979 0.000000
# 2 -0.004997 0.013901 -0.003588 0.000000 -0.006756 0.000000
# 3 -0.002601 -0.003588 0.008431 0.000000 0.003617 0.000000
# 4 0.000000 0.000000 0.000000 0.024068 0.000000 -0.005514
# 5 0.017979 -0.006756 0.003617 0.000000 0.059977 0.000000
# 6 0.000000 0.000000 0.000000 -0.005514 0.000000 0.075744
#
#
# Mechanical properties :
#
#
# Convention : Reuss Voigt Hill
#
# Bulk Modulus (GPa) = 29.82245 48.64801 39.23523
# Shear Modulus (GPa) = 20.06081 28.59537 24.32809
#
# Velocity S-wave (km/s) = 3.00509 3.58782 3.30930
# Velocity P-wave (km/s) = 5.04634 6.25000 5.68014
#
# Compressibility (1/GPa) = 0.03353179
#
# Stress axis : x y z
#
# Youngs Moduli (GPa) = 29.78691 71.93576 118.61604
#
# Poissons Ratio (x) = 0.35944 0.30854
# Poissons Ratio (y) = 0.14883 0.42561
# Poissons Ratio (z) = 0.07748 0.25811
#
# Static dielectric constant tensor:
#      x y z
#    x 1.768860 0.000000 0.020410 
#    y 0.000000 1.943730 0.000000 
#    z 0.020410 0.000000 1.960500 
# 
# From -- ./inp_files/111012.got.cif
#   From: 2010.05.17/outbox.cif.g08.bks.cpg/sg15_56_cif.got.tgz:111012.got - 2010.06.03 18:47:42.
