data_PCOD9301015
_publ_section_title
;
Structure prediction by ZEFSAII (Michael W. Deem and Ramdas Pophale) SiO2 
 PCOD9301015
Probable space group: C 2/C
;
_chemical_formula_sum "Si O2"
_cell_formula_units_Z 48
_cell_length_a 19.015334
_cell_length_b 28.167475
_cell_length_c 10.436912
_cell_angle_alpha 90.000000
_cell_angle_beta 155.982099
_cell_angle_gamma 90.000000
_cell_volume 2275.316560
_symmetry_space_group_name_H-M "C 2/C"
_symmetry_group_IT_number 15
_symmetry_cell_setting 'monoclinic'
loop_
_space_group_symop_operation_xyz
x,y,z
-x,y,1/2-z
-x,-y,-z
x,-y,1/2+z
1/2+x,1/2+y,z
1/2-x,1/2+y,1/2-z
1/2-x,1/2-y,-z
1/2+x,1/2-y,1/2+z
loop_
_atom_site_type_symbol
_atom_site_label
_atom_site_fract_x
_atom_site_fract_y
_atom_site_fract_z
Si Si1 0.030426 0.598764 0.562682
Si Si2 0.260345 0.964809 0.763891
Si Si3 0.500000 0.531371 0.250000
Si Si4 0.500000 0.041678 0.250000
Si Si5 0.084666 0.904231 0.672998
Si Si6 0.463040 0.199495 0.840154
Si Si7 0.950492 0.803903 0.816130
O O1 0.908448 0.567462 0.450590
O O2 0.020433 0.574598 0.407857
O O3 0.971119 0.653744 0.473234
O O4 0.226203 0.598530 0.942988
O O5 0.123917 0.931426 0.608298
O O6 0.162225 0.997182 0.497623
O O7 0.342399 0.004115 0.994668
O O8 0.528005 0.564464 0.418598
O O9 0.007578 0.851468 0.535603
O O10 0.500000 0.192019 0.750000
O O11 0.256636 0.200493 0.517364
O O12 0.527334 0.252546 0.981614
O O13 0.000000 0.812476 0.750000
#
# Coordination Sequence:
#
# PCOD9301015 Si02
#       7
#     8   8   4   4   8   8   8
#     4  11  21  37  59  83 115 154 202 239 291 352
#     4  12  23  39  58  84 117 160 200 242 286 352
#     4  12  24  36  52  88 122 154 196 238 298 344
#     4  12  22  36  58  82 116 162 194 240 288 344
#     4  11  20  36  58  85 116 155 193 245 294 349
#     4   9  18  33  56  87 114 147 193 245 296 352
#     4   9  17  31  54  86 118 145 187 249 300 342
#
# _framework density 21.095966000000001
#
# number of rings (size 3 to 8) (size 9 to 14) (size 15 to 20)
#    0.000    1.333    4.167    4.000    0.000    0.000 
#    0.000    0.000    0.000    1.000    0.000   42.000 
#    0.000    0.000    0.000    0.000    0.000    0.000 
#
# Total GULP energy -133919.964297 kJ/mol
# GULP energy per Si atom -5579.998512 kJ/mol
# Density = 2.104795 g / cm^3
# Si number density = 21.095966 Si / 1000 Ang^3
#
#
#
# Elastic Constant Matrix: (Units=GPa)
#
#
# Indices 1 2 3 4 5 6 
#
# 1 115.2571 45.6222 -6.8626 0.0000 3.0811 0.0000
# 2 45.6222 217.8001 21.1266 0.0000 -12.1172 0.0000
# 3 -6.8626 21.1266 14.4839 0.0000 3.6684 0.0000
# 4 0.0000 0.0000 0.0000 15.7641 0.0000 -0.3401
# 5 3.0811 -12.1172 3.6684 0.0000 23.4289 0.0000
# 6 0.0000 0.0000 0.0000 -0.3401 0.0000 38.7480
#
#
#
# Elastic Compliance Matrix: (Units=1/GPa)
#
#
# Indices 1 2 3 4 5 6 
#
# 1 0.011032 -0.003777 0.012077 0.000000 -0.005295 0.000000
# 2 -0.003777 0.007059 -0.013680 0.000000 0.006290 0.000000
# 3 0.012077 -0.013680 0.100914 0.000000 -0.024464 0.000000
# 4 0.000000 0.000000 0.000000 0.063447 0.000000 0.000557
# 5 -0.005295 0.006290 -0.024464 0.000000 0.050462 0.000000
# 6 0.000000 0.000000 0.000000 0.000557 0.000000 0.025813
#
#
# Mechanical properties :
#
#
# Convention : Reuss Voigt Hill
#
# Bulk Modulus (GPa) = 9.23812 51.92372 30.58092
# Shear Modulus (GPa) = 16.36297 34.76520 25.56408
#
# Velocity S-wave (km/s) = 2.78806 4.06391 3.48487
# Velocity P-wave (km/s) = 3.84096 6.83279 5.54256
#
# Compressibility (1/GPa) = 0.10824718
#
# Stress axis : x y z
#
# Youngs Moduli (GPa) = 90.64590 141.65622 9.90942
#
# Poissons Ratio (x) = 0.53503 -0.11968
# Poissons Ratio (y) = 0.34236 0.13556
# Poissons Ratio (z) = -1.09476 1.93779
#
# Static dielectric constant tensor:
#      x y z
#    x 1.730230 0.000000 -0.006240 
#    y 0.000000 1.818420 0.000000 
#    z -0.006240 0.000000 1.403770 
# 
# From -- ./inp_files/52912.got.cif
#   From: 2010.05.17/outbox.cif.g08.bks.cpg/sg15_27_cif.got.tgz:52912.got - 2010.06.03 18:47:42.
