data_PCOD9301771
_publ_section_title
;
Structure prediction by ZEFSAII (Michael W. Deem and Ramdas Pophale) SiO2 
 PCOD9301771
Probable space group: C 2/C
;
_chemical_formula_sum "Si O2"
_cell_formula_units_Z 44
_cell_length_a 15.643661
_cell_length_b 13.044988
_cell_length_c 13.226571
_cell_angle_alpha 90.000000
_cell_angle_beta 121.389370
_cell_angle_gamma 90.000000
_cell_volume 2304.134848
_symmetry_space_group_name_H-M "C 2/C"
_symmetry_group_IT_number 15
_symmetry_cell_setting 'monoclinic'
loop_
_space_group_symop_operation_xyz
x,y,z
-x,y,1/2-z
-x,-y,-z
x,-y,1/2+z
1/2+x,1/2+y,z
1/2-x,1/2+y,1/2-z
1/2-x,1/2-y,-z
1/2+x,1/2-y,1/2+z
loop_
_atom_site_type_symbol
_atom_site_label
_atom_site_fract_x
_atom_site_fract_y
_atom_site_fract_z
Si Si1 0.469835 0.406397 0.911826
Si Si2 0.239159 0.183957 0.153395
Si Si3 0.722773 0.123153 0.103290
Si Si4 0.215424 0.894988 0.420013
Si Si5 0.903984 0.748949 0.619171
Si Si6 0.000000 0.956097 0.250000
O O1 0.376097 0.342952 0.892547
O O2 0.561491 0.333234 0.941759
O O3 0.447555 0.467292 0.795679
O O4 0.500000 0.500000 0.000000
O O5 0.296564 0.145731 0.289639
O O6 0.255607 0.303345 0.138235
O O7 0.259743 0.127463 0.059015
O O8 0.814141 0.200004 0.127921
O O9 0.748696 0.005047 0.097435
O O10 0.635696 0.154992 0.971391
O O11 0.093364 0.894644 0.352911
O O12 0.000000 0.728901 0.750000
#
# Coordination Sequence:
#
# PCOD9301771 Si02
#       6
#     8   8   8   8   8   4
#     4  12  20  37  64  92 121 163 212 268 313 373
#     4  11  23  39  62  94 131 160 209 272 329 372
#     4  11  23  39  66  90 124 174 210 270 326 378
#     4  11  24  40  60  98 131 161 216 275 313 389
#     4  11  21  39  61  95 123 161 229 260 308 396
#     4  12  20  38  66  92 122 164 220 262 316 372
#
# _framework density 19.096104
#
# number of rings (size 3 to 8) (size 9 to 14) (size 15 to 20)
#    0.000    0.727    8.182    0.000    2.545    2.909 
#    0.000    0.909    8.000    0.000    0.000    0.000 
#    0.000    0.000    0.000    0.000    0.000    0.000 
#
# Total GULP energy -122647.629728 kJ/mol
# GULP energy per Si atom -5574.892260 kJ/mol
# Density = 1.905264 g / cm^3
# Si number density = 19.096104 Si / 1000 Ang^3
#
#
#
# Elastic Constant Matrix: (Units=GPa)
#
#
# Indices 1 2 3 4 5 6 
#
# 1 53.9105 37.3820 31.9098 0.0000 -7.9339 0.0000
# 2 37.3820 129.1034 78.2396 0.0000 -8.4347 0.0000
# 3 31.9098 78.2396 133.7055 0.0000 -11.7532 0.0000
# 4 0.0000 0.0000 0.0000 25.2850 0.0000 -8.7007
# 5 -7.9339 -8.4347 -11.7532 0.0000 35.4527 0.0000
# 6 0.0000 0.0000 0.0000 -8.7007 0.0000 29.5632
#
#
#
# Elastic Compliance Matrix: (Units=1/GPa)
#
#
# Indices 1 2 3 4 5 6 
#
# 1 0.024137 -0.005357 -0.002331 0.000000 0.003354 0.000000
# 2 -0.005357 0.013201 -0.006464 0.000000 -0.000201 0.000000
# 3 -0.002331 -0.006464 0.011986 0.000000 0.001914 0.000000
# 4 0.000000 0.000000 0.000000 0.044006 0.000000 0.012951
# 5 0.003354 -0.000201 0.001914 0.000000 0.029544 0.000000
# 6 0.000000 0.000000 0.000000 0.012951 0.000000 0.037638
#
#
# Mechanical properties :
#
#
# Convention : Reuss Voigt Hill
#
# Bulk Modulus (GPa) = 47.57270 67.97582 57.77426
# Shear Modulus (GPa) = 25.53333 29.33938 27.43636
#
# Velocity S-wave (km/s) = 3.66060 3.92395 3.79456
# Velocity P-wave (km/s) = 6.54469 7.49692 7.03693
#
# Compressibility (1/GPa) = 0.02102046
#
# Stress axis : x y z
#
# Youngs Moduli (GPa) = 41.42963 75.75137 83.43009
#
# Poissons Ratio (x) = 0.40583 0.19446
# Poissons Ratio (y) = 0.22195 0.53928
# Poissons Ratio (z) = 0.09656 0.48965
#
# Static dielectric constant tensor:
#      x y z
#    x 1.667560 0.000000 0.005460 
#    y 0.000000 1.653550 0.000000 
#    z 0.005460 0.000000 1.771020 
# 
# From -- ./inp_files/152262.got.cif
#   From: 2010.05.17/outbox.cif.g08.bks.cpg/sg15_77_cif.got.tgz:152262.got - 2010.06.03 18:47:42.
