data_PCOD9301304
_publ_section_title
;
Structure prediction by ZEFSAII (Michael W. Deem and Ramdas Pophale) SiO2 
 PCOD9301304
Probable space group: C 2/C
;
_chemical_formula_sum "Si O2"
_cell_formula_units_Z 64
_cell_length_a 10.981395
_cell_length_b 15.429144
_cell_length_c 14.884591
_cell_angle_alpha 90.000000
_cell_angle_beta 77.229818
_cell_angle_gamma 90.000000
_cell_volume 2459.567108
_symmetry_space_group_name_H-M "C 2/C"
_symmetry_group_IT_number 15
_symmetry_cell_setting 'monoclinic'
loop_
_space_group_symop_operation_xyz
x,y,z
-x,y,1/2-z
-x,-y,-z
x,-y,1/2+z
1/2+x,1/2+y,z
1/2-x,1/2+y,1/2-z
1/2-x,1/2-y,-z
1/2+x,1/2-y,1/2+z
loop_
_atom_site_type_symbol
_atom_site_label
_atom_site_fract_x
_atom_site_fract_y
_atom_site_fract_z
Si Si1 0.291352 0.538359 0.158389
Si Si2 0.133374 0.058950 0.548739
Si Si3 0.889982 0.353748 0.051643
Si Si4 0.406903 0.822469 0.624788
Si Si5 0.825571 0.864844 0.957916
Si Si6 0.122258 0.136212 0.844663
Si Si7 0.013269 0.503050 0.652700
Si Si8 0.930240 0.205055 0.170794
O O1 0.315440 0.449242 0.209583
O O2 0.155705 0.529843 0.134563
O O3 0.334190 0.625463 0.201509
O O4 0.382644 0.544530 0.055986
O O5 0.257138 0.113868 0.541673
O O6 0.018923 0.106115 0.613929
O O7 0.158360 0.962771 0.579326
O O8 0.972310 0.433098 0.079970
O O9 0.866154 0.284814 0.133342
O O10 0.968322 0.313884 0.956440
O O11 0.293329 0.828266 0.573477
O O12 0.382988 0.735512 0.686517
O O13 0.427340 0.916361 0.667216
O O14 0.953066 0.817674 0.912504
O O15 0.810610 0.862334 0.067952
O O16 0.000000 0.550835 0.750000
O O17 0.000000 0.228493 0.250000
#
# Coordination Sequence:
#
# PCOD9301304 Si02
#       8
#     8   8   8   8   8   8   8   8
#     4  11  23  44  67  99 134 171 218 273 333 397
#     4  11  20  40  72  98 129 167 221 282 329 383
#     4  12  24  45  68  99 132 175 228 277 329 391
#     4  12  24  41  70 100 128 175 222 279 327 388
#     4  11  21  41  64  96 131 167 218 274 326 393
#     4  11  22  40  69 103 128 162 224 278 328 380
#     4  12  28  46  63  97 138 179 218 272 338 404
#     4  12  27  43  66  97 134 180 219 272 341 401
#
# _framework density 26.02084
#
# number of rings (size 3 to 8) (size 9 to 14) (size 15 to 20)
#    0.000    0.500    6.250    3.375    5.250    1.000 
#    0.000    0.625    0.000    0.000    0.000    0.000 
#    0.000    0.000    0.000    0.000    0.000    0.000 
#
# Total GULP energy -179237.466274 kJ/mol
# GULP energy per Si atom -5601.170821 kJ/mol
# Density = 2.596162 g / cm^3
# Si number density = 26.020840 Si / 1000 Ang^3
#
#
#
# Elastic Constant Matrix: (Units=GPa)
#
#
# Indices 1 2 3 4 5 6 
#
# 1 131.0448 29.1675 -20.9665 0.0000 7.5455 0.0000
# 2 29.1675 171.5905 10.4255 0.0000 10.3748 0.0000
# 3 -20.9665 10.4255 28.8839 0.0000 4.1021 0.0000
# 4 0.0000 0.0000 0.0000 22.3184 0.0000 8.3569
# 5 7.5455 10.3748 4.1021 0.0000 19.1362 0.0000
# 6 0.0000 0.0000 0.0000 8.3569 0.0000 32.0146
#
#
#
# Elastic Compliance Matrix: (Units=1/GPa)
#
#
# Indices 1 2 3 4 5 6 
#
# 1 0.009642 -0.001868 0.008322 0.000000 -0.004573 0.000000
# 2 -0.001868 0.006476 -0.003403 0.000000 -0.002045 0.000000
# 3 0.008322 -0.003403 0.043417 0.000000 -0.010744 0.000000
# 4 0.000000 0.000000 0.000000 0.049660 0.000000 -0.012963
# 5 -0.004573 -0.002045 -0.010744 0.000000 0.057472 0.000000
# 6 0.000000 0.000000 0.000000 -0.012963 0.000000 0.034619
#
#
# Mechanical properties :
#
#
# Convention : Reuss Voigt Hill
#
# Bulk Modulus (GPa) = 15.23533 40.97471 28.10502
# Shear Modulus (GPa) = 23.03493 35.55335 29.29414
#
# Velocity S-wave (km/s) = 2.97854 3.70042 3.35893
# Velocity P-wave (km/s) = 4.20675 5.83425 5.08602
#
# Compressibility (1/GPa) = 0.06563691
#
# Stress axis : x y z
#
# Youngs Moduli (GPa) = 103.71688 154.42194 23.03260
#
# Poissons Ratio (x) = 0.28847 -0.19169
# Poissons Ratio (y) = 0.19375 0.07838
# Poissons Ratio (z) = -0.86318 0.52550
#
# Static dielectric constant tensor:
#      x y z
#    x 1.987870 0.000000 -0.065610 
#    y 0.000000 2.111180 0.000000 
#    z -0.065610 0.000000 2.128670 
# 
# From -- ./inp_files/198329.got.cif
#   From: 2010.05.17/outbox.cif.g08.bks.cpg/sg15_100_cif.got.tgz:198329.got - 2010.06.03 18:47:42.
