data_PCOD9301565
_publ_section_title
;
Structure prediction by ZEFSAII (Michael W. Deem and Ramdas Pophale) SiO2 
 PCOD9301565
Probable space group: C 2/C
;
_chemical_formula_sum "Si O2"
_cell_formula_units_Z 56
_cell_length_a 6.420007
_cell_length_b 21.142245
_cell_length_c 23.440017
_cell_angle_alpha 90.000000
_cell_angle_beta 69.588250
_cell_angle_gamma 90.000000
_cell_volume 2981.821653
_symmetry_space_group_name_H-M "C 2/C"
_symmetry_group_IT_number 15
_symmetry_cell_setting 'monoclinic'
loop_
_space_group_symop_operation_xyz
x,y,z
-x,y,1/2-z
-x,-y,-z
x,-y,1/2+z
1/2+x,1/2+y,z
1/2-x,1/2+y,1/2-z
1/2-x,1/2-y,-z
1/2+x,1/2-y,1/2+z
loop_
_atom_site_type_symbol
_atom_site_label
_atom_site_fract_x
_atom_site_fract_y
_atom_site_fract_z
Si Si1 0.202981 0.852109 0.397712
Si Si2 0.534781 0.274288 0.312849
Si Si3 0.742930 0.468547 0.465731
Si Si4 0.339961 0.656690 0.315035
Si Si5 0.541639 0.257166 0.891333
Si Si6 0.683807 0.681298 0.486050
Si Si7 0.579041 0.915337 0.934148
O O1 0.170391 0.826631 0.336412
O O2 0.270221 0.922796 0.408250
O O3 0.367442 0.800325 0.410696
O O4 0.965577 0.849157 0.451423
O O5 0.500000 0.289898 0.250000
O O6 0.654570 0.205817 0.308353
O O7 0.290772 0.268603 0.363296
O O8 0.500000 0.500000 0.500000
O O9 0.796985 0.428188 0.517818
O O10 0.924817 0.523320 0.440960
O O11 0.500000 0.631997 0.250000
O O12 0.486693 0.702602 0.340756
O O13 0.235091 0.603506 0.366106
O O14 0.537662 0.305955 0.943936
O O15 0.750000 0.750000 0.500000
O O16 0.905965 0.642383 0.454862
#
# Coordination Sequence:
#
# PCOD9301565 Si02
#       7
#     8   8   8   8   8   8   8
#     4  11  23  36  62  93 124 170 205 254 318 385
#     4  11  22  39  61  94 128 164 204 255 322 391
#     4  11  24  44  64  88 129 171 221 263 319 372
#     4  11  22  38  63  97 126 165 207 255 325 382
#     4  11  21  36  61  92 134 153 197 257 329 387
#     4  12  19  35  59  97 128 152 197 263 331 382
#     4  11  24  39  64  96 126 168 214 268 317 379
#
# _framework density 18.780467000000002
#
# number of rings (size 3 to 8) (size 9 to 14) (size 15 to 20)
#    0.000    0.857    5.714    3.000    0.000    0.000 
#    0.000    0.000    0.000    5.143    0.000    0.000 
#    0.000    0.000    0.000    0.000    0.000    0.000 
#
# Total GULP energy -156263.836624 kJ/mol
# GULP energy per Si atom -5580.851308 kJ/mol
# Density = 1.873772 g / cm^3
# Si number density = 18.780467 Si / 1000 Ang^3
#
#
#
# Elastic Constant Matrix: (Units=GPa)
#
#
# Indices 1 2 3 4 5 6 
#
# 1 85.6898 35.3918 37.0439 0.0000 9.2642 0.0000
# 2 35.3918 101.0521 45.4899 0.0000 6.8858 0.0000
# 3 37.0439 45.4899 114.3105 0.0000 3.7719 0.0000
# 4 0.0000 0.0000 0.0000 20.4265 0.0000 -2.2169
# 5 9.2642 6.8858 3.7719 0.0000 36.3812 0.0000
# 6 0.0000 0.0000 0.0000 -2.2169 0.0000 27.2876
#
#
#
# Elastic Compliance Matrix: (Units=1/GPa)
#
#
# Indices 1 2 3 4 5 6 
#
# 1 0.014860 -0.003519 -0.003324 0.000000 -0.002773 0.000000
# 2 -0.003519 0.013006 -0.003997 0.000000 -0.001151 0.000000
# 3 -0.003324 -0.003997 0.011402 0.000000 0.000421 0.000000
# 4 0.000000 0.000000 0.000000 0.049392 0.000000 0.004013
# 5 -0.002773 -0.001151 0.000421 0.000000 0.028367 0.000000
# 6 0.000000 0.000000 0.000000 0.004013 0.000000 0.036973
#
#
# Mechanical properties :
#
#
# Convention : Reuss Voigt Hill
#
# Bulk Modulus (GPa) = 56.85741 59.65595 58.25668
# Shear Modulus (GPa) = 27.54159 29.02751 28.28455
#
# Velocity S-wave (km/s) = 3.83365 3.93571 3.88501
# Velocity P-wave (km/s) = 7.06656 7.24478 7.15623
#
# Compressibility (1/GPa) = 0.01758786
#
# Stress axis : x y z
#
# Youngs Moduli (GPa) = 67.29368 76.88504 87.70354
#
# Poissons Ratio (x) = 0.27059 0.29149
# Poissons Ratio (y) = 0.23683 0.35059
# Poissons Ratio (z) = 0.22366 0.30734
#
# Static dielectric constant tensor:
#      x y z
#    x 1.739960 0.000000 0.051570 
#    y 0.000000 1.675750 0.000000 
#    z 0.051570 0.000000 1.695240 
# 
# From -- ./inp_files/261133.got.cif
#   From: 2010.05.17/outbox.cif.g08.bks.cpg/sg15_131_cif.got.tgz:261133.got - 2010.06.03 18:47:42.
