data_PCOD9301173
_publ_section_title
;
Structure prediction by ZEFSAII (Michael W. Deem and Ramdas Pophale) SiO2 
 PCOD9301173
Probable space group: C 2/C
;
_chemical_formula_sum "Si O2"
_cell_formula_units_Z 44
_cell_length_a 11.906458
_cell_length_b 12.747142
_cell_length_c 14.861211
_cell_angle_alpha 90.000000
_cell_angle_beta 54.867598
_cell_angle_gamma 90.000000
_cell_volume 1844.631739
_symmetry_space_group_name_H-M "C 2/C"
_symmetry_group_IT_number 15
_symmetry_cell_setting 'monoclinic'
loop_
_space_group_symop_operation_xyz
x,y,z
-x,y,1/2-z
-x,-y,-z
x,-y,1/2+z
1/2+x,1/2+y,z
1/2-x,1/2+y,1/2-z
1/2-x,1/2-y,-z
1/2+x,1/2-y,1/2+z
loop_
_atom_site_type_symbol
_atom_site_label
_atom_site_fract_x
_atom_site_fract_y
_atom_site_fract_z
Si Si1 0.709885 0.900824 0.752805
Si Si2 0.718773 0.943589 0.092401
Si Si3 0.500000 0.745889 0.750000
Si Si4 0.511045 0.334168 0.972051
Si Si5 0.315346 0.637881 0.947553
Si Si6 0.422935 0.895076 0.505920
O O1 0.582928 0.826937 0.777086
O O2 0.859809 0.862887 0.650392
O O3 0.702686 0.897805 0.864113
O O4 0.691461 0.009892 0.704199
O O5 0.609141 0.879943 0.085320
O O6 0.862703 0.882097 0.019102
O O7 0.721626 0.045187 0.024074
O O8 0.377065 0.662325 0.823822
O O9 0.552375 0.379275 0.050137
O O10 0.506961 0.209930 0.986631
O O11 0.250000 0.750000 0.000000
O O12 0.500000 0.000000 0.500000
#
# Coordination Sequence:
#
# PCOD9301173 Si02
#       6
#     8   8   4   8   8   8
#     4  11  24  43  71 101 137 181 235 287 350 414
#     4  11  25  44  68 101 145 180 230 297 355 418
#     4  12  20  36  72  96 130 176 240 284 344 400
#     4  11  24  45  64 101 140 181 229 293 352 427
#     4  11  20  38  66  96 129 174 233 287 331 413
#     4  12  26  45  72 101 141 186 241 283 355 430
#
# _framework density 23.853000000000002
#
# number of rings (size 3 to 8) (size 9 to 14) (size 15 to 20)
#    0.000    0.727    5.455    4.909    0.000    5.091 
#    0.000    1.818    0.000    0.000    0.000    0.000 
#    0.000    0.000    0.000    0.000    0.000    0.000 
#
# Total GULP energy -122509.234060 kJ/mol
# GULP energy per Si atom -5568.601548 kJ/mol
# Density = 2.379871 g / cm^3
# Si number density = 23.853000 Si / 1000 Ang^3
#
#
#
# Elastic Constant Matrix: (Units=GPa)
#
#
# Indices 1 2 3 4 5 6 
#
# 1 79.9742 -8.3830 -6.3727 0.0000 -0.0200 0.0000
# 2 -8.3830 53.5560 1.6658 0.0000 -5.7908 0.0000
# 3 -6.3727 1.6658 81.7908 0.0000 -0.1866 0.0000
# 4 0.0000 0.0000 0.0000 21.1120 0.0000 -6.1065
# 5 -0.0200 -5.7908 -0.1866 0.0000 22.6119 0.0000
# 6 0.0000 0.0000 0.0000 -6.1065 0.0000 26.7620
#
#
#
# Elastic Compliance Matrix: (Units=1/GPa)
#
#
# Indices 1 2 3 4 5 6 
#
# 1 0.012793 0.002031 0.000957 0.000000 0.000539 0.000000
# 2 0.002031 0.019538 -0.000228 0.000000 0.005004 0.000000
# 3 0.000957 -0.000228 0.012306 0.000000 0.000044 0.000000
# 4 0.000000 0.000000 0.000000 0.050714 0.000000 0.011572
# 5 0.000539 0.005004 0.000044 0.000000 0.045507 0.000000
# 6 0.000000 0.000000 0.000000 0.011572 0.000000 0.040007
#
#
# Mechanical properties :
#
#
# Convention : Reuss Voigt Hill
#
# Bulk Modulus (GPa) = 19.93783 21.01568 20.47675
# Shear Modulus (GPa) = 26.03303 29.32458 27.67880
#
# Velocity S-wave (km/s) = 3.30721 3.51007 3.41015
# Velocity P-wave (km/s) = 4.79169 5.02564 4.91006
#
# Compressibility (1/GPa) = 0.05015591
#
# Stress axis : x y z
#
# Youngs Moduli (GPa) = 78.16593 51.18214 81.26376
#
# Poissons Ratio (x) = -0.10395 -0.07774
# Poissons Ratio (y) = -0.15876 0.01855
# Poissons Ratio (z) = -0.07478 0.01168
#
# Static dielectric constant tensor:
#      x y z
#    x 1.152450 0.000000 0.667710 
#    y 0.000000 2.208840 0.000000 
#    z 0.667710 0.000000 1.508200 
# 
# From -- ./inp_files/196455.got.cif
#   From: 2010.05.17/outbox.cif.g08.bks.cpg/sg15_99_cif.got.tgz:196455.got - 2010.06.03 18:47:42.
