data_PCOD9301282
_publ_section_title
;
Structure prediction by ZEFSAII (Michael W. Deem and Ramdas Pophale) SiO2 
 PCOD9301282
Probable space group: C 2/C
;
_chemical_formula_sum "Si O2"
_cell_formula_units_Z 40
_cell_length_a 7.665022
_cell_length_b 14.871158
_cell_length_c 13.926283
_cell_angle_alpha 90.000000
_cell_angle_beta 100.767385
_cell_angle_gamma 90.000000
_cell_volume 1559.477106
_symmetry_space_group_name_H-M "C 2/C"
_symmetry_group_IT_number 15
_symmetry_cell_setting 'monoclinic'
loop_
_space_group_symop_operation_xyz
x,y,z
-x,y,1/2-z
-x,-y,-z
x,-y,1/2+z
1/2+x,1/2+y,z
1/2-x,1/2+y,1/2-z
1/2-x,1/2-y,-z
1/2+x,1/2-y,1/2+z
loop_
_atom_site_type_symbol
_atom_site_label
_atom_site_fract_x
_atom_site_fract_y
_atom_site_fract_z
Si Si1 0.765824 0.716581 0.808751
Si Si2 0.677699 0.983707 0.208526
Si Si3 0.733584 0.453819 0.973818
Si Si4 0.837903 0.102687 0.390236
Si Si5 0.317453 0.793985 0.104436
O O1 0.725185 0.610100 0.811201
O O2 0.725779 0.804073 0.869147
O O3 0.719711 0.734749 0.692086
O O4 0.977542 0.719306 0.850529
O O5 0.500000 0.963783 0.250000
O O6 0.642057 0.036276 0.105628
O O7 0.790627 0.046425 0.290316
O O8 0.706411 0.552111 0.015673
O O9 0.793421 0.397133 0.071732
O O10 0.553371 0.405519 0.917455
O O11 0.250000 0.750000 0.000000
#
# Coordination Sequence:
#
# PCOD9301282 Si02
#       5
#     8   8   8   8   8
#     4  11  23  41  69  99 140 182 234 283 351 419
#     4  12  25  44  67 103 144 183 231 287 352 420
#     4  11  24  43  73 102 141 180 235 291 351 411
#     4  11  24  45  70 104 137 183 234 294 346 412
#     4  11  20  40  68 102 131 185 229 277 348 424
#
# _framework density 25.649621
#
# number of rings (size 3 to 8) (size 9 to 14) (size 15 to 20)
#    0.000    0.800    6.000    1.800    2.800    4.000 
#    0.000    2.000    0.000    0.000    0.000    0.000 
#    0.000    0.000    0.000    0.000    0.000    0.000 
#
# Total GULP energy -111594.861274 kJ/mol
# GULP energy per Si atom -5579.743064 kJ/mol
# Density = 2.559124 g / cm^3
# Si number density = 25.649621 Si / 1000 Ang^3
#
#
#
# Elastic Constant Matrix: (Units=GPa)
#
#
# Indices 1 2 3 4 5 6 
#
# 1 36.1491 12.7177 31.1321 0.0000 -6.8424 0.0000
# 2 12.7177 82.7134 32.7107 0.0000 4.8373 0.0000
# 3 31.1321 32.7107 165.8210 0.0000 1.8599 0.0000
# 4 0.0000 0.0000 0.0000 61.5737 0.0000 2.5978
# 5 -6.8424 4.8373 1.8599 0.0000 33.1644 0.0000
# 6 0.0000 0.0000 0.0000 2.5978 0.0000 11.2570
#
#
#
# Elastic Compliance Matrix: (Units=1/GPa)
#
#
# Indices 1 2 3 4 5 6 
#
# 1 0.035726 -0.003563 -0.006097 0.000000 0.008233 0.000000
# 2 -0.003563 0.013573 -0.001979 0.000000 -0.002604 0.000000
# 3 -0.006097 -0.001979 0.007581 0.000000 -0.001394 0.000000
# 4 0.000000 0.000000 0.000000 0.016400 0.000000 -0.003785
# 5 0.008233 -0.002604 -0.001394 0.000000 0.032309 0.000000
# 6 0.000000 0.000000 0.000000 -0.003785 0.000000 0.089707
#
#
# Mechanical properties :
#
#
# Convention : Reuss Voigt Hill
#
# Bulk Modulus (GPa) = 29.76094 48.64496 39.20295
# Shear Modulus (GPa) = 21.76037 35.07389 28.41713
#
# Velocity S-wave (km/s) = 2.91584 3.70188 3.33212
# Velocity P-wave (km/s) = 4.79210 6.10559 5.48828
#
# Compressibility (1/GPa) = 0.03360109
#
# Stress axis : x y z
#
# Youngs Moduli (GPa) = 27.99100 73.67653 131.90334
#
# Poissons Ratio (x) = 0.26254 0.80418
# Poissons Ratio (y) = 0.09974 0.26107
# Poissons Ratio (z) = 0.17065 0.14582
#
# Static dielectric constant tensor:
#      x y z
#    x 2.092140 0.000000 0.001490 
#    y 0.000000 2.296300 0.000000 
#    z 0.001490 0.000000 1.913790 
# 
# From -- ./inp_files/196766.got.cif
#   From: 2010.05.17/outbox.cif.g08.bks.cpg/sg15_99_cif.got.tgz:196766.got - 2010.06.03 18:47:42.
