data_PCOD9301786
_publ_section_title
;
Structure prediction by ZEFSAII (Michael W. Deem and Ramdas Pophale) SiO2 
 PCOD9301786
Probable space group: C 2/C
;
_chemical_formula_sum "Si O2"
_cell_formula_units_Z 64
_cell_length_a 8.502465
_cell_length_b 28.739584
_cell_length_c 13.226190
_cell_angle_alpha 90.000000
_cell_angle_beta 62.234097
_cell_angle_gamma 90.000000
_cell_volume 2859.788067
_symmetry_space_group_name_H-M "C 2/C"
_symmetry_group_IT_number 15
_symmetry_cell_setting 'monoclinic'
loop_
_space_group_symop_operation_xyz
x,y,z
-x,y,1/2-z
-x,-y,-z
x,-y,1/2+z
1/2+x,1/2+y,z
1/2-x,1/2+y,1/2-z
1/2-x,1/2-y,-z
1/2+x,1/2-y,1/2+z
loop_
_atom_site_type_symbol
_atom_site_label
_atom_site_fract_x
_atom_site_fract_y
_atom_site_fract_z
Si Si1 0.203431 0.806392 0.078112
Si Si2 0.939140 0.748624 0.067881
Si Si3 0.555660 0.625524 0.462860
Si Si4 0.751226 0.823873 0.980560
Si Si5 0.588696 0.884419 0.391058
Si Si6 0.504207 0.959553 0.918243
Si Si7 0.722292 0.467409 0.828286
Si Si8 0.872467 0.068073 0.691022
O O1 0.020678 0.777379 0.136139
O O2 0.254527 0.846664 0.140506
O O3 0.373214 0.771562 0.033094
O O4 0.181599 0.835236 0.977343
O O5 0.821547 0.785317 0.039767
O O6 0.819979 0.702274 0.098169
O O7 0.426812 0.646410 0.416909
O O8 0.637299 0.580082 0.390472
O O9 0.437384 0.605784 0.591021
O O10 0.591232 0.855348 0.073076
O O11 0.553256 0.912967 0.505352
O O12 0.670866 0.920190 0.286051
O O13 0.370667 0.973687 0.869851
O O14 0.693178 0.957557 0.806765
O O15 0.500000 0.000000 0.000000
O O16 0.615896 0.515592 0.854580
O O17 0.000000 0.069852 0.750000
#
# Coordination Sequence:
#
# PCOD9301786 Si02
#       8
#     8   8   8   8   8   8   8   8
#     4   9  16  34  64  94 128 165 222 269 329 403
#     4   8  16  34  61 103 119 172 209 272 349 379
#     4  11  22  38  60  99 129 179 219 265 327 398
#     4   9  20  34  62 100 129 166 221 271 338 394
#     4  11  21  39  63  97 128 175 219 273 324 397
#     4  11  23  42  65  94 129 172 228 273 333 379
#     4  11  25  41  65  93 134 177 223 276 323 392
#     4  12  24  39  61  93 137 172 226 273 331 385
#
# _framework density 22.379280000000001
#
# number of rings (size 3 to 8) (size 9 to 14) (size 15 to 20)
#    0.000    1.750    3.750    0.375    1.750    1.500 
#    0.000    0.000    0.000    0.000  227.500    0.000 
#    0.000    0.000    0.000    0.000    0.000    0.000 
#
# Total GULP energy -178346.100882 kJ/mol
# GULP energy per Si atom -5573.315653 kJ/mol
# Density = 2.232834 g / cm^3
# Si number density = 22.379280 Si / 1000 Ang^3
#
#
#
# Elastic Constant Matrix: (Units=GPa)
#
#
# Indices 1 2 3 4 5 6 
#
# 1 103.8137 46.6454 16.2738 0.0000 -2.3556 0.0000
# 2 46.6454 114.9590 32.6126 0.0000 3.7226 0.0000
# 3 16.2738 32.6126 61.6470 0.0000 11.9365 0.0000
# 4 0.0000 0.0000 0.0000 6.2275 0.0000 -8.2737
# 5 -2.3556 3.7226 11.9365 0.0000 10.9657 0.0000
# 6 0.0000 0.0000 0.0000 -8.2737 0.0000 37.8318
#
#
#
# Elastic Compliance Matrix: (Units=1/GPa)
#
#
# Indices 1 2 3 4 5 6 
#
# 1 0.012143 -0.004558 -0.002026 0.000000 0.006361 0.000000
# 2 -0.004558 0.012028 -0.005296 0.000000 0.000702 0.000000
# 3 -0.002026 -0.005296 0.024446 0.000000 -0.025248 0.000000
# 4 0.000000 0.000000 0.000000 0.226344 0.000000 0.049501
# 5 0.006361 0.000702 -0.025248 0.000000 0.119804 0.000000
# 6 0.000000 0.000000 0.000000 0.049501 0.000000 0.037258
#
#
# Mechanical properties :
#
#
# Convention : Reuss Voigt Hill
#
# Bulk Modulus (GPa) = 40.22902 52.38705 46.30803
# Shear Modulus (GPa) = 10.77426 23.33086 17.05256
#
# Velocity S-wave (km/s) = 2.19655 3.23231 2.76339
# Velocity P-wave (km/s) = 4.94451 6.11474 5.56049
#
# Compressibility (1/GPa) = 0.02485768
#
# Stress axis : x y z
#
# Youngs Moduli (GPa) = 82.35443 83.14013 40.90594
#
# Poissons Ratio (x) = 0.37898 0.08286
# Poissons Ratio (y) = 0.37539 0.21662
# Poissons Ratio (z) = 0.16682 0.44028
#
# Static dielectric constant tensor:
#      x y z
#    x 1.870460 0.000000 0.018040 
#    y 0.000000 1.793930 0.000000 
#    z 0.018040 0.000000 1.935170 
# 
# From -- ./inp_files/139789.got.cif
#   From: 2010.05.17/outbox.cif.g08.bks.cpg/sg15_70_cif.got.tgz:139789.got - 2010.06.03 18:47:42.
