data_PCOD9301315
_publ_section_title
;
Structure prediction by ZEFSAII (Michael W. Deem and Ramdas Pophale) SiO2 
 PCOD9301315
Probable space group: C 2/C
;
_chemical_formula_sum "Si O2"
_cell_formula_units_Z 44
_cell_length_a 11.207304
_cell_length_b 19.722944
_cell_length_c 9.758270
_cell_angle_alpha 90.000000
_cell_angle_beta 83.409959
_cell_angle_gamma 90.000000
_cell_volume 2142.726305
_symmetry_space_group_name_H-M "C 2/C"
_symmetry_group_IT_number 15
_symmetry_cell_setting 'monoclinic'
loop_
_space_group_symop_operation_xyz
x,y,z
-x,y,1/2-z
-x,-y,-z
x,-y,1/2+z
1/2+x,1/2+y,z
1/2-x,1/2+y,1/2-z
1/2-x,1/2-y,-z
1/2+x,1/2-y,1/2+z
loop_
_atom_site_type_symbol
_atom_site_label
_atom_site_fract_x
_atom_site_fract_y
_atom_site_fract_z
Si Si1 0.000000 0.091145 0.250000
Si Si2 0.587025 0.807917 0.510721
Si Si3 0.180862 0.486155 0.139721
Si Si4 0.500000 0.899286 0.750000
Si Si5 0.339097 0.476720 0.371021
Si Si6 0.134351 0.842797 0.975921
Si Si7 0.000000 0.626969 0.750000
O O1 0.910882 0.135091 0.168357
O O2 0.927854 0.040233 0.358990
O O3 0.498376 0.850734 0.618624
O O4 0.722845 0.827665 0.536884
O O5 0.572418 0.727425 0.526642
O O6 0.567070 0.829413 0.356055
O O7 0.293052 0.470176 0.222233
O O8 0.091802 0.422924 0.159663
O O9 0.111727 0.550350 0.213518
O O10 0.226435 0.505830 0.984030
O O11 0.389647 0.406333 0.421387
#
# Coordination Sequence:
#
# PCOD9301315 Si02
#       7
#     4   8   8   4   8   8   4
#     4  12  25  43  67  89 130 168 218 260 316 359
#     4  11  23  41  66  90 134 166 210 253 320 376
#     4  11  22  37  67  96 127 153 218 264 316 363
#     4  11  20  41  63  96 127 168 200 264 319 372
#     4  12  22  42  63  94 125 165 208 271 305 369
#     4  11  24  42  61  93 127 171 208 257 304 384
#     4  11  21  40  66  97 121 168 204 264 319 375
#
# _framework density 20.534586999999998
#
# number of rings (size 3 to 8) (size 9 to 14) (size 15 to 20)
#    0.000    0.727    5.455    2.182    0.000    3.636 
#    0.000    0.000    0.000    6.545    0.000    0.000 
#    0.000    0.000    0.000    0.000    0.000    0.000 
#
# Total GULP energy -122981.087075 kJ/mol
# GULP energy per Si atom -5590.049413 kJ/mol
# Density = 2.048785 g / cm^3
# Si number density = 20.534587 Si / 1000 Ang^3
#
#
#
# Elastic Constant Matrix: (Units=GPa)
#
#
# Indices 1 2 3 4 5 6 
#
# 1 60.8645 32.6575 16.1888 0.0000 11.9909 0.0000
# 2 32.6575 119.1380 37.3419 0.0000 17.1233 0.0000
# 3 16.1888 37.3419 66.3546 0.0000 7.6191 0.0000
# 4 0.0000 0.0000 0.0000 12.0604 0.0000 -9.5594
# 5 11.9909 17.1233 7.6191 0.0000 38.0056 0.0000
# 6 0.0000 0.0000 0.0000 -9.5594 0.0000 14.5852
#
#
#
# Elastic Compliance Matrix: (Units=1/GPa)
#
#
# Indices 1 2 3 4 5 6 
#
# 1 0.020056 -0.004291 -0.002020 0.000000 -0.003989 0.000000
# 2 -0.004291 0.011592 -0.005151 0.000000 -0.002836 0.000000
# 3 -0.002020 -0.005151 0.018550 0.000000 -0.000761 0.000000
# 4 0.000000 0.000000 0.000000 0.172562 0.000000 0.113100
# 5 -0.003989 -0.002836 -0.000761 0.000000 0.029001 0.000000
# 6 0.000000 0.000000 0.000000 0.113100 0.000000 0.142691
#
#
# Mechanical properties :
#
#
# Convention : Reuss Voigt Hill
#
# Bulk Modulus (GPa) = 36.66651 46.52596 41.59623
# Shear Modulus (GPa) = 11.72426 23.60815 17.66621
#
# Velocity S-wave (km/s) = 2.39205 3.39437 2.93629
# Velocity P-wave (km/s) = 5.05212 6.17000 5.63883
#
# Compressibility (1/GPa) = 0.02727285
#
# Stress axis : x y z
#
# Youngs Moduli (GPa) = 49.86140 86.26647 53.90971
#
# Poissons Ratio (x) = 0.37017 0.10891
# Poissons Ratio (y) = 0.21395 0.27769
# Poissons Ratio (z) = 0.10073 0.44436
#
# Static dielectric constant tensor:
#      x y z
#    x 1.757370 0.000000 0.000820 
#    y 0.000000 1.722820 0.000000 
#    z 0.000820 0.000000 1.707430 
# 
# From -- ./inp_files/30884.got.cif
#   From: 2010.05.17/outbox.cif.g08.bks.cpg/sg15_16_cif.got.tgz:30884.got - 2010.06.03 18:47:42.
