data_PCOD9301882
_publ_section_title
;
Structure prediction by ZEFSAII (Michael W. Deem and Ramdas Pophale) SiO2 
 PCOD9301882
Probable space group: C 2/C
;
_chemical_formula_sum "Si O2"
_cell_formula_units_Z 32
_cell_length_a 17.126467
_cell_length_b 6.898950
_cell_length_c 17.490027
_cell_angle_alpha 90.000000
_cell_angle_beta 138.243568
_cell_angle_gamma 90.000000
_cell_volume 1376.236065
_symmetry_space_group_name_H-M "C 2/C"
_symmetry_group_IT_number 15
_symmetry_cell_setting 'monoclinic'
loop_
_space_group_symop_operation_xyz
x,y,z
-x,y,1/2-z
-x,-y,-z
x,-y,1/2+z
1/2+x,1/2+y,z
1/2-x,1/2+y,1/2-z
1/2-x,1/2-y,-z
1/2+x,1/2-y,1/2+z
loop_
_atom_site_type_symbol
_atom_site_label
_atom_site_fract_x
_atom_site_fract_y
_atom_site_fract_z
Si Si1 0.160315 0.992906 0.186168
Si Si2 0.414937 0.987856 0.627997
Si Si3 0.150731 0.687316 0.782023
Si Si4 0.959625 0.694907 0.012810
O O1 0.178710 0.091891 0.281805
O O2 0.276327 0.931470 0.226735
O O3 0.102663 0.157810 0.090283
O O4 0.073439 0.811640 0.125602
O O5 0.500000 0.871633 0.750000
O O6 0.511204 0.149638 0.671900
O O7 0.323163 0.098485 0.615124
O O8 0.383803 0.865020 0.531742
O O9 0.000000 0.500000 0.000000
#
# Coordination Sequence:
#
# PCOD9301882 Si02
#       4
#     8   8   8   8
#     4  11  22  37  66  89 119 164 202 248 300 364
#     4   8  19  40  57  84 128 151 199 253 289 353
#     4   9  20  38  60  90 116 161 204 240 299 363
#     4  11  21  40  62  90 124 158 202 251 305 351
#
# _framework density 23.251826000000001
#
# number of rings (size 3 to 8) (size 9 to 14) (size 15 to 20)
#    1.500    0.500    2.500    1.500    0.000    1.000 
#    4.500    1.250    0.000    0.000    0.000    0.000 
#    0.000    0.000    0.000    0.000    0.000    0.000 
#
# Total GULP energy -89166.542911 kJ/mol
# GULP energy per Si atom -5572.908932 kJ/mol
# Density = 2.319890 g / cm^3
# Si number density = 23.251826 Si / 1000 Ang^3
#
#
#
# Elastic Constant Matrix: (Units=GPa)
#
#
# Indices 1 2 3 4 5 6 
#
# 1 117.7060 41.7918 13.9182 0.0000 -14.6811 0.0000
# 2 41.7918 125.7705 33.6700 0.0000 -11.2758 0.0000
# 3 13.9182 33.6700 42.1370 0.0000 -14.7580 0.0000
# 4 0.0000 0.0000 0.0000 20.8558 0.0000 3.9679
# 5 -14.6811 -11.2758 -14.7580 0.0000 33.6223 0.0000
# 6 0.0000 0.0000 0.0000 3.9679 0.0000 22.0297
#
#
#
# Elastic Compliance Matrix: (Units=1/GPa)
#
#
# Indices 1 2 3 4 5 6 
#
# 1 0.009990 -0.003117 0.000417 0.000000 0.003500 0.000000
# 2 -0.003117 0.011088 -0.008277 0.000000 -0.001276 0.000000
# 3 0.000417 -0.008277 0.034623 0.000000 0.012603 0.000000
# 4 0.000000 0.000000 0.000000 0.049650 0.000000 -0.008943
# 5 0.003500 -0.001276 0.012603 0.000000 0.036374 0.000000
# 6 0.000000 0.000000 0.000000 -0.008943 0.000000 0.047004
#
#
# Mechanical properties :
#
#
# Convention : Reuss Voigt Hill
#
# Bulk Modulus (GPa) = 29.63389 51.59705 40.61547
# Shear Modulus (GPa) = 22.52934 28.38381 25.45658
#
# Velocity S-wave (km/s) = 3.11614 3.49766 3.31240
# Velocity P-wave (km/s) = 5.07144 6.20888 5.66876
#
# Compressibility (1/GPa) = 0.03374515
#
# Stress axis : x y z
#
# Youngs Moduli (GPa) = 100.10272 90.18431 28.88277
#
# Poissons Ratio (x) = 0.28113 -0.01204
# Poissons Ratio (y) = 0.31205 0.23908
# Poissons Ratio (z) = -0.04173 0.74649
#
# Static dielectric constant tensor:
#      x y z
#    x 1.892950 0.000000 -0.019150 
#    y 0.000000 1.884540 0.000000 
#    z -0.019150 0.000000 1.981770 
# 
# From -- ./inp_files/246343.got.cif
#   From: 2010.05.17/outbox.cif.g08.bks.cpg/sg15_124_cif.got.tgz:246343.got - 2010.06.03 18:47:42.
