data_PCOD9301247
_publ_section_title
;
Structure prediction by ZEFSAII (Michael W. Deem and Ramdas Pophale) SiO2 
 PCOD9301247
Probable space group: C 2/C
;
_chemical_formula_sum "Si O2"
_cell_formula_units_Z 56
_cell_length_a 14.003540
_cell_length_b 13.910062
_cell_length_c 15.638505
_cell_angle_alpha 90.000000
_cell_angle_beta 63.199823
_cell_angle_gamma 90.000000
_cell_volume 2719.013977
_symmetry_space_group_name_H-M "C 2/C"
_symmetry_group_IT_number 15
_symmetry_cell_setting 'monoclinic'
loop_
_space_group_symop_operation_xyz
x,y,z
-x,y,1/2-z
-x,-y,-z
x,-y,1/2+z
1/2+x,1/2+y,z
1/2-x,1/2+y,1/2-z
1/2-x,1/2-y,-z
1/2+x,1/2-y,1/2+z
loop_
_atom_site_type_symbol
_atom_site_label
_atom_site_fract_x
_atom_site_fract_y
_atom_site_fract_z
Si Si1 0.753862 0.592064 0.957871
Si Si2 0.596807 0.789293 0.359325
Si Si3 0.500000 0.340283 0.750000
Si Si4 0.813316 0.477624 0.245141
Si Si5 0.825723 0.701705 0.231551
Si Si6 0.340786 0.490054 0.353832
Si Si7 0.612591 0.764453 0.983064
Si Si8 0.000000 0.168018 0.750000
O O1 0.782182 0.557334 0.852035
O O2 0.841406 0.664422 0.962673
O O3 0.735372 0.508011 0.034470
O O4 0.646928 0.656375 0.991276
O O5 0.540044 0.726426 0.309538
O O6 0.715936 0.744107 0.316437
O O7 0.514797 0.779278 0.471204
O O8 0.604242 0.899618 0.325814
O O9 0.594623 0.411506 0.685121
O O10 0.843511 0.589099 0.241128
O O11 0.719528 0.473051 0.211562
O O12 0.923014 0.765609 0.225627
O O13 0.824897 0.712011 0.129321
O O14 0.423928 0.403812 0.334334
#
# Coordination Sequence:
#
# PCOD9301247 Si02
#       8
#     8   8   4   8   8   8   8   4
#     4  11  22  43  74 110 140 181 250 296 357 423
#     4  12  23  41  73 105 138 186 240 297 361 422
#     4  11  20  39  72 104 134 175 240 301 350 404
#     4  12  25  44  72 103 147 189 233 303 356 430
#     4  12  26  49  67 104 154 187 242 300 361 431
#     4  11  22  44  72 102 141 189 239 294 356 425
#     4  11  23  43  74 107 143 186 239 310 353 418
#     4  11  26  47  68  96 154 199 228 303 366 422
#
# _framework density 20.595701999999999
#
# number of rings (size 3 to 8) (size 9 to 14) (size 15 to 20)
#    0.000    0.571    7.143    0.857    0.000    3.429 
#    2.571    4.286    0.000    0.000    0.000    0.000 
#    0.000    0.000    0.000    0.000    0.000    0.000 
#
# Total GULP energy -156418.679891 kJ/mol
# GULP energy per Si atom -5586.381425 kJ/mol
# Density = 2.054883 g / cm^3
# Si number density = 20.595702 Si / 1000 Ang^3
#
#
#
# Elastic Constant Matrix: (Units=GPa)
#
#
# Indices 1 2 3 4 5 6 
#
# 1 72.0135 24.0995 16.9219 0.0000 -0.8792 0.0000
# 2 24.0995 123.8761 7.9210 0.0000 -7.3004 0.0000
# 3 16.9219 7.9210 72.5969 0.0000 -3.2662 0.0000
# 4 0.0000 0.0000 0.0000 16.4129 0.0000 -0.8700
# 5 -0.8792 -7.3004 -3.2662 0.0000 27.3549 0.0000
# 6 0.0000 0.0000 0.0000 -0.8700 0.0000 45.6407
#
#
#
# Elastic Compliance Matrix: (Units=1/GPa)
#
#
# Indices 1 2 3 4 5 6 
#
# 1 0.015626 -0.002864 -0.003360 0.000000 -0.000663 0.000000
# 2 -0.002864 0.008773 -0.000189 0.000000 0.002227 0.000000
# 3 -0.003360 -0.000189 0.014650 0.000000 0.001591 0.000000
# 4 0.000000 0.000000 0.000000 0.060989 0.000000 0.001163
# 5 -0.000663 0.002227 0.001591 0.000000 0.037319 0.000000
# 6 0.000000 0.000000 0.000000 0.001163 0.000000 0.021932
#
#
# Mechanical properties :
#
#
# Convention : Reuss Voigt Hill
#
# Bulk Modulus (GPa) = 38.13496 40.70791 39.42144
# Shear Modulus (GPa) = 27.64600 32.51798 30.08199
#
# Velocity S-wave (km/s) = 3.66774 3.97781 3.82592
# Velocity P-wave (km/s) = 6.04091 6.39574 6.22086
#
# Compressibility (1/GPa) = 0.02622265
#
# Stress axis : x y z
#
# Youngs Moduli (GPa) = 63.99513 113.98420 68.25918
#
# Poissons Ratio (x) = 0.32648 0.22933
# Poissons Ratio (y) = 0.18330 0.01293
# Poissons Ratio (z) = 0.21500 0.02159
#
# Static dielectric constant tensor:
#      x y z
#    x 1.746400 0.000000 -0.036590 
#    y 0.000000 1.730400 0.000000 
#    z -0.036590 0.000000 1.778480 
# 
# From -- ./inp_files/173814.got.cif
#   From: 2010.05.17/outbox.cif.g08.bks.cpg/sg15_87_cif.got.tgz:173814.got - 2010.06.03 18:47:42.
