data_PCOD9301815
_publ_section_title
;
Structure prediction by ZEFSAII (Michael W. Deem and Ramdas Pophale) SiO2 
 PCOD9301815
Probable space group: C 2/C
;
_chemical_formula_sum "Si O2"
_cell_formula_units_Z 48
_cell_length_a 15.044144
_cell_length_b 25.554498
_cell_length_c 9.110540
_cell_angle_alpha 90.000000
_cell_angle_beta 38.847385
_cell_angle_gamma 90.000000
_cell_volume 2196.940672
_symmetry_space_group_name_H-M "C 2/C"
_symmetry_group_IT_number 15
_symmetry_cell_setting 'monoclinic'
loop_
_space_group_symop_operation_xyz
x,y,z
-x,y,1/2-z
-x,-y,-z
x,-y,1/2+z
1/2+x,1/2+y,z
1/2-x,1/2+y,1/2-z
1/2-x,1/2-y,-z
1/2+x,1/2-y,1/2+z
loop_
_atom_site_type_symbol
_atom_site_label
_atom_site_fract_x
_atom_site_fract_y
_atom_site_fract_z
Si Si1 0.946545 0.834413 0.602322
Si Si2 0.658804 0.926222 0.479706
Si Si3 0.728174 0.866778 0.666060
Si Si4 0.403342 0.032741 0.007961
Si Si5 0.488082 0.211512 0.588922
Si Si6 0.268967 0.642143 0.611570
O O1 0.878086 0.848415 0.536165
O O2 0.985403 0.773294 0.565684
O O3 0.087579 0.861390 0.479702
O O4 0.823184 0.851221 0.876381
O O5 0.500000 0.924666 0.750000
O O6 0.734941 0.885545 0.489819
O O7 0.675136 0.905414 0.293112
O O8 0.698791 0.987251 0.427012
O O9 0.675732 0.919333 0.816512
O O10 0.612317 0.821241 0.848821
O O11 0.500000 0.051819 0.750000
O O12 0.500000 0.000000 0.000000
O O13 0.500000 0.202667 0.750000
O O14 0.335800 0.190813 0.729998
#
# Coordination Sequence:
#
# PCOD9301815 Si02
#       6
#     8   8   8   8   8   8
#     4  11  25  39  64  97 133 178 226 266 328 400
#     4  11  23  42  64  99 136 164 221 280 334 396
#     4  12  24  40  68 102 131 176 220 276 344 385
#     4  11  21  39  66 102 129 165 225 289 332 383
#     4  12  20  40  70  97 128 171 236 278 314 385
#     4  11  22  41  63  92 134 174 215 278 328 392
#
# _framework density 21.848564
#
# number of rings (size 3 to 8) (size 9 to 14) (size 15 to 20)
#    0.000    0.667    8.333    2.000    2.333    0.667 
#    0.000    5.833    0.000    0.000    0.000    0.000 
#    0.000    0.000    0.000    0.000    0.000    0.000 
#
# Total GULP energy -133990.461915 kJ/mol
# GULP energy per Si atom -5582.935913 kJ/mol
# Density = 2.179884 g / cm^3
# Si number density = 21.848564 Si / 1000 Ang^3
#
#
#
# Elastic Constant Matrix: (Units=GPa)
#
#
# Indices 1 2 3 4 5 6 
#
# 1 98.0962 9.6551 15.1744 0.0000 -4.9777 0.0000
# 2 9.6551 99.5815 40.9391 0.0000 16.5531 0.0000
# 3 15.1744 40.9391 71.4391 0.0000 11.1382 0.0000
# 4 0.0000 0.0000 0.0000 -0.5881 0.0000 16.1177
# 5 -4.9777 16.5531 11.1382 0.0000 29.9949 0.0000
# 6 0.0000 0.0000 0.0000 16.1177 0.0000 29.4854
#
#
#
# Elastic Compliance Matrix: (Units=1/GPa)
#
#
# Indices 1 2 3 4 5 6 
#
# 1 0.010778 -0.000536 -0.002449 0.000000 0.002994 0.000000
# 2 -0.000536 0.013827 -0.007012 0.000000 -0.005116 0.000000
# 3 -0.002449 -0.007012 0.019103 0.000000 -0.003630 0.000000
# 4 0.000000 0.000000 0.000000 -0.106399 0.000000 0.058161
# 5 0.002994 -0.005116 -0.003630 0.000000 0.038007 0.000000
# 6 0.000000 0.000000 0.000000 0.058161 0.000000 0.002122
#
#
# Mechanical properties :
#
#
# Convention : Reuss Voigt Hill
#
# Bulk Modulus (GPa) = 42.17093 44.51711 43.34402
# Shear Modulus (GPa) = 936.99016 25.33498 481.16257
#
# Velocity S-wave (km/s) = 20.73132 3.40894 14.85612
# Velocity P-wave (km/s) = 24.33914 5.99283 17.72438
#
# Compressibility (1/GPa) = 0.02371302
#
# Stress axis : x y z
#
# Youngs Moduli (GPa) = 92.78557 72.32097 52.34875
#
# Poissons Ratio (x) = 0.03875 0.12820
# Poissons Ratio (y) = 0.04971 0.36709
# Poissons Ratio (z) = 0.22723 0.50715
#
# Static dielectric constant tensor:
#      x y z
#    x 1.914150 0.000000 0.039430 
#    y 0.000000 1.796510 0.000000 
#    z 0.039430 0.000000 1.788070 
# 
# From -- ./inp_files/43827.got.cif
#   From: 2010.05.17/outbox.cif.g08.bks.cpg/sg15_22_cif.got.tgz:43827.got - 2010.06.03 18:47:42.
