data_PCOD9301955
_publ_section_title
;
Structure prediction by ZEFSAII (Michael W. Deem and Ramdas Pophale) SiO2 
 PCOD9301955
Probable space group: C 2/C
;
_chemical_formula_sum "Si O2"
_cell_formula_units_Z 52
_cell_length_a 17.175024
_cell_length_b 18.430775
_cell_length_c 9.180912
_cell_angle_alpha 90.000000
_cell_angle_beta 121.801253
_cell_angle_gamma 90.000000
_cell_volume 2469.931911
_symmetry_space_group_name_H-M "C 2/C"
_symmetry_group_IT_number 15
_symmetry_cell_setting 'monoclinic'
loop_
_space_group_symop_operation_xyz
x,y,z
-x,y,1/2-z
-x,-y,-z
x,-y,1/2+z
1/2+x,1/2+y,z
1/2-x,1/2+y,1/2-z
1/2-x,1/2-y,-z
1/2+x,1/2-y,1/2+z
loop_
_atom_site_type_symbol
_atom_site_label
_atom_site_fract_x
_atom_site_fract_y
_atom_site_fract_z
Si Si1 0.000000 0.089539 0.750000
Si Si2 0.760284 0.482899 0.582928
Si Si3 0.223833 0.688797 0.352980
Si Si4 0.131550 0.016801 0.215159
Si Si5 0.592532 0.332221 0.594582
Si Si6 0.984783 0.300508 0.911429
Si Si7 0.051323 0.560160 0.645555
O O1 0.930983 0.138998 0.591584
O O2 0.058730 0.041493 0.696689
O O3 0.777852 0.395910 0.595461
O O4 0.727076 0.510604 0.394867
O O5 0.668048 0.494143 0.587994
O O6 0.847019 0.528828 0.723131
O O7 0.250000 0.750000 0.500000
O O8 0.303522 0.694165 0.311592
O O9 0.124479 0.698992 0.185995
O O10 0.089294 0.096731 0.189658
O O11 0.522388 0.267681 0.539224
O O12 0.000000 0.297697 0.750000
O O13 0.038448 0.368273 0.034390
O O14 0.000000 0.570053 0.750000
O O15 0.000000 0.500000 0.500000
#
# Coordination Sequence:
#
# PCOD9301955 Si02
#       7
#     4   8   8   8   8   8   8
#     4  12  20  44  68 104 134 178 232 282 336 426
#     4  11  25  42  69 102 137 173 227 285 346 404
#     4  11  21  40  69  98 130 175 231 282 335 409
#     4  11  24  42  67 102 136 177 224 283 342 413
#     4  11  24  42  66  99 138 177 233 280 343 411
#     4  12  25  44  70  97 136 182 231 282 341 408
#     4  12  26  45  71 103 138 178 231 283 342 407
#
# _framework density 21.053211999999998
#
# number of rings (size 3 to 8) (size 9 to 14) (size 15 to 20)
#    0.000    0.615    6.923    1.846    4.308    0.000 
#    1.385    0.769    0.000    0.000    0.000    0.000 
#    0.000    0.000    0.000    0.000    0.000    0.000 
#
# Total GULP energy -145136.058065 kJ/mol
# GULP energy per Si atom -5582.156079 kJ/mol
# Density = 2.100529 g / cm^3
# Si number density = 21.053212 Si / 1000 Ang^3
#
#
#
# Elastic Constant Matrix: (Units=GPa)
#
#
# Indices 1 2 3 4 5 6 
#
# 1 80.7687 16.8661 9.3232 0.0000 25.8208 0.0000
# 2 16.8661 120.8722 16.7268 0.0000 19.1131 0.0000
# 3 9.3232 16.7268 54.9450 0.0000 24.3834 0.0000
# 4 0.0000 0.0000 0.0000 43.6297 0.0000 0.6676
# 5 25.8208 19.1131 24.3834 0.0000 44.2673 0.0000
# 6 0.0000 0.0000 0.0000 0.6676 0.0000 22.3028
#
#
#
# Elastic Compliance Matrix: (Units=1/GPa)
#
#
# Indices 1 2 3 4 5 6 
#
# 1 0.015442 -0.000892 0.001956 0.000000 -0.009700 0.000000
# 2 -0.000892 0.009004 -0.001450 0.000000 -0.002569 0.000000
# 3 0.001956 -0.001450 0.024536 0.000000 -0.014029 0.000000
# 4 0.000000 0.000000 0.000000 0.022931 0.000000 -0.000686
# 5 -0.009700 -0.002569 -0.014029 0.000000 0.037085 0.000000
# 6 0.000000 0.000000 0.000000 -0.000686 0.000000 0.044858
#
#
# Mechanical properties :
#
#
# Convention : Reuss Voigt Hill
#
# Bulk Modulus (GPa) = 20.74225 38.04646 29.39436
# Shear Modulus (GPa) = 29.29159 36.28463 32.78811
#
# Velocity S-wave (km/s) = 3.73408 4.15598 3.95066
# Velocity P-wave (km/s) = 5.33524 6.41407 5.89937
#
# Compressibility (1/GPa) = 0.04821077
#
# Stress axis : x y z
#
# Youngs Moduli (GPa) = 64.75705 111.05567 40.75727
#
# Poissons Ratio (x) = 0.09902 -0.07971
# Poissons Ratio (y) = 0.05774 0.05909
# Poissons Ratio (z) = -0.12664 0.16101
#
# Static dielectric constant tensor:
#      x y z
#    x 1.958130 0.000000 0.349090 
#    y 0.000000 1.788260 0.000000 
#    z 0.349090 0.000000 2.440140 
# 
# From -- ./inp_files/49237.got.cif
#   From: 2010.05.17/outbox.cif.g08.bks.cpg/sg15_25_cif.got.tgz:49237.got - 2010.06.03 18:47:42.
