data_PCOD9301549
_publ_section_title
;
Structure prediction by ZEFSAII (Michael W. Deem and Ramdas Pophale) SiO2 
 PCOD9301549
Probable space group: C 2/C
;
_chemical_formula_sum "Si O2"
_cell_formula_units_Z 64
_cell_length_a 23.949903
_cell_length_b 13.287332
_cell_length_c 13.013973
_cell_angle_alpha 90.000000
_cell_angle_beta 115.819443
_cell_angle_gamma 90.000000
_cell_volume 3728.004921
_symmetry_space_group_name_H-M "C 2/C"
_symmetry_group_IT_number 15
_symmetry_cell_setting 'monoclinic'
loop_
_space_group_symop_operation_xyz
x,y,z
-x,y,1/2-z
-x,-y,-z
x,-y,1/2+z
1/2+x,1/2+y,z
1/2-x,1/2+y,1/2-z
1/2-x,1/2-y,-z
1/2+x,1/2-y,1/2+z
loop_
_atom_site_type_symbol
_atom_site_label
_atom_site_fract_x
_atom_site_fract_y
_atom_site_fract_z
Si Si1 0.966125 0.562770 0.829327
Si Si2 0.489892 0.625489 0.864567
Si Si3 0.097288 0.968013 0.589757
Si Si4 0.330962 0.880089 0.157546
Si Si5 0.193706 0.097157 0.542466
Si Si6 0.670251 0.169229 0.079860
Si Si7 0.808180 0.852610 0.693813
Si Si8 0.462051 0.848454 0.923415
O O1 0.892597 0.578535 0.758626
O O2 0.976541 0.445698 0.865502
O O3 0.000000 0.587538 0.750000
O O4 0.995686 0.632636 0.941589
O O5 0.500000 0.614977 0.750000
O O6 0.437402 0.548623 0.864533
O O7 0.474619 0.741215 0.880826
O O8 0.549050 0.591813 0.979851
O O9 0.139360 0.895657 0.691778
O O10 0.143513 0.027285 0.552977
O O11 0.264514 0.929544 0.128683
O O12 0.321540 0.764452 0.183311
O O13 0.338875 0.880035 0.040153
O O14 0.178530 0.211405 0.565386
O O15 0.189674 0.095836 0.416206
O O16 0.737350 0.135295 0.175957
O O17 0.609957 0.148990 0.099163
#
# Coordination Sequence:
#
# PCOD9301549 Si02
#       8
#     8   8   8   8   8   8   8   8
#     4  11  22  35  56  83 110 146 197 232 262 326
#     4  11  24  40  57  80 117 144 178 228 277 330
#     4  11  21  36  60  85 105 147 185 215 273 335
#     4   9  18  35  56  81 110 140 179 239 270 311
#     4   9  18  34  56  82 109 139 179 221 280 322
#     4   9  17  35  56  78 110 142 179 224 279 315
#     4   9  19  33  56  85 112 137 177 234 269 321
#     4  11  22  37  55  79 111 155 184 225 283 324
#
# _framework density 17.167359000000001
#
# number of rings (size 3 to 8) (size 9 to 14) (size 15 to 20)
#    0.000    2.000    2.500    3.375    1.750    0.000 
#    0.000    0.625    0.000    0.750    0.000    0.000 
#    0.000    0.000    0.000    0.000    0.000    0.000 
#
# Total GULP energy -178448.605757 kJ/mol
# GULP energy per Si atom -5576.518930 kJ/mol
# Density = 1.712829 g / cm^3
# Si number density = 17.167359 Si / 1000 Ang^3
#
#
#
# Elastic Constant Matrix: (Units=GPa)
#
#
# Indices 1 2 3 4 5 6 
#
# 1 106.5515 27.6382 44.4906 0.0000 10.2971 0.0000
# 2 27.6382 56.1992 34.2835 0.0000 -0.2519 0.0000
# 3 44.4906 34.2835 89.9472 0.0000 14.5628 0.0000
# 4 0.0000 0.0000 0.0000 25.0703 0.0000 11.9729
# 5 10.2971 -0.2519 14.5628 0.0000 29.5561 0.0000
# 6 0.0000 0.0000 0.0000 11.9729 0.0000 30.4846
#
#
#
# Elastic Compliance Matrix: (Units=1/GPa)
#
#
# Indices 1 2 3 4 5 6 
#
# 1 0.012327 -0.003337 -0.004483 0.000000 -0.002114 0.000000
# 2 -0.003337 0.024773 -0.008709 0.000000 0.005665 0.000000
# 3 -0.004483 -0.008709 0.017837 0.000000 -0.007301 0.000000
# 4 0.000000 0.000000 0.000000 0.049097 0.000000 -0.019283
# 5 -0.002114 0.005665 -0.007301 0.000000 0.038216 0.000000
# 6 0.000000 0.000000 0.000000 -0.019283 0.000000 0.040377
#
#
# Mechanical properties :
#
#
# Convention : Reuss Voigt Hill
#
# Bulk Modulus (GPa) = 45.70654 51.72472 48.71563
# Shear Modulus (GPa) = 22.42386 26.77460 24.59923
#
# Velocity S-wave (km/s) = 3.61805 3.95349 3.78948
# Velocity P-wave (km/s) = 6.64346 7.14389 6.89822
#
# Compressibility (1/GPa) = 0.02187871
#
# Stress axis : x y z
#
# Youngs Moduli (GPa) = 81.12332 40.36657 56.06465
#
# Poissons Ratio (x) = 0.13470 0.25135
# Poissons Ratio (y) = 0.27070 0.48826
# Poissons Ratio (z) = 0.36369 0.35155
#
# Static dielectric constant tensor:
#      x y z
#    x 1.581230 0.000000 0.008510 
#    y 0.000000 1.559860 0.000000 
#    z 0.008510 0.000000 1.571510 
# 
# From -- ./inp_files/117979.got.cif
#   From: 2010.05.17/outbox.cif.g08.bks.cpg/sg15_59_cif.got.tgz:117979.got - 2010.06.03 18:47:42.
