data_PCOD9301951
_publ_section_title
;
Structure prediction by ZEFSAII (Michael W. Deem and Ramdas Pophale) SiO2 
 PCOD9301951
Probable space group: C 2/C
;
_chemical_formula_sum "Si O2"
_cell_formula_units_Z 64
_cell_length_a 28.950405
_cell_length_b 18.483266
_cell_length_c 8.708465
_cell_angle_alpha 90.000000
_cell_angle_beta 143.890884
_cell_angle_gamma 90.000000
_cell_volume 2746.184822
_symmetry_space_group_name_H-M "C 2/C"
_symmetry_group_IT_number 15
_symmetry_cell_setting 'monoclinic'
loop_
_space_group_symop_operation_xyz
x,y,z
-x,y,1/2-z
-x,-y,-z
x,-y,1/2+z
1/2+x,1/2+y,z
1/2-x,1/2+y,1/2-z
1/2-x,1/2-y,-z
1/2+x,1/2-y,1/2+z
loop_
_atom_site_type_symbol
_atom_site_label
_atom_site_fract_x
_atom_site_fract_y
_atom_site_fract_z
Si Si1 0.882942 0.166844 0.298970
Si Si2 0.204031 0.661285 0.708178
Si Si3 0.426075 0.950290 0.152663
Si Si4 0.551915 0.552176 0.240365
Si Si5 0.821207 0.933615 0.886071
Si Si6 0.736364 0.704493 0.121496
Si Si7 0.320882 0.032783 0.086361
Si Si8 0.612210 0.823398 0.254576
O O1 0.927809 0.126380 0.285265
O O2 0.879274 0.113690 0.434529
O O3 0.917388 0.247028 0.388656
O O4 0.789905 0.171104 0.012194
O O5 0.184412 0.739517 0.582849
O O6 0.208593 0.602244 0.586842
O O7 0.145679 0.640547 0.688773
O O8 0.500000 0.969590 0.250000
O O9 0.440642 0.876616 0.287484
O O10 0.397762 0.007416 0.200847
O O11 0.351247 0.946334 0.835937
O O12 0.500000 0.564277 0.250000
O O13 0.632398 0.507156 0.460699
O O14 0.500000 0.500000 0.000000
O O15 0.801007 0.876596 0.969306
O O16 0.742464 0.967226 0.595510
O O17 0.816534 0.694363 0.434745
O O18 0.750000 0.750000 0.000000
#
# Coordination Sequence:
#
# PCOD9301951 Si02
#       8
#     8   8   8   8   8   8   8   8
#     4  11  21  42  69  94 138 188 224 284 355 407
#     4  11  21  40  69 105 135 174 230 293 348 405
#     4  12  26  45  68 101 143 180 222 288 359 422
#     4  12  27  43  68 102 143 186 236 289 348 413
#     4  12  23  44  73 101 137 183 236 288 348 417
#     4  11  22  38  68 106 141 171 230 297 350 411
#     4  12  25  42  74 107 132 177 240 289 351 417
#     4  11  22  43  67  97 142 183 230 287 353 420
#
# _framework density 23.305057999999999
#
# number of rings (size 3 to 8) (size 9 to 14) (size 15 to 20)
#    0.000    0.500    6.250    3.375    0.000    2.500 
#    0.000    1.250    2.750    0.000    0.000    0.000 
#    0.000    0.000    0.000    0.000    0.000    0.000 
#
# Total GULP energy -178689.540589 kJ/mol
# GULP energy per Si atom -5584.048143 kJ/mol
# Density = 2.325201 g / cm^3
# Si number density = 23.305058 Si / 1000 Ang^3
#
#
#
# Elastic Constant Matrix: (Units=GPa)
#
#
# Indices 1 2 3 4 5 6 
#
# 1 117.9596 16.0241 11.4746 0.0000 -7.8254 0.0000
# 2 16.0241 107.9752 1.9911 0.0000 0.1735 0.0000
# 3 11.4746 1.9911 37.6945 0.0000 -10.0855 0.0000
# 4 0.0000 0.0000 0.0000 4.8292 0.0000 -16.3140
# 5 -7.8254 0.1735 -10.0855 0.0000 33.7037 0.0000
# 6 0.0000 0.0000 0.0000 -16.3140 0.0000 49.8850
#
#
#
# Elastic Compliance Matrix: (Units=1/GPa)
#
#
# Indices 1 2 3 4 5 6 
#
# 1 0.008968 -0.001291 -0.002286 0.000000 0.001405 0.000000
# 2 -0.001291 0.009458 -0.000217 0.000000 -0.000413 0.000000
# 3 -0.002286 -0.000217 0.029453 0.000000 0.008284 0.000000
# 4 0.000000 0.000000 0.000000 -1.976232 0.000000 -0.646292
# 5 0.001405 -0.000413 0.008284 0.000000 0.032478 0.000000
# 6 0.000000 0.000000 0.000000 -0.646292 0.000000 -0.191313
#
#
# Mechanical properties :
#
#
# Convention : Reuss Voigt Hill
#
# Bulk Modulus (GPa) = 24.81979 35.84543 30.33261
# Shear Modulus (GPa) = -2.41994 33.29288 15.43647
#
# Velocity S-wave (km/s) = -1.02011 3.78374 2.57644
# Velocity P-wave (km/s) = 3.04722 5.87395 4.67915
#
# Compressibility (1/GPa) = 0.04029044
#
# Stress axis : x y z
#
# Youngs Moduli (GPa) = 111.50217 105.73444 33.95261
#
# Poissons Ratio (x) = 0.13651 0.07762
# Poissons Ratio (y) = 0.14396 0.00737
# Poissons Ratio (z) = 0.25489 0.02296
#
# Static dielectric constant tensor:
#      x y z
#    x 1.858330 0.000000 -0.025440 
#    y 0.000000 1.918930 0.000000 
#    z -0.025440 0.000000 1.908930 
# 
# From -- ./inp_files/70639.got.cif
#   From: 2010.05.17/outbox.cif.g08.bks.cpg/sg15_36_cif.got.tgz:70639.got - 2010.06.03 18:47:42.
