data_PCOD9301874
_publ_section_title
;
Structure prediction by ZEFSAII (Michael W. Deem and Ramdas Pophale) SiO2 
 PCOD9301874
Probable space group: C 2/C
;
_chemical_formula_sum "Si O2"
_cell_formula_units_Z 56
_cell_length_a 19.600644
_cell_length_b 20.476838
_cell_length_c 14.664085
_cell_angle_alpha 90.000000
_cell_angle_beta 151.209214
_cell_angle_gamma 90.000000
_cell_volume 2834.563403
_symmetry_space_group_name_H-M "C 2/C"
_symmetry_group_IT_number 15
_symmetry_cell_setting 'monoclinic'
loop_
_space_group_symop_operation_xyz
x,y,z
-x,y,1/2-z
-x,-y,-z
x,-y,1/2+z
1/2+x,1/2+y,z
1/2-x,1/2+y,1/2-z
1/2-x,1/2-y,-z
1/2+x,1/2-y,1/2+z
loop_
_atom_site_type_symbol
_atom_site_label
_atom_site_fract_x
_atom_site_fract_y
_atom_site_fract_z
Si Si1 0.303574 0.109703 0.366676
Si Si2 0.000000 0.396407 0.250000
Si Si3 0.500000 0.540417 0.750000
Si Si4 0.294154 0.993330 0.114487
Si Si5 0.904370 0.240513 0.721644
Si Si6 0.754788 0.461165 0.281653
Si Si7 0.498389 0.380899 0.434376
Si Si8 0.962782 0.616606 0.360661
O O1 0.391047 0.139072 0.553737
O O2 0.399367 0.116889 0.388592
O O3 0.282017 0.031878 0.358403
O O4 0.145807 0.133984 0.158100
O O5 0.099641 0.441931 0.304455
O O6 0.361625 0.498154 0.609933
O O7 0.466912 0.582945 0.621094
O O8 0.271960 0.974740 0.194277
O O9 0.363971 0.065271 0.190716
O O10 0.750000 0.250000 0.500000
O O11 0.917324 0.185703 0.814144
O O12 0.957199 0.310845 0.816362
O O13 0.000000 0.217553 0.750000
O O14 0.605288 0.429092 0.131925
O O15 0.880695 0.413007 0.457633
#
# Coordination Sequence:
#
# PCOD9301874 Si02
#       8
#     8   4   4   8   8   8   8   8
#     4  11  22  40  61  88 125 161 210 260 320 366
#     4  12  22  38  65  90 119 162 210 262 320 368
#     4  12  22  36  59  90 133 166 200 250 316 384
#     4  11  23  36  60  94 123 163 210 257 317 375
#     4  12  25  41  62  95 126 172 212 241 303 388
#     4  11  21  40  58  90 125 167 205 259 319 374
#     4  12  24  40  59  92 134 167 200 258 315 372
#     4  11  21  41  60  86 131 162 208 261 303 373
#
# _framework density 19.756129000000001
#
# number of rings (size 3 to 8) (size 9 to 14) (size 15 to 20)
#    0.000    0.571    6.429    4.714    3.000    0.000 
#    0.000    0.000    0.000    0.857    0.000    0.000 
#    0.000    0.000    0.000    0.000    0.000    0.000 
#
# Total GULP energy -156552.693428 kJ/mol
# GULP energy per Si atom -5591.167622 kJ/mol
# Density = 1.971116 g / cm^3
# Si number density = 19.756129 Si / 1000 Ang^3
#
#
#
# Elastic Constant Matrix: (Units=GPa)
#
#
# Indices 1 2 3 4 5 6 
#
# 1 68.8336 -0.0893 15.9401 0.0000 6.0106 0.0000
# 2 -0.0893 62.5646 13.0011 0.0000 -1.8376 0.0000
# 3 15.9401 13.0011 150.0337 0.0000 9.5890 0.0000
# 4 0.0000 0.0000 0.0000 18.7560 0.0000 -1.1554
# 5 6.0106 -1.8376 9.5890 0.0000 28.9812 0.0000
# 6 0.0000 0.0000 0.0000 -1.1554 0.0000 18.2207
#
#
#
# Elastic Compliance Matrix: (Units=1/GPa)
#
#
# Indices 1 2 3 4 5 6 
#
# 1 0.015095 0.000247 -0.001457 0.000000 -0.002633 0.000000
# 2 0.000247 0.016347 -0.001538 0.000000 0.001494 0.000000
# 3 -0.001457 -0.001538 0.007090 0.000000 -0.002141 0.000000
# 4 0.000000 0.000000 0.000000 0.053525 0.000000 0.003394
# 5 -0.002633 0.001494 -0.002141 0.000000 0.035854 0.000000
# 6 0.000000 0.000000 0.000000 0.003394 0.000000 0.055098
#
#
# Mechanical properties :
#
#
# Convention : Reuss Voigt Hill
#
# Bulk Modulus (GPa) = 30.26966 37.68174 33.97570
# Shear Modulus (GPa) = 25.06022 30.03023 27.54522
#
# Velocity S-wave (km/s) = 3.56543 3.90301 3.73803
# Velocity P-wave (km/s) = 5.68372 6.27902 5.98877
#
# Compressibility (1/GPa) = 0.03303638
#
# Stress axis : x y z
#
# Youngs Moduli (GPa) = 66.24531 61.17188 141.04142
#
# Poissons Ratio (x) = -0.01511 0.20548
# Poissons Ratio (y) = -0.01636 0.21697
# Poissons Ratio (z) = 0.09651 0.09410
#
# Static dielectric constant tensor:
#      x y z
#    x 1.714290 0.000000 -0.018200 
#    y 0.000000 1.673720 0.000000 
#    z -0.018200 0.000000 1.742440 
# 
# From -- ./inp_files/169202.got.cif
#   From: 2010.05.17/outbox.cif.g08.bks.cpg/sg15_85_cif.got.tgz:169202.got - 2010.06.03 18:47:42.
