data_PCOD9301553
_publ_section_title
;
Structure prediction by ZEFSAII (Michael W. Deem and Ramdas Pophale) SiO2 
 PCOD9301553
Probable space group: C 2/C
;
_chemical_formula_sum "Si O2"
_cell_formula_units_Z 48
_cell_length_a 26.720734
_cell_length_b 9.401694
_cell_length_c 8.715611
_cell_angle_alpha 90.000000
_cell_angle_beta 83.916208
_cell_angle_gamma 90.000000
_cell_volume 2177.205678
_symmetry_space_group_name_H-M "C 2/C"
_symmetry_group_IT_number 15
_symmetry_cell_setting 'monoclinic'
loop_
_space_group_symop_operation_xyz
x,y,z
-x,y,1/2-z
-x,-y,-z
x,-y,1/2+z
1/2+x,1/2+y,z
1/2-x,1/2+y,1/2-z
1/2-x,1/2-y,-z
1/2+x,1/2-y,1/2+z
loop_
_atom_site_type_symbol
_atom_site_label
_atom_site_fract_x
_atom_site_fract_y
_atom_site_fract_z
Si Si1 0.358084 0.415421 0.414326
Si Si2 0.440557 0.783571 0.744795
Si Si3 0.308310 0.372982 0.114442
Si Si4 0.060071 0.495906 0.487161
Si Si5 0.647849 0.835656 0.356719
Si Si6 0.298020 0.919904 0.470893
O O1 0.408081 0.347656 0.319651
O O2 0.319113 0.403467 0.287370
O O3 0.353580 0.570512 0.491059
O O4 0.346618 0.315545 0.564469
O O5 0.500000 0.754120 0.750000
O O6 0.426162 0.846512 0.581175
O O7 0.428998 0.922568 0.853350
O O8 0.258149 0.449777 0.069036
O O9 0.297863 0.206455 0.095003
O O10 0.089362 0.380578 0.373430
O O11 0.000000 0.500000 0.500000
O O12 0.672762 0.858066 0.185325
O O13 0.674419 0.947067 0.463877
#
# Coordination Sequence:
#
# PCOD9301553 Si02
#       6
#     8   8   8   8   8   8
#     4  11  23  39  59  82 116 152 191 240 294 347
#     4   9  18  34  58  87 117 151 190 236 289 347
#     4  11  24  40  56  80 115 156 191 235 289 348
#     4   9  17  31  54  84 115 143 178 227 281 333
#     4  11  21  36  60  88 113 145 189 242 289 342
#     4  11  23  38  59  84 112 148 196 238 287 345
#
# _framework density 22.046609
#
# number of rings (size 3 to 8) (size 9 to 14) (size 15 to 20)
#    0.000    1.667    0.000    6.000    0.000    5.333 
#    0.000    0.833    0.000    2.000    0.000    0.000 
#    0.000    0.000    0.000    0.000    0.000    0.000 
#
# Total GULP energy -133851.084780 kJ/mol
# GULP energy per Si atom -5577.128533 kJ/mol
# Density = 2.199643 g / cm^3
# Si number density = 22.046609 Si / 1000 Ang^3
#
#
#
# Elastic Constant Matrix: (Units=GPa)
#
#
# Indices 1 2 3 4 5 6 
#
# 1 54.5758 21.4779 14.2201 0.0000 -14.3417 0.0000
# 2 21.4779 47.2629 -4.7757 0.0000 0.6471 0.0000
# 3 14.2201 -4.7757 66.0919 0.0000 -8.0230 0.0000
# 4 0.0000 0.0000 0.0000 34.7551 0.0000 -9.1456
# 5 -14.3417 0.6471 -8.0230 0.0000 22.1270 0.0000
# 6 0.0000 0.0000 0.0000 -9.1456 0.0000 12.4926
#
#
#
# Elastic Compliance Matrix: (Units=1/GPa)
#
#
# Indices 1 2 3 4 5 6 
#
# 1 0.030158 -0.014492 -0.005347 0.000000 0.018032 0.000000
# 2 -0.014492 0.028278 0.004101 0.000000 -0.008733 0.000000
# 3 -0.005347 0.004101 0.016885 0.000000 0.002537 0.000000
# 4 0.000000 0.000000 0.000000 0.035638 0.000000 0.026090
# 5 0.018032 -0.008733 0.002537 0.000000 0.058056 0.000000
# 6 0.000000 0.000000 0.000000 0.026090 0.000000 0.099147
#
#
# Mechanical properties :
#
#
# Convention : Reuss Voigt Hill
#
# Bulk Modulus (GPa) = 22.80723 25.53059 24.16891
# Shear Modulus (GPa) = 15.91070 23.00884 19.45977
#
# Velocity S-wave (km/s) = 2.68933 3.23405 2.97419
# Velocity P-wave (km/s) = 4.47334 5.05479 4.77293
#
# Compressibility (1/GPa) = 0.04384575
#
# Stress axis : x y z
#
# Youngs Moduli (GPa) = 33.15858 35.36332 59.22357
#
# Poissons Ratio (x) = 0.51249 0.31666
# Poissons Ratio (y) = 0.48054 -0.24289
# Poissons Ratio (z) = 0.17730 -0.14503
#
# Static dielectric constant tensor:
#      x y z
#    x 1.853050 0.000000 -0.013550 
#    y 0.000000 1.783930 0.000000 
#    z -0.013550 0.000000 1.891580 
# 
# From -- ./inp_files/68571.got.cif
#   From: 2010.05.17/outbox.cif.g08.bks.cpg/sg15_35_cif.got.tgz:68571.got - 2010.06.03 18:47:42.
