data_PCOD9301310
_publ_section_title
;
Structure prediction by ZEFSAII (Michael W. Deem and Ramdas Pophale) SiO2 
 PCOD9301310
Probable space group: C 2/C
;
_chemical_formula_sum "Si O2"
_cell_formula_units_Z 52
_cell_length_a 13.680601
_cell_length_b 18.374763
_cell_length_c 14.666333
_cell_angle_alpha 90.000000
_cell_angle_beta 39.260066
_cell_angle_gamma 90.000000
_cell_volume 2333.153568
_symmetry_space_group_name_H-M "C 2/C"
_symmetry_group_IT_number 15
_symmetry_cell_setting 'monoclinic'
loop_
_space_group_symop_operation_xyz
x,y,z
-x,y,1/2-z
-x,-y,-z
x,-y,1/2+z
1/2+x,1/2+y,z
1/2-x,1/2+y,1/2-z
1/2-x,1/2-y,-z
1/2+x,1/2-y,1/2+z
loop_
_atom_site_type_symbol
_atom_site_label
_atom_site_fract_x
_atom_site_fract_y
_atom_site_fract_z
Si Si1 0.000000 0.150029 0.250000
Si Si2 0.184270 0.593216 0.132406
Si Si3 0.798143 0.271400 0.294030
Si Si4 0.750000 0.750000 0.500000
Si Si5 0.366451 0.943902 0.627539
Si Si6 0.500000 0.111172 0.750000
Si Si7 0.979948 0.284458 0.987070
Si Si8 0.271631 0.463343 0.954482
O O1 0.120274 0.202008 0.216647
O O2 0.898925 0.096794 0.386779
O O3 0.236293 0.675268 0.074299
O O4 0.200524 0.558973 0.221881
O O5 0.279681 0.542079 0.993422
O O6 0.000000 0.588013 0.250000
O O7 0.614643 0.266756 0.429510
O O8 0.879876 0.338887 0.282899
O O9 0.839623 0.277132 0.158196
O O10 0.587173 0.771343 0.564328
O O11 0.443138 0.864121 0.562894
O O12 0.233237 0.961606 0.651208
O O13 0.500000 0.000000 0.500000
O O14 0.395984 0.065055 0.892808
#
# Coordination Sequence:
#
# PCOD9301310 Si02
#       8
#     4   8   8   4   8   4   8   8
#     4  11  24  42  68 109 158 176 230 309 376 442
#     4  12  25  47  73 103 144 197 251 310 372 441
#     4  11  23  40  68 108 144 185 230 296 374 436
#     4  12  28  46  70  98 142 196 254 300 360 446
#     4  12  22  43  73 104 135 193 250 301 367 445
#     4  11  20  40  74 107 142 190 238 295 374 464
#     4  12  24  42  70 101 143 189 243 298 360 438
#     4  12  23  45  74 106 144 190 244 309 373 446
#
# _framework density 22.287430000000001
#
# number of rings (size 3 to 8) (size 9 to 14) (size 15 to 20)
#    0.000    0.308    6.923    1.846    0.000    2.462 
#    1.385    2.308    0.000    0.000    0.000    0.000 
#    0.000    0.000    0.000    0.000    0.000    0.000 
#
# Total GULP energy -144749.417993 kJ/mol
# GULP energy per Si atom -5567.285307 kJ/mol
# Density = 2.223670 g / cm^3
# Si number density = 22.287430 Si / 1000 Ang^3
#
#
#
# Elastic Constant Matrix: (Units=GPa)
#
#
# Indices 1 2 3 4 5 6 
#
# 1 105.9280 24.6253 15.4508 -0.0004 21.2990 0.0004
# 2 24.6253 78.1783 30.7164 -0.0004 13.7088 0.0005
# 3 15.4508 30.7164 61.9483 -0.0003 12.0530 0.0010
# 4 -0.0004 -0.0004 -0.0003 12.7603 0.0003 -7.6232
# 5 21.2990 13.7088 12.0530 0.0003 31.2162 -0.0004
# 6 0.0004 0.0005 0.0010 -7.6232 -0.0004 19.5364
#
#
#
# Elastic Compliance Matrix: (Units=1/GPa)
#
#
# Indices 1 2 3 4 5 6 
#
# 1 0.011352 -0.002250 -0.000434 0.000000 -0.006590 0.000000
# 2 -0.002250 0.016872 -0.007203 0.000000 -0.003093 0.000000
# 3 -0.000434 -0.007203 0.020705 0.000000 -0.004535 -0.000001
# 4 0.000000 0.000000 0.000000 0.102190 -0.000001 0.039875
# 5 -0.006590 -0.003093 -0.004535 -0.000001 0.039641 0.000001
# 6 0.000000 0.000000 -0.000001 0.039875 0.000001 0.066746
#
#
# Mechanical properties :
#
#
# Convention : Reuss Voigt Hill
#
# Bulk Modulus (GPa) = 34.29831 43.07109 38.68470
# Shear Modulus (GPa) = 17.42182 24.38672 20.90427
#
# Velocity S-wave (km/s) = 2.79890 3.31145 3.06590
# Velocity P-wave (km/s) = 5.08602 5.82993 5.47064
#
# Compressibility (1/GPa) = 0.02915596
#
# Stress axis : x y z
#
# Youngs Moduli (GPa) = 88.09299 59.26824 48.29848
#
# Poissons Ratio (x) = 0.13334 0.02094
# Poissons Ratio (y) = 0.19818 0.34790
# Poissons Ratio (z) = 0.03820 0.42691
#
# Static dielectric constant tensor:
#      x y z
#    x 1.889890 0.000000 0.053140 
#    y 0.000000 1.835120 0.000000 
#    z 0.053140 0.000000 1.818620 
# 
# From -- ./inp_files/155467.got.cif
#   From: 2010.05.17/outbox.cif.g08.bks.cpg/sg15_78_cif.got.tgz:155467.got - 2010.06.03 18:47:42.
