data_PCOD9301345
_publ_section_title
;
Structure prediction by ZEFSAII (Michael W. Deem and Ramdas Pophale) SiO2 
 PCOD9301345
Probable space group: C 2/C
;
_chemical_formula_sum "Si O2"
_cell_formula_units_Z 44
_cell_length_a 21.760296
_cell_length_b 18.928675
_cell_length_c 5.378494
_cell_angle_alpha 90.000000
_cell_angle_beta 69.702302
_cell_angle_gamma 90.000000
_cell_volume 2077.799167
_symmetry_space_group_name_H-M "C 2/C"
_symmetry_group_IT_number 15
_symmetry_cell_setting 'monoclinic'
loop_
_space_group_symop_operation_xyz
x,y,z
-x,y,1/2-z
-x,-y,-z
x,-y,1/2+z
1/2+x,1/2+y,z
1/2-x,1/2+y,1/2-z
1/2-x,1/2-y,-z
1/2+x,1/2-y,1/2+z
loop_
_atom_site_type_symbol
_atom_site_label
_atom_site_fract_x
_atom_site_fract_y
_atom_site_fract_z
Si Si1 0.883026 0.147740 0.488268
Si Si2 0.000000 0.956321 0.750000
Si Si3 0.710410 0.291295 0.763882
Si Si4 0.767547 0.046837 0.792289
Si Si5 0.456212 0.787669 0.560322
Si Si6 0.323695 0.848095 0.884279
O O1 0.852296 0.176334 0.277244
O O2 0.823807 0.108108 0.713054
O O3 0.919774 0.212126 0.572811
O O4 0.936268 0.090927 0.346848
O O5 0.000000 0.000000 0.500000
O O6 0.750000 0.250000 0.500000
O O7 0.763813 0.348708 0.772855
O O8 0.688090 0.229594 0.980520
O O9 0.774261 0.003433 0.524909
O O10 0.697704 0.088362 0.905646
O O11 0.500000 0.787383 0.750000
O O12 0.396747 0.844219 0.675197
O O13 0.500000 0.799236 0.250000
#
# Coordination Sequence:
#
# PCOD9301345 Si02
#       6
#     8   4   8   8   8   8
#     4  12  24  46  70 100 144 182 243 283 342 420
#     4  12  30  46  64  94 152 210 232 266 320 420
#     4  11  20  41  72 104 130 179 232 316 367 397
#     4  12  27  44  70 100 137 188 236 284 340 425
#     4  12  27  43  72 106 138 180 227 295 358 422
#     4  11  24  42  70 102 142 175 237 307 369 405
#
# _framework density 21.17625
#
# number of rings (size 3 to 8) (size 9 to 14) (size 15 to 20)
#    0.000    0.364    4.545    4.364    1.273    2.909 
#    0.000    0.000    0.000    3.273    0.000    0.000 
#    0.000    0.000    0.000    0.000    0.000    0.000 
#
# Total GULP energy -122948.363581 kJ/mol
# GULP energy per Si atom -5588.561981 kJ/mol
# Density = 2.112805 g / cm^3
# Si number density = 21.176250 Si / 1000 Ang^3
#
#
#
# Elastic Constant Matrix: (Units=GPa)
#
#
# Indices 1 2 3 4 5 6 
#
# 1 135.4898 34.0618 52.6165 0.0000 -4.1601 0.0000
# 2 34.0618 37.5446 17.9632 0.0000 -10.9213 0.0000
# 3 52.6165 17.9632 129.0758 0.0000 -20.1880 0.0000
# 4 0.0000 0.0000 0.0000 18.8296 0.0000 -72.2097
# 5 -4.1601 -10.9213 -20.1880 0.0000 51.1570 0.0000
# 6 0.0000 0.0000 0.0000 -72.2097 0.0000 -75.5443
#
#
#
# Elastic Compliance Matrix: (Units=1/GPa)
#
#
# Indices 1 2 3 4 5 6 
#
# 1 0.010946 -0.008915 -0.003602 0.000000 -0.002435 0.000000
# 2 -0.008915 0.036958 -0.000414 0.000000 0.007002 0.000000
# 3 -0.003602 -0.000414 0.009820 0.000000 0.003494 0.000000
# 4 0.000000 0.000000 0.000000 0.011383 0.000000 -0.010880
# 5 -0.002435 0.007002 0.003494 0.000000 0.022223 0.000000
# 6 0.000000 0.000000 0.000000 -0.010880 0.000000 -0.002837
#
#
# Mechanical properties :
#
#
# Convention : Reuss Voigt Hill
#
# Bulk Modulus (GPa) = 31.38637 56.82144 44.10391
# Shear Modulus (GPa) = 40.00760 12.05303 26.03032
#
# Velocity S-wave (km/s) = 4.35129 2.38833 3.50983
# Velocity P-wave (km/s) = 6.33234 5.87336 6.10717
#
# Compressibility (1/GPa) = 0.03186096
#
# Stress axis : x y z
#
# Youngs Moduli (GPa) = 91.35730 27.05762 101.83485
#
# Poissons Ratio (x) = 0.24123 0.36682
# Poissons Ratio (y) = 0.81449 0.04216
# Poissons Ratio (z) = 0.32908 0.01120
#
# Static dielectric constant tensor:
#      x y z
#    x 1.764810 0.000000 0.030590 
#    y 0.000000 1.784960 0.000000 
#    z 0.030590 0.000000 1.801400 
# 
# From -- ./inp_files/12865.got.cif
#   From: 2010.05.17/outbox.cif.g08.bks.cpg/sg15_7_cif.got.tgz:12865.got - 2010.06.03 18:47:42.
