data_PCOD9301531
_publ_section_title
;
Structure prediction by ZEFSAII (Michael W. Deem and Ramdas Pophale) SiO2 
 PCOD9301531
Probable space group: C 2/C
;
_chemical_formula_sum "Si O2"
_cell_formula_units_Z 36
_cell_length_a 29.872426
_cell_length_b 7.089805
_cell_length_c 8.504967
_cell_angle_alpha 90.000000
_cell_angle_beta 118.961028
_cell_angle_gamma 90.000000
_cell_volume 1576.014791
_symmetry_space_group_name_H-M "C 2/C"
_symmetry_group_IT_number 15
_symmetry_cell_setting 'monoclinic'
loop_
_space_group_symop_operation_xyz
x,y,z
-x,y,1/2-z
-x,-y,-z
x,-y,1/2+z
1/2+x,1/2+y,z
1/2-x,1/2+y,1/2-z
1/2-x,1/2-y,-z
1/2+x,1/2-y,1/2+z
loop_
_atom_site_type_symbol
_atom_site_label
_atom_site_fract_x
_atom_site_fract_y
_atom_site_fract_z
Si Si1 0.295055 0.490553 0.028361
Si Si2 0.928778 0.609473 0.389524
Si Si3 0.000000 0.624518 0.250000
Si Si4 0.777833 0.618529 0.834384
Si Si5 0.363938 0.180303 0.564734
O O1 0.244477 0.597080 0.876070
O O2 0.303678 0.312852 0.927902
O O3 0.274178 0.400746 0.152344
O O4 0.341826 0.632733 0.107451
O O5 0.966721 0.504223 0.575606
O O6 0.893413 0.723598 0.450978
O O7 0.897018 0.447301 0.242049
O O8 0.960279 0.718931 0.306030
O O9 0.817219 0.453107 0.932971
#
# Coordination Sequence:
#
# PCOD9301531 Si02
#       5
#     8   8   4   8   8
#     4  11  24  37  57  78 126 168 209 233 294 330
#     4   9  19  33  62  89 121 149 199 251 312 360
#     4   8  16  38  58  92 118 148 188 252 322 388
#     4  11  23  39  55  83 122 179 192 246 286 341
#     4  11  21  36  56  94 117 157 212 248 275 360
#
# _framework density 22.842423
#
# number of rings (size 3 to 8) (size 9 to 14) (size 15 to 20)
#    0.000    1.778    2.222    2.000    6.222    0.000 
#    0.000    0.000    0.000    0.000    0.000  108.889 
#    0.000    0.000    0.000    0.000    0.000    0.222 
#
# Total GULP energy -100495.137680 kJ/mol
# GULP energy per Si atom -5583.063204 kJ/mol
# Density = 2.279043 g / cm^3
# Si number density = 22.842423 Si / 1000 Ang^3
#
#
#
# Elastic Constant Matrix: (Units=GPa)
#
#
# Indices 1 2 3 4 5 6 
#
# 1 128.8362 26.8947 26.2178 0.0000 -22.9214 0.0000
# 2 26.8947 75.6943 11.4820 0.0000 -0.1350 0.0000
# 3 26.2178 11.4820 96.0831 0.0000 -7.0759 0.0000
# 4 0.0000 0.0000 0.0000 4.2179 0.0000 -0.9438
# 5 -22.9214 -0.1350 -7.0759 0.0000 37.3768 0.0000
# 6 0.0000 0.0000 0.0000 -0.9438 0.0000 52.2519
#
#
#
# Elastic Compliance Matrix: (Units=1/GPa)
#
#
# Indices 1 2 3 4 5 6 
#
# 1 0.009817 -0.003193 -0.001881 0.000000 0.005652 0.000000
# 2 -0.003193 0.014496 -0.001016 0.000000 -0.002098 0.000000
# 3 -0.001881 -0.001016 0.011112 0.000000 0.000947 0.000000
# 4 0.000000 0.000000 0.000000 0.238050 0.000000 0.004300
# 5 0.005652 -0.002098 0.000947 0.000000 0.030393 0.000000
# 6 0.000000 0.000000 0.000000 0.004300 0.000000 0.019216
#
#
# Mechanical properties :
#
#
# Convention : Reuss Voigt Hill
#
# Bulk Modulus (GPa) = 43.01759 47.75584 45.38671
# Shear Modulus (GPa) = 14.57688 34.50392 24.54040
#
# Velocity S-wave (km/s) = 2.52890 3.89076 3.28126
# Velocity P-wave (km/s) = 5.23453 6.41374 5.85390
#
# Compressibility (1/GPa) = 0.02324630
#
# Stress axis : x y z
#
# Youngs Moduli (GPa) = 101.86807 68.98612 89.99322
#
# Poissons Ratio (x) = 0.22024 0.16926
# Poissons Ratio (y) = 0.32522 0.09140
# Poissons Ratio (z) = 0.19160 0.07006
#
# Static dielectric constant tensor:
#      x y z
#    x 1.967260 0.000000 -0.049500 
#    y 0.000000 1.850920 0.000000 
#    z -0.049500 0.000000 1.925300 
# 
# From -- ./inp_files/64427.got.cif
#   From: 2010.05.17/outbox.cif.g08.bks.cpg/sg15_33_cif.got.tgz:64427.got - 2010.06.03 18:47:42.
