data_PCOD9301366
_publ_section_title
;
Structure prediction by ZEFSAII (Michael W. Deem and Ramdas Pophale) SiO2 
 PCOD9301366
Probable space group: C 2/C
;
_chemical_formula_sum "Si O2"
_cell_formula_units_Z 60
_cell_length_a 18.102855
_cell_length_b 10.916582
_cell_length_c 15.629959
_cell_angle_alpha 90.000000
_cell_angle_beta 80.503417
_cell_angle_gamma 90.000000
_cell_volume 3046.482021
_symmetry_space_group_name_H-M "C 2/C"
_symmetry_group_IT_number 15
_symmetry_cell_setting 'monoclinic'
loop_
_space_group_symop_operation_xyz
x,y,z
-x,y,1/2-z
-x,-y,-z
x,-y,1/2+z
1/2+x,1/2+y,z
1/2-x,1/2+y,1/2-z
1/2-x,1/2-y,-z
1/2+x,1/2-y,1/2+z
loop_
_atom_site_type_symbol
_atom_site_label
_atom_site_fract_x
_atom_site_fract_y
_atom_site_fract_z
Si Si1 0.550135 0.206803 0.468548
Si Si2 0.599727 0.812326 0.620621
Si Si3 0.415234 0.473522 0.049649
Si Si4 0.500000 0.953808 0.750000
Si Si5 0.327847 0.453050 0.397875
Si Si6 0.918322 0.086706 0.235216
Si Si7 0.049476 0.671379 0.855632
Si Si8 0.153698 0.534993 0.959664
O O1 0.478299 0.202276 0.418656
O O2 0.594293 0.328568 0.437016
O O3 0.514693 0.224467 0.570092
O O4 0.601856 0.086146 0.460358
O O5 0.644814 0.686847 0.623623
O O6 0.646216 0.910100 0.556426
O O7 0.570908 0.870464 0.714112
O O8 0.402709 0.537411 0.142979
O O9 0.500000 0.500000 0.000000
O O10 0.362000 0.517694 0.984286
O O11 0.518585 0.045829 0.822982
O O12 0.362409 0.538903 0.317605
O O13 0.239687 0.476358 0.418834
O O14 0.925043 0.232984 0.220944
O O15 0.000000 0.041367 0.250000
O O16 0.117550 0.636420 0.904227
#
# Coordination Sequence:
#
# PCOD9301366 Si02
#       8
#     8   8   8   4   8   8   8   8
#     4  11  20  42  69  91 125 176 227 282 326 406
#     4  11  22  40  69  92 130 176 233 278 332 412
#     4  12  22  41  68  96 128 172 231 277 334 406
#     4  12  22  36  68 106 116 168 240 284 326 406
#     4  12  27  44  65 101 140 183 220 285 352 412
#     4  12  23  41  70  97 131 176 231 281 335 400
#     4  11  21  41  67  93 131 171 225 281 331 411
#     4  11  24  46  63  95 140 180 219 282 361 403
#
# _framework density 19.694846999999999
#
# number of rings (size 3 to 8) (size 9 to 14) (size 15 to 20)
#    0.000    0.533    7.333    2.000    2.800    0.533 
#    7.200    0.000    0.000    0.000    0.000    0.000 
#    0.000    0.000    0.000    0.000    0.000    0.000 
#
# Total GULP energy -167608.124047 kJ/mol
# GULP energy per Si atom -5586.937468 kJ/mol
# Density = 1.965002 g / cm^3
# Si number density = 19.694847 Si / 1000 Ang^3
#
#
#
# Elastic Constant Matrix: (Units=GPa)
#
#
# Indices 1 2 3 4 5 6 
#
# 1 97.0536 20.2422 25.6219 0.0000 -20.5098 0.0000
# 2 20.2422 108.4742 17.1356 0.0000 -14.4676 0.0000
# 3 25.6219 17.1356 75.4852 0.0000 -5.7581 0.0000
# 4 0.0000 0.0000 0.0000 38.6187 0.0000 3.2945
# 5 -20.5098 -14.4676 -5.7581 0.0000 28.7611 0.0000
# 6 0.0000 0.0000 0.0000 3.2945 0.0000 11.6669
#
#
#
# Elastic Compliance Matrix: (Units=1/GPa)
#
#
# Indices 1 2 3 4 5 6 
#
# 1 0.013183 -0.000777 -0.003667 0.000000 0.008276 0.000000
# 2 -0.000777 0.010201 -0.001729 0.000000 0.004231 0.000000
# 3 -0.003667 -0.001729 0.014846 0.000000 -0.000513 0.000000
# 4 0.000000 0.000000 0.000000 0.026533 0.000000 -0.007492
# 5 0.008276 0.004231 -0.000513 0.000000 0.042696 0.000000
# 6 0.000000 0.000000 0.000000 -0.007492 0.000000 0.087829
#
#
# Mechanical properties :
#
#
# Convention : Reuss Voigt Hill
#
# Bulk Modulus (GPa) = 38.63495 45.22360 41.92927
# Shear Modulus (GPa) = 23.12011 30.34356 26.73184
#
# Velocity S-wave (km/s) = 3.42996 3.92941 3.68815
# Velocity P-wave (km/s) = 5.94521 6.60296 6.28270
#
# Compressibility (1/GPa) = 0.02588330
#
# Stress axis : x y z
#
# Youngs Moduli (GPa) = 75.85796 98.02695 67.35940
#
# Poissons Ratio (x) = 0.07616 0.24700
# Poissons Ratio (y) = 0.05894 0.11648
# Poissons Ratio (z) = 0.27816 0.16951
#
# Static dielectric constant tensor:
#      x y z
#    x 1.677700 0.000000 0.028640 
#    y 0.000000 1.715430 0.000000 
#    z 0.028640 0.000000 1.731300 
# 
# From -- ./inp_files/160908.got.cif
#   From: 2010.05.17/outbox.cif.g08.bks.cpg/sg15_81_cif.got.tgz:160908.got - 2010.06.03 18:47:42.
