data_PCOD9301499
_publ_section_title
;
Structure prediction by ZEFSAII (Michael W. Deem and Ramdas Pophale) SiO2 
 PCOD9301499
Probable space group: C 2/C
;
_chemical_formula_sum "Si O2"
_cell_formula_units_Z 56
_cell_length_a 13.485029
_cell_length_b 23.817370
_cell_length_c 9.340116
_cell_angle_alpha 90.000000
_cell_angle_beta 104.067323
_cell_angle_gamma 90.000000
_cell_volume 2909.876293
_symmetry_space_group_name_H-M "C 2/C"
_symmetry_group_IT_number 15
_symmetry_cell_setting 'monoclinic'
loop_
_space_group_symop_operation_xyz
x,y,z
-x,y,1/2-z
-x,-y,-z
x,-y,1/2+z
1/2+x,1/2+y,z
1/2-x,1/2+y,1/2-z
1/2-x,1/2-y,-z
1/2+x,1/2-y,1/2+z
loop_
_atom_site_type_symbol
_atom_site_label
_atom_site_fract_x
_atom_site_fract_y
_atom_site_fract_z
Si Si1 0.375320 0.146342 0.977380
Si Si2 0.114838 0.452165 0.232218
Si Si3 0.703083 0.126752 0.991694
Si Si4 0.256233 0.754793 0.327731
Si Si5 0.620350 0.918776 0.755543
Si Si6 0.421015 0.775993 0.955011
Si Si7 0.102489 0.179736 0.333294
O O1 0.394832 0.084613 0.915392
O O2 0.301360 0.181575 0.845843
O O3 0.332066 0.126202 0.116013
O O4 0.475603 0.187004 0.032524
O O5 0.183955 0.414862 0.358129
O O6 0.152102 0.516113 0.256960
O O7 0.000000 0.453023 0.250000
O O8 0.643721 0.103279 0.107821
O O9 0.651437 0.187663 0.964439
O O10 0.818814 0.137069 0.070611
O O11 0.250000 0.750000 0.500000
O O12 0.148064 0.742373 0.207475
O O13 0.335775 0.714303 0.269544
O O14 0.500000 0.917384 0.750000
O O15 0.438103 0.721774 0.057730
O O16 0.000000 0.149667 0.250000
#
# Coordination Sequence:
#
# PCOD9301499 Si02
#       7
#     8   8   8   8   8   8   8
#     4  12  21  36  59  81 123 155 185 237 291 333
#     4  11  21  35  57  87 114 154 195 232 288 359
#     4  11  21  36  57  79 115 150 194 236 285 338
#     4  11  24  36  57  85 115 156 197 232 291 345
#     4  11  22  36  55  86 120 151 188 240 296 351
#     4  11  21  37  55  81 114 155 193 225 275 354
#     4  11  22  39  58  82 112 154 203 238 275 345
#
# _framework density 19.244806000000001
#
# number of rings (size 3 to 8) (size 9 to 14) (size 15 to 20)
#    0.000    0.857    4.286    6.000    0.000    2.286 
#    0.000    0.000    0.000    0.857    0.000    0.000 
#    0.000    0.000    0.000    0.000    0.000    0.000 
#
# Total GULP energy -155984.072316 kJ/mol
# GULP energy per Si atom -5570.859726 kJ/mol
# Density = 1.920100 g / cm^3
# Si number density = 19.244806 Si / 1000 Ang^3
#
#
#
# Elastic Constant Matrix: (Units=GPa)
#
#
# Indices 1 2 3 4 5 6 
#
# 1 54.0428 28.5364 25.1838 0.0000 15.1199 0.0000
# 2 28.5364 79.7603 36.2343 0.0000 18.4794 0.0000
# 3 25.1838 36.2343 89.0214 0.0000 -2.6759 0.0000
# 4 0.0000 0.0000 0.0000 7.5681 0.0000 -2.2894
# 5 15.1199 18.4794 -2.6759 0.0000 27.8971 0.0000
# 6 0.0000 0.0000 0.0000 -2.2894 0.0000 15.1771
#
#
#
# Elastic Compliance Matrix: (Units=1/GPa)
#
#
# Indices 1 2 3 4 5 6 
#
# 1 0.027124 -0.003767 -0.006526 0.000000 -0.012832 0.000000
# 2 -0.003767 0.020037 -0.007449 0.000000 -0.011946 0.000000
# 3 -0.006526 -0.007449 0.016413 0.000000 0.010046 0.000000
# 4 0.000000 0.000000 0.000000 0.138450 0.000000 0.020884
# 5 -0.012832 -0.011946 0.010046 0.000000 0.051677 0.000000
# 6 0.000000 0.000000 0.000000 0.020884 0.000000 0.069039
#
#
# Mechanical properties :
#
#
# Convention : Reuss Voigt Hill
#
# Bulk Modulus (GPa) = 35.59878 44.74814 40.17346
# Shear Modulus (GPa) = 13.60220 18.98646 16.29433
#
# Velocity S-wave (km/s) = 2.66145 3.14439 2.91295
# Velocity P-wave (km/s) = 5.28985 6.04032 5.67750
#
# Compressibility (1/GPa) = 0.02809085
#
# Stress axis : x y z
#
# Youngs Moduli (GPa) = 36.86796 49.90782 60.92618
#
# Poissons Ratio (x) = 0.18799 0.39759
# Poissons Ratio (y) = 0.13887 0.45384
# Poissons Ratio (z) = 0.24059 0.37177
#
# Static dielectric constant tensor:
#      x y z
#    x 1.703210 0.000000 0.002750 
#    y 0.000000 1.772940 0.000000 
#    z 0.002750 0.000000 1.803720 
# 
# From -- ./inp_files/42287.got.cif
#   From: 2010.05.17/outbox.cif.g08.bks.cpg/sg15_22_cif.got.tgz:42287.got - 2010.06.03 18:47:42.
