data_PCOD9301791
_publ_section_title
;
Structure prediction by ZEFSAII (Michael W. Deem and Ramdas Pophale) SiO2 
 PCOD9301791
Probable space group: C 2/C
;
_chemical_formula_sum "Si O2"
_cell_formula_units_Z 48
_cell_length_a 18.387606
_cell_length_b 26.835059
_cell_length_c 10.065656
_cell_angle_alpha 90.000000
_cell_angle_beta 146.218100
_cell_angle_gamma 90.000000
_cell_volume 2761.661557
_symmetry_space_group_name_H-M "C 2/C"
_symmetry_group_IT_number 15
_symmetry_cell_setting 'monoclinic'
loop_
_space_group_symop_operation_xyz
x,y,z
-x,y,1/2-z
-x,-y,-z
x,-y,1/2+z
1/2+x,1/2+y,z
1/2-x,1/2+y,1/2-z
1/2-x,1/2-y,-z
1/2+x,1/2-y,1/2+z
loop_
_atom_site_type_symbol
_atom_site_label
_atom_site_fract_x
_atom_site_fract_y
_atom_site_fract_z
Si Si1 0.240408 0.340712 0.968380
Si Si2 0.835858 0.541637 0.851863
Si Si3 0.000000 0.207104 0.750000
Si Si4 0.255106 0.848584 0.205121
Si Si5 0.000000 0.212937 0.250000
Si Si6 0.350022 0.048087 0.181952
Si Si7 0.010801 0.279866 0.004247
O O1 0.237795 0.339022 0.124948
O O2 0.380435 0.324574 0.125894
O O3 0.129286 0.303769 0.744188
O O4 0.205968 0.397183 0.876448
O O5 0.761822 0.591956 0.697383
O O6 0.804101 0.493748 0.715188
O O7 0.814737 0.533543 0.976898
O O8 0.991838 0.551292 0.071856
O O9 0.951882 0.242561 0.558229
O O10 0.381789 0.823282 0.331653
O O11 0.127005 0.821961 0.954761
O O12 0.006543 0.248364 0.131735
#
# Coordination Sequence:
#
# PCOD9301791 Si02
#       7
#     8   8   4   8   4   8   8
#     4  11  21  39  64  87 112 159 203 234 284 352
#     4   9  18  36  61  85 112 145 187 242 289 342
#     4  12  22  36  63  84 117 154 202 238 272 354
#     4  11  21  40  62  85 119 159 193 235 299 345
#     4  12  26  38  53  92 129 150 188 246 296 338
#     4   9  18  36  60  87 112 141 191 242 288 340
#     4  12  22  41  61  86 115 159 201 240 281 343
#
# _framework density 17.380841
#
# number of rings (size 3 to 8) (size 9 to 14) (size 15 to 20)
#    0.000    1.333    5.000    2.000    0.000    0.000 
#    6.000    0.833    0.000    4.000    0.000    0.000 
#    0.000    0.000    0.000    0.000    0.000    0.000 
#
# Total GULP energy -134047.054526 kJ/mol
# GULP energy per Si atom -5585.293939 kJ/mol
# Density = 1.734128 g / cm^3
# Si number density = 17.380841 Si / 1000 Ang^3
#
#
#
# Elastic Constant Matrix: (Units=GPa)
#
#
# Indices 1 2 3 4 5 6 
#
# 1 52.2926 42.3086 5.5980 0.0000 -4.4984 0.0000
# 2 42.3086 121.1877 34.9417 0.0000 -12.1092 0.0000
# 3 5.5980 34.9417 57.0791 0.0000 4.0347 0.0000
# 4 0.0000 0.0000 0.0000 4.9296 0.0000 -16.5143
# 5 -4.4984 -12.1092 4.0347 0.0000 28.9378 0.0000
# 6 0.0000 0.0000 0.0000 -16.5143 0.0000 29.3971
#
#
#
# Elastic Compliance Matrix: (Units=1/GPa)
#
#
# Indices 1 2 3 4 5 6 
#
# 1 0.027343 -0.010772 0.003970 0.000000 -0.000810 0.000000
# 2 -0.010772 0.015068 -0.008580 0.000000 0.005827 0.000000
# 3 0.003970 -0.008580 0.022817 0.000000 -0.006155 0.000000
# 4 0.000000 0.000000 0.000000 -0.230014 0.000000 -0.129214
# 5 -0.000810 0.005827 -0.006155 0.000000 0.037727 0.000000
# 6 0.000000 0.000000 0.000000 -0.129214 0.000000 -0.038571
#
#
# Mechanical properties :
#
#
# Convention : Reuss Voigt Hill
#
# Bulk Modulus (GPa) = 29.01433 44.02845 36.52139
# Shear Modulus (GPa) = -40.52651 22.50030 -9.01311
#
# Velocity S-wave (km/s) = -4.83398 3.60188 -2.27967
# Velocity P-wave (km/s) = 3.79829 6.53335 3.75883
#
# Compressibility (1/GPa) = 0.03446573
#
# Stress axis : x y z
#
# Youngs Moduli (GPa) = 36.57182 66.36491 43.82606
#
# Poissons Ratio (x) = 0.71485 -0.17397
# Poissons Ratio (y) = 0.39393 0.37601
# Poissons Ratio (z) = -0.14517 0.56939
#
# Static dielectric constant tensor:
#      x y z
#    x 1.579490 0.000000 -0.011620 
#    y 0.000000 1.573170 0.000000 
#    z -0.011620 0.000000 1.584570 
# 
# From -- ./inp_files/114657.got.cif
#   From: 2010.05.17/outbox.cif.g08.bks.cpg/sg15_58_cif.got.tgz:114657.got - 2010.06.03 18:47:42.
