data_PCOD9301900
_publ_section_title
;
Structure prediction by ZEFSAII (Michael W. Deem and Ramdas Pophale) SiO2 
 PCOD9301900
Probable space group: C 2/C
;
_chemical_formula_sum "Si O2"
_cell_formula_units_Z 44
_cell_length_a 8.181264
_cell_length_b 12.415492
_cell_length_c 20.457357
_cell_angle_alpha 90.000000
_cell_angle_beta 74.937785
_cell_angle_gamma 90.000000
_cell_volume 2006.554727
_symmetry_space_group_name_H-M "C 2/C"
_symmetry_group_IT_number 15
_symmetry_cell_setting 'monoclinic'
loop_
_space_group_symop_operation_xyz
x,y,z
-x,y,1/2-z
-x,-y,-z
x,-y,1/2+z
1/2+x,1/2+y,z
1/2-x,1/2+y,1/2-z
1/2-x,1/2-y,-z
1/2+x,1/2-y,1/2+z
loop_
_atom_site_type_symbol
_atom_site_label
_atom_site_fract_x
_atom_site_fract_y
_atom_site_fract_z
Si Si1 0.497779 0.263664 0.652264
Si Si2 0.665925 0.721066 0.939029
Si Si3 0.360161 0.058524 0.711962
Si Si4 0.500000 0.453883 0.750000
Si Si5 0.350900 0.340820 0.530320
Si Si6 0.512804 0.053067 0.069856
O O1 0.674727 0.199738 0.623746
O O2 0.373275 0.187596 0.705763
O O3 0.530709 0.374690 0.685662
O O4 0.416784 0.289712 0.590706
O O5 0.575528 0.829839 0.923257
O O6 0.750000 0.750000 0.000000
O O7 0.517583 0.635597 0.969291
O O8 0.500000 0.020384 0.750000
O O9 0.419966 0.014804 0.635026
O O10 0.170210 0.020725 0.744859
O O11 0.250000 0.250000 0.500000
O O12 0.213167 0.431070 0.560318
O O13 0.500000 0.000000 0.000000
#
# Coordination Sequence:
#
# PCOD9301900 Si02
#       6
#     8   8   8   4   8   8
#     4  11  22  47  68  96 142 180 231 296 350 423
#     4   9  18  37  65  93 133 174 215 282 349 407
#     4  12  26  47  71 106 139 190 243 290 364 429
#     4  12  26  50  70 100 144 188 244 292 354 430
#     4   9  19  37  67 101 131 180 223 283 363 416
#     4  11  21  40  65 101 140 173 236 292 339 431
#
# _framework density 21.928134
#
# number of rings (size 3 to 8) (size 9 to 14) (size 15 to 20)
#    0.000    1.455    2.727    4.364    0.000    0.000 
#   14.727    4.545    0.000    0.000    0.000    0.000 
#    0.000    0.000    0.000    0.000    0.000    0.000 
#
# Total GULP energy -122918.710184 kJ/mol
# GULP energy per Si atom -5587.214099 kJ/mol
# Density = 2.187822 g / cm^3
# Si number density = 21.928134 Si / 1000 Ang^3
#
#
#
# Elastic Constant Matrix: (Units=GPa)
#
#
# Indices 1 2 3 4 5 6 
#
# 1 152.3625 29.9956 44.7548 0.0000 -23.9182 0.0000
# 2 29.9956 46.2514 1.7107 0.0000 -16.1684 0.0000
# 3 44.7548 1.7107 80.5829 0.0000 -6.6967 0.0000
# 4 0.0000 0.0000 0.0000 25.3157 0.0000 -3.9440
# 5 -23.9182 -16.1684 -6.6967 0.0000 51.0480 0.0000
# 6 0.0000 0.0000 0.0000 -3.9440 0.0000 39.4980
#
#
#
# Elastic Compliance Matrix: (Units=1/GPa)
#
#
# Indices 1 2 3 4 5 6 
#
# 1 0.009348 -0.005145 -0.004908 0.000000 0.002107 0.000000
# 2 -0.005145 0.027145 0.002826 0.000000 0.006558 0.000000
# 3 -0.004908 0.002826 0.015123 0.000000 0.000580 0.000000
# 4 0.000000 0.000000 0.000000 0.040125 0.000000 0.004007
# 5 0.002107 0.006558 0.000580 0.000000 0.022730 0.000000
# 6 0.000000 0.000000 0.000000 0.004007 0.000000 0.025718
#
#
# Mechanical properties :
#
#
# Convention : Reuss Voigt Hill
#
# Bulk Modulus (GPa) = 26.90737 48.01324 37.46031
# Shear Modulus (GPa) = 29.93450 36.68806 33.31128
#
# Velocity S-wave (km/s) = 3.69876 4.09480 3.90181
# Velocity P-wave (km/s) = 5.52616 6.65581 6.11711
#
# Compressibility (1/GPa) = 0.03716454
#
# Stress axis : x y z
#
# Youngs Moduli (GPa) = 106.96931 36.83853 66.12252
#
# Poissons Ratio (x) = 0.18953 0.32451
# Poissons Ratio (y) = 0.55033 -0.18687
# Poissons Ratio (z) = 0.52498 -0.10411
#
# Static dielectric constant tensor:
#      x y z
#    x 1.807590 0.000000 -0.032980 
#    y 0.000000 1.785490 0.000000 
#    z -0.032980 0.000000 1.829970 
# 
# From -- ./inp_files/263431.got.cif
#   From: 2010.05.17/outbox.cif.g08.bks.cpg/sg15_132_cif.got.tgz:263431.got - 2010.06.03 18:47:42.
