data_PCOD9301267
_publ_section_title
;
Structure prediction by ZEFSAII (Michael W. Deem and Ramdas Pophale) SiO2 
 PCOD9301267
Probable space group: C 2/C
;
_chemical_formula_sum "Si O2"
_cell_formula_units_Z 40
_cell_length_a 20.982126
_cell_length_b 10.051420
_cell_length_c 12.499749
_cell_angle_alpha 90.000000
_cell_angle_beta 140.958642
_cell_angle_gamma 90.000000
_cell_volume 1660.492229
_symmetry_space_group_name_H-M "C 2/C"
_symmetry_group_IT_number 15
_symmetry_cell_setting 'monoclinic'
loop_
_space_group_symop_operation_xyz
x,y,z
-x,y,1/2-z
-x,-y,-z
x,-y,1/2+z
1/2+x,1/2+y,z
1/2-x,1/2+y,1/2-z
1/2-x,1/2-y,-z
1/2+x,1/2-y,1/2+z
loop_
_atom_site_type_symbol
_atom_site_label
_atom_site_fract_x
_atom_site_fract_y
_atom_site_fract_z
Si Si1 0.638326 0.714815 0.891569
Si Si2 0.057679 0.641082 0.086450
Si Si3 0.287007 0.371267 0.801940
Si Si4 0.182322 0.928935 0.000820
Si Si5 0.625645 0.769991 0.278177
O O1 0.568439 0.800079 0.721574
O O2 0.631964 0.554168 0.873251
O O3 0.750000 0.750000 0.000000
O O4 0.648192 0.725790 0.033693
O O5 0.169919 0.638666 0.182561
O O6 0.000000 0.500000 0.000000
O O7 0.982865 0.726358 0.915799
O O8 0.311329 0.331233 0.715101
O O9 0.319422 0.519751 0.879809
O O10 0.126159 0.796401 0.894255
O O11 0.302015 0.900780 0.130696
#
# Coordination Sequence:
#
# PCOD9301267 Si02
#       5
#     8   8   8   8   8
#     4   8  17  37  57  85 129 154 201 265 305 362
#     4  11  20  40  65  94 121 164 222 259 297 395
#     4   9  21  40  59  94 125 170 199 262 325 369
#     4   9  21  41  58  94 131 159 212 259 322 375
#     4  11  21  39  70  89 128 172 205 269 319 378
#
# _framework density 24.089241000000001
#
# number of rings (size 3 to 8) (size 9 to 14) (size 15 to 20)
#    1.200    1.200    2.000    0.000    0.000    4.800 
#    0.000    8.000    0.000    0.000    0.000    0.000 
#    0.000    0.000    0.000    0.000    0.000    0.000 
#
# Total GULP energy -111357.734556 kJ/mol
# GULP energy per Si atom -5567.886728 kJ/mol
# Density = 2.403441 g / cm^3
# Si number density = 24.089241 Si / 1000 Ang^3
#
#
#
# Elastic Constant Matrix: (Units=GPa)
#
#
# Indices 1 2 3 4 5 6 
#
# 1 66.2149 15.9828 29.0462 0.0000 4.4219 0.0000
# 2 15.9828 79.5146 40.4019 0.0000 -9.7346 0.0000
# 3 29.0462 40.4019 178.0410 0.0000 4.5484 0.0000
# 4 0.0000 0.0000 0.0000 53.8866 0.0000 -8.7972
# 5 4.4219 -9.7346 4.5484 0.0000 36.9690 0.0000
# 6 0.0000 0.0000 0.0000 -8.7972 0.0000 16.2993
#
#
#
# Elastic Compliance Matrix: (Units=1/GPa)
#
#
# Indices 1 2 3 4 5 6 
#
# 1 0.016813 -0.002619 -0.002086 0.000000 -0.002444 0.000000
# 2 -0.002619 0.015289 -0.003163 0.000000 0.004728 0.000000
# 3 -0.002086 -0.003163 0.006711 0.000000 -0.001409 0.000000
# 4 0.000000 0.000000 0.000000 0.020351 0.000000 0.010984
# 5 -0.002444 0.004728 -0.001409 0.000000 0.028760 0.000000
# 6 0.000000 0.000000 0.000000 0.010984 0.000000 0.067281
#
#
# Mechanical properties :
#
#
# Convention : Reuss Voigt Hill
#
# Bulk Modulus (GPa) = 43.33392 54.95915 49.14653
# Shear Modulus (GPa) = 27.99054 37.32027 32.65540
#
# Velocity S-wave (km/s) = 3.41244 3.94032 3.68584
# Velocity P-wave (km/s) = 5.79261 6.60044 6.20968
#
# Compressibility (1/GPa) = 0.02307661
#
# Stress axis : x y z
#
# Youngs Moduli (GPa) = 59.47856 65.40819 149.01392
#
# Poissons Ratio (x) = 0.17128 0.31088
# Poissons Ratio (y) = 0.15575 0.47132
# Poissons Ratio (z) = 0.12409 0.20688
#
# Static dielectric constant tensor:
#      x y z
#    x 1.930860 0.000000 -0.021170 
#    y 0.000000 2.055710 0.000000 
#    z -0.021170 0.000000 2.005940 
# 
# From -- ./inp_files/177420.got.cif
#   From: 2010.05.17/outbox.cif.g08.bks.cpg/sg15_89_cif.got.tgz:177420.got - 2010.06.03 18:47:42.
