data_PCOD9301373
_publ_section_title
;
Structure prediction by ZEFSAII (Michael W. Deem and Ramdas Pophale) SiO2 
 PCOD9301373
Probable space group: C 2/C
;
_chemical_formula_sum "Si O2"
_cell_formula_units_Z 56
_cell_length_a 14.263252
_cell_length_b 19.067508
_cell_length_c 16.504455
_cell_angle_alpha 90.000000
_cell_angle_beta 142.250444
_cell_angle_gamma 90.000000
_cell_volume 2747.988541
_symmetry_space_group_name_H-M "C 2/C"
_symmetry_group_IT_number 15
_symmetry_cell_setting 'monoclinic'
loop_
_space_group_symop_operation_xyz
x,y,z
-x,y,1/2-z
-x,-y,-z
x,-y,1/2+z
1/2+x,1/2+y,z
1/2-x,1/2+y,1/2-z
1/2-x,1/2-y,-z
1/2+x,1/2-y,1/2+z
loop_
_atom_site_type_symbol
_atom_site_label
_atom_site_fract_x
_atom_site_fract_y
_atom_site_fract_z
Si Si1 0.680497 0.238069 0.864072
Si Si2 0.262020 0.640024 0.783648
Si Si3 0.900706 0.799672 0.996254
Si Si4 0.859690 0.907973 0.099715
Si Si5 0.931639 0.000174 0.363422
Si Si6 0.233348 0.854269 0.763616
Si Si7 0.587952 0.142450 0.507507
O O1 0.500000 0.239404 0.750000
O O2 0.724820 0.165235 0.848916
O O3 0.726183 0.300755 0.833863
O O4 0.750000 0.250000 0.000000
O O5 0.306526 0.560797 0.791264
O O6 0.123795 0.653771 0.627354
O O7 0.417920 0.683426 0.872027
O O8 0.841207 0.816433 0.865500
O O9 0.875134 0.719669 0.002040
O O10 0.822928 0.855110 0.002237
O O11 0.708597 0.911950 0.051110
O O12 0.000000 0.878258 0.250000
O O13 0.938458 0.975085 0.111287
O O14 0.861002 0.074021 0.289954
O O15 0.000000 0.000000 0.500000
O O16 0.411260 0.873131 0.871284
#
# Coordination Sequence:
#
# PCOD9301373 Si02
#       7
#     8   8   8   8   8   8   8
#     4  12  25  44  71 107 136 184 248 300 347 427
#     4  11  22  45  69  95 143 186 224 293 364 407
#     4  11  20  42  71  98 144 181 218 287 362 415
#     4  11  23  42  67 104 136 183 230 274 349 431
#     4  11  24  47  72  91 145 200 226 280 369 431
#     4  12  25  43  74 105 138 187 238 293 360 425
#     4  12  22  41  71 106 139 168 236 294 346 418
#
# _framework density 20.378541999999999
#
# number of rings (size 3 to 8) (size 9 to 14) (size 15 to 20)
#    0.000    0.571    8.571    2.143    0.000    1.714 
#    0.000    1.429    0.000    0.000    0.000    0.000 
#    0.000    0.000    0.000    0.000    0.000    0.000 
#
# Total GULP energy -156260.469220 kJ/mol
# GULP energy per Si atom -5580.731044 kJ/mol
# Density = 2.033216 g / cm^3
# Si number density = 20.378542 Si / 1000 Ang^3
#
#
#
# Elastic Constant Matrix: (Units=GPa)
#
#
# Indices 1 2 3 4 5 6 
#
# 1 108.1520 31.8673 25.7583 0.0006 -2.9996 0.0005
# 2 31.8673 89.9834 17.3495 0.0005 -1.9487 0.0008
# 3 25.7583 17.3495 77.8464 0.0018 -4.5298 0.0021
# 4 0.0006 0.0005 0.0018 23.7739 0.0003 -2.7258
# 5 -2.9996 -1.9487 -4.5298 0.0003 43.0304 0.0003
# 6 0.0005 0.0008 0.0021 -2.7258 0.0003 20.8592
#
#
#
# Elastic Compliance Matrix: (Units=1/GPa)
#
#
# Indices 1 2 3 4 5 6 
#
# 1 0.010909 -0.003306 -0.002855 0.000000 0.000310 0.000000
# 2 -0.003306 0.012617 -0.001709 0.000000 0.000161 0.000000
# 3 -0.002855 -0.001709 0.014242 -0.000001 0.001223 -0.000001
# 4 0.000000 0.000000 -0.000001 0.042703 0.000000 0.005580
# 5 0.000310 0.000161 0.001223 0.000000 0.023397 0.000000
# 6 0.000000 0.000000 -0.000001 0.005580 0.000000 0.048670
#
#
# Mechanical properties :
#
#
# Convention : Reuss Voigt Hill
#
# Bulk Modulus (GPa) = 45.39427 47.32580 46.36003
# Shear Modulus (GPa) = 28.47059 30.93315 29.70187
#
# Velocity S-wave (km/s) = 3.74182 3.90029 3.82187
# Velocity P-wave (km/s) = 6.40251 6.59975 6.50188
#
# Compressibility (1/GPa) = 0.02202921
#
# Stress axis : x y z
#
# Youngs Moduli (GPa) = 91.66794 79.25838 70.21316
#
# Poissons Ratio (x) = 0.26205 0.20044
# Poissons Ratio (y) = 0.30308 0.11996
# Poissons Ratio (z) = 0.26169 0.13542
#
# Static dielectric constant tensor:
#      x y z
#    x 1.971750 0.000000 -0.570560 
#    y 0.000000 1.790860 -0.000010 
#    z -0.570560 -0.000010 3.167890 
# 
# From -- ./inp_files/207000.got.cif
#   From: 2010.05.17/outbox.cif.g08.bks.cpg/sg15_104_cif.got.tgz:207000.got - 2010.06.03 18:47:42.
