data_PCOD9301610
_publ_section_title
;
Structure prediction by ZEFSAII (Michael W. Deem and Ramdas Pophale) SiO2 
 PCOD9301610
Probable space group: C 2/C
;
_chemical_formula_sum "Si O2"
_cell_formula_units_Z 48
_cell_length_a 13.042754
_cell_length_b 16.586616
_cell_length_c 13.544620
_cell_angle_alpha 90.000000
_cell_angle_beta 45.144544
_cell_angle_gamma 90.000000
_cell_volume 2077.168778
_symmetry_space_group_name_H-M "C 2/C"
_symmetry_group_IT_number 15
_symmetry_cell_setting 'monoclinic'
loop_
_space_group_symop_operation_xyz
x,y,z
-x,y,1/2-z
-x,-y,-z
x,-y,1/2+z
1/2+x,1/2+y,z
1/2-x,1/2+y,1/2-z
1/2-x,1/2-y,-z
1/2+x,1/2-y,1/2+z
loop_
_atom_site_type_symbol
_atom_site_label
_atom_site_fract_x
_atom_site_fract_y
_atom_site_fract_z
Si Si1 0.841827 0.223118 0.578886
Si Si2 0.035752 0.010264 0.362154
Si Si3 0.644965 0.672748 0.351228
Si Si4 0.841850 0.323448 0.893921
Si Si5 0.362739 0.129195 0.913690
Si Si6 0.748701 0.530368 0.573715
O O1 0.728219 0.257837 0.734591
O O2 0.771461 0.148843 0.567732
O O3 0.870662 0.293958 0.479840
O O4 0.001467 0.201016 0.506698
O O5 0.089190 0.103218 0.314890
O O6 0.175492 0.960420 0.230295
O O7 0.000000 0.000000 0.500000
O O8 0.894782 0.984433 0.396666
O O9 0.758126 0.642005 0.354925
O O10 0.000000 0.299376 0.750000
O O11 0.750000 0.250000 0.000000
O O12 0.838969 0.393505 0.977013
O O13 0.500000 0.122393 0.750000
O O14 0.340661 0.049875 0.993593
#
# Coordination Sequence:
#
# PCOD9301610 Si02
#       6
#     8   8   8   8   8   8
#     4  11  23  36  65 103 141 186 217 275 335 418
#     4  11  23  42  72 105 133 190 234 284 348 426
#     4  12  23  45  69 101 138 183 242 277 343 428
#     4  12  29  51  72  97 135 185 241 300 355 408
#     4  11  21  37  62 103 150 174 212 273 353 411
#     4  11  24  43  73 101 144 176 233 295 348 415
#
# _framework density 23.108377999999998
#
# number of rings (size 3 to 8) (size 9 to 14) (size 15 to 20)
#    0.000    0.667    6.667    1.500    2.333    1.333 
#    0.000    0.833    0.000    0.000    0.000    0.000 
#    0.000    0.000    0.000    0.000    0.000    0.000 
#
# Total GULP energy -134261.641869 kJ/mol
# GULP energy per Si atom -5594.235078 kJ/mol
# Density = 2.305578 g / cm^3
# Si number density = 23.108378 Si / 1000 Ang^3
#
#
#
# Elastic Constant Matrix: (Units=GPa)
#
#
# Indices 1 2 3 4 5 6 
#
# 1 40.8102 -18.3179 20.1484 0.0000 -12.9586 0.0000
# 2 -18.3179 76.3288 42.9236 0.0000 -8.2564 0.0000
# 3 20.1484 42.9236 176.2681 0.0000 -19.6007 0.0000
# 4 0.0000 0.0000 0.0000 40.0203 0.0000 1.2904
# 5 -12.9586 -8.2564 -19.6007 0.0000 40.9778 0.0000
# 6 0.0000 0.0000 0.0000 1.2904 0.0000 17.4377
#
#
#
# Elastic Compliance Matrix: (Units=1/GPa)
#
#
# Indices 1 2 3 4 5 6 
#
# 1 0.037561 0.013856 -0.006375 0.000000 0.011620 0.000000
# 2 0.013856 0.020364 -0.005914 0.000000 0.005656 0.000000
# 3 -0.006375 -0.005914 0.007906 0.000000 0.000574 0.000000
# 4 0.000000 0.000000 0.000000 0.025047 0.000000 -0.001853
# 5 0.011620 0.005656 0.000574 0.000000 0.029492 0.000000
# 6 0.000000 0.000000 0.000000 -0.001853 0.000000 0.057484
#
#
# Mechanical properties :
#
#
# Convention : Reuss Voigt Hill
#
# Bulk Modulus (GPa) = 14.50023 42.54614 28.52319
# Shear Modulus (GPa) = 25.28983 36.26402 30.77692
#
# Velocity S-wave (km/s) = 3.31176 3.96574 3.65341
# Velocity P-wave (km/s) = 4.57298 6.27861 5.49241
#
# Compressibility (1/GPa) = 0.06896441
#
# Stress axis : x y z
#
# Youngs Moduli (GPa) = 26.62367 49.10636 126.48916
#
# Poissons Ratio (x) = -0.68043 0.80642
# Poissons Ratio (y) = -0.36890 0.74803
# Poissons Ratio (z) = 0.16974 0.29040
#
# Static dielectric constant tensor:
#      x y z
#    x 1.895640 0.000000 0.018890 
#    y 0.000000 1.879710 0.000000 
#    z 0.018890 0.000000 1.855270 
# 
# From -- ./inp_files/155079.got.cif
#   From: 2010.05.17/outbox.cif.g08.bks.cpg/sg15_78_cif.got.tgz:155079.got - 2010.06.03 18:47:42.
