data_PCOD9301396
_publ_section_title
;
Structure prediction by ZEFSAII (Michael W. Deem and Ramdas Pophale) SiO2 
 PCOD9301396
Probable space group: C 2/C
;
_chemical_formula_sum "Si O2"
_cell_formula_units_Z 64
_cell_length_a 10.210166
_cell_length_b 12.722614
_cell_length_c 24.100534
_cell_angle_alpha 90.000000
_cell_angle_beta 85.244762
_cell_angle_gamma 90.000000
_cell_volume 3119.883433
_symmetry_space_group_name_H-M "C 2/C"
_symmetry_group_IT_number 15
_symmetry_cell_setting 'monoclinic'
loop_
_space_group_symop_operation_xyz
x,y,z
-x,y,1/2-z
-x,-y,-z
x,-y,1/2+z
1/2+x,1/2+y,z
1/2-x,1/2+y,1/2-z
1/2-x,1/2-y,-z
1/2+x,1/2-y,1/2+z
loop_
_atom_site_type_symbol
_atom_site_label
_atom_site_fract_x
_atom_site_fract_y
_atom_site_fract_z
Si Si1 0.890873 0.425424 0.482480
Si Si2 0.125478 0.431003 0.692735
Si Si3 0.507318 0.714669 0.455785
Si Si4 0.809123 0.052041 0.084598
Si Si5 0.054233 0.843689 0.414027
Si Si6 0.832297 0.491999 0.186670
Si Si7 0.900240 0.820573 0.304589
Si Si8 0.753186 0.159216 0.403422
O O1 0.969880 0.334984 0.448149
O O2 0.791491 0.495923 0.452499
O O3 0.816258 0.376883 0.537325
O O4 0.000000 0.500000 0.500000
O O5 0.240079 0.444032 0.645274
O O6 0.173912 0.475945 0.749045
O O7 0.108750 0.305810 0.702209
O O8 0.993531 0.492301 0.675012
O O9 0.646891 0.666774 0.435827
O O10 0.488017 0.691764 0.522356
O O11 0.403691 0.662505 0.416900
O O12 0.925240 0.967863 0.081576
O O13 0.185839 0.774008 0.395754
O O14 0.962083 0.828987 0.364176
O O15 0.738311 0.387084 0.187676
O O16 0.775559 0.578088 0.145179
O O17 0.000000 0.856192 0.250000
#
# Coordination Sequence:
#
# PCOD9301396 Si02
#       8
#     8   8   8   8   8   8   8   8
#     4  11  24  39  61  94 134 176 223 277 347 408
#     4  11  25  47  66 101 138 177 226 294 344 410
#     4  11  24  42  63  99 134 181 231 281 335 420
#     4  12  24  40  66  95 136 178 230 282 342 409
#     4  11  21  42  68  96 137 181 224 287 346 403
#     4  11  24  44  75  96 134 180 227 280 356 413
#     4  12  24  45  76 101 131 183 228 282 355 411
#     4  11  20  43  67  95 134 181 223 279 343 411
#
# _framework density 20.513586
#
# number of rings (size 3 to 8) (size 9 to 14) (size 15 to 20)
#    0.000    0.750    5.000    3.375    3.500    2.500 
#    0.000    0.000    8.250    0.000    0.000    0.000 
#    0.000    0.000    0.000    0.000    0.000    0.000 
#
# Total GULP energy -178254.678145 kJ/mol
# GULP energy per Si atom -5570.458692 kJ/mol
# Density = 2.046690 g / cm^3
# Si number density = 20.513586 Si / 1000 Ang^3
#
#
#
# Elastic Constant Matrix: (Units=GPa)
#
#
# Indices 1 2 3 4 5 6 
#
# 1 88.4370 91.3405 59.3390 0.0000 10.2276 0.0000
# 2 91.3405 -9.9450 -41.1821 0.0000 51.6770 0.0000
# 3 59.3390 -41.1821 64.3683 0.0000 43.5846 0.0000
# 4 0.0000 0.0000 0.0000 32.8867 0.0000 -0.3872
# 5 10.2276 51.6770 43.5846 0.0000 28.6567 0.0000
# 6 0.0000 0.0000 0.0000 -0.3872 0.0000 38.5264
#
#
#
# Elastic Compliance Matrix: (Units=1/GPa)
#
#
# Indices 1 2 3 4 5 6 
#
# 1 0.008056 0.002906 0.002400 0.000000 -0.011767 0.000000
# 2 0.002906 0.001184 -0.007600 0.000000 0.008386 0.000000
# 3 0.002400 -0.007600 0.008004 0.000000 0.000674 0.000000
# 4 0.000000 0.000000 0.000000 0.030411 0.000000 0.000306
# 5 -0.011767 0.008386 0.000674 0.000000 0.022949 0.000000
# 6 0.000000 0.000000 0.000000 0.000306 0.000000 0.025959
#
#
# Mechanical properties :
#
#
# Convention : Reuss Voigt Hill
#
# Bulk Modulus (GPa) = 78.99613 40.20611 59.60112
# Shear Modulus (GPa) = 47.45205 22.23816 34.84510
#
# Velocity S-wave (km/s) = 4.81479 3.29609 4.12592
# Velocity P-wave (km/s) = 8.33681 5.84191 7.19828
#
# Compressibility (1/GPa) = 0.01265885
#
# Stress axis : x y z
#
# Youngs Moduli (GPa) = 124.13099 844.45073 124.92977
#
# Poissons Ratio (x) = -2.45421 -0.29988
# Poissons Ratio (y) = -0.36076 0.94942
# Poissons Ratio (z) = -0.29797 6.41751
#
# Static dielectric constant tensor:
#      x y z
#    x 1.738470 0.000000 -0.050360 
#    y 0.000000 1.654660 0.000000 
#    z -0.050360 0.000000 1.608870 
# 
# From -- ./inp_files/268854.got.cif
#   From: 2010.05.17/outbox.cif.g08.bks.cpg/sg15_135_cif.got.tgz:268854.got - 2010.06.03 18:47:42.
