data_PCOD9301445
_publ_section_title
;
Structure prediction by ZEFSAII (Michael W. Deem and Ramdas Pophale) SiO2 
 PCOD9301445
Probable space group: C 2/C
;
_chemical_formula_sum "Si O2"
_cell_formula_units_Z 40
_cell_length_a 23.570642
_cell_length_b 7.593170
_cell_length_c 14.618323
_cell_angle_alpha 90.000000
_cell_angle_beta 140.668929
_cell_angle_gamma 90.000000
_cell_volume 1658.229418
_symmetry_space_group_name_H-M "C 2/C"
_symmetry_group_IT_number 15
_symmetry_cell_setting 'monoclinic'
loop_
_space_group_symop_operation_xyz
x,y,z
-x,y,1/2-z
-x,-y,-z
x,-y,1/2+z
1/2+x,1/2+y,z
1/2-x,1/2+y,1/2-z
1/2-x,1/2-y,-z
1/2+x,1/2-y,1/2+z
loop_
_atom_site_type_symbol
_atom_site_label
_atom_site_fract_x
_atom_site_fract_y
_atom_site_fract_z
Si Si1 0.542575 0.788787 0.403253
Si Si2 0.911642 0.889074 0.086425
Si Si3 0.680926 0.083964 0.625976
Si Si4 0.776197 0.018015 0.574182
Si Si5 0.146568 0.635991 0.782446
O O1 0.500000 0.824232 0.250000
O O2 0.568470 0.582445 0.431153
O O3 0.459567 0.846320 0.363775
O O4 0.627589 0.907051 0.532733
O O5 0.837630 0.895775 0.074199
O O6 0.000000 0.829811 0.250000
O O7 0.881038 0.751621 0.972635
O O8 0.697971 0.082106 0.754507
O O9 0.763165 0.099090 0.658073
O O10 0.820712 0.828506 0.646866
O O11 0.680151 0.990595 0.405310
#
# Coordination Sequence:
#
# PCOD9301445 Si02
#       5
#     8   8   8   8   8
#     4  11  20  47  71  98 146 180 220 294 346 400
#     4  11  24  46  72 100 139 186 229 286 349 407
#     4  12  26  42  75 105 131 188 239 272 344 430
#     4  11  23  47  67  99 149 177 222 298 347 397
#     4  11  24  44  72 103 138 186 228 282 353 406
#
# _framework density 24.122115999999998
#
# number of rings (size 3 to 8) (size 9 to 14) (size 15 to 20)
#    0.000    0.800    6.000    3.000    2.800    0.800 
#    0.000    0.000    0.000    0.000    0.000    0.000 
#    0.000    0.000    0.000    0.000    0.000    0.000 
#
# Total GULP energy -111969.845102 kJ/mol
# GULP energy per Si atom -5598.492255 kJ/mol
# Density = 2.406721 g / cm^3
# Si number density = 24.122116 Si / 1000 Ang^3
#
#
#
# Elastic Constant Matrix: (Units=GPa)
#
#
# Indices 1 2 3 4 5 6 
#
# 1 123.0748 -3.6290 9.2912 0.0000 -4.7472 0.0000
# 2 -3.6290 64.4022 10.8764 0.0000 -6.3895 0.0000
# 3 9.2912 10.8764 29.6712 0.0000 -3.7475 0.0000
# 4 0.0000 0.0000 0.0000 -48.3547 0.0000 5.9521
# 5 -4.7472 -6.3895 -3.7475 0.0000 48.2955 0.0000
# 6 0.0000 0.0000 0.0000 5.9521 0.0000 12.8561
#
#
#
# Elastic Compliance Matrix: (Units=1/GPa)
#
#
# Indices 1 2 3 4 5 6 
#
# 1 0.008405 0.001040 -0.002920 0.000000 0.000737 0.000000
# 2 0.001040 0.016826 -0.006261 0.000000 0.001843 0.000000
# 3 -0.002920 -0.006261 0.037135 0.000000 0.001766 0.000000
# 4 0.000000 0.000000 0.000000 -0.019565 0.000000 0.009058
# 5 0.000737 0.001843 0.001766 0.000000 0.021159 0.000000
# 6 0.000000 0.000000 0.000000 0.009058 0.000000 0.073590
#
#
# Mechanical properties :
#
#
# Convention : Reuss Voigt Hill
#
# Bulk Modulus (GPa) = 21.69939 27.80285 24.75112
# Shear Modulus (GPa) = 29.55206 15.93334 22.74270
#
# Velocity S-wave (km/s) = 3.50394 2.57286 3.07386
# Velocity P-wave (km/s) = 5.03839 4.51410 4.78343
#
# Compressibility (1/GPa) = 0.04608425
#
# Stress axis : x y z
#
# Youngs Moduli (GPa) = 118.98159 59.43130 26.92868
#
# Poissons Ratio (x) = -0.06180 0.07863
# Poissons Ratio (y) = -0.12372 0.16859
# Poissons Ratio (z) = 0.34741 0.37209
#
# Static dielectric constant tensor:
#      x y z
#    x 1.999880 0.000000 0.035330 
#    y 0.000000 1.909390 0.000000 
#    z 0.035330 0.000000 1.885920 
# 
# From -- ./inp_files/172140.got.cif
#   From: 2010.05.17/outbox.cif.g08.bks.cpg/sg15_87_cif.got.tgz:172140.got - 2010.06.03 18:47:42.
