data_PCOD9301607
_publ_section_title
;
Structure prediction by ZEFSAII (Michael W. Deem and Ramdas Pophale) SiO2 
 PCOD9301607
Probable space group: C 2/C
;
_chemical_formula_sum "Si O2"
_cell_formula_units_Z 52
_cell_length_a 18.599332
_cell_length_b 21.314525
_cell_length_c 9.279190
_cell_angle_alpha 90.000000
_cell_angle_beta 42.216011
_cell_angle_gamma 90.000000
_cell_volume 2471.755666
_symmetry_space_group_name_H-M "C 2/C"
_symmetry_group_IT_number 15
_symmetry_cell_setting 'monoclinic'
loop_
_space_group_symop_operation_xyz
x,y,z
-x,y,1/2-z
-x,-y,-z
x,-y,1/2+z
1/2+x,1/2+y,z
1/2-x,1/2+y,1/2-z
1/2-x,1/2-y,-z
1/2+x,1/2-y,1/2+z
loop_
_atom_site_type_symbol
_atom_site_label
_atom_site_fract_x
_atom_site_fract_y
_atom_site_fract_z
Si Si1 0.173697 0.936605 0.401953
Si Si2 0.530166 0.234159 0.458167
Si Si3 0.500000 0.335338 0.750000
Si Si4 0.309260 0.171977 0.761903
Si Si5 0.875271 0.179598 0.899774
Si Si6 0.297177 0.196075 0.108180
Si Si7 0.891658 0.042214 0.809802
O O1 0.096130 0.883922 0.585303
O O2 0.278706 0.892703 0.228890
O O3 0.113509 0.968319 0.354463
O O4 0.185089 0.992389 0.499532
O O5 0.491143 0.290901 0.621783
O O6 0.425164 0.201406 0.548922
O O7 0.620597 0.261590 0.214999
O O8 0.594385 0.186968 0.464678
O O9 0.222700 0.228437 0.871997
O O10 0.307644 0.165029 0.937724
O O11 0.850490 0.113616 0.865171
O O12 0.000000 0.177395 0.750000
O O13 0.804297 0.177913 0.146744
O O14 0.000000 0.040903 0.750000
#
# Coordination Sequence:
#
# PCOD9301607 Si02
#       7
#     8   8   4   8   8   8   8
#     4  12  25  39  63  94 132 172 221 267 327 397
#     4  12  21  40  62  95 132 178 214 270 332 402
#     4  12  20  36  62  90 132 164 212 262 330 406
#     4  11  22  38  63  94 133 173 217 267 330 397
#     4  11  23  36  60  94 136 165 217 274 335 388
#     4  11  21  37  61  95 129 174 216 268 338 393
#     4  11  25  41  62  93 128 176 216 268 334 388
#
# _framework density 21.037679000000001
#
# number of rings (size 3 to 8) (size 9 to 14) (size 15 to 20)
#    0.000    0.615    6.923    1.846    2.154    0.000 
#    0.000    0.000    0.000    0.923    0.000    0.000 
#    0.000    0.000    0.000    0.000    0.000    0.000 
#
# Total GULP energy -144878.735604 kJ/mol
# GULP energy per Si atom -5572.259062 kJ/mol
# Density = 2.098980 g / cm^3
# Si number density = 21.037679 Si / 1000 Ang^3
#
#
#
# Elastic Constant Matrix: (Units=GPa)
#
#
# Indices 1 2 3 4 5 6 
#
# 1 81.7973 36.1012 6.9563 0.0000 -1.5897 0.0000
# 2 36.1012 38.5904 17.1815 0.0000 7.5818 0.0000
# 3 6.9563 17.1815 82.3112 0.0000 4.4099 0.0000
# 4 0.0000 0.0000 0.0000 -10.6250 0.0000 17.3886
# 5 -1.5897 7.5818 4.4099 0.0000 29.2074 0.0000
# 6 0.0000 0.0000 0.0000 17.3886 0.0000 20.2305
#
#
#
# Elastic Compliance Matrix: (Units=1/GPa)
#
#
# Indices 1 2 3 4 5 6 
#
# 1 0.022589 -0.023688 0.002662 0.000000 0.006977 0.000000
# 2 -0.023688 0.054715 -0.008659 0.000000 -0.014185 0.000000
# 3 0.002662 -0.008659 0.013714 0.000000 0.000322 0.000000
# 4 0.000000 0.000000 0.000000 -0.039107 0.000000 0.033613
# 5 0.006977 -0.014185 0.000322 0.000000 0.038251 0.000000
# 6 0.000000 0.000000 0.000000 0.033613 0.000000 0.020539
#
#
# Mechanical properties :
#
#
# Convention : Reuss Voigt Hill
#
# Bulk Modulus (GPa) = 31.59754 35.90854 33.75304
# Shear Modulus (GPa) = 27.68209 17.25993 22.47101
#
# Velocity S-wave (km/s) = 3.63138 2.86742 3.27177
# Velocity P-wave (km/s) = 5.71267 5.29797 5.50923
#
# Compressibility (1/GPa) = 0.03164804
#
# Stress axis : x y z
#
# Youngs Moduli (GPa) = 44.26895 18.27639 72.91640
#
# Poissons Ratio (x) = 0.43293 -0.19408
# Poissons Ratio (y) = 1.04864 0.63140
# Poissons Ratio (z) = -0.11783 0.15826
#
# Static dielectric constant tensor:
#      x y z
#    x 1.863010 0.000000 0.031170 
#    y 0.000000 1.775990 0.000000 
#    z 0.031170 0.000000 1.885250 
# 
# From -- ./inp_files/50586.got.cif
#   From: 2010.05.17/outbox.cif.g08.bks.cpg/sg15_26_cif.got.tgz:50586.got - 2010.06.03 18:47:42.
