data_PCOD9301425
_publ_section_title
;
Structure prediction by ZEFSAII (Michael W. Deem and Ramdas Pophale) SiO2 
 PCOD9301425
Probable space group: C 2/C
;
_chemical_formula_sum "Si O2"
_cell_formula_units_Z 56
_cell_length_a 9.875208
_cell_length_b 15.935773
_cell_length_c 18.152119
_cell_angle_alpha 90.000000
_cell_angle_beta 65.079821
_cell_angle_gamma 90.000000
_cell_volume 2590.621984
_symmetry_space_group_name_H-M "C 2/C"
_symmetry_group_IT_number 15
_symmetry_cell_setting 'monoclinic'
loop_
_space_group_symop_operation_xyz
x,y,z
-x,y,1/2-z
-x,-y,-z
x,-y,1/2+z
1/2+x,1/2+y,z
1/2-x,1/2+y,1/2-z
1/2-x,1/2-y,-z
1/2+x,1/2-y,1/2+z
loop_
_atom_site_type_symbol
_atom_site_label
_atom_site_fract_x
_atom_site_fract_y
_atom_site_fract_z
Si Si1 0.654826 0.152953 0.802340
Si Si2 0.692783 0.202709 0.631156
Si Si3 0.625824 0.133405 0.432017
Si Si4 0.865404 0.455517 0.722952
Si Si5 0.160655 0.268359 0.446005
Si Si6 0.626631 0.416408 0.894104
Si Si7 0.202757 0.049030 0.990667
O O1 0.723390 0.188854 0.710993
O O2 0.483023 0.186530 0.842083
O O3 0.731966 0.181754 0.860436
O O4 0.647494 0.052965 0.796095
O O5 0.745316 0.295002 0.596443
O O6 0.778944 0.131353 0.565140
O O7 0.605522 0.100045 0.354960
O O8 0.481098 0.178123 0.496676
O O9 0.675058 0.058592 0.474399
O O10 0.713340 0.427312 0.798159
O O11 0.000000 0.447047 0.750000
O O12 0.250000 0.250000 0.500000
O O13 0.119140 0.178939 0.420976
O O14 0.717451 0.469592 0.934454
O O15 0.459744 0.452895 0.934629
#
# Coordination Sequence:
#
# PCOD9301425 Si02
#       7
#     8   8   8   8   8   8   8
#     4  11  23  42  74  97 138 188 237 285 350 423
#     4  11  20  44  71 103 129 179 241 287 340 422
#     4  12  26  41  75 102 141 182 240 291 363 425
#     4  12  25  46  67 103 143 189 236 293 351 430
#     4  12  26  43  68 107 142 186 233 293 355 429
#     4  11  24  44  68 101 144 179 231 297 354 411
#     4  11  22  43  73 100 139 182 232 292 355 429
#
# _framework density 21.616429
#
# number of rings (size 3 to 8) (size 9 to 14) (size 15 to 20)
#    0.000    0.571    5.714    3.000    2.000    2.286 
#    0.000    0.000    3.143    0.000    0.000    0.000 
#    0.000    0.000    0.000    0.000    0.000    0.000 
#
# Total GULP energy -156752.775249 kJ/mol
# GULP energy per Si atom -5598.313402 kJ/mol
# Density = 2.156723 g / cm^3
# Si number density = 21.616429 Si / 1000 Ang^3
#
#
#
# Elastic Constant Matrix: (Units=GPa)
#
#
# Indices 1 2 3 4 5 6 
#
# 1 61.0754 14.0924 40.1105 0.0000 17.3181 0.0000
# 2 14.0924 65.0689 26.9988 0.0000 23.1404 0.0000
# 3 40.1105 26.9988 140.2431 0.0000 33.5092 0.0000
# 4 0.0000 0.0000 0.0000 37.3469 0.0000 3.2978
# 5 17.3181 23.1404 33.5092 0.0000 29.3666 0.0000
# 6 0.0000 0.0000 0.0000 3.2978 0.0000 21.3809
#
#
#
# Elastic Compliance Matrix: (Units=1/GPa)
#
#
# Indices 1 2 3 4 5 6 
#
# 1 0.021367 -0.000149 -0.004262 0.000000 -0.007620 0.000000
# 2 -0.000149 0.021354 -0.000095 0.000000 -0.016631 0.000000
# 3 -0.004262 -0.000095 0.010654 0.000000 -0.009569 0.000000
# 4 0.000000 0.000000 0.000000 0.027146 0.000000 -0.004187
# 5 -0.007620 -0.016631 -0.009569 0.000000 0.062570 0.000000
# 6 0.000000 0.000000 0.000000 -0.004187 0.000000 0.047417
#
#
# Mechanical properties :
#
#
# Convention : Reuss Voigt Hill
#
# Bulk Modulus (GPa) = 22.54079 47.64343 35.09211
# Shear Modulus (GPa) = 23.33104 29.96460 26.64782
#
# Velocity S-wave (km/s) = 3.28886 3.72720 3.51487
# Velocity P-wave (km/s) = 4.98723 6.37267 5.72204
#
# Compressibility (1/GPa) = 0.04436402
#
# Stress axis : x y z
#
# Youngs Moduli (GPa) = 46.80076 46.82899 93.86177
#
# Poissons Ratio (x) = 0.00700 0.40001
# Poissons Ratio (y) = 0.00699 0.00888
# Poissons Ratio (z) = 0.19945 0.00443
#
# Static dielectric constant tensor:
#      x y z
#    x 1.801010 0.000000 0.013040 
#    y 0.000000 1.760250 0.000000 
#    z 0.013040 0.000000 1.777770 
# 
# From -- ./inp_files/190889.got.cif
#   From: 2010.05.17/outbox.cif.g08.bks.cpg/sg15_96_cif.got.tgz:190889.got - 2010.06.03 18:47:42.
