data_PCOD9301837
_publ_section_title
;
Structure prediction by ZEFSAII (Michael W. Deem and Ramdas Pophale) SiO2 
 PCOD9301837
Probable space group: C 2/C
;
_chemical_formula_sum "Si O2"
_cell_formula_units_Z 48
_cell_length_a 14.421174
_cell_length_b 27.628690
_cell_length_c 8.639458
_cell_angle_alpha 90.000000
_cell_angle_beta 141.542713
_cell_angle_gamma 90.000000
_cell_volume 2140.866778
_symmetry_space_group_name_H-M "C 2/C"
_symmetry_group_IT_number 15
_symmetry_cell_setting 'monoclinic'
loop_
_space_group_symop_operation_xyz
x,y,z
-x,y,1/2-z
-x,-y,-z
x,-y,1/2+z
1/2+x,1/2+y,z
1/2-x,1/2+y,1/2-z
1/2-x,1/2-y,-z
1/2+x,1/2-y,1/2+z
loop_
_atom_site_type_symbol
_atom_site_label
_atom_site_fract_x
_atom_site_fract_y
_atom_site_fract_z
Si Si1 0.510982 0.262891 0.929867
Si Si2 0.567107 0.366225 0.583420
Si Si3 0.131451 0.031984 0.254494
Si Si4 0.822302 0.281347 0.454204
Si Si5 0.747196 0.623044 0.007973
Si Si6 0.659124 0.023818 0.249371
O O1 0.500000 0.236307 0.750000
O O2 0.428314 0.314704 0.827709
O O3 0.456331 0.237230 0.019051
O O4 0.682419 0.278562 0.157520
O O5 0.586404 0.412608 0.715796
O O6 0.689749 0.363931 0.605791
O O7 0.408636 0.377365 0.291296
O O8 0.271134 0.036333 0.323032
O O9 0.208524 0.008680 0.503481
O O10 0.000000 0.000000 0.000000
O O11 0.750000 0.250000 0.500000
O O12 0.837841 0.334589 0.544389
O O13 0.834327 0.572326 0.136747
O O14 0.500000 0.000000 0.000000
#
# Coordination Sequence:
#
# PCOD9301837 Si02
#       6
#     8   8   8   8   8   8
#     4  11  23  39  66 100 138 170 227 299 359 399
#     4   9  18  36  64  94 127 174 238 290 323 408
#     4  11  21  39  67  95 130 177 233 276 337 414
#     4  11  21  41  70  95 130 185 229 281 346 423
#     4   9  18  37  66  92 126 180 240 275 332 418
#     4  11  23  40  64  97 142 177 218 289 352 408
#
# _framework density 22.420826000000002
#
# number of rings (size 3 to 8) (size 9 to 14) (size 15 to 20)
#    0.000    1.667    3.333    2.000    0.000    1.333 
#    0.000    3.333    3.667    0.000    0.000    0.000 
#    0.000    0.000    0.000    0.000    0.000    0.000 
#
# Total GULP energy -133683.513259 kJ/mol
# GULP energy per Si atom -5570.146386 kJ/mol
# Density = 2.236980 g / cm^3
# Si number density = 22.420826 Si / 1000 Ang^3
#
#
#
# Elastic Constant Matrix: (Units=GPa)
#
#
# Indices 1 2 3 4 5 6 
#
# 1 131.5516 44.1467 43.6713 0.0000 7.9642 0.0000
# 2 44.1467 117.4566 26.5188 0.0000 6.0137 0.0000
# 3 43.6713 26.5188 87.0278 0.0000 14.1900 0.0000
# 4 0.0000 0.0000 0.0000 26.4615 0.0000 0.8705
# 5 7.9642 6.0137 14.1900 0.0000 40.2818 0.0000
# 6 0.0000 0.0000 0.0000 0.8705 0.0000 23.6023
#
#
#
# Elastic Compliance Matrix: (Units=1/GPa)
#
#
# Indices 1 2 3 4 5 6 
#
# 1 0.009907 -0.002792 -0.004105 0.000000 -0.000096 0.000000
# 2 -0.002792 0.009936 -0.001565 0.000000 -0.000380 0.000000
# 3 -0.004105 -0.001565 0.014701 0.000000 -0.004134 0.000000
# 4 0.000000 0.000000 0.000000 0.037837 0.000000 -0.001396
# 5 -0.000096 -0.000380 -0.004134 0.000000 0.026357 0.000000
# 6 0.000000 0.000000 0.000000 -0.001396 0.000000 0.042420
#
#
# Mechanical properties :
#
#
# Convention : Reuss Voigt Hill
#
# Bulk Modulus (GPa) = 56.75047 62.74550 59.74798
# Shear Modulus (GPa) = 30.49616 32.84906 31.67261
#
# Velocity S-wave (km/s) = 3.69205 3.83183 3.76259
# Velocity P-wave (km/s) = 6.59859 6.90097 6.75147
#
# Compressibility (1/GPa) = 0.01762100
#
# Stress axis : x y z
#
# Youngs Moduli (GPa) = 100.93804 100.64563 68.02113
#
# Poissons Ratio (x) = 0.28099 0.27923
# Poissons Ratio (y) = 0.28181 0.10643
# Poissons Ratio (z) = 0.41436 0.15747
#
# Static dielectric constant tensor:
#      x y z
#    x 1.905340 0.000000 -0.016960 
#    y 0.000000 1.857690 0.000000 
#    z -0.016960 0.000000 1.931930 
# 
# From -- ./inp_files/43938.got.cif
#   From: 2010.05.17/outbox.cif.g08.bks.cpg/sg15_22_cif.got.tgz:43938.got - 2010.06.03 18:47:42.
