data_PCOD9301841
_publ_section_title
;
Structure prediction by ZEFSAII (Michael W. Deem and Ramdas Pophale) SiO2 
 PCOD9301841
Probable space group: C 2/C
;
_chemical_formula_sum "Si O2"
_cell_formula_units_Z 48
_cell_length_a 17.357736
_cell_length_b 15.500135
_cell_length_c 9.541240
_cell_angle_alpha 90.000000
_cell_angle_beta 56.218997
_cell_angle_gamma 90.000000
_cell_volume 2133.647387
_symmetry_space_group_name_H-M "C 2/C"
_symmetry_group_IT_number 15
_symmetry_cell_setting 'monoclinic'
loop_
_space_group_symop_operation_xyz
x,y,z
-x,y,1/2-z
-x,-y,-z
x,-y,1/2+z
1/2+x,1/2+y,z
1/2-x,1/2+y,1/2-z
1/2-x,1/2-y,-z
1/2+x,1/2-y,1/2+z
loop_
_atom_site_type_symbol
_atom_site_label
_atom_site_fract_x
_atom_site_fract_y
_atom_site_fract_z
Si Si1 0.901842 0.984720 0.798514
Si Si2 0.400031 0.388789 0.535299
Si Si3 0.586129 0.061664 0.879032
Si Si4 0.514036 0.227635 0.404214
Si Si5 0.715735 0.181859 0.151082
Si Si6 0.304738 0.002620 0.975799
O O1 0.903602 0.972256 0.630160
O O2 0.000000 0.944773 0.750000
O O3 0.902005 0.078139 0.873185
O O4 0.796934 0.955816 0.940715
O O5 0.480990 0.321959 0.481901
O O6 0.304391 0.338349 0.656267
O O7 0.619247 0.057119 0.685410
O O8 0.551971 0.155587 0.960770
O O9 0.667963 0.020899 0.892944
O O10 0.500000 0.000000 0.000000
O O11 0.500000 0.220545 0.250000
O O12 0.377551 0.212049 0.179328
O O13 0.692945 0.091290 0.099753
O O14 0.750000 0.250000 0.000000
#
# Coordination Sequence:
#
# PCOD9301841 Si02
#       6
#     8   8   8   8   8   8
#     4  11  25  46  68 103 134 185 239 294 355 420
#     4  11  25  45  73 102 137 182 239 296 351 416
#     4  12  22  41  66 101 137 177 226 285 354 415
#     4  12  22  42  68 101 137 182 236 280 345 429
#     4  11  21  39  68 101 132 179 235 286 332 412
#     4  11  23  40  67  98 133 178 232 286 346 413
#
# _framework density 22.496687000000001
#
# number of rings (size 3 to 8) (size 9 to 14) (size 15 to 20)
#    0.000    0.667    5.000    3.500    2.333    0.000 
#    3.000    2.500    0.000    0.000    0.000    0.000 
#    0.000    0.000    0.000    0.000    0.000    0.000 
#
# Total GULP energy -133975.840909 kJ/mol
# GULP energy per Si atom -5582.326705 kJ/mol
# Density = 2.244548 g / cm^3
# Si number density = 22.496687 Si / 1000 Ang^3
#
#
#
# Elastic Constant Matrix: (Units=GPa)
#
#
# Indices 1 2 3 4 5 6 
#
# 1 115.1624 12.8910 36.7860 0.0000 -33.8324 0.0000
# 2 12.8910 91.3756 53.0009 0.0000 -0.0736 0.0000
# 3 36.7860 53.0009 81.6334 0.0000 -22.9534 0.0000
# 4 0.0000 0.0000 0.0000 34.4216 0.0000 -3.3151
# 5 -33.8324 -0.0736 -22.9534 0.0000 34.3618 0.0000
# 6 0.0000 0.0000 0.0000 -3.3151 0.0000 22.8121
#
#
#
# Elastic Compliance Matrix: (Units=1/GPa)
#
#
# Indices 1 2 3 4 5 6 
#
# 1 0.012695 -0.000385 -0.002409 0.000000 0.010890 0.000000
# 2 -0.000385 0.020384 -0.016198 0.000000 -0.011155 0.000000
# 3 -0.002409 -0.016198 0.028535 0.000000 0.016655 0.000000
# 4 0.000000 0.000000 0.000000 0.029464 0.000000 0.004282
# 5 0.010890 -0.011155 0.016655 0.000000 0.050925 0.000000
# 6 0.000000 0.000000 0.000000 0.004282 0.000000 0.044459
#
#
# Mechanical properties :
#
#
# Convention : Reuss Voigt Hill
#
# Bulk Modulus (GPa) = 42.31749 54.83636 48.57692
# Shear Modulus (GPa) = 21.52182 30.68534 26.10358
#
# Velocity S-wave (km/s) = 3.09636 3.69724 3.41006
# Velocity P-wave (km/s) = 5.62447 6.53102 6.09462
#
# Compressibility (1/GPa) = 0.02363089
#
# Stress axis : x y z
#
# Youngs Moduli (GPa) = 78.77072 49.05694 35.04495
#
# Poissons Ratio (x) = 0.01889 0.08442
# Poissons Ratio (y) = 0.03033 0.56765
# Poissons Ratio (z) = 0.18975 0.79462
#
# Static dielectric constant tensor:
#      x y z
#    x 1.898350 0.000000 -0.024570 
#    y 0.000000 1.797550 0.000000 
#    z -0.024570 0.000000 1.858800 
# 
# From -- ./inp_files/48374.got.cif
#   From: 2010.05.17/outbox.cif.g08.bks.cpg/sg15_25_cif.got.tgz:48374.got - 2010.06.03 18:47:42.
