data_PCOD9301054
_publ_section_title
;
Structure prediction by ZEFSAII (Michael W. Deem and Ramdas Pophale) SiO2 
 PCOD9301054
Probable space group: C 2/C
;
_chemical_formula_sum "Si O2"
_cell_formula_units_Z 56
_cell_length_a 9.411691
_cell_length_b 17.305885
_cell_length_c 20.326115
_cell_angle_alpha 90.000000
_cell_angle_beta 55.645513
_cell_angle_gamma 90.000000
_cell_volume 2733.163153
_symmetry_space_group_name_H-M "C 2/C"
_symmetry_group_IT_number 15
_symmetry_cell_setting 'monoclinic'
loop_
_space_group_symop_operation_xyz
x,y,z
-x,y,1/2-z
-x,-y,-z
x,-y,1/2+z
1/2+x,1/2+y,z
1/2-x,1/2+y,1/2-z
1/2-x,1/2-y,-z
1/2+x,1/2-y,1/2+z
loop_
_atom_site_type_symbol
_atom_site_label
_atom_site_fract_x
_atom_site_fract_y
_atom_site_fract_z
Si Si1 0.499005 0.421796 0.935204
Si Si2 0.534353 0.765577 0.811062
Si Si3 0.424028 0.696330 0.197661
Si Si4 0.579003 0.801254 0.053599
Si Si5 0.065701 0.215297 0.526073
Si Si6 0.882441 0.570471 0.342652
Si Si7 0.374162 0.019763 0.971796
O O1 0.496867 0.368944 0.870305
O O2 0.688241 0.458566 0.882591
O O3 0.520598 0.361989 0.993330
O O4 0.337831 0.480621 0.970630
O O5 0.500000 0.724107 0.750000
O O6 0.719090 0.807071 0.757839
O O7 0.530724 0.715594 0.878272
O O8 0.396179 0.836258 0.848344
O O9 0.500000 0.694590 0.250000
O O10 0.473854 0.772602 0.143988
O O11 0.608043 0.890935 0.051347
O O12 0.750000 0.750000 0.000000
O O13 0.487746 0.783372 0.009198
O O14 0.250000 0.250000 0.500000
O O15 0.938586 0.533820 0.396170
O O16 0.000000 0.550562 0.250000
O O17 0.500000 0.000000 0.000000
#
# Coordination Sequence:
#
# PCOD9301054 Si02
#       7
#     8   8   8   8   8   8   8
#     4  11  23  43  65  98 130 179 232 272 336 421
#     4  11  20  38  63 100 129 170 220 272 344 405
#     4  11  22  35  68  97 129 166 221 286 339 389
#     4  11  22  43  63  98 129 169 226 281 338 401
#     4  11  20  36  69  94 130 167 213 283 333 395
#     4  11  23  44  67  92 134 177 219 270 343 416
#     4  12  27  43  68  95 138 182 228 278 338 416
#
# _framework density 20.489080000000001
#
# number of rings (size 3 to 8) (size 9 to 14) (size 15 to 20)
#    0.000    0.857    7.143    3.000    2.000    0.571 
#    0.000    0.000    0.000    0.000    0.000    0.000 
#    0.000    0.000    0.000    0.000    0.000    0.000 
#
# Total GULP energy -155920.057896 kJ/mol
# GULP energy per Si atom -5568.573496 kJ/mol
# Density = 2.044245 g / cm^3
# Si number density = 20.489080 Si / 1000 Ang^3
#
#
#
# Elastic Constant Matrix: (Units=GPa)
#
#
# Indices 1 2 3 4 5 6 
#
# 1 130.5373 2.0807 53.9520 0.0001 13.2772 0.0001
# 2 2.0807 27.0974 20.4806 0.0000 1.6915 0.0000
# 3 53.9520 20.4806 157.2153 0.0000 30.2132 0.0000
# 4 0.0001 0.0000 0.0000 -61.3313 0.0000 -19.1453
# 5 13.2772 1.6915 30.2132 0.0000 39.9555 0.0000
# 6 0.0001 0.0000 0.0000 -19.1453 0.0000 20.2506
#
#
#
# Elastic Compliance Matrix: (Units=1/GPa)
#
#
# Indices 1 2 3 4 5 6 
#
# 1 0.009022 0.001767 -0.003201 0.000000 -0.000652 0.000000
# 2 0.001767 0.041529 -0.006512 0.000000 0.002579 0.000000
# 3 -0.003201 -0.006512 0.009419 0.000000 -0.005783 0.000000
# 4 0.000000 0.000000 0.000000 -0.012589 0.000000 -0.011902
# 5 -0.000652 0.002579 -0.005783 0.000000 0.029508 0.000000
# 6 0.000000 0.000000 0.000000 -0.011902 0.000000 0.038129
#
#
# Mechanical properties :
#
#
# Convention : Reuss Voigt Hill
#
# Bulk Modulus (GPa) = 22.68691 51.98630 37.33661
# Shear Modulus (GPa) = 34.34028 15.66408 25.00218
#
# Velocity S-wave (km/s) = 4.09837 2.76797 3.49702
# Velocity P-wave (km/s) = 5.78725 5.97020 5.87944
#
# Compressibility (1/GPa) = 0.04407828
#
# Stress axis : x y z
#
# Youngs Moduli (GPa) = 110.84294 24.07945 106.17005
#
# Poissons Ratio (x) = -0.04255 0.33984
# Poissons Ratio (y) = -0.19589 0.69139
# Poissons Ratio (z) = 0.35480 0.15681
#
# Static dielectric constant tensor:
#      x y z
#    x 2.007270 0.000000 -0.072700 
#    y 0.000000 1.753280 0.000000 
#    z -0.072700 0.000000 1.780580 
# 
# From -- ./inp_files/190899.got.cif
#   From: 2010.05.17/outbox.cif.g08.bks.cpg/sg15_96_cif.got.tgz:190899.got - 2010.06.03 18:47:42.
