data_PCOD9301351
_publ_section_title
;
Structure prediction by ZEFSAII (Michael W. Deem and Ramdas Pophale) SiO2 
 PCOD9301351
Probable space group: C 2/C
;
_chemical_formula_sum "Si O2"
_cell_formula_units_Z 48
_cell_length_a 16.550311
_cell_length_b 9.151464
_cell_length_c 15.909557
_cell_angle_alpha 90.000000
_cell_angle_beta 67.924695
_cell_angle_gamma 90.000000
_cell_volume 2233.004646
_symmetry_space_group_name_H-M "C 2/C"
_symmetry_group_IT_number 15
_symmetry_cell_setting 'monoclinic'
loop_
_space_group_symop_operation_xyz
x,y,z
-x,y,1/2-z
-x,-y,-z
x,-y,1/2+z
1/2+x,1/2+y,z
1/2-x,1/2+y,1/2-z
1/2-x,1/2-y,-z
1/2+x,1/2-y,1/2+z
loop_
_atom_site_type_symbol
_atom_site_label
_atom_site_fract_x
_atom_site_fract_y
_atom_site_fract_z
Si Si1 0.179256 0.658314 0.974521
Si Si2 0.877460 0.838336 0.083018
Si Si3 0.984342 0.267947 0.853056
Si Si4 0.543959 0.580712 0.117855
Si Si5 0.229702 0.141003 0.118995
Si Si6 0.645618 0.353887 0.823985
O O1 0.222758 0.506253 0.930111
O O2 0.156817 0.745973 0.897918
O O3 0.250000 0.750000 0.000000
O O4 0.093278 0.650086 0.067251
O O5 0.793603 0.771709 0.071194
O O6 0.927555 0.727796 0.125742
O O7 0.850032 0.981151 0.143941
O O8 0.944136 0.887568 0.985321
O O9 0.000000 0.311871 0.750000
O O10 0.960652 0.093470 0.862645
O O11 0.631603 0.639832 0.124426
O O12 0.452167 0.654334 0.176124
O O13 0.217640 0.159253 0.224208
#
# Coordination Sequence:
#
# PCOD9301351 Si02
#       6
#     8   8   8   8   8   8
#     4  12  24  42  67 101 129 169 220 269 320 387
#     4  11  22  41  65  94 126 169 214 270 323 372
#     4  11  22  41  69  91 125 173 225 260 315 387
#     4  11  20  42  64  91 122 172 219 261 310 389
#     4  12  25  37  67  99 132 162 213 271 329 380
#     4  11  22  43  67  92 129 170 220 260 317 388
#
# _framework density 21.495699999999999
#
# number of rings (size 3 to 8) (size 9 to 14) (size 15 to 20)
#    0.000    0.667    5.000    5.000    2.333    0.667 
#    0.000    0.000    0.000    1.000    0.000    0.000 
#    0.000    0.000    0.000    0.000    0.000    0.000 
#
# Total GULP energy -134140.936089 kJ/mol
# GULP energy per Si atom -5589.205670 kJ/mol
# Density = 2.144677 g / cm^3
# Si number density = 21.495700 Si / 1000 Ang^3
#
#
#
# Elastic Constant Matrix: (Units=GPa)
#
#
# Indices 1 2 3 4 5 6 
#
# 1 139.1464 36.4503 30.3841 0.0000 5.1079 0.0000
# 2 36.4503 32.3695 21.4774 0.0000 -5.0331 0.0000
# 3 30.3841 21.4774 155.4499 0.0000 -17.4287 0.0000
# 4 0.0000 0.0000 0.0000 17.2608 0.0000 -3.6361
# 5 5.1079 -5.0331 -17.4287 0.0000 36.0572 0.0000
# 6 0.0000 0.0000 0.0000 -3.6361 0.0000 26.9114
#
#
#
# Elastic Compliance Matrix: (Units=1/GPa)
#
#
# Indices 1 2 3 4 5 6 
#
# 1 0.010639 -0.011990 -0.000824 0.000000 -0.003579 0.000000
# 2 -0.011990 0.047759 -0.003507 0.000000 0.006670 0.000000
# 3 -0.000824 -0.003507 0.007440 0.000000 0.003223 0.000000
# 4 0.000000 0.000000 0.000000 0.059632 0.000000 0.008057
# 5 -0.003579 0.006670 0.003223 0.000000 0.030730 0.000000
# 6 0.000000 0.000000 0.000000 0.008057 0.000000 0.038248
#
#
# Mechanical properties :
#
#
# Convention : Reuss Voigt Hill
#
# Bulk Modulus (GPa) = 30.12475 55.95438 43.03956
# Shear Modulus (GPa) = 20.99482 31.95615 26.47549
#
# Velocity S-wave (km/s) = 3.12861 3.85987 3.51331
# Velocity P-wave (km/s) = 5.20535 6.77877 6.04349
#
# Compressibility (1/GPa) = 0.03319530
#
# Stress axis : x y z
#
# Youngs Moduli (GPa) = 93.99545 20.93863 134.40863
#
# Poissons Ratio (x) = 0.25105 0.11078
# Poissons Ratio (y) = 1.12698 0.47139
# Poissons Ratio (z) = 0.07747 0.07344
#
# Static dielectric constant tensor:
#      x y z
#    x 1.836190 0.000000 -0.016730 
#    y 0.000000 1.741800 0.000000 
#    z -0.016730 0.000000 1.861350 
# 
# From -- ./inp_files/151918.got.cif
#   From: 2010.05.17/outbox.cif.g08.bks.cpg/sg15_76_cif.got.tgz:151918.got - 2010.06.03 18:47:42.
