data_PCOD9301879
_publ_section_title
;
Structure prediction by ZEFSAII (Michael W. Deem and Ramdas Pophale) SiO2 
 PCOD9301879
Probable space group: C 2/C
;
_chemical_formula_sum "Si O2"
_cell_formula_units_Z 56
_cell_length_a 14.169260
_cell_length_b 16.793500
_cell_length_c 24.590480
_cell_angle_alpha 90.000000
_cell_angle_beta 30.723345
_cell_angle_gamma 90.000000
_cell_volume 2989.410347
_symmetry_space_group_name_H-M "C 2/C"
_symmetry_group_IT_number 15
_symmetry_cell_setting 'monoclinic'
loop_
_space_group_symop_operation_xyz
x,y,z
-x,y,1/2-z
-x,-y,-z
x,-y,1/2+z
1/2+x,1/2+y,z
1/2-x,1/2+y,1/2-z
1/2-x,1/2-y,-z
1/2+x,1/2-y,1/2+z
loop_
_atom_site_type_symbol
_atom_site_label
_atom_site_fract_x
_atom_site_fract_y
_atom_site_fract_z
Si Si1 0.127159 0.488950 0.050532
Si Si2 0.291840 0.552641 0.352187
Si Si3 0.231680 0.072578 0.734543
Si Si4 0.939298 0.965542 0.471822
Si Si5 0.855338 0.744413 0.245243
Si Si6 0.223521 0.209920 0.427279
Si Si7 0.453066 0.846981 0.601737
O O1 0.946618 0.433948 0.144516
O O2 0.049868 0.578882 0.083599
O O3 0.228671 0.473328 0.943046
O O4 0.272218 0.484786 0.027451
O O5 0.500000 0.583436 0.250000
O O6 0.288450 0.479491 0.310670
O O7 0.149532 0.616571 0.399155
O O8 0.169084 0.162239 0.753408
O O9 0.104833 0.037587 0.845663
O O10 0.862549 0.875427 0.516175
O O11 0.000000 0.000000 0.500000
O O12 0.738258 0.718943 0.355152
O O13 0.811216 0.693716 0.213643
O O14 0.069352 0.723860 0.152917
O O15 0.098220 0.280200 0.512894
#
# Coordination Sequence:
#
# PCOD9301879 Si02
#       7
#     8   8   8   8   8   8   8
#     4  11  23  42  65  94 130 164 213 266 315 384
#     4  11  23  38  65  92 126 166 207 262 321 380
#     4  11  23  41  65  97 129 168 207 262 329 379
#     4  12  26  41  64  95 132 173 213 259 321 389
#     4  11  22  36  66  92 124 163 209 266 323 371
#     4  11  23  38  62  94 129 161 210 269 317 372
#     4  11  21  40  61  93 123 157 213 259 316 376
#
# _framework density 18.732790999999999
#
# number of rings (size 3 to 8) (size 9 to 14) (size 15 to 20)
#    0.000    0.857    4.286    4.714    6.000    0.571 
#    0.000    1.429    0.000    3.429    0.000    0.000 
#    0.000    0.000    0.000    0.000    0.000    0.000 
#
# Total GULP energy -156493.374303 kJ/mol
# GULP energy per Si atom -5589.049082 kJ/mol
# Density = 1.869015 g / cm^3
# Si number density = 18.732791 Si / 1000 Ang^3
#
#
#
# Elastic Constant Matrix: (Units=GPa)
#
#
# Indices 1 2 3 4 5 6 
#
# 1 110.4378 20.2384 28.0546 -0.0006 0.9700 0.0012
# 2 20.2384 64.5732 13.4493 0.0004 4.5574 0.0005
# 3 28.0546 13.4493 91.1474 0.0052 4.2444 0.0023
# 4 -0.0006 0.0004 0.0052 28.4904 -0.0017 1.7723
# 5 0.9700 4.5574 4.2444 -0.0017 30.0120 -0.0009
# 6 0.0012 0.0005 0.0023 1.7723 -0.0009 22.1173
#
#
#
# Elastic Compliance Matrix: (Units=1/GPa)
#
#
# Indices 1 2 3 4 5 6 
#
# 1 0.010246 -0.002665 -0.002782 0.000001 0.000467 0.000000
# 2 -0.002665 0.016804 -0.001555 0.000000 -0.002246 0.000000
# 3 -0.002782 -0.001555 0.012122 -0.000002 -0.001388 -0.000001
# 4 0.000001 0.000000 -0.000002 0.035275 0.000002 -0.002827
# 5 0.000467 -0.002246 -0.001388 0.000002 0.033842 0.000001
# 6 0.000000 0.000000 -0.000001 -0.002827 0.000001 0.045440
#
#
# Mechanical properties :
#
#
# Convention : Reuss Voigt Hill
#
# Bulk Modulus (GPa) = 39.73291 43.29366 41.51329
# Shear Modulus (GPa) = 28.38950 29.75168 29.07059
#
# Velocity S-wave (km/s) = 3.89716 3.98956 3.94363
# Velocity P-wave (km/s) = 6.44258 6.66209 6.55326
#
# Compressibility (1/GPa) = 0.02516805
#
# Stress axis : x y z
#
# Youngs Moduli (GPa) = 97.60053 59.51038 82.49717
#
# Poissons Ratio (x) = 0.15858 0.22952
# Poissons Ratio (y) = 0.26008 0.12826
# Poissons Ratio (z) = 0.27154 0.09252
#
# Static dielectric constant tensor:
#      x y z
#    x 1.527090 -0.000030 -0.219110 
#    y -0.000030 1.627650 -0.000050 
#    z -0.219110 -0.000050 1.287920 
# 
# From -- ./inp_files/274440.got.cif
#   From: 2010.05.17/outbox.cif.g08.bks.cpg/sg15_138_cif.got.tgz:274440.got - 2010.06.03 18:47:42.
