data_PCOD9301540
_publ_section_title
;
Structure prediction by ZEFSAII (Michael W. Deem and Ramdas Pophale) SiO2 
 PCOD9301540
Probable space group: C 2/C
;
_chemical_formula_sum "Si O2"
_cell_formula_units_Z 52
_cell_length_a 9.056213
_cell_length_b 11.421843
_cell_length_c 24.702955
_cell_angle_alpha 90.000000
_cell_angle_beta 51.415977
_cell_angle_gamma 90.000000
_cell_volume 1997.416942
_symmetry_space_group_name_H-M "C 2/C"
_symmetry_group_IT_number 15
_symmetry_cell_setting 'monoclinic'
loop_
_space_group_symop_operation_xyz
x,y,z
-x,y,1/2-z
-x,-y,-z
x,-y,1/2+z
1/2+x,1/2+y,z
1/2-x,1/2+y,1/2-z
1/2-x,1/2-y,-z
1/2+x,1/2-y,1/2+z
loop_
_atom_site_type_symbol
_atom_site_label
_atom_site_fract_x
_atom_site_fract_y
_atom_site_fract_z
Si Si1 0.937451 0.972977 0.587767
Si Si2 0.407171 0.118908 0.830755
Si Si3 0.500000 0.378399 0.250000
Si Si4 0.583279 0.100554 0.352252
Si Si5 0.674170 0.695803 0.293307
Si Si6 0.790710 0.226345 0.053109
Si Si7 0.245397 0.026972 0.597747
O O1 0.813975 0.091288 0.615162
O O2 0.826225 0.898615 0.659467
O O3 0.916218 0.886587 0.541013
O O4 0.144108 0.994058 0.564795
O O5 0.500000 0.110146 0.750000
O O6 0.506225 0.019123 0.843890
O O7 0.470645 0.244044 0.838047
O O8 0.327051 0.296282 0.271022
O O9 0.418986 0.450806 0.319525
O O10 0.764050 0.141331 0.277531
O O11 0.419661 0.193330 0.378849
O O12 0.624354 0.070829 0.404985
O O13 0.848808 0.348076 0.067376
O O14 0.750000 0.250000 0.000000
#
# Coordination Sequence:
#
# PCOD9301540 Si02
#       7
#     8   8   4   8   8   8   8
#     4  11  24  41  64  94 130 165 208 257 324 381
#     4  11  21  36  58  91 132 166 198 238 303 393
#     4  12  18  38  62  96 136 162 194 258 308 388
#     4  11  23  41  65  94 129 170 209 260 327 381
#     4  12  21  36  63  95 132 166 198 246 319 392
#     4  11  26  47  67  88 123 171 226 280 322 368
#     4  12  24  42  65  97 130 167 208 263 319 390
#
# _framework density 26.033624
#
# number of rings (size 3 to 8) (size 9 to 14) (size 15 to 20)
#    0.000    0.615    6.154    2.769    2.154    1.231 
#    0.000    0.769    0.000    0.000    0.000    0.000 
#    0.000    0.000    0.000    0.000    0.000    0.000 
#
# Total GULP energy -145773.277752 kJ/mol
# GULP energy per Si atom -5606.664529 kJ/mol
# Density = 2.597437 g / cm^3
# Si number density = 26.033624 Si / 1000 Ang^3
#
#
#
# Elastic Constant Matrix: (Units=GPa)
#
#
# Indices 1 2 3 4 5 6 
#
# 1 121.2322 36.7191 -3.4569 0.0000 16.5208 0.0000
# 2 36.7191 55.8776 9.4829 0.0000 0.0344 0.0000
# 3 -3.4569 9.4829 61.3790 0.0000 7.4719 0.0000
# 4 0.0000 0.0000 0.0000 18.6786 0.0000 9.8569
# 5 16.5208 0.0344 7.4719 0.0000 32.9415 0.0000
# 6 0.0000 0.0000 0.0000 9.8569 0.0000 54.6986
#
#
#
# Elastic Compliance Matrix: (Units=1/GPa)
#
#
# Indices 1 2 3 4 5 6 
#
# 1 0.011664 -0.008118 0.002697 0.000000 -0.006453 0.000000
# 2 -0.008118 0.024042 -0.004797 0.000000 0.005134 0.000000
# 3 0.002697 -0.004797 0.017842 0.000000 -0.005394 0.000000
# 4 0.000000 0.000000 0.000000 0.059163 0.000000 -0.010662
# 5 -0.006453 0.005134 -0.005394 0.000000 0.034811 0.000000
# 6 0.000000 0.000000 0.000000 -0.010662 0.000000 0.020203
#
#
# Mechanical properties :
#
#
# Convention : Reuss Voigt Hill
#
# Bulk Modulus (GPa) = 30.20151 35.99768 33.09960
# Shear Modulus (GPa) = 25.10049 34.31331 29.70690
#
# Velocity S-wave (km/s) = 3.10846 3.63442 3.38168
# Velocity P-wave (km/s) = 4.95070 5.60976 5.29050
#
# Compressibility (1/GPa) = 0.03311093
#
# Stress axis : x y z
#
# Youngs Moduli (GPa) = 85.73548 41.59394 56.04801
#
# Poissons Ratio (x) = 0.33767 -0.15115
# Poissons Ratio (y) = 0.69603 0.26885
# Poissons Ratio (z) = -0.23120 0.19951
#
# Static dielectric constant tensor:
#      x y z
#    x 2.054040 0.000000 0.017330 
#    y 0.000000 2.019850 0.000000 
#    z 0.017330 0.000000 2.049900 
# 
# From -- ./inp_files/287893.got.cif
#   From: 2010.05.17/outbox.cif.g08.bks.cpg/sg15_144_cif.got.tgz:287893.got - 2010.06.03 18:47:42.
