data_PCOD9301347
_publ_section_title
;
Structure prediction by ZEFSAII (Michael W. Deem and Ramdas Pophale) SiO2 
 PCOD9301347
Probable space group: C 2/C
;
_chemical_formula_sum "Si O2"
_cell_formula_units_Z 44
_cell_length_a 13.843710
_cell_length_b 5.990214
_cell_length_c 23.440332
_cell_angle_alpha 90.000000
_cell_angle_beta 107.432239
_cell_angle_gamma 90.000000
_cell_volume 1854.554928
_symmetry_space_group_name_H-M "C 2/C"
_symmetry_group_IT_number 15
_symmetry_cell_setting 'monoclinic'
loop_
_space_group_symop_operation_xyz
x,y,z
-x,y,1/2-z
-x,-y,-z
x,-y,1/2+z
1/2+x,1/2+y,z
1/2-x,1/2+y,1/2-z
1/2-x,1/2-y,-z
1/2+x,1/2-y,1/2+z
loop_
_atom_site_type_symbol
_atom_site_label
_atom_site_fract_x
_atom_site_fract_y
_atom_site_fract_z
Si Si1 0.500000 0.663273 0.750000
Si Si2 0.335554 0.065191 0.517592
Si Si3 0.350239 0.929734 0.390769
Si Si4 0.550123 0.183643 0.377379
Si Si5 0.006664 0.906707 0.564684
Si Si6 0.212594 0.982674 0.766146
O O1 0.455157 0.815248 0.691351
O O2 0.591916 0.513996 0.742729
O O3 0.250000 0.250000 0.500000
O O4 0.440990 0.189242 0.543861
O O5 0.337912 0.955126 0.456285
O O6 0.347108 0.910454 0.575166
O O7 0.386102 0.672517 0.392031
O O8 0.252824 0.998233 0.338187
O O9 0.441939 0.081689 0.380710
O O10 0.545852 0.433665 0.400183
O O11 0.000000 0.000000 0.500000
O O12 0.255518 0.227378 0.748394
#
# Coordination Sequence:
#
# PCOD9301347 Si02
#       6
#     4   8   8   8   8   8
#     4  12  28  50  80 112 158 216 268 318 396 496
#     4  11  25  40  67 112 144 187 254 322 387 466
#     4  11  23  45  72 105 147 196 257 322 395 453
#     4  11  23  48  68 105 147 197 255 314 391 468
#     4  11  20  41  73  94 140 192 245 313 387 458
#     4  12  29  54  80 114 161 213 269 329 396 475
#
# _framework density 23.725370999999999
#
# number of rings (size 3 to 8) (size 9 to 14) (size 15 to 20)
#    0.000    0.727    5.455    2.182    2.545    4.364 
#    3.273    0.000    0.000    0.000    0.000    0.000 
#    0.000    0.000    0.000    0.000    0.000    0.000 
#
# Total GULP energy -122641.216818 kJ/mol
# GULP energy per Si atom -5574.600764 kJ/mol
# Density = 2.367137 g / cm^3
# Si number density = 23.725371 Si / 1000 Ang^3
#
#
#
# Elastic Constant Matrix: (Units=GPa)
#
#
# Indices 1 2 3 4 5 6 
#
# 1 79.0626 17.6696 -1.3393 0.0000 1.4244 0.0000
# 2 17.6696 82.8872 26.3652 0.0000 -4.6519 0.0000
# 3 -1.3393 26.3652 161.8337 0.0000 3.1915 0.0000
# 4 0.0000 0.0000 0.0000 1.9526 0.0000 1.5117
# 5 1.4244 -4.6519 3.1915 0.0000 25.0515 0.0000
# 6 0.0000 0.0000 0.0000 1.5117 0.0000 33.9643
#
#
#
# Elastic Compliance Matrix: (Units=1/GPa)
#
#
# Indices 1 2 3 4 5 6 
#
# 1 0.013387 -0.003141 0.000651 0.000000 -0.001427 0.000000
# 2 -0.003141 0.013637 -0.002307 0.000000 0.003005 0.000000
# 3 0.000651 -0.002307 0.006586 0.000000 -0.001304 0.000000
# 4 0.000000 0.000000 0.000000 0.530406 0.000000 -0.023607
# 5 -0.001427 0.003005 -0.001304 0.000000 0.040723 0.000000
# 6 0.000000 0.000000 0.000000 -0.023607 0.000000 0.030493
#
#
# Mechanical properties :
#
#
# Convention : Reuss Voigt Hill
#
# Bulk Modulus (GPa) = 41.63988 45.46383 43.55185
# Shear Modulus (GPa) = 7.65895 30.93289 19.29592
#
# Velocity S-wave (km/s) = 1.79866 3.61472 2.85494
# Velocity P-wave (km/s) = 4.68001 6.05192 5.40963
#
# Compressibility (1/GPa) = 0.02401544
#
# Stress axis : x y z
#
# Youngs Moduli (GPa) = 74.69998 73.33233 151.83465
#
# Poissons Ratio (x) = 0.23032 -0.09879
# Poissons Ratio (y) = 0.23462 0.35026
# Poissons Ratio (z) = -0.04860 0.16917
#
# Static dielectric constant tensor:
#      x y z
#    x 1.743200 0.000000 0.221530 
#    y 0.000000 1.883750 0.000000 
#    z 0.221530 0.000000 1.857360 
# 
# From -- ./inp_files/271930.got.cif
#   From: 2010.05.17/outbox.cif.g08.bks.cpg/sg15_136_cif.got.tgz:271930.got - 2010.06.03 18:47:42.
