data_PCOD9301485
_publ_section_title
;
Structure prediction by ZEFSAII (Michael W. Deem and Ramdas Pophale) SiO2 
 PCOD9301485
Probable space group: C 2/C
;
_chemical_formula_sum "Si O2"
_cell_formula_units_Z 48
_cell_length_a 28.565226
_cell_length_b 8.410200
_cell_length_c 16.104011
_cell_angle_alpha 90.000000
_cell_angle_beta 141.162081
_cell_angle_gamma 90.000000
_cell_volume 2426.209598
_symmetry_space_group_name_H-M "C 2/C"
_symmetry_group_IT_number 15
_symmetry_cell_setting 'monoclinic'
loop_
_space_group_symop_operation_xyz
x,y,z
-x,y,1/2-z
-x,-y,-z
x,-y,1/2+z
1/2+x,1/2+y,z
1/2-x,1/2+y,1/2-z
1/2-x,1/2-y,-z
1/2+x,1/2-y,1/2+z
loop_
_atom_site_type_symbol
_atom_site_label
_atom_site_fract_x
_atom_site_fract_y
_atom_site_fract_z
Si Si1 0.084635 0.643204 0.871030
Si Si2 0.832668 0.684971 0.009245
Si Si3 0.811328 0.848390 0.812832
Si Si4 0.678438 0.814367 0.349999
Si Si5 0.852578 0.214966 0.884481
Si Si6 0.166803 0.693405 0.311903
O O1 0.140126 0.494759 0.960807
O O2 0.109856 0.714245 0.817778
O O3 0.000000 0.587148 0.750000
O O4 0.096410 0.758451 0.965199
O O5 0.865358 0.743468 0.143023
O O6 0.850043 0.769924 0.946947
O O7 0.743785 0.709551 0.902161
O O8 0.830093 0.771507 0.750026
O O9 0.723376 0.814352 0.704075
O O10 0.829354 0.033020 0.842072
O O11 0.750000 0.750000 0.500000
O O12 0.685332 0.004816 0.343537
O O13 0.882834 0.275904 0.837708
#
# Coordination Sequence:
#
# PCOD9301485 Si02
#       6
#     8   8   8   8   8   8
#     4  11  24  42  60  87 126 166 200 245 310 373
#     4   9  19  36  59  85 120 152 199 247 299 351
#     4  11  21  34  61  93 119 153 206 260 302 350
#     4  11  22  36  62  94 119 157 206 255 298 353
#     4  11  21  35  60  90 125 159 198 256 305 357
#     4   9  19  34  60  90 117 147 200 258 298 345
#
# _framework density 19.783946
#
# number of rings (size 3 to 8) (size 9 to 14) (size 15 to 20)
#    0.000    1.667    1.667    5.000    7.000    0.000 
#    0.000    9.167    0.000    0.000    0.000    0.000 
#    0.000    0.000    0.000    0.000    0.000    0.000 
#
# Total GULP energy -133832.918724 kJ/mol
# GULP energy per Si atom -5576.371613 kJ/mol
# Density = 1.973892 g / cm^3
# Si number density = 19.783946 Si / 1000 Ang^3
#
#
#
# Elastic Constant Matrix: (Units=GPa)
#
#
# Indices 1 2 3 4 5 6 
#
# 1 92.7948 27.3752 63.4374 0.0000 -47.6447 0.0000
# 2 27.3752 93.4577 56.7676 0.0000 -20.6930 0.0000
# 3 63.4374 56.7676 79.3139 0.0000 -49.5971 0.0000
# 4 0.0000 0.0000 0.0000 8.0493 0.0000 -19.9426
# 5 -47.6447 -20.6930 -49.5971 0.0000 49.4984 0.0000
# 6 0.0000 0.0000 0.0000 -19.9426 0.0000 17.5619
#
#
#
# Elastic Compliance Matrix: (Units=1/GPa)
#
#
# Indices 1 2 3 4 5 6 
#
# 1 0.028323 0.008048 -0.024802 0.000000 0.005775 0.000000
# 2 0.008048 0.026696 -0.036744 0.000000 -0.017910 0.000000
# 3 -0.024802 -0.036744 0.091611 0.000000 0.052560 0.000000
# 4 0.000000 0.000000 0.000000 -0.068508 0.000000 -0.077796
# 5 0.005775 -0.017910 0.052560 0.000000 0.070938 0.000000
# 6 0.000000 0.000000 0.000000 -0.077796 0.000000 -0.031400
#
#
# Mechanical properties :
#
#
# Convention : Reuss Voigt Hill
#
# Bulk Modulus (GPa) = 25.23106 62.30297 43.76701
# Shear Modulus (GPa) = 21.02006 22.88766 21.95386
#
# Velocity S-wave (km/s) = 3.26311 3.40498 3.33480
# Velocity P-wave (km/s) = 5.19405 6.85701 6.08263
#
# Compressibility (1/GPa) = 0.03963370
#
# Stress axis : x y z
#
# Youngs Moduli (GPa) = 35.30681 37.45912 10.91567
#
# Poissons Ratio (x) = -0.30146 0.27073
# Poissons Ratio (y) = -0.28414 0.40108
# Poissons Ratio (z) = 0.87569 1.37638
#
# Static dielectric constant tensor:
#      x y z
#    x 1.738570 0.000000 -0.072860 
#    y 0.000000 1.696090 0.000000 
#    z -0.072860 0.000000 1.739390 
# 
# From -- ./inp_files/180725.got.cif
#   From: 2010.05.17/outbox.cif.g08.bks.cpg/sg15_91_cif.got.tgz:180725.got - 2010.06.03 18:47:42.
