data_PCOD9301527
_publ_section_title
;
Structure prediction by ZEFSAII (Michael W. Deem and Ramdas Pophale) SiO2 
 PCOD9301527
Probable space group: C 2/C
;
_chemical_formula_sum "Si O2"
_cell_formula_units_Z 64
_cell_length_a 20.721840
_cell_length_b 19.030014
_cell_length_c 15.647884
_cell_angle_alpha 90.000000
_cell_angle_beta 34.405939
_cell_angle_gamma 90.000000
_cell_volume 3486.678179
_symmetry_space_group_name_H-M "C 2/C"
_symmetry_group_IT_number 15
_symmetry_cell_setting 'monoclinic'
loop_
_space_group_symop_operation_xyz
x,y,z
-x,y,1/2-z
-x,-y,-z
x,-y,1/2+z
1/2+x,1/2+y,z
1/2-x,1/2+y,1/2-z
1/2-x,1/2-y,-z
1/2+x,1/2-y,1/2+z
loop_
_atom_site_type_symbol
_atom_site_label
_atom_site_fract_x
_atom_site_fract_y
_atom_site_fract_z
Si Si1 0.530433 0.559076 0.617075
Si Si2 0.585208 0.418022 0.810425
Si Si3 0.549565 0.828958 0.948615
Si Si4 0.106439 0.292735 0.079602
Si Si5 0.297562 0.106408 0.738503
Si Si6 0.925374 0.168913 0.605265
Si Si7 0.810534 0.144538 0.464300
Si Si8 0.261295 0.056570 0.269102
O O1 0.500000 0.556239 0.750000
O O2 0.486804 0.489557 0.615042
O O3 0.467138 0.624281 0.640899
O O4 0.664604 0.562738 0.448178
O O5 0.617050 0.404038 0.677318
O O6 0.693935 0.426258 0.754164
O O7 0.510458 0.356642 0.935852
O O8 0.587728 0.813908 0.003849
O O9 0.419208 0.856040 0.091850
O O10 0.563565 0.752086 0.891153
O O11 0.636455 0.889499 0.823653
O O12 0.117496 0.209247 0.077752
O O13 0.000000 0.318805 0.250000
O O14 0.219213 0.323600 0.998159
O O15 0.200351 0.144291 0.787399
O O16 0.303574 0.023428 0.713955
O O17 0.254379 0.112441 0.883924
#
# Coordination Sequence:
#
# PCOD9301527 Si02
#       8
#     8   8   8   8   8   8   8   8
#     4  11  23  43  69  89 115 157 212 273 311 345
#     4  11  21  39  63  94 126 158 205 258 300 368
#     4  12  25  38  64  88 133 169 198 249 306 370
#     4  11  21  36  51  93 129 164 193 235 302 373
#     4  12  23  40  60  91 130 171 202 241 303 372
#     4  11  24  40  62  96 120 162 211 256 306 366
#     4  11  23  31  60  89 128 159 200 243 297 364
#     4  11  23  43  62  91 123 163 211 249 306 371
#
# _framework density 18.35558
#
# number of rings (size 3 to 8) (size 9 to 14) (size 15 to 20)
#    0.000    0.750    6.250    2.625    5.250    0.000 
#    0.000    0.625    0.000    0.000    0.000    0.000 
#    0.000    0.000    0.000    0.000    0.000    0.000 
#
# Total GULP energy -178755.450084 kJ/mol
# GULP energy per Si atom -5586.107815 kJ/mol
# Density = 1.831380 g / cm^3
# Si number density = 18.355580 Si / 1000 Ang^3
#
#
#
# Elastic Constant Matrix: (Units=GPa)
#
#
# Indices 1 2 3 4 5 6 
#
# 1 68.6499 34.4956 29.6845 0.0000 -10.1764 0.0000
# 2 34.4956 137.5100 53.8544 0.0000 -19.7297 0.0000
# 3 29.6845 53.8544 95.8980 -0.0001 -8.6296 0.0000
# 4 0.0000 0.0000 -0.0001 30.4861 0.0000 -5.2252
# 5 -10.1764 -19.7297 -8.6296 0.0000 32.0897 0.0000
# 6 0.0000 0.0000 0.0000 -5.2252 0.0000 47.1848
#
#
#
# Elastic Compliance Matrix: (Units=1/GPa)
#
#
# Indices 1 2 3 4 5 6 
#
# 1 0.017975 -0.002558 -0.003849 0.000000 0.003092 0.000000
# 2 -0.002558 0.010345 -0.004630 0.000000 0.004304 0.000000
# 3 -0.003849 -0.004630 0.014197 0.000000 -0.000250 0.000000
# 4 0.000000 0.000000 0.000000 0.033436 0.000000 0.003703
# 5 0.003092 0.004304 -0.000250 0.000000 0.034722 0.000000
# 6 0.000000 0.000000 0.000000 0.003703 0.000000 0.021603
#
#
# Mechanical properties :
#
#
# Convention : Reuss Voigt Hill
#
# Bulk Modulus (GPa) = 48.91955 59.79190 54.35573
# Shear Modulus (GPa) = 31.02356 34.22035 32.62195
#
# Velocity S-wave (km/s) = 4.11560 4.32244 4.22029
# Velocity P-wave (km/s) = 7.02090 7.58659 7.30922
#
# Compressibility (1/GPa) = 0.02044172
#
# Stress axis : x y z
#
# Youngs Moduli (GPa) = 55.63342 96.66660 70.43696
#
# Poissons Ratio (x) = 0.24727 0.27113
# Poissons Ratio (y) = 0.14231 0.32615
# Poissons Ratio (z) = 0.21414 0.44760
#
# Static dielectric constant tensor:
#      x y z
#    x 1.576650 0.000000 0.053460 
#    y 0.000000 1.653770 0.000000 
#    z 0.053460 0.000000 1.570150 
# 
# From -- ./inp_files/219899.got.cif
#   From: 2010.05.17/outbox.cif.g08.bks.cpg/sg15_110_cif.got.tgz:219899.got - 2010.06.03 18:47:42.
