data_PCOD9301838
_publ_section_title
;
Structure prediction by ZEFSAII (Michael W. Deem and Ramdas Pophale) SiO2 
 PCOD9301838
Probable space group: C 2/C
;
_chemical_formula_sum "Si O2"
_cell_formula_units_Z 56
_cell_length_a 13.652916
_cell_length_b 11.751371
_cell_length_c 18.544493
_cell_angle_alpha 90.000000
_cell_angle_beta 62.414385
_cell_angle_gamma 90.000000
_cell_volume 2637.056320
_symmetry_space_group_name_H-M "C 2/C"
_symmetry_group_IT_number 15
_symmetry_cell_setting 'monoclinic'
loop_
_space_group_symop_operation_xyz
x,y,z
-x,y,1/2-z
-x,-y,-z
x,-y,1/2+z
1/2+x,1/2+y,z
1/2-x,1/2+y,1/2-z
1/2-x,1/2-y,-z
1/2+x,1/2-y,1/2+z
loop_
_atom_site_type_symbol
_atom_site_label
_atom_site_fract_x
_atom_site_fract_y
_atom_site_fract_z
Si Si1 0.217227 0.507429 0.108416
Si Si2 0.942306 0.923613 0.343581
Si Si3 0.551868 0.424817 0.919903
Si Si4 0.482351 0.167763 0.969689
Si Si5 0.416167 0.195665 0.838695
Si Si6 0.373927 0.202001 0.446564
Si Si7 0.263136 0.591459 0.434399
O O1 0.317287 0.566100 0.115813
O O2 0.158510 0.404690 0.169127
O O3 0.135128 0.605897 0.110865
O O4 0.262754 0.448472 0.018565
O O5 0.937534 0.813449 0.396789
O O6 0.000000 0.892202 0.250000
O O7 0.822257 0.984273 0.375443
O O8 0.013270 0.021345 0.358534
O O9 0.500000 0.500000 0.000000
O O10 0.503899 0.301558 0.951241
O O11 0.573636 0.143726 0.999995
O O12 0.363063 0.126640 0.039423
O O13 0.477977 0.135910 0.886137
O O14 0.500000 0.239080 0.750000
O O15 0.336349 0.296111 0.894333
O O16 0.250000 0.250000 0.500000
#
# Coordination Sequence:
#
# PCOD9301838 Si02
#       7
#     8   8   8   8   8   8   8
#     4  11  23  42  68  93 127 176 223 262 319 399
#     4  12  26  42  65 100 134 168 217 279 327 382
#     4  12  18  39  70  93 121 176 220 250 319 400
#     4  11  22  37  72  97 122 174 221 265 325 387
#     4  11  24  41  64 100 137 165 218 283 330 370
#     4  12  23  45  67  95 133 174 223 261 319 407
#     4  11  21  39  67  96 128 160 224 276 315 380
#
# _framework density 21.235800000000001
#
# number of rings (size 3 to 8) (size 9 to 14) (size 15 to 20)
#    0.000    0.571    7.143    3.000    0.000    2.857 
#    2.571    1.429    0.000    0.000    0.000    0.000 
#    0.000    0.000    0.000    0.000    0.000    0.000 
#
# Total GULP energy -156230.792861 kJ/mol
# GULP energy per Si atom -5579.671174 kJ/mol
# Density = 2.118747 g / cm^3
# Si number density = 21.235800 Si / 1000 Ang^3
#
#
#
# Elastic Constant Matrix: (Units=GPa)
#
#
# Indices 1 2 3 4 5 6 
#
# 1 134.2209 20.1512 22.6625 0.0000 -0.0284 0.0000
# 2 20.1512 101.8156 -0.9592 0.0000 -9.7403 0.0000
# 3 22.6625 -0.9592 71.8567 0.0000 -7.4915 0.0000
# 4 0.0000 0.0000 0.0000 20.5370 0.0000 -1.2113
# 5 -0.0284 -9.7403 -7.4915 0.0000 16.0894 0.0000
# 6 0.0000 0.0000 0.0000 -1.2113 0.0000 33.7117
#
#
#
# Elastic Compliance Matrix: (Units=1/GPa)
#
#
# Indices 1 2 3 4 5 6 
#
# 1 0.008219 -0.001890 -0.002875 0.000000 -0.002468 0.000000
# 2 -0.001890 0.010908 0.001503 0.000000 0.007300 0.000000
# 3 -0.002875 0.001503 0.015700 0.000000 0.008215 0.000000
# 4 0.000000 0.000000 0.000000 0.048796 0.000000 0.001753
# 5 -0.002468 0.007300 0.008215 0.000000 0.070393 0.000000
# 6 0.000000 0.000000 0.000000 0.001753 0.000000 0.029726
#
#
# Mechanical properties :
#
#
# Convention : Reuss Voigt Hill
#
# Bulk Modulus (GPa) = 35.33163 43.51137 39.42150
# Shear Modulus (GPa) = 25.03754 31.80352 28.42053
#
# Velocity S-wave (km/s) = 3.43742 3.87413 3.66229
# Velocity P-wave (km/s) = 5.69459 6.36757 6.04046
#
# Compressibility (1/GPa) = 0.02830325
#
# Stress axis : x y z
#
# Youngs Moduli (GPa) = 121.66932 91.67380 63.69542
#
# Poissons Ratio (x) = 0.17325 0.18310
# Poissons Ratio (y) = 0.22994 -0.09572
# Poissons Ratio (z) = 0.34976 -0.13776
#
# Static dielectric constant tensor:
#      x y z
#    x 1.897260 0.000000 0.011350 
#    y 0.000000 1.811650 0.000000 
#    z 0.011350 0.000000 1.767280 
# 
# From -- ./inp_files/204363.got.cif
#   From: 2010.05.17/outbox.cif.g08.bks.cpg/sg15_103_cif.got.tgz:204363.got - 2010.06.03 18:47:42.
