data_PCOD9301027
_publ_section_title
;
Structure prediction by ZEFSAII (Michael W. Deem and Ramdas Pophale) SiO2 
 PCOD9301027
Probable space group: C 2/C
;
_chemical_formula_sum "Si O2"
_cell_formula_units_Z 56
_cell_length_a 11.653761
_cell_length_b 16.047794
_cell_length_c 16.875353
_cell_angle_alpha 90.000000
_cell_angle_beta 60.147300
_cell_angle_gamma 90.000000
_cell_volume 2737.207077
_symmetry_space_group_name_H-M "C 2/C"
_symmetry_group_IT_number 15
_symmetry_cell_setting 'monoclinic'
loop_
_space_group_symop_operation_xyz
x,y,z
-x,y,1/2-z
-x,-y,-z
x,-y,1/2+z
1/2+x,1/2+y,z
1/2-x,1/2+y,1/2-z
1/2-x,1/2-y,-z
1/2+x,1/2-y,1/2+z
loop_
_atom_site_type_symbol
_atom_site_label
_atom_site_fract_x
_atom_site_fract_y
_atom_site_fract_z
Si Si1 0.256339 0.692792 0.702478
Si Si2 0.615962 0.709000 0.371177
Si Si3 0.413927 0.917165 0.510824
Si Si4 0.643168 0.128132 0.159147
Si Si5 0.675813 0.310831 0.590686
Si Si6 0.030912 0.263734 0.569274
Si Si7 0.875634 0.556647 0.849950
O O1 0.178444 0.706828 0.811268
O O2 0.190239 0.761884 0.667761
O O3 0.411131 0.714310 0.652145
O O4 0.231960 0.607864 0.662744
O O5 0.738433 0.645605 0.320973
O O6 0.476983 0.683636 0.380472
O O7 0.585875 0.714787 0.475060
O O8 0.254722 0.898642 0.572083
O O9 0.470910 0.846298 0.548219
O O10 0.425638 0.901011 0.413012
O O11 0.500000 0.000000 0.500000
O O12 0.500000 0.127619 0.250000
O O13 0.632011 0.201787 0.099053
O O14 0.666073 0.037144 0.114480
O O15 0.750000 0.250000 0.500000
O O16 0.000000 0.551955 0.750000
#
# Coordination Sequence:
#
# PCOD9301027 Si02
#       7
#     8   8   8   8   8   8   8
#     4  11  21  38  65  94 122 156 218 273 302 371
#     4  12  22  39  66  88 126 167 214 259 320 372
#     4  11  20  36  61  87 124 156 200 262 311 364
#     4  11  24  40  59  90 130 170 206 258 324 394
#     4  11  20  36  61  89 119 152 210 260 308 361
#     4  11  21  40  62  91 124 168 211 258 315 383
#     4  11  21  35  60  93 122 159 216 258 317 366
#
# _framework density 20.458811000000001
#
# number of rings (size 3 to 8) (size 9 to 14) (size 15 to 20)
#    0.000    0.857    7.143    2.571    0.000    0.000 
#    0.000    2.857    0.000    0.000    0.000    0.000 
#    0.000    0.000    0.000    0.000    0.000    0.000 
#
# Total GULP energy -156037.730738 kJ/mol
# GULP energy per Si atom -5572.776098 kJ/mol
# Density = 2.041225 g / cm^3
# Si number density = 20.458811 Si / 1000 Ang^3
#
#
#
# Elastic Constant Matrix: (Units=GPa)
#
#
# Indices 1 2 3 4 5 6 
#
# 1 131.0516 29.2498 9.6143 0.0000 -27.6690 0.0000
# 2 29.2498 56.8764 -8.4641 0.0000 -18.7906 0.0000
# 3 9.6143 -8.4641 49.6209 0.0000 -10.6830 0.0000
# 4 0.0000 0.0000 0.0000 11.4097 0.0000 7.0202
# 5 -27.6690 -18.7906 -10.6830 0.0000 31.9047 0.0000
# 6 0.0000 0.0000 0.0000 7.0202 0.0000 33.4291
#
#
#
# Elastic Compliance Matrix: (Units=1/GPa)
#
#
# Indices 1 2 3 4 5 6 
#
# 1 0.009718 -0.003091 -0.001064 0.000000 0.006251 0.000000
# 2 -0.003091 0.025325 0.008140 0.000000 0.014960 0.000000
# 3 -0.001064 0.008140 0.024335 0.000000 0.012019 0.000000
# 4 0.000000 0.000000 0.000000 0.100650 0.000000 -0.021137
# 5 0.006251 0.014960 0.012019 0.000000 0.049600 0.000000
# 6 0.000000 0.000000 0.000000 -0.021137 0.000000 0.034353
#
#
# Mechanical properties :
#
#
# Convention : Reuss Voigt Hill
#
# Bulk Modulus (GPa) = 14.84837 33.14988 23.99913
# Shear Modulus (GPa) = 19.34516 29.15862 24.25189
#
# Velocity S-wave (km/s) = 3.07834 3.77932 3.44670
# Velocity P-wave (km/s) = 4.46188 5.93993 5.25315
#
# Compressibility (1/GPa) = 0.06734745
#
# Stress axis : x y z
#
# Youngs Moduli (GPa) = 102.89760 39.48599 41.09293
#
# Poissons Ratio (x) = 0.12205 0.04374
# Poissons Ratio (y) = 0.31806 -0.33448
# Poissons Ratio (z) = 0.10952 -0.32140
#
# Static dielectric constant tensor:
#      x y z
#    x 1.782050 0.000000 0.006600 
#    y 0.000000 1.774010 0.000000 
#    z 0.006600 0.000000 1.807650 
# 
# From -- ./inp_files/198229.got.cif
#   From: 2010.05.17/outbox.cif.g08.bks.cpg/sg15_100_cif.got.tgz:198229.got - 2010.06.03 18:47:42.
