data_PCOD9301228
_publ_section_title
;
Structure prediction by ZEFSAII (Michael W. Deem and Ramdas Pophale) SiO2 
 PCOD9301228
Probable space group: C 2/C
;
_chemical_formula_sum "Si O2"
_cell_formula_units_Z 48
_cell_length_a 19.202910
_cell_length_b 9.921423
_cell_length_c 11.146836
_cell_angle_alpha 90.000000
_cell_angle_beta 99.544255
_cell_angle_gamma 90.000000
_cell_volume 2094.300756
_symmetry_space_group_name_H-M "C 2/C"
_symmetry_group_IT_number 15
_symmetry_cell_setting 'monoclinic'
loop_
_space_group_symop_operation_xyz
x,y,z
-x,y,1/2-z
-x,-y,-z
x,-y,1/2+z
1/2+x,1/2+y,z
1/2-x,1/2+y,1/2-z
1/2-x,1/2-y,-z
1/2+x,1/2-y,1/2+z
loop_
_atom_site_type_symbol
_atom_site_label
_atom_site_fract_x
_atom_site_fract_y
_atom_site_fract_z
Si Si1 0.631283 0.258818 0.436418
Si Si2 0.523455 0.645781 0.563959
Si Si3 0.862405 0.982435 0.235655
Si Si4 0.774875 0.624788 0.230402
Si Si5 0.679846 0.862622 0.199989
Si Si6 0.071115 0.259405 0.336454
O O1 0.546922 0.281379 0.407334
O O2 0.660253 0.401498 0.391180
O O3 0.673273 0.152363 0.365704
O O4 0.850966 0.283469 0.423098
O O5 0.500000 0.500000 0.500000
O O6 0.584187 0.611781 0.676046
O O7 0.556362 0.739868 0.471039
O O8 0.798967 0.040860 0.298658
O O9 0.906533 0.111831 0.205797
O O10 0.748335 0.773381 0.257169
O O11 0.812577 0.519752 0.329570
O O12 0.631406 0.854677 0.303439
O O13 0.000000 0.300646 0.250000
#
# Coordination Sequence:
#
# PCOD9301228 Si02
#       6
#     8   8   8   8   8   8
#     4  12  23  44  75 100 143 189 239 303 359 425
#     4  12  21  39  70 109 140 184 246 304 342 426
#     4  11  23  39  69 106 139 185 246 291 348 430
#     4  11  25  44  67 106 138 190 233 293 361 431
#     4  11  25  46  73  98 141 187 238 294 363 434
#     4  11  20  39  66 102 136 177 234 291 352 412
#
# _framework density 22.919343999999999
#
# number of rings (size 3 to 8) (size 9 to 14) (size 15 to 20)
#    0.000    0.667    6.667    2.000    0.000    1.333 
#    3.000    4.167    0.000    0.000    0.000    0.000 
#    0.000    0.000    0.000    0.000    0.000    0.000 
#
# Total GULP energy -133808.064716 kJ/mol
# GULP energy per Si atom -5575.336030 kJ/mol
# Density = 2.286718 g / cm^3
# Si number density = 22.919344 Si / 1000 Ang^3
#
#
#
# Elastic Constant Matrix: (Units=GPa)
#
#
# Indices 1 2 3 4 5 6 
#
# 1 146.1104 39.4788 38.2059 0.0000 -42.2549 0.0000
# 2 39.4788 68.8616 10.4667 0.0000 -10.9460 0.0000
# 3 38.2059 10.4667 53.5404 0.0000 -21.7404 0.0000
# 4 0.0000 0.0000 0.0000 30.0611 0.0000 -15.7303
# 5 -42.2549 -10.9460 -21.7404 0.0000 27.3577 0.0000
# 6 0.0000 0.0000 0.0000 -15.7303 0.0000 20.1809
#
#
#
# Elastic Compliance Matrix: (Units=1/GPa)
#
#
# Indices 1 2 3 4 5 6 
#
# 1 0.013793 -0.004786 -0.001526 0.000000 0.018176 0.000000
# 2 -0.004786 0.017190 -0.000227 0.000000 -0.000696 0.000000
# 3 -0.001526 -0.000227 0.027782 0.000000 0.019629 0.000000
# 4 0.000000 0.000000 0.000000 0.056180 0.000000 0.043790
# 5 0.018176 -0.000696 0.019629 0.000000 0.079945 0.000000
# 6 0.000000 0.000000 0.000000 0.043790 0.000000 0.083685
#
#
# Mechanical properties :
#
#
# Convention : Reuss Voigt Hill
#
# Bulk Modulus (GPa) = 21.88967 49.42389 35.65678
# Shear Modulus (GPa) = 16.29285 27.54402 21.91843
#
# Velocity S-wave (km/s) = 2.66912 3.47043 3.09581
# Velocity P-wave (km/s) = 4.36697 6.13756 5.32635
#
# Compressibility (1/GPa) = 0.04568365
#
# Stress axis : x y z
#
# Youngs Moduli (GPa) = 72.50098 58.17356 35.99513
#
# Poissons Ratio (x) = 0.27844 0.05495
# Poissons Ratio (y) = 0.34702 0.00819
# Poissons Ratio (z) = 0.11067 0.01323
#
# Static dielectric constant tensor:
#      x y z
#    x 1.941150 0.000000 0.011440 
#    y 0.000000 1.878520 0.000000 
#    z 0.011440 0.000000 1.852040 
# 
# From -- ./inp_files/103822.got.cif
#   From: 2010.05.17/outbox.cif.g08.bks.cpg/sg15_52_cif.got.tgz:103822.got - 2010.06.03 18:47:42.
