data_PCOD9301338
_publ_section_title
;
Structure prediction by ZEFSAII (Michael W. Deem and Ramdas Pophale) SiO2 
 PCOD9301338
Probable space group: C 2/C
;
_chemical_formula_sum "Si O2"
_cell_formula_units_Z 64
_cell_length_a 25.648955
_cell_length_b 15.337132
_cell_length_c 11.942459
_cell_angle_alpha 90.000000
_cell_angle_beta 140.151706
_cell_angle_gamma 90.000000
_cell_volume 3010.239036
_symmetry_space_group_name_H-M "C 2/C"
_symmetry_group_IT_number 15
_symmetry_cell_setting 'monoclinic'
loop_
_space_group_symop_operation_xyz
x,y,z
-x,y,1/2-z
-x,-y,-z
x,-y,1/2+z
1/2+x,1/2+y,z
1/2-x,1/2+y,1/2-z
1/2-x,1/2-y,-z
1/2+x,1/2-y,1/2+z
loop_
_atom_site_type_symbol
_atom_site_label
_atom_site_fract_x
_atom_site_fract_y
_atom_site_fract_z
Si Si1 0.412496 0.552421 0.660825
Si Si2 0.050818 0.758882 0.217790
Si Si3 0.182288 0.610674 0.438561
Si Si4 0.330583 0.616630 0.110787
Si Si5 0.841987 0.575488 0.555462
Si Si6 0.907693 0.708137 0.829654
Si Si7 0.252427 0.620416 0.308382
Si Si8 0.763161 0.321814 0.254166
O O1 0.500000 0.535577 0.750000
O O2 0.422494 0.640928 0.749245
O O3 0.383929 0.469129 0.683450
O O4 0.341606 0.575418 0.452396
O O5 0.127073 0.695925 0.353381
O O6 0.000000 0.755292 0.250000
O O7 0.995446 0.723432 0.026472
O O8 0.132148 0.521682 0.369695
O O9 0.227851 0.610373 0.396674
O O10 0.239929 0.618668 0.641482
O O11 0.371664 0.696833 0.241866
O O12 0.246406 0.592793 0.033270
O O13 0.305579 0.652606 0.947413
O O14 0.899986 0.647284 0.707489
O O15 0.818888 0.581940 0.387140
O O16 0.848346 0.667865 0.827317
O O17 0.257832 0.721169 0.281550
#
# Coordination Sequence:
#
# PCOD9301338 Si02
#       8
#     8   8   8   8   8   8   8   8
#     4  11  24  43  65  99 140 174 218 272 334 402
#     4  11  24  44  67  94 139 180 216 276 340 404
#     4  12  25  39  71 101 130 175 222 284 331 387
#     4  11  22  43  68  97 130 182 222 272 331 400
#     4  11  24  42  70  99 130 173 227 280 326 397
#     4  11  22  45  68  94 133 183 224 266 342 400
#     4  12  22  43  67  99 135 169 228 274 329 395
#     4  11  20  41  70  95 132 174 225 278 331 390
#
# _framework density 21.260770999999998
#
# number of rings (size 3 to 8) (size 9 to 14) (size 15 to 20)
#    0.000    0.750    6.250    2.625    1.750    1.000 
#    2.250    0.625    0.000    0.000    0.000    0.000 
#    0.000    0.000    0.000    0.000    0.000    0.000 
#
# Total GULP energy -178951.308580 kJ/mol
# GULP energy per Si atom -5592.228393 kJ/mol
# Density = 2.121238 g / cm^3
# Si number density = 21.260771 Si / 1000 Ang^3
#
#
#
# Elastic Constant Matrix: (Units=GPa)
#
#
# Indices 1 2 3 4 5 6 
#
# 1 37.7563 19.6950 37.0376 0.0000 -20.0100 0.0000
# 2 19.6950 75.7788 0.2308 0.0000 0.5483 0.0000
# 3 37.0376 0.2308 89.8229 0.0000 -12.5067 0.0000
# 4 0.0000 0.0000 0.0000 -52.9891 0.0000 73.9696
# 5 -20.0100 0.5483 -12.5067 0.0000 27.0227 0.0000
# 6 0.0000 0.0000 0.0000 73.9696 0.0000 -44.7093
#
#
#
# Elastic Compliance Matrix: (Units=1/GPa)
#
#
# Indices 1 2 3 4 5 6 
#
# 1 0.117514 -0.030929 -0.038664 0.000000 0.069750 0.000000
# 2 -0.030929 0.021339 0.010100 0.000000 -0.018661 0.000000
# 3 -0.038664 0.010100 0.024622 0.000000 -0.017440 0.000000
# 4 0.000000 0.000000 0.000000 0.014411 0.000000 0.023843
# 5 0.069750 -0.018661 -0.017440 0.000000 0.080962 0.000000
# 6 0.000000 0.000000 0.000000 0.023843 0.000000 0.017080
#
#
# Mechanical properties :
#
#
# Convention : Reuss Voigt Hill
#
# Bulk Modulus (GPa) = 22.47791 35.25387 28.86589
# Shear Modulus (GPa) = 12.20277 -4.37550 3.91363
#
# Velocity S-wave (km/s) = 2.39834 -1.43614 1.35822
# Velocity P-wave (km/s) = 4.27373 3.72393 4.00827
#
# Compressibility (1/GPa) = 0.04448812
#
# Stress axis : x y z
#
# Youngs Moduli (GPa) = 8.50965 46.86252 40.61471
#
# Poissons Ratio (x) = 1.44941 1.57034
# Poissons Ratio (y) = 0.26319 -0.41021
# Poissons Ratio (z) = 0.32902 -0.47332
#
# Static dielectric constant tensor:
#      x y z
#    x 1.763020 0.000000 -0.022670 
#    y 0.000000 1.766310 0.000000 
#    z -0.022670 0.000000 1.776700 
# 
# From -- ./inp_files/123548.got.cif
#   From: 2010.05.17/outbox.cif.g08.bks.cpg/sg15_62_cif.got.tgz:123548.got - 2010.06.03 18:47:42.
