data_PCOD9301252
_publ_section_title
;
Structure prediction by ZEFSAII (Michael W. Deem and Ramdas Pophale) SiO2 
 PCOD9301252
Probable space group: C 2/C
;
_chemical_formula_sum "Si O2"
_cell_formula_units_Z 52
_cell_length_a 31.609672
_cell_length_b 15.392988
_cell_length_c 15.913940
_cell_angle_alpha 90.000000
_cell_angle_beta 18.350083
_cell_angle_gamma 90.000000
_cell_volume 2437.732475
_symmetry_space_group_name_H-M "C 2/C"
_symmetry_group_IT_number 15
_symmetry_cell_setting 'monoclinic'
loop_
_space_group_symop_operation_xyz
x,y,z
-x,y,1/2-z
-x,-y,-z
x,-y,1/2+z
1/2+x,1/2+y,z
1/2-x,1/2+y,1/2-z
1/2-x,1/2-y,-z
1/2+x,1/2-y,1/2+z
loop_
_atom_site_type_symbol
_atom_site_label
_atom_site_fract_x
_atom_site_fract_y
_atom_site_fract_z
Si Si1 0.755821 0.094543 0.615483
Si Si2 0.533691 0.727616 0.932951
Si Si3 0.524903 0.852414 0.792662
Si Si4 0.408924 0.217959 0.838738
Si Si5 0.819099 0.906467 0.245406
Si Si6 0.500000 0.426614 0.750000
Si Si7 0.796771 0.907231 0.845791
O O1 0.816995 0.193408 0.510809
O O2 0.741502 0.075909 0.543923
O O3 0.871827 0.035340 0.440171
O O4 0.609232 0.093703 0.932628
O O5 0.549470 0.787753 0.823191
O O6 0.651653 0.662361 0.736639
O O7 0.495055 0.779717 0.090209
O O8 0.409206 0.665051 0.147437
O O9 0.500000 0.806670 0.750000
O O10 0.661538 0.906075 0.524078
O O11 0.500000 0.213493 0.750000
O O12 0.311961 0.135339 0.010766
O O13 0.857169 0.003776 0.198075
O O14 0.914465 0.881904 0.986949
#
# Coordination Sequence:
#
# PCOD9301252 Si02
#       7
#     8   8   8   8   8   4   8
#     4  11  20  43  70  93 130 180 222 265 331 401
#     4  11  22  43  69  95 128 180 227 269 323 398
#     4  12  25  42  68 100 135 172 222 283 328 386
#     4  11  20  39  73  96 128 176 231 266 321 405
#     4  12  26  42  67 100 138 171 220 271 340 392
#     4  12  22  42  72  92 132 184 222 256 338 414
#     4  11  23  42  69  97 135 176 220 270 337 399
#
# _framework density 21.331299000000001
#
# number of rings (size 3 to 8) (size 9 to 14) (size 15 to 20)
#    0.000    0.615    8.462    1.846    0.000    1.231 
#    1.385    0.000    0.000    0.000    0.000    0.000 
#    0.000    0.000    0.000    0.000    0.000    0.000 
#
# Total GULP energy -145038.315024 kJ/mol
# GULP energy per Si atom -5578.396732 kJ/mol
# Density = 2.128275 g / cm^3
# Si number density = 21.331299 Si / 1000 Ang^3
#
#
#
# Elastic Constant Matrix: (Units=GPa)
#
#
# Indices 1 2 3 4 5 6 
#
# 1 142.9215 25.2906 46.6757 0.0000 2.8596 0.0000
# 2 25.2906 32.5434 12.0619 0.0000 5.3766 0.0000
# 3 46.6757 12.0619 137.1771 0.0000 -8.8176 0.0000
# 4 0.0000 0.0000 0.0000 14.8743 0.0000 -1.8995
# 5 2.8596 5.3766 -8.8176 0.0000 39.6243 0.0000
# 6 0.0000 0.0000 0.0000 -1.8995 0.0000 27.1952
#
#
#
# Elastic Compliance Matrix: (Units=1/GPa)
#
#
# Indices 1 2 3 4 5 6 
#
# 1 0.008873 -0.005892 -0.002527 0.000000 -0.000403 0.000000
# 2 -0.005892 0.036685 -0.001535 0.000000 -0.004894 0.000000
# 3 -0.002527 -0.001535 0.008430 0.000000 0.002267 0.000000
# 4 0.000000 0.000000 0.000000 0.067835 0.000000 0.004738
# 5 -0.000403 -0.004894 0.002267 0.000000 0.026435 0.000000
# 6 0.000000 0.000000 0.000000 0.004738 0.000000 0.037102
#
#
# Mechanical properties :
#
#
# Convention : Reuss Voigt Hill
#
# Bulk Modulus (GPa) = 29.34351 53.41093 41.37722
# Shear Modulus (GPa) = 23.08102 31.57969 27.33035
#
# Velocity S-wave (km/s) = 3.29298 3.85182 3.58331
# Velocity P-wave (km/s) = 5.31453 6.69889 6.04646
#
# Compressibility (1/GPa) = 0.03407908
#
# Stress axis : x y z
#
# Youngs Moduli (GPa) = 112.70413 27.25922 118.61920
#
# Poissons Ratio (x) = 0.16062 0.29973
# Poissons Ratio (y) = 0.66407 0.18213
# Poissons Ratio (z) = 0.28479 0.04185
#
# Static dielectric constant tensor:
#      x y z
#    x 1.817180 0.000000 -0.017190 
#    y 0.000000 1.790150 0.000000 
#    z -0.017190 0.000000 1.795700 
# 
# From -- ./inp_files/182831.got.cif
#   From: 2010.05.17/outbox.cif.g08.bks.cpg/sg15_92_cif.got.tgz:182831.got - 2010.06.03 18:47:42.
