data_PCOD9301662
_publ_section_title
;
Structure prediction by ZEFSAII (Michael W. Deem and Ramdas Pophale) SiO2 
 PCOD9301662
Probable space group: C 2/C
;
_chemical_formula_sum "Si O2"
_cell_formula_units_Z 48
_cell_length_a 29.765461
_cell_length_b 6.447164
_cell_length_c 22.276496
_cell_angle_alpha 90.000000
_cell_angle_beta 30.417473
_cell_angle_gamma 90.000000
_cell_volume 2164.379293
_symmetry_space_group_name_H-M "C 2/C"
_symmetry_group_IT_number 15
_symmetry_cell_setting 'monoclinic'
loop_
_space_group_symop_operation_xyz
x,y,z
-x,y,1/2-z
-x,-y,-z
x,-y,1/2+z
1/2+x,1/2+y,z
1/2-x,1/2+y,1/2-z
1/2-x,1/2-y,-z
1/2+x,1/2-y,1/2+z
loop_
_atom_site_type_symbol
_atom_site_label
_atom_site_fract_x
_atom_site_fract_y
_atom_site_fract_z
Si Si1 0.998760 0.516843 0.427182
Si Si2 0.187230 0.056355 0.549299
Si Si3 0.151287 0.288177 0.186433
Si Si4 0.367036 0.696060 0.008656
Si Si5 0.210897 0.000125 0.721015
Si Si6 0.851432 0.797310 0.102502
O O1 0.946566 0.712968 0.458383
O O2 0.935194 0.325518 0.483693
O O3 0.000000 0.500000 0.500000
O O4 0.084709 0.466831 0.287610
O O5 0.250000 0.250000 0.500000
O O6 0.120337 0.147527 0.576169
O O7 0.137538 0.896041 0.652276
O O8 0.259397 0.905533 0.435239
O O9 0.165264 0.150627 0.228520
O O10 0.336731 0.485561 0.075151
O O11 0.284470 0.855212 0.106175
O O12 0.267735 0.855846 0.700196
O O13 0.138917 0.125440 0.841031
#
# Coordination Sequence:
#
# PCOD9301662 Si02
#       6
#     8   8   8   8   8   8
#     4  11  28  44  66 107 149 184 229 301 378 429
#     4  11  24  45  75  96 130 188 243 287 341 425
#     4  11  25  44  68 102 139 176 238 297 346 429
#     4  11  23  43  69  97 138 183 235 285 355 429
#     4  11  21  37  70 100 131 176 229 283 344 425
#     4  11  23  40  66 102 137 176 225 290 353 425
#
# _framework density 22.17726
#
# number of rings (size 3 to 8) (size 9 to 14) (size 15 to 20)
#    0.000    1.000    5.000    1.000    4.667    4.000 
#    0.000    5.000    0.000    0.000    0.000    0.000 
#    0.000    0.000    0.000    0.000    0.000    0.000 
#
# Total GULP energy -133734.907874 kJ/mol
# GULP energy per Si atom -5572.287828 kJ/mol
# Density = 2.212678 g / cm^3
# Si number density = 22.177260 Si / 1000 Ang^3
#
#
#
# Elastic Constant Matrix: (Units=GPa)
#
#
# Indices 1 2 3 4 5 6 
#
# 1 61.4648 1.5807 -2.2699 -0.0563 15.5822 0.0311
# 2 1.5807 65.9845 -9.5898 -0.0059 4.7763 -0.0004
# 3 -2.2699 -9.5898 55.5850 -0.0163 4.4449 0.0069
# 4 -0.0563 -0.0059 -0.0163 24.0677 -0.0193 18.6819
# 5 15.5822 4.7763 4.4449 -0.0193 22.4189 0.0100
# 6 0.0311 -0.0004 0.0069 18.6819 0.0100 37.4319
#
#
#
# Elastic Compliance Matrix: (Units=1/GPa)
#
#
# Indices 1 2 3 4 5 6 
#
# 1 0.020005 0.000881 0.002130 0.000077 -0.014514 -0.000051
# 2 0.000881 0.015928 0.003154 0.000007 -0.004631 -0.000003
# 3 0.002130 0.003154 0.019096 0.000027 -0.005938 -0.000017
# 4 0.000077 0.000007 0.000027 0.067826 0.000013 -0.033851
# 5 -0.014514 -0.004631 -0.005938 0.000013 0.056857 -0.000009
# 6 -0.000051 -0.000003 -0.000017 -0.033851 -0.000009 0.043610
#
#
# Mechanical properties :
#
#
# Convention : Reuss Voigt Hill
#
# Bulk Modulus (GPa) = 14.84591 18.05293 16.44942
# Shear Modulus (GPa) = 21.41824 29.67126 25.54475
#
# Velocity S-wave (km/s) = 3.11106 3.66172 3.39757
# Velocity P-wave (km/s) = 4.42873 5.10250 4.77751
#
# Compressibility (1/GPa) = 0.06735860
#
# Stress axis : x y z
#
# Youngs Moduli (GPa) = 49.98711 62.78414 52.36573
#
# Poissons Ratio (x) = -0.05531 -0.11152
# Poissons Ratio (y) = -0.04403 -0.16517
# Poissons Ratio (z) = -0.10645 -0.19803
#
# Static dielectric constant tensor:
#      x y z
#    x 1.877220 0.000080 0.062470 
#    y 0.000080 1.675860 -0.000150 
#    z 0.062470 -0.000150 1.955200 
# 
# From -- ./inp_files/258520.got.cif
#   From: 2010.05.17/outbox.cif.g08.bks.cpg/sg15_130_cif.got.tgz:258520.got - 2010.06.03 18:47:42.
