data_PCOD9301889
_publ_section_title
;
Structure prediction by ZEFSAII (Michael W. Deem and Ramdas Pophale) SiO2 
 PCOD9301889
Probable space group: C 2/C
;
_chemical_formula_sum "Si O2"
_cell_formula_units_Z 32
_cell_length_a 13.085871
_cell_length_b 6.843257
_cell_length_c 13.780499
_cell_angle_alpha 90.000000
_cell_angle_beta 103.844690
_cell_angle_gamma 90.000000
_cell_volume 1198.191874
_symmetry_space_group_name_H-M "C 2/C"
_symmetry_group_IT_number 15
_symmetry_cell_setting 'monoclinic'
loop_
_space_group_symop_operation_xyz
x,y,z
-x,y,1/2-z
-x,-y,-z
x,-y,1/2+z
1/2+x,1/2+y,z
1/2-x,1/2+y,1/2-z
1/2-x,1/2-y,-z
1/2+x,1/2-y,1/2+z
loop_
_atom_site_type_symbol
_atom_site_label
_atom_site_fract_x
_atom_site_fract_y
_atom_site_fract_z
Si Si1 0.200952 0.494209 0.546968
Si Si2 0.887467 0.912266 0.943150
Si Si3 0.065097 0.515977 0.346327
Si Si4 0.360850 0.748414 0.805191
O O1 0.136383 0.682112 0.572311
O O2 0.305868 0.538276 0.511549
O O3 0.123005 0.411483 0.445760
O O4 0.219012 0.351930 0.640176
O O5 0.861669 0.025119 0.836541
O O6 0.000000 0.000000 0.000000
O O7 0.143272 0.662825 0.303880
O O8 0.000000 0.396134 0.250000
O O9 0.975065 0.663714 0.362372
#
# Coordination Sequence:
#
# PCOD9301889 Si02
#       4
#     8   8   8   8
#     4  11  21  40  63  89 121 165 210 249 311 380
#     4  11  22  37  62  89 118 161 211 258 306 374
#     4   8  19  36  62  87 120 157 203 256 303 375
#     4   9  20  41  61  85 127 160 195 260 316 352
#
# _framework density 26.706911000000002
#
# number of rings (size 3 to 8) (size 9 to 14) (size 15 to 20)
#    1.500    0.500    2.500    1.500    0.000    0.000 
#    9.000    7.500    0.000    0.000    0.000    0.000 
#    0.000    0.000    0.000    0.000    0.000    0.000 
#
# Total GULP energy -89312.415522 kJ/mol
# GULP energy per Si atom -5582.025970 kJ/mol
# Density = 2.664613 g / cm^3
# Si number density = 26.706911 Si / 1000 Ang^3
#
#
#
# Elastic Constant Matrix: (Units=GPa)
#
#
# Indices 1 2 3 4 5 6 
#
# 1 119.2662 14.0191 25.3912 0.0000 -2.3118 0.0000
# 2 14.0191 95.8799 21.4061 0.0000 -3.3289 0.0000
# 3 25.3912 21.4061 121.0315 0.0000 -3.7028 0.0000
# 4 0.0000 0.0000 0.0000 24.1572 0.0000 -17.4218
# 5 -2.3118 -3.3289 -3.7028 0.0000 46.5916 0.0000
# 6 0.0000 0.0000 0.0000 -17.4218 0.0000 25.8538
#
#
#
# Elastic Compliance Matrix: (Units=1/GPa)
#
#
# Indices 1 2 3 4 5 6 
#
# 1 0.008856 -0.000909 -0.001690 0.000000 0.000240 0.000000
# 2 -0.000909 0.010970 -0.001731 0.000000 0.000601 0.000000
# 3 -0.001690 -0.001731 0.008938 0.000000 0.000503 0.000000
# 4 0.000000 0.000000 0.000000 0.080532 0.000000 0.054267
# 5 0.000240 0.000601 0.000503 0.000000 0.021558 0.000000
# 6 0.000000 0.000000 0.000000 0.054267 0.000000 0.075248
#
#
# Mechanical properties :
#
#
# Convention : Reuss Voigt Hill
#
# Bulk Modulus (GPa) = 49.74099 50.86782 50.30440
# Shear Modulus (GPa) = 22.57709 37.67793 30.12751
#
# Velocity S-wave (km/s) = 2.91067 3.76013 3.36233
# Velocity P-wave (km/s) = 5.47368 6.15950 5.82669
#
# Compressibility (1/GPa) = 0.02010414
#
# Stress axis : x y z
#
# Youngs Moduli (GPa) = 112.91942 91.15767 111.87755
#
# Poissons Ratio (x) = 0.08289 0.18904
# Poissons Ratio (y) = 0.10268 0.19367
# Poissons Ratio (z) = 0.19080 0.15780
#
# Static dielectric constant tensor:
#      x y z
#    x 2.130970 0.000000 0.062210 
#    y 0.000000 2.123580 0.000000 
#    z 0.062210 0.000000 2.140720 
# 
# From -- ./inp_files/140553.got.cif
#   From: 2010.05.17/outbox.cif.g08.bks.cpg/sg15_71_cif.got.tgz:140553.got - 2010.06.03 18:47:42.
