data_PCOD9301342
_publ_section_title
;
Structure prediction by ZEFSAII (Michael W. Deem and Ramdas Pophale) SiO2 
 PCOD9301342
Probable space group: C 2/C
;
_chemical_formula_sum "Si O2"
_cell_formula_units_Z 60
_cell_length_a 24.287868
_cell_length_b 8.918009
_cell_length_c 21.750713
_cell_angle_alpha 90.000000
_cell_angle_beta 145.564734
_cell_angle_gamma 90.000000
_cell_volume 2664.060131
_symmetry_space_group_name_H-M "C 2/C"
_symmetry_group_IT_number 15
_symmetry_cell_setting 'monoclinic'
loop_
_space_group_symop_operation_xyz
x,y,z
-x,y,1/2-z
-x,-y,-z
x,-y,1/2+z
1/2+x,1/2+y,z
1/2-x,1/2+y,1/2-z
1/2-x,1/2-y,-z
1/2+x,1/2-y,1/2+z
loop_
_atom_site_type_symbol
_atom_site_label
_atom_site_fract_x
_atom_site_fract_y
_atom_site_fract_z
Si Si1 0.624228 0.671995 0.775880
Si Si2 0.402971 0.464599 0.372704
Si Si3 0.565126 0.247197 0.919085
Si Si4 0.840525 0.741677 0.943785
Si Si5 0.108757 0.283284 0.147865
Si Si6 0.487860 0.913088 0.666849
Si Si7 0.000000 0.026446 0.250000
Si Si8 0.717159 0.410697 0.130958
O O1 0.570936 0.602498 0.667836
O O2 0.738272 0.663372 0.866512
O O3 0.592535 0.845411 0.744600
O O4 0.584060 0.581294 0.798073
O O5 0.500000 0.500000 0.500000
O O6 0.344807 0.617500 0.306465
O O7 0.334549 0.365634 0.352072
O O8 0.494659 0.244705 0.914414
O O9 0.532374 0.364172 0.835868
O O10 0.550786 0.078251 0.883085
O O11 0.672046 0.300052 0.038817
O O12 0.886036 0.682596 0.920385
O O13 0.818673 0.920098 0.917004
O O14 0.912374 0.700099 0.065148
O O15 0.170849 0.390339 0.248690
O O16 0.500000 0.902995 0.750000
#
# Coordination Sequence:
#
# PCOD9301342 Si02
#       8
#     8   8   8   8   8   8   4   8
#     4  12  24  48  73 103 144 193 246 297 364 446
#     4  11  20  41  71 104 144 185 236 298 362 439
#     4  12  26  46  70 105 147 190 247 301 371 437
#     4  11  27  46  75 108 144 192 244 307 377 433
#     4  11  23  42  75 110 143 183 237 310 366 435
#     4  12  28  48  70 102 145 191 248 305 364 443
#     4  12  24  48  76 100 144 212 238 298 358 446
#     4  11  24  44  74 110 144 188 242 303 377 436
#
# _framework density 22.522013000000001
#
# number of rings (size 3 to 8) (size 9 to 14) (size 15 to 20)
#    0.000    0.533    5.333    3.200    1.867    1.067 
#    2.400    1.333    0.000    0.000    0.000    0.000 
#    0.000    0.000    0.000    0.000    0.000    0.000 
#
# Total GULP energy -167357.777664 kJ/mol
# GULP energy per Si atom -5578.592589 kJ/mol
# Density = 2.247075 g / cm^3
# Si number density = 22.522013 Si / 1000 Ang^3
#
#
#
# Elastic Constant Matrix: (Units=GPa)
#
#
# Indices 1 2 3 4 5 6 
#
# 1 116.9041 42.7121 42.2077 0.0000 -16.2468 0.0000
# 2 42.7121 110.9601 28.6910 0.0000 -23.0578 0.0000
# 3 42.2077 28.6910 80.7944 0.0000 -21.9032 0.0000
# 4 0.0000 0.0000 0.0000 35.1210 0.0000 -4.0520
# 5 -16.2468 -23.0578 -21.9032 0.0000 31.1510 0.0000
# 6 0.0000 0.0000 0.0000 -4.0520 0.0000 25.3744
#
#
#
# Elastic Compliance Matrix: (Units=1/GPa)
#
#
# Indices 1 2 3 4 5 6 
#
# 1 0.011466 -0.003109 -0.004805 0.000000 0.000301 0.000000
# 2 -0.003109 0.011771 -0.000782 0.000000 0.006541 0.000000
# 3 -0.004805 -0.000782 0.017703 0.000000 0.009363 0.000000
# 4 0.000000 0.000000 0.000000 0.029007 0.000000 0.004632
# 5 0.000301 0.006541 0.009363 0.000000 0.043683 0.000000
# 6 0.000000 0.000000 0.000000 0.004632 0.000000 0.040149
#
#
# Mechanical properties :
#
#
# Convention : Reuss Voigt Hill
#
# Bulk Modulus (GPa) = 42.46651 59.54223 51.00437
# Shear Modulus (GPa) = 27.92963 31.33247 29.63105
#
# Velocity S-wave (km/s) = 3.52533 3.73392 3.63112
# Velocity P-wave (km/s) = 5.95543 6.71448 6.34631
#
# Compressibility (1/GPa) = 0.02354797
#
# Stress axis : x y z
#
# Youngs Moduli (GPa) = 87.21145 84.95807 56.48737
#
# Poissons Ratio (x) = 0.26413 0.27140
# Poissons Ratio (y) = 0.27114 0.04420
# Poissons Ratio (z) = 0.41901 0.06648
#
# Static dielectric constant tensor:
#      x y z
#    x 1.919550 0.000000 0.043170 
#    y 0.000000 1.912390 0.000000 
#    z 0.043170 0.000000 1.867940 
# 
# From -- ./inp_files/283417.got.cif
#   From: 2010.05.17/outbox.cif.g08.bks.cpg/sg15_142_cif.got.tgz:283417.got - 2010.06.03 18:47:42.
