data_PCOD9301279
_publ_section_title
;
Structure prediction by ZEFSAII (Michael W. Deem and Ramdas Pophale) SiO2 
 PCOD9301279
Probable space group: C 2/C
;
_chemical_formula_sum "Si O2"
_cell_formula_units_Z 48
_cell_length_a 10.094493
_cell_length_b 14.947842
_cell_length_c 27.160311
_cell_angle_alpha 90.000000
_cell_angle_beta 149.672568
_cell_angle_gamma 90.000000
_cell_volume 2069.370882
_symmetry_space_group_name_H-M "C 2/C"
_symmetry_group_IT_number 15
_symmetry_cell_setting 'monoclinic'
loop_
_space_group_symop_operation_xyz
x,y,z
-x,y,1/2-z
-x,-y,-z
x,-y,1/2+z
1/2+x,1/2+y,z
1/2-x,1/2+y,1/2-z
1/2-x,1/2-y,-z
1/2+x,1/2-y,1/2+z
loop_
_atom_site_type_symbol
_atom_site_label
_atom_site_fract_x
_atom_site_fract_y
_atom_site_fract_z
Si Si1 0.287387 0.183229 0.815382
Si Si2 0.224301 0.833142 0.133161
Si Si3 0.818960 0.970330 0.849068
Si Si4 0.211424 0.982614 0.773957
Si Si5 0.979029 0.799869 0.531042
Si Si6 0.022541 0.296396 0.647198
O O1 0.493547 0.219142 0.921638
O O2 0.224486 0.254017 0.751978
O O3 0.000000 0.178779 0.750000
O O4 0.338828 0.080904 0.816939
O O5 0.500000 0.831633 0.250000
O O6 0.048983 0.765006 0.107952
O O7 0.129521 0.935197 0.107944
O O8 0.238761 0.804204 0.081136
O O9 0.500000 0.952839 0.750000
O O10 0.895520 0.976876 0.816239
O O11 0.976199 0.891222 0.925026
O O12 0.403046 0.898317 0.840420
O O13 0.000000 0.975300 0.750000
O O14 0.241153 0.792418 0.581638
#
# Coordination Sequence:
#
# PCOD9301279 Si02
#       6
#     8   8   8   8   8   8
#     4   9  19  36  64  93 129 169 214 258 324 391
#     4  11  25  40  65  96 133 170 221 280 322 371
#     4  11  20  40  69  98 129 171 219 270 324 390
#     4  11  21  37  66  99 137 171 206 265 337 383
#     4  11  21  41  69  98 123 175 227 261 319 400
#     4  11  20  40  67  95 129 173 211 267 327 392
#
# _framework density 23.195454999999999
#
# number of rings (size 3 to 8) (size 9 to 14) (size 15 to 20)
#    0.000    1.333    5.000    2.000    0.000    0.000 
#    0.000    1.667    3.667    0.000    0.000    0.000 
#    0.000    0.000    0.000    0.000    0.000    0.000 
#
# Total GULP energy -134358.885699 kJ/mol
# GULP energy per Si atom -5598.286904 kJ/mol
# Density = 2.314266 g / cm^3
# Si number density = 23.195455 Si / 1000 Ang^3
#
#
#
# Elastic Constant Matrix: (Units=GPa)
#
#
# Indices 1 2 3 4 5 6 
#
# 1 108.8165 29.3267 32.8576 0.0002 -39.1801 0.0001
# 2 29.3267 156.6570 60.4109 0.0002 -21.2853 0.0000
# 3 32.8576 60.4109 127.1363 -0.0010 -29.3901 0.0001
# 4 0.0002 0.0002 -0.0010 12.4969 0.0000 -15.7316
# 5 -39.1801 -21.2853 -29.3901 0.0000 48.8920 0.0001
# 6 0.0001 0.0000 0.0001 -15.7316 0.0001 43.5309
#
#
#
# Elastic Compliance Matrix: (Units=1/GPa)
#
#
# Indices 1 2 3 4 5 6 
#
# 1 0.013142 -0.000853 -0.000746 0.000000 0.009711 0.000000
# 2 -0.000853 0.007949 -0.003385 -0.000001 0.000742 0.000000
# 3 -0.000746 -0.003385 0.010671 0.000002 0.004343 0.000001
# 4 0.000000 -0.000001 0.000002 0.146807 0.000000 0.053055
# 5 0.009711 0.000742 0.004343 0.000000 0.031169 0.000000
# 6 0.000000 0.000000 0.000001 0.053055 0.000000 0.042146
#
#
# Mechanical properties :
#
#
# Convention : Reuss Voigt Hill
#
# Bulk Modulus (GPa) = 45.88576 70.86670 58.37623
# Shear Modulus (GPa) = 18.57929 38.98493 28.78211
#
# Velocity S-wave (km/s) = 2.83324 4.10410 3.52639
# Velocity P-wave (km/s) = 5.52523 7.28536 6.46547
#
# Compressibility (1/GPa) = 0.02179326
#
# Stress axis : x y z
#
# Youngs Moduli (GPa) = 76.09447 125.79672 93.71299
#
# Poissons Ratio (x) = 0.10729 0.06992
# Poissons Ratio (y) = 0.06490 0.31724
# Poissons Ratio (z) = 0.05678 0.42585
#
# Static dielectric constant tensor:
#      x y z
#    x 1.947490 0.000000 0.063400 
#    y 0.000000 1.812600 0.000000 
#    z 0.063400 0.000000 1.922720 
# 
# From -- ./inp_files/182535.got.cif
#   From: 2010.05.17/outbox.cif.g08.bks.cpg/sg15_92_cif.got.tgz:182535.got - 2010.06.03 18:47:42.
