data_PCOD9301360
_publ_section_title
;
Structure prediction by ZEFSAII (Michael W. Deem and Ramdas Pophale) SiO2 
 PCOD9301360
Probable space group: C 2/C
;
_chemical_formula_sum "Si O2"
_cell_formula_units_Z 60
_cell_length_a 19.435336
_cell_length_b 31.129089
_cell_length_c 14.660691
_cell_angle_alpha 90.000000
_cell_angle_beta 159.866921
_cell_angle_gamma 90.000000
_cell_volume 3052.994742
_symmetry_space_group_name_H-M "C 2/C"
_symmetry_group_IT_number 15
_symmetry_cell_setting 'monoclinic'
loop_
_space_group_symop_operation_xyz
x,y,z
-x,y,1/2-z
-x,-y,-z
x,-y,1/2+z
1/2+x,1/2+y,z
1/2-x,1/2+y,1/2-z
1/2-x,1/2-y,-z
1/2+x,1/2-y,1/2+z
loop_
_atom_site_type_symbol
_atom_site_label
_atom_site_fract_x
_atom_site_fract_y
_atom_site_fract_z
Si Si1 0.064050 0.302188 0.434854
Si Si2 0.500000 0.018233 0.250000
Si Si3 0.155028 0.205080 0.528468
Si Si4 0.052201 0.141559 0.089114
Si Si5 0.016219 0.450935 0.561156
Si Si6 0.449181 0.406097 0.087131
Si Si7 0.580655 0.503333 0.702498
Si Si8 0.605124 0.576077 0.472292
O O1 0.870972 0.307318 0.258023
O O2 0.000000 0.302461 0.250000
O O3 0.154107 0.254420 0.560672
O O4 0.228556 0.338714 0.646798
O O5 0.501979 0.043410 0.350551
O O6 0.695055 0.988408 0.501025
O O7 0.078589 0.174448 0.513705
O O8 0.000000 0.202490 0.250000
O O9 0.995056 0.129852 0.915977
O O10 0.026581 0.097018 0.111491
O O11 0.000000 0.500000 0.500000
O O12 0.224982 0.426336 0.800585
O O13 0.836597 0.422686 0.291592
O O14 0.500000 0.390103 0.250000
O O15 0.584226 0.447715 0.236856
O O16 0.500000 0.500000 0.500000
O O17 0.432648 0.474688 0.576015
O O18 0.500000 0.594266 0.250000
#
# Coordination Sequence:
#
# PCOD9301360 Si02
#       8
#     8   4   8   8   8   8   8   8
#     4  11  21  40  70 100 138 180 217 262 345 432
#     4  12  22  38  68  84 114 178 246 274 328 408
#     4  11  20  42  68 100 137 178 219 267 340 431
#     4  12  26  40  63 100 136 173 221 284 336 406
#     4  12  24  42  67  92 120 183 242 279 344 401
#     4  12  25  45  65  91 133 176 240 290 333 399
#     4  12  21  43  61  86 125 176 227 283 335 398
#     4  12  26  42  61  96 141 173 218 287 345 400
#
# _framework density 19.652835
#
# number of rings (size 3 to 8) (size 9 to 14) (size 15 to 20)
#    0.000    0.267    8.000    2.400    1.867    0.000 
#    1.200    0.000    0.000    0.800    0.000    0.000 
#    0.000    0.000    0.000    0.000    0.000    0.000 
#
# Total GULP energy -167385.593343 kJ/mol
# GULP energy per Si atom -5579.519778 kJ/mol
# Density = 1.960810 g / cm^3
# Si number density = 19.652835 Si / 1000 Ang^3
#
#
#
# Elastic Constant Matrix: (Units=GPa)
#
#
# Indices 1 2 3 4 5 6 
#
# 1 123.6831 19.4997 52.3324 0.0010 -13.6293 0.0011
# 2 19.4997 59.0363 23.0381 0.0003 -3.8416 0.0003
# 3 52.3324 23.0381 128.1933 -0.0016 9.8411 -0.0024
# 4 0.0010 0.0003 -0.0016 97.3369 0.0004 83.0470
# 5 -13.6293 -3.8416 9.8411 0.0004 50.3637 0.0004
# 6 0.0011 0.0003 -0.0024 83.0470 0.0004 115.6953
#
#
#
# Elastic Compliance Matrix: (Units=1/GPa)
#
#
# Indices 1 2 3 4 5 6 
#
# 1 0.010545 -0.001574 -0.004296 0.000000 0.003573 0.000000
# 2 -0.001574 0.018664 -0.002831 0.000000 0.001551 0.000000
# 3 -0.004296 -0.002831 0.010324 0.000000 -0.003396 0.000000
# 4 0.000000 0.000000 0.000000 0.026508 0.000000 -0.019027
# 5 0.003573 0.001551 -0.003396 0.000000 0.021604 0.000000
# 6 0.000000 0.000000 0.000000 -0.019027 0.000000 0.022301
#
#
# Mechanical properties :
#
#
# Convention : Reuss Voigt Hill
#
# Bulk Modulus (GPa) = 45.18485 55.62812 50.40649
# Shear Modulus (GPa) = 37.11263 67.08200 52.09732
#
# Velocity S-wave (km/s) = 4.35030 5.84873 5.15426
# Velocity P-wave (km/s) = 6.94801 8.60099 7.81831
#
# Compressibility (1/GPa) = 0.02213131
#
# Stress axis : x y z
#
# Youngs Moduli (GPa) = 94.83326 53.57856 96.86209
#
# Poissons Ratio (x) = 0.08433 0.41613
# Poissons Ratio (y) = 0.14926 0.27419
# Poissons Ratio (z) = 0.40742 0.15167
#
# Static dielectric constant tensor:
#      x y z
#    x 1.753450 0.000000 -0.066360 
#    y 0.000000 1.710990 0.000000 
#    z -0.066360 0.000000 2.012010 
# 
# From -- ./inp_files/170045.got.cif
#   From: 2010.05.17/outbox.cif.g08.bks.cpg/sg15_86_cif.got.tgz:170045.got - 2010.06.03 18:47:42.
