data_PCOD9301983
_publ_section_title
;
Structure prediction by ZEFSAII (Michael W. Deem and Ramdas Pophale) SiO2 
 PCOD9301983
Probable space group: C 2/C
;
_chemical_formula_sum "Si O2"
_cell_formula_units_Z 48
_cell_length_a 9.485354
_cell_length_b 18.259689
_cell_length_c 27.254761
_cell_angle_alpha 90.000000
_cell_angle_beta 31.298358
_cell_angle_gamma 90.000000
_cell_volume 2452.281692
_symmetry_space_group_name_H-M "C 2/C"
_symmetry_group_IT_number 15
_symmetry_cell_setting 'monoclinic'
loop_
_space_group_symop_operation_xyz
x,y,z
-x,y,1/2-z
-x,-y,-z
x,-y,1/2+z
1/2+x,1/2+y,z
1/2-x,1/2+y,1/2-z
1/2-x,1/2-y,-z
1/2+x,1/2-y,1/2+z
loop_
_atom_site_type_symbol
_atom_site_label
_atom_site_fract_x
_atom_site_fract_y
_atom_site_fract_z
Si Si1 0.142757 0.337299 0.759354
Si Si2 0.704745 0.587667 0.568926
Si Si3 0.683923 0.414289 0.578193
Si Si4 0.316589 0.662722 0.759705
Si Si5 0.232846 0.823291 0.471065
Si Si6 0.726081 0.679578 0.470796
O O1 0.432586 0.376200 0.680448
O O2 0.179966 0.250530 0.741659
O O3 0.000000 0.362616 0.750000
O O4 0.964958 0.340362 0.861579
O O5 0.669721 0.501399 0.587201
O O6 0.466802 0.630776 0.667914
O O7 0.686846 0.610879 0.517994
O O8 0.009647 0.608377 0.496981
O O9 0.642437 0.386574 0.535060
O O10 0.500000 0.635481 0.750000
O O11 0.006793 0.647690 0.864486
O O12 0.250000 0.750000 0.500000
O O13 0.024535 0.805864 0.490342
O O14 0.750000 0.750000 0.500000
#
# Coordination Sequence:
#
# PCOD9301983 Si02
#       6
#     8   8   8   8   8   8
#     4  11  22  42  72  98 128 180 230 275 333 412
#     4  11  26  45  65 103 141 172 228 287 330 397
#     4  11  24  46  70  96 137 188 222 268 349 409
#     4  11  21  40  72  97 130 178 232 272 331 408
#     4  12  22  42  72  96 131 186 227 269 342 406
#     4  12  25  43  68 104 137 169 231 291 329 388
#
# _framework density 19.573608
#
# number of rings (size 3 to 8) (size 9 to 14) (size 15 to 20)
#    0.000    0.667    6.667    2.000    0.000    3.333 
#    3.000    0.000    0.000    0.000    0.000    0.000 
#    0.000    0.000    0.000    0.000    0.000    0.000 
#
# Total GULP energy -133929.319660 kJ/mol
# GULP energy per Si atom -5580.388319 kJ/mol
# Density = 1.952906 g / cm^3
# Si number density = 19.573608 Si / 1000 Ang^3
#
#
#
# Elastic Constant Matrix: (Units=GPa)
#
#
# Indices 1 2 3 4 5 6 
#
# 1 118.9549 24.0844 57.4916 -0.0320 -1.5509 0.0243
# 2 24.0844 62.3513 38.2133 0.0309 -12.2544 0.0305
# 3 57.4916 38.2133 194.1050 0.0035 1.8490 0.1723
# 4 -0.0320 0.0309 0.0035 22.9515 0.0167 -3.1305
# 5 -1.5509 -12.2544 1.8490 0.0167 31.9650 -0.0294
# 6 0.0243 0.0305 0.1723 -3.1305 -0.0294 22.8721
#
#
#
# Elastic Compliance Matrix: (Units=1/GPa)
#
#
# Indices 1 2 3 4 5 6 
#
# 1 0.010108 -0.002421 -0.002515 0.000020 -0.000292 0.000014
# 2 -0.002421 0.020642 -0.003423 -0.000036 0.007994 0.000006
# 3 -0.002515 -0.003423 0.006588 -0.000005 -0.001815 -0.000045
# 4 0.000020 -0.000036 -0.000005 0.044399 -0.000030 0.006077
# 5 -0.000292 0.007994 -0.001815 -0.000030 0.034440 0.000043
# 6 0.000014 0.000006 -0.000045 0.006077 0.000043 0.044553
#
#
# Mechanical properties :
#
#
# Convention : Reuss Voigt Hill
#
# Bulk Modulus (GPa) = 48.49290 68.33223 58.41256
# Shear Modulus (GPa) = 27.12654 32.59917 29.86286
#
# Velocity S-wave (km/s) = 3.72677 4.08544 3.91022
# Velocity P-wave (km/s) = 6.58383 7.56575 7.09181
#
# Compressibility (1/GPa) = 0.02062158
#
# Stress axis : x y z
#
# Youngs Moduli (GPa) = 98.92978 48.44431 151.79467
#
# Poissons Ratio (x) = 0.11727 0.38170
# Poissons Ratio (y) = 0.23949 0.51959
# Poissons Ratio (z) = 0.24877 0.16582
#
# Static dielectric constant tensor:
#      x y z
#    x 1.696530 0.000070 0.004320 
#    y 0.000070 1.693130 0.000000 
#    z 0.004320 0.000000 1.793100 
# 
# From -- ./inp_files/290050.got.cif
#   From: 2010.05.17/outbox.cif.g08.bks.cpg/sg15_146_cif.got.tgz:290050.got - 2010.06.03 18:47:42.
