data_PCOD9301788
_publ_section_title
;
Structure prediction by ZEFSAII (Michael W. Deem and Ramdas Pophale) SiO2 
 PCOD9301788
Probable space group: C 2/C
;
_chemical_formula_sum "Si O2"
_cell_formula_units_Z 44
_cell_length_a 11.716926
_cell_length_b 19.977877
_cell_length_c 8.511081
_cell_angle_alpha 90.000000
_cell_angle_beta 100.793644
_cell_angle_gamma 90.000000
_cell_volume 1957.020796
_symmetry_space_group_name_H-M "C 2/C"
_symmetry_group_IT_number 15
_symmetry_cell_setting 'monoclinic'
loop_
_space_group_symop_operation_xyz
x,y,z
-x,y,1/2-z
-x,-y,-z
x,-y,1/2+z
1/2+x,1/2+y,z
1/2-x,1/2+y,1/2-z
1/2-x,1/2-y,-z
1/2+x,1/2-y,1/2+z
loop_
_atom_site_type_symbol
_atom_site_label
_atom_site_fract_x
_atom_site_fract_y
_atom_site_fract_z
Si Si1 0.000000 0.240968 0.750000
Si Si2 0.393620 0.398811 0.553907
Si Si3 0.139877 0.855604 0.515361
Si Si4 0.918444 0.460945 0.863458
Si Si5 0.301512 0.828070 0.847857
Si Si6 0.187468 0.970142 0.284539
O O1 0.911322 0.197229 0.622062
O O2 0.912458 0.280769 0.845162
O O3 0.526110 0.375949 0.583867
O O4 0.311948 0.333060 0.566272
O O5 0.371319 0.432810 0.376792
O O6 0.368158 0.460668 0.666507
O O7 0.239717 0.832743 0.660601
O O8 0.185467 0.919165 0.429507
O O9 0.857450 0.397496 0.921113
O O10 0.818352 0.509456 0.773405
O O11 0.000000 0.433059 0.750000
O O12 0.000000 0.500000 0.000000
#
# Coordination Sequence:
#
# PCOD9301788 Si02
#       6
#     4   8   8   8   8   8
#     4  12  26  48  74  94 146 192 246 282 336 426
#     4  11  23  43  70 106 140 177 229 295 365 415
#     4  12  24  46  67 104 139 186 236 286 349 417
#     4  11  21  39  64 100 137 177 221 283 358 410
#     4  11  25  44  72  99 136 188 232 292 347 415
#     4  11  22  39  69 106 140 176 230 290 362 423
#
# _framework density 22.483155
#
# number of rings (size 3 to 8) (size 9 to 14) (size 15 to 20)
#    0.000    0.727    2.727    7.091    0.000    3.636 
#    0.000    0.000    0.000    0.000    0.000    0.000 
#    0.000    0.000    0.000    0.000    0.000    0.000 
#
# Total GULP energy -122807.193092 kJ/mol
# GULP energy per Si atom -5582.145141 kJ/mol
# Density = 2.243198 g / cm^3
# Si number density = 22.483155 Si / 1000 Ang^3
#
#
#
# Elastic Constant Matrix: (Units=GPa)
#
#
# Indices 1 2 3 4 5 6 
#
# 1 98.6527 24.9423 -3.4346 0.0000 -2.9784 0.0000
# 2 24.9423 66.9158 5.5084 0.0000 1.8927 0.0000
# 3 -3.4346 5.5084 50.8519 0.0000 2.6854 0.0000
# 4 0.0000 0.0000 0.0000 30.5666 0.0000 -10.1778
# 5 -2.9784 1.8927 2.6854 0.0000 44.0594 0.0000
# 6 0.0000 0.0000 0.0000 -10.1778 0.0000 42.0371
#
#
#
# Elastic Compliance Matrix: (Units=1/GPa)
#
#
# Indices 1 2 3 4 5 6 
#
# 1 0.011300 -0.004335 0.001186 0.000000 0.000878 0.000000
# 2 -0.004335 0.016755 -0.002061 0.000000 -0.000887 0.000000
# 3 0.001186 -0.002061 0.020024 0.000000 -0.001052 0.000000
# 4 0.000000 0.000000 0.000000 0.035584 0.000000 0.008616
# 5 0.000878 -0.000887 -0.001052 0.000000 0.022858 0.000000
# 6 0.000000 0.000000 0.000000 0.008616 0.000000 0.025874
#
#
# Mechanical properties :
#
#
# Convention : Reuss Voigt Hill
#
# Bulk Modulus (GPa) = 26.55283 30.05027 28.30155
# Shear Modulus (GPa) = 32.18185 35.95957 34.07071
#
# Velocity S-wave (km/s) = 3.78746 4.00359 3.89702
# Velocity P-wave (km/s) = 5.56437 5.89630 5.73274
#
# Compressibility (1/GPa) = 0.03766077
#
# Stress axis : x y z
#
# Youngs Moduli (GPa) = 88.49332 59.68522 49.94043
#
# Poissons Ratio (x) = 0.25871 -0.05925
# Poissons Ratio (y) = 0.38358 0.10292
# Poissons Ratio (z) = -0.10499 0.12300
#
# Static dielectric constant tensor:
#      x y z
#    x 1.859710 0.000000 -0.002690 
#    y 0.000000 1.849390 0.000000 
#    z -0.002690 0.000000 1.855110 
# 
# From -- ./inp_files/31002.got.cif
#   From: 2010.05.17/outbox.cif.g08.bks.cpg/sg15_16_cif.got.tgz:31002.got - 2010.06.03 18:47:42.
