data_PCOD9301319
_publ_section_title
;
Structure prediction by ZEFSAII (Michael W. Deem and Ramdas Pophale) SiO2 
 PCOD9301319
Probable space group: C 2/C
;
_chemical_formula_sum "Si O2"
_cell_formula_units_Z 60
_cell_length_a 18.406162
_cell_length_b 12.758767
_cell_length_c 15.043632
_cell_angle_alpha 90.000000
_cell_angle_beta 56.412338
_cell_angle_gamma 90.000000
_cell_volume 2943.003003
_symmetry_space_group_name_H-M "C 2/C"
_symmetry_group_IT_number 15
_symmetry_cell_setting 'monoclinic'
loop_
_space_group_symop_operation_xyz
x,y,z
-x,y,1/2-z
-x,-y,-z
x,-y,1/2+z
1/2+x,1/2+y,z
1/2-x,1/2+y,1/2-z
1/2-x,1/2-y,-z
1/2+x,1/2-y,1/2+z
loop_
_atom_site_type_symbol
_atom_site_label
_atom_site_fract_x
_atom_site_fract_y
_atom_site_fract_z
Si Si1 0.453124 0.719913 0.458403
Si Si2 0.131368 0.520786 0.175232
Si Si3 0.681106 0.459808 0.406070
Si Si4 0.500000 0.599882 0.250000
Si Si5 0.125920 0.048188 0.753561
Si Si6 0.834763 0.247382 0.880807
Si Si7 0.553752 0.642988 0.553495
Si Si8 0.479028 0.960680 0.414101
O O1 0.369596 0.650194 0.544825
O O2 0.486100 0.668684 0.345721
O O3 0.527403 0.702513 0.482302
O O4 0.443764 0.842660 0.449438
O O5 0.222701 0.460930 0.119863
O O6 0.149923 0.643896 0.179875
O O7 0.091829 0.516724 0.102172
O O8 0.065113 0.473117 0.293112
O O9 0.681657 0.486869 0.300299
O O10 0.625135 0.553946 0.486982
O O11 0.410834 0.533821 0.293269
O O12 0.171038 0.147836 0.679301
O O13 0.033428 0.084884 0.856922
O O14 0.915234 0.220879 0.891243
O O15 0.750000 0.250000 0.000000
O O16 0.500000 0.000000 0.500000
#
# Coordination Sequence:
#
# PCOD9301319 Si02
#       8
#     8   8   8   4   8   8   8   8
#     4  11  23  40  71  95 129 181 219 274 343 401
#     4  11  27  47  66 100 141 172 231 285 322 415
#     4  11  22  44  67 104 138 159 226 292 336 392
#     4  12  18  36  64 100 134 168 216 274 338 402
#     4  11  22  36  67 102 135 175 219 278 347 397
#     4  12  24  39  69  99 135 183 227 277 337 391
#     4  11  20  41  66 104 132 169 222 284 337 397
#     4  11  27  50  70  93 134 191 228 266 342 423
#
# _framework density 20.387339999999998
#
# number of rings (size 3 to 8) (size 9 to 14) (size 15 to 20)
#    0.000    0.800    5.333    2.400    7.467    2.667 
#    0.000    0.000    0.000    0.000    0.000    0.000 
#    0.000    0.000    0.000    0.000    0.000    0.000 
#
# Total GULP energy -167557.323495 kJ/mol
# GULP energy per Si atom -5585.244116 kJ/mol
# Density = 2.034094 g / cm^3
# Si number density = 20.387340 Si / 1000 Ang^3
#
#
#
# Elastic Constant Matrix: (Units=GPa)
#
#
# Indices 1 2 3 4 5 6 
#
# 1 81.6799 -1.2866 23.5813 0.0000 -5.0904 0.0000
# 2 -1.2866 89.4836 5.3270 0.0000 -2.2997 0.0000
# 3 23.5813 5.3270 70.6646 0.0000 18.2742 0.0000
# 4 0.0000 0.0000 0.0000 35.8060 0.0000 0.2007
# 5 -5.0904 -2.2997 18.2742 0.0000 32.0983 0.0000
# 6 0.0000 0.0000 0.0000 0.2007 0.0000 18.1816
#
#
#
# Elastic Compliance Matrix: (Units=1/GPa)
#
#
# Indices 1 2 3 4 5 6 
#
# 1 0.014492 0.000747 -0.006450 0.000000 0.006024 0.000000
# 2 0.000747 0.011327 -0.001576 0.000000 0.001827 0.000000
# 3 -0.006450 -0.001576 0.019602 0.000000 -0.012296 0.000000
# 4 0.000000 0.000000 0.000000 0.027930 0.000000 -0.000308
# 5 0.006024 0.001827 -0.012296 0.000000 0.039241 0.000000
# 6 0.000000 0.000000 0.000000 -0.000308 0.000000 0.055004
#
#
# Mechanical properties :
#
#
# Convention : Reuss Voigt Hill
#
# Bulk Modulus (GPa) = 32.40050 33.00796 32.70423
# Shear Modulus (GPa) = 25.98179 31.49760 28.73970
#
# Velocity S-wave (km/s) = 3.57376 3.93486 3.75865
# Velocity P-wave (km/s) = 5.74073 6.07205 5.90871
#
# Compressibility (1/GPa) = 0.03086372
#
# Stress axis : x y z
#
# Youngs Moduli (GPa) = 69.00167 88.28673 51.01392
#
# Poissons Ratio (x) = -0.06597 0.32906
# Poissons Ratio (y) = -0.05156 0.08038
# Poissons Ratio (z) = 0.44509 0.13911
#
# Static dielectric constant tensor:
#      x y z
#    x 1.746740 0.000000 0.025910 
#    y 0.000000 0.283190 0.000000 
#    z 0.025910 0.000000 1.732060 
# 
# From -- ./inp_files/161324.got.cif
#   From: 2010.05.17/outbox.cif.g08.bks.cpg/sg15_81_cif.got.tgz:161324.got - 2010.06.03 18:47:42.
