data_PCOD9301790
_publ_section_title
;
Structure prediction by ZEFSAII (Michael W. Deem and Ramdas Pophale) SiO2 
 PCOD9301790
Probable space group: C 2/C
;
_chemical_formula_sum "Si O2"
_cell_formula_units_Z 48
_cell_length_a 16.329720
_cell_length_b 30.846286
_cell_length_c 15.952461
_cell_angle_alpha 90.000000
_cell_angle_beta 162.316677
_cell_angle_gamma 90.000000
_cell_volume 2440.809192
_symmetry_space_group_name_H-M "C 2/C"
_symmetry_group_IT_number 15
_symmetry_cell_setting 'monoclinic'
loop_
_space_group_symop_operation_xyz
x,y,z
-x,y,1/2-z
-x,-y,-z
x,-y,1/2+z
1/2+x,1/2+y,z
1/2-x,1/2+y,1/2-z
1/2-x,1/2-y,-z
1/2+x,1/2-y,1/2+z
loop_
_atom_site_type_symbol
_atom_site_label
_atom_site_fract_x
_atom_site_fract_y
_atom_site_fract_z
Si Si1 0.262521 0.425558 0.451930
Si Si2 0.421463 0.627030 0.951632
Si Si3 0.734523 0.671350 0.038411
Si Si4 0.052450 0.778935 0.095676
Si Si5 0.927865 0.400910 0.857498
Si Si6 0.231318 0.494795 0.793957
O O1 0.315128 0.386869 0.437809
O O2 0.232747 0.468275 0.365271
O O3 0.000000 0.417709 0.250000
O O4 0.500000 0.431168 0.750000
O O5 0.454646 0.678081 0.967950
O O6 0.221270 0.607366 0.684276
O O7 0.714678 0.606274 0.224609
O O8 0.859993 0.635269 0.222338
O O9 0.000000 0.689569 0.250000
O O10 0.500000 0.652451 0.750000
O O11 0.564796 0.705015 0.929118
O O12 0.352417 0.760609 0.381740
O O13 0.844527 0.447911 0.741808
O O14 0.000000 0.500000 0.500000
O O15 0.500000 0.500000 0.000000
#
# Coordination Sequence:
#
# PCOD9301790 Si02
#       6
#     8   8   8   8   8   8
#     4  12  25  40  64  98 127 159 209 260 315 361
#     4  11  22  42  65  88 122 166 205 259 308 377
#     4  11  23  37  57  90 130 168 204 256 318 361
#     4  11  23  40  64  92 117 161 218 258 310 385
#     4  11  21  39  64  85 123 175 218 240 296 375
#     4  12  22  40  64  92 127 171 211 254 299 363
#
# _framework density 19.665609
#
# number of rings (size 3 to 8) (size 9 to 14) (size 15 to 20)
#    0.000    0.667    3.333    7.000    0.000    3.333 
#    0.000    0.000    0.000    3.000    0.000    0.000 
#    0.000    0.000    0.000    0.000    0.000    0.000 
#
# Total GULP energy -134042.649331 kJ/mol
# GULP energy per Si atom -5585.110389 kJ/mol
# Density = 1.962085 g / cm^3
# Si number density = 19.665609 Si / 1000 Ang^3
#
#
#
# Elastic Constant Matrix: (Units=GPa)
#
#
# Indices 1 2 3 4 5 6 
#
# 1 104.2059 31.2815 17.6905 0.0016 2.8139 -0.0048
# 2 31.2815 72.8288 -11.7064 0.0017 -4.3338 0.0011
# 3 17.6905 -11.7064 92.4117 0.0045 -7.7930 -0.0184
# 4 0.0016 0.0017 0.0045 24.8248 0.0007 5.1705
# 5 2.8139 -4.3338 -7.7930 0.0007 32.6711 -0.0087
# 6 -0.0048 0.0011 -0.0184 5.1705 -0.0087 25.8717
#
#
#
# Elastic Compliance Matrix: (Units=1/GPa)
#
#
# Indices 1 2 3 4 5 6 
#
# 1 0.011961 -0.005812 -0.003243 0.000000 -0.002575 -0.000001
# 2 -0.005812 0.017016 0.003573 -0.000002 0.003610 0.000002
# 3 -0.003243 0.003573 0.012204 -0.000004 0.003664 0.000010
# 4 0.000000 -0.000002 -0.000004 0.042032 -0.000005 -0.008400
# 5 -0.002575 0.003610 0.003664 -0.000005 0.032183 0.000014
# 6 -0.000001 0.000002 0.000010 -0.008400 0.000014 0.040331
#
#
# Mechanical properties :
#
#
# Convention : Reuss Voigt Hill
#
# Bulk Modulus (GPa) = 33.09522 38.21973 35.65748
# Shear Modulus (GPa) = 28.28630 32.15225 30.21927
#
# Velocity S-wave (km/s) = 3.79669 4.04784 3.92427
# Velocity P-wave (km/s) = 6.00711 6.42835 6.22129
#
# Compressibility (1/GPa) = 0.03021584
#
# Stress axis : x y z
#
# Youngs Moduli (GPa) = 83.60357 58.76709 81.94340
#
# Poissons Ratio (x) = 0.34156 0.26575
# Poissons Ratio (y) = 0.48591 -0.29275
# Poissons Ratio (z) = 0.27114 -0.20995
#
# Static dielectric constant tensor:
#      x y z
#    x 1.686030 0.000000 -0.005000 
#    y 0.000000 1.789570 -0.000010 
#    z -0.005000 -0.000010 1.679750 
# 
# From -- ./inp_files/157721.got.cif
#   From: 2010.05.17/outbox.cif.g08.bks.cpg/sg15_79_cif.got.tgz:157721.got - 2010.06.03 18:47:42.
