data_PCOD9301522
_publ_section_title
;
Structure prediction by ZEFSAII (Michael W. Deem and Ramdas Pophale) SiO2 
 PCOD9301522
Probable space group: C 2/C
;
_chemical_formula_sum "Si O2"
_cell_formula_units_Z 56
_cell_length_a 21.997525
_cell_length_b 21.450693
_cell_length_c 11.168493
_cell_angle_alpha 90.000000
_cell_angle_beta 30.291296
_cell_angle_gamma 90.000000
_cell_volume 2658.163869
_symmetry_space_group_name_H-M "C 2/C"
_symmetry_group_IT_number 15
_symmetry_cell_setting 'monoclinic'
loop_
_space_group_symop_operation_xyz
x,y,z
-x,y,1/2-z
-x,-y,-z
x,-y,1/2+z
1/2+x,1/2+y,z
1/2-x,1/2+y,1/2-z
1/2-x,1/2-y,-z
1/2+x,1/2-y,1/2+z
loop_
_atom_site_type_symbol
_atom_site_label
_atom_site_fract_x
_atom_site_fract_y
_atom_site_fract_z
Si Si1 0.355465 0.081120 0.468849
Si Si2 0.477791 0.704905 0.912852
Si Si3 0.079795 0.193109 0.222858
Si Si4 0.092538 0.681155 0.302260
Si Si5 0.135521 0.441419 0.071780
Si Si6 0.800413 0.695871 0.120428
Si Si7 0.327006 0.872558 0.269097
O O1 0.500000 0.079994 0.250000
O O2 0.342862 0.122926 0.371699
O O3 0.300459 0.114735 0.676362
O O4 0.313052 0.009808 0.540104
O O5 0.489361 0.685081 0.033074
O O6 0.335649 0.720256 0.154111
O O7 0.500000 0.667915 0.750000
O O8 0.573290 0.761657 0.744184
O O9 0.000000 0.166635 0.250000
O O10 0.118871 0.261941 0.106245
O O11 0.208479 0.160312 0.019532
O O12 0.151935 0.700818 0.325152
O O13 0.953730 0.662774 0.562635
O O14 0.144578 0.433214 0.199487
O O15 0.000000 0.440342 0.250000
O O16 0.192767 0.377948 0.921907
#
# Coordination Sequence:
#
# PCOD9301522 Si02
#       7
#     8   8   8   8   8   8   8
#     4   9  23  37  60  94 129 165 203 267 325 375
#     4  12  25  40  60  93 132 165 208 261 319 376
#     4  12  24  41  64  91 125 174 218 251 317 389
#     4  11  22  39  61  94 132 167 203 261 322 378
#     4  11  21  35  63  95 124 160 212 260 318 379
#     4  12  23  37  66  94 127 170 209 260 313 388
#     4  11  21  39  63  86 130 166 209 259 318 387
#
# _framework density 21.067174999999999
#
# number of rings (size 3 to 8) (size 9 to 14) (size 15 to 20)
#    0.000    0.857    5.714    3.000    2.000    3.429 
#    0.000    0.000    0.000    1.714    0.000    0.000 
#    0.000    0.000    0.000    0.000    0.000    0.000 
#
# Total GULP energy -156115.774306 kJ/mol
# GULP energy per Si atom -5575.563368 kJ/mol
# Density = 2.101922 g / cm^3
# Si number density = 21.067175 Si / 1000 Ang^3
#
#
#
# Elastic Constant Matrix: (Units=GPa)
#
#
# Indices 1 2 3 4 5 6 
#
# 1 139.2944 22.6512 24.5518 -0.0001 17.8710 0.0003
# 2 22.6512 63.9795 11.4512 -0.0001 5.8803 0.0002
# 3 24.5518 11.4512 60.3008 -0.0002 20.7687 0.0004
# 4 -0.0001 -0.0001 -0.0002 15.1437 0.0001 -0.5277
# 5 17.8710 5.8803 20.7687 0.0001 35.3938 -0.0003
# 6 0.0003 0.0002 0.0004 -0.5277 -0.0003 -29.0815
#
#
#
# Elastic Compliance Matrix: (Units=1/GPa)
#
#
# Indices 1 2 3 4 5 6 
#
# 1 0.008245 -0.002319 -0.002025 0.000000 -0.002590 0.000000
# 2 -0.002319 0.016867 -0.002127 0.000000 -0.000383 0.000000
# 3 -0.002025 -0.002127 0.021730 0.000000 -0.011375 0.000000
# 4 0.000000 0.000000 0.000000 0.065992 0.000000 -0.001197
# 5 -0.002590 -0.000383 -0.011375 0.000000 0.036300 0.000000
# 6 0.000000 0.000000 0.000000 -0.001197 0.000000 -0.034364
#
#
# Mechanical properties :
#
#
# Convention : Reuss Voigt Hill
#
# Bulk Modulus (GPa) = 29.49775 42.32036 35.90905
# Shear Modulus (GPa) = 35.96857 17.95257 26.96057
#
# Velocity S-wave (km/s) = 4.13646 2.92234 3.58123
# Velocity P-wave (km/s) = 6.07009 5.61415 5.84656
#
# Compressibility (1/GPa) = 0.03390089
#
# Stress axis : x y z
#
# Youngs Moduli (GPa) = 121.28198 59.28789 46.02023
#
# Poissons Ratio (x) = 0.13747 0.09318
# Poissons Ratio (y) = 0.28122 0.09788
# Poissons Ratio (z) = 0.24557 0.12610
#
# Static dielectric constant tensor:
#      x y z
#    x 1.807480 0.000000 0.051020 
#    y 0.000000 1.798330 0.000000 
#    z 0.051020 0.000000 1.779160 
# 
# From -- ./inp_files/119796.got.cif
#   From: 2010.05.17/outbox.cif.g08.bks.cpg/sg15_60_cif.got.tgz:119796.got - 2010.06.03 18:47:42.
