data_PCOD9301744
_publ_section_title
;
Structure prediction by ZEFSAII (Michael W. Deem and Ramdas Pophale) SiO2 
 PCOD9301744
Probable space group: C 2/C
;
_chemical_formula_sum "Si O2"
_cell_formula_units_Z 56
_cell_length_a 9.623905
_cell_length_b 12.559396
_cell_length_c 23.989848
_cell_angle_alpha 90.000000
_cell_angle_beta 115.422323
_cell_angle_gamma 90.000000
_cell_volume 2618.883448
_symmetry_space_group_name_H-M "C 2/C"
_symmetry_group_IT_number 15
_symmetry_cell_setting 'monoclinic'
loop_
_space_group_symop_operation_xyz
x,y,z
-x,y,1/2-z
-x,-y,-z
x,-y,1/2+z
1/2+x,1/2+y,z
1/2-x,1/2+y,1/2-z
1/2-x,1/2-y,-z
1/2+x,1/2-y,1/2+z
loop_
_atom_site_type_symbol
_atom_site_label
_atom_site_fract_x
_atom_site_fract_y
_atom_site_fract_z
Si Si1 0.169635 0.009051 0.769397
Si Si2 0.861148 0.896758 0.346628
Si Si3 0.153781 0.992461 0.933266
Si Si4 0.084298 0.438881 0.099817
Si Si5 0.659003 0.269894 0.756767
Si Si6 0.416404 0.302704 0.885409
Si Si7 0.759127 0.523152 0.074805
O O1 0.161574 0.886391 0.784563
O O2 0.000000 0.056781 0.750000
O O3 0.198337 0.017457 0.708859
O O4 0.300564 0.061701 0.827737
O O5 0.804739 0.790651 0.307065
O O6 0.783804 0.924963 0.391781
O O7 0.040800 0.918776 0.386805
O O8 0.066136 0.880376 0.908379
O O9 0.318035 0.006840 0.932642
O O10 0.169203 0.012641 0.001329
O O11 0.047098 0.314073 0.083123
O O12 0.937004 0.508397 0.090509
O O13 0.500000 0.215471 0.750000
O O14 0.646074 0.284345 0.688188
O O15 0.296305 0.370493 0.902515
#
# Coordination Sequence:
#
# PCOD9301744 Si02
#       7
#     8   8   8   8   8   8   8
#     4  11  21  41  66  98 143 177 228 293 355 417
#     4  11  21  40  71 100 134 185 228 284 357 411
#     4  11  24  49  72  96 149 189 229 289 349 422
#     4  12  25  43  72 104 137 184 239 290 351 414
#     4  11  21  38  68 103 139 177 231 292 358 418
#     4  11  23  45  71 101 140 183 231 292 351 412
#     4  11  26  46  69 106 142 185 241 288 337 426
#
# _framework density 21.383158000000002
#
# number of rings (size 3 to 8) (size 9 to 14) (size 15 to 20)
#    0.000    0.857    5.714    3.857    0.000    2.286 
#    0.000    7.143    0.000    0.000    0.000    0.000 
#    0.000    0.000    0.000    0.000    0.000    0.000 
#
# Total GULP energy -156327.708913 kJ/mol
# GULP energy per Si atom -5583.132461 kJ/mol
# Density = 2.133449 g / cm^3
# Si number density = 21.383158 Si / 1000 Ang^3
#
#
#
# Elastic Constant Matrix: (Units=GPa)
#
#
# Indices 1 2 3 4 5 6 
#
# 1 129.6206 39.3122 20.9529 0.0000 -10.3831 0.0000
# 2 39.3122 93.0629 12.7320 0.0000 2.9518 0.0000
# 3 20.9529 12.7320 124.6989 0.0000 -20.7026 0.0000
# 4 0.0000 0.0000 0.0000 22.4189 0.0000 2.5461
# 5 -10.3831 2.9518 -20.7026 0.0000 35.5353 0.0000
# 6 0.0000 0.0000 0.0000 2.5461 0.0000 8.6968
#
#
#
# Elastic Compliance Matrix: (Units=1/GPa)
#
#
# Indices 1 2 3 4 5 6 
#
# 1 0.009215 -0.003876 -0.000722 0.000000 0.002594 0.000000
# 2 -0.003876 0.012624 -0.001107 0.000000 -0.002826 0.000000
# 3 -0.000722 -0.001107 0.009116 0.000000 0.005192 0.000000
# 4 0.000000 0.000000 0.000000 0.046139 0.000000 -0.013508
# 5 0.002594 -0.002826 0.005192 0.000000 0.032158 0.000000
# 6 0.000000 0.000000 0.000000 -0.013508 0.000000 0.118940
#
#
# Mechanical properties :
#
#
# Convention : Reuss Voigt Hill
#
# Bulk Modulus (GPa) = 51.16520 54.81963 52.99242
# Shear Modulus (GPa) = 20.31559 31.62255 25.96907
#
# Velocity S-wave (km/s) = 3.08567 3.84976 3.48870
# Velocity P-wave (km/s) = 6.05598 6.74191 6.40813
#
# Compressibility (1/GPa) = 0.01954453
#
# Stress axis : x y z
#
# Youngs Moduli (GPa) = 108.52016 79.21512 109.70264
#
# Poissons Ratio (x) = 0.30705 0.07920
# Poissons Ratio (y) = 0.42064 0.12142
# Poissons Ratio (z) = 0.07835 0.08768
#
# Static dielectric constant tensor:
#      x y z
#    x 1.837110 0.000000 -0.003030 
#    y 0.000000 1.834670 0.000000 
#    z -0.003030 0.000000 1.765140 
# 
# From -- ./inp_files/264788.got.cif
#   From: 2010.05.17/outbox.cif.g08.bks.cpg/sg15_133_cif.got.tgz:264788.got - 2010.06.03 18:47:42.
