data_PCOD9301632
_publ_section_title
;
Structure prediction by ZEFSAII (Michael W. Deem and Ramdas Pophale) SiO2 
 PCOD9301632
Probable space group: C 2/C
;
_chemical_formula_sum "Si O2"
_cell_formula_units_Z 40
_cell_length_a 22.725616
_cell_length_b 13.399322
_cell_length_c 14.579923
_cell_angle_alpha 90.000000
_cell_angle_beta 22.834583
_cell_angle_gamma 90.000000
_cell_volume 1722.923365
_symmetry_space_group_name_H-M "C 2/C"
_symmetry_group_IT_number 15
_symmetry_cell_setting 'monoclinic'
loop_
_space_group_symop_operation_xyz
x,y,z
-x,y,1/2-z
-x,-y,-z
x,-y,1/2+z
1/2+x,1/2+y,z
1/2-x,1/2+y,1/2-z
1/2-x,1/2-y,-z
1/2+x,1/2-y,1/2+z
loop_
_atom_site_type_symbol
_atom_site_label
_atom_site_fract_x
_atom_site_fract_y
_atom_site_fract_z
Si Si1 0.629556 0.050807 0.008046
Si Si2 0.912742 0.961579 0.779184
Si Si3 0.336406 0.736883 0.032873
Si Si4 0.615636 0.610960 0.375091
Si Si5 0.883995 0.433771 0.725894
O O1 0.500000 0.992093 0.250000
O O2 0.714621 0.150642 0.919067
O O3 0.507238 0.106854 0.119707
O O4 0.748311 0.969740 0.807133
O O5 0.914791 0.883757 0.690497
O O6 0.000000 0.939163 0.750000
O O7 0.987558 0.056680 0.620383
O O8 0.741937 0.992029 0.050626
O O9 0.500000 0.717734 0.750000
O O10 0.343953 0.711493 0.130496
O O11 0.213244 0.656527 0.174573
O O12 0.000000 0.500000 0.500000
#
# Coordination Sequence:
#
# PCOD9301632 Si02
#       5
#     8   8   8   8   8
#     4  11  24  38  65 102 129 169 221 277 323 383
#     4  11  21  37  64  93 125 177 215 259 328 394
#     4  11  23  41  64 101 137 169 219 275 326 389
#     4  11  21  40  66  92 136 174 209 268 341 387
#     4  12  21  39  66  91 137 172 216 271 322 388
#
# _framework density 23.216353999999999
#
# number of rings (size 3 to 8) (size 9 to 14) (size 15 to 20)
#    0.000    0.800    8.000    0.000    0.000    6.400 
#    0.000    0.000    0.000   20.400    0.000    0.000 
#    0.000    0.000    0.000    0.000    0.000    0.000 
#
# Total GULP energy -111368.405199 kJ/mol
# GULP energy per Si atom -5568.420260 kJ/mol
# Density = 2.316351 g / cm^3
# Si number density = 23.216354 Si / 1000 Ang^3
#
#
#
# Elastic Constant Matrix: (Units=GPa)
#
#
# Indices 1 2 3 4 5 6 
#
# 1 148.9086 14.6496 38.0204 0.0000 -6.2832 0.0000
# 2 14.6496 56.3566 52.3208 0.0000 4.4013 0.0000
# 3 38.0204 52.3208 185.4583 0.0000 8.0573 0.0000
# 4 0.0000 0.0000 0.0000 27.9792 0.0000 -1.6141
# 5 -6.2832 4.4013 8.0573 0.0000 39.1039 0.0000
# 6 0.0000 0.0000 0.0000 -1.6141 0.0000 22.8240
#
#
#
# Elastic Compliance Matrix: (Units=1/GPa)
#
#
# Indices 1 2 3 4 5 6 
#
# 1 0.007193 -0.000756 -0.001327 0.000000 0.001514 0.000000
# 2 -0.000756 0.024188 -0.006604 0.000000 -0.001483 0.000000
# 3 -0.001327 -0.006604 0.007572 0.000000 -0.001030 0.000000
# 4 0.000000 0.000000 0.000000 0.035887 0.000000 0.002538
# 5 0.001514 -0.001483 -0.001030 0.000000 0.026195 0.000000
# 6 0.000000 0.000000 0.000000 0.002538 0.000000 0.043993
#
#
# Mechanical properties :
#
#
# Convention : Reuss Voigt Hill
#
# Bulk Modulus (GPa) = 46.34382 66.74500 56.54441
# Shear Modulus (GPa) = 29.48190 37.03027 33.25608
#
# Velocity S-wave (km/s) = 3.56740 3.99809 3.78887
# Velocity P-wave (km/s) = 6.08058 7.07986 6.59917
#
# Compressibility (1/GPa) = 0.02157785
#
# Stress axis : x y z
#
# Youngs Moduli (GPa) = 139.03130 41.34299 132.06434
#
# Poissons Ratio (x) = 0.03125 0.17526
# Poissons Ratio (y) = 0.10509 0.87221
# Poissons Ratio (z) = 0.18451 0.27305
#
# Static dielectric constant tensor:
#      x y z
#    x 2.437030 0.000000 0.036660 
#    y 0.000000 2.430070 0.000000 
#    z 0.036660 0.000000 1.853590 
# 
# From -- ./inp_files/222689.got.cif
#   From: 2010.05.17/outbox.cif.g08.bks.cpg/sg15_112_cif.got.tgz:222689.got - 2010.06.03 18:47:42.
