data_PCOD9301214
_publ_section_title
;
Structure prediction by ZEFSAII (Michael W. Deem and Ramdas Pophale) SiO2 
 PCOD9301214
Probable space group: C 2/C
;
_chemical_formula_sum "Si O2"
_cell_formula_units_Z 36
_cell_length_a 11.166343
_cell_length_b 15.240399
_cell_length_c 9.767394
_cell_angle_alpha 90.000000
_cell_angle_beta 118.280311
_cell_angle_gamma 90.000000
_cell_volume 1463.809369
_symmetry_space_group_name_H-M "C 2/C"
_symmetry_group_IT_number 15
_symmetry_cell_setting 'monoclinic'
loop_
_space_group_symop_operation_xyz
x,y,z
-x,y,1/2-z
-x,-y,-z
x,-y,1/2+z
1/2+x,1/2+y,z
1/2-x,1/2+y,1/2-z
1/2-x,1/2-y,-z
1/2+x,1/2-y,1/2+z
loop_
_atom_site_type_symbol
_atom_site_label
_atom_site_fract_x
_atom_site_fract_y
_atom_site_fract_z
Si Si1 0.705721 0.566865 0.324076
Si Si2 0.501528 0.856193 0.900083
Si Si3 0.221351 0.094766 0.649808
Si Si4 0.379829 0.249244 0.793559
Si Si5 0.000000 0.514361 0.750000
O O1 0.861841 0.602176 0.383437
O O2 0.677519 0.573322 0.471190
O O3 0.667137 0.473978 0.233123
O O4 0.631434 0.646365 0.206264
O O5 0.500000 0.811522 0.750000
O O6 0.575032 0.947672 0.895276
O O7 0.575742 0.792357 0.040645
O O8 0.236706 0.200146 0.676308
O O9 0.382197 0.070744 0.748260
O O10 0.500000 0.233575 0.750000
#
# Coordination Sequence:
#
# PCOD9301214 Si02
#       5
#     8   8   8   8   4
#     4  11  24  40  62  99 125 163 211 258 313 371
#     4   9  20  38  60  93 127 155 202 260 315 360
#     4  11  20  39  63  90 128 161 205 261 308 368
#     4  12  23  39  67  93 127 165 209 258 314 368
#     4   8  16  34  60  90 116 150 200 254 314 340
#
# _framework density 24.593366
#
# number of rings (size 3 to 8) (size 9 to 14) (size 15 to 20)
#    0.667    0.889    3.333    2.000    0.000    4.444 
#    0.000    1.111    0.000    0.000    0.000    0.000 
#    0.000    0.000    0.000    0.000    0.000    0.000 
#
# Total GULP energy -100352.987004 kJ/mol
# GULP energy per Si atom -5575.165945 kJ/mol
# Density = 2.453739 g / cm^3
# Si number density = 24.593366 Si / 1000 Ang^3
#
#
#
# Elastic Constant Matrix: (Units=GPa)
#
#
# Indices 1 2 3 4 5 6 
#
# 1 20.7648 5.6861 6.4634 0.0000 1.5039 0.0000
# 2 5.6861 109.4004 27.6142 0.0000 2.2678 0.0000
# 3 6.4634 27.6142 136.7772 0.0000 -25.9817 0.0000
# 4 0.0000 0.0000 0.0000 44.4325 0.0000 7.2224
# 5 1.5039 2.2678 -25.9817 0.0000 11.2887 0.0000
# 6 0.0000 0.0000 0.0000 7.2224 0.0000 19.3818
#
#
#
# Elastic Compliance Matrix: (Units=1/GPa)
#
#
# Indices 1 2 3 4 5 6 
#
# 1 0.051892 -0.000629 -0.006422 0.000000 -0.021568 0.000000
# 2 -0.000629 0.010541 -0.004415 0.000000 -0.012195 0.000000
# 3 -0.006422 -0.004415 0.015702 0.000000 0.037881 0.000000
# 4 0.000000 0.000000 0.000000 0.023957 0.000000 -0.008927
# 5 -0.021568 -0.012195 0.037881 0.000000 0.181094 0.000000
# 6 0.000000 0.000000 0.000000 -0.008927 0.000000 0.054921
#
#
# Mechanical properties :
#
#
# Convention : Reuss Voigt Hill
#
# Bulk Modulus (GPa) = 18.11517 38.49665 28.30591
# Shear Modulus (GPa) = 13.17736 30.16584 21.67160
#
# Velocity S-wave (km/s) = 2.31727 3.50606 2.97172
# Velocity P-wave (km/s) = 3.81333 5.66367 4.82798
#
# Compressibility (1/GPa) = 0.05520235
#
# Stress axis : x y z
#
# Youngs Moduli (GPa) = 19.27085 94.87150 63.68746
#
# Poissons Ratio (x) = 0.05967 0.40901
# Poissons Ratio (y) = 0.01212 0.28117
# Poissons Ratio (z) = 0.12376 0.41884
#
# Static dielectric constant tensor:
#      x y z
#    x 2.035400 0.000000 0.052170 
#    y 0.000000 2.079700 0.000000 
#    z 0.052170 0.000000 2.031300 
# 
# From -- ./inp_files/37672.got.cif
#   From: 2010.05.17/outbox.cif.g08.bks.cpg/sg15_19_cif.got.tgz:37672.got - 2010.06.03 18:47:42.
