data_PCOD9301137
_publ_section_title
;
Structure prediction by ZEFSAII (Michael W. Deem and Ramdas Pophale) SiO2 
 PCOD9301137
Probable space group: C 2/C
;
_chemical_formula_sum "Si O2"
_cell_formula_units_Z 60
_cell_length_a 11.998227
_cell_length_b 22.736053
_cell_length_c 11.777320
_cell_angle_alpha 90.000000
_cell_angle_beta 100.220931
_cell_angle_gamma 90.000000
_cell_volume 3161.778697
_symmetry_space_group_name_H-M "C 2/C"
_symmetry_group_IT_number 15
_symmetry_cell_setting 'monoclinic'
loop_
_space_group_symop_operation_xyz
x,y,z
-x,y,1/2-z
-x,-y,-z
x,-y,1/2+z
1/2+x,1/2+y,z
1/2-x,1/2+y,1/2-z
1/2-x,1/2-y,-z
1/2+x,1/2-y,1/2+z
loop_
_atom_site_type_symbol
_atom_site_label
_atom_site_fract_x
_atom_site_fract_y
_atom_site_fract_z
Si Si1 0.780216 0.628689 0.822947
Si Si2 0.385754 0.051168 0.654602
Si Si3 0.739885 0.651933 0.233304
Si Si4 0.544228 0.224746 0.552042
Si Si5 0.500000 0.689779 0.250000
Si Si6 0.180186 0.574904 0.437535
Si Si7 0.567198 0.879618 0.566304
Si Si8 0.123942 0.764907 0.325820
O O1 0.808009 0.596252 0.711156
O O2 0.879096 0.675553 0.871999
O O3 0.670243 0.669981 0.807908
O O4 0.787223 0.580432 0.924573
O O5 0.500000 0.042578 0.750000
O O6 0.417307 0.078937 0.539208
O O7 0.327188 0.989467 0.616106
O O8 0.618021 0.655470 0.268544
O O9 0.735076 0.616248 0.115707
O O10 0.830851 0.618384 0.327736
O O11 0.790904 0.716288 0.211883
O O12 0.504462 0.270471 0.637938
O O13 0.442661 0.187210 0.479672
O O14 0.611464 0.253159 0.458589
O O15 0.054289 0.603513 0.402495
O O16 0.000000 0.756000 0.250000
#
# Coordination Sequence:
#
# PCOD9301137 Si02
#       8
#     8   8   8   8   4   8   8   8
#     4  11  23  38  61  91 129 161 202 250 315 375
#     4  12  23  38  64  96 129 159 202 263 318 358
#     4  12  23  41  61  94 126 164 209 249 312 372
#     4  11  20  38  61  92 124 163 197 248 317 371
#     4  12  26  36  62  86 130 170 198 256 306 372
#     4  11  23  40  66  90 120 167 205 256 310 372
#     4  11  22  37  63  96 126 155 202 261 309 369
#     4  12  22  40  67  91 124 165 206 251 309 379
#
# _framework density 18.976659999999999
#
# number of rings (size 3 to 8) (size 9 to 14) (size 15 to 20)
#    0.000    0.533    8.000    3.600    1.867    1.600 
#    0.000    0.000    1.467    1.600    0.000    0.000 
#    0.000    0.000    0.000    0.000    0.000    0.000 
#
# Total GULP energy -167653.239096 kJ/mol
# GULP energy per Si atom -5588.441303 kJ/mol
# Density = 1.893347 g / cm^3
# Si number density = 18.976660 Si / 1000 Ang^3
#
#
#
# Elastic Constant Matrix: (Units=GPa)
#
#
# Indices 1 2 3 4 5 6 
#
# 1 79.2712 22.0398 20.2271 0.0000 -16.6894 0.0000
# 2 22.0398 81.3115 19.4753 0.0000 -12.9143 0.0000
# 3 20.2271 19.4753 69.8059 0.0000 -15.3939 0.0000
# 4 0.0000 0.0000 0.0000 -7.4928 0.0000 7.1125
# 5 -16.6894 -12.9143 -15.3939 0.0000 19.5796 0.0000
# 6 0.0000 0.0000 0.0000 7.1125 0.0000 12.9099
#
#
#
# Elastic Compliance Matrix: (Units=1/GPa)
#
#
# Indices 1 2 3 4 5 6 
#
# 1 0.015924 -0.002208 -0.001604 0.000000 0.010856 0.000000
# 2 -0.002208 0.014334 -0.002044 0.000000 0.005966 0.000000
# 3 -0.001604 -0.002044 0.017858 0.000000 0.011325 0.000000
# 4 0.000000 0.000000 0.000000 -0.087632 0.000000 0.048280
# 5 0.010856 0.005966 0.011325 0.000000 0.073165 0.000000
# 6 0.000000 0.000000 0.000000 0.048280 0.000000 0.050861
#
#
# Mechanical properties :
#
#
# Convention : Reuss Voigt Hill
#
# Bulk Modulus (GPa) = 27.46961 39.31921 33.39441
# Shear Modulus (GPa) = 46.14443 16.24243 31.19343
#
# Velocity S-wave (km/s) = 4.93652 2.92878 4.05875
# Velocity P-wave (km/s) = 6.85559 5.67466 6.29289
#
# Compressibility (1/GPa) = 0.03640387
#
# Stress axis : x y z
#
# Youngs Moduli (GPa) = 62.80012 69.76513 55.99775
#
# Poissons Ratio (x) = 0.15403 0.08983
# Poissons Ratio (y) = 0.13865 0.11444
# Poissons Ratio (z) = 0.10074 0.14258
#
# Static dielectric constant tensor:
#      x y z
#    x 1.665850 0.000000 0.016180 
#    y 0.000000 1.667510 0.000000 
#    z 0.016180 0.000000 1.666870 
# 
# From -- ./inp_files/89629.got.cif
#   From: 2010.05.17/outbox.cif.g08.bks.cpg/sg15_45_cif.got.tgz:89629.got - 2010.06.03 18:47:42.
