data_PCOD9301794
_publ_section_title
;
Structure prediction by ZEFSAII (Michael W. Deem and Ramdas Pophale) SiO2 
 PCOD9301794
Probable space group: C 2/C
;
_chemical_formula_sum "Si O2"
_cell_formula_units_Z 56
_cell_length_a 22.177269
_cell_length_b 9.621755
_cell_length_c 13.178567
_cell_angle_alpha 90.000000
_cell_angle_beta 93.179769
_cell_angle_gamma 90.000000
_cell_volume 2807.769148
_symmetry_space_group_name_H-M "C 2/C"
_symmetry_group_IT_number 15
_symmetry_cell_setting 'monoclinic'
loop_
_space_group_symop_operation_xyz
x,y,z
-x,y,1/2-z
-x,-y,-z
x,-y,1/2+z
1/2+x,1/2+y,z
1/2-x,1/2+y,1/2-z
1/2-x,1/2-y,-z
1/2+x,1/2-y,1/2+z
loop_
_atom_site_type_symbol
_atom_site_label
_atom_site_fract_x
_atom_site_fract_y
_atom_site_fract_z
Si Si1 0.962564 0.862186 0.019115
Si Si2 0.268965 0.328718 0.605262
Si Si3 0.638858 0.442896 0.329701
Si Si4 0.371145 0.113852 0.652792
Si Si5 0.449793 0.887321 0.956839
Si Si6 0.850661 0.647398 0.275840
Si Si7 0.935300 0.174464 0.289447
O O1 0.936512 0.811270 0.909502
O O2 0.910889 0.897606 0.093223
O O3 0.009880 0.748166 0.059747
O O4 0.000000 0.000000 0.000000
O O5 0.250000 0.250000 0.500000
O O6 0.308407 0.471237 0.606969
O O7 0.312741 0.212064 0.657370
O O8 0.209972 0.365992 0.663930
O O9 0.651788 0.304328 0.266952
O O10 0.610390 0.555543 0.250441
O O11 0.402862 0.127674 0.546350
O O12 0.418212 0.181057 0.735605
O O13 0.354290 0.958613 0.682037
O O14 0.407025 0.894918 0.853754
O O15 0.500000 0.000000 0.000000
O O16 0.000000 0.132508 0.250000
#
# Coordination Sequence:
#
# PCOD9301794 Si02
#       7
#     8   8   8   8   8   8   8
#     4  12  22  38  63  98 135 171 224 268 332 412
#     4  11  24  49  72  91 132 183 232 281 346 399
#     4  11  26  41  68 104 130 179 232 285 339 403
#     4  11  24  45  65  96 131 181 226 270 350 410
#     4  12  25  40  67 100 139 179 213 277 344 410
#     4  12  26  44  70  99 138 177 232 290 335 404
#     4  11  21  39  64  90 136 183 213 269 341 410
#
# _framework density 19.944658
#
# number of rings (size 3 to 8) (size 9 to 14) (size 15 to 20)
#    0.000    0.571    4.286    4.286    2.000    1.143 
#    0.000    0.714    0.000    0.000    0.000    0.000 
#    0.000    0.000    0.000    0.000    0.000    0.000 
#
# Total GULP energy -156308.819430 kJ/mol
# GULP energy per Si atom -5582.457837 kJ/mol
# Density = 1.989926 g / cm^3
# Si number density = 19.944658 Si / 1000 Ang^3
#
#
#
# Elastic Constant Matrix: (Units=GPa)
#
#
# Indices 1 2 3 4 5 6 
#
# 1 111.4350 46.1219 29.9832 0.0000 -7.3725 0.0000
# 2 46.1219 121.9939 2.7426 0.0000 0.6725 0.0000
# 3 29.9832 2.7426 71.3176 0.0000 -0.9979 0.0000
# 4 0.0000 0.0000 0.0000 25.5863 0.0000 -4.7874
# 5 -7.3725 0.6725 -0.9979 0.0000 33.4664 0.0000
# 6 0.0000 0.0000 0.0000 -4.7874 0.0000 36.0267
#
#
#
# Elastic Compliance Matrix: (Units=1/GPa)
#
#
# Indices 1 2 3 4 5 6 
#
# 1 0.012394 -0.004588 -0.004997 0.000000 0.002674 0.000000
# 2 -0.004588 0.009904 0.001532 0.000000 -0.001164 0.000000
# 3 -0.004997 0.001532 0.016055 0.000000 -0.000653 0.000000
# 4 0.000000 0.000000 0.000000 0.040080 0.000000 0.005326
# 5 0.002674 -0.001164 -0.000653 0.000000 0.030474 0.000000
# 6 0.000000 0.000000 0.000000 0.005326 0.000000 0.028465
#
#
# Mechanical properties :
#
#
# Convention : Reuss Voigt Hill
#
# Bulk Modulus (GPa) = 44.95210 51.38242 48.16726
# Shear Modulus (GPa) = 31.07654 34.07579 32.57616
#
# Velocity S-wave (km/s) = 3.95161 4.13791 4.04583
# Velocity P-wave (km/s) = 6.58845 6.97482 6.78438
#
# Compressibility (1/GPa) = 0.02224590
#
# Stress axis : x y z
#
# Youngs Moduli (GPa) = 80.68258 100.97151 62.28773
#
# Poissons Ratio (x) = 0.46328 0.31125
# Poissons Ratio (y) = 0.37019 -0.09541
# Poissons Ratio (z) = 0.40316 -0.15467
#
# Static dielectric constant tensor:
#      x y z
#    x 1.716890 0.000000 0.033600 
#    y 0.000000 1.731260 0.000000 
#    z 0.033600 0.000000 1.696610 
# 
# From -- ./inp_files/166665.got.cif
#   From: 2010.05.17/outbox.cif.g08.bks.cpg/sg15_84_cif.got.tgz:166665.got - 2010.06.03 18:47:42.
