data_PCOD9301852
_publ_section_title
;
Structure prediction by ZEFSAII (Michael W. Deem and Ramdas Pophale) SiO2 
 PCOD9301852
Probable space group: C 2/C
;
_chemical_formula_sum "Si O2"
_cell_formula_units_Z 56
_cell_length_a 22.880004
_cell_length_b 11.466421
_cell_length_c 13.309795
_cell_angle_alpha 90.000000
_cell_angle_beta 138.687897
_cell_angle_gamma 90.000000
_cell_volume 2305.179672
_symmetry_space_group_name_H-M "C 2/C"
_symmetry_group_IT_number 15
_symmetry_cell_setting 'monoclinic'
loop_
_space_group_symop_operation_xyz
x,y,z
-x,y,1/2-z
-x,-y,-z
x,-y,1/2+z
1/2+x,1/2+y,z
1/2-x,1/2+y,1/2-z
1/2-x,1/2-y,-z
1/2+x,1/2-y,1/2+z
loop_
_atom_site_type_symbol
_atom_site_label
_atom_site_fract_x
_atom_site_fract_y
_atom_site_fract_z
Si Si1 0.000000 0.500000 0.000000
Si Si2 0.660143 0.120803 0.325159
Si Si3 0.500000 0.358247 0.250000
Si Si4 0.166611 0.997015 0.377520
Si Si5 0.810746 0.844174 0.277191
Si Si6 0.384534 0.174952 0.998912
Si Si7 0.894223 0.202341 0.089775
Si Si8 0.938656 0.575050 0.580917
O O1 0.989266 0.372012 0.052713
O O2 0.087624 0.538440 0.184415
O O3 0.755173 0.058477 0.454252
O O4 0.664774 0.239270 0.267242
O O5 0.638108 0.148789 0.412961
O O6 0.575924 0.436487 0.298316
O O7 0.455163 0.276785 0.105250
O O8 0.185903 0.959416 0.288049
O O9 0.154759 0.132578 0.386821
O O10 0.870099 0.857139 0.452367
O O11 0.709366 0.811384 0.175389
O O12 0.421494 0.050549 0.003991
O O13 0.867899 0.337467 0.033458
O O14 0.000000 0.206323 0.250000
O O15 0.000000 0.542519 0.750000
#
# Coordination Sequence:
#
# PCOD9301852 Si02
#       8
#     4   8   4   8   8   8   8   8
#     4  12  22  38  70  98 132 182 216 276 346 394
#     4  11  21  42  66 103 134 170 232 286 325 401
#     4  12  18  38  70 102 132 172 228 284 328 400
#     4  11  24  43  66  99 139 177 230 277 338 408
#     4  11  23  43  69  95 134 178 224 289 338 388
#     4  11  21  39  69 101 130 169 230 290 329 391
#     4  11  26  44  63  93 139 184 218 275 343 416
#     4  11  23  40  66  97 137 172 222 274 339 397
#
# _framework density 24.293116000000001
#
# number of rings (size 3 to 8) (size 9 to 14) (size 15 to 20)
#    0.000    0.857    7.143    0.857    2.000    0.571 
#    0.000    2.857    0.000    0.000    0.000    0.000 
#    0.000    0.000    0.000    0.000    0.000    0.000 
#
# Total GULP energy -156053.080631 kJ/mol
# GULP energy per Si atom -5573.324308 kJ/mol
# Density = 2.423782 g / cm^3
# Si number density = 24.293116 Si / 1000 Ang^3
#
#
#
# Elastic Constant Matrix: (Units=GPa)
#
#
# Indices 1 2 3 4 5 6 
#
# 1 62.1074 19.7317 35.2908 0.0000 12.4398 0.0000
# 2 19.7317 71.5500 0.5919 0.0000 5.3100 0.0000
# 3 35.2908 0.5919 150.2582 0.0000 1.7320 0.0000
# 4 0.0000 0.0000 0.0000 24.8156 0.0000 2.1908
# 5 12.4398 5.3100 1.7320 0.0000 42.8335 0.0000
# 6 0.0000 0.0000 0.0000 2.1908 0.0000 36.7802
#
#
#
# Elastic Compliance Matrix: (Units=1/GPa)
#
#
# Indices 1 2 3 4 5 6 
#
# 1 0.021827 -0.005574 -0.005042 0.000000 -0.005444 0.000000
# 2 -0.005574 0.015529 0.001252 0.000000 -0.000357 0.000000
# 3 -0.005042 0.001252 0.007823 0.000000 0.000993 0.000000
# 4 0.000000 0.000000 0.000000 0.040510 0.000000 -0.002413
# 5 -0.005444 -0.000357 0.000993 0.000000 0.024931 0.000000
# 6 0.000000 0.000000 0.000000 -0.002413 0.000000 0.027332
#
#
# Mechanical properties :
#
#
# Convention : Reuss Voigt Hill
#
# Bulk Modulus (GPa) = 37.80316 43.90492 40.85404
# Shear Modulus (GPa) = 30.21182 36.10594 33.15888
#
# Velocity S-wave (km/s) = 3.53035 3.85939 3.69853
# Velocity P-wave (km/s) = 5.67564 6.16215 5.92389
#
# Compressibility (1/GPa) = 0.02645281
#
# Stress axis : x y z
#
# Youngs Moduli (GPa) = 45.81438 64.39375 127.82831
#
# Poissons Ratio (x) = 0.35891 0.64448
# Poissons Ratio (y) = 0.25535 -0.16004
# Poissons Ratio (z) = 0.23099 -0.08062
#
# Static dielectric constant tensor:
#      x y z
#    x 2.181930 0.000000 -0.012910 
#    y 0.000000 2.088590 0.000000 
#    z -0.012910 0.000000 1.930780 
# 
# From -- ./inp_files/177648.got.cif
#   From: 2010.05.17/outbox.cif.g08.bks.cpg/sg15_89_cif.got.tgz:177648.got - 2010.06.03 18:47:42.
