data_PCOD9301011
_publ_section_title
;
Structure prediction by ZEFSAII (Michael W. Deem and Ramdas Pophale) SiO2 
 PCOD9301011
Probable space group: C 2/C
;
_chemical_formula_sum "Si O2"
_cell_formula_units_Z 48
_cell_length_a 28.102933
_cell_length_b 4.857002
_cell_length_c 18.045831
_cell_angle_alpha 90.000000
_cell_angle_beta 131.977329
_cell_angle_gamma 90.000000
_cell_volume 1831.154300
_symmetry_space_group_name_H-M "C 2/C"
_symmetry_group_IT_number 15
_symmetry_cell_setting 'monoclinic'
loop_
_space_group_symop_operation_xyz
x,y,z
-x,y,1/2-z
-x,-y,-z
x,-y,1/2+z
1/2+x,1/2+y,z
1/2-x,1/2+y,1/2-z
1/2-x,1/2-y,-z
1/2+x,1/2-y,1/2+z
loop_
_atom_site_type_symbol
_atom_site_label
_atom_site_fract_x
_atom_site_fract_y
_atom_site_fract_z
Si Si1 0.780132 0.001284 0.250380
Si Si2 0.373671 0.394133 0.512729
Si Si3 0.266628 0.830661 0.100663
Si Si4 0.896177 0.644693 0.938156
Si Si5 0.059359 0.924736 0.765477
Si Si6 0.407357 0.058499 0.289035
O O1 0.724811 0.187040 0.231470
O O2 0.842618 0.157723 0.343534
O O3 0.727843 0.554510 0.344176
O O4 0.298021 0.476627 0.435453
O O5 0.419683 0.616579 0.519635
O O6 0.390430 0.373981 0.616466
O O7 0.380355 0.103788 0.477849
O O8 0.334605 0.976646 0.187743
O O9 0.250000 0.750000 0.000000
O O10 0.922810 0.499480 0.891404
O O11 0.046812 0.637991 0.711453
O O12 0.000000 0.033745 0.750000
O O13 0.082447 0.132480 0.726688
#
# Coordination Sequence:
#
# PCOD9301011 Si02
#       6
#     8   8   8   8   8   8
#     4  11  20  36  57  88 134 179 202 252 322 400
#     4  12  24  43  69 101 140 181 222 278 343 408
#     4  11  23  40  65 105 142 170 221 268 342 413
#     4  11  23  42  66 103 137 180 226 269 341 414
#     4  12  27  50  70  97 135 183 233 290 344 395
#     4  11  26  44  73 102 139 178 226 285 341 408
#
# _framework density 26.212973000000002
#
# number of rings (size 3 to 8) (size 9 to 14) (size 15 to 20)
#    0.000    0.667    5.000    2.500    0.000    6.000 
#    0.000    5.000    0.000    0.000    0.000    0.000 
#    0.000    0.000    0.000    0.000    0.000    0.000 
#
# Total GULP energy -134163.043531 kJ/mol
# GULP energy per Si atom -5590.126814 kJ/mol
# Density = 2.615331 g / cm^3
# Si number density = 26.212973 Si / 1000 Ang^3
#
#
#
# Elastic Constant Matrix: (Units=GPa)
#
#
# Indices 1 2 3 4 5 6 
#
# 1 83.4412 19.8213 33.1457 0.0013 -25.6958 0.0027
# 2 19.8213 114.7193 19.6892 0.0077 -23.6598 0.0183
# 3 33.1457 19.6892 94.3798 0.0017 -33.4748 0.0013
# 4 0.0013 0.0077 0.0017 20.7081 0.0006 -21.9069
# 5 -25.6958 -23.6598 -33.4748 0.0006 52.1940 0.0030
# 6 0.0027 0.0183 0.0013 -21.9069 0.0030 48.6864
#
#
#
# Elastic Compliance Matrix: (Units=1/GPa)
#
#
# Indices 1 2 3 4 5 6 
#
# 1 0.015040 -0.001036 -0.003374 -0.000002 0.004771 -0.000002
# 2 -0.001036 0.009713 -0.000365 -0.000015 0.003659 -0.000010
# 3 -0.003374 -0.000365 0.014509 -0.000003 0.007479 -0.000002
# 4 -0.000002 -0.000015 -0.000003 0.092158 -0.000013 0.041467
# 5 0.004771 0.003659 0.007479 -0.000013 0.027964 -0.000009
# 6 -0.000002 -0.000010 -0.000002 0.041467 -0.000009 0.039198
#
#
# Mechanical properties :
#
#
# Convention : Reuss Voigt Hill
#
# Bulk Modulus (GPa) = 33.65388 48.65028 41.15208
# Shear Modulus (GPa) = 22.93209 38.97665 30.95437
#
# Velocity S-wave (km/s) = 2.96097 3.86025 3.44012
# Velocity P-wave (km/s) = 4.95543 6.20230 5.61360
#
# Compressibility (1/GPa) = 0.02971426
#
# Stress axis : x y z
#
# Youngs Moduli (GPa) = 66.48976 102.95321 68.92203
#
# Poissons Ratio (x) = 0.10662 0.23252
# Poissons Ratio (y) = 0.06886 0.02514
# Poissons Ratio (z) = 0.22431 0.03755
#
# Static dielectric constant tensor:
#      x y z
#    x 2.187240 -0.000010 0.091240 
#    y -0.000010 2.006160 0.000000 
#    z 0.091240 0.000000 2.110640 
# 
# From -- ./inp_files/221022.got.cif
#   From: 2010.05.17/outbox.cif.g08.bks.cpg/sg15_111_cif.got.tgz:221022.got - 2010.06.03 18:47:42.
