data_PCOD9301873
_publ_section_title
;
Structure prediction by ZEFSAII (Michael W. Deem and Ramdas Pophale) SiO2 
 PCOD9301873
Probable space group: C 2/C
;
_chemical_formula_sum "Si O2"
_cell_formula_units_Z 60
_cell_length_a 25.096601
_cell_length_b 17.599321
_cell_length_c 9.162265
_cell_angle_alpha 90.000000
_cell_angle_beta 49.031533
_cell_angle_gamma 90.000000
_cell_volume 3055.632977
_symmetry_space_group_name_H-M "C 2/C"
_symmetry_group_IT_number 15
_symmetry_cell_setting 'monoclinic'
loop_
_space_group_symop_operation_xyz
x,y,z
-x,y,1/2-z
-x,-y,-z
x,-y,1/2+z
1/2+x,1/2+y,z
1/2-x,1/2+y,1/2-z
1/2-x,1/2-y,-z
1/2+x,1/2-y,1/2+z
loop_
_atom_site_type_symbol
_atom_site_label
_atom_site_fract_x
_atom_site_fract_y
_atom_site_fract_z
Si Si1 0.931553 0.538120 0.960103
Si Si2 0.704197 0.575736 0.082827
Si Si3 0.874304 0.220344 0.164246
Si Si4 0.500000 0.769082 0.750000
Si Si5 0.736925 0.570720 0.699020
Si Si6 0.660173 0.156074 0.536814
Si Si7 0.098403 0.596812 0.165637
Si Si8 0.240110 0.239386 0.688848
O O1 0.873145 0.580831 0.970416
O O2 0.924912 0.449232 0.937639
O O3 0.000000 0.565474 0.750000
O O4 0.925761 0.556878 0.140313
O O5 0.643734 0.638295 0.229895
O O6 0.700883 0.497105 0.176552
O O7 0.726283 0.546726 0.884107
O O8 0.771203 0.626548 0.005296
O O9 0.876656 0.286683 0.283414
O O10 0.810721 0.244989 0.162876
O O11 0.949022 0.221522 0.947386
O O12 0.442953 0.823764 0.769875
O O13 0.816549 0.589563 0.498166
O O14 0.707346 0.655758 0.760222
O O15 0.683244 0.203343 0.354781
O O16 0.250000 0.250000 0.500000
#
# Coordination Sequence:
#
# PCOD9301873 Si02
#       8
#     8   8   8   4   8   8   8   8
#     4  12  25  36  54  85 132 171 207 243 302 378
#     4  11  23  38  62  92 120 164 200 263 320 369
#     4  11  23  43  61  89 124 170 213 246 320 375
#     4  12  24  40  68  82 130 174 220 256 292 400
#     4  12  22  39  61  93 125 150 211 257 320 364
#     4  11  21  40  58  83 130 165 201 253 307 380
#     4  12  24  37  56  95 126 168 210 249 310 373
#     4  11  22  37  62  91 123 156 207 270 309 365
#
# _framework density 19.635866
#
# number of rings (size 3 to 8) (size 9 to 14) (size 15 to 20)
#    0.000    0.533    6.000    3.600    5.600    0.000 
#    0.000    0.000    0.000    0.800    1.733    0.000 
#    0.000    0.000    0.000    0.000    0.000    0.000 
#
# Total GULP energy -167139.415841 kJ/mol
# GULP energy per Si atom -5571.313861 kJ/mol
# Density = 1.959117 g / cm^3
# Si number density = 19.635866 Si / 1000 Ang^3
#
#
#
# Elastic Constant Matrix: (Units=GPa)
#
#
# Indices 1 2 3 4 5 6 
#
# 1 17.7740 2.3166 18.5052 0.0000 7.0885 0.0000
# 2 2.3166 45.3832 5.3354 0.0000 -10.1662 0.0000
# 3 18.5052 5.3354 100.2865 0.0000 8.7153 0.0000
# 4 0.0000 0.0000 0.0000 75.2051 0.0000 20.2699
# 5 7.0885 -10.1662 8.7153 0.0000 37.8119 0.0000
# 6 0.0000 0.0000 0.0000 20.2699 0.0000 24.9281
#
#
#
# Elastic Compliance Matrix: (Units=1/GPa)
#
#
# Indices 1 2 3 4 5 6 
#
# 1 0.074916 -0.005174 -0.012457 0.000000 -0.012564 0.000000
# 2 -0.005174 0.024139 -0.000998 0.000000 0.007690 0.000000
# 3 -0.012457 -0.000998 0.012392 0.000000 -0.000789 0.000000
# 4 0.000000 0.000000 0.000000 0.017029 0.000000 -0.013847
# 5 -0.012564 0.007690 -0.000789 0.000000 0.031051 0.000000
# 6 0.000000 0.000000 0.000000 -0.013847 0.000000 0.051375
#
#
# Mechanical properties :
#
#
# Convention : Reuss Voigt Hill
#
# Bulk Modulus (GPa) = 13.47902 23.97312 18.72607
# Shear Modulus (GPa) = 18.32248 36.74145 27.53196
#
# Velocity S-wave (km/s) = 3.05800 4.33036 3.74856
# Velocity P-wave (km/s) = 4.39863 6.10230 5.31911
#
# Compressibility (1/GPa) = 0.07418935
#
# Stress axis : x y z
#
# Youngs Moduli (GPa) = 13.34823 41.42746 80.69949
#
# Poissons Ratio (x) = 0.21435 1.00525
# Poissons Ratio (y) = 0.06907 0.08052
# Poissons Ratio (z) = 0.16627 0.04133
#
# Static dielectric constant tensor:
#      x y z
#    x 1.970790 0.000000 -0.024920 
#    y 0.000000 2.005350 0.000000 
#    z -0.024920 0.000000 1.133830 
# 
# From -- ./inp_files/49105.got.cif
#   From: 2010.05.17/outbox.cif.g08.bks.cpg/sg15_25_cif.got.tgz:49105.got - 2010.06.03 18:47:42.
