data_PCOD9301800
_publ_section_title
;
Structure prediction by ZEFSAII (Michael W. Deem and Ramdas Pophale) SiO2 
 PCOD9301800
Probable space group: C 2/C
;
_chemical_formula_sum "Si O2"
_cell_formula_units_Z 56
_cell_length_a 11.555373
_cell_length_b 24.672578
_cell_length_c 12.453321
_cell_angle_alpha 90.000000
_cell_angle_beta 132.379149
_cell_angle_gamma 90.000000
_cell_volume 2622.721538
_symmetry_space_group_name_H-M "C 2/C"
_symmetry_group_IT_number 15
_symmetry_cell_setting 'monoclinic'
loop_
_space_group_symop_operation_xyz
x,y,z
-x,y,1/2-z
-x,-y,-z
x,-y,1/2+z
1/2+x,1/2+y,z
1/2-x,1/2+y,1/2-z
1/2-x,1/2-y,-z
1/2+x,1/2-y,1/2+z
loop_
_atom_site_type_symbol
_atom_site_label
_atom_site_fract_x
_atom_site_fract_y
_atom_site_fract_z
Si Si1 0.248158 0.639457 0.249231
Si Si2 0.513954 0.563510 0.482033
Si Si3 0.500000 0.106334 0.250000
Si Si4 0.609991 0.097915 0.951264
Si Si5 0.000000 0.983804 0.750000
Si Si6 0.779985 0.638343 0.700257
Si Si7 0.319124 0.251026 0.663558
Si Si8 0.359916 0.983645 0.500884
O O1 0.368905 0.604230 0.394546
O O2 0.105036 0.644447 0.240815
O O3 0.301690 0.694049 0.222426
O O4 0.196197 0.601953 0.117313
O O5 0.500000 0.500000 0.500000
O O6 0.537318 0.556823 0.370140
O O7 0.645264 0.594635 0.630386
O O8 0.591500 0.066773 0.393075
O O9 0.433066 0.117985 0.857326
O O10 0.680313 0.134493 0.902062
O O11 0.624103 0.037365 0.916481
O O12 0.171744 0.015766 0.847430
O O13 0.749905 0.701870 0.692372
O O14 0.500000 0.241550 0.750000
O O15 0.250000 0.250000 0.500000
O O16 0.500000 0.000000 0.500000
#
# Coordination Sequence:
#
# PCOD9301800 Si02
#       8
#     8   8   4   8   4   8   8   8
#     4  12  25  42  67  98 138 189 235 294 360 436
#     4  12  25  40  63 100 142 182 225 289 363 433
#     4  12  26  46  62  95 145 192 234 276 366 446
#     4  11  21  39  64  99 130 177 227 288 361 419
#     4  12  24  38  60  93 137 176 230 284 340 420
#     4  11  22  39  66  99 136 171 229 302 362 415
#     4  12  23  41  71 103 134 172 240 313 363 412
#     4  12  24  41  67  97 140 188 232 284 354 441
#
# _framework density 21.351866000000001
#
# number of rings (size 3 to 8) (size 9 to 14) (size 15 to 20)
#    0.000    0.286    7.143    2.571    5.000    0.000 
#    0.000    0.000    0.000    8.571    0.000    0.000 
#    0.000    0.000    0.000    0.000    0.000    0.000 
#
# Total GULP energy -155900.242054 kJ/mol
# GULP energy per Si atom -5567.865788 kJ/mol
# Density = 2.130327 g / cm^3
# Si number density = 21.351866 Si / 1000 Ang^3
#
#
#
# Elastic Constant Matrix: (Units=GPa)
#
#
# Indices 1 2 3 4 5 6 
#
# 1 78.0741 15.4673 20.6517 0.0000 6.4352 0.0000
# 2 15.4673 145.4300 26.4216 0.0000 16.1705 0.0000
# 3 20.6517 26.4216 79.3843 0.0000 27.5794 0.0000
# 4 0.0000 0.0000 0.0000 21.1497 0.0000 -4.0939
# 5 6.4352 16.1705 27.5794 0.0000 34.1422 0.0000
# 6 0.0000 0.0000 0.0000 -4.0939 0.0000 36.8268
#
#
#
# Elastic Compliance Matrix: (Units=1/GPa)
#
#
# Indices 1 2 3 4 5 6 
#
# 1 0.013869 -0.000907 -0.003541 0.000000 0.000676 0.000000
# 2 -0.000907 0.007486 -0.001506 0.000000 -0.002158 0.000000
# 3 -0.003541 -0.001506 0.018822 0.000000 -0.013823 0.000000
# 4 0.000000 0.000000 0.000000 0.048322 0.000000 0.005372
# 5 0.000676 -0.002158 -0.013823 0.000000 0.041350 0.000000
# 6 0.000000 0.000000 0.000000 0.005372 0.000000 0.027751
#
#
# Mechanical properties :
#
#
# Convention : Reuss Voigt Hill
#
# Bulk Modulus (GPa) = 35.37382 47.55218 41.46300
# Shear Modulus (GPa) = 27.94379 34.44693 31.19536
#
# Velocity S-wave (km/s) = 3.62156 4.02095 3.82647
# Velocity P-wave (km/s) = 5.83872 6.62393 6.24368
#
# Compressibility (1/GPa) = 0.02826949
#
# Stress axis : x y z
#
# Youngs Moduli (GPa) = 72.10361 133.57940 53.13004
#
# Poissons Ratio (x) = 0.12114 0.18813
# Poissons Ratio (y) = 0.06539 0.08001
# Poissons Ratio (z) = 0.25531 0.20116
#
# Static dielectric constant tensor:
#      x y z
#    x 1.970990 0.000000 0.134080 
#    y 0.000000 2.681830 0.000000 
#    z 0.134080 0.000000 1.700990 
# 
# From -- ./inp_files/92123.got.cif
#   From: 2010.05.17/outbox.cif.g08.bks.cpg/sg15_47_cif.got.tgz:92123.got - 2010.06.03 18:47:42.
