data_PCOD9301775
_publ_section_title
;
Structure prediction by ZEFSAII (Michael W. Deem and Ramdas Pophale) SiO2 
 PCOD9301775
Probable space group: C 2/C
;
_chemical_formula_sum "Si O2"
_cell_formula_units_Z 60
_cell_length_a 23.132141
_cell_length_b 13.679022
_cell_length_c 11.615090
_cell_angle_alpha 90.000000
_cell_angle_beta 123.532210
_cell_angle_gamma 90.000000
_cell_volume 3063.644377
_symmetry_space_group_name_H-M "C 2/C"
_symmetry_group_IT_number 15
_symmetry_cell_setting 'monoclinic'
loop_
_space_group_symop_operation_xyz
x,y,z
-x,y,1/2-z
-x,-y,-z
x,-y,1/2+z
1/2+x,1/2+y,z
1/2-x,1/2+y,1/2-z
1/2-x,1/2-y,-z
1/2+x,1/2-y,1/2+z
loop_
_atom_site_type_symbol
_atom_site_label
_atom_site_fract_x
_atom_site_fract_y
_atom_site_fract_z
Si Si1 0.631014 0.625974 0.754184
Si Si2 0.900349 0.193395 0.455033
Si Si3 0.300399 0.176610 0.486264
Si Si4 0.887551 0.034000 0.000191
Si Si5 0.261617 0.201467 0.180141
Si Si6 0.740643 0.487550 0.519586
Si Si7 0.425517 0.299973 0.708239
Si Si8 0.500000 0.295885 0.250000
O O1 0.598544 0.596282 0.597331
O O2 0.685662 0.714076 0.799154
O O3 0.680544 0.542178 0.862233
O O4 0.565075 0.650314 0.760447
O O5 0.821663 0.222679 0.406045
O O6 0.911491 0.201232 0.329876
O O7 0.957948 0.249977 0.594908
O O8 0.907873 0.077466 0.495008
O O9 0.250000 0.250000 0.500000
O O10 0.280321 0.173929 0.331083
O O11 0.372996 0.227000 0.588339
O O12 0.291340 0.068249 0.526362
O O13 0.917334 0.091785 0.142514
O O14 0.804365 0.034059 0.926511
O O15 0.271821 0.111277 0.104396
O O16 0.500000 0.266492 0.750000
#
# Coordination Sequence:
#
# PCOD9301775 Si02
#       8
#     8   8   8   8   8   8   8   4
#     4  12  23  40  64  95 131 170 209 260 324 381
#     4  11  25  40  60  95 133 168 215 257 318 393
#     4  12  22  42  66  93 128 167 223 264 307 380
#     4  11  21  39  62  93 127 169 209 259 315 381
#     4  11  22  42  67  94 124 169 220 260 314 378
#     4  11  22  39  64  96 126 165 216 267 312 368
#     4  12  25  41  64  94 132 175 208 266 327 379
#     4  12  26  40  56  96 142 164 202 260 324 400
#
# _framework density 19.584519
#
# number of rings (size 3 to 8) (size 9 to 14) (size 15 to 20)
#    0.000    0.533    6.667    3.600    0.933    1.067 
#    0.000    0.000    1.467    0.800    0.000    0.000 
#    0.000    0.000    0.000    0.000    0.000    0.000 
#
# Total GULP energy -167392.156021 kJ/mol
# GULP energy per Si atom -5579.738534 kJ/mol
# Density = 1.953994 g / cm^3
# Si number density = 19.584519 Si / 1000 Ang^3
#
#
#
# Elastic Constant Matrix: (Units=GPa)
#
#
# Indices 1 2 3 4 5 6 
#
# 1 98.0930 33.2040 28.2808 0.0000 9.8912 0.0000
# 2 33.2040 34.9221 15.9483 0.0000 5.6422 0.0000
# 3 28.2808 15.9483 110.4805 0.0000 -4.6338 0.0000
# 4 0.0000 0.0000 0.0000 16.3841 0.0000 -1.9322
# 5 9.8912 5.6422 -4.6338 0.0000 43.5986 0.0000
# 6 0.0000 0.0000 0.0000 -1.9322 0.0000 13.6543
#
#
#
# Elastic Compliance Matrix: (Units=1/GPa)
#
#
# Indices 1 2 3 4 5 6 
#
# 1 0.015588 -0.013527 -0.002122 0.000000 -0.002011 0.000000
# 2 -0.013527 0.043282 -0.002904 0.000000 -0.002841 0.000000
# 3 -0.002122 -0.002904 0.010095 0.000000 0.001930 0.000000
# 4 0.000000 0.000000 0.000000 0.062071 0.000000 0.008783
# 5 -0.002011 -0.002841 0.001930 0.000000 0.023966 0.000000
# 6 0.000000 0.000000 0.000000 0.008783 0.000000 0.074480
#
#
# Mechanical properties :
#
#
# Convention : Reuss Voigt Hill
#
# Bulk Modulus (GPa) = 31.38924 44.26243 37.82583
# Shear Modulus (GPa) = 18.03711 25.79823 21.91767
#
# Velocity S-wave (km/s) = 3.03807 3.63337 3.34897
# Velocity P-wave (km/s) = 5.32624 6.34442 5.85749
#
# Compressibility (1/GPa) = 0.03185805
#
# Stress axis : x y z
#
# Youngs Moduli (GPa) = 64.15308 23.10435 99.06140
#
# Poissons Ratio (x) = 0.31253 0.21019
# Poissons Ratio (y) = 0.86779 0.28772
# Poissons Ratio (z) = 0.13612 0.06711
#
# Static dielectric constant tensor:
#      x y z
#    x 1.830760 0.000000 0.033090 
#    y 0.000000 1.736320 0.000000 
#    z 0.033090 0.000000 1.781180 
# 
# From -- ./inp_files/112764.got.cif
#   From: 2010.05.17/outbox.cif.g08.bks.cpg/sg15_57_cif.got.tgz:112764.got - 2010.06.03 18:47:42.
