data_PCOD9301318
_publ_section_title
;
Structure prediction by ZEFSAII (Michael W. Deem and Ramdas Pophale) SiO2 
 PCOD9301318
Probable space group: C 2/C
;
_chemical_formula_sum "Si O2"
_cell_formula_units_Z 48
_cell_length_a 17.605714
_cell_length_b 13.475382
_cell_length_c 15.288591
_cell_angle_alpha 90.000000
_cell_angle_beta 147.715885
_cell_angle_gamma 90.000000
_cell_volume 1937.311210
_symmetry_space_group_name_H-M "C 2/C"
_symmetry_group_IT_number 15
_symmetry_cell_setting 'monoclinic'
loop_
_space_group_symop_operation_xyz
x,y,z
-x,y,1/2-z
-x,-y,-z
x,-y,1/2+z
1/2+x,1/2+y,z
1/2-x,1/2+y,1/2-z
1/2-x,1/2-y,-z
1/2+x,1/2-y,1/2+z
loop_
_atom_site_type_symbol
_atom_site_label
_atom_site_fract_x
_atom_site_fract_y
_atom_site_fract_z
Si Si1 0.469689 0.395805 0.099321
Si Si2 0.354495 0.144099 0.487549
Si Si3 0.221958 0.453937 0.761957
Si Si4 0.732744 0.534499 0.941552
Si Si5 0.033804 0.670125 0.415021
Si Si6 0.839999 0.323966 0.266276
O O1 0.359152 0.434210 0.064541
O O2 0.615024 0.455362 0.249595
O O3 0.502863 0.281123 0.149341
O O4 0.379561 0.409339 0.923606
O O5 0.345807 0.063838 0.399335
O O6 0.263365 0.238013 0.367632
O O7 0.517159 0.175170 0.652484
O O8 0.290267 0.077783 0.502289
O O9 0.227145 0.566953 0.797039
O O10 0.109099 0.392803 0.710794
O O11 0.858740 0.611344 0.043110
O O12 0.108917 0.686102 0.582867
#
# Coordination Sequence:
#
# PCOD9301318 Si02
#       6
#     8   8   8   8   8   8
#     4  11  25  38  65  94 126 177 214 256 327 388
#     4  11  23  42  67  95 130 169 215 272 316 382
#     4  11  22  41  65  98 131 166 217 265 325 380
#     4  11  24  43  59  93 139 164 210 275 317 376
#     4  11  20  41  64  97 133 164 209 270 325 378
#     4  11  23  39  67 100 127 169 214 266 327 374
#
# _framework density 24.776606000000001
#
# number of rings (size 3 to 8) (size 9 to 14) (size 15 to 20)
#    0.000    1.000    5.000    2.500    4.667    2.667 
#    0.000    0.833    0.000    0.000    0.000    0.000 
#    0.000    0.000    0.000    0.000    0.000    0.000 
#
# Total GULP energy -134471.264856 kJ/mol
# GULP energy per Si atom -5602.969369 kJ/mol
# Density = 2.472021 g / cm^3
# Si number density = 24.776606 Si / 1000 Ang^3
#
#
#
# Elastic Constant Matrix: (Units=GPa)
#
#
# Indices 1 2 3 4 5 6 
#
# 1 62.3551 24.3960 -2.3243 0.0000 11.7931 0.0000
# 2 24.3960 180.3630 22.1523 0.0000 19.4896 0.0000
# 3 -2.3243 22.1523 86.0591 0.0001 16.2443 0.0000
# 4 0.0000 0.0000 0.0001 39.5185 0.0000 7.1438
# 5 11.7931 19.4896 16.2443 0.0000 37.1004 0.0000
# 6 0.0000 0.0000 0.0000 7.1438 0.0000 24.5685
#
#
#
# Elastic Compliance Matrix: (Units=1/GPa)
#
#
# Indices 1 2 3 4 5 6 
#
# 1 0.017975 -0.002088 0.002065 0.000000 -0.005521 0.000000
# 2 -0.002088 0.006203 -0.001268 0.000000 -0.002039 0.000000
# 3 0.002065 -0.001268 0.013081 0.000000 -0.005718 0.000000
# 4 0.000000 0.000000 0.000000 0.026708 0.000000 -0.007766
# 5 -0.005521 -0.002039 -0.005718 0.000000 0.032284 0.000000
# 6 0.000000 0.000000 0.000000 -0.007766 0.000000 0.042961
#
#
# Mechanical properties :
#
#
# Convention : Reuss Voigt Hill
#
# Bulk Modulus (GPa) = 28.83750 46.35838 37.59794
# Shear Modulus (GPa) = 32.60419 39.20771 35.90595
#
# Velocity S-wave (km/s) = 3.63151 3.98232 3.81095
# Velocity P-wave (km/s) = 5.40815 6.31635 5.87981
#
# Compressibility (1/GPa) = 0.03467707
#
# Stress axis : x y z
#
# Youngs Moduli (GPa) = 55.63155 161.21259 76.44422
#
# Poissons Ratio (x) = 0.33668 -0.15787
# Poissons Ratio (y) = 0.11618 0.09694
# Poissons Ratio (z) = -0.11489 0.20444
#
# Static dielectric constant tensor:
#      x y z
#    x 2.073150 0.000000 -0.109130 
#    y 0.000000 1.912040 0.000000 
#    z -0.109130 0.000000 1.972730 
# 
# From -- ./inp_files/252520.got.cif
#   From: 2010.05.17/outbox.cif.g08.bks.cpg/sg15_127_cif.got.tgz:252520.got - 2010.06.03 18:47:42.
