data_PCOD9301097
_publ_section_title
;
Structure prediction by ZEFSAII (Michael W. Deem and Ramdas Pophale) SiO2 
 PCOD9301097
Probable space group: C 2/C
;
_chemical_formula_sum "Si O2"
_cell_formula_units_Z 60
_cell_length_a 11.534121
_cell_length_b 20.373452
_cell_length_c 17.886437
_cell_angle_alpha 90.000000
_cell_angle_beta 134.786992
_cell_angle_gamma 90.000000
_cell_volume 2983.091316
_symmetry_space_group_name_H-M "C 2/C"
_symmetry_group_IT_number 15
_symmetry_cell_setting 'monoclinic'
loop_
_space_group_symop_operation_xyz
x,y,z
-x,y,1/2-z
-x,-y,-z
x,-y,1/2+z
1/2+x,1/2+y,z
1/2-x,1/2+y,1/2-z
1/2-x,1/2-y,-z
1/2+x,1/2-y,1/2+z
loop_
_atom_site_type_symbol
_atom_site_label
_atom_site_fract_x
_atom_site_fract_y
_atom_site_fract_z
Si Si1 0.008708 0.426808 0.973126
Si Si2 0.679600 0.854864 0.188322
Si Si3 0.775499 0.772238 0.426572
Si Si4 0.138492 0.798253 0.620718
Si Si5 0.987227 0.202746 0.655076
Si Si6 0.347942 0.164349 0.073460
Si Si7 0.171593 0.858149 0.793241
Si Si8 0.500000 0.870382 0.250000
O O1 0.117177 0.387361 0.083525
O O2 0.082605 0.404408 0.925679
O O3 0.000000 0.500000 0.000000
O O4 0.821938 0.403496 0.883210
O O5 0.650557 0.776118 0.159894
O O6 0.583917 0.893791 0.210758
O O7 0.869498 0.848576 0.298499
O O8 0.750000 0.750000 0.500000
O O9 0.720524 0.711702 0.351167
O O10 0.648023 0.828322 0.350641
O O11 0.960968 0.795993 0.501163
O O12 0.274251 0.822177 0.622683
O O13 0.144666 0.846870 0.693304
O O14 0.809380 0.179404 0.549220
O O15 0.985763 0.278659 0.625729
O O16 0.000000 0.206161 0.750000
O O17 0.000000 0.879960 0.750000
#
# Coordination Sequence:
#
# PCOD9301097 Si02
#       8
#     8   8   8   8   8   8   8   4
#     4  12  28  48  66  88 128 190 242 280 329 411
#     4  12  21  39  63  96 136 165 214 270 342 406
#     4  12  18  33  58 100 143 167 204 258 347 417
#     4  12  22  34  66 106 135 167 209 287 354 410
#     4  11  20  37  65 104 136 165 204 279 363 406
#     4  11  24  39  65  98 139 171 217 282 344 419
#     4  12  23  41  65  98 137 177 222 274 346 413
#     4  12  22  32  60  94 134 172 196 260 338 416
#
# _framework density 20.113363
#
# number of rings (size 3 to 8) (size 9 to 14) (size 15 to 20)
#    0.000    0.267    8.667    2.400    0.000    0.000 
#    2.400    1.333    0.000    0.800    0.000    0.000 
#    0.000    0.000    0.000    0.000    0.000    0.000 
#
# Total GULP energy -167251.047046 kJ/mol
# GULP energy per Si atom -5575.034902 kJ/mol
# Density = 2.006758 g / cm^3
# Si number density = 20.113363 Si / 1000 Ang^3
#
#
#
# Elastic Constant Matrix: (Units=GPa)
#
#
# Indices 1 2 3 4 5 6 
#
# 1 128.4199 19.5232 22.8113 0.0000 -6.9545 0.0000
# 2 19.5232 59.3094 7.9349 0.0000 3.2548 0.0000
# 3 22.8113 7.9349 92.9337 0.0000 2.7257 0.0000
# 4 0.0000 0.0000 0.0000 191.1045 0.0000 26.9540
# 5 -6.9545 3.2548 2.7257 0.0000 43.0990 0.0000
# 6 0.0000 0.0000 0.0000 26.9540 0.0000 20.2368
#
#
#
# Elastic Compliance Matrix: (Units=1/GPa)
#
#
# Indices 1 2 3 4 5 6 
#
# 1 0.008631 -0.002676 -0.001941 0.000000 0.001718 0.000000
# 2 -0.002676 0.017947 -0.000825 0.000000 -0.001735 0.000000
# 3 -0.001941 -0.000825 0.011335 0.000000 -0.000968 0.000000
# 4 0.000000 0.000000 0.000000 0.006443 0.000000 -0.008582
# 5 0.001718 -0.001735 -0.000968 0.000000 0.023672 0.000000
# 6 0.000000 0.000000 0.000000 -0.008582 0.000000 0.060845
#
#
# Mechanical properties :
#
#
# Convention : Reuss Voigt Hill
#
# Bulk Modulus (GPa) = 36.99344 42.35575 39.67459
# Shear Modulus (GPa) = 33.60961 66.24767 49.92864
#
# Velocity S-wave (km/s) = 4.09223 5.74531 4.98774
# Velocity P-wave (km/s) = 6.38442 8.06943 7.27587
#
# Compressibility (1/GPa) = 0.02703182
#
# Stress axis : x y z
#
# Youngs Moduli (GPa) = 115.85500 55.71926 88.21860
#
# Poissons Ratio (x) = 0.14910 0.17119
# Poissons Ratio (y) = 0.31002 0.07275
# Poissons Ratio (z) = 0.22482 0.04595
#
# Static dielectric constant tensor:
#      x y z
#    x 1.869440 0.000000 0.004400 
#    y 0.000000 1.691310 0.000000 
#    z 0.004400 0.000000 1.749120 
# 
# From -- ./inp_files/245602.got.cif
#   From: 2010.05.17/outbox.cif.g08.bks.cpg/sg15_123_cif.got.tgz:245602.got - 2010.06.03 18:47:42.
