data_PCOD9301634
_publ_section_title
;
Structure prediction by ZEFSAII (Michael W. Deem and Ramdas Pophale) SiO2 
 PCOD9301634
Probable space group: C 2/C
;
_chemical_formula_sum "Si O2"
_cell_formula_units_Z 64
_cell_length_a 15.016343
_cell_length_b 11.544938
_cell_length_c 25.194732
_cell_angle_alpha 90.000000
_cell_angle_beta 41.815426
_cell_angle_gamma 90.000000
_cell_volume 2912.175737
_symmetry_space_group_name_H-M "C 2/C"
_symmetry_group_IT_number 15
_symmetry_cell_setting 'monoclinic'
loop_
_space_group_symop_operation_xyz
x,y,z
-x,y,1/2-z
-x,-y,-z
x,-y,1/2+z
1/2+x,1/2+y,z
1/2-x,1/2+y,1/2-z
1/2-x,1/2-y,-z
1/2+x,1/2-y,1/2+z
loop_
_atom_site_type_symbol
_atom_site_label
_atom_site_fract_x
_atom_site_fract_y
_atom_site_fract_z
Si Si1 0.695481 0.919880 0.264321
Si Si2 0.749277 0.822288 0.781764
Si Si3 0.516691 0.858712 0.960981
Si Si4 0.221358 0.018272 0.888327
Si Si5 0.988816 0.158686 0.052465
Si Si6 0.114246 0.398708 0.099541
Si Si7 0.787765 0.486066 0.551929
Si Si8 0.043800 0.846217 0.654244
O O1 0.745482 0.791333 0.259256
O O2 0.539226 0.918159 0.344725
O O3 0.744062 0.044701 0.263311
O O4 0.724114 0.921664 0.188604
O O5 0.612674 0.800817 0.874917
O O6 0.896626 0.824701 0.744431
O O7 0.624567 0.951630 0.935735
O O8 0.488744 0.782902 0.025356
O O9 0.373738 0.898269 0.000725
O O10 0.148317 0.902972 0.902238
O O11 0.335934 0.006671 0.880891
O O12 0.108620 0.091651 0.969367
O O13 0.012582 0.149326 0.104550
O O14 0.126932 0.273392 0.121989
O O15 0.190083 0.408069 0.010426
O O16 0.631943 0.457852 0.631480
#
# Coordination Sequence:
#
# PCOD9301634 Si02
#       8
#     8   8   8   8   8   8   8   8
#     4  11  23  41  64  97 131 179 215 281 330 405
#     4  11  24  41  66  95 136 172 230 270 342 389
#     4  11  23  41  62  96 132 177 214 276 335 403
#     4  11  22  37  63  94 130 162 220 274 327 389
#     4  11  21  38  65  93 125 169 214 270 334 395
#     4  11  21  37  64  96 124 167 220 275 324 386
#     4  11  22  37  64  92 133 164 219 268 333 387
#     4  11  22  39  67  95 130 171 221 280 324 391
#
# _framework density 21.976693999999998
#
# number of rings (size 3 to 8) (size 9 to 14) (size 15 to 20)
#    0.000    1.000    6.250    1.500    0.000    0.500 
#    0.000    1.875    0.000    0.000    0.000    0.000 
#    0.000    0.000    0.000    0.000    0.000    0.000 
#
# Total GULP energy -178251.754606 kJ/mol
# GULP energy per Si atom -5570.367331 kJ/mol
# Density = 2.192667 g / cm^3
# Si number density = 21.976694 Si / 1000 Ang^3
#
#
#
# Elastic Constant Matrix: (Units=GPa)
#
#
# Indices 1 2 3 4 5 6 
#
# 1 73.3789 36.8499 14.1409 0.0000 -8.1715 0.0000
# 2 36.8499 81.7631 14.9065 0.0000 -14.4560 0.0000
# 3 14.1409 14.9065 77.5608 0.0000 -3.0437 0.0000
# 4 0.0000 0.0000 0.0000 31.1521 0.0000 -7.2264
# 5 -8.1715 -14.4560 -3.0437 0.0000 31.4295 0.0000
# 6 0.0000 0.0000 0.0000 -7.2264 0.0000 30.6035
#
#
#
# Elastic Compliance Matrix: (Units=1/GPa)
#
#
# Indices 1 2 3 4 5 6 
#
# 1 0.017875 -0.007557 -0.001767 0.000000 0.001000 0.000000
# 2 -0.007557 0.016940 -0.001656 0.000000 0.005666 0.000000
# 3 -0.001767 -0.001656 0.013537 0.000000 0.000090 0.000000
# 4 0.000000 0.000000 0.000000 0.033961 0.000000 0.008019
# 5 0.001000 0.005666 0.000090 0.000000 0.034692 0.000000
# 6 0.000000 0.000000 0.000000 0.008019 0.000000 0.034570
#
#
# Mechanical properties :
#
#
# Convention : Reuss Voigt Hill
#
# Bulk Modulus (GPa) = 37.88992 40.49971 39.19481
# Shear Modulus (GPa) = 27.42255 29.75738 28.58996
#
# Velocity S-wave (km/s) = 3.53626 3.68372 3.61074
# Velocity P-wave (km/s) = 5.82682 6.04662 5.93774
#
# Compressibility (1/GPa) = 0.02639225
#
# Stress axis : x y z
#
# Youngs Moduli (GPa) = 55.94437 59.03186 73.87134
#
# Poissons Ratio (x) = 0.44610 0.13055
# Poissons Ratio (y) = 0.42277 0.12230
# Poissons Ratio (z) = 0.09887 0.09773
#
# Static dielectric constant tensor:
#      x y z
#    x 1.800730 0.000000 0.002890 
#    y 0.000000 1.899410 0.000000 
#    z 0.002890 0.000000 1.912880 
# 
# From -- ./inp_files/296124.got.cif
#   From: 2010.05.17/outbox.cif.g08.bks.cpg/sg15_149_cif.got.tgz:296124.got - 2010.06.03 18:47:42.
