data_PCOD9301229
_publ_section_title
;
Structure prediction by ZEFSAII (Michael W. Deem and Ramdas Pophale) SiO2 
 PCOD9301229
Probable space group: C 2/C
;
_chemical_formula_sum "Si O2"
_cell_formula_units_Z 48
_cell_length_a 19.936697
_cell_length_b 11.532464
_cell_length_c 25.645269
_cell_angle_alpha 90.000000
_cell_angle_beta 19.100476
_cell_angle_gamma 90.000000
_cell_volume 1929.434527
_symmetry_space_group_name_H-M "C 2/C"
_symmetry_group_IT_number 15
_symmetry_cell_setting 'monoclinic'
loop_
_space_group_symop_operation_xyz
x,y,z
-x,y,1/2-z
-x,-y,-z
x,-y,1/2+z
1/2+x,1/2+y,z
1/2-x,1/2+y,1/2-z
1/2-x,1/2-y,-z
1/2+x,1/2-y,1/2+z
loop_
_atom_site_type_symbol
_atom_site_label
_atom_site_fract_x
_atom_site_fract_y
_atom_site_fract_z
Si Si1 0.500000 0.200032 0.750000
Si Si2 0.145046 0.854449 0.230760
Si Si3 0.299055 0.204507 0.110812
Si Si4 0.045658 0.483765 0.564101
Si Si5 0.696373 0.327657 0.806281
Si Si6 0.000000 0.689093 0.250000
Si Si7 0.723089 0.499192 0.495123
O O1 0.403647 0.272449 0.774174
O O2 0.684664 0.118972 0.594360
O O3 0.197395 0.782728 0.243344
O O4 0.015923 0.769706 0.288384
O O5 0.016422 0.973009 0.328879
O O6 0.349332 0.886393 0.049357
O O7 0.236275 0.177996 0.215579
O O8 0.455972 0.313342 0.994711
O O9 0.423790 0.102723 0.989531
O O10 0.173277 0.488292 0.523966
O O11 0.813438 0.441273 0.742061
O O12 0.190259 0.603129 0.104546
#
# Coordination Sequence:
#
# PCOD9301229 Si02
#       7
#     4   8   8   8   8   4   8
#     4  11  30  51  72 102 144 197 252 303 356 440
#     4  12  23  41  75 111 150 187 239 303 363 435
#     4  12  30  51  75 103 150 198 248 300 364 440
#     4  12  25  46  75 110 143 195 246 292 369 440
#     4  12  27  48  75 111 148 192 240 307 367 432
#     4  11  20  39  66 110 152 187 236 293 366 428
#     4  11  24  42  74 112 143 191 245 299 361 427
#
# _framework density 24.877752999999998
#
# number of rings (size 3 to 8) (size 9 to 14) (size 15 to 20)
#    0.000    0.333    5.000    3.000    4.667    1.333 
#    0.000    2.500    0.000    0.000    0.000    0.000 
#    0.000    0.000    0.000    0.000    0.000    0.000 
#
# Total GULP energy -134569.067004 kJ/mol
# GULP energy per Si atom -5607.044458 kJ/mol
# Density = 2.482113 g / cm^3
# Si number density = 24.877753 Si / 1000 Ang^3
#
#
#
# Elastic Constant Matrix: (Units=GPa)
#
#
# Indices 1 2 3 4 5 6 
#
# 1 163.6765 32.2479 8.3867 -0.0164 -9.1752 -0.0021
# 2 32.2479 78.9229 -4.1380 0.0287 0.4332 -0.0054
# 3 8.3867 -4.1380 44.1645 0.0236 -6.3171 -0.0152
# 4 -0.0164 0.0287 0.0236 21.8964 -0.0179 1.9750
# 5 -9.1752 0.4332 -6.3171 -0.0179 34.4824 0.0029
# 6 -0.0021 -0.0054 -0.0152 1.9750 0.0029 29.6489
#
#
#
# Elastic Compliance Matrix: (Units=1/GPa)
#
#
# Indices 1 2 3 4 5 6 
#
# 1 0.006834 -0.002871 -0.001337 0.000012 0.001610 -0.000002
# 2 -0.002871 0.013940 0.001763 -0.000023 -0.000616 0.000005
# 3 -0.001337 0.001763 0.023627 -0.000027 0.003951 0.000014
# 4 0.000012 -0.000023 -0.000027 0.045946 0.000023 -0.003061
# 5 0.001610 -0.000616 0.003951 0.000023 0.030160 -0.000002
# 6 -0.000002 0.000005 0.000014 -0.003061 -0.000002 0.033932
#
#
# Mechanical properties :
#
#
# Convention : Reuss Voigt Hill
#
# Bulk Modulus (GPa) = 25.30935 39.97301 32.64118
# Shear Modulus (GPa) = 28.98588 33.89003 31.43795
#
# Velocity S-wave (km/s) = 3.41711 3.69489 3.55871
# Velocity P-wave (km/s) = 5.07586 5.85710 5.48042
#
# Compressibility (1/GPa) = 0.03951110
#
# Stress axis : x y z
#
# Youngs Moduli (GPa) = 146.32638 71.73783 42.32500
#
# Poissons Ratio (x) = 0.20598 0.05657
# Poissons Ratio (y) = 0.42015 -0.07463
# Poissons Ratio (z) = 0.19557 -0.12649
#
# Static dielectric constant tensor:
#      x y z
#    x 1.914450 0.000000 -0.029200 
#    y 0.000000 1.954830 0.000030 
#    z -0.029200 0.000030 2.023240 
# 
# From -- ./inp_files/300933.got.cif
#   From: 2010.05.17/outbox.cif.g08.bks.cpg/sg15_151_cif.got.tgz:300933.got - 2010.06.03 18:47:42.
