data_PCOD9301865
_publ_section_title
;
Structure prediction by ZEFSAII (Michael W. Deem and Ramdas Pophale) SiO2 
 PCOD9301865
Probable space group: C 2/C
;
_chemical_formula_sum "Si O2"
_cell_formula_units_Z 56
_cell_length_a 10.114578
_cell_length_b 18.103769
_cell_length_c 16.598489
_cell_angle_alpha 90.000000
_cell_angle_beta 77.832366
_cell_angle_gamma 90.000000
_cell_volume 2971.102871
_symmetry_space_group_name_H-M "C 2/C"
_symmetry_group_IT_number 15
_symmetry_cell_setting 'monoclinic'
loop_
_space_group_symop_operation_xyz
x,y,z
-x,y,1/2-z
-x,-y,-z
x,-y,1/2+z
1/2+x,1/2+y,z
1/2-x,1/2+y,1/2-z
1/2-x,1/2-y,-z
1/2+x,1/2-y,1/2+z
loop_
_atom_site_type_symbol
_atom_site_label
_atom_site_fract_x
_atom_site_fract_y
_atom_site_fract_z
Si Si1 0.138766 0.101388 0.374159
Si Si2 0.197097 0.664664 0.000882
Si Si3 0.112052 0.930381 0.344790
Si Si4 0.672277 0.638438 0.677557
Si Si5 0.853046 0.697947 0.254171
Si Si6 0.609338 0.804997 0.935744
Si Si7 0.135264 0.853463 0.513147
O O1 0.214846 0.115207 0.449663
O O2 0.226834 0.150917 0.301858
O O3 0.985298 0.125325 0.411428
O O4 0.131554 0.017679 0.345567
O O5 0.041261 0.663524 0.045537
O O6 0.250000 0.750000 0.000000
O O7 0.218020 0.637491 0.906983
O O8 0.202345 0.896906 0.260661
O O9 0.137037 0.900505 0.431140
O O10 0.961065 0.902384 0.340209
O O11 0.642487 0.724742 0.698250
O O12 0.844443 0.713230 0.160587
O O13 0.000000 0.660879 0.250000
O O14 0.606809 0.730086 0.987838
O O15 0.721048 0.856846 0.961558
#
# Coordination Sequence:
#
# PCOD9301865 Si02
#       7
#     8   8   8   8   8   8   8
#     4  12  25  39  68  98 136 163 226 275 328 388
#     4  12  20  40  68 101 119 173 232 270 312 403
#     4  11  23  41  65  98 131 177 212 283 331 397
#     4  11  21  39  72  91 128 173 239 259 323 400
#     4  12  20  40  67  97 125 173 226 276 306 398
#     4  11  23  38  68  98 129 166 221 275 332 378
#     4  11  22  42  62  97 136 167 211 279 335 389
#
# _framework density 18.848219
#
# number of rings (size 3 to 8) (size 9 to 14) (size 15 to 20)
#    0.000    0.571    8.571    0.429    0.000    2.857 
#    0.000    2.857    0.000    0.000    0.000    0.000 
#    0.000    0.000    0.000    0.000    0.000    0.000 
#
# Total GULP energy -156361.711859 kJ/mol
# GULP energy per Si atom -5584.346852 kJ/mol
# Density = 1.880532 g / cm^3
# Si number density = 18.848219 Si / 1000 Ang^3
#
#
#
# Elastic Constant Matrix: (Units=GPa)
#
#
# Indices 1 2 3 4 5 6 
#
# 1 93.0939 42.7572 29.7091 0.0000 -10.9381 0.0000
# 2 42.7572 101.3959 33.4455 0.0000 -14.2428 0.0000
# 3 29.7091 33.4455 115.7488 0.0000 -25.4807 0.0000
# 4 0.0000 0.0000 0.0000 13.6708 0.0000 -5.4214
# 5 -10.9381 -14.2428 -25.4807 0.0000 26.4821 0.0000
# 6 0.0000 0.0000 0.0000 -5.4214 0.0000 11.1562
#
#
#
# Elastic Compliance Matrix: (Units=1/GPa)
#
#
# Indices 1 2 3 4 5 6 
#
# 1 0.013779 -0.005040 -0.001807 0.000000 0.001242 0.000000
# 2 -0.005040 0.013021 -0.001758 0.000000 0.003230 0.000000
# 3 -0.001807 -0.001758 0.011721 0.000000 0.009586 0.000000
# 4 0.000000 0.000000 0.000000 0.090611 0.000000 0.044033
# 5 0.001242 0.003230 0.009586 0.000000 0.049236 0.000000
# 6 0.000000 0.000000 0.000000 0.044033 0.000000 0.111034
#
#
# Mechanical properties :
#
#
# Convention : Reuss Voigt Hill
#
# Bulk Modulus (GPa) = 46.92115 58.00691 52.46403
# Shear Modulus (GPa) = 15.93796 23.88360 19.91078
#
# Velocity S-wave (km/s) = 2.91107 3.56357 3.25372
# Velocity P-wave (km/s) = 6.02058 6.91192 6.48159
#
# Compressibility (1/GPa) = 0.02131235
#
# Stress axis : x y z
#
# Youngs Moduli (GPa) = 72.57277 76.79806 85.31374
#
# Poissons Ratio (x) = 0.38706 0.15416
# Poissons Ratio (y) = 0.36577 0.14996
# Poissons Ratio (z) = 0.13114 0.13499
#
# Static dielectric constant tensor:
#      x y z
#    x 1.647370 0.000000 0.004240 
#    y 0.000000 1.649440 0.000000 
#    z 0.004240 0.000000 1.677800 
# 
# From -- ./inp_files/190917.got.cif
#   From: 2010.05.17/outbox.cif.g08.bks.cpg/sg15_96_cif.got.tgz:190917.got - 2010.06.03 18:47:42.
