data_PCOD9301339
_publ_section_title
;
Structure prediction by ZEFSAII (Michael W. Deem and Ramdas Pophale) SiO2 
 PCOD9301339
Probable space group: C 2/C
;
_chemical_formula_sum "Si O2"
_cell_formula_units_Z 56
_cell_length_a 14.690930
_cell_length_b 19.154743
_cell_length_c 19.720342
_cell_angle_alpha 90.000000
_cell_angle_beta 151.585275
_cell_angle_gamma 90.000000
_cell_volume 2640.647157
_symmetry_space_group_name_H-M "C 2/C"
_symmetry_group_IT_number 15
_symmetry_cell_setting 'monoclinic'
loop_
_space_group_symop_operation_xyz
x,y,z
-x,y,1/2-z
-x,-y,-z
x,-y,1/2+z
1/2+x,1/2+y,z
1/2-x,1/2+y,1/2-z
1/2-x,1/2-y,-z
1/2+x,1/2-y,1/2+z
loop_
_atom_site_type_symbol
_atom_site_label
_atom_site_fract_x
_atom_site_fract_y
_atom_site_fract_z
Si Si1 0.037420 0.217627 0.351430
Si Si2 0.151350 0.668258 0.692280
Si Si3 0.900094 0.844257 0.015835
Si Si4 0.189214 0.931590 0.410986
Si Si5 0.555934 0.991761 0.115160
Si Si6 0.197795 0.876083 0.701672
Si Si7 0.591617 0.194676 0.504598
O O1 0.250000 0.250000 0.500000
O O2 0.000000 0.194047 0.250000
O O3 0.905599 0.284429 0.282164
O O4 0.964620 0.156793 0.355487
O O5 0.376160 0.669188 0.830949
O O6 0.093811 0.587807 0.658174
O O7 0.059188 0.701549 0.563968
O O8 0.842317 0.897057 0.036623
O O9 0.819707 0.765434 0.966804
O O10 0.857701 0.871188 0.913002
O O11 0.368480 0.982956 0.532385
O O12 0.261213 0.868181 0.410424
O O13 0.000000 0.960745 0.250000
O O14 0.734305 0.044355 0.241005
O O15 0.500000 0.000000 0.000000
O O16 0.391578 0.830459 0.841117
#
# Coordination Sequence:
#
# PCOD9301339 Si02
#       7
#     8   8   8   8   8   8   8
#     4  12  25  45  70 103 132 178 242 287 340 419
#     4  12  23  46  70  94 142 186 221 292 355 398
#     4  12  22  41  70 101 139 169 235 287 342 412
#     4  11  23  41  66 106 133 183 234 274 339 427
#     4  11  24  46  69  94 144 189 225 280 350 421
#     4  11  24  43  72 100 135 184 225 287 359 398
#     4  11  20  41  70  97 141 178 220 282 350 405
#
# _framework density 21.206921999999999
#
# number of rings (size 3 to 8) (size 9 to 14) (size 15 to 20)
#    0.000    0.571    7.143    2.143    0.000    2.857 
#    7.714    0.000    0.000    0.000    0.000    0.000 
#    0.000    0.000    0.000    0.000    0.000    0.000 
#
# Total GULP energy -156496.145478 kJ/mol
# GULP energy per Si atom -5589.148053 kJ/mol
# Density = 2.115865 g / cm^3
# Si number density = 21.206922 Si / 1000 Ang^3
#
#
#
# Elastic Constant Matrix: (Units=GPa)
#
#
# Indices 1 2 3 4 5 6 
#
# 1 91.8714 15.6847 17.9571 0.0015 -7.1560 0.0062
# 2 15.6847 95.5483 3.7375 0.0173 0.2025 -0.0012
# 3 17.9571 3.7375 63.6286 -0.0101 -10.4112 0.0591
# 4 0.0015 0.0173 -0.0101 -27.0966 -0.0063 70.6668
# 5 -7.1560 0.2025 -10.4112 -0.0063 42.1673 0.0141
# 6 0.0062 -0.0012 0.0591 70.6668 0.0141 -85.1411
#
#
#
# Elastic Compliance Matrix: (Units=1/GPa)
#
#
# Indices 1 2 3 4 5 6 
#
# 1 0.011892 -0.001836 -0.003039 0.000002 0.001276 0.000001
# 2 -0.001836 0.010775 -0.000182 -0.000005 -0.000408 -0.000005
# 3 -0.003039 -0.000182 0.017195 -0.000021 0.003731 -0.000005
# 4 0.000002 -0.000005 -0.000021 0.031689 -0.000009 0.026302
# 5 0.001276 -0.000408 0.003731 -0.000009 0.024855 -0.000001
# 6 0.000001 -0.000005 -0.000005 0.026302 -0.000001 0.010085
#
#
# Mechanical properties :
#
#
# Convention : Reuss Voigt Hill
#
# Bulk Modulus (GPa) = 33.61532 36.20076 34.90804
# Shear Modulus (GPa) = 39.51917 0.23051 19.87484
#
# Velocity S-wave (km/s) = 4.32151 0.33005 3.06467
# Velocity P-wave (km/s) = 6.38641 4.15362 5.38696
#
# Compressibility (1/GPa) = 0.02974834
#
# Stress axis : x y z
#
# Youngs Moduli (GPa) = 84.09224 92.80526 58.15630
#
# Poissons Ratio (x) = 0.17038 0.17676
# Poissons Ratio (y) = 0.15438 0.01056
# Poissons Ratio (z) = 0.25559 0.01685
#
# Static dielectric constant tensor:
#      x y z
#    x 1.818840 0.000000 -0.029300 
#    y 0.000000 1.877130 -0.000020 
#    z -0.029300 -0.000020 1.837440 
# 
# From -- ./inp_files/206997.got.cif
#   From: 2010.05.17/outbox.cif.g08.bks.cpg/sg15_104_cif.got.tgz:206997.got - 2010.06.03 18:47:42.
