data_PCOD9301646
_publ_section_title
;
Structure prediction by ZEFSAII (Michael W. Deem and Ramdas Pophale) SiO2 
 PCOD9301646
Probable space group: C 2/C
;
_chemical_formula_sum "Si O2"
_cell_formula_units_Z 52
_cell_length_a 16.196588
_cell_length_b 18.480328
_cell_length_c 9.517071
_cell_angle_alpha 90.000000
_cell_angle_beta 65.368261
_cell_angle_gamma 90.000000
_cell_volume 2589.422805
_symmetry_space_group_name_H-M "C 2/C"
_symmetry_group_IT_number 15
_symmetry_cell_setting 'monoclinic'
loop_
_space_group_symop_operation_xyz
x,y,z
-x,y,1/2-z
-x,-y,-z
x,-y,1/2+z
1/2+x,1/2+y,z
1/2-x,1/2+y,1/2-z
1/2-x,1/2-y,-z
1/2+x,1/2-y,1/2+z
loop_
_atom_site_type_symbol
_atom_site_label
_atom_site_fract_x
_atom_site_fract_y
_atom_site_fract_z
Si Si1 0.936870 0.801488 0.080130
Si Si2 0.000000 0.078833 0.750000
Si Si3 0.310092 0.413863 0.779819
Si Si4 0.697288 0.463643 0.024159
Si Si5 0.000000 0.856161 0.750000
Si Si6 0.307306 0.179849 0.522613
Si Si7 0.000000 0.686212 0.250000
Si Si8 0.760170 0.250656 0.322486
O O1 0.980245 0.735110 0.129152
O O2 0.830685 0.789510 0.164378
O O3 0.970899 0.871331 0.139605
O O4 0.961368 0.808065 0.901723
O O5 0.090750 0.038992 0.639300
O O6 0.298238 0.458894 0.646260
O O7 0.415438 0.398847 0.743409
O O8 0.268870 0.334509 0.784150
O O9 0.267716 0.461360 0.935077
O O10 0.745157 0.392069 0.053595
O O11 0.250000 0.250000 0.500000
O O12 0.399014 0.158370 0.368791
O O13 0.329431 0.206700 0.667976
O O14 0.750000 0.250000 0.500000
#
# Coordination Sequence:
#
# PCOD9301646 Si02
#       8
#     8   4   8   8   4   8   4   8
#     4  11  21  37  65  96 129 167 218 283 321 383
#     4  11  21  40  66  92 130 182 218 270 334 400
#     4  12  27  40  60  95 136 179 212 271 335 420
#     4  12  26  42  63  94 141 174 223 267 347 401
#     4  12  23  38  59  97 138 173 216 264 343 402
#     4  12  22  44  69  97 125 175 229 279 323 398
#     4  11  22  38  67  97 126 165 224 282 331 378
#     4  12  24  41  66  98 135 171 227 275 329 394
#
# _framework density 20.081696000000001
#
# number of rings (size 3 to 8) (size 9 to 14) (size 15 to 20)
#    0.000    0.308    7.692    2.308    4.308    1.231 
#    0.000    0.000    0.000    4.615    0.000    0.000 
#    0.000    0.000    0.000    0.000    0.000    0.000 
#
# Total GULP energy -144872.828855 kJ/mol
# GULP energy per Si atom -5572.031879 kJ/mol
# Density = 2.003599 g / cm^3
# Si number density = 20.081696 Si / 1000 Ang^3
#
#
#
# Elastic Constant Matrix: (Units=GPa)
#
#
# Indices 1 2 3 4 5 6 
#
# 1 58.3310 22.3417 29.9324 0.0000 -5.7953 0.0000
# 2 22.3417 66.2845 28.2441 0.0000 -4.5393 0.0000
# 3 29.9324 28.2441 135.2302 0.0000 11.0325 0.0000
# 4 0.0000 0.0000 0.0000 197.9645 0.0000 1.4094
# 5 -5.7953 -4.5393 11.0325 0.0000 40.1278 0.0000
# 6 0.0000 0.0000 0.0000 1.4094 0.0000 8.3379
#
#
#
# Elastic Compliance Matrix: (Units=1/GPa)
#
#
# Indices 1 2 3 4 5 6 
#
# 1 0.021576 -0.005341 -0.003954 0.000000 0.003599 0.000000
# 2 -0.005341 0.018217 -0.002790 0.000000 0.002056 0.000000
# 3 -0.003954 -0.002790 0.009130 0.000000 -0.003397 0.000000
# 4 0.000000 0.000000 0.000000 0.005057 0.000000 -0.000855
# 5 0.003599 0.002056 -0.003397 0.000000 0.026607 0.000000
# 6 0.000000 0.000000 0.000000 -0.000855 0.000000 0.120079
#
#
# Mechanical properties :
#
#
# Convention : Reuss Voigt Hill
#
# Bulk Modulus (GPa) = 40.40098 46.76469 43.58284
# Shear Modulus (GPa) = 21.45137 61.24121 41.34629
#
# Velocity S-wave (km/s) = 3.27189 5.52831 4.54244
# Velocity P-wave (km/s) = 5.86819 8.00546 7.01866
#
# Compressibility (1/GPa) = 0.02475187
#
# Stress axis : x y z
#
# Youngs Moduli (GPa) = 46.34853 54.89520 109.53129
#
# Poissons Ratio (x) = 0.29320 0.43305
# Poissons Ratio (y) = 0.24755 0.30562
# Poissons Ratio (z) = 0.18325 0.15317
#
# Static dielectric constant tensor:
#      x y z
#    x 1.674610 0.000000 -0.107200 
#    y 0.000000 1.698810 0.000000 
#    z -0.107200 0.000000 1.893880 
# 
# From -- ./inp_files/48974.got.cif
#   From: 2010.05.17/outbox.cif.g08.bks.cpg/sg15_25_cif.got.tgz:48974.got - 2010.06.03 18:47:42.
