data_PCOD9301294
_publ_section_title
;
Structure prediction by ZEFSAII (Michael W. Deem and Ramdas Pophale) SiO2 
 PCOD9301294
Probable space group: C 2/C
;
_chemical_formula_sum "Si O2"
_cell_formula_units_Z 48
_cell_length_a 27.381816
_cell_length_b 12.566613
_cell_length_c 12.580837
_cell_angle_alpha 90.000000
_cell_angle_beta 150.943937
_cell_angle_gamma 90.000000
_cell_volume 2102.456409
_symmetry_space_group_name_H-M "C 2/C"
_symmetry_group_IT_number 15
_symmetry_cell_setting 'monoclinic'
loop_
_space_group_symop_operation_xyz
x,y,z
-x,y,1/2-z
-x,-y,-z
x,-y,1/2+z
1/2+x,1/2+y,z
1/2-x,1/2+y,1/2-z
1/2-x,1/2-y,-z
1/2+x,1/2-y,1/2+z
loop_
_atom_site_type_symbol
_atom_site_label
_atom_site_fract_x
_atom_site_fract_y
_atom_site_fract_z
Si Si1 0.356310 0.627555 0.208595
Si Si2 0.298465 0.598401 0.608429
Si Si3 0.279995 0.235829 0.387391
Si Si4 0.137041 0.375584 0.986795
Si Si5 0.127231 0.413832 0.604734
Si Si6 0.538896 0.219376 0.105684
O O1 0.371999 0.502738 0.249416
O O2 0.258490 0.657595 0.093091
O O3 0.446055 0.702403 0.417381
O O4 0.331946 0.664067 0.042681
O O5 0.228776 0.595798 0.580110
O O6 0.224843 0.581838 0.367550
O O7 0.361830 0.706754 0.721771
O O8 0.182541 0.278907 0.140845
O O9 0.351979 0.175287 0.444116
O O10 0.114805 0.476005 0.019253
O O11 0.051308 0.335197 0.743367
O O12 0.039869 0.371436 0.516568
#
# Coordination Sequence:
#
# PCOD9301294 Si02
#       6
#     8   8   8   8   8   8
#     4  11  25  39  65  99 132 169 219 281 335 384
#     4  11  20  40  70  98 128 171 225 274 330 395
#     4  11  22  43  64  88 134 179 218 257 338 414
#     4  11  21  41  70  94 128 185 224 258 330 412
#     4  11  21  41  70  94 128 185 224 258 330 412
#     4  11  24  41  65 104 139 159 219 298 323 372
#
# _framework density 22.830437
#
# number of rings (size 3 to 8) (size 9 to 14) (size 15 to 20)
#    0.000    1.000    6.667    1.500    0.000    1.333 
#    0.000    5.000    0.000    0.000    0.000    0.000 
#    0.000    0.000    0.000    0.000    0.000    0.000 
#
# Total GULP energy -134360.737978 kJ/mol
# GULP energy per Si atom -5598.364082 kJ/mol
# Density = 2.277847 g / cm^3
# Si number density = 22.830437 Si / 1000 Ang^3
#
#
#
# Elastic Constant Matrix: (Units=GPa)
#
#
# Indices 1 2 3 4 5 6 
#
# 1 76.4546 35.8626 28.5365 0.0000 -20.4028 0.0000
# 2 35.8626 110.8220 6.6793 0.0000 -7.5014 0.0000
# 3 28.5365 6.6793 66.1202 0.0000 -3.3736 0.0000
# 4 0.0000 0.0000 0.0000 40.0504 0.0000 0.4957
# 5 -20.4028 -7.5014 -3.3736 0.0000 31.5196 0.0000
# 6 0.0000 0.0000 0.0000 0.4957 0.0000 38.8749
#
#
#
# Elastic Compliance Matrix: (Units=1/GPa)
#
#
# Indices 1 2 3 4 5 6 
#
# 1 0.022162 -0.005852 -0.008359 0.000000 0.012058 0.000000
# 2 -0.005852 0.010761 0.001383 0.000000 -0.001079 0.000000
# 3 -0.008359 0.001383 0.018433 0.000000 -0.003108 0.000000
# 4 0.000000 0.000000 0.000000 0.024972 0.000000 -0.000318
# 5 0.012058 -0.001079 -0.003108 0.000000 0.038942 0.000000
# 6 0.000000 0.000000 0.000000 -0.000318 0.000000 0.025728
#
#
# Mechanical properties :
#
#
# Convention : Reuss Voigt Hill
#
# Bulk Modulus (GPa) = 38.90698 43.95041 41.42869
# Shear Modulus (GPa) = 28.53559 34.24356 31.38958
#
# Velocity S-wave (km/s) = 3.53922 3.87707 3.71199
# Velocity P-wave (km/s) = 5.81207 6.27174 6.04628
#
# Compressibility (1/GPa) = 0.02570233
#
# Stress axis : x y z
#
# Youngs Moduli (GPa) = 45.12157 92.93029 54.25043
#
# Poissons Ratio (x) = 0.54381 0.45345
# Poissons Ratio (y) = 0.26404 -0.07506
# Poissons Ratio (z) = 0.37715 -0.12857
#
# Static dielectric constant tensor:
#      x y z
#    x 1.850350 0.000000 0.018940 
#    y 0.000000 1.816930 0.000000 
#    z 0.018940 0.000000 1.865460 
# 
# From -- ./inp_files/123607.got.cif
#   From: 2010.05.17/outbox.cif.g08.bks.cpg/sg15_62_cif.got.tgz:123607.got - 2010.06.03 18:47:42.
