data_PCOD9301831
_publ_section_title
;
Structure prediction by ZEFSAII (Michael W. Deem and Ramdas Pophale) SiO2 
 PCOD9301831
Probable space group: C 2/C
;
_chemical_formula_sum "Si O2"
_cell_formula_units_Z 52
_cell_length_a 17.080757
_cell_length_b 16.460483
_cell_length_c 9.573364
_cell_angle_alpha 90.000000
_cell_angle_beta 109.581138
_cell_angle_gamma 90.000000
_cell_volume 2535.960787
_symmetry_space_group_name_H-M "C 2/C"
_symmetry_group_IT_number 15
_symmetry_cell_setting 'monoclinic'
loop_
_space_group_symop_operation_xyz
x,y,z
-x,y,1/2-z
-x,-y,-z
x,-y,1/2+z
1/2+x,1/2+y,z
1/2-x,1/2+y,1/2-z
1/2-x,1/2-y,-z
1/2+x,1/2-y,1/2+z
loop_
_atom_site_type_symbol
_atom_site_label
_atom_site_fract_x
_atom_site_fract_y
_atom_site_fract_z
Si Si1 0.792508 0.824411 0.736079
Si Si2 0.500000 0.848547 0.750000
Si Si3 0.451001 0.530251 0.598752
Si Si4 0.220459 0.835397 0.309880
Si Si5 0.789430 0.065168 0.964238
Si Si6 0.418533 0.708922 0.546618
Si Si7 0.679295 0.078801 0.387046
O O1 0.749183 0.737067 0.725394
O O2 0.797385 0.865347 0.587188
O O3 0.738404 0.885401 0.800402
O O4 0.877833 0.805313 0.870653
O O5 0.476872 0.785904 0.609913
O O6 0.415860 0.901196 0.708979
O O7 0.500000 0.487969 0.750000
O O8 0.500000 0.500000 0.500000
O O9 0.355983 0.504657 0.541935
O O10 0.464125 0.625637 0.603399
O O11 0.191203 0.902829 0.180691
O O12 0.155058 0.795253 0.379480
O O13 0.291755 0.874328 0.452796
O O14 0.702218 0.016449 0.914996
#
# Coordination Sequence:
#
# PCOD9301831 Si02
#       7
#     8   4   8   8   8   8   8
#     4  11  21  42  65  93 123 176 219 268 329 396
#     4  12  22  42  68 100 120 172 242 272 294 386
#     4  12  24  36  60  98 132 163 200 267 342 398
#     4  11  21  42  65  94 122 181 218 270 329 402
#     4  12  25  40  62  98 140 168 208 276 350 391
#     4  11  21  39  67  89 127 161 224 268 324 393
#     4  11  23  40  71  92 128 176 231 266 320 397
#
# _framework density 20.505049
#
# number of rings (size 3 to 8) (size 9 to 14) (size 15 to 20)
#    0.000    0.615    6.923    4.154    0.000    0.000 
#    0.000    3.077    0.000    1.846    0.000    0.000 
#    0.000    0.000    0.000    0.000    0.000    0.000 
#
# Total GULP energy -144967.547800 kJ/mol
# GULP energy per Si atom -5575.674915 kJ/mol
# Density = 2.045838 g / cm^3
# Si number density = 20.505049 Si / 1000 Ang^3
#
#
#
# Elastic Constant Matrix: (Units=GPa)
#
#
# Indices 1 2 3 4 5 6 
#
# 1 57.9791 8.6410 38.5297 0.0000 18.9921 0.0000
# 2 8.6410 57.8864 20.7779 0.0000 7.3543 0.0000
# 3 38.5297 20.7779 131.3177 0.0000 5.5105 0.0000
# 4 0.0000 0.0000 0.0000 30.3275 0.0000 10.1185
# 5 18.9921 7.3543 5.5105 0.0000 32.2195 0.0000
# 6 0.0000 0.0000 0.0000 10.1185 0.0000 12.5564
#
#
#
# Elastic Compliance Matrix: (Units=1/GPa)
#
#
# Indices 1 2 3 4 5 6 
#
# 1 0.026868 0.000492 -0.007345 0.000000 -0.014694 0.000000
# 2 0.000492 0.018776 -0.002944 0.000000 -0.004072 0.000000
# 3 -0.007345 -0.002944 0.010099 0.000000 0.003274 0.000000
# 4 0.000000 0.000000 0.000000 0.045099 0.000000 -0.036343
# 5 -0.014694 -0.004072 0.003274 0.000000 0.040068 0.000000
# 6 0.000000 0.000000 0.000000 -0.036343 0.000000 0.108927
#
#
# Mechanical properties :
#
#
# Convention : Reuss Voigt Hill
#
# Bulk Modulus (GPa) = 27.66292 42.56448 35.11370
# Shear Modulus (GPa) = 17.76324 26.96965 22.36645
#
# Velocity S-wave (km/s) = 2.94647 3.63060 3.30628
# Velocity P-wave (km/s) = 5.00955 6.19501 5.63355
#
# Compressibility (1/GPa) = 0.03614947
#
# Stress axis : x y z
#
# Youngs Moduli (GPa) = 37.21844 53.25952 99.02359
#
# Poissons Ratio (x) = -0.02622 0.72730
# Poissons Ratio (y) = -0.01833 0.29157
# Poissons Ratio (z) = 0.27336 0.15682
#
# Static dielectric constant tensor:
#      x y z
#    x 1.748680 0.000000 0.046720 
#    y 0.000000 1.755490 0.000000 
#    z 0.046720 0.000000 1.743530 
# 
# From -- ./inp_files/48671.got.cif
#   From: 2010.05.17/outbox.cif.g08.bks.cpg/sg15_25_cif.got.tgz:48671.got - 2010.06.03 18:47:42.
