data_PCOD9301701
_publ_section_title
;
Structure prediction by ZEFSAII (Michael W. Deem and Ramdas Pophale) SiO2 
 PCOD9301701
Probable space group: C 2/C
;
_chemical_formula_sum "Si O2"
_cell_formula_units_Z 44
_cell_length_a 9.319899
_cell_length_b 20.356777
_cell_length_c 16.633886
_cell_angle_alpha 90.000000
_cell_angle_beta 42.203877
_cell_angle_gamma 90.000000
_cell_volume 2119.995863
_symmetry_space_group_name_H-M "C 2/C"
_symmetry_group_IT_number 15
_symmetry_cell_setting 'monoclinic'
loop_
_space_group_symop_operation_xyz
x,y,z
-x,y,1/2-z
-x,-y,-z
x,-y,1/2+z
1/2+x,1/2+y,z
1/2-x,1/2+y,1/2-z
1/2-x,1/2-y,-z
1/2+x,1/2-y,1/2+z
loop_
_atom_site_type_symbol
_atom_site_label
_atom_site_fract_x
_atom_site_fract_y
_atom_site_fract_z
Si Si1 0.247628 0.120579 0.631085
Si Si2 0.272136 0.998002 0.737498
Si Si3 0.355572 0.573719 0.546258
Si Si4 0.724208 0.061495 0.053412
Si Si5 0.820705 0.677620 0.994983
Si Si6 0.000000 0.895182 0.750000
O O1 0.299047 0.052183 0.655943
O O2 0.265239 0.104949 0.529846
O O3 0.431818 0.170460 0.582193
O O4 0.000000 0.138538 0.750000
O O5 0.219409 0.044199 0.836621
O O6 0.481829 0.956132 0.671381
O O7 0.117777 0.943604 0.763310
O O8 0.606550 0.589989 0.452636
O O9 0.319124 0.512036 0.502438
O O10 0.222540 0.632521 0.565462
O O11 0.750000 0.750000 0.000000
O O12 0.670713 0.648084 0.128575
#
# Coordination Sequence:
#
# PCOD9301701 Si02
#       6
#     8   8   8   8   8   4
#     4  12  23  42  69 103 138 182 232 290 364 416
#     4  12  21  36  72 107 141 169 222 309 372 404
#     4  11  23  38  64 105 136 178 229 289 358 406
#     4  11  21  38  63 106 139 168 223 306 364 406
#     4  12  29  49  69  97 147 201 241 272 334 439
#     4  12  24  46  72 106 142 182 230 298 364 414
#
# _framework density 20.754756
#
# number of rings (size 3 to 8) (size 9 to 14) (size 15 to 20)
#    0.000    0.364    6.364    4.364    0.000    1.455 
#    0.000    2.727    0.000    0.000    0.000    0.000 
#    0.000    0.000    0.000    0.000    0.000    0.000 
#
# Total GULP energy -122806.929237 kJ/mol
# GULP energy per Si atom -5582.133147 kJ/mol
# Density = 2.070752 g / cm^3
# Si number density = 20.754756 Si / 1000 Ang^3
#
#
#
# Elastic Constant Matrix: (Units=GPa)
#
#
# Indices 1 2 3 4 5 6 
#
# 1 190.1000 58.9690 67.9393 0.0000 -28.8465 0.0000
# 2 58.9690 90.0244 19.2528 0.0001 2.0065 0.0000
# 3 67.9393 19.2528 100.2907 -0.0001 -10.8352 0.0002
# 4 0.0000 0.0001 -0.0001 16.9067 0.0000 1.2666
# 5 -28.8465 2.0065 -10.8352 0.0000 40.3976 -0.0001
# 6 0.0000 0.0000 0.0002 1.2666 -0.0001 23.2194
#
#
#
# Elastic Compliance Matrix: (Units=1/GPa)
#
#
# Indices 1 2 3 4 5 6 
#
# 1 0.009499 -0.005326 -0.004790 0.000000 0.005763 0.000000
# 2 -0.005326 0.014628 0.000320 0.000000 -0.004444 0.000000
# 3 -0.004790 0.000320 0.013164 0.000000 0.000095 0.000000
# 4 0.000000 0.000000 0.000000 0.059391 0.000000 -0.003240
# 5 0.005763 -0.004444 0.000095 0.000000 0.029115 0.000000
# 6 0.000000 0.000000 0.000000 -0.003240 0.000000 0.043244
#
#
# Mechanical properties :
#
#
# Convention : Reuss Voigt Hill
#
# Bulk Modulus (GPa) = 56.50043 74.74859 65.62451
# Shear Modulus (GPa) = 25.70268 31.72168 28.71218
#
# Velocity S-wave (km/s) = 3.52291 3.91372 3.72345
# Velocity P-wave (km/s) = 6.62041 7.51773 7.08330
#
# Compressibility (1/GPa) = 0.01769898
#
# Stress axis : x y z
#
# Youngs Moduli (GPa) = 105.27714 68.36432 75.96207
#
# Poissons Ratio (x) = 0.36412 0.36383
# Poissons Ratio (y) = 0.56072 -0.02430
# Poissons Ratio (z) = 0.50424 -0.02187
#
# Static dielectric constant tensor:
#      x y z
#    x 1.777010 0.000000 -0.048240 
#    y 0.000000 1.685900 0.000000 
#    z -0.048240 0.000000 1.952330 
# 
# From -- ./inp_files/190783.got.cif
#   From: 2010.05.17/outbox.cif.g08.bks.cpg/sg15_96_cif.got.tgz:190783.got - 2010.06.03 18:47:42.
