data_PCOD9301123
_publ_section_title
;
Structure prediction by ZEFSAII (Michael W. Deem and Ramdas Pophale) SiO2 
 PCOD9301123
Probable space group: C 2/C
;
_chemical_formula_sum "Si O2"
_cell_formula_units_Z 64
_cell_length_a 17.866062
_cell_length_b 17.935399
_cell_length_c 19.329565
_cell_angle_alpha 90.000000
_cell_angle_beta 31.027220
_cell_angle_gamma 90.000000
_cell_volume 3192.599875
_symmetry_space_group_name_H-M "C 2/C"
_symmetry_group_IT_number 15
_symmetry_cell_setting 'monoclinic'
loop_
_space_group_symop_operation_xyz
x,y,z
-x,y,1/2-z
-x,-y,-z
x,-y,1/2+z
1/2+x,1/2+y,z
1/2-x,1/2+y,1/2-z
1/2-x,1/2-y,-z
1/2+x,1/2-y,1/2+z
loop_
_atom_site_type_symbol
_atom_site_label
_atom_site_fract_x
_atom_site_fract_y
_atom_site_fract_z
Si Si1 0.844774 0.970422 0.704679
Si Si2 0.420808 0.123993 0.115034
Si Si3 0.257355 0.641371 0.105783
Si Si4 0.337385 0.581812 0.582406
Si Si5 0.794145 0.552816 0.570008
Si Si6 0.849051 0.797233 0.330898
Si Si7 0.170016 0.495224 0.102863
Si Si8 0.934963 0.204518 0.601288
O O1 0.715944 0.910908 0.816171
O O2 0.001291 0.933466 0.574662
O O3 0.813839 0.017390 0.659113
O O4 0.831216 0.027079 0.778911
O O5 0.363555 0.129138 0.239464
O O6 0.457284 0.208674 0.064660
O O7 0.557386 0.068777 0.006236
O O8 0.214322 0.716595 0.100329
O O9 0.258506 0.567183 0.060320
O O10 0.412403 0.660251 0.016656
O O11 0.226707 0.571072 0.606858
O O12 0.337010 0.659371 0.624472
O O13 0.755924 0.634272 0.570824
O O14 0.808767 0.494580 0.496153
O O15 0.872396 0.796961 0.228909
O O16 0.000000 0.808543 0.250000
O O17 0.000000 0.507958 0.250000
#
# Coordination Sequence:
#
# PCOD9301123 Si02
#       8
#     8   8   8   8   8   8   8   8
#     4  11  22  40  63  91 122 165 210 276 312 376
#     4  11  22  39  62  91 128 162 212 264 320 376
#     4  11  20  38  57  85 128 170 208 235 320 386
#     4  11  22  42  66  86 126 175 219 250 319 386
#     4  12  24  37  57  93 127 161 211 266 319 369
#     4  11  24  33  54  90 131 164 202 248 304 388
#     4  12  24  39  62  91 126 175 209 260 320 383
#     4  11  22  39  62  91 120 174 210 256 311 384
#
# _framework density 20.046358000000001
#
# number of rings (size 3 to 8) (size 9 to 14) (size 15 to 20)
#    0.000    0.750    6.250    2.250    3.500    1.000 
#    0.000    0.000    0.000    0.750    0.000    0.000 
#    0.000    0.000    0.000    0.000    0.000    0.000 
#
# Total GULP energy -178871.205821 kJ/mol
# GULP energy per Si atom -5589.725182 kJ/mol
# Density = 2.000073 g / cm^3
# Si number density = 20.046358 Si / 1000 Ang^3
#
#
#
# Elastic Constant Matrix: (Units=GPa)
#
#
# Indices 1 2 3 4 5 6 
#
# 1 68.0986 43.8766 13.8716 -0.0009 -4.3145 -0.0003
# 2 43.8766 66.1198 7.3920 -0.0022 -1.0748 0.0007
# 3 13.8716 7.3920 37.4983 -0.0052 2.9348 0.0013
# 4 -0.0009 -0.0022 -0.0052 27.6657 0.0022 -9.6021
# 5 -4.3145 -1.0748 2.9348 0.0022 32.7550 -0.0005
# 6 -0.0003 0.0007 0.0013 -9.6021 -0.0005 21.2518
#
#
#
# Elastic Compliance Matrix: (Units=1/GPa)
#
#
# Indices 1 2 3 4 5 6 
#
# 1 0.027618 -0.017478 -0.007061 -0.000002 0.003697 0.000001
# 2 -0.017478 0.026546 0.001354 0.000002 -0.001552 0.000000
# 3 -0.007061 0.001354 0.029288 0.000006 -0.003510 0.000001
# 4 -0.000002 0.000002 0.000006 0.042868 -0.000003 0.019369
# 5 0.003697 -0.001552 -0.003510 -0.000003 0.031280 0.000000
# 6 0.000001 0.000000 0.000001 0.019369 0.000000 0.055806
#
#
# Mechanical properties :
#
#
# Convention : Reuss Voigt Hill
#
# Bulk Modulus (GPa) = 26.96678 33.55521 30.26100
# Shear Modulus (GPa) = 18.37319 23.43959 20.90639
#
# Velocity S-wave (km/s) = 3.03072 3.42317 3.23290
# Velocity P-wave (km/s) = 5.07232 5.69203 5.39109
#
# Compressibility (1/GPa) = 0.03708266
#
# Stress axis : x y z
#
# Youngs Moduli (GPa) = 36.20806 37.67107 34.14420
#
# Poissons Ratio (x) = 0.65841 0.24108
# Poissons Ratio (y) = 0.63284 -0.04623
# Poissons Ratio (z) = 0.25565 -0.05101
#
# Static dielectric constant tensor:
#      x y z
#    x 1.741560 0.000000 0.000280 
#    y 0.000000 1.727670 0.000000 
#    z 0.000280 0.000000 1.735330 
# 
# From -- ./inp_files/249621.got.cif
#   From: 2010.05.17/outbox.cif.g08.bks.cpg/sg15_125_cif.got.tgz:249621.got - 2010.06.03 18:47:42.
