data_PCOD9301798
_publ_section_title
;
Structure prediction by ZEFSAII (Michael W. Deem and Ramdas Pophale) SiO2 
 PCOD9301798
Probable space group: C 2/C
;
_chemical_formula_sum "Si O2"
_cell_formula_units_Z 52
_cell_length_a 15.206975
_cell_length_b 15.359408
_cell_length_c 18.319044
_cell_angle_alpha 90.000000
_cell_angle_beta 33.977718
_cell_angle_gamma 90.000000
_cell_volume 2391.284585
_symmetry_space_group_name_H-M "C 2/C"
_symmetry_group_IT_number 15
_symmetry_cell_setting 'monoclinic'
loop_
_space_group_symop_operation_xyz
x,y,z
-x,y,1/2-z
-x,-y,-z
x,-y,1/2+z
1/2+x,1/2+y,z
1/2-x,1/2+y,1/2-z
1/2-x,1/2-y,-z
1/2+x,1/2-y,1/2+z
loop_
_atom_site_type_symbol
_atom_site_label
_atom_site_fract_x
_atom_site_fract_y
_atom_site_fract_z
Si Si1 0.000000 0.494299 0.750000
Si Si2 0.089472 0.074873 0.361082
Si Si3 0.834142 0.934400 0.536323
Si Si4 0.167219 0.614636 0.519814
Si Si5 0.169855 0.827786 0.103165
Si Si6 0.316685 0.025970 0.607829
Si Si7 0.531712 0.720311 0.143802
O O1 0.852480 0.438746 0.827608
O O2 0.936371 0.554622 0.857396
O O3 0.111334 0.111215 0.427394
O O4 0.094790 0.155649 0.302681
O O5 0.212052 0.999269 0.251079
O O6 0.920824 0.027173 0.478651
O O7 0.870722 0.896509 0.432528
O O8 0.231815 0.548803 0.416182
O O9 0.309569 0.663404 0.461523
O O10 0.056684 0.696052 0.575578
O O11 0.271018 0.882598 0.096361
O O12 0.000000 0.797920 0.250000
O O13 0.250000 0.750000 0.000000
O O14 0.500000 0.000000 0.500000
O O15 0.500000 0.746062 0.250000
#
# Coordination Sequence:
#
# PCOD9301798 Si02
#       7
#     4   8   8   8   8   8   8
#     4  12  20  38  64  94 132 170 232 282 348 422
#     4  11  23  43  70  98 136 183 231 293 356 439
#     4  11  25  43  69 100 134 182 236 291 363 435
#     4  11  23  36  64 100 135 176 219 283 349 430
#     4  12  28  50  78 106 147 201 258 316 382 460
#     4  12  25  46  72 106 140 187 247 304 369 447
#     4  11  21  39  64  97 134 175 224 274 350 425
#
# _framework density 21.745633999999999
#
# number of rings (size 3 to 8) (size 9 to 14) (size 15 to 20)
#    0.000    0.615    6.923    0.923    1.077    1.231 
#    0.000    0.000    0.000    0.000    0.000    0.000 
#    0.000    0.000    0.000    0.000    0.000    0.000 
#
# Total GULP energy -144809.124431 kJ/mol
# GULP energy per Si atom -5569.581709 kJ/mol
# Density = 2.169614 g / cm^3
# Si number density = 21.745634 Si / 1000 Ang^3
#
#
#
# Elastic Constant Matrix: (Units=GPa)
#
#
# Indices 1 2 3 4 5 6 
#
# 1 61.2957 19.1084 7.9357 -0.0002 -1.3175 0.0000
# 2 19.1084 58.4929 -3.7462 0.0000 -0.6956 -0.0001
# 3 7.9357 -3.7462 84.7533 0.0005 1.5119 -0.0007
# 4 -0.0002 0.0000 0.0005 13.5450 0.0002 12.6408
# 5 -1.3175 -0.6956 1.5119 0.0002 30.7112 0.0001
# 6 0.0000 -0.0001 -0.0007 12.6408 0.0001 -0.8847
#
#
#
# Elastic Compliance Matrix: (Units=1/GPa)
#
#
# Indices 1 2 3 4 5 6 
#
# 1 0.018515 -0.006169 -0.002020 0.000000 0.000754 0.000000
# 2 -0.006169 0.019204 0.001425 0.000000 0.000100 0.000000
# 3 -0.002020 0.001425 0.012063 0.000001 -0.000648 -0.000001
# 4 0.000000 0.000000 0.000001 0.005150 0.000000 0.073590
# 5 0.000754 0.000100 -0.000648 0.000000 0.032628 0.000000
# 6 0.000000 0.000000 -0.000001 0.073590 0.000000 -0.078853
#
#
# Mechanical properties :
#
#
# Convention : Reuss Voigt Hill
#
# Bulk Modulus (GPa) = 27.58353 27.90420 27.74387
# Shear Modulus (GPa) = 145.69270 20.75723 83.22496
#
# Velocity S-wave (km/s) = 8.19415 3.09293 6.19315
# Velocity P-wave (km/s) = 10.11126 5.06111 7.99539
#
# Compressibility (1/GPa) = 0.03625352
#
# Stress axis : x y z
#
# Youngs Moduli (GPa) = 54.00980 52.07304 82.90086
#
# Poissons Ratio (x) = 0.32123 0.16744
# Poissons Ratio (y) = 0.33318 -0.11810
# Poissons Ratio (z) = 0.10909 -0.07419
#
# Static dielectric constant tensor:
#      x y z
#    x 1.793030 0.000000 -0.012210 
#    y 0.000000 1.849460 0.000000 
#    z -0.012210 0.000000 1.865960 
# 
# From -- ./inp_files/205656.got.cif
#   From: 2010.05.17/outbox.cif.g08.bks.cpg/sg15_103_cif.got.tgz:205656.got - 2010.06.03 18:47:42.
