data_PCOD9301995
_publ_section_title
;
Structure prediction by ZEFSAII (Michael W. Deem and Ramdas Pophale) SiO2 
 PCOD9301995
Probable space group: C 2/C
;
_chemical_formula_sum "Si O2"
_cell_formula_units_Z 64
_cell_length_a 25.356552
_cell_length_b 15.293830
_cell_length_c 11.326907
_cell_angle_alpha 90.000000
_cell_angle_beta 135.949216
_cell_angle_gamma 90.000000
_cell_volume 3054.128626
_symmetry_space_group_name_H-M "C 2/C"
_symmetry_group_IT_number 15
_symmetry_cell_setting 'monoclinic'
loop_
_space_group_symop_operation_xyz
x,y,z
-x,y,1/2-z
-x,-y,-z
x,-y,1/2+z
1/2+x,1/2+y,z
1/2-x,1/2+y,1/2-z
1/2-x,1/2-y,-z
1/2+x,1/2-y,1/2+z
loop_
_atom_site_type_symbol
_atom_site_label
_atom_site_fract_x
_atom_site_fract_y
_atom_site_fract_z
Si Si1 0.377192 0.943105 0.333730
Si Si2 0.792329 0.973517 0.377180
Si Si3 0.648313 0.284036 0.063148
Si Si4 0.441581 0.473312 0.249158
Si Si5 0.764253 0.633566 0.346538
Si Si6 0.633729 0.259190 0.758211
Si Si7 0.514865 0.643659 0.482709
Si Si8 0.918052 0.531292 0.646135
O O1 0.374702 0.839410 0.302464
O O2 0.417775 0.990952 0.286810
O O3 0.289291 0.972313 0.192768
O O4 0.407633 0.965214 0.516005
O O5 0.861529 0.996591 0.572685
O O6 0.786714 0.052864 0.276550
O O7 0.810162 0.877349 0.356179
O O8 0.701913 0.204711 0.191132
O O9 0.633156 0.268521 0.899277
O O10 0.567267 0.291122 0.994186
O O11 0.500000 0.433283 0.250000
O O12 0.484967 0.560705 0.360787
O O13 0.433533 0.401923 0.336710
O O14 0.710659 0.692420 0.342330
O O15 0.841778 0.588986 0.515975
O O16 0.560465 0.310342 0.592594
O O17 0.000000 0.574046 0.750000
#
# Coordination Sequence:
#
# PCOD9301995 Si02
#       8
#     8   8   8   8   8   8   8   8
#     4  11  25  44  73 100 133 186 234 290 349 411
#     4  11  23  43  67  96 142 176 226 285 348 413
#     4  12  22  40  65 103 130 171 235 279 337 402
#     4  11  21  41  63  97 134 175 215 269 357 416
#     4  11  25  41  69 100 132 177 229 289 342 407
#     4  12  22  42  69 100 132 174 233 284 335 414
#     4  11  25  36  67 100 131 171 221 285 336 412
#     4  11  25  46  70  99 135 180 236 288 348 412
#
# _framework density 20.955241000000001
#
# number of rings (size 3 to 8) (size 9 to 14) (size 15 to 20)
#    0.000    0.750    5.000    2.625    3.500    1.000 
#    0.000    2.500    0.000    0.000    0.000    0.000 
#    0.000    0.000    0.000    0.000    0.000    0.000 
#
# Total GULP energy -178468.593816 kJ/mol
# GULP energy per Si atom -5577.143557 kJ/mol
# Density = 2.090755 g / cm^3
# Si number density = 20.955241 Si / 1000 Ang^3
#
#
#
# Elastic Constant Matrix: (Units=GPa)
#
#
# Indices 1 2 3 4 5 6 
#
# 1 81.4377 3.8117 8.2049 0.0000 0.9840 0.0000
# 2 3.8117 96.9201 21.2418 0.0000 -21.4252 0.0000
# 3 8.2049 21.2418 42.8311 0.0000 -3.1942 0.0000
# 4 0.0000 0.0000 0.0000 18.1990 0.0000 5.8699
# 5 0.9840 -21.4252 -3.1942 0.0000 29.6545 0.0000
# 6 0.0000 0.0000 0.0000 5.8699 0.0000 10.8754
#
#
#
# Elastic Compliance Matrix: (Units=1/GPa)
#
#
# Indices 1 2 3 4 5 6 
#
# 1 0.012536 -0.000141 -0.002389 0.000000 -0.000775 0.000000
# 2 -0.000141 0.013700 -0.006078 0.000000 0.009248 0.000000
# 3 -0.002389 -0.006078 0.026712 0.000000 -0.001434 0.000000
# 4 0.000000 0.000000 0.000000 0.066530 0.000000 -0.035909
# 5 -0.000775 0.009248 -0.001434 0.000000 0.040275 0.000000
# 6 0.000000 0.000000 0.000000 -0.035909 0.000000 0.111332
#
#
# Mechanical properties :
#
#
# Convention : Reuss Voigt Hill
#
# Bulk Modulus (GPa) = 27.98563 31.96729 29.97646
# Shear Modulus (GPa) = 16.65493 24.27446 20.46470
#
# Velocity S-wave (km/s) = 2.82225 3.40721 3.12844
# Velocity P-wave (km/s) = 4.89940 5.54680 5.23312
#
# Compressibility (1/GPa) = 0.03573263
#
# Stress axis : x y z
#
# Youngs Moduli (GPa) = 79.77014 72.99433 37.43569
#
# Poissons Ratio (x) = 0.01027 0.08945
# Poissons Ratio (y) = 0.01122 0.22752
# Poissons Ratio (z) = 0.19061 0.44363
#
# Static dielectric constant tensor:
#      x y z
#    x 1.800980 0.000000 -0.058960 
#    y 0.000000 1.795590 0.000000 
#    z -0.058960 0.000000 1.804270 
# 
# From -- ./inp_files/123550.got.cif
#   From: 2010.05.17/outbox.cif.g08.bks.cpg/sg15_62_cif.got.tgz:123550.got - 2010.06.03 18:47:42.
