data_PCOD9301242
_publ_section_title
;
Structure prediction by ZEFSAII (Michael W. Deem and Ramdas Pophale) SiO2 
 PCOD9301242
Probable space group: C 2/C
;
_chemical_formula_sum "Si O2"
_cell_formula_units_Z 44
_cell_length_a 17.503180
_cell_length_b 11.414627
_cell_length_c 9.387521
_cell_angle_alpha 90.000000
_cell_angle_beta 109.817705
_cell_angle_gamma 90.000000
_cell_volume 1764.476416
_symmetry_space_group_name_H-M "C 2/C"
_symmetry_group_IT_number 15
_symmetry_cell_setting 'monoclinic'
loop_
_space_group_symop_operation_xyz
x,y,z
-x,y,1/2-z
-x,-y,-z
x,-y,1/2+z
1/2+x,1/2+y,z
1/2-x,1/2+y,1/2-z
1/2-x,1/2-y,-z
1/2+x,1/2-y,1/2+z
loop_
_atom_site_type_symbol
_atom_site_label
_atom_site_fract_x
_atom_site_fract_y
_atom_site_fract_z
Si Si1 0.588783 0.016155 0.484765
Si Si2 0.204699 0.669992 0.153885
Si Si3 0.235112 0.385253 0.985990
Si Si4 0.367521 0.564324 0.167358
Si Si5 0.500000 0.199093 0.250000
Si Si6 0.586647 0.371417 0.092385
O O1 0.671721 0.086031 0.573389
O O2 0.565980 0.105405 0.343116
O O3 0.500000 0.000000 0.500000
O O4 0.634035 0.890081 0.509542
O O5 0.208063 0.598098 0.304484
O O6 0.296671 0.658269 0.157189
O O7 0.172165 0.800720 0.157638
O O8 0.250000 0.250000 0.000000
O O9 0.314923 0.461270 0.059531
O O10 0.406901 0.496250 0.324654
O O11 0.426847 0.612458 0.083698
O O12 0.526140 0.285023 0.138972
#
# Coordination Sequence:
#
# PCOD9301242 Si02
#       6
#     8   8   8   8   4   8
#     4  11  21  39  67 100 132 181 228 287 347 418
#     4  11  22  40  69 101 133 174 232 292 348 411
#     4  11  20  39  69  99 136 183 226 287 355 404
#     4  11  24  40  67  99 137 175 233 284 343 420
#     4  12  24  44  70  92 144 180 226 288 356 414
#     4  12  24  44  67  97 137 184 229 284 350 418
#
# _framework density 24.936575000000001
#
# number of rings (size 3 to 8) (size 9 to 14) (size 15 to 20)
#    0.000    0.727    7.273    0.545    0.000    0.727 
#    0.000    0.000    0.000    0.000    0.000    0.000 
#    0.000    0.000    0.000    0.000    0.000    0.000 
#
# Total GULP energy -122467.737746 kJ/mol
# GULP energy per Si atom -5566.715352 kJ/mol
# Density = 2.487982 g / cm^3
# Si number density = 24.936575 Si / 1000 Ang^3
#
#
#
# Elastic Constant Matrix: (Units=GPa)
#
#
# Indices 1 2 3 4 5 6 
#
# 1 114.5743 29.3118 42.6649 0.0000 -25.8267 0.0000
# 2 29.3118 83.3165 12.7136 0.0000 -4.7506 0.0000
# 3 42.6649 12.7136 68.4183 0.0000 -21.9995 0.0000
# 4 0.0000 0.0000 0.0000 41.0673 0.0000 2.8201
# 5 -25.8267 -4.7506 -21.9995 0.0000 30.8702 0.0000
# 6 0.0000 0.0000 0.0000 2.8201 0.0000 -19.6270
#
#
#
# Elastic Compliance Matrix: (Units=1/GPa)
#
#
# Indices 1 2 3 4 5 6 
#
# 1 0.013100 -0.003407 -0.005423 0.000000 0.006571 0.000000
# 2 -0.003407 0.013241 -0.000775 0.000000 -0.001365 0.000000
# 3 -0.005423 -0.000775 0.021592 0.000000 0.010731 0.000000
# 4 0.000000 0.000000 0.000000 0.024112 0.000000 0.003465
# 5 0.006571 -0.001365 0.010731 0.000000 0.045328 0.000000
# 6 0.000000 0.000000 0.000000 0.003465 0.000000 -0.050452
#
#
# Mechanical properties :
#
#
# Convention : Reuss Voigt Hill
#
# Bulk Modulus (GPa) = 34.81387 48.40993 41.61190
# Shear Modulus (GPa) = 52.24279 22.57000 37.40640
#
# Velocity S-wave (km/s) = 4.58211 3.01175 3.87726
# Velocity P-wave (km/s) = 6.47963 5.61690 6.06363
#
# Compressibility (1/GPa) = 0.02872419
#
# Stress axis : x y z
#
# Youngs Moduli (GPa) = 76.33514 75.52100 46.31246
#
# Poissons Ratio (x) = 0.25727 0.25117
# Poissons Ratio (y) = 0.26004 0.03589
# Poissons Ratio (z) = 0.41399 0.05853
#
# Static dielectric constant tensor:
#      x y z
#    x 2.354060 0.000000 0.063320 
#    y 0.000000 2.196860 0.000000 
#    z 0.063320 0.000000 2.094410 
# 
# From -- ./inp_files/54476.got.cif
#   From: 2010.05.17/outbox.cif.g08.bks.cpg/sg15_28_cif.got.tgz:54476.got - 2010.06.03 18:47:42.
