data_PCOD9301931
_publ_section_title
;
Structure prediction by ZEFSAII (Michael W. Deem and Ramdas Pophale) SiO2 
 PCOD9301931
Probable space group: C 2/C
;
_chemical_formula_sum "Si O2"
_cell_formula_units_Z 48
_cell_length_a 13.999925
_cell_length_b 12.041241
_cell_length_c 27.424311
_cell_angle_alpha 90.000000
_cell_angle_beta 151.081805
_cell_angle_gamma 90.000000
_cell_volume 2235.544852
_symmetry_space_group_name_H-M "C 2/C"
_symmetry_group_IT_number 15
_symmetry_cell_setting 'monoclinic'
loop_
_space_group_symop_operation_xyz
x,y,z
-x,y,1/2-z
-x,-y,-z
x,-y,1/2+z
1/2+x,1/2+y,z
1/2-x,1/2+y,1/2-z
1/2-x,1/2-y,-z
1/2+x,1/2-y,1/2+z
loop_
_atom_site_type_symbol
_atom_site_label
_atom_site_fract_x
_atom_site_fract_y
_atom_site_fract_z
Si Si1 0.041128 0.090316 0.475893
Si Si2 0.893884 0.602841 0.249272
Si Si3 0.241318 0.972997 0.962861
Si Si4 0.104456 0.756541 0.848716
Si Si5 0.532301 0.659292 0.821272
Si Si6 0.119406 0.407108 0.180502
O O1 0.142837 0.036318 0.473023
O O2 0.191895 0.185601 0.560732
O O3 0.827495 0.138179 0.364723
O O4 0.000000 0.000000 0.500000
O O5 0.027955 0.707699 0.323254
O O6 0.879044 0.514002 0.284455
O O7 0.000000 0.548574 0.250000
O O8 0.139921 0.880679 0.883524
O O9 0.467043 0.935768 0.069708
O O10 0.210505 0.092944 0.925288
O O11 0.000000 0.754604 0.750000
O O12 0.969002 0.694655 0.828138
O O13 0.500000 0.634073 0.750000
O O14 0.337486 0.617639 0.761288
#
# Coordination Sequence:
#
# PCOD9301931 Si02
#       6
#     8   8   8   8   8   8
#     4  11  21  40  68 100 130 167 221 279 324 384
#     4  11  22  41  65  96 131 168 211 268 330 385
#     4  11  23  42  64  95 135 172 217 269 329 393
#     4  11  23  40  68 101 129 170 224 273 328 388
#     4  11  25  42  63  92 135 177 211 266 330 394
#     4  11  22  41  68  92 128 171 222 271 323 383
#
# _framework density 21.471274999999999
#
# number of rings (size 3 to 8) (size 9 to 14) (size 15 to 20)
#    0.000    1.000    1.667    8.000    0.000    1.333 
#    0.000    3.333    0.000    0.000    0.000    0.000 
#    0.000    0.000    0.000    0.000    0.000    0.000 
#
# Total GULP energy -134332.375486 kJ/mol
# GULP energy per Si atom -5597.182312 kJ/mol
# Density = 2.142241 g / cm^3
# Si number density = 21.471275 Si / 1000 Ang^3
#
#
#
# Elastic Constant Matrix: (Units=GPa)
#
#
# Indices 1 2 3 4 5 6 
#
# 1 31.7241 4.1230 -13.9098 0.0003 -5.3019 0.0001
# 2 4.1230 79.6640 8.0537 0.0000 -19.8643 0.0000
# 3 -13.9098 8.0537 57.4337 -0.0005 -2.2772 0.0002
# 4 0.0003 0.0000 -0.0005 26.4024 -0.0001 -14.6879
# 5 -5.3019 -19.8643 -2.2772 -0.0001 19.7826 0.0001
# 6 0.0001 0.0000 0.0002 -14.6879 0.0001 20.6850
#
#
#
# Elastic Compliance Matrix: (Units=1/GPa)
#
#
# Indices 1 2 3 4 5 6 
#
# 1 0.037574 -0.000168 0.009560 -0.000001 0.011002 -0.000001
# 2 -0.000168 0.016911 -0.001748 0.000000 0.016735 0.000000
# 3 0.009560 -0.001748 0.020096 0.000000 0.003120 0.000000
# 4 -0.000001 0.000000 0.000000 0.062606 0.000000 0.044455
# 5 0.011002 0.016735 0.003120 0.000000 0.070661 -0.000001
# 6 -0.000001 0.000000 0.000000 0.044455 -0.000001 0.079911
#
#
# Mechanical properties :
#
#
# Convention : Reuss Voigt Hill
#
# Bulk Modulus (GPa) = 11.12748 18.37284 14.75016
# Shear Modulus (GPa) = 16.53295 24.74433 20.63864
#
# Velocity S-wave (km/s) = 2.77790 3.39844 3.10372
# Velocity P-wave (km/s) = 3.93481 4.89640 4.44170
#
# Compressibility (1/GPa) = 0.08986762
#
# Stress axis : x y z
#
# Youngs Moduli (GPa) = 26.61423 59.13335 49.76233
#
# Poissons Ratio (x) = 0.00992 -0.47572
# Poissons Ratio (y) = 0.00446 0.08701
# Poissons Ratio (z) = -0.25443 0.10339
#
# Static dielectric constant tensor:
#      x y z
#    x 1.768390 0.000000 0.018300 
#    y 0.000000 1.770540 0.000000 
#    z 0.018300 0.000000 1.836490 
# 
# From -- ./inp_files/177729.got.cif
#   From: 2010.05.17/outbox.cif.g08.bks.cpg/sg15_89_cif.got.tgz:177729.got - 2010.06.03 18:47:42.
