data_PCOD9301225
_publ_section_title
;
Structure prediction by ZEFSAII (Michael W. Deem and Ramdas Pophale) SiO2 
 PCOD9301225
Probable space group: C 2/C
;
_chemical_formula_sum "Si O2"
_cell_formula_units_Z 64
_cell_length_a 9.557215
_cell_length_b 28.359053
_cell_length_c 18.435668
_cell_angle_alpha 90.000000
_cell_angle_beta 138.877254
_cell_angle_gamma 90.000000
_cell_volume 3286.191478
_symmetry_space_group_name_H-M "C 2/C"
_symmetry_group_IT_number 15
_symmetry_cell_setting 'monoclinic'
loop_
_space_group_symop_operation_xyz
x,y,z
-x,y,1/2-z
-x,-y,-z
x,-y,1/2+z
1/2+x,1/2+y,z
1/2-x,1/2+y,1/2-z
1/2-x,1/2-y,-z
1/2+x,1/2-y,1/2+z
loop_
_atom_site_type_symbol
_atom_site_label
_atom_site_fract_x
_atom_site_fract_y
_atom_site_fract_z
Si Si1 0.626574 0.708218 0.992383
Si Si2 0.941302 0.727934 0.530786
Si Si3 0.063949 0.379117 0.858422
Si Si4 0.238515 0.464339 0.007187
Si Si5 0.250504 0.354643 0.635474
Si Si6 0.347656 0.315333 0.256284
Si Si7 0.058722 0.562499 0.968965
Si Si8 0.127967 0.926885 0.228970
O O1 0.570448 0.728316 0.048432
O O2 0.758894 0.659916 0.049398
O O3 0.750000 0.750000 0.000000
O O4 0.417741 0.703099 0.861481
O O5 0.750000 0.750000 0.500000
O O6 0.847593 0.694430 0.431302
O O7 0.108428 0.697096 0.641832
O O8 0.870165 0.369692 0.838162
O O9 0.000000 0.372809 0.750000
O O10 0.147396 0.432114 0.906956
O O11 0.208427 0.520228 0.000799
O O12 0.485903 0.450114 0.111548
O O13 0.089661 0.448425 0.018035
O O14 0.500000 0.352084 0.750000
O O15 0.191562 0.392485 0.548759
O O16 0.500000 0.297369 0.250000
O O17 0.393575 0.370772 0.279393
O O18 0.878331 0.566009 0.836330
O O19 0.000000 0.945010 0.250000
#
# Coordination Sequence:
#
# PCOD9301225 Si02
#       8
#     8   8   8   8   8   8   8   8
#     4  12  24  39  65  93 121 168 222 260 315 381
#     4  12  28  41  62  94 131 169 213 269 327 383
#     4  11  24  41  63  94 129 166 213 270 321 383
#     4   9  18  34  59  93 120 152 206 259 313 374
#     4  11  24  42  61  92 133 168 210 263 329 390
#     4  11  20  39  65  89 123 163 216 264 304 372
#     4   9  18  34  61  90 121 156 201 258 318 378
#     4   9  16  31  58  87 118 150 199 263 307 357
#
# _framework density 19.475432000000001
#
# number of rings (size 3 to 8) (size 9 to 14) (size 15 to 20)
#    0.000    1.500    5.000    0.000    5.250    3.500 
#    0.000    0.000    0.000    4.500    0.000    0.000 
#    0.000    0.000    0.000    0.000    0.000    0.000 
#
# Total GULP energy -178316.688200 kJ/mol
# GULP energy per Si atom -5572.396506 kJ/mol
# Density = 1.943111 g / cm^3
# Si number density = 19.475432 Si / 1000 Ang^3
#
#
#
# Elastic Constant Matrix: (Units=GPa)
#
#
# Indices 1 2 3 4 5 6 
#
# 1 45.4572 19.6160 25.2629 0.0000 3.3797 0.0000
# 2 19.6160 69.6540 31.5406 0.0000 5.0579 0.0000
# 3 25.2629 31.5406 143.4622 0.0002 12.5062 0.0000
# 4 0.0000 0.0000 0.0002 28.1597 0.0000 3.2627
# 5 3.3797 5.0579 12.5062 0.0000 26.2021 0.0000
# 6 0.0000 0.0000 0.0000 3.2627 0.0000 18.5101
#
#
#
# Elastic Compliance Matrix: (Units=1/GPa)
#
#
# Indices 1 2 3 4 5 6 
#
# 1 0.026428 -0.005900 -0.003296 0.000000 -0.000697 0.000000
# 2 -0.005900 0.017315 -0.002653 0.000000 -0.001315 0.000000
# 3 -0.003296 -0.002653 0.008402 0.000000 -0.003073 0.000000
# 4 0.000000 0.000000 0.000000 0.036252 0.000000 -0.006390
# 5 -0.000697 -0.001315 -0.003073 0.000000 0.039975 0.000000
# 6 0.000000 0.000000 0.000000 -0.006390 0.000000 0.055151
#
#
# Mechanical properties :
#
#
# Convention : Reuss Voigt Hill
#
# Bulk Modulus (GPa) = 35.15244 45.71247 40.43245
# Shear Modulus (GPa) = 23.07295 26.71797 24.89546
#
# Velocity S-wave (km/s) = 3.44571 3.70791 3.57921
# Velocity P-wave (km/s) = 5.82404 6.46949 6.15523
#
# Compressibility (1/GPa) = 0.02844753
#
# Stress axis : x y z
#
# Youngs Moduli (GPa) = 37.83841 57.75319 119.01787
#
# Poissons Ratio (x) = 0.34072 0.39229
# Poissons Ratio (y) = 0.22323 0.31578
# Poissons Ratio (z) = 0.12472 0.15323
#
# Static dielectric constant tensor:
#      x y z
#    x 1.682040 0.000000 -0.006350 
#    y 0.000000 1.692000 0.000000 
#    z -0.006350 0.000000 1.710960 
# 
# From -- ./inp_files/194270.got.cif
#   From: 2010.05.17/outbox.cif.g08.bks.cpg/sg15_98_cif.got.tgz:194270.got - 2010.06.03 18:47:42.
