data_PCOD9301825
_publ_section_title
;
Structure prediction by ZEFSAII (Michael W. Deem and Ramdas Pophale) SiO2 
 PCOD9301825
Probable space group: C 2/C
;
_chemical_formula_sum "Si O2"
_cell_formula_units_Z 48
_cell_length_a 8.090544
_cell_length_b 20.194629
_cell_length_c 16.333936
_cell_angle_alpha 90.000000
_cell_angle_beta 58.077078
_cell_angle_gamma 90.000000
_cell_volume 2265.110872
_symmetry_space_group_name_H-M "C 2/C"
_symmetry_group_IT_number 15
_symmetry_cell_setting 'monoclinic'
loop_
_space_group_symop_operation_xyz
x,y,z
-x,y,1/2-z
-x,-y,-z
x,-y,1/2+z
1/2+x,1/2+y,z
1/2-x,1/2+y,1/2-z
1/2-x,1/2-y,-z
1/2+x,1/2-y,1/2+z
loop_
_atom_site_type_symbol
_atom_site_label
_atom_site_fract_x
_atom_site_fract_y
_atom_site_fract_z
Si Si1 0.571520 0.078302 0.363211
Si Si2 0.281847 0.447691 0.275509
Si Si3 0.222073 0.368676 0.989896
Si Si4 0.429471 0.190867 0.675003
Si Si5 0.220922 0.992694 0.413484
Si Si6 0.119900 0.163477 0.304289
O O1 0.602886 0.120129 0.437280
O O2 0.696645 0.116694 0.261294
O O3 0.677050 0.007666 0.349932
O O4 0.353931 0.057019 0.396169
O O5 0.500000 0.447336 0.250000
O O6 0.194234 0.374820 0.310207
O O7 0.267036 0.469368 0.183949
O O8 0.451367 0.360130 0.910562
O O9 0.198993 0.432907 0.052542
O O10 0.119410 0.310765 0.067650
O O11 0.500000 0.186311 0.750000
O O12 0.323271 0.261012 0.691561
O O13 0.000000 0.000000 0.500000
O O14 0.000000 0.163966 0.250000
#
# Coordination Sequence:
#
# PCOD9301825 Si02
#       6
#     8   8   8   8   8   8
#     4  11  22  42  65  97 132 167 215 269 331 388
#     4  12  24  41  64  91 131 168 218 270 326 386
#     4  11  21  39  66  99 130 171 218 263 322 395
#     4  11  21  41  65  95 135 174 220 262 323 390
#     4  12  24  38  65  99 128 169 218 275 331 387
#     4   9  21  39  67  98 132 176 213 260 324 401
#
# _framework density 21.191016999999999
#
# number of rings (size 3 to 8) (size 9 to 14) (size 15 to 20)
#    0.000    1.000    3.333    5.000    2.333    0.000 
#    0.000    3.333    0.000    2.000    0.000    0.000 
#    0.000    0.000    0.000    0.000    0.000    0.000 
#
# Total GULP energy -134126.690533 kJ/mol
# GULP energy per Si atom -5588.612106 kJ/mol
# Density = 2.114279 g / cm^3
# Si number density = 21.191017 Si / 1000 Ang^3
#
#
#
# Elastic Constant Matrix: (Units=GPa)
#
#
# Indices 1 2 3 4 5 6 
#
# 1 90.7582 25.4024 44.4654 0.0000 -21.5961 0.0000
# 2 25.4024 116.9626 33.5787 0.0000 -20.6551 0.0000
# 3 44.4654 33.5787 93.2547 0.0000 -5.3426 0.0000
# 4 0.0000 0.0000 0.0000 9.2336 0.0000 -17.4757
# 5 -21.5961 -20.6551 -5.3426 0.0000 43.0800 0.0000
# 6 0.0000 0.0000 0.0000 -17.4757 0.0000 20.1185
#
#
#
# Elastic Compliance Matrix: (Units=1/GPa)
#
#
# Indices 1 2 3 4 5 6 
#
# 1 0.016377 -0.000178 -0.007331 0.000000 0.007215 0.000000
# 2 -0.000178 0.010347 -0.003386 0.000000 0.004452 0.000000
# 3 -0.007331 -0.003386 0.015243 0.000000 -0.003408 0.000000
# 4 0.000000 0.000000 0.000000 -0.168166 0.000000 -0.146076
# 5 0.007215 0.004452 -0.003408 0.000000 0.028541 0.000000
# 6 0.000000 0.000000 0.000000 -0.146076 0.000000 -0.077181
#
#
# Mechanical properties :
#
#
# Convention : Reuss Voigt Hill
#
# Bulk Modulus (GPa) = 49.56272 56.42984 52.99628
# Shear Modulus (GPa) = -34.17053 27.65502 -3.25775
#
# Velocity S-wave (km/s) = -4.01995 3.61645 -1.24124
# Velocity P-wave (km/s) = 1.37573 6.64268 4.79676
#
# Compressibility (1/GPa) = 0.02017646
#
# Stress axis : x y z
#
# Youngs Moduli (GPa) = 61.06191 96.65096 65.60443
#
# Poissons Ratio (x) = 0.01719 0.48097
# Poissons Ratio (y) = 0.01086 0.22212
# Poissons Ratio (z) = 0.44767 0.32723
#
# Static dielectric constant tensor:
#      x y z
#    x 1.626100 0.000000 0.010010 
#    y 0.000000 1.779370 0.000000 
#    z 0.010010 0.000000 1.798480 
# 
# From -- ./inp_files/191965.got.cif
#   From: 2010.05.17/outbox.cif.g08.bks.cpg/sg15_96_cif.got.tgz:191965.got - 2010.06.03 18:47:42.
