data_PCOD9301932
_publ_section_title
;
Structure prediction by ZEFSAII (Michael W. Deem and Ramdas Pophale) SiO2 
 PCOD9301932
Probable space group: C 2/C
;
_chemical_formula_sum "Si O2"
_cell_formula_units_Z 48
_cell_length_a 27.758617
_cell_length_b 12.134260
_cell_length_c 20.773640
_cell_angle_alpha 90.000000
_cell_angle_beta 17.785753
_cell_angle_gamma 90.000000
_cell_volume 2137.351727
_symmetry_space_group_name_H-M "C 2/C"
_symmetry_group_IT_number 15
_symmetry_cell_setting 'monoclinic'
loop_
_space_group_symop_operation_xyz
x,y,z
-x,y,1/2-z
-x,-y,-z
x,-y,1/2+z
1/2+x,1/2+y,z
1/2-x,1/2+y,1/2-z
1/2-x,1/2-y,-z
1/2+x,1/2-y,1/2+z
loop_
_atom_site_type_symbol
_atom_site_label
_atom_site_fract_x
_atom_site_fract_y
_atom_site_fract_z
Si Si1 0.381366 0.032461 0.843069
Si Si2 0.446331 0.584787 0.742902
Si Si3 0.044517 0.682943 0.329322
Si Si4 0.212583 0.574203 0.234981
Si Si5 0.000318 0.292270 0.098935
Si Si6 0.702719 0.178725 0.753234
O O1 0.500000 0.056061 0.750000
O O2 0.454377 0.925219 0.715270
O O3 0.391508 0.139263 0.785096
O O4 0.201095 0.994734 0.083753
O O5 0.500000 0.577232 0.750000
O O6 0.405773 0.710397 0.774164
O O7 0.599921 0.563461 0.504382
O O8 0.159280 0.651376 0.243025
O O9 0.873444 0.699393 0.579977
O O10 0.130685 0.624003 0.402126
O O11 0.160341 0.447882 0.291347
O O12 0.112753 0.200695 0.985833
O O13 0.892313 0.250418 0.178098
#
# Coordination Sequence:
#
# PCOD9301932 Si02
#       6
#     8   8   8   8   8   8
#     4  12  26  42  65  98 142 174 214 283 341 388
#     4  12  24  40  67 105 138 175 217 271 344 405
#     4  11  21  40  68 100 134 171 212 280 336 393
#     4  11  22  44  69  98 136 177 226 274 329 399
#     4  11  23  46  67  98 133 182 227 275 329 396
#     4  11  22  42  74  95 132 177 233 269 325 399
#
# _framework density 22.457697
#
# number of rings (size 3 to 8) (size 9 to 14) (size 15 to 20)
#    0.000    0.667    6.667    2.000    2.333    1.333 
#    0.000    5.833    0.000    0.000    0.000    0.000 
#    0.000    0.000    0.000    0.000    0.000    0.000 
#
# Total GULP energy -134098.694524 kJ/mol
# GULP energy per Si atom -5587.445605 kJ/mol
# Density = 2.240658 g / cm^3
# Si number density = 22.457697 Si / 1000 Ang^3
#
#
#
# Elastic Constant Matrix: (Units=GPa)
#
#
# Indices 1 2 3 4 5 6 
#
# 1 47.5998 -10.3848 -9.4214 -0.0002 -8.1570 0.0001
# 2 -10.3848 41.8840 7.0172 -0.0003 -9.6227 0.0002
# 3 -9.4214 7.0172 66.3274 -0.0004 -4.2005 0.0001
# 4 -0.0002 -0.0003 -0.0004 44.9714 0.0002 -2.1182
# 5 -8.1570 -9.6227 -4.2005 0.0002 21.4599 -0.0001
# 6 0.0001 0.0002 0.0001 -2.1182 -0.0001 12.9808
#
#
#
# Elastic Compliance Matrix: (Units=1/GPa)
#
#
# Indices 1 2 3 4 5 6 
#
# 1 0.026335 0.009338 0.003698 0.000000 0.014921 0.000000
# 2 0.009338 0.030217 -0.000797 0.000000 0.016943 0.000000
# 3 0.003698 -0.000797 0.015950 0.000000 0.004170 0.000000
# 4 0.000000 0.000000 0.000000 0.022409 0.000000 0.003657
# 5 0.014921 0.016943 0.004170 0.000000 0.060683 0.000000
# 6 0.000000 0.000000 0.000000 0.003657 0.000000 0.077633
#
#
# Mechanical properties :
#
#
# Convention : Reuss Voigt Hill
#
# Bulk Modulus (GPa) = 10.31162 14.47035 12.39099
# Shear Modulus (GPa) = 20.74030 27.12244 23.93137
#
# Velocity S-wave (km/s) = 3.04226 3.47899 3.26792
# Velocity P-wave (km/s) = 4.11606 4.75344 4.44619
#
# Compressibility (1/GPa) = 0.09697797
#
# Stress axis : x y z
#
# Youngs Moduli (GPa) = 37.97298 33.09415 62.69426
#
# Poissons Ratio (x) = -0.30903 -0.23182
# Poissons Ratio (y) = -0.35459 0.05000
# Poissons Ratio (z) = -0.14041 0.02639
#
# Static dielectric constant tensor:
#      x y z
#    x 1.901240 0.000000 -0.008780 
#    y 0.000000 1.865510 0.000000 
#    z -0.008780 0.000000 1.881610 
# 
# From -- ./inp_files/257587.got.cif
#   From: 2010.05.17/outbox.cif.g08.bks.cpg/sg15_129_cif.got.tgz:257587.got - 2010.06.03 18:47:42.
