data_PCOD9301902
_publ_section_title
;
Structure prediction by ZEFSAII (Michael W. Deem and Ramdas Pophale) SiO2 
 PCOD9301902
Probable space group: C 2/C
;
_chemical_formula_sum "Si O2"
_cell_formula_units_Z 48
_cell_length_a 9.570214
_cell_length_b 18.635016
_cell_length_c 21.078765
_cell_angle_alpha 90.000000
_cell_angle_beta 42.498210
_cell_angle_gamma 90.000000
_cell_volume 2539.598840
_symmetry_space_group_name_H-M "C 2/C"
_symmetry_group_IT_number 15
_symmetry_cell_setting 'monoclinic'
loop_
_space_group_symop_operation_xyz
x,y,z
-x,y,1/2-z
-x,-y,-z
x,-y,1/2+z
1/2+x,1/2+y,z
1/2-x,1/2+y,1/2-z
1/2-x,1/2-y,-z
1/2+x,1/2-y,1/2+z
loop_
_atom_site_type_symbol
_atom_site_label
_atom_site_fract_x
_atom_site_fract_y
_atom_site_fract_z
Si Si1 0.196501 0.575194 0.729457
Si Si2 0.925870 0.074467 0.993003
Si Si3 0.248276 0.167465 0.335059
Si Si4 0.424300 0.557520 0.204414
Si Si5 0.692994 0.955721 0.457100
Si Si6 0.747560 0.335674 0.167035
O O1 0.391527 0.594781 0.618107
O O2 0.244947 0.501404 0.751291
O O3 0.169974 0.632922 0.794147
O O4 0.000000 0.567219 0.750000
O O5 0.717257 0.066459 0.021597
O O6 0.866142 0.129200 0.067926
O O7 0.000000 0.000000 0.000000
O O8 0.500000 0.157679 0.250000
O O9 0.147322 0.128286 0.308066
O O10 0.203338 0.252012 0.354147
O O11 0.500000 0.572407 0.250000
O O12 0.617392 0.511698 0.113271
O O13 0.694343 0.886224 0.411427
O O14 0.500000 0.000000 0.500000
O O15 0.500000 0.342704 0.250000
#
# Coordination Sequence:
#
# PCOD9301902 Si02
#       6
#     8   8   8   8   8   8
#     4  11  22  39  71  92 127 176 217 262 330 395
#     4  11  23  40  65  99 126 161 224 273 319 390
#     4  11  26  42  67  96 135 172 220 279 336 385
#     4  11  21  40  65  92 128 167 226 261 315 394
#     4  11  23  38  68  94 123 172 220 265 329 395
#     4  11  22  47  62  94 135 179 211 273 341 389
#
# _framework density 18.900624000000001
#
# number of rings (size 3 to 8) (size 9 to 14) (size 15 to 20)
#    0.000    1.000    8.333    0.500    4.667    1.333 
#    0.000    3.333    0.000    0.000    0.000    0.000 
#    0.000    0.000    0.000    0.000    0.000    0.000 
#
# Total GULP energy -133827.939489 kJ/mol
# GULP energy per Si atom -5576.164145 kJ/mol
# Density = 1.885760 g / cm^3
# Si number density = 18.900624 Si / 1000 Ang^3
#
#
#
# Elastic Constant Matrix: (Units=GPa)
#
#
# Indices 1 2 3 4 5 6 
#
# 1 186.6808 79.5037 39.7942 0.0053 18.5088 0.0024
# 2 79.5037 163.1734 47.4421 -0.0151 12.4676 -0.0031
# 3 39.7942 47.4421 51.1450 -0.0209 14.9142 -0.0050
# 4 0.0053 -0.0151 -0.0209 -132.4564 0.0155 -26.5222
# 5 18.5088 12.4676 14.9142 0.0155 34.9786 0.0034
# 6 0.0024 -0.0031 -0.0050 -26.5222 0.0034 24.9837
#
#
#
# Elastic Compliance Matrix: (Units=1/GPa)
#
#
# Indices 1 2 3 4 5 6 
#
# 1 0.007209 -0.002597 -0.002693 0.000001 -0.001741 0.000000
# 2 -0.002597 0.009331 -0.006927 0.000000 0.001002 0.000000
# 3 -0.002693 -0.006927 0.030763 -0.000005 -0.009222 0.000001
# 4 0.000001 0.000000 -0.000005 -0.006226 0.000005 -0.006610
# 5 -0.001741 0.001002 -0.009222 0.000005 0.033085 0.000000
# 6 0.000000 0.000000 0.000001 -0.006610 0.000000 0.033009
#
#
# Mechanical properties :
#
#
# Convention : Reuss Voigt Hill
#
# Bulk Modulus (GPa) = 43.72684 81.60878 62.66781
# Shear Modulus (GPa) = 35.91211 1.11847 18.51529
#
# Velocity S-wave (km/s) = 4.36368 0.77009 3.13327
# Velocity P-wave (km/s) = 6.96953 6.63794 6.80576
#
# Compressibility (1/GPa) = 0.02286925
#
# Stress axis : x y z
#
# Youngs Moduli (GPa) = 138.71083 107.16773 32.50686
#
# Poissons Ratio (x) = 0.27827 0.08754
# Poissons Ratio (y) = 0.36018 0.22519
# Poissons Ratio (z) = 0.37355 0.74239
#
# Static dielectric constant tensor:
#      x y z
#    x 1.700550 0.000000 0.016740 
#    y 0.000000 1.669800 0.000000 
#    z 0.016740 0.000000 1.736150 
# 
# From -- ./inp_files/232518.got.cif
#   From: 2010.05.17/outbox.cif.g08.bks.cpg/sg15_117_cif.got.tgz:232518.got - 2010.06.03 18:47:42.
