data_PCOD9301380
_publ_section_title
;
Structure prediction by ZEFSAII (Michael W. Deem and Ramdas Pophale) SiO2 
 PCOD9301380
Probable space group: C 2/C
;
_chemical_formula_sum "Si O2"
_cell_formula_units_Z 44
_cell_length_a 19.578734
_cell_length_b 15.537516
_cell_length_c 15.069651
_cell_angle_alpha 90.000000
_cell_angle_beta 28.978956
_cell_angle_gamma 90.000000
_cell_volume 2221.021327
_symmetry_space_group_name_H-M "C 2/C"
_symmetry_group_IT_number 15
_symmetry_cell_setting 'monoclinic'
loop_
_space_group_symop_operation_xyz
x,y,z
-x,y,1/2-z
-x,-y,-z
x,-y,1/2+z
1/2+x,1/2+y,z
1/2-x,1/2+y,1/2-z
1/2-x,1/2-y,-z
1/2+x,1/2-y,1/2+z
loop_
_atom_site_type_symbol
_atom_site_label
_atom_site_fract_x
_atom_site_fract_y
_atom_site_fract_z
Si Si1 0.837713 0.817646 0.455894
Si Si2 0.202418 0.005530 0.597360
Si Si3 0.152024 0.814182 0.848109
Si Si4 0.500000 0.500000 0.000000
Si Si5 0.965770 0.714896 0.929391
Si Si6 0.500000 0.363781 0.750000
Si Si7 0.500000 0.924580 0.250000
O O1 0.750000 0.750000 0.500000
O O2 0.819021 0.803567 0.581154
O O3 0.000000 0.804203 0.250000
O O4 0.801070 0.913597 0.465011
O O5 0.364200 0.980269 0.430381
O O6 0.108194 0.024062 0.791555
O O7 0.127052 0.925445 0.633960
O O8 0.304887 0.811449 0.628699
O O9 0.075466 0.905278 0.921175
O O10 0.054198 0.740209 0.915864
O O11 0.964383 0.801441 0.871839
O O12 0.035227 0.639448 0.791860
#
# Coordination Sequence:
#
# PCOD9301380 Si02
#       7
#     8   8   8   4   8   4   4
#     4  12  27  46  67  94 136 190 238 281 344 412
#     4  12  24  45  70 102 140 187 233 283 350 415
#     4  12  24  44  69 102 135 182 232 286 343 418
#     4  12  22  44  70  96 138 182 238 272 342 422
#     4  11  23  42  72 107 141 172 230 292 354 411
#     4  11  20  42  75 102 138 182 223 290 362 419
#     4  11  24  44  69 110 142 176 227 298 354 405
#
# _framework density 19.810706
#
# number of rings (size 3 to 8) (size 9 to 14) (size 15 to 20)
#    0.000    0.364    6.364    2.182    1.273    2.909 
#    0.000    0.909    0.000    0.000    0.000    0.000 
#    0.000    0.000    0.000    0.000    0.000    0.000 
#
# Total GULP energy -122473.307168 kJ/mol
# GULP energy per Si atom -5566.968508 kJ/mol
# Density = 1.976562 g / cm^3
# Si number density = 19.810706 Si / 1000 Ang^3
#
#
#
# Elastic Constant Matrix: (Units=GPa)
#
#
# Indices 1 2 3 4 5 6 
#
# 1 102.8562 59.6239 44.3458 0.0000 9.6278 0.0000
# 2 59.6239 94.3140 65.9810 0.0000 1.3186 0.0000
# 3 44.3458 65.9810 107.5124 0.0000 -4.2529 0.0000
# 4 0.0000 0.0000 0.0000 44.0665 -0.0001 -10.7437
# 5 9.6278 1.3186 -4.2529 -0.0001 31.1455 0.0000
# 6 0.0000 0.0000 0.0000 -10.7437 0.0000 11.6895
#
#
#
# Elastic Compliance Matrix: (Units=1/GPa)
#
#
# Indices 1 2 3 4 5 6 
#
# 1 0.016025 -0.009306 -0.001085 0.000000 -0.004708 0.000000
# 2 -0.009306 0.024158 -0.010973 0.000000 0.000356 0.000000
# 3 -0.001085 -0.010973 0.016605 0.000000 0.003067 0.000000
# 4 0.000000 0.000000 0.000000 0.029246 0.000000 0.026880
# 5 -0.004708 0.000356 0.003067 0.000000 0.033966 0.000000
# 6 0.000000 0.000000 0.000000 0.026880 0.000000 0.110252
#
#
# Mechanical properties :
#
#
# Convention : Reuss Voigt Hill
#
# Bulk Modulus (GPa) = 71.12914 71.62044 71.37479
# Shear Modulus (GPa) = 18.00713 26.36242 22.18478
#
# Velocity S-wave (km/s) = 3.01817 3.65186 3.35003
# Velocity P-wave (km/s) = 6.93744 7.34930 7.14634
#
# Compressibility (1/GPa) = 0.01405894
#
# Stress axis : x y z
#
# Youngs Moduli (GPa) = 62.40100 41.39439 60.22463
#
# Poissons Ratio (x) = 0.38522 0.06535
# Poissons Ratio (y) = 0.58071 0.66086
# Poissons Ratio (z) = 0.06771 0.45423
#
# Static dielectric constant tensor:
#      x y z
#    x 1.723940 0.000000 0.019070 
#    y 0.000000 1.678410 0.000000 
#    z 0.019070 0.000000 1.702080 
# 
# From -- ./inp_files/47426.got.cif
#   From: 2010.05.17/outbox.cif.g08.bks.cpg/sg15_24_cif.got.tgz:47426.got - 2010.06.03 18:47:42.
