data_PCOD9301810
_publ_section_title
;
Structure prediction by ZEFSAII (Michael W. Deem and Ramdas Pophale) SiO2 
 PCOD9301810
Probable space group: C 2/C
;
_chemical_formula_sum "Si O2"
_cell_formula_units_Z 48
_cell_length_a 18.423957
_cell_length_b 6.079009
_cell_length_c 23.700688
_cell_angle_alpha 90.000000
_cell_angle_beta 115.002880
_cell_angle_gamma 90.000000
_cell_volume 2405.703955
_symmetry_space_group_name_H-M "C 2/C"
_symmetry_group_IT_number 15
_symmetry_cell_setting 'monoclinic'
loop_
_space_group_symop_operation_xyz
x,y,z
-x,y,1/2-z
-x,-y,-z
x,-y,1/2+z
1/2+x,1/2+y,z
1/2-x,1/2+y,1/2-z
1/2-x,1/2-y,-z
1/2+x,1/2-y,1/2+z
loop_
_atom_site_type_symbol
_atom_site_label
_atom_site_fract_x
_atom_site_fract_y
_atom_site_fract_z
Si Si1 0.630698 0.224610 0.417723
Si Si2 0.781613 0.551090 0.470129
Si Si3 0.895683 0.390785 0.189602
Si Si4 0.651018 0.760190 0.739609
Si Si5 0.251869 0.070619 0.335317
Si Si6 0.497364 0.500391 0.313808
O O1 0.705836 0.387352 0.442031
O O2 0.634551 0.048707 0.369280
O O3 0.553738 0.371541 0.376160
O O4 0.643525 0.077583 0.477687
O O5 0.750000 0.750000 0.500000
O O6 0.797403 0.598734 0.409608
O O7 0.899935 0.548607 0.245938
O O8 0.827483 0.216463 0.182352
O O9 0.967434 0.245048 0.185194
O O10 0.695933 0.850797 0.700010
O O11 0.716196 0.666530 0.805495
O O12 0.593722 0.558210 0.701539
O O13 0.500000 0.411368 0.250000
#
# Coordination Sequence:
#
# PCOD9301810 Si02
#       6
#     8   8   8   8   8   8
#     4  11  22  37  65  95 127 170 236 275 327 391
#     4  11  21  39  65  97 127 178 232 280 327 409
#     4  12  21  40  65  93 135 169 222 280 326 416
#     4  12  26  40  66 103 138 175 219 286 353 400
#     4  12  23  41  64 101 133 174 223 280 351 395
#     4  12  23  37  62 100 128 171 225 274 341 397
#
# _framework density 19.952580000000001
#
# number of rings (size 3 to 8) (size 9 to 14) (size 15 to 20)
#    0.000    0.333   10.000    0.000    2.333    0.000 
#    0.000    0.833    0.000    4.000    0.000    0.000 
#    0.000    0.000    0.000    0.000    0.000    0.000 
#
# Total GULP energy -133696.071769 kJ/mol
# GULP energy per Si atom -5570.669657 kJ/mol
# Density = 1.990717 g / cm^3
# Si number density = 19.952580 Si / 1000 Ang^3
#
#
#
# Elastic Constant Matrix: (Units=GPa)
#
#
# Indices 1 2 3 4 5 6 
#
# 1 56.8816 42.9113 31.8611 0.0000 -0.8417 0.0000
# 2 42.9113 101.4337 60.2752 0.0000 -12.4340 0.0001
# 3 31.8611 60.2752 141.5719 0.0000 -1.5193 0.0000
# 4 0.0000 0.0000 0.0000 51.6882 0.0000 10.8026
# 5 -0.8417 -12.4340 -1.5193 0.0000 26.1434 0.0000
# 6 0.0000 0.0001 0.0000 10.8026 0.0000 34.1469
#
#
#
# Elastic Compliance Matrix: (Units=1/GPa)
#
#
# Indices 1 2 3 4 5 6 
#
# 1 0.026550 -0.010974 -0.001351 0.000000 -0.004443 0.000000
# 2 -0.010974 0.018730 -0.005416 0.000000 0.008240 0.000000
# 3 -0.001351 -0.005416 0.009651 0.000000 -0.002059 0.000000
# 4 0.000000 0.000000 0.000000 0.020717 0.000000 -0.006554
# 5 -0.004443 0.008240 -0.002059 0.000000 0.041907 0.000000
# 6 0.000000 0.000000 0.000000 -0.006554 0.000000 0.031359
#
#
# Mechanical properties :
#
#
# Convention : Reuss Voigt Hill
#
# Bulk Modulus (GPa) = 51.41498 63.33138 57.37318
# Shear Modulus (GPa) = 26.19482 33.38499 29.78991
#
# Velocity S-wave (km/s) = 3.62726 4.09494 3.86817
# Velocity P-wave (km/s) = 6.58538 7.35988 6.98338
#
# Compressibility (1/GPa) = 0.01944959
#
# Stress axis : x y z
#
# Youngs Moduli (GPa) = 37.66499 53.39120 103.61233
#
# Poissons Ratio (x) = 0.58591 0.13993
# Poissons Ratio (y) = 0.41333 0.56118
# Poissons Ratio (z) = 0.05087 0.28917
#
# Static dielectric constant tensor:
#      x y z
#    x 1.712320 0.000000 0.032270 
#    y 0.000000 1.776810 0.000000 
#    z 0.032270 0.000000 1.751480 
# 
# From -- ./inp_files/275898.got.cif
#   From: 2010.05.17/outbox.cif.g08.bks.cpg/sg15_138_cif.got.tgz:275898.got - 2010.06.03 18:47:42.
