data_PCOD9301164
_publ_section_title
;
Structure prediction by ZEFSAII (Michael W. Deem and Ramdas Pophale) SiO2 
 PCOD9301164
Probable space group: C 2/C
;
_chemical_formula_sum "Si O2"
_cell_formula_units_Z 48
_cell_length_a 17.102636
_cell_length_b 11.418912
_cell_length_c 15.603095
_cell_angle_alpha 90.000000
_cell_angle_beta 130.918552
_cell_angle_gamma 90.000000
_cell_volume 2302.577687
_symmetry_space_group_name_H-M "C 2/C"
_symmetry_group_IT_number 15
_symmetry_cell_setting 'monoclinic'
loop_
_space_group_symop_operation_xyz
x,y,z
-x,y,1/2-z
-x,-y,-z
x,-y,1/2+z
1/2+x,1/2+y,z
1/2-x,1/2+y,1/2-z
1/2-x,1/2-y,-z
1/2+x,1/2-y,1/2+z
loop_
_atom_site_type_symbol
_atom_site_label
_atom_site_fract_x
_atom_site_fract_y
_atom_site_fract_z
Si Si1 0.690793 0.050454 0.465556
Si Si2 0.558603 0.706685 0.162183
Si Si3 0.895609 0.706950 0.234373
Si Si4 0.142131 0.704537 0.888045
Si Si5 0.474515 0.126465 0.020575
Si Si6 0.889778 0.973311 0.217997
O O1 0.688782 0.135364 0.381404
O O2 0.627313 0.114888 0.494281
O O3 0.800031 0.009565 0.582766
O O4 0.628994 0.932218 0.398413
O O5 0.447276 0.722055 0.128742
O O6 0.633253 0.777802 0.280106
O O7 0.545603 0.771222 0.062768
O O8 0.600188 0.573824 0.202452
O O9 0.869405 0.841445 0.233767
O O10 0.000000 0.703995 0.250000
O O11 0.929305 0.652608 0.348061
O O12 0.250000 0.750000 0.000000
O O13 0.500000 0.000000 0.000000
O O14 0.000000 0.973805 0.250000
#
# Coordination Sequence:
#
# PCOD9301164 Si02
#       6
#     8   8   8   8   8   8
#     4  11  21  40  66  94 125 168 220 256 312 386
#     4  11  22  37  65  93 127 164 208 267 322 366
#     4   9  22  39  66  90 120 169 212 260 315 375
#     4  11  20  38  65  93 122 167 216 257 313 380
#     4  11  22  40  61  92 130 162 209 269 315 375
#     4  11  21  42  65  93 127 166 215 260 314 384
#
# _framework density 20.846202000000002
#
# number of rings (size 3 to 8) (size 9 to 14) (size 15 to 20)
#    0.000    1.333    5.000    1.500    4.667    0.667 
#    6.000    0.000    7.333    0.000    0.000    0.000 
#    0.000    0.000    0.000    0.000    0.000    0.000 
#
# Total GULP energy -133948.291272 kJ/mol
# GULP energy per Si atom -5581.178803 kJ/mol
# Density = 2.079876 g / cm^3
# Si number density = 20.846202 Si / 1000 Ang^3
#
#
#
# Elastic Constant Matrix: (Units=GPa)
#
#
# Indices 1 2 3 4 5 6 
#
# 1 25.8179 19.9690 42.6718 0.0000 -1.6681 0.0000
# 2 19.9690 173.1599 77.2098 0.0000 -17.1566 0.0000
# 3 42.6718 77.2098 154.0014 0.0000 -8.5231 0.0000
# 4 0.0000 0.0000 0.0000 50.3513 0.0000 -1.7582
# 5 -1.6681 -17.1566 -8.5231 0.0000 35.4277 0.0000
# 6 0.0000 0.0000 0.0000 -1.7582 0.0000 15.6765
#
#
#
# Elastic Compliance Matrix: (Units=1/GPa)
#
#
# Indices 1 2 3 4 5 6 
#
# 1 0.071583 0.000645 -0.020224 0.000000 -0.001182 0.000000
# 2 0.000645 0.007716 -0.003891 0.000000 0.002831 0.000000
# 3 -0.020224 -0.003891 0.014078 0.000000 0.000551 0.000000
# 4 0.000000 0.000000 0.000000 0.019939 0.000000 0.002236
# 5 -0.001182 0.002831 0.000551 0.000000 0.029674 0.000000
# 6 0.000000 0.000000 0.000000 0.002236 0.000000 0.064041
#
#
# Mechanical properties :
#
#
# Convention : Reuss Voigt Hill
#
# Bulk Modulus (GPa) = 21.53348 70.29782 45.91565
# Shear Modulus (GPa) = 18.55643 34.49966 26.52805
#
# Velocity S-wave (km/s) = 2.98679 4.07254 3.57117
# Velocity P-wave (km/s) = 4.71664 7.47726 6.25124
#
# Compressibility (1/GPa) = 0.04643931
#
# Stress axis : x y z
#
# Youngs Moduli (GPa) = 13.96975 129.60395 71.03172
#
# Poissons Ratio (x) = -0.08364 1.43653
# Poissons Ratio (y) = -0.00902 0.27635
# Poissons Ratio (z) = 0.28252 0.50423
#
# Static dielectric constant tensor:
#      x y z
#    x 1.749740 0.000000 0.010310 
#    y 0.000000 1.797950 0.000000 
#    z 0.010310 0.000000 1.773010 
# 
# From -- ./inp_files/167933.got.cif
#   From: 2010.05.17/outbox.cif.g08.bks.cpg/sg15_84_cif.got.tgz:167933.got - 2010.06.03 18:47:42.
