data_PCOD9301417
_publ_section_title
;
Structure prediction by ZEFSAII (Michael W. Deem and Ramdas Pophale) SiO2 
 PCOD9301417
Probable space group: C 2/C
;
_chemical_formula_sum "Si O2"
_cell_formula_units_Z 48
_cell_length_a 17.971376
_cell_length_b 9.156721
_cell_length_c 14.961987
_cell_angle_alpha 90.000000
_cell_angle_beta 53.622446
_cell_angle_gamma 90.000000
_cell_volume 1982.323598
_symmetry_space_group_name_H-M "C 2/C"
_symmetry_group_IT_number 15
_symmetry_cell_setting 'monoclinic'
loop_
_space_group_symop_operation_xyz
x,y,z
-x,y,1/2-z
-x,-y,-z
x,-y,1/2+z
1/2+x,1/2+y,z
1/2-x,1/2+y,1/2-z
1/2-x,1/2-y,-z
1/2+x,1/2-y,1/2+z
loop_
_atom_site_type_symbol
_atom_site_label
_atom_site_fract_x
_atom_site_fract_y
_atom_site_fract_z
Si Si1 0.602895 0.467562 0.188168
Si Si2 0.807439 0.691150 0.310206
Si Si3 0.148821 0.779701 0.535546
Si Si4 0.593459 0.949973 0.208225
Si Si5 0.618199 0.704890 0.337047
Si Si6 0.545517 0.161139 0.448336
O O1 0.500000 0.406618 0.250000
O O2 0.677950 0.344157 0.152499
O O3 0.621939 0.559661 0.085033
O O4 0.604781 0.576580 0.273326
O O5 0.818857 0.554519 0.367956
O O6 0.715138 0.686407 0.318223
O O7 0.900677 0.664963 0.183598
O O8 0.250000 0.750000 0.500000
O O9 0.084435 0.673210 0.638732
O O10 0.128689 0.721007 0.452220
O O11 0.500000 0.035112 0.250000
O O12 0.614814 0.854388 0.281239
O O13 0.536854 0.726111 0.468188
O O14 0.500000 0.000000 0.500000
#
# Coordination Sequence:
#
# PCOD9301417 Si02
#       6
#     8   8   8   8   8   8
#     4  11  23  45  64  93 137 175 207 272 348 386
#     4  12  26  40  69 102 135 166 223 283 333 386
#     4  11  23  42  70  93 129 176 227 264 327 405
#     4  11  20  44  67  92 128 179 218 267 328 402
#     4  11  22  42  68  96 133 174 220 270 332 392
#     4  12  23  43  72 101 127 178 233 271 318 408
#
# _framework density 24.214006999999999
#
# number of rings (size 3 to 8) (size 9 to 14) (size 15 to 20)
#    0.000    0.667    5.000    4.500    2.333    0.667 
#    3.000    0.833    0.000    0.000    0.000    0.000 
#    0.000    0.000    0.000    0.000    0.000    0.000 
#
# Total GULP energy -134020.538161 kJ/mol
# GULP energy per Si atom -5584.189090 kJ/mol
# Density = 2.415889 g / cm^3
# Si number density = 24.214007 Si / 1000 Ang^3
#
#
#
# Elastic Constant Matrix: (Units=GPa)
#
#
# Indices 1 2 3 4 5 6 
#
# 1 186.2382 36.5245 -9.8981 0.0000 -14.1662 0.0000
# 2 36.5245 88.3229 -6.3488 0.0000 5.9489 0.0000
# 3 -9.8981 -6.3488 38.4684 0.0000 -11.9835 0.0000
# 4 0.0000 0.0000 0.0000 9.4847 0.0000 -5.0593
# 5 -14.1662 5.9489 -11.9835 0.0000 28.5303 0.0000
# 6 0.0000 0.0000 0.0000 -5.0593 0.0000 26.1253
#
#
#
# Elastic Compliance Matrix: (Units=1/GPa)
#
#
# Indices 1 2 3 4 5 6 
#
# 1 0.006438 -0.002798 0.002729 0.000000 0.004927 0.000000
# 2 -0.002798 0.012758 0.000143 0.000000 -0.003989 0.000000
# 3 0.002729 0.000143 0.031219 0.000000 0.014438 0.000000
# 4 0.000000 0.000000 0.000000 0.117579 0.000000 0.022770
# 5 0.004927 -0.003989 0.014438 0.000000 0.044393 0.000000
# 6 0.000000 0.000000 0.000000 0.022770 0.000000 0.042687
#
#
# Mechanical properties :
#
#
# Convention : Reuss Voigt Hill
#
# Bulk Modulus (GPa) = 19.77698 39.28719 29.53209
# Shear Modulus (GPa) = 18.39730 32.34485 25.37108
#
# Velocity S-wave (km/s) = 2.75940 3.65881 3.24046
# Velocity P-wave (km/s) = 4.28225 5.84033 5.12089
#
# Compressibility (1/GPa) = 0.05056383
#
# Stress axis : x y z
#
# Youngs Moduli (GPa) = 155.32787 78.38143 32.03180
#
# Poissons Ratio (x) = 0.21931 -0.08743
# Poissons Ratio (y) = 0.43460 -0.00458
# Poissons Ratio (z) = -0.42396 -0.01120
#
# Static dielectric constant tensor:
#      x y z
#    x 1.177100 0.000000 0.532470 
#    y 0.000000 2.101050 0.000000 
#    z 0.532470 0.000000 1.740740 
# 
# From -- ./inp_files/208935.got.cif
#   From: 2010.05.17/outbox.cif.g08.bks.cpg/sg15_105_cif.got.tgz:208935.got - 2010.06.03 18:47:42.
