data_PCOD9301388
_publ_section_title
;
Structure prediction by ZEFSAII (Michael W. Deem and Ramdas Pophale) SiO2 
 PCOD9301388
Probable space group: C 2/C
;
_chemical_formula_sum "Si O2"
_cell_formula_units_Z 64
_cell_length_a 26.551858
_cell_length_b 14.938613
_cell_length_c 11.502251
_cell_angle_alpha 90.000000
_cell_angle_beta 138.055205
_cell_angle_gamma 90.000000
_cell_volume 3049.535872
_symmetry_space_group_name_H-M "C 2/C"
_symmetry_group_IT_number 15
_symmetry_cell_setting 'monoclinic'
loop_
_space_group_symop_operation_xyz
x,y,z
-x,y,1/2-z
-x,-y,-z
x,-y,1/2+z
1/2+x,1/2+y,z
1/2-x,1/2+y,1/2-z
1/2-x,1/2-y,-z
1/2+x,1/2-y,1/2+z
loop_
_atom_site_type_symbol
_atom_site_label
_atom_site_fract_x
_atom_site_fract_y
_atom_site_fract_z
Si Si1 0.686143 0.360235 0.304302
Si Si2 0.838629 0.336890 0.709722
Si Si3 0.379909 0.259243 0.862939
Si Si4 0.085425 0.378575 0.891343
Si Si5 0.427226 0.199257 0.705989
Si Si6 0.784024 0.827009 0.410367
Si Si7 0.680099 0.442128 0.808409
Si Si8 0.838289 0.552944 0.444895
O O1 0.755064 0.350599 0.513007
O O2 0.641774 0.267789 0.243234
O O3 0.716608 0.355962 0.224657
O O4 0.649083 0.456906 0.258835
O O5 0.891103 0.376697 0.701659
O O6 0.840627 0.386748 0.834576
O O7 0.433836 0.220732 0.854157
O O8 0.293839 0.223958 0.694334
O O9 0.373323 0.366159 0.839100
O O10 0.402728 0.216498 0.024654
O O11 0.000000 0.405623 0.750000
O O12 0.135928 0.453276 0.040290
O O13 0.500000 0.215832 0.750000
O O14 0.356201 0.261824 0.547975
O O15 0.398090 0.098642 0.634988
O O16 0.797463 0.906644 0.524930
O O17 0.756856 0.445619 0.864975
#
# Coordination Sequence:
#
# PCOD9301388 Si02
#       8
#     8   8   8   8   8   8   8   8
#     4  11  23  38  65  97 128 165 219 277 330 376
#     4  11  25  40  61  95 133 171 211 271 330 387
#     4  11  22  43  66  91 130 173 227 268 320 390
#     4  12  29  43  64  98 139 179 211 265 339 405
#     4  11  23  39  65  92 127 173 215 273 327 391
#     4  11  20  43  62  94 130 170 224 272 323 390
#     4  11  22  37  70  98 123 171 220 278 318 380
#     4  12  23  40  63  95 133 171 215 261 331 402
#
# _framework density 20.986801
#
# number of rings (size 3 to 8) (size 9 to 14) (size 15 to 20)
#    0.000    0.750    6.250    1.125    8.750    0.500 
#    0.000    0.000    0.000   10.500    0.000    0.000 
#    0.000    0.000    0.000    0.000    0.000    0.000 
#
# Total GULP energy -178868.476420 kJ/mol
# GULP energy per Si atom -5589.639888 kJ/mol
# Density = 2.093903 g / cm^3
# Si number density = 20.986801 Si / 1000 Ang^3
#
#
#
# Elastic Constant Matrix: (Units=GPa)
#
#
# Indices 1 2 3 4 5 6 
#
# 1 70.3688 7.2635 14.5749 0.0000 2.1986 0.0000
# 2 7.2635 132.0437 11.6680 0.0000 -16.4796 0.0000
# 3 14.5749 11.6680 26.4858 0.0000 -10.8122 0.0000
# 4 0.0000 0.0000 0.0000 21.2752 0.0000 -7.7304
# 5 2.1986 -16.4796 -10.8122 0.0000 29.9493 0.0000
# 6 0.0000 0.0000 0.0000 -7.7304 0.0000 27.8231
#
#
#
# Elastic Compliance Matrix: (Units=1/GPa)
#
#
# Indices 1 2 3 4 5 6 
#
# 1 0.016785 -0.000633 -0.011263 0.000000 -0.005647 0.000000
# 2 -0.000633 0.008252 -0.001659 0.000000 0.003988 0.000000
# 3 -0.011263 -0.001659 0.052368 0.000000 0.018820 0.000000
# 4 0.000000 0.000000 0.000000 0.052281 0.000000 0.014526
# 5 -0.005647 0.003988 0.018820 0.000000 0.042793 0.000000
# 6 0.000000 0.000000 0.000000 0.014526 0.000000 0.039977
#
#
# Mechanical properties :
#
#
# Convention : Reuss Voigt Hill
#
# Bulk Modulus (GPa) = 19.88257 32.87901 26.38079
# Shear Modulus (GPa) = 19.50593 28.83564 24.17079
#
# Velocity S-wave (km/s) = 3.05198 3.71076 3.39737
# Velocity P-wave (km/s) = 4.68122 5.83611 5.29027
#
# Compressibility (1/GPa) = 0.05029532
#
# Stress axis : x y z
#
# Youngs Moduli (GPa) = 59.57552 121.17633 19.09573
#
# Poissons Ratio (x) = 0.07668 0.21508
# Poissons Ratio (y) = 0.03770 0.03168
# Poissons Ratio (z) = 0.67101 0.20105
#
# Static dielectric constant tensor:
#      x y z
#    x 1.751870 0.000000 0.028330 
#    y 0.000000 1.804040 0.000000 
#    z 0.028330 0.000000 1.815920 
# 
# From -- ./inp_files/123538.got.cif
#   From: 2010.05.17/outbox.cif.g08.bks.cpg/sg15_62_cif.got.tgz:123538.got - 2010.06.03 18:47:42.
