data_PCOD9301421
_publ_section_title
;
Structure prediction by ZEFSAII (Michael W. Deem and Ramdas Pophale) SiO2 
 PCOD9301421
Probable space group: C 2/C
;
_chemical_formula_sum "Si O2"
_cell_formula_units_Z 64
_cell_length_a 14.127540
_cell_length_b 17.149632
_cell_length_c 16.606942
_cell_angle_alpha 90.000000
_cell_angle_beta 50.174482
_cell_angle_gamma 90.000000
_cell_volume 3090.091307
_symmetry_space_group_name_H-M "C 2/C"
_symmetry_group_IT_number 15
_symmetry_cell_setting 'monoclinic'
loop_
_space_group_symop_operation_xyz
x,y,z
-x,y,1/2-z
-x,-y,-z
x,-y,1/2+z
1/2+x,1/2+y,z
1/2-x,1/2+y,1/2-z
1/2-x,1/2-y,-z
1/2+x,1/2-y,1/2+z
loop_
_atom_site_type_symbol
_atom_site_label
_atom_site_fract_x
_atom_site_fract_y
_atom_site_fract_z
Si Si1 0.211518 0.342311 0.029167
Si Si2 0.897151 0.147569 0.050500
Si Si3 0.145697 0.045938 0.157723
Si Si4 0.828949 0.868459 0.126087
Si Si5 0.622568 0.371855 0.128118
Si Si6 0.712279 0.196908 0.835906
Si Si7 0.023618 0.556911 0.910152
Si Si8 0.258342 0.971883 0.767829
O O1 0.222947 0.360444 0.117542
O O2 0.089232 0.388944 0.061680
O O3 0.250000 0.250000 0.000000
O O4 0.316643 0.388163 0.924333
O O5 0.867108 0.226624 0.112817
O O6 0.795221 0.086844 0.137286
O O7 0.894766 0.149930 0.954866
O O8 0.040324 0.130956 0.988956
O O9 0.220761 0.057683 0.199643
O O10 0.000000 0.048663 0.250000
O O11 0.174620 0.959938 0.107035
O O12 0.802742 0.804494 0.209276
O O13 0.820850 0.949887 0.176553
O O14 0.500000 0.372050 0.250000
O O15 0.711417 0.312158 0.124219
O O16 0.625187 0.121735 0.877227
O O17 0.099009 0.499188 0.808156
O O18 0.000000 0.500000 0.000000
#
# Coordination Sequence:
#
# PCOD9301421 Si02
#       8
#     8   8   8   8   8   8   8   8
#     4  12  26  43  70 102 145 195 241 305 374 445
#     4  12  24  39  72 102 139 177 247 307 365 443
#     4  11  21  41  69 100 133 181 244 290 356 442
#     4  11  23  45  63  99 140 183 239 299 368 434
#     4  11  20  44  69  95 135 182 231 299 370 443
#     4  11  24  41  67  99 138 187 232 307 376 443
#     4  11  23  47  70  97 148 198 240 291 374 459
#     4  11  23  41  70 100 131 191 238 292 366 443
#
# _framework density 20.711361
#
# number of rings (size 3 to 8) (size 9 to 14) (size 15 to 20)
#    0.000    0.750    5.000    3.750    1.750    3.000 
#    2.250    0.000    0.000    0.000    0.000    0.000 
#    0.000    0.000    0.000    0.000    0.000    0.000 
#
# Total GULP energy -178437.204841 kJ/mol
# GULP energy per Si atom -5576.162651 kJ/mol
# Density = 2.066422 g / cm^3
# Si number density = 20.711361 Si / 1000 Ang^3
#
#
#
# Elastic Constant Matrix: (Units=GPa)
#
#
# Indices 1 2 3 4 5 6 
#
# 1 92.0994 5.7140 20.7795 0.0000 3.1265 0.0000
# 2 5.7140 69.3081 54.1577 0.0000 -15.0081 0.0000
# 3 20.7795 54.1577 98.7677 0.0000 -3.8723 0.0000
# 4 0.0000 0.0000 0.0000 20.0250 0.0000 -6.6723
# 5 3.1265 -15.0081 -3.8723 0.0000 41.4673 0.0000
# 6 0.0000 0.0000 0.0000 -6.6723 0.0000 -23.3048
#
#
#
# Elastic Compliance Matrix: (Units=1/GPa)
#
#
# Indices 1 2 3 4 5 6 
#
# 1 0.011521 0.001441 -0.003239 0.000000 -0.000650 0.000000
# 2 0.001441 0.028275 -0.015467 0.000000 0.008681 0.000000
# 3 -0.003239 -0.015467 0.019148 0.000000 -0.003566 0.000000
# 4 0.000000 0.000000 0.000000 0.045589 0.000000 -0.013052
# 5 -0.000650 0.008681 -0.003566 0.000000 0.026973 0.000000
# 6 0.000000 0.000000 0.000000 -0.013052 0.000000 -0.039173
#
#
# Mechanical properties :
#
#
# Convention : Reuss Voigt Hill
#
# Bulk Modulus (GPa) = 40.96216 46.83084 43.89650
# Shear Modulus (GPa) = 37.03635 19.60578 28.32107
#
# Velocity S-wave (km/s) = 4.23332 3.08006 3.70187
# Velocity P-wave (km/s) = 6.61175 5.94216 6.28587
#
# Compressibility (1/GPa) = 0.02441278
#
# Stress axis : x y z
#
# Youngs Moduli (GPa) = 86.79509 35.36656 52.22572
#
# Poissons Ratio (x) = -0.05096 0.16918
# Poissons Ratio (y) = -0.12505 0.80778
# Poissons Ratio (z) = 0.28117 0.54702
#
# Static dielectric constant tensor:
#      x y z
#    x 1.781100 0.000000 -0.021410 
#    y 0.000000 1.738820 0.000000 
#    z -0.021410 0.000000 1.774690 
# 
# From -- ./inp_files/155488.got.cif
#   From: 2010.05.17/outbox.cif.g08.bks.cpg/sg15_78_cif.got.tgz:155488.got - 2010.06.03 18:47:42.
