data_PCOD9301068
_publ_section_title
;
Structure prediction by ZEFSAII (Michael W. Deem and Ramdas Pophale) SiO2 
 PCOD9301068
Probable space group: C 2/C
;
_chemical_formula_sum "Si O2"
_cell_formula_units_Z 48
_cell_length_a 18.676608
_cell_length_b 15.294056
_cell_length_c 9.760541
_cell_angle_alpha 90.000000
_cell_angle_beta 116.866065
_cell_angle_gamma 90.000000
_cell_volume 2487.088478
_symmetry_space_group_name_H-M "C 2/C"
_symmetry_group_IT_number 15
_symmetry_cell_setting 'monoclinic'
loop_
_space_group_symop_operation_xyz
x,y,z
-x,y,1/2-z
-x,-y,-z
x,-y,1/2+z
1/2+x,1/2+y,z
1/2-x,1/2+y,1/2-z
1/2-x,1/2-y,-z
1/2+x,1/2-y,1/2+z
loop_
_atom_site_type_symbol
_atom_site_label
_atom_site_fract_x
_atom_site_fract_y
_atom_site_fract_z
Si Si1 0.367591 0.972965 0.869934
Si Si2 0.557205 0.144136 0.668320
Si Si3 0.257164 0.828812 0.108345
Si Si4 0.810380 0.808990 0.145336
Si Si5 0.541628 0.191992 0.150759
Si Si6 0.253697 0.013467 0.019131
O O1 0.406368 0.878179 0.889587
O O2 0.328055 0.002766 0.977609
O O3 0.431709 0.045925 0.880467
O O4 0.293612 0.967768 0.699929
O O5 0.500000 0.147272 0.750000
O O6 0.647888 0.161232 0.790147
O O7 0.527174 0.209232 0.521881
O O8 0.221597 0.812570 0.227102
O O9 0.250000 0.750000 0.000000
O O10 0.219192 0.916220 0.008568
O O11 0.898745 0.766031 0.238005
O O12 0.802379 0.907471 0.078521
O O13 0.750000 0.750000 0.000000
O O14 0.500000 0.151993 0.250000
#
# Coordination Sequence:
#
# PCOD9301068 Si02
#       6
#     8   8   8   8   8   8
#     4  11  20  37  60  91 132 164 205 261 320 378
#     4  11  21  36  56  91 129 161 204 255 325 377
#     4  11  24  41  64  91 121 168 220 268 316 371
#     4  12  23  41  63  89 130 171 213 261 310 392
#     4  12  23  37  61  94 129 165 207 263 328 383
#     4  11  21  39  61  94 122 167 216 254 311 372
#
# _framework density 19.299675000000001
#
# number of rings (size 3 to 8) (size 9 to 14) (size 15 to 20)
#    0.000    0.667    5.000    7.000    0.000    0.000 
#    0.000    0.000    0.000    5.000    0.000    0.000 
#    0.000    0.000    0.000    0.000    0.000    0.000 
#
# Total GULP energy -133916.299823 kJ/mol
# GULP energy per Si atom -5579.845826 kJ/mol
# Density = 1.925575 g / cm^3
# Si number density = 19.299675 Si / 1000 Ang^3
#
#
#
# Elastic Constant Matrix: (Units=GPa)
#
#
# Indices 1 2 3 4 5 6 
#
# 1 36.5429 8.8881 11.8438 0.0000 0.0050 0.0000
# 2 8.8881 114.9196 55.7399 0.0000 18.5146 0.0000
# 3 11.8438 55.7399 90.9506 0.0000 4.1022 0.0000
# 4 0.0000 0.0000 0.0000 78.3290 0.0000 2.6242
# 5 0.0050 18.5146 4.1022 0.0000 38.6932 0.0000
# 6 0.0000 0.0000 0.0000 2.6242 0.0000 24.3191
#
#
#
# Elastic Compliance Matrix: (Units=1/GPa)
#
#
# Indices 1 2 3 4 5 6 
#
# 1 0.028615 -0.000714 -0.003320 0.000000 0.000690 0.000000
# 2 -0.000714 0.013511 -0.007934 0.000000 -0.005624 0.000000
# 3 -0.003320 -0.007934 0.016196 0.000000 0.002080 0.000000
# 4 0.000000 0.000000 0.000000 0.012813 0.000000 -0.001383
# 5 0.000690 -0.005624 0.002080 0.000000 0.028315 0.000000
# 6 0.000000 0.000000 0.000000 -0.001383 0.000000 0.041269
#
#
# Mechanical properties :
#
#
# Convention : Reuss Voigt Hill
#
# Bulk Modulus (GPa) = 29.08132 43.92852 36.50492
# Shear Modulus (GPa) = 28.39039 39.33101 33.86070
#
# Velocity S-wave (km/s) = 3.83956 4.51922 4.19318
# Velocity P-wave (km/s) = 5.89553 7.07402 6.51149
#
# Compressibility (1/GPa) = 0.03438634
#
# Stress axis : x y z
#
# Youngs Moduli (GPa) = 34.94714 74.01269 61.74438
#
# Poissons Ratio (x) = 0.05285 0.20498
# Poissons Ratio (y) = 0.02495 0.48987
# Poissons Ratio (z) = 0.11602 0.58720
#
# Static dielectric constant tensor:
#      x y z
#    x 1.671590 0.000000 0.026660 
#    y 0.000000 1.725930 0.000000 
#    z 0.026660 0.000000 1.693690 
# 
# From -- ./inp_files/55441.got.cif
#   From: 2010.05.17/outbox.cif.g08.bks.cpg/sg15_28_cif.got.tgz:55441.got - 2010.06.03 18:47:42.
