data_PCOD9301648
_publ_section_title
;
Structure prediction by ZEFSAII (Michael W. Deem and Ramdas Pophale) SiO2 
 PCOD9301648
Probable space group: C 2/C
;
_chemical_formula_sum "Si O2"
_cell_formula_units_Z 40
_cell_length_a 26.444713
_cell_length_b 9.322629
_cell_length_c 8.575839
_cell_angle_alpha 90.000000
_cell_angle_beta 136.011169
_cell_angle_gamma 90.000000
_cell_volume 1468.376642
_symmetry_space_group_name_H-M "C 2/C"
_symmetry_group_IT_number 15
_symmetry_cell_setting 'monoclinic'
loop_
_space_group_symop_operation_xyz
x,y,z
-x,y,1/2-z
-x,-y,-z
x,-y,1/2+z
1/2+x,1/2+y,z
1/2-x,1/2+y,1/2-z
1/2-x,1/2-y,-z
1/2+x,1/2-y,1/2+z
loop_
_atom_site_type_symbol
_atom_site_label
_atom_site_fract_x
_atom_site_fract_y
_atom_site_fract_z
Si Si1 0.930629 0.673038 0.806083
Si Si2 0.778315 0.399112 0.994419
Si Si3 0.413048 0.219236 0.401858
Si Si4 0.801661 0.873218 0.982336
Si Si5 0.075998 0.945331 0.499203
O O1 0.863660 0.579459 0.725114
O O2 0.913952 0.830379 0.840621
O O3 0.919163 0.669458 0.594362
O O4 0.016647 0.651803 0.028935
O O5 0.766707 0.371420 0.785499
O O6 0.750000 0.250000 0.000000
O O7 0.337369 0.231057 0.137528
O O8 0.428196 0.391651 0.452370
O O9 0.863660 0.926445 0.000372
O O10 0.775443 0.981147 0.057254
O O11 0.000000 0.909658 0.250000
#
# Coordination Sequence:
#
# PCOD9301648 Si02
#       5
#     8   8   8   8   8
#     4  11  23  38  63  97 144 168 227 280 351 400
#     4  12  26  44  63 103 146 181 222 293 350 414
#     4  11  21  37  66 101 127 182 228 283 340 406
#     4  12  25  39  69  99 142 180 228 280 360 409
#     4  12  19  34  64 104 133 169 219 297 340 405
#
# _framework density 27.240966
#
# number of rings (size 3 to 8) (size 9 to 14) (size 15 to 20)
#    0.000    0.400    8.000    3.000    0.000    0.800 
#    0.000    0.000    0.000    4.800    0.000    0.000 
#    0.000    0.000    0.000    0.000    0.000    0.000 
#
# Total GULP energy -111965.134223 kJ/mol
# GULP energy per Si atom -5598.256711 kJ/mol
# Density = 2.717896 g / cm^3
# Si number density = 27.240966 Si / 1000 Ang^3
#
#
#
# Elastic Constant Matrix: (Units=GPa)
#
#
# Indices 1 2 3 4 5 6 
#
# 1 143.6884 36.3418 33.8309 0.0000 35.5113 0.0000
# 2 36.3418 77.4024 -10.1303 0.0000 15.5637 0.0000
# 3 33.8309 -10.1303 103.9954 0.0000 22.0298 0.0000
# 4 0.0000 0.0000 0.0000 31.2499 0.0000 9.4134
# 5 35.5113 15.5637 22.0298 0.0000 76.7423 0.0000
# 6 0.0000 0.0000 0.0000 9.4134 0.0000 46.5642
#
#
#
# Elastic Compliance Matrix: (Units=1/GPa)
#
#
# Indices 1 2 3 4 5 6 
#
# 1 0.009370 -0.004248 -0.002903 0.000000 -0.002641 0.000000
# 2 -0.004248 0.015803 0.003390 0.000000 -0.002212 0.000000
# 3 -0.002903 0.003390 0.011448 0.000000 -0.002631 0.000000
# 4 0.000000 0.000000 0.000000 0.034075 0.000000 -0.006889
# 5 -0.002641 -0.002212 -0.002631 0.000000 0.015457 0.000000
# 6 0.000000 0.000000 0.000000 -0.006889 0.000000 0.022868
#
#
# Mechanical properties :
#
#
# Convention : Reuss Voigt Hill
#
# Bulk Modulus (GPa) = 34.36599 49.46346 41.91472
# Shear Modulus (GPa) = 39.60668 48.58087 44.09378
#
# Velocity S-wave (km/s) = 3.81719 4.22758 4.02762
# Velocity P-wave (km/s) = 5.66311 6.48283 6.08679
#
# Compressibility (1/GPa) = 0.02909854
#
# Stress axis : x y z
#
# Youngs Moduli (GPa) = 106.72255 63.28065 87.35530
#
# Poissons Ratio (x) = 0.26883 0.25355
# Poissons Ratio (y) = 0.45338 -0.29613
# Poissons Ratio (z) = 0.30977 -0.21452
#
# Static dielectric constant tensor:
#      x y z
#    x 2.139750 0.000000 -0.028620 
#    y 0.000000 1.973430 0.000000 
#    z -0.028620 0.000000 2.359110 
# 
# From -- ./inp_files/63342.got.cif
#   From: 2010.05.17/outbox.cif.g08.bks.cpg/sg15_32_cif.got.tgz:63342.got - 2010.06.03 18:47:42.
