data_PCOD9301157
_publ_section_title
;
Structure prediction by ZEFSAII (Michael W. Deem and Ramdas Pophale) SiO2 
 PCOD9301157
Probable space group: C 2/C
;
_chemical_formula_sum "Si O2"
_cell_formula_units_Z 32
_cell_length_a 11.859985
_cell_length_b 7.460576
_cell_length_c 20.340117
_cell_angle_alpha 90.000000
_cell_angle_beta 128.928315
_cell_angle_gamma 90.000000
_cell_volume 1400.077202
_symmetry_space_group_name_H-M "C 2/C"
_symmetry_group_IT_number 15
_symmetry_cell_setting 'monoclinic'
loop_
_space_group_symop_operation_xyz
x,y,z
-x,y,1/2-z
-x,-y,-z
x,-y,1/2+z
1/2+x,1/2+y,z
1/2-x,1/2+y,1/2-z
1/2-x,1/2-y,-z
1/2+x,1/2-y,1/2+z
loop_
_atom_site_type_symbol
_atom_site_label
_atom_site_fract_x
_atom_site_fract_y
_atom_site_fract_z
Si Si1 0.048746 0.067643 0.925644
Si Si2 0.193012 0.340674 0.896330
Si Si3 0.552853 0.810124 0.375635
Si Si4 0.711597 0.878602 0.305615
O O1 0.125536 0.153274 0.889854
O O2 0.882661 0.127802 0.862761
O O3 0.066208 0.853333 0.929689
O O4 0.140452 0.143145 0.020424
O O5 0.112151 0.491432 0.912813
O O6 0.174674 0.418294 0.816842
O O7 0.648392 0.768874 0.344842
O O8 0.386311 0.828946 0.291800
#
# Coordination Sequence:
#
# PCOD9301157 Si02
#       4
#     8   8   8   8
#     4  11  20  38  64  77 115 157 177 233 295 315
#     4   9  21  40  55  90 112 140 200 230 266 352
#     4   9  21  39  53  86 116 141 193 232 267 346
#     4   9  21  39  53  86 116 142 189 232 273 333
#
# _framework density 22.855882000000001
#
# number of rings (size 3 to 8) (size 9 to 14) (size 15 to 20)
#    1.500    1.000    0.000    1.500    3.500    0.000 
#   13.500    2.500    0.000    0.000    0.000    0.000 
#    0.000    0.000    0.000    0.000    0.000    0.000 
#
# Total GULP energy -89157.058063 kJ/mol
# GULP energy per Si atom -5572.316129 kJ/mol
# Density = 2.280386 g / cm^3
# Si number density = 22.855882 Si / 1000 Ang^3
#
#
#
# Elastic Constant Matrix: (Units=GPa)
#
#
# Indices 1 2 3 4 5 6 
#
# 1 37.9410 22.1026 25.7092 0.0000 18.5264 0.0000
# 2 22.1026 75.4395 8.0447 0.0000 6.4898 0.0000
# 3 25.7092 8.0447 69.0361 0.0000 36.9274 0.0000
# 4 0.0000 0.0000 0.0000 10.1713 0.0000 4.1471
# 5 18.5264 6.4898 36.9274 0.0000 36.0641 0.0000
# 6 0.0000 0.0000 0.0000 4.1471 0.0000 17.3785
#
#
#
# Elastic Compliance Matrix: (Units=1/GPa)
#
#
# Indices 1 2 3 4 5 6 
#
# 1 0.044695 -0.011122 -0.009148 0.000000 -0.011592 0.000000
# 2 -0.011122 0.016243 0.001672 0.000000 0.001078 0.000000
# 3 -0.009148 0.001672 0.033925 0.000000 -0.030339 0.000000
# 4 0.000000 0.000000 0.000000 0.108913 0.000000 -0.025990
# 5 -0.011592 0.001078 -0.030339 0.000000 0.064554 0.000000
# 6 0.000000 0.000000 0.000000 -0.025990 0.000000 0.063745
#
#
# Mechanical properties :
#
#
# Convention : Reuss Voigt Hill
#
# Bulk Modulus (GPa) = 17.34068 32.68109 25.01088
# Shear Modulus (GPa) = 12.87025 21.16013 17.01519
#
# Velocity S-wave (km/s) = 2.37556 3.04601 2.73143
# Velocity P-wave (km/s) = 3.88945 5.16727 4.57321
#
# Compressibility (1/GPa) = 0.05766786
#
# Stress axis : x y z
#
# Youngs Moduli (GPa) = 22.37393 61.56424 29.47657
#
# Poissons Ratio (x) = 0.68473 0.26965
# Poissons Ratio (y) = 0.24885 -0.04930
# Poissons Ratio (z) = 0.20468 -0.10296
#
# Static dielectric constant tensor:
#      x y z
#    x 1.893520 0.000000 -0.004580 
#    y 0.000000 1.846190 0.000000 
#    z -0.004580 0.000000 1.853090 
# 
# From -- ./inp_files/194708.got.cif
#   From: 2010.05.17/outbox.cif.g08.bks.cpg/sg15_98_cif.got.tgz:194708.got - 2010.06.03 18:47:42.
