data_PCOD9301700
_publ_section_title
;
Structure prediction by ZEFSAII (Michael W. Deem and Ramdas Pophale) SiO2 
 PCOD9301700
Probable space group: C 2/C
;
_chemical_formula_sum "Si O2"
_cell_formula_units_Z 44
_cell_length_a 14.779936
_cell_length_b 17.536670
_cell_length_c 8.802469
_cell_angle_alpha 90.000000
_cell_angle_beta 122.769966
_cell_angle_gamma 90.000000
_cell_volume 1918.416702
_symmetry_space_group_name_H-M "C 2/C"
_symmetry_group_IT_number 15
_symmetry_cell_setting 'monoclinic'
loop_
_space_group_symop_operation_xyz
x,y,z
-x,y,1/2-z
-x,-y,-z
x,-y,1/2+z
1/2+x,1/2+y,z
1/2-x,1/2+y,1/2-z
1/2-x,1/2-y,-z
1/2+x,1/2-y,1/2+z
loop_
_atom_site_type_symbol
_atom_site_label
_atom_site_fract_x
_atom_site_fract_y
_atom_site_fract_z
Si Si1 0.500000 0.726091 0.250000
Si Si2 0.905491 0.415464 0.294578
Si Si3 0.423173 0.530916 0.560768
Si Si4 0.021511 0.693482 0.104101
Si Si5 0.199199 0.581473 0.258301
Si Si6 0.202953 0.118862 0.460876
O O1 0.512172 0.763140 0.432419
O O2 0.615315 0.682680 0.343993
O O3 0.952975 0.383078 0.496002
O O4 0.863263 0.502719 0.263589
O O5 0.000000 0.408150 0.250000
O O6 0.794988 0.366202 0.169580
O O7 0.500000 0.570629 0.750000
O O8 0.500000 0.500000 0.500000
O O9 0.320366 0.580002 0.428702
O O10 0.371669 0.453254 0.574712
O O11 0.000000 0.730440 0.250000
O O12 0.137994 0.657785 0.241516
O O13 0.217962 0.588705 0.097023
#
# Coordination Sequence:
#
# PCOD9301700 Si02
#       6
#     4   8   8   8   8   8
#     4  12  26  54  72 100 154 200 262 278 360 448
#     4  11  23  43  73 110 146 186 235 307 385 429
#     4  11  21  38  63 103 140 178 234 294 371 425
#     4  12  27  45  72 107 143 196 245 306 358 429
#     4  11  23  39  73 108 141 183 241 305 375 434
#     4  11  23  43  75  99 141 206 231 300 361 439
#
# _framework density 22.935580000000002
#
# number of rings (size 3 to 8) (size 9 to 14) (size 15 to 20)
#    0.000    0.727    5.455    1.091    5.091    2.909 
#    1.636    7.273    0.000    0.000    0.000    0.000 
#    0.000    0.000    0.000    0.000    0.000    0.000 
#
# Total GULP energy -122471.253464 kJ/mol
# GULP energy per Si atom -5566.875157 kJ/mol
# Density = 2.288338 g / cm^3
# Si number density = 22.935580 Si / 1000 Ang^3
#
#
#
# Elastic Constant Matrix: (Units=GPa)
#
#
# Indices 1 2 3 4 5 6 
#
# 1 92.6157 33.7065 33.7601 0.0000 4.6856 0.0000
# 2 33.7065 49.4755 31.0087 0.0000 1.9846 0.0000
# 3 33.7601 31.0087 137.3929 0.0000 27.6115 0.0000
# 4 0.0000 0.0000 0.0000 38.0524 0.0000 14.4319
# 5 4.6856 1.9846 27.6115 0.0000 60.4298 0.0000
# 6 0.0000 0.0000 0.0000 14.4319 0.0000 48.9325
#
#
#
# Elastic Compliance Matrix: (Units=1/GPa)
#
#
# Indices 1 2 3 4 5 6 
#
# 1 0.014643 -0.009006 -0.001538 0.000000 -0.000137 0.000000
# 2 -0.009006 0.029265 -0.004778 0.000000 0.001920 0.000000
# 3 -0.001538 -0.004778 0.009557 0.000000 -0.004090 0.000000
# 4 0.000000 0.000000 0.000000 0.029589 0.000000 -0.008727
# 5 -0.000137 0.001920 -0.004090 0.000000 0.018365 0.000000
# 6 0.000000 0.000000 0.000000 -0.008727 0.000000 0.023010
#
#
# Mechanical properties :
#
#
# Convention : Reuss Voigt Hill
#
# Bulk Modulus (GPa) = 43.82016 52.93720 48.37868
# Shear Modulus (GPa) = 30.73524 41.55018 36.14271
#
# Velocity S-wave (km/s) = 3.66467 4.26091 3.97399
# Velocity P-wave (km/s) = 6.08717 6.88027 6.49583
#
# Compressibility (1/GPa) = 0.02282054
#
# Stress axis : x y z
#
# Youngs Moduli (GPa) = 68.29418 34.17006 104.63920
#
# Poissons Ratio (x) = 0.30775 0.16091
# Poissons Ratio (y) = 0.61508 0.49996
# Poissons Ratio (z) = 0.10502 0.16326
#
# Static dielectric constant tensor:
#      x y z
#    x 1.807200 0.000000 -0.104840 
#    y 0.000000 1.891550 0.000000 
#    z -0.104840 0.000000 2.386650 
# 
# From -- ./inp_files/41003.got.cif
#   From: 2010.05.17/outbox.cif.g08.bks.cpg/sg15_21_cif.got.tgz:41003.got - 2010.06.03 18:47:42.
