data_PCOD9301578
_publ_section_title
;
Structure prediction by ZEFSAII (Michael W. Deem and Ramdas Pophale) SiO2 
 PCOD9301578
Probable space group: C 2/C
;
_chemical_formula_sum "Si O2"
_cell_formula_units_Z 52
_cell_length_a 19.817590
_cell_length_b 16.695423
_cell_length_c 8.024853
_cell_angle_alpha 90.000000
_cell_angle_beta 124.152364
_cell_angle_gamma 90.000000
_cell_volume 2197.244263
_symmetry_space_group_name_H-M "C 2/C"
_symmetry_group_IT_number 15
_symmetry_cell_setting 'monoclinic'
loop_
_space_group_symop_operation_xyz
x,y,z
-x,y,1/2-z
-x,-y,-z
x,-y,1/2+z
1/2+x,1/2+y,z
1/2-x,1/2+y,1/2-z
1/2-x,1/2-y,-z
1/2+x,1/2-y,1/2+z
loop_
_atom_site_type_symbol
_atom_site_label
_atom_site_fract_x
_atom_site_fract_y
_atom_site_fract_z
Si Si1 0.060570 0.425832 0.588666
Si Si2 0.175291 0.204486 0.980728
Si Si3 0.000000 0.705787 0.250000
Si Si4 0.823371 0.490044 0.995885
Si Si5 0.560917 0.547662 0.974446
Si Si6 0.687978 0.406790 0.184891
Si Si7 0.185002 0.141012 0.342534
O O1 0.107216 0.429596 0.477491
O O2 0.000000 0.500000 0.500000
O O3 0.013482 0.351711 0.606108
O O4 0.133729 0.453646 0.810647
O O5 0.166645 0.126786 0.842124
O O6 0.086621 0.246882 0.871377
O O7 0.250000 0.250000 0.000000
O O8 0.208796 0.193160 0.215936
O O9 0.779160 0.557181 0.819881
O O10 0.747785 0.433130 0.932346
O O11 0.500000 0.579909 0.750000
O O12 0.500000 0.500000 0.000000
O O13 0.630973 0.480597 0.040632
O O14 0.599184 0.613144 0.147534
O O15 0.678195 0.339210 0.027938
#
# Coordination Sequence:
#
# PCOD9301578 Si02
#       7
#     8   8   4   8   8   8   8
#     4  12  23  43  76 105 137 177 245 330 375 425
#     4  12  29  49  70 102 162 203 245 293 378 478
#     4  12  28  48  72 110 152 204 240 304 394 454
#     4  11  21  42  71 111 143 172 260 326 368 423
#     4  11  21  36  64 105 143 171 242 304 347 407
#     4  11  24  42  70 105 143 198 244 298 364 439
#     4  11  24  42  72 103 141 203 237 301 372 430
#
# _framework density 23.666007
#
# number of rings (size 3 to 8) (size 9 to 14) (size 15 to 20)
#    0.000    0.615    4.615    3.692    7.538    0.615 
#    0.000    3.077    0.000    0.000    0.000    0.000 
#    0.000    0.000    0.000    0.000    0.000    0.000 
#
# Total GULP energy -144762.820077 kJ/mol
# GULP energy per Si atom -5567.800772 kJ/mol
# Density = 2.361214 g / cm^3
# Si number density = 23.666007 Si / 1000 Ang^3
#
#
#
# Elastic Constant Matrix: (Units=GPa)
#
#
# Indices 1 2 3 4 5 6 
#
# 1 82.1511 23.9125 -7.9296 0.0000 19.4471 0.0000
# 2 23.9125 69.6675 25.5765 0.0000 6.6309 0.0000
# 3 -7.9296 25.5765 103.0753 0.0000 20.0844 0.0000
# 4 0.0000 0.0000 0.0000 21.4342 0.0000 9.6861
# 5 19.4471 6.6309 20.0844 0.0000 32.0369 0.0000
# 6 0.0000 0.0000 0.0000 9.6861 0.0000 50.8164
#
#
#
# Elastic Compliance Matrix: (Units=1/GPa)
#
#
# Indices 1 2 3 4 5 6 
#
# 1 0.017774 -0.006930 0.005593 0.000000 -0.012861 0.000000
# 2 -0.006930 0.018519 -0.005925 0.000000 0.004088 0.000000
# 3 0.005593 -0.005925 0.013698 0.000000 -0.010756 0.000000
# 4 0.000000 0.000000 0.000000 0.051052 0.000000 -0.009731
# 5 -0.012861 0.004088 -0.010756 0.000000 0.044918 0.000000
# 6 0.000000 0.000000 0.000000 -0.009731 0.000000 0.021533
#
#
# Mechanical properties :
#
#
# Convention : Reuss Voigt Hill
#
# Bulk Modulus (GPa) = 28.19496 37.55696 32.87596
# Shear Modulus (GPa) = 25.79443 35.07981 30.43712
#
# Velocity S-wave (km/s) = 3.30500 3.85422 3.59013
# Velocity P-wave (km/s) = 5.14816 5.97585 5.57738
#
# Compressibility (1/GPa) = 0.03546733
#
# Stress axis : x y z
#
# Youngs Moduli (GPa) = 56.26088 53.99991 73.00368
#
# Poissons Ratio (x) = 0.37422 -0.40831
# Poissons Ratio (y) = 0.38989 0.43253
# Poissons Ratio (z) = -0.31467 0.31994
#
# Static dielectric constant tensor:
#      x y z
#    x 2.287680 0.000000 -0.272000 
#    y 0.000000 1.996060 0.000000 
#    z -0.272000 0.000000 1.894380 
# 
# From -- ./inp_files/57076.got.cif
#   From: 2010.05.17/outbox.cif.g08.bks.cpg/sg15_29_cif.got.tgz:57076.got - 2010.06.03 18:47:42.
