data_PCOD9301333
_publ_section_title
;
Structure prediction by ZEFSAII (Michael W. Deem and Ramdas Pophale) SiO2 
 PCOD9301333
Probable space group: C 2/C
;
_chemical_formula_sum "Si O2"
_cell_formula_units_Z 40
_cell_length_a 21.793453
_cell_length_b 17.286859
_cell_length_c 12.760975
_cell_angle_alpha 90.000000
_cell_angle_beta 24.197242
_cell_angle_gamma 90.000000
_cell_volume 1970.524308
_symmetry_space_group_name_H-M "C 2/C"
_symmetry_group_IT_number 15
_symmetry_cell_setting 'monoclinic'
loop_
_space_group_symop_operation_xyz
x,y,z
-x,y,1/2-z
-x,-y,-z
x,-y,1/2+z
1/2+x,1/2+y,z
1/2-x,1/2+y,1/2-z
1/2-x,1/2-y,-z
1/2+x,1/2-y,1/2+z
loop_
_atom_site_type_symbol
_atom_site_label
_atom_site_fract_x
_atom_site_fract_y
_atom_site_fract_z
Si Si1 0.005422 0.624169 0.115208
Si Si2 0.460177 0.425375 0.634790
Si Si3 0.919210 0.202918 0.030748
Si Si4 0.214643 0.961005 0.392317
Si Si5 0.797908 0.866751 0.536905
O O1 0.841652 0.618474 0.320444
O O2 0.000000 0.626346 0.250000
O O3 0.066046 0.706174 0.978070
O O4 0.116973 0.557573 0.902483
O O5 0.500000 0.500000 0.500000
O O6 0.415284 0.351080 0.637579
O O7 0.606761 0.415832 0.479662
O O8 0.326434 0.440732 0.924599
O O9 0.069902 0.170652 0.737939
O O10 0.784719 0.189239 0.157474
O O11 0.170283 0.051110 0.457479
#
# Coordination Sequence:
#
# PCOD9301333 Si02
#       5
#     8   8   8   8   8
#     4  12  26  39  63  98 139 167 211 279 336 378
#     4  11  20  41  69  90 125 170 224 263 314 393
#     4  11  22  39  70  91 123 180 224 264 314 396
#     4  11  24  40  64 101 124 171 221 271 324 389
#     4  11  21  41  62  97 128 166 226 259 321 401
#
# _framework density 20.299164999999999
#
# number of rings (size 3 to 8) (size 9 to 14) (size 15 to 20)
#    0.000    0.800    6.000    3.600    2.800    0.800 
#    0.000    1.000    0.000    0.000    0.000    0.000 
#    0.000    0.000    0.000    0.000    0.000    0.000 
#
# Total GULP energy -111621.778509 kJ/mol
# GULP energy per Si atom -5581.088925 kJ/mol
# Density = 2.025296 g / cm^3
# Si number density = 20.299165 Si / 1000 Ang^3
#
#
#
# Elastic Constant Matrix: (Units=GPa)
#
#
# Indices 1 2 3 4 5 6 
#
# 1 100.7176 -6.1115 13.8116 0.0001 -1.0405 -0.0001
# 2 -6.1115 52.7579 -13.4661 0.0000 13.0781 0.0000
# 3 13.8116 -13.4661 43.6736 -0.0004 -6.4226 0.0000
# 4 0.0001 0.0000 -0.0004 24.2621 0.0001 2.7238
# 5 -1.0405 13.0781 -6.4226 0.0001 37.9057 -0.0001
# 6 -0.0001 0.0000 0.0000 2.7238 -0.0001 24.4525
#
#
#
# Elastic Compliance Matrix: (Units=1/GPa)
#
#
# Indices 1 2 3 4 5 6 
#
# 1 0.010393 0.000494 -0.003197 0.000000 -0.000427 0.000000
# 2 0.000494 0.022111 0.005683 0.000000 -0.006652 0.000000
# 3 -0.003197 0.005683 0.026007 0.000000 0.002358 0.000000
# 4 0.000000 0.000000 0.000000 0.041739 0.000000 -0.004649
# 5 -0.000427 -0.006652 0.002358 0.000000 0.029064 0.000000
# 6 0.000000 0.000000 0.000000 -0.004649 0.000000 0.041413
#
#
# Mechanical properties :
#
#
# Convention : Reuss Voigt Hill
#
# Bulk Modulus (GPa) = 15.51088 20.62411 18.06750
# Shear Modulus (GPa) = 26.84444 30.85176 28.84810
#
# Velocity S-wave (km/s) = 3.64048 3.90276 3.77390
# Velocity P-wave (km/s) = 5.03275 5.52185 5.28296
#
# Compressibility (1/GPa) = 0.06447087
#
# Stress axis : x y z
#
# Youngs Moduli (GPa) = 96.22112 45.22567 38.45068
#
# Poissons Ratio (x) = -0.02232 0.12293
# Poissons Ratio (y) = -0.04750 -0.21853
# Poissons Ratio (z) = 0.30764 -0.25703
#
# Static dielectric constant tensor:
#      x y z
#    x 1.768340 0.000000 -0.028890 
#    y 0.000000 1.712260 0.000000 
#    z -0.028890 0.000000 1.739600 
# 
# From -- ./inp_files/87086.got.cif
#   From: 2010.05.17/outbox.cif.g08.bks.cpg/sg15_44_cif.got.tgz:87086.got - 2010.06.03 18:47:42.
