data_PCOD9301286
_publ_section_title
;
Structure prediction by ZEFSAII (Michael W. Deem and Ramdas Pophale) SiO2 
 PCOD9301286
Probable space group: C 2/C
;
_chemical_formula_sum "Si O2"
_cell_formula_units_Z 60
_cell_length_a 30.571431
_cell_length_b 20.419995
_cell_length_c 15.605743
_cell_angle_alpha 90.000000
_cell_angle_beta 17.365985
_cell_angle_gamma 90.000000
_cell_volume 2907.787688
_symmetry_space_group_name_H-M "C 2/C"
_symmetry_group_IT_number 15
_symmetry_cell_setting 'monoclinic'
loop_
_space_group_symop_operation_xyz
x,y,z
-x,y,1/2-z
-x,-y,-z
x,-y,1/2+z
1/2+x,1/2+y,z
1/2-x,1/2+y,1/2-z
1/2-x,1/2-y,-z
1/2+x,1/2-y,1/2+z
loop_
_atom_site_type_symbol
_atom_site_label
_atom_site_fract_x
_atom_site_fract_y
_atom_site_fract_z
Si Si1 0.115770 0.299535 0.760231
Si Si2 0.416440 0.434468 0.116989
Si Si3 0.000000 0.816113 0.250000
Si Si4 0.664127 0.268403 0.773134
Si Si5 0.607281 0.902497 0.622029
Si Si6 0.724576 0.396123 0.940891
Si Si7 0.302833 0.645825 0.443978
Si Si8 0.390925 0.024858 0.631239
O O1 0.250000 0.250000 0.500000
O O2 0.110652 0.345875 0.687044
O O3 0.140317 0.347298 0.794327
O O4 0.969683 0.258041 0.035073
O O5 0.273606 0.433501 0.319203
O O6 0.355432 0.401794 0.317797
O O7 0.500000 0.500000 0.000000
O O8 0.540006 0.388883 0.844846
O O9 0.907704 0.780470 0.499158
O O10 0.883012 0.862083 0.422531
O O11 0.717818 0.330679 0.616801
O O12 0.778889 0.208761 0.550123
O O13 0.500000 0.871767 0.750000
O O14 0.498215 0.959980 0.853677
O O15 0.776861 0.468528 0.821703
O O16 0.188550 0.590204 0.687197
O O17 0.500000 0.000000 0.500000
#
# Coordination Sequence:
#
# PCOD9301286 Si02
#       8
#     8   8   4   8   8   8   8   8
#     4  11  20  40  68  94 124 184 238 269 339 437
#     4  11  20  41  72  98 138 188 234 287 364 431
#     4  12  24  42  64 104 142 178 226 296 366 408
#     4  11  23  39  70  99 138 177 228 293 344 427
#     4  11  25  41  67 105 136 185 241 300 355 422
#     4  11  23  38  68  99 128 179 230 282 345 428
#     4  11  22  41  69 103 131 181 238 282 350 427
#     4  12  21  44  70  95 135 182 234 282 348 432
#
# _framework density 20.634243999999999
#
# number of rings (size 3 to 8) (size 9 to 14) (size 15 to 20)
#    0.000    0.800    8.000    0.800    0.933    1.067 
#    2.400    0.000    2.933    0.000    0.000    0.000 
#    0.000    0.000    0.000    0.000    0.000    0.000 
#
# Total GULP energy -167073.328623 kJ/mol
# GULP energy per Si atom -5569.110954 kJ/mol
# Density = 2.058728 g / cm^3
# Si number density = 20.634244 Si / 1000 Ang^3
#
#
#
# Elastic Constant Matrix: (Units=GPa)
#
#
# Indices 1 2 3 4 5 6 
#
# 1 109.6269 42.6640 42.9697 -0.0004 -14.6400 0.0023
# 2 42.6640 111.7881 54.2851 0.0001 -3.7208 0.0007
# 3 42.9697 54.2851 134.9472 -0.0025 -8.3330 0.0049
# 4 -0.0004 0.0001 -0.0025 30.1285 0.0022 -2.0061
# 5 -14.6400 -3.7208 -8.3330 0.0022 34.3372 -0.0053
# 6 0.0023 0.0007 0.0049 -2.0061 -0.0053 7.3841
#
#
#
# Elastic Compliance Matrix: (Units=1/GPa)
#
#
# Indices 1 2 3 4 5 6 
#
# 1 0.011819 -0.003318 -0.002172 0.000000 0.004152 0.000001
# 2 -0.003318 0.012049 -0.003855 0.000000 -0.001044 0.000002
# 3 -0.002172 -0.003855 0.009715 0.000000 0.001014 -0.000005
# 4 0.000000 0.000000 0.000000 0.033803 -0.000001 0.009184
# 5 0.004152 -0.001044 0.001014 -0.000001 0.031026 0.000020
# 6 0.000001 0.000002 -0.000005 0.009184 0.000020 0.137921
#
#
# Mechanical properties :
#
#
# Convention : Reuss Voigt Hill
#
# Bulk Modulus (GPa) = 67.14435 70.68887 68.91661
# Shear Modulus (GPa) = 19.23170 28.79952 24.01561
#
# Velocity S-wave (km/s) = 3.05623 3.73998 3.41526
# Velocity P-wave (km/s) = 6.71304 7.27890 7.00169
#
# Compressibility (1/GPa) = 0.01489329
#
# Stress axis : x y z
#
# Youngs Moduli (GPa) = 84.60948 82.99498 102.92935
#
# Poissons Ratio (x) = 0.27534 0.22361
# Poissons Ratio (y) = 0.28070 0.39679
# Poissons Ratio (z) = 0.18381 0.31995
#
# Static dielectric constant tensor:
#      x y z
#    x 1.700510 -0.000010 0.007670 
#    y -0.000010 1.785640 0.000000 
#    z 0.007670 0.000000 1.780040 
# 
# From -- ./inp_files/183061.got.cif
#   From: 2010.05.17/outbox.cif.g08.bks.cpg/sg15_92_cif.got.tgz:183061.got - 2010.06.03 18:47:42.
