data_PCOD9301321
_publ_section_title
;
Structure prediction by ZEFSAII (Michael W. Deem and Ramdas Pophale) SiO2 
 PCOD9301321
Probable space group: C 2/C
;
_chemical_formula_sum "Si O2"
_cell_formula_units_Z 48
_cell_length_a 21.382896
_cell_length_b 7.324588
_cell_length_c 16.751306
_cell_angle_alpha 90.000000
_cell_angle_beta 122.157755
_cell_angle_gamma 90.000000
_cell_volume 2221.106554
_symmetry_space_group_name_H-M "C 2/C"
_symmetry_group_IT_number 15
_symmetry_cell_setting 'monoclinic'
loop_
_space_group_symop_operation_xyz
x,y,z
-x,y,1/2-z
-x,-y,-z
x,-y,1/2+z
1/2+x,1/2+y,z
1/2-x,1/2+y,1/2-z
1/2-x,1/2-y,-z
1/2+x,1/2-y,1/2+z
loop_
_atom_site_type_symbol
_atom_site_label
_atom_site_fract_x
_atom_site_fract_y
_atom_site_fract_z
Si Si1 0.355460 0.840745 0.249895
Si Si2 0.376241 0.355701 0.458396
Si Si3 0.777404 0.701571 0.259990
Si Si4 0.029416 0.697461 0.545205
Si Si5 0.822950 0.761224 0.957885
Si Si6 0.683543 0.898368 0.455728
O O1 0.293809 0.688618 0.229790
O O2 0.433825 0.798457 0.341980
O O3 0.322985 0.018537 0.273823
O O4 0.354623 0.880351 0.156024
O O5 0.250000 0.250000 0.500000
O O6 0.331036 0.335640 0.345342
O O7 0.462384 0.340834 0.496980
O O8 0.364140 0.176820 0.503398
O O9 0.742577 0.756279 0.151500
O O10 0.099151 0.727056 0.534470
O O11 0.000000 0.500000 0.500000
O O12 0.838280 0.977500 0.981597
O O13 0.807094 0.612618 0.015651
#
# Coordination Sequence:
#
# PCOD9301321 Si02
#       6
#     8   8   8   8   8   8
#     4  11  24  40  69  98 131 181 227 285 351 413
#     4  12  23  43  69  98 138 179 233 287 345 413
#     4  11  20  41  66  96 128 179 234 278 336 417
#     4  11  22  43  71  93 129 183 234 282 339 420
#     4  11  25  42  69 102 137 179 238 282 345 421
#     4  12  25  42  66 103 145 175 221 297 356 403
#
# _framework density 21.610849999999999
#
# number of rings (size 3 to 8) (size 9 to 14) (size 15 to 20)
#    0.000    0.667    6.667    1.500    0.000    3.333 
#    0.000    0.000    3.667    0.000    0.000    0.000 
#    0.000    0.000    0.000    0.000    0.000    0.000 
#
# Total GULP energy -133871.991469 kJ/mol
# GULP energy per Si atom -5577.999645 kJ/mol
# Density = 2.156166 g / cm^3
# Si number density = 21.610850 Si / 1000 Ang^3
#
#
#
# Elastic Constant Matrix: (Units=GPa)
#
#
# Indices 1 2 3 4 5 6 
#
# 1 72.6052 42.2837 45.7553 0.0000 15.9564 0.0000
# 2 42.2837 120.0795 38.9856 0.0000 6.2366 0.0000
# 3 45.7553 38.9856 151.3998 0.0000 21.1788 0.0000
# 4 0.0000 0.0000 0.0000 24.4972 0.0000 -5.7784
# 5 15.9564 6.2366 21.1788 0.0000 37.3992 0.0000
# 6 0.0000 0.0000 0.0000 -5.7784 0.0000 60.8171
#
#
#
# Elastic Compliance Matrix: (Units=1/GPa)
#
#
# Indices 1 2 3 4 5 6 
#
# 1 0.020925 -0.005760 -0.004047 0.000000 -0.005676 0.000000
# 2 -0.005760 0.010674 -0.001198 0.000000 0.001356 0.000000
# 3 -0.004047 -0.001198 0.008544 0.000000 -0.002912 0.000000
# 4 0.000000 0.000000 0.000000 0.041757 0.000000 0.003967
# 5 -0.005676 0.001356 -0.002912 0.000000 0.030583 0.000000
# 6 0.000000 0.000000 0.000000 0.003967 0.000000 0.016820
#
#
# Mechanical properties :
#
#
# Convention : Reuss Voigt Hill
#
# Bulk Modulus (GPa) = 55.14218 66.45931 60.80075
# Shear Modulus (GPa) = 31.77507 39.01335 35.39421
#
# Velocity S-wave (km/s) = 3.83865 4.25345 4.05136
# Velocity P-wave (km/s) = 6.72446 7.41229 7.07673
#
# Compressibility (1/GPa) = 0.01813494
#
# Stress axis : x y z
#
# Youngs Moduli (GPa) = 47.78962 93.68192 117.04444
#
# Poissons Ratio (x) = 0.53958 0.47365
# Poissons Ratio (y) = 0.27526 0.14017
# Poissons Ratio (z) = 0.19339 0.11220
#
# Static dielectric constant tensor:
#      x y z
#    x 1.849450 0.000000 0.017250 
#    y 0.000000 1.872640 0.000000 
#    z 0.017250 0.000000 1.752550 
# 
# From -- ./inp_files/152745.got.cif
#   From: 2010.05.17/outbox.cif.g08.bks.cpg/sg15_77_cif.got.tgz:152745.got - 2010.06.03 18:47:42.
