data_PCOD9301238
_publ_section_title
;
Structure prediction by ZEFSAII (Michael W. Deem and Ramdas Pophale) SiO2 
 PCOD9301238
Probable space group: C 2/C
;
_chemical_formula_sum "Si O2"
_cell_formula_units_Z 44
_cell_length_a 21.996557
_cell_length_b 6.247551
_cell_length_c 15.177486
_cell_angle_alpha 90.000000
_cell_angle_beta 63.069733
_cell_angle_gamma 90.000000
_cell_volume 1859.576961
_symmetry_space_group_name_H-M "C 2/C"
_symmetry_group_IT_number 15
_symmetry_cell_setting 'monoclinic'
loop_
_space_group_symop_operation_xyz
x,y,z
-x,y,1/2-z
-x,-y,-z
x,-y,1/2+z
1/2+x,1/2+y,z
1/2-x,1/2+y,1/2-z
1/2-x,1/2-y,-z
1/2+x,1/2-y,1/2+z
loop_
_atom_site_type_symbol
_atom_site_label
_atom_site_fract_x
_atom_site_fract_y
_atom_site_fract_z
Si Si1 0.747940 0.245422 0.871612
Si Si2 0.576685 0.779059 0.327049
Si Si3 0.000000 0.999547 0.250000
Si Si4 0.388881 0.865052 0.842105
Si Si5 0.888730 0.523139 0.031427
Si Si6 0.167083 0.912843 0.344510
O O1 0.811761 0.274043 0.894381
O O2 0.690410 0.063059 0.915838
O O3 0.783851 0.216070 0.752698
O O4 0.708340 0.469010 0.893701
O O5 0.515151 0.652481 0.322618
O O6 0.600911 0.968624 0.245394
O O7 0.568249 0.878675 0.429193
O O8 0.633855 0.598043 0.306568
O O9 0.936770 0.840327 0.302195
O O10 0.409001 0.987576 0.917942
O O11 0.886761 0.757723 0.074178
#
# Coordination Sequence:
#
# PCOD9301238 Si02
#       6
#     8   8   4   8   8   8
#     4  11  20  39  69 103 140 182 222 280 352 411
#     4  11  24  45  71  98 135 187 226 285 347 398
#     4  12  26  48  74  94 140 192 234 290 338 414
#     4  12  26  46  69 102 139 183 240 285 345 413
#     4  11  25  42  71 108 139 181 229 289 348 416
#     4  11  20  40  69  97 143 178 220 282 347 408
#
# _framework density 23.661296
#
# number of rings (size 3 to 8) (size 9 to 14) (size 15 to 20)
#    0.000    0.727    5.455    2.182    0.000    4.364 
#    0.000    6.364    0.000    0.000    0.000    0.000 
#    0.000    0.000    0.000    0.000    0.000    0.000 
#
# Total GULP energy -123086.279216 kJ/mol
# GULP energy per Si atom -5594.830873 kJ/mol
# Density = 2.360744 g / cm^3
# Si number density = 23.661296 Si / 1000 Ang^3
#
#
#
# Elastic Constant Matrix: (Units=GPa)
#
#
# Indices 1 2 3 4 5 6 
#
# 1 137.4209 70.1455 34.3911 -0.0001 21.3677 0.0002
# 2 70.1455 108.7487 24.4275 -0.0001 -7.0110 0.0010
# 3 34.3911 24.4275 71.5232 0.0001 21.6117 0.0002
# 4 -0.0001 -0.0001 0.0001 15.8346 0.0000 3.9619
# 5 21.3677 -7.0110 21.6117 0.0000 31.6834 0.0000
# 6 0.0002 0.0010 0.0002 3.9619 0.0000 54.0570
#
#
#
# Elastic Compliance Matrix: (Units=1/GPa)
#
#
# Indices 1 2 3 4 5 6 
#
# 1 0.014143 -0.009925 0.000170 0.000000 -0.011850 0.000000
# 2 -0.009925 0.017814 -0.005700 0.000000 0.014524 0.000000
# 3 0.000170 -0.005700 0.020485 0.000000 -0.015349 0.000000
# 4 0.000000 0.000000 0.000000 0.064333 0.000000 -0.004715
# 5 -0.011850 0.014524 -0.015349 0.000000 0.053238 0.000000
# 6 0.000000 0.000000 0.000000 -0.004715 0.000000 0.018845
#
#
# Mechanical properties :
#
#
# Convention : Reuss Voigt Hill
#
# Bulk Modulus (GPa) = 46.44473 63.95788 55.20131
# Shear Modulus (GPa) = 22.03187 32.89689 27.46438
#
# Velocity S-wave (km/s) = 3.05476 3.73275 3.41065
# Velocity P-wave (km/s) = 5.66689 6.75775 6.23622
#
# Compressibility (1/GPa) = 0.02153097
#
# Stress axis : x y z
#
# Youngs Moduli (GPa) = 70.70632 56.13579 48.81734
#
# Poissons Ratio (x) = 0.55713 -0.00829
# Poissons Ratio (y) = 0.70174 0.27828
# Poissons Ratio (z) = -0.01201 0.31999
#
# Static dielectric constant tensor:
#      x y z
#    x 1.909640 0.000000 0.005060 
#    y 0.000000 1.866090 0.000000 
#    z 0.005060 0.000000 1.903310 
# 
# From -- ./inp_files/217690.got.cif
#   From: 2010.05.17/outbox.cif.g08.bks.cpg/sg15_109_cif.got.tgz:217690.got - 2010.06.03 18:47:42.
