data_PCOD9301695
_publ_section_title
;
Structure prediction by ZEFSAII (Michael W. Deem and Ramdas Pophale) SiO2 
 PCOD9301695
Probable space group: C 2/C
;
_chemical_formula_sum "Si O2"
_cell_formula_units_Z 48
_cell_length_a 18.688011
_cell_length_b 22.247150
_cell_length_c 8.172667
_cell_angle_alpha 90.000000
_cell_angle_beta 40.831338
_cell_angle_gamma 90.000000
_cell_volume 2221.616697
_symmetry_space_group_name_H-M "C 2/C"
_symmetry_group_IT_number 15
_symmetry_cell_setting 'monoclinic'
loop_
_space_group_symop_operation_xyz
x,y,z
-x,y,1/2-z
-x,-y,-z
x,-y,1/2+z
1/2+x,1/2+y,z
1/2-x,1/2+y,1/2-z
1/2-x,1/2-y,-z
1/2+x,1/2-y,1/2+z
loop_
_atom_site_type_symbol
_atom_site_label
_atom_site_fract_x
_atom_site_fract_y
_atom_site_fract_z
Si Si1 0.769587 0.834425 0.542034
Si Si2 0.535585 0.318749 0.526370
Si Si3 0.164581 0.238026 0.288105
Si Si4 0.617956 0.136189 0.007991
Si Si5 0.619138 0.441202 0.958638
Si Si6 0.832787 0.074879 0.510721
O O1 0.869881 0.806310 0.265525
O O2 0.757701 0.786512 0.704084
O O3 0.673314 0.848571 0.585667
O O4 0.804792 0.895950 0.571072
O O5 0.426170 0.311123 0.605973
O O6 0.593382 0.377168 0.515102
O O7 0.500000 0.281707 0.750000
O O8 0.105607 0.299770 0.438743
O O9 0.250000 0.250000 0.000000
O O10 0.500000 0.108274 0.250000
O O11 0.708142 0.097940 0.750742
O O12 0.651899 0.510109 0.934614
O O13 0.629652 0.430931 0.744145
O O14 0.500000 0.433083 0.250000
#
# Coordination Sequence:
#
# PCOD9301695 Si02
#       6
#     8   8   8   8   8   8
#     4  11  23  42  64  94 128 167 219 276 333 394
#     4  11  21  38  62  92 131 168 206 261 329 394
#     4  12  24  39  63  96 133 174 219 272 333 399
#     4  11  25  45  65  90 130 182 230 275 325 391
#     4  12  23  41  72 105 136 169 210 274 349 410
#     4  11  24  43  67 103 135 170 221 274 334 406
#
# _framework density 21.605889000000001
#
# number of rings (size 3 to 8) (size 9 to 14) (size 15 to 20)
#    0.000    0.667    0.000   11.000    0.000    2.667 
#    0.000    5.833    0.000    0.000    0.000    0.000 
#    0.000    0.000    0.000    0.000    0.000    0.000 
#
# Total GULP energy -133994.493121 kJ/mol
# GULP energy per Si atom -5583.103880 kJ/mol
# Density = 2.155671 g / cm^3
# Si number density = 21.605889 Si / 1000 Ang^3
#
#
#
# Elastic Constant Matrix: (Units=GPa)
#
#
# Indices 1 2 3 4 5 6 
#
# 1 120.9447 37.7610 71.3539 0.0000 10.9079 0.0000
# 2 37.7610 100.8219 49.0478 0.0000 7.5483 0.0000
# 3 71.3539 49.0478 173.1542 0.0000 10.7683 0.0000
# 4 0.0000 0.0000 0.0000 23.8543 0.0000 13.7532
# 5 10.9079 7.5483 10.7683 0.0000 51.2788 0.0000
# 6 0.0000 0.0000 0.0000 13.7532 0.0000 36.9984
#
#
#
# Elastic Compliance Matrix: (Units=1/GPa)
#
#
# Indices 1 2 3 4 5 6 
#
# 1 0.011444 -0.002245 -0.004001 0.000000 -0.001264 0.000000
# 2 -0.002245 0.011997 -0.002425 0.000000 -0.000779 0.000000
# 3 -0.004001 -0.002425 0.008142 0.000000 -0.000502 0.000000
# 4 0.000000 0.000000 0.000000 0.053356 0.000000 -0.019834
# 5 -0.001264 -0.000779 -0.000502 0.000000 0.019990 0.000000
# 6 0.000000 0.000000 0.000000 -0.019834 0.000000 0.034401
#
#
# Mechanical properties :
#
#
# Convention : Reuss Voigt Hill
#
# Bulk Modulus (GPa) = 70.21927 79.02735 74.62331
# Shear Modulus (GPa) = 30.97523 38.21018 34.59271
#
# Velocity S-wave (km/s) = 3.79046 4.20993 4.00569
# Velocity P-wave (km/s) = 7.19218 7.76450 7.48381
#
# Compressibility (1/GPa) = 0.01424111
#
# Stress axis : x y z
#
# Youngs Moduli (GPa) = 87.38392 83.35263 122.81816
#
# Poissons Ratio (x) = 0.18712 0.49143
# Poissons Ratio (y) = 0.19617 0.29781
# Poissons Ratio (z) = 0.34965 0.20211
#
# Static dielectric constant tensor:
#      x y z
#    x 1.845350 0.000000 0.001840 
#    y 0.000000 1.877990 0.000000 
#    z 0.001840 0.000000 1.851440 
# 
# From -- ./inp_files/58394.got.cif
#   From: 2010.05.17/outbox.cif.g08.bks.cpg/sg15_30_cif.got.tgz:58394.got - 2010.06.03 18:47:42.
