data_PCOD9301891
_publ_section_title
;
Structure prediction by ZEFSAII (Michael W. Deem and Ramdas Pophale) SiO2 
 PCOD9301891
Probable space group: C 2/C
;
_chemical_formula_sum "Si O2"
_cell_formula_units_Z 60
_cell_length_a 26.160115
_cell_length_b 13.350557
_cell_length_c 9.704794
_cell_angle_alpha 90.000000
_cell_angle_beta 119.379587
_cell_angle_gamma 90.000000
_cell_volume 2953.501905
_symmetry_space_group_name_H-M "C 2/C"
_symmetry_group_IT_number 15
_symmetry_cell_setting 'monoclinic'
loop_
_space_group_symop_operation_xyz
x,y,z
-x,y,1/2-z
-x,-y,-z
x,-y,1/2+z
1/2+x,1/2+y,z
1/2-x,1/2+y,1/2-z
1/2-x,1/2-y,-z
1/2+x,1/2-y,1/2+z
loop_
_atom_site_type_symbol
_atom_site_label
_atom_site_fract_x
_atom_site_fract_y
_atom_site_fract_z
Si Si1 0.372463 0.712995 0.635056
Si Si2 0.189244 0.306945 0.695051
Si Si3 0.095465 0.598597 0.898362
Si Si4 0.747469 0.843945 0.393029
Si Si5 0.489717 0.883843 0.458574
Si Si6 0.732367 0.442192 0.512046
Si Si7 0.335997 0.903540 0.430850
Si Si8 0.500000 0.246877 0.250000
O O1 0.357954 0.778981 0.751134
O O2 0.327146 0.621490 0.580974
O O3 0.355310 0.791368 0.493304
O O4 0.440917 0.691367 0.704906
O O5 0.154955 0.345651 0.517037
O O6 0.223843 0.207399 0.702791
O O7 0.233392 0.389756 0.814046
O O8 0.044977 0.640364 0.933449
O O9 0.068547 0.618088 0.712804
O O10 0.000000 0.500000 0.000000
O O11 0.750000 0.750000 0.500000
O O12 0.687911 0.895626 0.256635
O O13 0.781933 0.940896 0.491164
O O14 0.386996 0.983323 0.538385
O O15 0.489754 0.821353 0.599723
O O16 0.780530 0.432637 0.454310
#
# Coordination Sequence:
#
# PCOD9301891 Si02
#       8
#     8   8   8   8   8   8   8   4
#     4  11  22  41  66  91 128 186 227 276 342 410
#     4  11  21  42  64  93 135 177 219 283 348 405
#     4  11  23  38  66  93 141 179 221 282 357 406
#     4  12  25  37  65 105 132 173 228 275 352 427
#     4  11  23  39  57  99 135 182 225 284 338 418
#     4  11  23  41  67  94 136 179 220 285 360 408
#     4  11  21  40  63  96 137 175 222 275 357 426
#     4  12  24  40  68  92 134 190 252 276 334 426
#
# _framework density 20.314867
#
# number of rings (size 3 to 8) (size 9 to 14) (size 15 to 20)
#    0.000    0.800    5.333    4.000    1.867    3.200 
#    0.000    0.000    0.000    2.400    0.000    0.000 
#    0.000    0.000    0.000    0.000    0.000    0.000 
#
# Total GULP energy -167395.635528 kJ/mol
# GULP energy per Si atom -5579.854518 kJ/mol
# Density = 2.026863 g / cm^3
# Si number density = 20.314867 Si / 1000 Ang^3
#
#
#
# Elastic Constant Matrix: (Units=GPa)
#
#
# Indices 1 2 3 4 5 6 
#
# 1 119.9865 33.9075 36.4931 0.0000 19.6656 0.0000
# 2 33.9075 118.3185 43.1366 0.0000 14.0027 0.0000
# 3 36.4931 43.1366 148.7318 0.0000 7.4851 0.0000
# 4 0.0000 0.0000 0.0000 34.1745 0.0000 5.0839
# 5 19.6656 14.0027 7.4851 0.0000 30.3884 0.0000
# 6 0.0000 0.0000 0.0000 5.0839 0.0000 27.8864
#
#
#
# Elastic Compliance Matrix: (Units=1/GPa)
#
#
# Indices 1 2 3 4 5 6 
#
# 1 0.010223 -0.001647 -0.001758 0.000000 -0.005424 0.000000
# 2 -0.001647 0.010152 -0.002388 0.000000 -0.003024 0.000000
# 3 -0.001758 -0.002388 0.007832 0.000000 0.000309 0.000000
# 4 0.000000 0.000000 0.000000 0.030077 0.000000 -0.005483
# 5 -0.005424 -0.003024 0.000309 0.000000 0.037735 0.000000
# 6 0.000000 0.000000 0.000000 -0.005483 0.000000 0.036859
#
#
# Mechanical properties :
#
#
# Convention : Reuss Voigt Hill
#
# Bulk Modulus (GPa) = 60.16251 68.23459 64.19855
# Shear Modulus (GPa) = 33.33213 36.72317 35.02765
#
# Velocity S-wave (km/s) = 4.05504 4.25632 4.15690
# Velocity P-wave (km/s) = 7.18358 7.60371 7.39663
#
# Compressibility (1/GPa) = 0.01662165
#
# Stress axis : x y z
#
# Youngs Moduli (GPa) = 97.81568 98.49959 127.68299
#
# Poissons Ratio (x) = 0.16223 0.22444
# Poissons Ratio (y) = 0.16110 0.30493
# Poissons Ratio (z) = 0.17194 0.23523
#
# Static dielectric constant tensor:
#      x y z
#    x 1.821790 0.000000 -0.007530 
#    y 0.000000 1.705020 0.000000 
#    z -0.007530 0.000000 1.825940 
# 
# From -- ./inp_files/122675.got.cif
#   From: 2010.05.17/outbox.cif.g08.bks.cpg/sg15_62_cif.got.tgz:122675.got - 2010.06.03 18:47:42.
