data_PCOD9301431
_publ_section_title
;
Structure prediction by ZEFSAII (Michael W. Deem and Ramdas Pophale) SiO2 
 PCOD9301431
Probable space group: C 2/C
;
_chemical_formula_sum "Si O2"
_cell_formula_units_Z 44
_cell_length_a 17.559566
_cell_length_b 8.605896
_cell_length_c 14.743174
_cell_angle_alpha 90.000000
_cell_angle_beta 61.221093
_cell_angle_gamma 90.000000
_cell_volume 1952.741888
_symmetry_space_group_name_H-M "C 2/C"
_symmetry_group_IT_number 15
_symmetry_cell_setting 'monoclinic'
loop_
_space_group_symop_operation_xyz
x,y,z
-x,y,1/2-z
-x,-y,-z
x,-y,1/2+z
1/2+x,1/2+y,z
1/2-x,1/2+y,1/2-z
1/2-x,1/2-y,-z
1/2+x,1/2-y,1/2+z
loop_
_atom_site_type_symbol
_atom_site_label
_atom_site_fract_x
_atom_site_fract_y
_atom_site_fract_z
Si Si1 0.876332 0.663497 0.173650
Si Si2 0.599699 0.365020 0.666401
Si Si3 0.000000 0.597638 0.250000
Si Si4 0.275007 0.121193 0.809786
Si Si5 0.085494 0.400935 0.037969
Si Si6 0.757831 0.933409 0.485794
O O1 0.807847 0.796490 0.187136
O O2 0.823746 0.504644 0.221053
O O3 0.927645 0.692977 0.237585
O O4 0.940360 0.632984 0.051035
O O5 0.500000 0.388800 0.750000
O O6 0.654982 0.254253 0.702681
O O7 0.600781 0.267061 0.572776
O O8 0.655280 0.517027 0.615227
O O9 0.034859 0.488640 0.148240
O O10 0.247642 0.023251 0.914672
O O11 0.175632 0.494650 0.980523
O O12 0.750000 0.750000 0.500000
#
# Coordination Sequence:
#
# PCOD9301431 Si02
#       6
#     8   8   4   8   8   8
#     4  12  24  42  74 108 152 199 255 309 382 444
#     4  11  20  44  75 108 147 188 250 320 377 448
#     4  12  24  42  72 116 146 194 262 312 368 460
#     4  11  24  43  72 107 149 203 252 306 383 454
#     4  11  21  43  72 104 147 198 249 310 382 444
#     4  11  23  44  72 106 148 198 252 316 382 453
#
# _framework density 22.532418
#
# number of rings (size 3 to 8) (size 9 to 14) (size 15 to 20)
#    0.000    0.727    8.182    1.636    2.545    0.000 
#    1.636    0.000    0.000    2.182    0.000    0.000 
#    0.000    0.000    0.000    0.000    0.000    0.000 
#
# Total GULP energy -122969.967361 kJ/mol
# GULP energy per Si atom -5589.543971 kJ/mol
# Density = 2.248113 g / cm^3
# Si number density = 22.532418 Si / 1000 Ang^3
#
#
#
# Elastic Constant Matrix: (Units=GPa)
#
#
# Indices 1 2 3 4 5 6 
#
# 1 128.0474 61.6111 58.2429 0.0000 11.0040 0.0000
# 2 61.6111 132.3378 49.1052 0.0000 -12.5855 0.0000
# 3 58.2429 49.1052 108.5191 0.0000 7.9177 0.0000
# 4 0.0000 0.0000 0.0000 9.4113 0.0000 -6.7400
# 5 11.0040 -12.5855 7.9177 0.0000 51.7605 0.0000
# 6 0.0000 0.0000 0.0000 -6.7400 0.0000 15.6913
#
#
#
# Elastic Compliance Matrix: (Units=1/GPa)
#
#
# Indices 1 2 3 4 5 6 
#
# 1 0.012109 -0.004311 -0.004332 0.000000 -0.002960 0.000000
# 2 -0.004311 0.011058 -0.002986 0.000000 0.004062 0.000000
# 3 -0.004332 -0.002986 0.013022 0.000000 -0.001797 0.000000
# 4 0.000000 0.000000 0.000000 0.153463 0.000000 0.065918
# 5 -0.002960 0.004062 -0.001797 0.000000 0.021212 0.000000
# 6 0.000000 0.000000 0.000000 0.065918 0.000000 0.092043
#
#
# Mechanical properties :
#
#
# Convention : Reuss Voigt Hill
#
# Bulk Modulus (GPa) = 77.33966 78.53587 77.93776
# Shear Modulus (GPa) = 15.12968 28.70229 21.91598
#
# Velocity S-wave (km/s) = 2.59407 3.57294 3.12210
# Velocity P-wave (km/s) = 6.58563 7.20773 6.90369
#
# Compressibility (1/GPa) = 0.01292998
#
# Stress axis : x y z
#
# Youngs Moduli (GPa) = 82.58379 90.43199 76.79095
#
# Poissons Ratio (x) = 0.38990 0.33266
# Poissons Ratio (y) = 0.35606 0.22931
# Poissons Ratio (z) = 0.35775 0.27005
#
# Static dielectric constant tensor:
#      x y z
#    x 1.892850 0.000000 0.015520 
#    y 0.000000 1.824280 0.000000 
#    z 0.015520 0.000000 1.884680 
# 
# From -- ./inp_files/159669.got.cif
#   From: 2010.05.17/outbox.cif.g08.bks.cpg/sg15_80_cif.got.tgz:159669.got - 2010.06.03 18:47:42.
