data_PCOD9301756
_publ_section_title
;
Structure prediction by ZEFSAII (Michael W. Deem and Ramdas Pophale) SiO2 
 PCOD9301756
Probable space group: C 2/C
;
_chemical_formula_sum "Si O2"
_cell_formula_units_Z 56
_cell_length_a 9.235534
_cell_length_b 28.120019
_cell_length_c 11.855910
_cell_angle_alpha 90.000000
_cell_angle_beta 62.989372
_cell_angle_gamma 90.000000
_cell_volume 2743.167602
_symmetry_space_group_name_H-M "C 2/C"
_symmetry_group_IT_number 15
_symmetry_cell_setting 'monoclinic'
loop_
_space_group_symop_operation_xyz
x,y,z
-x,y,1/2-z
-x,-y,-z
x,-y,1/2+z
1/2+x,1/2+y,z
1/2-x,1/2+y,1/2-z
1/2-x,1/2-y,-z
1/2+x,1/2-y,1/2+z
loop_
_atom_site_type_symbol
_atom_site_label
_atom_site_fract_x
_atom_site_fract_y
_atom_site_fract_z
Si Si1 0.732484 0.090575 0.589873
Si Si2 0.692020 0.010677 0.430986
Si Si3 0.555258 0.247907 0.598834
Si Si4 0.531299 0.645205 0.374533
Si Si5 0.014141 0.352385 0.471151
Si Si6 0.686865 0.410857 0.179655
Si Si7 0.154259 0.407737 0.770509
O O1 0.730635 0.039912 0.529239
O O2 0.578769 0.120424 0.598351
O O3 0.747578 0.084101 0.716479
O O4 0.886797 0.119541 0.490372
O O5 0.719494 0.046937 0.317241
O O6 0.500000 0.000000 0.500000
O O7 0.789156 0.961988 0.386733
O O8 0.500000 0.240175 0.750000
O O9 0.750000 0.250000 0.500000
O O10 0.478276 0.298884 0.595553
O O11 0.491040 0.203103 0.551627
O O12 0.500000 0.640634 0.250000
O O13 0.698373 0.618509 0.342981
O O14 0.194554 0.372649 0.418058
O O15 0.912920 0.369497 0.615103
O O16 0.500000 0.396804 0.250000
O O17 0.000000 0.421900 0.750000
#
# Coordination Sequence:
#
# PCOD9301756 Si02
#       7
#     8   8   8   8   8   8   8
#     4  11  23  42  68  90 133 167 218 277 329 379
#     4  11  24  41  66  94 125 175 229 267 332 395
#     4  11  21  38  72 105 129 167 232 286 341 400
#     4  11  21  42  67 100 125 167 222 279 326 396
#     4  11  22  44  65  97 130 172 219 275 332 394
#     4  12  28  41  62  98 136 173 219 264 334 404
#     4  11  25  42  66  91 136 173 217 274 337 397
#
# _framework density 20.414356999999999
#
# number of rings (size 3 to 8) (size 9 to 14) (size 15 to 20)
#    0.000    0.857    7.143    2.143    6.000    0.571 
#    0.000    1.429    0.000    0.000    0.000    0.000 
#    0.000    0.000    0.000    0.000    0.000    0.000 
#
# Total GULP energy -156557.615880 kJ/mol
# GULP energy per Si atom -5591.343424 kJ/mol
# Density = 2.036789 g / cm^3
# Si number density = 20.414357 Si / 1000 Ang^3
#
#
#
# Elastic Constant Matrix: (Units=GPa)
#
#
# Indices 1 2 3 4 5 6 
#
# 1 77.0874 16.0417 15.7231 0.0000 -29.6011 0.0000
# 2 16.0417 118.7804 25.2177 0.0000 -29.0710 0.0000
# 3 15.7231 25.2177 61.1943 0.0000 -19.5509 0.0000
# 4 0.0000 0.0000 0.0000 19.2389 0.0000 -4.0460
# 5 -29.6011 -29.0710 -19.5509 0.0000 47.7446 0.0000
# 6 0.0000 0.0000 0.0000 -4.0460 0.0000 20.3527
#
#
#
# Elastic Compliance Matrix: (Units=1/GPa)
#
#
# Indices 1 2 3 4 5 6 
#
# 1 0.017121 0.000505 -0.001286 0.000000 0.010396 0.000000
# 2 0.000505 0.010245 -0.002599 0.000000 0.005487 0.000000
# 3 -0.001286 -0.002599 0.019539 0.000000 0.005621 0.000000
# 4 0.000000 0.000000 0.000000 0.054246 0.000000 0.010784
# 5 0.010396 0.005487 0.005621 0.000000 0.033033 0.000000
# 6 0.000000 0.000000 0.000000 0.010784 0.000000 0.051277
#
#
# Mechanical properties :
#
#
# Convention : Reuss Voigt Hill
#
# Bulk Modulus (GPa) = 24.90873 41.22521 33.06697
# Shear Modulus (GPa) = 24.31871 30.80588 27.56230
#
# Velocity S-wave (km/s) = 3.45520 3.88884 3.67842
# Velocity P-wave (km/s) = 5.30528 6.35627 5.85440
#
# Compressibility (1/GPa) = 0.04014657
#
# Stress axis : x y z
#
# Youngs Moduli (GPa) = 58.40617 97.60487 51.18068
#
# Poissons Ratio (x) = -0.04930 0.06581
# Poissons Ratio (y) = -0.02950 0.13300
# Poissons Ratio (z) = 0.07510 0.25365
#
# Static dielectric constant tensor:
#      x y z
#    x 1.731220 0.000000 0.012250 
#    y 0.000000 1.697070 0.000000 
#    z 0.012250 0.000000 1.739890 
# 
# From -- ./inp_files/81280.got.cif
#   From: 2010.05.17/outbox.cif.g08.bks.cpg/sg15_41_cif.got.tgz:81280.got - 2010.06.03 18:47:42.
