data_PCOD9301492
_publ_section_title
;
Structure prediction by ZEFSAII (Michael W. Deem and Ramdas Pophale) SiO2 
 PCOD9301492
Probable space group: C 2/C
;
_chemical_formula_sum "Si O2"
_cell_formula_units_Z 60
_cell_length_a 15.183125
_cell_length_b 27.663589
_cell_length_c 14.121370
_cell_angle_alpha 90.000000
_cell_angle_beta 149.249242
_cell_angle_gamma 90.000000
_cell_volume 3032.676603
_symmetry_space_group_name_H-M "C 2/C"
_symmetry_group_IT_number 15
_symmetry_cell_setting 'monoclinic'
loop_
_space_group_symop_operation_xyz
x,y,z
-x,y,1/2-z
-x,-y,-z
x,-y,1/2+z
1/2+x,1/2+y,z
1/2-x,1/2+y,1/2-z
1/2-x,1/2-y,-z
1/2+x,1/2-y,1/2+z
loop_
_atom_site_type_symbol
_atom_site_label
_atom_site_fract_x
_atom_site_fract_y
_atom_site_fract_z
Si Si1 0.500000 0.282401 0.250000
Si Si2 0.916382 0.996522 0.775469
Si Si3 0.209028 0.723096 0.600031
Si Si4 0.912852 0.162665 0.019571
Si Si5 0.730752 0.157247 0.045370
Si Si6 0.447645 0.055889 0.596593
Si Si7 0.084689 0.270356 0.554345
Si Si8 0.317887 0.436290 0.347988
O O1 0.644182 0.307285 0.317779
O O2 0.599661 0.248470 0.416595
O O3 0.729744 0.970326 0.596844
O O4 0.000000 0.005137 0.750000
O O5 0.877371 0.043969 0.801538
O O6 0.056578 0.963908 0.961242
O O7 0.292611 0.765611 0.741113
O O8 0.079652 0.700976 0.556782
O O9 0.775015 0.167031 0.977233
O O10 0.090043 0.146944 0.234484
O O11 0.943820 0.214380 0.999886
O O12 0.852580 0.120328 0.895037
O O13 0.655230 0.203533 0.028127
O O14 0.606636 0.111930 0.943377
O O15 0.500000 0.038358 0.750000
O O16 0.617944 0.051921 0.688543
#
# Coordination Sequence:
#
# PCOD9301492 Si02
#       8
#     4   8   8   8   8   8   8   8
#     4   8  16  34  54  76  96 138 198 282 310 352
#     4  11  22  43  69  98 130 164 220 268 335 395
#     4   9  18  32  56  78 106 142 213 260 313 364
#     4  11  22  40  56  85 133 173 212 256 320 380
#     4  11  23  37  58  88 132 169 212 258 308 389
#     4  12  22  39  66  99 132 170 216 265 322 400
#     4  11  21  35  54  89 122 171 208 263 310 371
#     4  11  24  40  69  97 127 178 210 271 329 394
#
# _framework density 19.784503999999998
#
# number of rings (size 3 to 8) (size 9 to 14) (size 15 to 20)
#    0.000    1.333    5.333    0.800    1.867    0.000 
#    2.400    0.000    8.800    0.000    1.733    0.000 
#    0.000    0.000    0.000    0.000    0.000    0.000 
#
# Total GULP energy -167247.385078 kJ/mol
# GULP energy per Si atom -5574.912836 kJ/mol
# Density = 1.973947 g / cm^3
# Si number density = 19.784504 Si / 1000 Ang^3
#
#
#
# Elastic Constant Matrix: (Units=GPa)
#
#
# Indices 1 2 3 4 5 6 
#
# 1 142.7324 66.8384 49.6729 0.0000 20.3460 0.0000
# 2 66.8384 77.9736 29.0271 0.0000 -0.0633 0.0000
# 3 49.6729 29.0271 102.1213 0.0000 10.3178 0.0000
# 4 0.0000 0.0000 0.0000 13.6288 0.0000 5.5497
# 5 20.3460 -0.0633 10.3178 0.0000 37.4917 0.0000
# 6 0.0000 0.0000 0.0000 5.5497 0.0000 25.1566
#
#
#
# Elastic Compliance Matrix: (Units=1/GPa)
#
#
# Indices 1 2 3 4 5 6 
#
# 1 0.014248 -0.011070 -0.003087 0.000000 -0.006901 0.000000
# 2 -0.011070 0.022994 -0.001813 0.000000 0.006545 0.000000
# 3 -0.003087 -0.001813 0.011973 0.000000 -0.001623 0.000000
# 4 0.000000 0.000000 0.000000 0.080616 0.000000 -0.017784
# 5 -0.006901 0.006545 -0.001623 0.000000 0.030875 0.000000
# 6 0.000000 0.000000 0.000000 -0.017784 0.000000 0.043674
#
#
# Mechanical properties :
#
#
# Convention : Reuss Voigt Hill
#
# Bulk Modulus (GPa) = 57.88161 68.21159 63.04660
# Shear Modulus (GPa) = 20.65462 27.07465 23.86463
#
# Velocity S-wave (km/s) = 3.23457 3.70331 3.47685
# Velocity P-wave (km/s) = 6.57795 7.26898 6.93208
#
# Compressibility (1/GPa) = 0.01727665
#
# Stress axis : x y z
#
# Youngs Moduli (GPa) = 70.18701 43.49013 83.52255
#
# Poissons Ratio (x) = 0.48142 0.25779
# Poissons Ratio (y) = 0.77694 0.15140
# Poissons Ratio (z) = 0.21663 0.07883
#
# Static dielectric constant tensor:
#      x y z
#    x 1.725880 0.000000 0.046320 
#    y 0.000000 1.674080 0.000000 
#    z 0.046320 0.000000 1.795250 
# 
# From -- ./inp_files/157542.got.cif
#   From: 2010.05.17/outbox.cif.g08.bks.cpg/sg15_79_cif.got.tgz:157542.got - 2010.06.03 18:47:42.
