data_PCOD9301354
_publ_section_title
;
Structure prediction by ZEFSAII (Michael W. Deem and Ramdas Pophale) SiO2 
 PCOD9301354
Probable space group: C 2/C
;
_chemical_formula_sum "Si O2"
_cell_formula_units_Z 56
_cell_length_a 8.871555
_cell_length_b 28.858988
_cell_length_c 16.468716
_cell_angle_alpha 90.000000
_cell_angle_beta 41.140303
_cell_angle_gamma 90.000000
_cell_volume 2773.983518
_symmetry_space_group_name_H-M "C 2/C"
_symmetry_group_IT_number 15
_symmetry_cell_setting 'monoclinic'
loop_
_space_group_symop_operation_xyz
x,y,z
-x,y,1/2-z
-x,-y,-z
x,-y,1/2+z
1/2+x,1/2+y,z
1/2-x,1/2+y,1/2-z
1/2-x,1/2-y,-z
1/2+x,1/2-y,1/2+z
loop_
_atom_site_type_symbol
_atom_site_label
_atom_site_fract_x
_atom_site_fract_y
_atom_site_fract_z
Si Si1 0.472355 0.604869 0.003376
Si Si2 0.232136 0.605027 0.342680
Si Si3 0.290070 0.175393 0.275452
Si Si4 0.603321 0.934531 0.066823
Si Si5 0.557746 0.964530 0.635255
Si Si6 0.320490 0.141112 0.749301
Si Si7 0.490505 0.762334 0.354325
O O1 0.685911 0.578293 0.958496
O O2 0.571813 0.637328 0.890930
O O3 0.371294 0.638074 0.113777
O O4 0.277673 0.569460 0.051513
O O5 0.500000 0.610287 0.250000
O O6 0.142809 0.651941 0.337371
O O7 0.137811 0.589332 0.466703
O O8 0.155001 0.564883 0.312067
O O9 0.500000 0.181650 0.250000
O O10 0.159401 0.222411 0.314273
O O11 0.373680 0.908984 0.189924
O O12 0.592619 0.989671 0.068576
O O13 0.500000 0.980067 0.750000
O O14 0.500000 0.143411 0.750000
O O15 0.400680 0.186955 0.668172
O O16 0.500000 0.759849 0.250000
O O17 0.250000 0.750000 0.500000
#
# Coordination Sequence:
#
# PCOD9301354 Si02
#       7
#     8   8   8   8   8   8   8
#     4  11  20  42  65  93 135 175 219 274 331 404
#     4  12  23  40  63  95 129 168 228 280 327 397
#     4  12  23  43  70  97 132 175 225 281 332 406
#     4  11  23  38  65  95 130 173 225 270 335 397
#     4  12  22  41  63  97 131 178 224 272 336 409
#     4   9  21  40  61  94 133 170 215 275 332 400
#     4  11  24  43  73 104 135 178 233 278 344 408
#
# _framework density 20.187574000000001
#
# number of rings (size 3 to 8) (size 9 to 14) (size 15 to 20)
#    0.000    0.857    4.286    5.143    2.000    1.143 
#    0.000    5.000    0.000    0.000    0.000    0.000 
#    0.000    0.000    0.000    0.000    0.000    0.000 
#
# Total GULP energy -156135.906495 kJ/mol
# GULP energy per Si atom -5576.282375 kJ/mol
# Density = 2.014163 g / cm^3
# Si number density = 20.187574 Si / 1000 Ang^3
#
#
#
# Elastic Constant Matrix: (Units=GPa)
#
#
# Indices 1 2 3 4 5 6 
#
# 1 89.9931 24.6737 17.4714 0.0000 -2.9504 0.0000
# 2 24.6737 109.1679 15.6518 0.0000 -9.7414 0.0000
# 3 17.4714 15.6518 76.9286 0.0000 10.7007 0.0000
# 4 0.0000 0.0000 0.0000 18.6328 0.0000 -9.6797
# 5 -2.9504 -9.7414 10.7007 0.0000 20.1657 0.0000
# 6 0.0000 0.0000 0.0000 -9.6797 0.0000 36.3816
#
#
#
# Elastic Compliance Matrix: (Units=1/GPa)
#
#
# Indices 1 2 3 4 5 6 
#
# 1 0.012301 -0.002211 -0.002640 0.000000 0.002133 0.000000
# 2 -0.002211 0.010562 -0.002496 0.000000 0.006103 0.000000
# 3 -0.002640 -0.002496 0.015470 0.000000 -0.009801 0.000000
# 4 0.000000 0.000000 0.000000 0.062276 0.000000 0.016569
# 5 0.002133 0.006103 -0.009801 0.000000 0.058050 0.000000
# 6 0.000000 0.000000 0.000000 0.016569 0.000000 0.031895
#
#
# Mechanical properties :
#
#
# Convention : Reuss Voigt Hill
#
# Bulk Modulus (GPa) = 42.30456 43.52035 42.91245
# Shear Modulus (GPa) = 23.46003 29.58888 26.52446
#
# Velocity S-wave (km/s) = 3.41266 3.83260 3.62871
# Velocity P-wave (km/s) = 6.04397 6.41793 6.23376
#
# Compressibility (1/GPa) = 0.02363812
#
# Stress axis : x y z
#
# Youngs Moduli (GPa) = 81.29574 94.67518 64.64212
#
# Poissons Ratio (x) = 0.20936 0.17068
# Poissons Ratio (y) = 0.17977 0.16133
# Poissons Ratio (z) = 0.21465 0.23629
#
# Static dielectric constant tensor:
#      x y z
#    x 1.715470 0.000000 0.059590 
#    y 0.000000 1.725950 0.000000 
#    z 0.059590 0.000000 1.834280 
# 
# From -- ./inp_files/193856.got.cif
#   From: 2010.05.17/outbox.cif.g08.bks.cpg/sg15_97_cif.got.tgz:193856.got - 2010.06.03 18:47:42.
