data_PCOD9301545
_publ_section_title
;
Structure prediction by ZEFSAII (Michael W. Deem and Ramdas Pophale) SiO2 
 PCOD9301545
Probable space group: C 2/C
;
_chemical_formula_sum "Si O2"
_cell_formula_units_Z 56
_cell_length_a 7.307695
_cell_length_b 18.662526
_cell_length_c 18.503426
_cell_angle_alpha 90.000000
_cell_angle_beta 64.467455
_cell_angle_gamma 90.000000
_cell_volume 2277.054815
_symmetry_space_group_name_H-M "C 2/C"
_symmetry_group_IT_number 15
_symmetry_cell_setting 'monoclinic'
loop_
_space_group_symop_operation_xyz
x,y,z
-x,y,1/2-z
-x,-y,-z
x,-y,1/2+z
1/2+x,1/2+y,z
1/2-x,1/2+y,1/2-z
1/2-x,1/2-y,-z
1/2+x,1/2-y,1/2+z
loop_
_atom_site_type_symbol
_atom_site_label
_atom_site_fract_x
_atom_site_fract_y
_atom_site_fract_z
Si Si1 0.448700 0.591665 0.074317
Si Si2 0.669532 0.809556 0.781573
Si Si3 0.622666 0.816439 0.550419
Si Si4 0.837499 0.417775 0.082964
Si Si5 0.125324 0.926815 0.395327
Si Si6 0.736965 0.339938 0.239230
Si Si7 0.176622 0.052887 0.173177
O O1 0.268467 0.643971 0.083321
O O2 0.348234 0.512280 0.099829
O O3 0.571137 0.597310 0.127150
O O4 0.611136 0.597893 0.980886
O O5 0.500000 0.815229 0.750000
O O6 0.566779 0.785984 0.874303
O O7 0.804396 0.742253 0.736494
O O8 0.743940 0.888880 0.784789
O O9 0.750000 0.750000 0.500000
O O10 0.559899 0.873171 0.498991
O O11 0.606626 0.417782 0.092386
O O12 0.858990 0.375297 0.153431
O O13 0.844157 0.500443 0.109056
O O14 0.246185 0.885371 0.312170
O O15 0.500000 0.338403 0.250000
O O16 0.000000 0.011512 0.250000
#
# Coordination Sequence:
#
# PCOD9301545 Si02
#       7
#     8   8   8   8   8   8   8
#     4   9  17  31  53  80 107 137 183 233 271 324
#     4  11  23  37  57  85 117 149 185 235 286 337
#     4  11  21  36  59  86 115 151 189 230 284 337
#     4   9  18  33  57  82 108 144 188 233 276 332
#     4   8  14  28  53  80 102 137 184 229 270 315
#     4   9  16  32  54  78 107 143 188 230 272 327
#     4  11  22  37  58  82 110 149 191 234 285 335
#
# _framework density 24.593170000000001
#
# number of rings (size 3 to 8) (size 9 to 14) (size 15 to 20)
#    0.000    2.286    0.000    7.286    0.000    0.571 
#    0.000    2.857    0.000    4.286    0.000    0.000 
#    0.000    0.000    0.000    0.000    0.000    0.000 
#
# Total GULP energy -156289.573475 kJ/mol
# GULP energy per Si atom -5581.770481 kJ/mol
# Density = 2.453719 g / cm^3
# Si number density = 24.593170 Si / 1000 Ang^3
#
#
#
# Elastic Constant Matrix: (Units=GPa)
#
#
# Indices 1 2 3 4 5 6 
#
# 1 47.0789 20.9723 17.4857 0.0000 27.5058 0.0000
# 2 20.9723 130.5360 56.8493 0.0000 19.1623 0.0000
# 3 17.4857 56.8493 140.0911 0.0000 24.5653 0.0000
# 4 0.0000 0.0000 0.0000 37.4747 0.0000 8.2206
# 5 27.5058 19.1623 24.5653 0.0000 27.5283 0.0000
# 6 0.0000 0.0000 0.0000 8.2206 0.0000 16.5312
#
#
#
# Elastic Compliance Matrix: (Units=1/GPa)
#
#
# Indices 1 2 3 4 5 6 
#
# 1 0.052621 -0.002129 0.003860 0.000000 -0.054540 0.000000
# 2 -0.002129 0.009718 -0.003396 0.000000 -0.001607 0.000000
# 3 0.003860 -0.003396 0.009835 0.000000 -0.010269 0.000000
# 4 0.000000 0.000000 0.000000 0.029952 0.000000 -0.014894
# 5 -0.054540 -0.001607 -0.010269 0.000000 0.101104 0.000000
# 6 0.000000 0.000000 0.000000 -0.014894 0.000000 0.067898
#
#
# Mechanical properties :
#
#
# Convention : Reuss Voigt Hill
#
# Bulk Modulus (GPa) = 14.52575 56.48009 35.50292
# Shear Modulus (GPa) = 16.81206 31.13344 23.97275
#
# Velocity S-wave (km/s) = 2.61742 3.56186 3.12552
# Velocity P-wave (km/s) = 3.87992 6.31913 5.24334
#
# Compressibility (1/GPa) = 0.06884324
#
# Stress axis : x y z
#
# Youngs Moduli (GPa) = 19.00399 102.90629 101.67469
#
# Poissons Ratio (x) = 0.21907 -0.39243
# Poissons Ratio (y) = 0.04046 0.34528
# Poissons Ratio (z) = -0.07335 0.34946
#
# Static dielectric constant tensor:
#      x y z
#    x 2.024270 0.000000 -0.077490 
#    y 0.000000 1.976980 0.000000 
#    z -0.077490 0.000000 2.005030 
# 
# From -- ./inp_files/190924.got.cif
#   From: 2010.05.17/outbox.cif.g08.bks.cpg/sg15_96_cif.got.tgz:190924.got - 2010.06.03 18:47:42.
