data_PCOD9301051
_publ_section_title
;
Structure prediction by ZEFSAII (Michael W. Deem and Ramdas Pophale) SiO2 
 PCOD9301051
Probable space group: C 2/C
;
_chemical_formula_sum "Si O2"
_cell_formula_units_Z 40
_cell_length_a 11.044319
_cell_length_b 9.323118
_cell_length_c 16.579109
_cell_angle_alpha 90.000000
_cell_angle_beta 98.684268
_cell_angle_gamma 90.000000
_cell_volume 1687.537873
_symmetry_space_group_name_H-M "C 2/C"
_symmetry_group_IT_number 15
_symmetry_cell_setting 'monoclinic'
loop_
_space_group_symop_operation_xyz
x,y,z
-x,y,1/2-z
-x,-y,-z
x,-y,1/2+z
1/2+x,1/2+y,z
1/2-x,1/2+y,1/2-z
1/2-x,1/2-y,-z
1/2+x,1/2-y,1/2+z
loop_
_atom_site_type_symbol
_atom_site_label
_atom_site_fract_x
_atom_site_fract_y
_atom_site_fract_z
Si Si1 0.949051 0.852207 0.534414
Si Si2 0.410691 0.063604 0.316555
Si Si3 0.153302 0.566848 0.421345
Si Si4 0.247092 0.766399 0.117442
Si Si5 0.191346 0.329646 0.097726
O O1 0.860374 0.776470 0.460612
O O2 0.859321 0.838610 0.603304
O O3 0.069768 0.763570 0.568670
O O4 0.000000 0.000000 0.500000
O O5 0.500000 0.059323 0.250000
O O6 0.508019 0.060057 0.400340
O O7 0.322873 0.200103 0.313732
O O8 0.328700 0.924874 0.325849
O O9 0.203470 0.428700 0.379057
O O10 0.203126 0.573167 0.517895
O O11 0.198757 0.716805 0.388928
#
# Coordination Sequence:
#
# PCOD9301051 Si02
#       5
#     8   8   8   8   8
#     4  11  20  36  68 104 123 152 207 275 324 362
#     4  12  27  44  61  90 135 177 211 254 317 389
#     4  11  23  42  68  98 123 161 218 272 321 372
#     4  11  23  38  64  95 128 161 206 260 317 375
#     4  11  22  41  70  97 126 161 214 274 320 374
#
# _framework density 23.703171999999999
#
# number of rings (size 3 to 8) (size 9 to 14) (size 15 to 20)
#    0.000    0.800    6.000    3.000    2.800    1.600 
#    0.000    1.000    0.000    0.000    0.000    0.000 
#    0.000    0.000    0.000    0.000    0.000    0.000 
#
# Total GULP energy -111762.877197 kJ/mol
# GULP energy per Si atom -5588.143860 kJ/mol
# Density = 2.364922 g / cm^3
# Si number density = 23.703172 Si / 1000 Ang^3
#
#
#
# Elastic Constant Matrix: (Units=GPa)
#
#
# Indices 1 2 3 4 5 6 
#
# 1 53.1093 46.1421 4.6091 0.0000 -18.8468 0.0000
# 2 46.1421 166.6923 48.5959 0.0000 -40.4053 0.0000
# 3 4.6091 48.5959 85.4770 0.0000 -43.6600 0.0000
# 4 0.0000 0.0000 0.0000 14.6132 0.0000 -17.1750
# 5 -18.8468 -40.4053 -43.6600 0.0000 49.8962 0.0000
# 6 0.0000 0.0000 0.0000 -17.1750 0.0000 61.2644
#
#
#
# Elastic Compliance Matrix: (Units=1/GPa)
#
#
# Indices 1 2 3 4 5 6 
#
# 1 0.029394 -0.007719 0.009550 0.000000 0.013208 0.000000
# 2 -0.007719 0.009704 -0.004658 0.000000 0.000867 0.000000
# 3 0.009550 -0.004658 0.024858 0.000000 0.021587 0.000000
# 4 0.000000 0.000000 0.000000 0.102058 0.000000 0.028611
# 5 0.013208 0.000867 0.021587 0.000000 0.044621 0.000000
# 6 0.000000 0.000000 0.000000 0.028611 0.000000 0.024344
#
#
# Mechanical properties :
#
#
# Convention : Reuss Voigt Hill
#
# Bulk Modulus (GPa) = 17.15203 55.99698 36.57451
# Shear Modulus (GPa) = 19.22580 38.88352 29.05466
#
# Velocity S-wave (km/s) = 2.85108 4.05462 3.50490
# Velocity P-wave (km/s) = 4.25325 6.75244 5.64294
#
# Compressibility (1/GPa) = 0.05830212
#
# Stress axis : x y z
#
# Youngs Moduli (GPa) = 34.02061 103.05255 40.22782
#
# Poissons Ratio (x) = 0.79547 -0.38418
# Poissons Ratio (y) = 0.26261 0.18738
# Poissons Ratio (z) = -0.32490 0.48002
#
# Static dielectric constant tensor:
#      x y z
#    x 1.853220 0.000000 -0.033110 
#    y 0.000000 1.941300 0.000000 
#    z -0.033110 0.000000 2.025980 
# 
# From -- ./inp_files/195088.got.cif
#   From: 2010.05.17/outbox.cif.g08.bks.cpg/sg15_98_cif.got.tgz:195088.got - 2010.06.03 18:47:42.
