data_PCOD9301019
_publ_section_title
;
Structure prediction by ZEFSAII (Michael W. Deem and Ramdas Pophale) SiO2 
 PCOD9301019
Probable space group: C 2/C
;
_chemical_formula_sum "Si O2"
_cell_formula_units_Z 44
_cell_length_a 21.025003
_cell_length_b 11.945402
_cell_length_c 8.083897
_cell_angle_alpha 90.000000
_cell_angle_beta 98.692872
_cell_angle_gamma 90.000000
_cell_volume 2006.965281
_symmetry_space_group_name_H-M "C 2/C"
_symmetry_group_IT_number 15
_symmetry_cell_setting 'monoclinic'
loop_
_space_group_symop_operation_xyz
x,y,z
-x,y,1/2-z
-x,-y,-z
x,-y,1/2+z
1/2+x,1/2+y,z
1/2-x,1/2+y,1/2-z
1/2-x,1/2-y,-z
1/2+x,1/2-y,1/2+z
loop_
_atom_site_type_symbol
_atom_site_label
_atom_site_fract_x
_atom_site_fract_y
_atom_site_fract_z
Si Si1 0.059743 0.583826 0.489822
Si Si2 0.000000 0.221373 0.750000
Si Si3 0.764473 0.085678 0.006568
Si Si4 0.374363 0.877861 0.143750
Si Si5 0.122702 0.209513 0.629225
Si Si6 0.768966 0.655108 0.138144
O O1 0.108384 0.502582 0.411476
O O2 0.095905 0.626310 0.665519
O O3 0.000000 0.500000 0.500000
O O4 0.033247 0.691446 0.387996
O O5 0.060484 0.158173 0.693947
O O6 0.827388 0.877337 0.431195
O O7 0.765373 0.122660 0.199228
O O8 0.746315 0.956209 0.975066
O O9 0.701810 0.142509 0.897095
O O10 0.403181 0.788318 0.028842
O O11 0.163180 0.295253 0.762782
O O12 0.750000 0.750000 0.000000
#
# Coordination Sequence:
#
# PCOD9301019 Si02
#       6
#     8   4   8   8   8   8
#     4  12  20  34  59  97 134 183 230 293 368 432
#     4  12  24  38  58  92 140 186 240 290 360 424
#     4  11  24  42  68 106 140 181 238 296 359 431
#     4  11  20  36  59  90 139 173 224 288 361 421
#     4  11  25  41  63  99 140 190 235 291 360 434
#     4  11  23  44  73 102 136 179 236 302 359 415
#
# _framework density 21.923646999999999
#
# number of rings (size 3 to 8) (size 9 to 14) (size 15 to 20)
#    0.000    0.727    3.636    6.545    0.000    4.364 
#    0.000    0.000    0.000    4.364    0.000    0.000 
#    0.000    1.455    0.000    0.000    0.000    0.000 
#
# Total GULP energy -122813.172074 kJ/mol
# GULP energy per Si atom -5582.416912 kJ/mol
# Density = 2.187375 g / cm^3
# Si number density = 21.923647 Si / 1000 Ang^3
#
#
#
# Elastic Constant Matrix: (Units=GPa)
#
#
# Indices 1 2 3 4 5 6 
#
# 1 162.6764 22.1528 33.5266 0.0000 -26.9179 0.0000
# 2 22.1528 87.0764 31.1331 0.0000 -8.2934 0.0000
# 3 33.5266 31.1331 174.5232 0.0000 14.8229 0.0000
# 4 0.0000 0.0000 0.0000 30.1210 0.0000 -10.8253
# 5 -26.9179 -8.2934 14.8229 0.0000 16.0036 0.0000
# 6 0.0000 0.0000 0.0000 -10.8253 0.0000 40.9362
#
#
#
# Elastic Compliance Matrix: (Units=1/GPa)
#
#
# Indices 1 2 3 4 5 6 
#
# 1 0.010452 0.000841 -0.004003 0.000000 0.021725 0.000000
# 2 0.000841 0.013690 -0.003611 0.000000 0.011854 0.000000
# 3 -0.004003 -0.003611 0.008546 0.000000 -0.016520 0.000000
# 4 0.000000 0.000000 0.000000 0.036686 0.000000 0.009701
# 5 0.021725 0.011854 -0.016520 0.000000 0.120470 0.000000
# 6 0.000000 0.000000 0.000000 0.009701 0.000000 0.026994
#
#
# Mechanical properties :
#
#
# Convention : Reuss Voigt Hill
#
# Bulk Modulus (GPa) = 52.23677 66.43346 59.33511
# Shear Modulus (GPa) = 21.11800 39.90972 30.51386
#
# Velocity S-wave (km/s) = 3.10700 4.27124 3.73476
# Velocity P-wave (km/s) = 6.06215 7.39545 6.76174
#
# Compressibility (1/GPa) = 0.01914360
#
# Stress axis : x y z
#
# Youngs Moduli (GPa) = 95.67173 73.04599 117.01245
#
# Poissons Ratio (x) = -0.06145 0.46842
# Poissons Ratio (y) = -0.08048 0.42248
# Poissons Ratio (z) = 0.38299 0.26373
#
# Static dielectric constant tensor:
#      x y z
#    x 1.897270 0.000000 -0.096950 
#    y 0.000000 1.832760 0.000000 
#    z -0.096950 0.000000 1.748060 
# 
# From -- ./inp_files/60721.got.cif
#   From: 2010.05.17/outbox.cif.g08.bks.cpg/sg15_31_cif.got.tgz:60721.got - 2010.06.03 18:47:42.
