data_PCOD9301857
_publ_section_title
;
Structure prediction by ZEFSAII (Michael W. Deem and Ramdas Pophale) SiO2 
 PCOD9301857
Probable space group: C 2/C
;
_chemical_formula_sum "Si O2"
_cell_formula_units_Z 64
_cell_length_a 15.292234
_cell_length_b 11.408979
_cell_length_c 23.135291
_cell_angle_alpha 90.000000
_cell_angle_beta 140.886264
_cell_angle_gamma 90.000000
_cell_volume 2546.401836
_symmetry_space_group_name_H-M "C 2/C"
_symmetry_group_IT_number 15
_symmetry_cell_setting 'monoclinic'
loop_
_space_group_symop_operation_xyz
x,y,z
-x,y,1/2-z
-x,-y,-z
x,-y,1/2+z
1/2+x,1/2+y,z
1/2-x,1/2+y,1/2-z
1/2-x,1/2-y,-z
1/2+x,1/2-y,1/2+z
loop_
_atom_site_type_symbol
_atom_site_label
_atom_site_fract_x
_atom_site_fract_y
_atom_site_fract_z
Si Si1 0.934397 0.719742 0.461664
Si Si2 0.001564 0.792319 0.179151
Si Si3 0.203078 0.972488 0.480451
Si Si4 0.001776 0.552813 0.103884
Si Si5 0.711017 0.516696 0.732249
Si Si6 0.588947 0.276688 0.921750
Si Si7 0.864419 0.078447 0.432286
Si Si8 0.121477 0.812013 0.771719
O O1 0.964577 0.604546 0.441743
O O2 0.957459 0.731619 0.540840
O O3 0.766975 0.746975 0.367357
O O4 0.062399 0.802586 0.508180
O O5 0.005621 0.663783 0.151237
O O6 0.000000 0.789170 0.250000
O O7 0.124943 0.869046 0.210227
O O8 0.865842 0.863091 0.087710
O O9 0.348990 0.999606 0.526504
O O10 0.231772 0.954346 0.563358
O O11 0.096038 0.080673 0.423447
O O12 0.125653 0.465682 0.180721
O O13 0.692609 0.452601 0.660117
O O14 0.676214 0.415584 0.760081
O O15 0.485346 0.233242 0.819584
O O16 0.750000 0.250000 0.000000
O O17 0.000000 0.000000 0.500000
O O18 0.000000 0.866386 0.750000
#
# Coordination Sequence:
#
# PCOD9301857 Si02
#       8
#     8   8   8   8   8   8   8   8
#     4  11  22  41  70 104 137 188 239 291 354 431
#     4  12  25  46  75 101 143 196 233 287 376 434
#     4  12  26  47  72 102 145 184 242 301 361 431
#     4  11  28  47  68 111 142 183 245 303 354 430
#     4  11  24  44  71 102 142 186 239 290 363 437
#     4  12  24  45  72 105 136 193 239 294 366 425
#     4  12  20  42  74  96 136 183 236 282 359 425
#     4  11  21  39  69  98 146 177 237 290 352 432
#
# _framework density 25.133503999999999
#
# number of rings (size 3 to 8) (size 9 to 14) (size 15 to 20)
#    0.000    0.500    7.500    0.750    1.750    0.000 
#    6.750    2.500    0.000    0.000    0.000    0.000 
#    0.000    0.000    0.000    0.000    0.000    0.000 
#
# Total GULP energy -178493.910345 kJ/mol
# GULP energy per Si atom -5577.934698 kJ/mol
# Density = 2.507630 g / cm^3
# Si number density = 25.133504 Si / 1000 Ang^3
#
#
#
# Elastic Constant Matrix: (Units=GPa)
#
#
# Indices 1 2 3 4 5 6 
#
# 1 87.1903 -16.0802 35.5016 0.0000 0.4487 0.0000
# 2 -16.0802 52.1965 17.6912 0.0000 2.3370 0.0000
# 3 35.5016 17.6912 110.3128 0.0000 2.4293 0.0000
# 4 0.0000 0.0000 0.0000 23.8010 0.0000 8.9235
# 5 0.4487 2.3370 2.4293 0.0000 56.9790 0.0000
# 6 0.0000 0.0000 0.0000 8.9235 0.0000 32.0867
#
#
#
# Elastic Compliance Matrix: (Units=1/GPa)
#
#
# Indices 1 2 3 4 5 6 
#
# 1 0.015116 0.006674 -0.005932 0.000000 -0.000140 0.000000
# 2 0.006674 0.023233 -0.005857 0.000000 -0.000756 0.000000
# 3 -0.005932 -0.005857 0.011918 0.000000 -0.000221 0.000000
# 4 0.000000 0.000000 0.000000 0.046906 0.000000 -0.013045
# 5 -0.000140 -0.000756 -0.000221 0.000000 0.017592 0.000000
# 6 0.000000 0.000000 0.000000 -0.013045 0.000000 0.034793
#
#
# Mechanical properties :
#
#
# Convention : Reuss Voigt Hill
#
# Bulk Modulus (GPa) = 24.97701 35.99165 30.48433
# Shear Modulus (GPa) = 28.87916 36.74582 32.81249
#
# Velocity S-wave (km/s) = 3.39341 3.82779 3.61713
# Velocity P-wave (km/s) = 5.03120 5.82128 5.44060
#
# Compressibility (1/GPa) = 0.04003682
#
# Stress axis : x y z
#
# Youngs Moduli (GPa) = 66.15515 43.04168 83.90415
#
# Poissons Ratio (x) = -0.28724 0.49771
# Poissons Ratio (y) = -0.44149 0.49143
# Poissons Ratio (z) = 0.39243 0.25210
#
# Static dielectric constant tensor:
#      x y z
#    x 2.038290 0.000000 -0.065650 
#    y 0.000000 2.051720 0.000000 
#    z -0.065650 0.000000 2.056330 
# 
# From -- ./inp_files/274342.got.cif
#   From: 2010.05.17/outbox.cif.g08.bks.cpg/sg15_138_cif.got.tgz:274342.got - 2010.06.03 18:47:42.
