data_PCOD9301010
_publ_section_title
;
Structure prediction by ZEFSAII (Michael W. Deem and Ramdas Pophale) SiO2 
 PCOD9301010
Probable space group: C 2/C
;
_chemical_formula_sum "Si O2"
_cell_formula_units_Z 52
_cell_length_a 8.929392
_cell_length_b 34.342507
_cell_length_c 12.442248
_cell_angle_alpha 90.000000
_cell_angle_beta 47.273514
_cell_angle_gamma 90.000000
_cell_volume 2802.878472
_symmetry_space_group_name_H-M "C 2/C"
_symmetry_group_IT_number 15
_symmetry_cell_setting 'monoclinic'
loop_
_space_group_symop_operation_xyz
x,y,z
-x,y,1/2-z
-x,-y,-z
x,-y,1/2+z
1/2+x,1/2+y,z
1/2-x,1/2+y,1/2-z
1/2-x,1/2-y,-z
1/2+x,1/2-y,1/2+z
loop_
_atom_site_type_symbol
_atom_site_label
_atom_site_fract_x
_atom_site_fract_y
_atom_site_fract_z
Si Si1 0.953590 0.726813 0.935921
Si Si2 0.219935 0.353401 0.994742
Si Si3 0.638394 0.771240 0.775699
Si Si4 0.500000 0.999865 0.250000
Si Si5 0.785449 0.440835 0.506329
Si Si6 0.693117 0.440051 0.803893
Si Si7 0.317208 0.647650 0.190888
O O1 0.926223 0.682494 0.911195
O O2 0.971965 0.725995 0.056440
O O3 0.750000 0.750000 0.000000
O O4 0.154938 0.748107 0.798871
O O5 0.145270 0.396809 0.054662
O O6 0.440305 0.347406 0.941838
O O7 0.270823 0.352323 0.841809
O O8 0.500000 0.753111 0.750000
O O9 0.705887 0.814223 0.702436
O O10 0.430788 0.972257 0.381475
O O11 0.688574 0.027707 0.187186
O O12 0.767697 0.443741 0.643867
O O13 0.551861 0.444841 0.578065
O O14 0.738731 0.395743 0.819899
#
# Coordination Sequence:
#
# PCOD9301010 Si02
#       7
#     8   8   8   4   8   8   8
#     4  11  20  36  56  81 101 143 186 220 255 317
#     4   8  15  32  54  72 101 136 181 217 250 303
#     4  11  22  34  53  80 115 137 172 223 279 315
#     4  12  20  30  54  84 104 132 178 206 268 326
#     4   9  19  36  51  76 107 139 168 220 261 301
#     4   9  19  34  54  75 105 137 174 217 257 306
#     4   8  15  31  53  75  99 136 179 218 253 300
#
# _framework density 18.552354999999999
#
# number of rings (size 3 to 8) (size 9 to 14) (size 15 to 20)
#    0.000    2.462    1.538    3.692    1.077    0.000 
#    2.769    0.000    0.000    0.000    4.000    0.000 
#    0.000    0.000    0.000    0.000    0.000    0.000 
#
# Total GULP energy -144985.141334 kJ/mol
# GULP energy per Si atom -5576.351590 kJ/mol
# Density = 1.851013 g / cm^3
# Si number density = 18.552355 Si / 1000 Ang^3
#
#
#
# Elastic Constant Matrix: (Units=GPa)
#
#
# Indices 1 2 3 4 5 6 
#
# 1 54.6175 21.8218 -1.3022 0.0000 -4.5628 0.0000
# 2 21.8218 119.3147 20.9239 0.0000 -13.5927 0.0000
# 3 -1.3022 20.9239 40.7865 0.0000 -1.7489 0.0000
# 4 0.0000 0.0000 0.0000 18.7153 0.0000 -1.7421
# 5 -4.5628 -13.5927 -1.7489 0.0000 16.6719 0.0000
# 6 0.0000 0.0000 0.0000 -1.7421 0.0000 19.1604
#
#
#
# Elastic Compliance Matrix: (Units=1/GPa)
#
#
# Indices 1 2 3 4 5 6 
#
# 1 0.020139 -0.003861 0.002737 0.000000 0.002651 0.000000
# 2 -0.003861 0.010855 -0.005382 0.000000 0.007229 0.000000
# 3 0.002737 -0.005382 0.027333 0.000000 -0.000771 0.000000
# 4 0.000000 0.000000 0.000000 0.053888 0.000000 0.004900
# 5 0.002651 0.007229 -0.000771 0.000000 0.066519 0.000000
# 6 0.000000 0.000000 0.000000 0.004900 0.000000 0.052637
#
#
# Mechanical properties :
#
#
# Convention : Reuss Voigt Hill
#
# Bulk Modulus (GPa) = 22.06771 33.06731 27.56751
# Shear Modulus (GPa) = 19.26879 22.46119 20.86499
#
# Velocity S-wave (km/s) = 3.22625 3.48327 3.35722
# Velocity P-wave (km/s) = 5.07927 5.83439 5.46987
#
# Compressibility (1/GPa) = 0.04531508
#
# Stress axis : x y z
#
# Youngs Moduli (GPa) = 49.65587 92.12593 36.58557
#
# Poissons Ratio (x) = 0.35573 -0.10015
# Poissons Ratio (y) = 0.19174 0.19690
# Poissons Ratio (z) = -0.13593 0.49581
#
# Static dielectric constant tensor:
#      x y z
#    x 1.647300 0.000000 0.012800 
#    y 0.000000 1.662020 0.000000 
#    z 0.012800 0.000000 1.633060 
# 
# From -- ./inp_files/139235.got.cif
#   From: 2010.05.17/outbox.cif.g08.bks.cpg/sg15_70_cif.got.tgz:139235.got - 2010.06.03 18:47:42.
