data_PCOD9301131
_publ_section_title
;
Structure prediction by ZEFSAII (Michael W. Deem and Ramdas Pophale) SiO2 
 PCOD9301131
Probable space group: C 2/C
;
_chemical_formula_sum "Si O2"
_cell_formula_units_Z 64
_cell_length_a 18.166012
_cell_length_b 27.771403
_cell_length_c 21.019564
_cell_angle_alpha 90.000000
_cell_angle_beta 161.381425
_cell_angle_gamma 90.000000
_cell_volume 3385.591424
_symmetry_space_group_name_H-M "C 2/C"
_symmetry_group_IT_number 15
_symmetry_cell_setting 'monoclinic'
loop_
_space_group_symop_operation_xyz
x,y,z
-x,y,1/2-z
-x,-y,-z
x,-y,1/2+z
1/2+x,1/2+y,z
1/2-x,1/2+y,1/2-z
1/2-x,1/2-y,-z
1/2+x,1/2-y,1/2+z
loop_
_atom_site_type_symbol
_atom_site_label
_atom_site_fract_x
_atom_site_fract_y
_atom_site_fract_z
Si Si1 0.376590 0.175757 0.209159
Si Si2 0.467028 0.154335 0.026662
Si Si3 0.857044 0.902773 0.821999
Si Si4 0.242430 0.463555 0.917093
Si Si5 0.609114 0.002308 0.173356
Si Si6 0.083846 0.036781 0.252277
Si Si7 0.628122 0.412187 0.168152
Si Si8 0.451122 0.712885 0.783418
O O1 0.500000 0.153082 0.250000
O O2 0.444088 0.147109 0.327780
O O3 0.482895 0.229765 0.306355
O O4 0.122572 0.188617 0.974954
O O5 0.708467 0.145488 0.188840
O O6 0.298025 0.118216 0.850908
O O7 0.305061 0.200823 0.901254
O O8 0.943594 0.925506 0.827550
O O9 0.682961 0.945176 0.706609
O O10 0.048426 0.894132 0.033186
O O11 0.198964 0.496007 0.818986
O O12 0.000000 0.453151 0.750000
O O13 0.406919 0.492963 0.098195
O O14 0.394783 0.419652 0.016883
O O15 0.751178 0.963445 0.248608
O O16 0.343340 0.985302 0.959864
O O17 0.000000 0.059164 0.250000
O O18 0.500000 0.695151 0.750000
#
# Coordination Sequence:
#
# PCOD9301131 Si02
#       8
#     8   8   8   8   8   8   8   8
#     4  11  20  39  63  83 111 154 199 235 285 346
#     4  12  23  36  57  82 113 153 192 242 289 340
#     4  11  22  38  55  79 113 150 194 241 294 352
#     4  11  21  37  54  79 107 150 204 247 285 345
#     4  11  20  38  60  72 108 160 196 237 301 347
#     4  12  21  33  59  81 102 145 199 247 288 341
#     4  11  22  39  57  77 113 159 195 241 300 348
#     4  11  20  39  61  83 113 155 196 237 281 343
#
# _framework density 18.903638999999998
#
# number of rings (size 3 to 8) (size 9 to 14) (size 15 to 20)
#    0.000    0.750    7.500    3.375    0.000    0.000 
#    4.500    0.625    0.000    0.000    0.000    0.000 
#    0.000    1.000    0.000    0.500    0.000    0.000 
#
# Total GULP energy -178396.743144 kJ/mol
# GULP energy per Si atom -5574.898223 kJ/mol
# Density = 1.886061 g / cm^3
# Si number density = 18.903639 Si / 1000 Ang^3
#
#
#
# Elastic Constant Matrix: (Units=GPa)
#
#
# Indices 1 2 3 4 5 6 
#
# 1 109.2688 27.3131 38.2265 0.0101 -12.0570 0.0006
# 2 27.3131 49.5873 18.6974 -0.0039 -5.2569 -0.0007
# 3 38.2265 18.6974 119.9688 0.0381 -15.7668 0.0004
# 4 0.0101 -0.0039 0.0381 30.2816 0.0077 -3.9091
# 5 -12.0570 -5.2569 -15.7668 0.0077 39.7399 0.0020
# 6 0.0006 -0.0007 0.0004 -3.9091 0.0020 25.1690
#
#
#
# Elastic Compliance Matrix: (Units=1/GPa)
#
#
# Indices 1 2 3 4 5 6 
#
# 1 0.011569 -0.005187 -0.002645 -0.000002 0.001775 -0.000001
# 2 -0.005187 0.023847 -0.001958 0.000007 0.000804 0.000002
# 3 -0.002645 -0.001958 0.009858 -0.000013 0.002850 -0.000002
# 4 -0.000002 0.000007 -0.000013 0.033699 -0.000011 0.005234
# 5 0.001775 0.000804 0.002850 -0.000011 0.026939 -0.000004
# 6 -0.000001 0.000002 -0.000002 0.005234 -0.000004 0.040544
#
#
# Mechanical properties :
#
#
# Convention : Reuss Voigt Hill
#
# Bulk Modulus (GPa) = 38.91914 49.69988 44.30951
# Shear Modulus (GPa) = 28.63659 32.01063 30.32361
#
# Velocity S-wave (km/s) = 3.89636 4.11951 4.00949
# Velocity P-wave (km/s) = 6.39336 6.99824 6.70263
#
# Compressibility (1/GPa) = 0.02569430
#
# Stress axis : x y z
#
# Youngs Moduli (GPa) = 86.43498 41.93377 101.44114
#
# Poissons Ratio (x) = 0.21752 0.26829
# Poissons Ratio (y) = 0.44835 0.19864
# Poissons Ratio (z) = 0.22860 0.08211
#
# Static dielectric constant tensor:
#      x y z
#    x 1.672530 0.000010 -0.009440 
#    y 0.000010 1.706320 -0.000020 
#    z -0.009440 -0.000020 1.745600 
# 
# From -- ./inp_files/250440.got.cif
#   From: 2010.05.17/outbox.cif.g08.bks.cpg/sg15_126_cif.got.tgz:250440.got - 2010.06.03 18:47:42.
