data_PCOD9301600
_publ_section_title
;
Structure prediction by ZEFSAII (Michael W. Deem and Ramdas Pophale) SiO2 
 PCOD9301600
Probable space group: C 2/C
;
_chemical_formula_sum "Si O2"
_cell_formula_units_Z 40
_cell_length_a 26.261894
_cell_length_b 8.425378
_cell_length_c 7.640852
_cell_angle_alpha 90.000000
_cell_angle_beta 118.192896
_cell_angle_gamma 90.000000
_cell_volume 1490.086794
_symmetry_space_group_name_H-M "C 2/C"
_symmetry_group_IT_number 15
_symmetry_cell_setting 'monoclinic'
loop_
_space_group_symop_operation_xyz
x,y,z
-x,y,1/2-z
-x,-y,-z
x,-y,1/2+z
1/2+x,1/2+y,z
1/2-x,1/2+y,1/2-z
1/2-x,1/2-y,-z
1/2+x,1/2-y,1/2+z
loop_
_atom_site_type_symbol
_atom_site_label
_atom_site_fract_x
_atom_site_fract_y
_atom_site_fract_z
Si Si1 0.155371 0.808480 0.590666
Si Si2 0.568531 0.517702 0.096249
Si Si3 0.680985 0.121439 0.977556
Si Si4 0.567038 0.226664 0.893411
Si Si5 0.214271 0.880531 0.322578
O O1 0.087485 0.851028 0.476487
O O2 0.192031 0.812013 0.471919
O O3 0.171392 0.975312 0.710212
O O4 0.172826 0.679245 0.764328
O O5 0.582619 0.630972 0.283955
O O6 0.500000 0.500000 0.000000
O O7 0.580895 0.328106 0.088908
O O8 0.706775 0.257200 0.149940
O O9 0.726632 0.980357 0.056425
O O10 0.615639 0.093097 0.941458
O O11 0.500000 0.182110 0.750000
#
# Coordination Sequence:
#
# PCOD9301600 Si02
#       5
#     8   8   8   8   8
#     4  11  21  37  59  88 129 168 211 267 321 390
#     4   9  16  28  49  79 118 150 194 259 327 372
#     4  11  25  41  62  97 136 168 222 266 332 400
#     4   9  17  32  55  83 121 157 204 270 325 371
#     4  12  24  40  63  91 134 179 213 270 329 395
#
# _framework density 26.844073999999999
#
# number of rings (size 3 to 8) (size 9 to 14) (size 15 to 20)
#    0.000    1.600    4.000    1.800    0.000    2.400 
#    0.000    0.000    0.000    0.000    0.000    2.800 
#   12.000    0.000    0.000    0.000    0.000    0.000 
#
# Total GULP energy -111510.572618 kJ/mol
# GULP energy per Si atom -5575.528631 kJ/mol
# Density = 2.678298 g / cm^3
# Si number density = 26.844074 Si / 1000 Ang^3
#
#
#
# Elastic Constant Matrix: (Units=GPa)
#
#
# Indices 1 2 3 4 5 6 
#
# 1 184.6047 29.0833 72.2305 0.0000 7.5326 0.0000
# 2 29.0833 45.4234 37.0394 0.0000 -10.5502 0.0000
# 3 72.2305 37.0394 135.6066 0.0000 -17.6112 0.0000
# 4 0.0000 0.0000 0.0000 34.7255 0.0000 -6.1100
# 5 7.5326 -10.5502 -17.6112 0.0000 59.1432 0.0000
# 6 0.0000 0.0000 0.0000 -6.1100 0.0000 24.1461
#
#
#
# Elastic Compliance Matrix: (Units=1/GPa)
#
#
# Indices 1 2 3 4 5 6 
#
# 1 0.007269 -0.002315 -0.003550 0.000000 -0.002396 0.000000
# 2 -0.002315 0.029534 -0.006357 0.000000 0.003670 0.000000
# 3 -0.003550 -0.006357 0.011352 0.000000 0.002699 0.000000
# 4 0.000000 0.000000 0.000000 0.030139 0.000000 0.007626
# 5 -0.002396 0.003670 0.002699 0.000000 0.018672 0.000000
# 6 0.000000 0.000000 0.000000 0.007626 0.000000 0.043344
#
#
# Mechanical properties :
#
#
# Convention : Reuss Voigt Hill
#
# Bulk Modulus (GPa) = 42.17765 71.37122 56.77444
# Shear Modulus (GPa) = 28.95903 38.75504 33.85703
#
# Velocity S-wave (km/s) = 3.28805 3.80374 3.55526
# Velocity P-wave (km/s) = 5.49193 6.77763 6.16837
#
# Compressibility (1/GPa) = 0.02370924
#
# Stress axis : x y z
#
# Youngs Moduli (GPa) = 137.57643 33.85981 88.08906
#
# Poissons Ratio (x) = 0.07840 0.31275
# Poissons Ratio (y) = 0.31854 0.55997
# Poissons Ratio (z) = 0.48845 0.21524
#
# Static dielectric constant tensor:
#      x y z
#    x 3.310180 0.000000 -0.048660 
#    y 0.000000 2.154080 0.000000 
#    z -0.048660 0.000000 2.413610 
# 
# From -- ./inp_files/68436.got.cif
#   From: 2010.05.17/outbox.cif.g08.bks.cpg/sg15_35_cif.got.tgz:68436.got - 2010.06.03 18:47:42.
