data_PCOD9301543
_publ_section_title
;
Structure prediction by ZEFSAII (Michael W. Deem and Ramdas Pophale) SiO2 
 PCOD9301543
Probable space group: C 2/C
;
_chemical_formula_sum "Si O2"
_cell_formula_units_Z 40
_cell_length_a 18.756316
_cell_length_b 7.328371
_cell_length_c 14.585082
_cell_angle_alpha 90.000000
_cell_angle_beta 131.085342
_cell_angle_gamma 90.000000
_cell_volume 1511.055983
_symmetry_space_group_name_H-M "C 2/C"
_symmetry_group_IT_number 15
_symmetry_cell_setting 'monoclinic'
loop_
_space_group_symop_operation_xyz
x,y,z
-x,y,1/2-z
-x,-y,-z
x,-y,1/2+z
1/2+x,1/2+y,z
1/2-x,1/2+y,1/2-z
1/2-x,1/2-y,-z
1/2+x,1/2-y,1/2+z
loop_
_atom_site_type_symbol
_atom_site_label
_atom_site_fract_x
_atom_site_fract_y
_atom_site_fract_z
Si Si1 0.222598 0.642108 0.762267
Si Si2 0.553678 0.629625 0.433537
Si Si3 0.137833 0.716266 0.258114
Si Si4 0.453403 0.779258 0.507331
Si Si5 0.353444 0.420437 0.662197
O O1 0.198814 0.466207 0.803314
O O2 0.321539 0.666561 0.794342
O O3 0.143755 0.640135 0.613903
O O4 0.211114 0.813541 0.820592
O O5 0.523830 0.785520 0.478939
O O6 0.570637 0.432880 0.493617
O O7 0.634267 0.667529 0.427260
O O8 0.455812 0.599155 0.296475
O O9 0.026431 0.669706 0.150810
O O10 0.158267 0.860447 0.355897
#
# Coordination Sequence:
#
# PCOD9301543 Si02
#       5
#     8   8   8   8   8
#     4  11  21  36  59  83 113 148 187 225 278 330
#     4   8  16  34  62  80 109 146 185 229 282 318
#     4  11  21  36  59  83 113 148 187 225 278 330
#     4   9  19  36  60  83 109 148 187 227 274 335
#     4   9  18  36  56  85 111 144 183 233 274 328
#
# _framework density 26.471551999999999
#
# number of rings (size 3 to 8) (size 9 to 14) (size 15 to 20)
#    0.000    2.400    2.000    1.800    0.000    0.000 
#    0.000   20.000    0.000    0.000    0.000    0.000 
#    0.000    0.000    0.000    0.000    0.000    0.000 
#
# Total GULP energy -111645.382624 kJ/mol
# GULP energy per Si atom -5582.269131 kJ/mol
# Density = 2.641130 g / cm^3
# Si number density = 26.471552 Si / 1000 Ang^3
#
#
#
# Elastic Constant Matrix: (Units=GPa)
#
#
# Indices 1 2 3 4 5 6 
#
# 1 68.3913 -21.7643 26.8964 0.0000 3.5038 0.0000
# 2 -21.7643 69.6019 18.8148 0.0000 10.4544 0.0000
# 3 26.8964 18.8148 80.8856 0.0000 34.7197 0.0000
# 4 0.0000 0.0000 0.0000 27.4610 0.0000 2.7798
# 5 3.5038 10.4544 34.7197 0.0000 44.9652 0.0000
# 6 0.0000 0.0000 0.0000 2.7798 0.0000 32.6325
#
#
#
# Elastic Compliance Matrix: (Units=1/GPa)
#
#
# Indices 1 2 3 4 5 6 
#
# 1 0.021850 0.009200 -0.011602 0.000000 0.005117 0.000000
# 2 0.009200 0.019250 -0.007940 0.000000 0.000938 0.000000
# 3 -0.011602 -0.007940 0.025260 0.000000 -0.016754 0.000000
# 4 0.000000 0.000000 0.000000 0.036732 0.000000 -0.003129
# 5 0.005117 0.000938 -0.016754 0.000000 0.034559 0.000000
# 6 0.000000 0.000000 0.000000 -0.003129 0.000000 0.030911
#
#
# Mechanical properties :
#
#
# Convention : Reuss Voigt Hill
#
# Bulk Modulus (GPa) = 21.89321 29.64138 25.76730
# Shear Modulus (GPa) = 24.45344 34.00718 29.23031
#
# Velocity S-wave (km/s) = 3.04264 3.58812 3.32658
# Velocity P-wave (km/s) = 4.54225 5.32803 4.95075
#
# Compressibility (1/GPa) = 0.04567626
#
# Stress axis : x y z
#
# Youngs Moduli (GPa) = 45.76614 51.94904 39.58889
#
# Poissons Ratio (x) = -0.47794 0.45932
# Poissons Ratio (y) = -0.42106 0.31432
# Poissons Ratio (z) = 0.53099 0.41246
#
# Static dielectric constant tensor:
#      x y z
#    x 2.070960 0.000000 -0.065710 
#    y 0.000000 2.098760 0.000000 
#    z -0.065710 0.000000 2.176500 
# 
# From -- ./inp_files/159494.got.cif
#   From: 2010.05.17/outbox.cif.g08.bks.cpg/sg15_80_cif.got.tgz:159494.got - 2010.06.03 18:47:42.
