data_PCOD9301473
_publ_section_title
;
Structure prediction by ZEFSAII (Michael W. Deem and Ramdas Pophale) SiO2 
 PCOD9301473
Probable space group: C 2/C
;
_chemical_formula_sum "Si O2"
_cell_formula_units_Z 64
_cell_length_a 18.413739
_cell_length_b 22.649160
_cell_length_c 18.117980
_cell_angle_alpha 90.000000
_cell_angle_beta 153.501732
_cell_angle_gamma 90.000000
_cell_volume 3371.358712
_symmetry_space_group_name_H-M "C 2/C"
_symmetry_group_IT_number 15
_symmetry_cell_setting 'monoclinic'
loop_
_space_group_symop_operation_xyz
x,y,z
-x,y,1/2-z
-x,-y,-z
x,-y,1/2+z
1/2+x,1/2+y,z
1/2-x,1/2+y,1/2-z
1/2-x,1/2-y,-z
1/2+x,1/2-y,1/2+z
loop_
_atom_site_type_symbol
_atom_site_label
_atom_site_fract_x
_atom_site_fract_y
_atom_site_fract_z
Si Si1 0.847696 0.974102 0.321245
Si Si2 0.207877 0.172165 0.097685
Si Si3 0.113938 0.440242 0.678519
Si Si4 0.466192 0.949003 0.132938
Si Si5 0.336690 0.476868 0.144705
Si Si6 0.172662 0.791558 0.246435
Si Si7 0.877612 0.622292 0.849788
Si Si8 0.803449 0.149089 0.576628
O O1 0.706485 0.022844 0.199401
O O2 0.882423 0.958528 0.269067
O O3 0.783721 0.917312 0.305123
O O4 0.000000 0.000000 0.500000
O O5 0.264630 0.107368 0.175082
O O6 0.312519 0.221270 0.235424
O O7 0.250329 0.177163 0.049139
O O8 0.014644 0.186151 0.932908
O O9 0.055500 0.491443 0.681876
O O10 0.971053 0.405355 0.506125
O O11 0.500000 0.939285 0.250000
O O12 0.517179 0.894446 0.126427
O O13 0.278210 0.967036 0.957372
O O14 0.500000 0.489277 0.250000
O O15 0.248140 0.419083 0.030716
O O16 0.301826 0.815316 0.303580
O O17 0.232655 0.816600 0.380955
O O18 0.000000 0.145809 0.750000
#
# Coordination Sequence:
#
# PCOD9301473 Si02
#       8
#     8   8   8   8   8   8   8   8
#     4  11  21  34  56  82 113 154 196 235 291 352
#     4  11  23  36  58  87 115 161 200 244 291 345
#     4  11  21  37  57  81 115 154 191 243 295 344
#     4  11  22  37  56  85 117 154 194 240 299 354
#     4  11  21  35  54  84 120 154 191 240 291 354
#     4  11  21  38  56  82 116 156 205 241 288 344
#     4  11  21  39  57  79 118 156 195 251 288 346
#     4   9  19  33  53  78 119 155 191 234 280 342
#
# _framework density 18.983445
#
# number of rings (size 3 to 8) (size 9 to 14) (size 15 to 20)
#    0.000    1.250    3.750    3.375    7.000    0.000 
#    0.000    4.375    0.000    0.000    0.000    4.375 
#    0.000    0.000    0.000    0.000    0.000    0.000 
#
# Total GULP energy -178580.273713 kJ/mol
# GULP energy per Si atom -5580.633554 kJ/mol
# Density = 1.894024 g / cm^3
# Si number density = 18.983445 Si / 1000 Ang^3
#
#
#
# Elastic Constant Matrix: (Units=GPa)
#
#
# Indices 1 2 3 4 5 6 
#
# 1 108.6119 28.5991 10.4996 -0.0023 5.2106 -0.0005
# 2 28.5991 64.5455 11.3828 0.0062 3.5903 0.0014
# 3 10.4996 11.3828 41.7262 0.0558 0.7268 0.0125
# 4 -0.0023 0.0062 0.0558 -920.2323 0.0223 -215.6651
# 5 5.2106 3.5903 0.7268 0.0223 24.4094 0.0050
# 6 -0.0005 0.0014 0.0125 -215.6651 0.0050 -20.1314
#
#
#
# Elastic Compliance Matrix: (Units=1/GPa)
#
#
# Indices 1 2 3 4 5 6 
#
# 1 0.010565 -0.004338 -0.001448 0.000000 -0.001574 0.000000
# 2 -0.004338 0.018183 -0.003840 0.000000 -0.001634 0.000000
# 3 -0.001448 -0.003840 0.025376 0.000001 0.000118 0.000000
# 4 0.000000 0.000000 0.000001 0.000719 0.000001 -0.007706
# 5 -0.001574 -0.001634 0.000118 0.000001 0.041541 0.000000
# 6 0.000000 0.000000 0.000000 -0.007706 0.000000 0.032882
#
#
# Mechanical properties :
#
#
# Convention : Reuss Voigt Hill
#
# Bulk Modulus (GPa) = 28.67667 35.09405 31.88536
# Shear Modulus (GPa) = 31.22232 -172.23072 -70.50420
#
# Velocity S-wave (km/s) = 4.05991 -9.53540 -6.10086
# Velocity P-wave (km/s) = 6.09229 10.13434 5.72664
#
# Compressibility (1/GPa) = 0.03487155
#
# Stress axis : x y z
#
# Youngs Moduli (GPa) = 94.65320 54.99548 39.40799
#
# Poissons Ratio (x) = 0.23859 0.05705
# Poissons Ratio (y) = 0.41063 0.15134
# Poissons Ratio (z) = 0.13702 0.21120
#
# Static dielectric constant tensor:
#      x y z
#    x 1.691340 0.000000 0.019380 
#    y 0.000000 1.685980 0.000000 
#    z 0.019380 0.000000 1.709870 
# 
# From -- ./inp_files/212003.got.cif
#   From: 2010.05.17/outbox.cif.g08.bks.cpg/sg15_107_cif.got.tgz:212003.got - 2010.06.03 18:47:42.
