data_PCOD9301768
_publ_section_title
;
Structure prediction by ZEFSAII (Michael W. Deem and Ramdas Pophale) SiO2 
 PCOD9301768
Probable space group: C 2/C
;
_chemical_formula_sum "Si O2"
_cell_formula_units_Z 40
_cell_length_a 13.814898
_cell_length_b 4.923681
_cell_length_c 20.507650
_cell_angle_alpha 90.000000
_cell_angle_beta 79.508742
_cell_angle_gamma 90.000000
_cell_volume 1371.613926
_symmetry_space_group_name_H-M "C 2/C"
_symmetry_group_IT_number 15
_symmetry_cell_setting 'monoclinic'
loop_
_space_group_symop_operation_xyz
x,y,z
-x,y,1/2-z
-x,-y,-z
x,-y,1/2+z
1/2+x,1/2+y,z
1/2-x,1/2+y,1/2-z
1/2-x,1/2-y,-z
1/2+x,1/2-y,1/2+z
loop_
_atom_site_type_symbol
_atom_site_label
_atom_site_fract_x
_atom_site_fract_y
_atom_site_fract_z
Si Si1 0.807052 0.889003 0.720670
Si Si2 0.907501 0.634888 0.888421
Si Si3 0.996947 0.849677 0.158830
Si Si4 0.777270 0.732011 0.579077
Si Si5 0.889845 0.216463 0.531920
O O1 0.731231 0.144457 0.729638
O O2 0.912586 0.030939 0.715280
O O3 0.811777 0.749915 0.649504
O O4 0.817578 0.426935 0.907527
O O5 0.974874 0.458573 0.831783
O O6 0.941009 0.683402 0.959581
O O7 0.912430 0.938655 0.859315
O O8 0.949912 0.813053 0.091490
O O9 0.798491 0.422681 0.556713
O O10 0.848839 0.914044 0.524952
#
# Coordination Sequence:
#
# PCOD9301768 Si02
#       5
#     8   8   8   8   8
#     4  11  23  44  64  80 111 161 208 252 302 366
#     4  12  22  38  60  95 129 153 192 259 308 359
#     4  11  23  38  61  91 120 158 206 248 303 370
#     4  11  23  39  62  91 120 161 208 245 300 375
#     4  11  21  39  61  89 128 169 194 230 304 390
#
# _framework density 29.162724000000001
#
# number of rings (size 3 to 8) (size 9 to 14) (size 15 to 20)
#    0.000    0.800    0.000   10.800    0.000    0.000 
#    0.000    6.000    0.000    0.000    0.000    0.000 
#    0.000    0.000    0.000    0.000    0.000    0.000 
#
# Total GULP energy -111959.656685 kJ/mol
# GULP energy per Si atom -5597.982834 kJ/mol
# Density = 2.909635 g / cm^3
# Si number density = 29.162724 Si / 1000 Ang^3
#
#
#
# Elastic Constant Matrix: (Units=GPa)
#
#
# Indices 1 2 3 4 5 6 
#
# 1 68.4213 30.4179 13.9634 0.0000 -10.2738 0.0000
# 2 30.4179 243.3603 47.1823 0.0000 -26.1565 0.0000
# 3 13.9634 47.1823 142.0245 0.0000 -9.9104 0.0000
# 4 0.0000 0.0000 0.0000 57.3978 0.0000 -17.4379
# 5 -10.2738 -26.1565 -9.9104 0.0000 37.5020 0.0000
# 6 0.0000 0.0000 0.0000 -17.4379 0.0000 52.0702
#
#
#
# Elastic Compliance Matrix: (Units=1/GPa)
#
#
# Indices 1 2 3 4 5 6 
#
# 1 0.015917 -0.001491 -0.000854 0.000000 0.003095 0.000000
# 2 -0.001491 0.004824 -0.001273 0.000000 0.002620 0.000000
# 3 -0.000854 -0.001273 0.007610 0.000000 0.000889 0.000000
# 4 0.000000 0.000000 0.000000 0.019396 0.000000 0.006495
# 5 0.003095 0.002620 0.000889 0.000000 0.029575 0.000000
# 6 0.000000 0.000000 0.000000 0.006495 0.000000 0.021380
#
#
# Mechanical properties :
#
#
# Convention : Reuss Voigt Hill
#
# Bulk Modulus (GPa) = 47.35968 70.77034 59.06501
# Shear Modulus (GPa) = 44.25699 53.54350 48.90025
#
# Velocity S-wave (km/s) = 3.89985 4.28954 4.09933
# Velocity P-wave (km/s) = 6.04595 6.98953 6.53479
#
# Compressibility (1/GPa) = 0.02111501
#
# Stress axis : x y z
#
# Youngs Moduli (GPa) = 62.82494 207.29987 131.40673
#
# Poissons Ratio (x) = 0.30917 0.11216
# Poissons Ratio (y) = 0.09370 0.16730
# Poissons Ratio (z) = 0.05362 0.26392
#
# Static dielectric constant tensor:
#      x y z
#    x 2.439390 0.000000 0.000670 
#    y 0.000000 2.107640 0.000000 
#    z 0.000670 0.000000 2.229650 
# 
# From -- ./inp_files/271828.got.cif
#   From: 2010.05.17/outbox.cif.g08.bks.cpg/sg15_136_cif.got.tgz:271828.got - 2010.06.03 18:47:42.
