data_PCOD9301516
_publ_section_title
;
Structure prediction by ZEFSAII (Michael W. Deem and Ramdas Pophale) SiO2 
 PCOD9301516
Probable space group: C 2/C
;
_chemical_formula_sum "Si O2"
_cell_formula_units_Z 60
_cell_length_a 11.910762
_cell_length_b 32.108873
_cell_length_c 8.244892
_cell_angle_alpha 90.000000
_cell_angle_beta 125.650889
_cell_angle_gamma 90.000000
_cell_volume 2562.226577
_symmetry_space_group_name_H-M "C 2/C"
_symmetry_group_IT_number 15
_symmetry_cell_setting 'monoclinic'
loop_
_space_group_symop_operation_xyz
x,y,z
-x,y,1/2-z
-x,-y,-z
x,-y,1/2+z
1/2+x,1/2+y,z
1/2-x,1/2+y,1/2-z
1/2-x,1/2-y,-z
1/2+x,1/2-y,1/2+z
loop_
_atom_site_type_symbol
_atom_site_label
_atom_site_fract_x
_atom_site_fract_y
_atom_site_fract_z
Si Si1 0.500000 0.477609 0.250000
Si Si2 0.019113 0.698941 0.568845
Si Si3 0.569355 0.350253 0.986111
Si Si4 0.879818 0.469038 0.279376
Si Si5 0.660975 0.882345 0.112845
Si Si6 0.226523 0.963463 0.841198
Si Si7 0.800223 0.238293 0.861743
Si Si8 0.837286 0.098829 0.458483
O O1 0.410443 0.508361 0.286027
O O2 0.607040 0.444770 0.418783
O O3 0.044068 0.652192 0.533119
O O4 0.110541 0.722338 0.118888
O O5 0.000000 0.698505 0.750000
O O6 0.161605 0.724060 0.654328
O O7 0.500000 0.356101 0.750000
O O8 0.598292 0.301377 0.038115
O O9 0.718287 0.370875 0.153896
O O10 0.462527 0.370644 0.022155
O O11 0.894390 0.428464 0.401153
O O12 0.844453 0.509919 0.349995
O O13 0.000000 0.473135 0.250000
O O14 0.749713 0.461093 0.051923
O O15 0.732536 0.881868 0.997740
O O16 0.223133 0.918101 0.760802
O O17 0.750000 0.250000 0.000000
#
# Coordination Sequence:
#
# PCOD9301516 Si02
#       8
#     4   8   8   8   8   8   8   8
#     4  12  22  40  66  88 128 150 210 264 322 370
#     4   9  18  35  62  90 122 163 212 259 314 379
#     4  11  21  35  61  92 127 160 207 263 321 377
#     4  12  24  42  62  87 125 172 219 258 315 384
#     4  11  22  39  57  90 128 167 206 260 319 380
#     4  12  25  40  65  93 120 168 215 271 319 373
#     4   9  18  35  61  93 123 160 212 262 314 383
#     4  12  23  39  61  94 131 163 206 266 327 380
#
# _framework density 23.417131999999999
#
# number of rings (size 3 to 8) (size 9 to 14) (size 15 to 20)
#    0.000    1.067    4.000    3.200    2.800    0.000 
#    0.000    2.000    0.000    3.200    0.000    0.000 
#    0.000    0.000    0.000    0.000    0.000    0.000 
#
# Total GULP energy -167748.141116 kJ/mol
# GULP energy per Si atom -5591.604704 kJ/mol
# Density = 2.336383 g / cm^3
# Si number density = 23.417132 Si / 1000 Ang^3
#
#
#
# Elastic Constant Matrix: (Units=GPa)
#
#
# Indices 1 2 3 4 5 6 
#
# 1 122.0318 65.4367 -3.8499 0.0000 -1.5328 0.0000
# 2 65.4367 123.5376 3.5946 0.0000 0.0472 0.0000
# 3 -3.8499 3.5946 50.5083 0.0000 -3.4091 0.0000
# 4 0.0000 0.0000 0.0000 7.0160 0.0000 1.1268
# 5 -1.5328 0.0472 -3.4091 0.0000 17.6692 0.0000
# 6 0.0000 0.0000 0.0000 1.1268 0.0000 51.6971
#
#
#
# Elastic Compliance Matrix: (Units=1/GPa)
#
#
# Indices 1 2 3 4 5 6 
#
# 1 0.011561 -0.006165 0.001407 0.000000 0.001291 0.000000
# 2 -0.006165 0.011400 -0.001337 0.000000 -0.000823 0.000000
# 3 0.001407 -0.001337 0.020274 0.000000 0.004037 0.000000
# 4 0.000000 0.000000 0.000000 0.143032 0.000000 -0.003117
# 5 0.001291 -0.000823 0.004037 0.000000 0.057489 0.000000
# 6 0.000000 0.000000 0.000000 -0.003117 0.000000 0.019411
#
#
# Mechanical properties :
#
#
# Convention : Reuss Voigt Hill
#
# Bulk Modulus (GPa) = 32.21179 47.38226 39.79703
# Shear Modulus (GPa) = 17.50059 30.66955 24.08507
#
# Velocity S-wave (km/s) = 2.73672 3.62291 3.21054
# Velocity P-wave (km/s) = 4.87562 6.14643 5.54754
#
# Compressibility (1/GPa) = 0.03104453
#
# Stress axis : x y z
#
# Youngs Moduli (GPa) = 86.49640 87.72233 49.32519
#
# Poissons Ratio (x) = 0.54083 -0.06941
# Poissons Ratio (y) = 0.53327 0.06594
# Poissons Ratio (z) = -0.12171 0.11727
#
# Static dielectric constant tensor:
#      x y z
#    x 1.882880 0.000000 0.078510 
#    y 0.000000 1.843600 0.000000 
#    z 0.078510 0.000000 2.003190 
# 
# From -- ./inp_files/35728.got.cif
#   From: 2010.05.17/outbox.cif.g08.bks.cpg/sg15_18_cif.got.tgz:35728.got - 2010.06.03 18:47:42.
