data_PCOD9301334
_publ_section_title
;
Structure prediction by ZEFSAII (Michael W. Deem and Ramdas Pophale) SiO2 
 PCOD9301334
Probable space group: C 2/C
;
_chemical_formula_sum "Si O2"
_cell_formula_units_Z 60
_cell_length_a 22.345451
_cell_length_b 9.579857
_cell_length_c 24.891027
_cell_angle_alpha 90.000000
_cell_angle_beta 146.974240
_cell_angle_gamma 90.000000
_cell_volume 2904.024349
_symmetry_space_group_name_H-M "C 2/C"
_symmetry_group_IT_number 15
_symmetry_cell_setting 'monoclinic'
loop_
_space_group_symop_operation_xyz
x,y,z
-x,y,1/2-z
-x,-y,-z
x,-y,1/2+z
1/2+x,1/2+y,z
1/2-x,1/2+y,1/2-z
1/2-x,1/2-y,-z
1/2+x,1/2-y,1/2+z
loop_
_atom_site_type_symbol
_atom_site_label
_atom_site_fract_x
_atom_site_fract_y
_atom_site_fract_z
Si Si1 0.782117 0.070550 0.141919
Si Si2 0.637463 0.785884 0.885915
Si Si3 0.983139 0.337404 0.503836
Si Si4 0.164185 0.433532 0.789879
Si Si5 0.500000 0.467256 0.250000
Si Si6 0.058736 0.526213 0.418649
Si Si7 0.698114 0.665982 0.637186
Si Si8 0.246341 0.825124 0.293430
O O1 0.777395 0.941753 0.179869
O O2 0.898290 0.054156 0.198386
O O3 0.772317 0.211189 0.168331
O O4 0.667651 0.057790 0.020752
O O5 0.647598 0.847691 0.833166
O O6 0.563962 0.646237 0.834905
O O7 0.588067 0.906657 0.884369
O O8 0.750000 0.750000 0.000000
O O9 0.080225 0.240126 0.555877
O O10 0.000000 0.500000 0.500000
O O11 0.959071 0.354767 0.549107
O O12 0.873122 0.286530 0.393562
O O13 0.272267 0.530338 0.875518
O O14 0.180889 0.313369 0.758409
O O15 0.063850 0.527181 0.689456
O O16 0.724927 0.622128 0.718038
#
# Coordination Sequence:
#
# PCOD9301334 Si02
#       8
#     8   8   8   8   4   8   8   8
#     4  11  24  44  70  95 130 179 227 269 336 398
#     4  12  22  42  68  96 127 173 230 280 323 393
#     4  11  21  41  70  91 130 179 220 260 341 404
#     4  12  24  41  67 102 135 171 224 280 332 392
#     4  12  22  44  68  94 124 172 236 268 320 394
#     4  11  20  41  69  93 124 180 220 268 330 402
#     4  12  25  41  65 103 138 169 218 278 338 398
#     4  11  21  42  68  98 129 181 217 267 330 405
#
# _framework density 20.660983999999999
#
# number of rings (size 3 to 8) (size 9 to 14) (size 15 to 20)
#    0.000    0.533    8.000    2.400    0.000    0.533 
#    4.800    0.667    0.000    0.000    0.000    0.000 
#    0.000    0.000    0.000    0.000    0.000    0.000 
#
# Total GULP energy -167097.410773 kJ/mol
# GULP energy per Si atom -5569.913692 kJ/mol
# Density = 2.061396 g / cm^3
# Si number density = 20.660984 Si / 1000 Ang^3
#
#
#
# Elastic Constant Matrix: (Units=GPa)
#
#
# Indices 1 2 3 4 5 6 
#
# 1 98.2102 11.9840 19.4196 0.0000 9.6669 0.0000
# 2 11.9840 37.8755 -9.0521 0.0000 2.5666 0.0000
# 3 19.4196 -9.0521 107.9129 0.0000 11.7610 0.0000
# 4 0.0000 0.0000 0.0000 20.1754 0.0000 10.9419
# 5 9.6669 2.5666 11.7610 0.0000 22.1169 0.0000
# 6 0.0000 0.0000 0.0000 10.9419 0.0000 22.5534
#
#
#
# Elastic Compliance Matrix: (Units=1/GPa)
#
#
# Indices 1 2 3 4 5 6 
#
# 1 0.011387 -0.003844 -0.001993 0.000000 -0.003471 0.000000
# 2 -0.003844 0.028687 0.003480 0.000000 -0.003499 0.000000
# 3 -0.001993 0.003480 0.010473 0.000000 -0.005102 0.000000
# 4 0.000000 0.000000 0.000000 0.067263 0.000000 -0.032633
# 5 -0.003471 -0.003499 -0.005102 0.000000 0.049850 0.000000
# 6 0.000000 0.000000 0.000000 -0.032633 0.000000 0.060171
#
#
# Mechanical properties :
#
#
# Convention : Reuss Voigt Hill
#
# Bulk Modulus (GPa) = 21.81886 32.07796 26.94841
# Shear Modulus (GPa) = 20.17542 27.74562 23.96052
#
# Velocity S-wave (km/s) = 3.12829 3.66853 3.40913
# Velocity P-wave (km/s) = 4.86123 5.78824 5.34487
#
# Compressibility (1/GPa) = 0.04583190
#
# Stress axis : x y z
#
# Youngs Moduli (GPa) = 87.81848 34.85861 95.48034
#
# Poissons Ratio (x) = 0.13400 0.19033
# Poissons Ratio (y) = 0.33759 -0.33223
# Poissons Ratio (z) = 0.17505 -0.12129
#
# Static dielectric constant tensor:
#      x y z
#    x 1.717950 0.000000 -0.090950 
#    y 0.000000 1.741290 0.000000 
#    z -0.090950 0.000000 1.325670 
# 
# From -- ./inp_files/302094.got.cif
#   From: 2010.05.17/outbox.cif.g08.bks.cpg/sg15_152_cif.got.tgz:302094.got - 2010.06.03 18:47:42.
