data_PCOD9301676
_publ_section_title
;
Structure prediction by ZEFSAII (Michael W. Deem and Ramdas Pophale) SiO2 
 PCOD9301676
Probable space group: C 2/C
;
_chemical_formula_sum "Si O2"
_cell_formula_units_Z 32
_cell_length_a 17.790312
_cell_length_b 14.943055
_cell_length_c 8.337877
_cell_angle_alpha 90.000000
_cell_angle_beta 145.451767
_cell_angle_gamma 90.000000
_cell_volume 1257.007713
_symmetry_space_group_name_H-M "C 2/C"
_symmetry_group_IT_number 15
_symmetry_cell_setting 'monoclinic'
loop_
_space_group_symop_operation_xyz
x,y,z
-x,y,1/2-z
-x,-y,-z
x,-y,1/2+z
1/2+x,1/2+y,z
1/2-x,1/2+y,1/2-z
1/2-x,1/2-y,-z
1/2+x,1/2-y,1/2+z
loop_
_atom_site_type_symbol
_atom_site_label
_atom_site_fract_x
_atom_site_fract_y
_atom_site_fract_z
Si Si1 0.514476 0.870831 0.105331
Si Si2 0.268918 0.798002 0.798769
Si Si3 0.795751 0.597220 0.823071
Si Si4 0.644273 0.458052 0.749270
O O1 0.500000 0.922623 0.250000
O O2 0.628144 0.799785 0.366007
O O3 0.571164 0.915926 0.048304
O O4 0.371403 0.826822 0.839478
O O5 0.210276 0.702696 0.656928
O O6 0.165833 0.875976 0.662753
O O7 0.753453 0.532350 0.891155
O O8 0.681306 0.576565 0.489973
O O9 0.500000 0.500000 0.500000
#
# Coordination Sequence:
#
# PCOD9301676 Si02
#       4
#     8   8   8   8
#     4   7  16  31  58  76 111 146 209 223 285 337
#     4   8  19  35  57  87 114 154 203 240 290 347
#     4  11  21  38  58  90 119 157 198 249 296 352
#     4  11  23  34  60  90 124 151 202 246 299 352
#
# _framework density 25.457280000000001
#
# number of rings (size 3 to 8) (size 9 to 14) (size 15 to 20)
#    1.500    1.000    0.000    3.750   10.500    1.000 
#    0.000    1.250    0.000    0.000    6.500    0.000 
#    0.000    0.000    0.000    0.000    0.000    0.000 
#
# Total GULP energy -89309.501660 kJ/mol
# GULP energy per Si atom -5581.843854 kJ/mol
# Density = 2.539934 g / cm^3
# Si number density = 25.457280 Si / 1000 Ang^3
#
#
#
# Elastic Constant Matrix: (Units=GPa)
#
#
# Indices 1 2 3 4 5 6 
#
# 1 140.8025 65.3951 46.5242 0.0000 37.5096 0.0000
# 2 65.3951 175.1244 31.1810 0.0000 12.4714 0.0000
# 3 46.5242 31.1810 41.6198 0.0000 1.4810 0.0000
# 4 0.0000 0.0000 0.0000 -150.5734 0.0000 -37.9013
# 5 37.5096 12.4714 1.4810 0.0000 45.4282 0.0000
# 6 0.0000 0.0000 0.0000 -37.9013 0.0000 18.5458
#
#
#
# Elastic Compliance Matrix: (Units=1/GPa)
#
#
# Indices 1 2 3 4 5 6 
#
# 1 0.017439 -0.002525 -0.017134 0.000000 -0.013147 0.000000
# 2 -0.002525 0.007081 -0.002490 0.000000 0.000222 0.000000
# 3 -0.017134 -0.002490 0.044570 0.000000 0.013378 0.000000
# 4 0.000000 0.000000 0.000000 -0.004385 0.000000 -0.008962
# 5 -0.013147 0.000222 0.013378 0.000000 0.032371 0.000000
# 6 0.000000 0.000000 0.000000 -0.008962 0.000000 0.035605
#
#
# Mechanical properties :
#
#
# Convention : Reuss Voigt Hill
#
# Bulk Modulus (GPa) = 40.33779 71.52748 55.93264
# Shear Modulus (GPa) = 26.99168 -3.02344 11.98412
#
# Velocity S-wave (km/s) = 3.25972 -1.09098 2.17204
# Velocity P-wave (km/s) = 5.48155 5.15471 5.32064
#
# Compressibility (1/GPa) = 0.02479065
#
# Stress axis : x y z
#
# Youngs Moduli (GPa) = 57.34339 141.23004 22.43665
#
# Poissons Ratio (x) = 0.35660 0.38444
# Poissons Ratio (y) = 0.14479 0.05587
# Poissons Ratio (z) = 0.98254 0.35168
#
# Static dielectric constant tensor:
#      x y z
#    x 2.078310 0.000000 -0.003720 
#    y 0.000000 2.018600 0.000000 
#    z -0.003720 0.000000 2.131670 
# 
# From -- ./inp_files/56892.got.cif
#   From: 2010.05.17/outbox.cif.g08.bks.cpg/sg15_29_cif.got.tgz:56892.got - 2010.06.03 18:47:42.
