data_PCOD9301216
_publ_section_title
;
Structure prediction by ZEFSAII (Michael W. Deem and Ramdas Pophale) SiO2 
 PCOD9301216
Probable space group: C 2/C
;
_chemical_formula_sum "Si O2"
_cell_formula_units_Z 64
_cell_length_a 18.389190
_cell_length_b 13.306538
_cell_length_c 13.334895
_cell_angle_alpha 90.000000
_cell_angle_beta 100.942334
_cell_angle_gamma 90.000000
_cell_volume 3203.676023
_symmetry_space_group_name_H-M "C 2/C"
_symmetry_group_IT_number 15
_symmetry_cell_setting 'monoclinic'
loop_
_space_group_symop_operation_xyz
x,y,z
-x,y,1/2-z
-x,-y,-z
x,-y,1/2+z
1/2+x,1/2+y,z
1/2-x,1/2+y,1/2-z
1/2-x,1/2-y,-z
1/2+x,1/2-y,1/2+z
loop_
_atom_site_type_symbol
_atom_site_label
_atom_site_fract_x
_atom_site_fract_y
_atom_site_fract_z
Si Si1 0.238976 0.635678 0.528150
Si Si2 0.038150 0.185083 0.149817
Si Si3 0.207930 0.334664 0.645847
Si Si4 0.704074 0.023617 0.329114
Si Si5 0.322145 0.175412 0.769611
Si Si6 0.879891 0.013217 0.829242
Si Si7 0.587387 0.310044 0.030626
Si Si8 0.336783 0.531368 0.095955
O O1 0.250000 0.750000 0.500000
O O2 0.191994 0.577193 0.431901
O O3 0.209027 0.633080 0.633369
O O4 0.316424 0.576413 0.546869
O O5 0.107397 0.257590 0.187069
O O6 0.069081 0.077715 0.119887
O O7 0.000000 0.176179 0.250000
O O8 0.985432 0.224932 0.047097
O O9 0.182997 0.398924 0.735578
O O10 0.261512 0.247378 0.702543
O O11 0.143511 0.280781 0.567088
O O12 0.259490 0.410009 0.596021
O O13 0.792960 0.998259 0.339373
O O14 0.664054 0.918306 0.299759
O O15 0.876411 0.991507 0.710221
O O16 0.913167 0.120719 0.869375
O O17 0.618914 0.393493 0.961689
#
# Coordination Sequence:
#
# PCOD9301216 Si02
#       8
#     8   8   8   8   8   8   8   8
#     4  12  21  35  65 100 129 164 203 272 334 367
#     4  12  25  43  61  92 130 172 210 260 321 387
#     4  11  20  39  63  93 125 164 215 263 308 378
#     4  11  22  38  65  99 127 158 219 273 318 369
#     4  12  22  42  66  93 133 165 215 269 316 382
#     4  11  20  40  61  96 128 156 207 268 322 375
#     4  12  23  38  65  92 130 168 210 260 327 380
#     4  11  21  37  65  98 125 163 216 263 318 379
#
# _framework density 19.977050999999999
#
# number of rings (size 3 to 8) (size 9 to 14) (size 15 to 20)
#    0.000    0.500   10.000    0.750    0.000    1.000 
#    0.000    0.625    0.000    0.000    0.000    0.000 
#    0.000    0.000    0.000    0.000    0.000    0.000 
#
# Total GULP energy -178705.300747 kJ/mol
# GULP energy per Si atom -5584.540648 kJ/mol
# Density = 1.993158 g / cm^3
# Si number density = 19.977051 Si / 1000 Ang^3
#
#
#
# Elastic Constant Matrix: (Units=GPa)
#
#
# Indices 1 2 3 4 5 6 
#
# 1 25.5607 -4.0251 6.5236 0.0000 20.1418 0.0000
# 2 -4.0251 94.3952 18.2892 0.0000 15.4016 0.0000
# 3 6.5236 18.2892 60.1796 0.0000 24.0129 0.0000
# 4 0.0000 0.0000 0.0000 39.5677 0.0000 5.5033
# 5 20.1418 15.4016 24.0129 0.0000 37.9026 0.0000
# 6 0.0000 0.0000 0.0000 5.5033 0.0000 19.5221
#
#
#
# Elastic Compliance Matrix: (Units=1/GPa)
#
#
# Indices 1 2 3 4 5 6 
#
# 1 0.079448 0.010125 0.009099 0.000000 -0.052099 0.000000
# 2 0.010125 0.012849 -0.001033 0.000000 -0.009947 0.000000
# 3 0.009099 -0.001033 0.023697 0.000000 -0.019428 0.000000
# 4 0.000000 0.000000 0.000000 0.026304 0.000000 -0.007415
# 5 -0.052099 -0.009947 -0.019428 0.000000 0.070420 0.000000
# 6 0.000000 0.000000 0.000000 -0.007415 0.000000 0.053315
#
#
# Mechanical properties :
#
#
# Convention : Reuss Voigt Hill
#
# Bulk Modulus (GPa) = 6.56273 24.63454 15.59863
# Shear Modulus (GPa) = 17.82892 30.02165 23.92529
#
# Velocity S-wave (km/s) = 2.99066 3.88081 3.46445
# Velocity P-wave (km/s) = 3.90099 5.69553 4.88143
#
# Compressibility (1/GPa) = 0.15237568
#
# Stress axis : x y z
#
# Youngs Moduli (GPa) = 12.58678 77.82884 42.19951
#
# Poissons Ratio (x) = -0.78804 -0.38397
# Poissons Ratio (y) = -0.12745 0.04361
# Poissons Ratio (z) = -0.11453 0.08043
#
# Static dielectric constant tensor:
#      x y z
#    x 1.729130 0.000000 -0.007910 
#    y 0.000000 1.703600 0.000000 
#    z -0.007910 0.000000 1.769200 
# 
# From -- ./inp_files/167652.got.cif
#   From: 2010.05.17/outbox.cif.g08.bks.cpg/sg15_84_cif.got.tgz:167652.got - 2010.06.03 18:47:42.
