data_PCOD9301184
_publ_section_title
;
Structure prediction by ZEFSAII (Michael W. Deem and Ramdas Pophale) SiO2 
 PCOD9301184
Probable space group: C 2/C
;
_chemical_formula_sum "Si O2"
_cell_formula_units_Z 52
_cell_length_a 9.288423
_cell_length_b 20.976918
_cell_length_c 12.077671
_cell_angle_alpha 90.000000
_cell_angle_beta 87.383419
_cell_angle_gamma 90.000000
_cell_volume 2350.789971
_symmetry_space_group_name_H-M "C 2/C"
_symmetry_group_IT_number 15
_symmetry_cell_setting 'monoclinic'
loop_
_space_group_symop_operation_xyz
x,y,z
-x,y,1/2-z
-x,-y,-z
x,-y,1/2+z
1/2+x,1/2+y,z
1/2-x,1/2+y,1/2-z
1/2-x,1/2-y,-z
1/2+x,1/2-y,1/2+z
loop_
_atom_site_type_symbol
_atom_site_label
_atom_site_fract_x
_atom_site_fract_y
_atom_site_fract_z
Si Si1 0.880499 0.437345 0.159697
Si Si2 0.519701 0.836075 0.529042
Si Si3 0.500000 0.246053 0.750000
Si Si4 0.778937 0.832936 0.233633
Si Si5 0.966366 0.808401 0.437037
Si Si6 0.147008 0.423106 0.818454
Si Si7 0.183070 0.144227 0.358775
O O1 0.746524 0.404930 0.225994
O O2 0.846639 0.508711 0.120712
O O3 0.000000 0.443424 0.250000
O O4 0.935712 0.386483 0.067316
O O5 0.509406 0.760730 0.506046
O O6 0.380895 0.864548 0.596764
O O7 0.657454 0.838617 0.605298
O O8 0.374155 0.197491 0.794168
O O9 0.395399 0.296805 0.694693
O O10 0.849651 0.801624 0.341547
O O11 0.888019 0.826780 0.129559
O O12 0.909868 0.861254 0.525408
O O13 0.282626 0.409794 0.733399
O O14 0.000000 0.424912 0.750000
#
# Coordination Sequence:
#
# PCOD9301184 Si02
#       7
#     8   8   4   8   8   8   8
#     4  11  22  41  63  95 129 167 223 277 313 377
#     4  11  20  38  68  94 124 172 217 267 327 389
#     4  12  22  38  62  96 136 162 212 280 320 374
#     4  11  23  39  64  96 136 167 213 268 325 392
#     4  11  23  40  65  98 128 176 214 257 342 398
#     4   9  22  40  66  94 125 171 226 266 318 387
#     4  11  22  40  63  93 129 172 213 267 327 388
#
# _framework density 22.120225000000001
#
# number of rings (size 3 to 8) (size 9 to 14) (size 15 to 20)
#    0.000    1.231    3.846    2.769    4.308    0.615 
#    2.769    2.308    0.000    0.000    0.000    0.000 
#    0.000    0.000    0.000    0.000    0.000    0.000 
#
# Total GULP energy -144892.325584 kJ/mol
# GULP energy per Si atom -5572.781753 kJ/mol
# Density = 2.206988 g / cm^3
# Si number density = 22.120225 Si / 1000 Ang^3
#
#
#
# Elastic Constant Matrix: (Units=GPa)
#
#
# Indices 1 2 3 4 5 6 
#
# 1 95.1731 32.4494 39.3282 0.0000 -22.5882 0.0000
# 2 32.4494 99.5477 54.8581 0.0000 -21.7521 0.0000
# 3 39.3282 54.8581 73.7962 0.0000 -36.3624 0.0000
# 4 0.0000 0.0000 0.0000 31.8618 0.0000 -5.4519
# 5 -22.5882 -21.7521 -36.3624 0.0000 37.2444 0.0000
# 6 0.0000 0.0000 0.0000 -5.4519 0.0000 1.6257
#
#
#
# Elastic Compliance Matrix: (Units=1/GPa)
#
#
# Indices 1 2 3 4 5 6 
#
# 1 0.013626 -0.000972 -0.005293 0.000000 0.002528 0.000000
# 2 -0.000972 0.017514 -0.014937 0.000000 -0.004945 0.000000
# 3 -0.005293 -0.014937 0.041615 0.000000 0.028696 0.000000
# 4 0.000000 0.000000 0.000000 0.073644 0.000000 0.246966
# 5 0.002528 -0.004945 0.028696 0.000000 0.053511 0.000000
# 6 0.000000 0.000000 0.000000 0.246966 0.000000 1.443302
#
#
# Mechanical properties :
#
#
# Convention : Reuss Voigt Hill
#
# Bulk Modulus (GPa) = 32.94989 57.97649 45.46319
# Shear Modulus (GPa) = 2.94858 23.60515 13.27686
#
# Velocity S-wave (km/s) = 1.15580 3.27024 2.45258
# Velocity P-wave (km/s) = 4.08770 6.36600 5.34954
#
# Compressibility (1/GPa) = 0.03034912
#
# Stress axis : x y z
#
# Youngs Moduli (GPa) = 73.38906 57.09876 24.02966
#
# Poissons Ratio (x) = 0.05552 0.12719
# Poissons Ratio (y) = 0.07135 0.35894
# Poissons Ratio (z) = 0.38846 0.85291
#
# Static dielectric constant tensor:
#      x y z
#    x 1.806400 0.000000 0.037270 
#    y 0.000000 1.810350 0.000000 
#    z 0.037270 0.000000 1.962860 
# 
# From -- ./inp_files/135972.got.cif
#   From: 2010.05.17/outbox.cif.g08.bks.cpg/sg15_68_cif.got.tgz:135972.got - 2010.06.03 18:47:42.
