data_PCOD9301126
_publ_section_title
;
Structure prediction by ZEFSAII (Michael W. Deem and Ramdas Pophale) SiO2 
 PCOD9301126
Probable space group: C 2/C
;
_chemical_formula_sum "Si O2"
_cell_formula_units_Z 52
_cell_length_a 30.460977
_cell_length_b 19.235849
_cell_length_c 9.571852
_cell_angle_alpha 90.000000
_cell_angle_beta 28.925439
_cell_angle_gamma 90.000000
_cell_volume 2712.696735
_symmetry_space_group_name_H-M "C 2/C"
_symmetry_group_IT_number 15
_symmetry_cell_setting 'monoclinic'
loop_
_space_group_symop_operation_xyz
x,y,z
-x,y,1/2-z
-x,-y,-z
x,-y,1/2+z
1/2+x,1/2+y,z
1/2-x,1/2+y,1/2-z
1/2-x,1/2-y,-z
1/2+x,1/2-y,1/2+z
loop_
_atom_site_type_symbol
_atom_site_label
_atom_site_fract_x
_atom_site_fract_y
_atom_site_fract_z
Si Si1 0.069963 0.252736 0.735541
Si Si2 0.230626 0.662146 0.635718
Si Si3 0.851938 0.961810 0.836450
Si Si4 0.867682 0.282637 0.331831
Si Si5 0.852341 0.234304 0.675191
Si Si6 0.606651 0.576313 0.977043
Si Si7 0.500000 0.372788 0.250000
O O1 0.150318 0.299977 0.447213
O O2 0.088854 0.242640 0.848046
O O3 0.057485 0.178235 0.693084
O O4 0.970727 0.286319 0.993483
O O5 0.261538 0.584957 0.584579
O O6 0.196435 0.663888 0.570827
O O7 0.318820 0.710672 0.418623
O O8 0.931089 0.920121 0.531629
O O9 0.845278 0.036004 0.782302
O O10 0.878808 0.966125 0.922135
O O11 0.872367 0.282175 0.485584
O O12 0.860157 0.155010 0.602368
O O13 0.750000 0.250000 0.000000
O O14 0.500000 0.580255 0.250000
#
# Coordination Sequence:
#
# PCOD9301126 Si02
#       7
#     8   8   8   8   8   8   4
#     4  12  21  36  64  90 125 163 202 257 308 358
#     4  11  21  39  59  90 124 156 212 250 304 367
#     4  12  25  39  58  86 126 166 201 249 297 385
#     4  11  20  38  58  90 123 158 200 253 308 358
#     4  12  24  38  60  93 131 159 200 260 305 363
#     4  12  25  41  57  88 123 168 208 240 311 379
#     4  12  20  36  62  86 122 166 204 236 304 362
#
# _framework density 19.169117
#
# number of rings (size 3 to 8) (size 9 to 14) (size 15 to 20)
#    0.000    0.308    6.923    3.692    2.154    0.000 
#    0.000    0.000    0.000    0.000    0.000   21.538 
#    0.000    0.000    0.000    0.000    0.000    0.000 
#
# Total GULP energy -145263.341975 kJ/mol
# GULP energy per Si atom -5587.051614 kJ/mol
# Density = 1.912549 g / cm^3
# Si number density = 19.169117 Si / 1000 Ang^3
#
#
#
# Elastic Constant Matrix: (Units=GPa)
#
#
# Indices 1 2 3 4 5 6 
#
# 1 131.0375 11.4197 21.6397 0.0000 13.2354 0.0000
# 2 11.4197 26.2768 9.6482 0.0000 -3.3884 0.0000
# 3 21.6397 9.6482 82.7732 0.0000 -3.6253 0.0000
# 4 0.0000 0.0000 0.0000 -71.5047 0.0000 81.2609
# 5 13.2354 -3.3884 -3.6253 0.0000 37.8076 0.0000
# 6 0.0000 0.0000 0.0000 81.2609 0.0000 -39.5404
#
#
#
# Elastic Compliance Matrix: (Units=1/GPa)
#
#
# Indices 1 2 3 4 5 6 
#
# 1 0.008620 -0.003464 -0.002004 0.000000 -0.003520 0.000000
# 2 -0.003464 0.041523 -0.003734 0.000000 0.004576 0.000000
# 3 -0.002004 -0.003734 0.013111 0.000000 0.001624 0.000000
# 4 0.000000 0.000000 0.000000 0.010471 0.000000 0.021520
# 5 -0.003520 0.004576 0.001624 0.000000 0.028248 0.000000
# 6 0.000000 0.000000 0.000000 0.021520 0.000000 0.018937
#
#
# Mechanical properties :
#
#
# Convention : Reuss Voigt Hill
#
# Bulk Modulus (GPa) = 22.29645 36.16698 29.23171
# Shear Modulus (GPa) = 32.41187 -1.48885 15.46151
#
# Velocity S-wave (km/s) = 4.11644 -0.88226 2.84312
# Velocity P-wave (km/s) = 5.85236 4.22734 5.10493
#
# Compressibility (1/GPa) = 0.04485019
#
# Stress axis : x y z
#
# Youngs Moduli (GPa) = 116.01213 24.08299 76.26919
#
# Poissons Ratio (x) = 0.08343 0.15283
# Poissons Ratio (y) = 0.40189 0.28478
# Poissons Ratio (z) = 0.23247 0.08992
#
# Static dielectric constant tensor:
#      x y z
#    x 1.724360 0.000000 0.037990 
#    y 0.000000 1.662330 0.000000 
#    z 0.037990 0.000000 1.691960 
# 
# From -- ./inp_files/70803.got.cif
#   From: 2010.05.17/outbox.cif.g08.bks.cpg/sg15_36_cif.got.tgz:70803.got - 2010.06.03 18:47:42.
