data_PCOD9301813
_publ_section_title
;
Structure prediction by ZEFSAII (Michael W. Deem and Ramdas Pophale) SiO2 
 PCOD9301813
Probable space group: C 2/C
;
_chemical_formula_sum "Si O2"
_cell_formula_units_Z 64
_cell_length_a 16.162382
_cell_length_b 15.893842
_cell_length_c 14.048781
_cell_angle_alpha 90.000000
_cell_angle_beta 57.780468
_cell_angle_gamma 90.000000
_cell_volume 3053.157072
_symmetry_space_group_name_H-M "C 2/C"
_symmetry_group_IT_number 15
_symmetry_cell_setting 'monoclinic'
loop_
_space_group_symop_operation_xyz
x,y,z
-x,y,1/2-z
-x,-y,-z
x,-y,1/2+z
1/2+x,1/2+y,z
1/2-x,1/2+y,1/2-z
1/2-x,1/2-y,-z
1/2+x,1/2-y,1/2+z
loop_
_atom_site_type_symbol
_atom_site_label
_atom_site_fract_x
_atom_site_fract_y
_atom_site_fract_z
Si Si1 0.701921 0.372533 0.601913
Si Si2 0.349953 0.275473 0.058680
Si Si3 0.570513 0.726934 0.455322
Si Si4 0.549662 0.479046 0.808614
Si Si5 0.597566 0.185103 0.134169
Si Si6 0.119205 0.032703 0.448135
Si Si7 0.723072 0.301303 0.191609
Si Si8 0.769278 0.552205 0.520809
O O1 0.674693 0.338789 0.512935
O O2 0.771662 0.300451 0.600661
O O3 0.604021 0.400926 0.720688
O O4 0.764812 0.458126 0.561337
O O5 0.464104 0.250175 0.979644
O O6 0.335276 0.309276 0.174617
O O7 0.576166 0.750116 0.562916
O O8 0.583978 0.626919 0.443137
O O9 0.664172 0.775763 0.355270
O O10 0.500000 0.527907 0.750000
O O11 0.629678 0.507934 0.837510
O O12 0.457019 0.482765 0.938072
O O13 0.500000 0.170979 0.250000
O O14 0.678388 0.226077 0.154059
O O15 0.631203 0.098793 0.065024
O O16 0.212489 0.045476 0.455915
O O17 0.719960 0.383148 0.125674
#
# Coordination Sequence:
#
# PCOD9301813 Si02
#       8
#     8   8   8   8   8   8   8   8
#     4  11  26  46  61  94 141 178 235 275 333 420
#     4  11  26  45  68  92 136 195 224 278 349 417
#     4  11  21  39  66 100 131 174 228 270 348 418
#     4  11  23  37  60  97 134 175 213 279 339 408
#     4  11  21  39  66 100 136 173 218 285 349 409
#     4  11  22  36  64 101 137 168 214 277 367 391
#     4  11  22  43  69 101 140 176 225 291 347 413
#     4  11  23  42  64 103 137 168 225 293 345 413
#
# _framework density 20.961908999999999
#
# number of rings (size 3 to 8) (size 9 to 14) (size 15 to 20)
#    0.000    1.000    5.000    2.250    3.500    0.500 
#    0.000    5.625    0.000    0.000    0.000    0.000 
#    0.000    0.000    0.000    0.000    0.000    0.000 
#
# Total GULP energy -178372.206610 kJ/mol
# GULP energy per Si atom -5574.131457 kJ/mol
# Density = 2.091420 g / cm^3
# Si number density = 20.961909 Si / 1000 Ang^3
#
#
#
# Elastic Constant Matrix: (Units=GPa)
#
#
# Indices 1 2 3 4 5 6 
#
# 1 68.5670 26.0674 27.7914 0.0000 4.8588 0.0000
# 2 26.0674 113.2705 36.5631 0.0000 -1.7326 0.0000
# 3 27.7914 36.5631 114.4512 0.0000 6.9705 0.0000
# 4 0.0000 0.0000 0.0000 25.5166 0.0000 -3.0170
# 5 4.8588 -1.7326 6.9705 0.0000 37.2493 0.0000
# 6 0.0000 0.0000 0.0000 -3.0170 0.0000 18.6771
#
#
#
# Elastic Compliance Matrix: (Units=1/GPa)
#
#
# Indices 1 2 3 4 5 6 
#
# 1 0.017091 -0.002962 -0.003095 0.000000 -0.001788 0.000000
# 2 -0.002962 0.010398 -0.002686 0.000000 0.001373 0.000000
# 3 -0.003095 -0.002686 0.010449 0.000000 -0.001677 0.000000
# 4 0.000000 0.000000 0.000000 0.039953 0.000000 0.006454
# 5 -0.001788 0.001373 -0.001677 0.000000 0.027457 0.000000
# 6 0.000000 0.000000 0.000000 0.006454 0.000000 0.054584
#
#
# Mechanical properties :
#
#
# Convention : Reuss Voigt Hill
#
# Bulk Modulus (GPa) = 48.89338 53.01471 50.95405
# Shear Modulus (GPa) = 27.13902 30.01304 28.57603
#
# Velocity S-wave (km/s) = 3.60207 3.78800 3.69621
# Velocity P-wave (km/s) = 6.37773 6.66917 6.52508
#
# Compressibility (1/GPa) = 0.02045267
#
# Stress axis : x y z
#
# Youngs Moduli (GPa) = 58.50889 96.17144 95.70092
#
# Poissons Ratio (x) = 0.28482 0.29621
# Poissons Ratio (y) = 0.17328 0.25708
# Poissons Ratio (z) = 0.18110 0.25834
#
# Static dielectric constant tensor:
#      x y z
#    x 1.807630 0.000000 0.023190 
#    y 0.000000 1.791210 0.000000 
#    z 0.023190 0.000000 1.795090 
# 
# From -- ./inp_files/155195.got.cif
#   From: 2010.05.17/outbox.cif.g08.bks.cpg/sg15_78_cif.got.tgz:155195.got - 2010.06.03 18:47:42.
