data_PCOD9301100
_publ_section_title
;
Structure prediction by ZEFSAII (Michael W. Deem and Ramdas Pophale) SiO2 
 PCOD9301100
Probable space group: C 2/C
;
_chemical_formula_sum "Si O2"
_cell_formula_units_Z 64
_cell_length_a 8.932577
_cell_length_b 20.309591
_cell_length_c 15.972807
_cell_angle_alpha 90.000000
_cell_angle_beta 97.561358
_cell_angle_gamma 90.000000
_cell_volume 2872.541246
_symmetry_space_group_name_H-M "C 2/C"
_symmetry_group_IT_number 15
_symmetry_cell_setting 'monoclinic'
loop_
_space_group_symop_operation_xyz
x,y,z
-x,y,1/2-z
-x,-y,-z
x,-y,1/2+z
1/2+x,1/2+y,z
1/2-x,1/2+y,1/2-z
1/2-x,1/2-y,-z
1/2+x,1/2-y,1/2+z
loop_
_atom_site_type_symbol
_atom_site_label
_atom_site_fract_x
_atom_site_fract_y
_atom_site_fract_z
Si Si1 0.528261 0.923918 0.495335
Si Si2 0.259804 0.915915 0.134968
Si Si3 0.322459 0.631336 0.108457
Si Si4 0.018064 0.005558 0.852101
Si Si5 0.938306 0.799979 0.463121
Si Si6 0.271708 0.624604 0.558324
Si Si7 0.338710 0.172461 0.778289
Si Si8 0.868449 0.712651 0.303711
O O1 0.585071 0.916659 0.403806
O O2 0.670500 0.898524 0.556866
O O3 0.369056 0.893435 0.509573
O O4 0.500000 0.000000 0.500000
O O5 0.165239 0.855275 0.089367
O O6 0.295927 0.896925 0.232109
O O7 0.145776 0.976774 0.120775
O O8 0.432911 0.568881 0.122944
O O9 0.263430 0.659744 0.191390
O O10 0.383094 0.692207 0.055193
O O11 0.000000 0.013336 0.750000
O O12 0.137144 0.060059 0.898649
O O13 0.923876 0.736937 0.400989
O O14 0.106625 0.827451 0.472339
O O15 0.185670 0.662995 0.626144
O O16 0.500000 0.191720 0.750000
O O17 0.211779 0.224346 0.742342
O O18 0.000000 0.691692 0.250000
#
# Coordination Sequence:
#
# PCOD9301100 Si02
#       8
#     8   8   8   8   8   8   8   8
#     4  11  22  38  59  95 132 169 205 261 329 396
#     4   9  20  33  60  92 122 158 208 262 314 374
#     4  11  25  43  60  93 135 175 209 265 346 401
#     4  11  22  38  62  93 131 170 215 263 329 398
#     4   9  21  39  67  89 120 167 219 264 317 391
#     4  11  20  37  66  99 124 162 225 269 313 383
#     4  11  20  37  65  97 122 158 219 283 317 363
#     4  11  23  45  68  90 124 174 228 276 324 385
#
# _framework density 22.279924000000001
#
# number of rings (size 3 to 8) (size 9 to 14) (size 15 to 20)
#    0.000    1.500    5.000    0.375    1.750    2.000 
#    2.250    2.500    0.000    0.000    0.000    0.000 
#    0.000    0.000    0.000    0.000    0.000    0.000 
#
# Total GULP energy -178497.264244 kJ/mol
# GULP energy per Si atom -5578.039508 kJ/mol
# Density = 2.222921 g / cm^3
# Si number density = 22.279924 Si / 1000 Ang^3
#
#
#
# Elastic Constant Matrix: (Units=GPa)
#
#
# Indices 1 2 3 4 5 6 
#
# 1 107.3589 3.3187 12.2822 0.0000 -21.3103 0.0000
# 2 3.3187 53.1397 0.1064 0.0000 -7.8952 0.0000
# 3 12.2822 0.1064 26.8702 0.0000 -16.3422 0.0000
# 4 0.0000 0.0000 0.0000 -4.1796 0.0000 -14.7408
# 5 -21.3103 -7.8952 -16.3422 0.0000 38.5227 0.0000
# 6 0.0000 0.0000 0.0000 -14.7408 0.0000 26.4431
#
#
#
# Elastic Compliance Matrix: (Units=1/GPa)
#
#
# Indices 1 2 3 4 5 6 
#
# 1 0.010522 0.000108 -0.001693 0.000000 0.005124 0.000000
# 2 0.000108 0.019611 0.003172 0.000000 0.005425 0.000000
# 3 -0.001693 0.003172 0.050948 0.000000 0.021327 0.000000
# 4 0.000000 0.000000 0.000000 -0.080665 0.000000 -0.044967
# 5 0.005124 0.005425 0.021327 0.000000 0.038953 0.000000
# 6 0.000000 0.000000 0.000000 -0.044967 0.000000 0.012750
#
#
# Mechanical properties :
#
#
# Convention : Reuss Voigt Hill
#
# Bulk Modulus (GPa) = 11.86879 24.30929 18.08904
# Shear Modulus (GPa) = 64.90911 23.60134 44.25522
#
# Velocity S-wave (km/s) = 5.40340 3.25823 4.46166
# Velocity P-wave (km/s) = 6.65339 5.00892 5.88884
#
# Compressibility (1/GPa) = 0.08425455
#
# Stress axis : x y z
#
# Youngs Moduli (GPa) = 95.03776 50.99130 19.62776
#
# Poissons Ratio (x) = -0.00549 0.03324
# Poissons Ratio (y) = -0.01023 -0.06227
# Poissons Ratio (z) = 0.16094 -0.16176
#
# Static dielectric constant tensor:
#      x y z
#    x 1.748580 0.000000 0.245820 
#    y 0.000000 1.829700 0.000000 
#    z 0.245820 0.000000 0.877370 
# 
# From -- ./inp_files/192141.got.cif
#   From: 2010.05.17/outbox.cif.g08.bks.cpg/sg15_97_cif.got.tgz:192141.got - 2010.06.03 18:47:42.
