data_PCOD9301472
_publ_section_title
;
Structure prediction by ZEFSAII (Michael W. Deem and Ramdas Pophale) SiO2 
 PCOD9301472
Probable space group: C 2/C
;
_chemical_formula_sum "Si O2"
_cell_formula_units_Z 40
_cell_length_a 18.728116
_cell_length_b 15.231990
_cell_length_c 18.917275
_cell_angle_alpha 90.000000
_cell_angle_beta 21.787634
_cell_angle_gamma 90.000000
_cell_volume 2002.991833
_symmetry_space_group_name_H-M "C 2/C"
_symmetry_group_IT_number 15
_symmetry_cell_setting 'monoclinic'
loop_
_space_group_symop_operation_xyz
x,y,z
-x,y,1/2-z
-x,-y,-z
x,-y,1/2+z
1/2+x,1/2+y,z
1/2-x,1/2+y,1/2-z
1/2-x,1/2-y,-z
1/2+x,1/2-y,1/2+z
loop_
_atom_site_type_symbol
_atom_site_label
_atom_site_fract_x
_atom_site_fract_y
_atom_site_fract_z
Si Si1 0.582892 0.994366 0.240284
Si Si2 0.836319 0.069040 0.127018
Si Si3 0.956506 0.390584 0.486705
Si Si4 0.122584 0.808399 0.424508
Si Si5 0.338184 0.659963 0.451871
O O1 0.500000 0.048056 0.250000
O O2 0.443780 0.949501 0.427399
O O3 0.744578 0.046497 0.135968
O O4 0.680766 0.912901 0.110156
O O5 0.654664 0.062117 0.347252
O O6 0.952041 0.160391 0.029699
O O7 0.000000 0.000000 0.000000
O O8 0.855020 0.295391 0.586438
O O9 0.181548 0.358960 0.278580
O O10 0.074928 0.831957 0.549541
O O11 0.500000 0.629762 0.250000
O O12 0.250000 0.750000 0.500000
#
# Coordination Sequence:
#
# PCOD9301472 Si02
#       5
#     8   8   8   8   8
#     4  11  25  39  60  91 131 166 207 261 317 376
#     4  12  24  41  62  92 128 168 214 258 322 373
#     4  11  22  40  65  92 126 163 218 256 314 380
#     4  11  22  38  64  93 122 172 214 256 310 384
#     4  11  21  34  55  88 129 161 197 241 310 384
#
# _framework density 19.970126
#
# number of rings (size 3 to 8) (size 9 to 14) (size 15 to 20)
#    0.000    0.800    6.000    4.800    2.800    0.000 
#    0.000    0.000    0.000    1.200    0.000    0.000 
#    0.000    0.000    0.000    0.000    0.000    0.000 
#
# Total GULP energy -111408.469294 kJ/mol
# GULP energy per Si atom -5570.423465 kJ/mol
# Density = 1.992467 g / cm^3
# Si number density = 19.970126 Si / 1000 Ang^3
#
#
#
# Elastic Constant Matrix: (Units=GPa)
#
#
# Indices 1 2 3 4 5 6 
#
# 1 170.9711 35.5595 52.8029 0.0049 -9.0058 0.0003
# 2 35.5595 32.5435 17.7173 0.0276 0.5225 -0.0103
# 3 52.8029 17.7173 134.9824 0.0101 10.5592 -0.0046
# 4 0.0049 0.0276 0.0101 34.6142 0.0009 6.7444
# 5 -9.0058 0.5225 10.5592 0.0009 27.6608 -0.0039
# 6 0.0003 -0.0103 -0.0046 6.7444 -0.0039 26.2369
#
#
#
# Elastic Compliance Matrix: (Units=1/GPa)
#
#
# Indices 1 2 3 4 5 6 
#
# 1 0.008508 -0.007949 -0.002591 0.000007 0.003909 -0.000005
# 2 -0.007949 0.040550 -0.002011 -0.000035 -0.002587 0.000024
# 3 -0.002591 -0.002011 0.009018 -0.000001 -0.004248 0.000000
# 4 0.000007 -0.000035 -0.000001 0.030413 0.000001 -0.007818
# 5 0.003909 -0.002587 -0.004248 0.000001 0.039096 0.000004
# 6 -0.000005 0.000024 0.000000 -0.007818 0.000004 0.040124
#
#
# Mechanical properties :
#
#
# Convention : Reuss Voigt Hill
#
# Bulk Modulus (GPa) = 30.32546 61.18405 45.75476
# Shear Modulus (GPa) = 24.53363 33.19687 28.86525
#
# Velocity S-wave (km/s) = 3.50882 4.08159 3.80599
# Velocity P-wave (km/s) = 5.62443 7.27439 6.50196
#
# Compressibility (1/GPa) = 0.03297559
#
# Stress axis : x y z
#
# Youngs Moduli (GPa) = 117.53244 24.66084 110.88892
#
# Poissons Ratio (x) = 0.19603 0.28728
# Poissons Ratio (y) = 0.93428 0.22295
# Poissons Ratio (z) = 0.30450 0.04958
#
# Static dielectric constant tensor:
#      x y z
#    x 1.891240 -0.000010 -0.006700 
#    y -0.000010 1.836590 -0.000010 
#    z -0.006700 -0.000010 1.827420 
# 
# From -- ./inp_files/155363.got.cif
#   From: 2010.05.17/outbox.cif.g08.bks.cpg/sg15_78_cif.got.tgz:155363.got - 2010.06.03 18:47:42.
