data_PCOD9301471
_publ_section_title
;
Structure prediction by ZEFSAII (Michael W. Deem and Ramdas Pophale) SiO2 
 PCOD9301471
Probable space group: C 2/C
;
_chemical_formula_sum "Si O2"
_cell_formula_units_Z 56
_cell_length_a 14.394737
_cell_length_b 20.681032
_cell_length_c 17.857193
_cell_angle_alpha 90.000000
_cell_angle_beta 29.685452
_cell_angle_gamma 90.000000
_cell_volume 2632.710954
_symmetry_space_group_name_H-M "C 2/C"
_symmetry_group_IT_number 15
_symmetry_cell_setting 'monoclinic'
loop_
_space_group_symop_operation_xyz
x,y,z
-x,y,1/2-z
-x,-y,-z
x,-y,1/2+z
1/2+x,1/2+y,z
1/2-x,1/2+y,1/2-z
1/2-x,1/2-y,-z
1/2+x,1/2-y,1/2+z
loop_
_atom_site_type_symbol
_atom_site_label
_atom_site_fract_x
_atom_site_fract_y
_atom_site_fract_z
Si Si1 0.397359 0.238770 0.659973
Si Si2 0.637367 0.901654 0.511729
Si Si3 0.787148 0.880938 0.716473
Si Si4 0.132927 0.901333 0.009706
Si Si5 0.796672 0.775046 0.883970
Si Si6 0.862961 0.995576 0.776380
Si Si7 0.592108 0.702349 0.754015
O O1 0.406212 0.317156 0.653643
O O2 0.588820 0.200239 0.507775
O O3 0.334206 0.224191 0.789707
O O4 0.245216 0.229757 0.702399
O O5 0.436651 0.871313 0.635937
O O6 0.685300 0.912409 0.565434
O O7 0.798294 0.853616 0.368399
O O8 0.680408 0.968269 0.437847
O O9 0.844565 0.905262 0.594120
O O10 0.817810 0.934037 0.758478
O O11 0.059044 0.830221 0.085121
O O12 0.978054 0.952722 0.145766
O O13 0.000000 0.809120 0.750000
O O14 0.750000 0.750000 0.000000
O O15 0.000000 0.980452 0.750000
O O16 0.500000 0.742732 0.750000
#
# Coordination Sequence:
#
# PCOD9301471 Si02
#       7
#     8   8   8   8   8   8   8
#     4  11  21  34  55  86 112 144 186 223 273 337
#     4   9  19  36  56  78 106 145 182 218 269 327
#     4  12  21  31  54  85 111 134 174 231 273 318
#     4   9  19  36  56  77 106 144 180 220 270 324
#     4   9  20  38  55  70 102 148 191 234 268 303
#     4   9  20  38  55  72 103 144 183 222 272 324
#     4   9  19  37  56  78 116 153 177 212 271 337
#
# _framework density 21.270851
#
# number of rings (size 3 to 8) (size 9 to 14) (size 15 to 20)
#    0.000    2.286    0.000    4.714    0.000    2.857 
#    0.000    3.571    0.000    6.857    0.000    0.000 
#    0.000    0.000    0.000    0.000    0.000    0.000 
#
# Total GULP energy -155953.913734 kJ/mol
# GULP energy per Si atom -5569.782633 kJ/mol
# Density = 2.122244 g / cm^3
# Si number density = 21.270851 Si / 1000 Ang^3
#
#
#
# Elastic Constant Matrix: (Units=GPa)
#
#
# Indices 1 2 3 4 5 6 
#
# 1 136.9345 25.3255 37.0393 0.0008 0.7871 0.0100
# 2 25.3255 40.7992 4.9980 0.0135 3.7850 -0.0033
# 3 37.0393 4.9980 96.8411 0.0433 -4.7138 -0.0034
# 4 0.0008 0.0135 0.0433 7.1597 -0.0172 1.3637
# 5 0.7871 3.7850 -4.7138 -0.0172 29.9702 -0.0043
# 6 0.0100 -0.0033 -0.0034 1.3637 -0.0043 29.3824
#
#
#
# Elastic Compliance Matrix: (Units=1/GPa)
#
#
# Indices 1 2 3 4 5 6 
#
# 1 0.009154 -0.005279 -0.003233 0.000029 -0.000082 -0.000005
# 2 -0.005279 0.028047 0.000409 -0.000064 -0.003339 0.000008
# 3 -0.003233 0.000409 0.011632 -0.000067 0.001863 0.000006
# 4 0.000029 -0.000064 -0.000067 0.140916 0.000077 -0.006540
# 5 -0.000082 -0.003339 0.001863 0.000077 0.034083 0.000001
# 6 -0.000005 0.000008 0.000006 -0.006540 0.000001 0.034338
#
#
# Mechanical properties :
#
#
# Convention : Reuss Voigt Hill
#
# Bulk Modulus (GPa) = 30.64852 45.47783 38.06318
# Shear Modulus (GPa) = 17.52846 27.11660 22.32253
#
# Velocity S-wave (km/s) = 2.87376 3.57434 3.24302
# Velocity P-wave (km/s) = 5.04493 6.20172 5.65299
#
# Compressibility (1/GPa) = 0.03262800
#
# Stress axis : x y z
#
# Youngs Moduli (GPa) = 109.24317 35.65502 85.96803
#
# Poissons Ratio (x) = 0.18821 0.27791
# Poissons Ratio (y) = 0.57664 -0.03515
# Poissons Ratio (z) = 0.35315 -0.01458
#
# Static dielectric constant tensor:
#      x y z
#    x 1.839600 -0.000010 -0.015010 
#    y -0.000010 1.793150 0.000010 
#    z -0.015010 0.000010 1.813910 
# 
# From -- ./inp_files/206931.got.cif
#   From: 2010.05.17/outbox.cif.g08.bks.cpg/sg15_104_cif.got.tgz:206931.got - 2010.06.03 18:47:42.
