data_PCOD9301630
_publ_section_title
;
Structure prediction by ZEFSAII (Michael W. Deem and Ramdas Pophale) SiO2 
 PCOD9301630
Probable space group: C 2/C
;
_chemical_formula_sum "Si O2"
_cell_formula_units_Z 48
_cell_length_a 15.395376
_cell_length_b 8.439427
_cell_length_c 19.085823
_cell_angle_alpha 90.000000
_cell_angle_beta 79.338617
_cell_angle_gamma 90.000000
_cell_volume 2436.978933
_symmetry_space_group_name_H-M "C 2/C"
_symmetry_group_IT_number 15
_symmetry_cell_setting 'monoclinic'
loop_
_space_group_symop_operation_xyz
x,y,z
-x,y,1/2-z
-x,-y,-z
x,-y,1/2+z
1/2+x,1/2+y,z
1/2-x,1/2+y,1/2-z
1/2-x,1/2-y,-z
1/2+x,1/2-y,1/2+z
loop_
_atom_site_type_symbol
_atom_site_label
_atom_site_fract_x
_atom_site_fract_y
_atom_site_fract_z
Si Si1 0.759343 0.481033 0.296398
Si Si2 0.339166 0.311294 0.580774
Si Si3 0.737528 0.874777 0.852770
Si Si4 0.449297 0.011541 0.581063
Si Si5 0.665551 0.595535 0.573034
Si Si6 0.435583 0.158157 0.322386
O O1 0.686490 0.574455 0.352361
O O2 0.753420 0.299118 0.320015
O O3 0.749990 0.505191 0.214770
O O4 0.851117 0.565698 0.304129
O O5 0.415199 0.190933 0.591406
O O6 0.357855 0.401416 0.505232
O O7 0.254592 0.200304 0.573604
O O8 0.638935 0.902460 0.898061
O O9 0.808304 0.925069 0.900784
O O10 0.500000 0.000000 0.500000
O O11 0.514132 0.958977 0.632638
O O12 0.593460 0.688800 0.629011
O O13 0.500000 0.203281 0.250000
#
# Coordination Sequence:
#
# PCOD9301630 Si02
#       6
#     8   8   8   8   8   8
#     4  11  23  40  61  90 123 164 211 257 313 376
#     4   9  19  37  61  86 120 161 201 247 303 379
#     4  11  23  40  62  87 121 165 211 257 309 380
#     4  11  21  39  64  89 123 164 207 253 316 370
#     4   9  19  37  60  86 117 161 204 243 305 373
#     4  11  21  37  64  91 124 163 204 255 314 367
#
# _framework density 19.696517
#
# number of rings (size 3 to 8) (size 9 to 14) (size 15 to 20)
#    0.000    1.667    3.333    3.000    2.333    0.667 
#    0.000    3.333    0.000    0.000    0.000    0.000 
#    0.000    0.000    0.000    0.000    0.000    0.000 
#
# Total GULP energy -134051.285891 kJ/mol
# GULP energy per Si atom -5585.470245 kJ/mol
# Density = 1.965169 g / cm^3
# Si number density = 19.696517 Si / 1000 Ang^3
#
#
#
# Elastic Constant Matrix: (Units=GPa)
#
#
# Indices 1 2 3 4 5 6 
#
# 1 56.3224 15.7289 35.9337 0.0000 -15.9042 0.0000
# 2 15.7289 64.0186 0.8711 0.0000 -24.6160 0.0000
# 3 35.9337 0.8711 102.3594 0.0000 -33.7155 0.0000
# 4 0.0000 0.0000 0.0000 29.4866 0.0000 -4.6169
# 5 -15.9042 -24.6160 -33.7155 0.0000 34.5044 0.0000
# 6 0.0000 0.0000 0.0000 -4.6169 0.0000 27.4805
#
#
#
# Elastic Compliance Matrix: (Units=1/GPa)
#
#
# Indices 1 2 3 4 5 6 
#
# 1 0.025148 -0.007271 -0.009816 0.000000 -0.003187 0.000000
# 2 -0.007271 0.027932 0.011464 0.000000 0.027778 0.000000
# 3 -0.009816 0.011464 0.021119 0.000000 0.024290 0.000000
# 4 0.000000 0.000000 0.000000 0.034830 0.000000 0.005852
# 5 -0.003187 0.027778 0.024290 0.000000 0.071065 0.000000
# 6 0.000000 0.000000 0.000000 0.005852 0.000000 0.037373
#
#
# Mechanical properties :
#
#
# Convention : Reuss Voigt Hill
#
# Bulk Modulus (GPa) = 15.88483 36.41865 26.15174
# Shear Modulus (GPa) = 20.02435 29.63873 24.83154
#
# Velocity S-wave (km/s) = 3.19194 3.88334 3.55450
# Velocity P-wave (km/s) = 4.65478 6.21588 5.49109
#
# Compressibility (1/GPa) = 0.06295315
#
# Stress axis : x y z
#
# Youngs Moduli (GPa) = 39.76429 35.80148 47.35123
#
# Poissons Ratio (x) = 0.26030 0.46482
# Poissons Ratio (y) = 0.28912 -0.54285
# Poissons Ratio (z) = 0.39034 -0.41044
#
# Static dielectric constant tensor:
#      x y z
#    x 1.696220 0.000000 -0.007300 
#    y 0.000000 1.686900 0.000000 
#    z -0.007300 0.000000 1.696420 
# 
# From -- ./inp_files/203011.got.cif
#   From: 2010.05.17/outbox.cif.g08.bks.cpg/sg15_102_cif.got.tgz:203011.got - 2010.06.03 18:47:42.
