data_PCOD9301703
_publ_section_title
;
Structure prediction by ZEFSAII (Michael W. Deem and Ramdas Pophale) SiO2 
 PCOD9301703
Probable space group: C 2/C
;
_chemical_formula_sum "Si O2"
_cell_formula_units_Z 64
_cell_length_a 20.640188
_cell_length_b 24.841828
_cell_length_c 17.396900
_cell_angle_alpha 90.000000
_cell_angle_beta 22.084020
_cell_angle_gamma 90.000000
_cell_volume 3353.647785
_symmetry_space_group_name_H-M "C 2/C"
_symmetry_group_IT_number 15
_symmetry_cell_setting 'monoclinic'
loop_
_space_group_symop_operation_xyz
x,y,z
-x,y,1/2-z
-x,-y,-z
x,-y,1/2+z
1/2+x,1/2+y,z
1/2-x,1/2+y,1/2-z
1/2-x,1/2-y,-z
1/2+x,1/2-y,1/2+z
loop_
_atom_site_type_symbol
_atom_site_label
_atom_site_fract_x
_atom_site_fract_y
_atom_site_fract_z
Si Si1 0.429277 0.553019 0.902566
Si Si2 0.698940 0.695095 0.216953
Si Si3 0.199412 0.856754 0.553377
Si Si4 0.046458 0.909556 0.951163
Si Si5 0.160374 0.576034 0.827662
Si Si6 0.560457 0.991060 0.811930
Si Si7 0.223839 0.034123 0.115875
Si Si8 0.593369 0.816822 0.323750
O O1 0.500000 0.584166 0.750000
O O2 0.419683 0.582010 0.995853
O O3 0.562842 0.503343 0.769244
O O4 0.239937 0.533036 0.087257
O O5 0.706342 0.683397 0.117807
O O6 0.570057 0.652128 0.397670
O O7 0.651419 0.756898 0.280721
O O8 0.889173 0.683042 0.037826
O O9 0.247589 0.915655 0.532486
O O10 0.313275 0.835894 0.357732
O O11 0.000000 0.860281 0.750000
O O12 0.856329 0.931816 0.140097
O O13 0.177090 0.941882 0.751927
O O14 0.118763 0.544124 0.795049
O O15 0.139560 0.638888 0.835840
O O16 0.025580 0.551497 0.035181
O O17 0.404327 0.004357 0.927184
#
# Coordination Sequence:
#
# PCOD9301703 Si02
#       8
#     8   8   8   8   8   8   8   8
#     4  12  25  40  59  90 126 159 209 265 313 367
#     4  11  24  40  63  87 121 171 209 258 315 372
#     4  11  23  39  56  85 129 170 204 258 308 366
#     4  11  21  43  62  87 120 165 210 260 312 373
#     4  11  21  38  63  87 120 161 207 259 308 371
#     4  11  23  39  60  87 121 170 207 252 313 374
#     4  11  22  41  59  87 123 171 213 249 307 380
#     4  12  23  40  60  93 122 159 216 261 311 370
#
# _framework density 19.083697000000001
#
# number of rings (size 3 to 8) (size 9 to 14) (size 15 to 20)
#    0.000    0.750    2.500    8.250    1.750    0.500 
#    2.250    0.000    0.000    0.000    0.000    7.875 
#    0.000    0.000    0.000    0.000    0.000    0.000 
#
# Total GULP energy -179020.011793 kJ/mol
# GULP energy per Si atom -5594.375369 kJ/mol
# Density = 1.904026 g / cm^3
# Si number density = 19.083697 Si / 1000 Ang^3
#
#
#
# Elastic Constant Matrix: (Units=GPa)
#
#
# Indices 1 2 3 4 5 6 
#
# 1 55.2740 12.7705 36.2532 0.0095 -2.8001 0.0042
# 2 12.7705 94.0995 25.9698 0.0086 12.5796 -0.0067
# 3 36.2532 25.9698 117.5586 0.0204 -9.8432 0.0173
# 4 0.0095 0.0086 0.0204 24.8325 -0.0107 -6.3621
# 5 -2.8001 12.5796 -9.8432 -0.0107 44.7086 0.0017
# 6 0.0042 -0.0067 0.0173 -6.3621 0.0017 27.0535
#
#
#
# Elastic Compliance Matrix: (Units=1/GPa)
#
#
# Indices 1 2 3 4 5 6 
#
# 1 0.022815 -0.001281 -0.006727 -0.000003 0.000308 0.000000
# 2 -0.001281 0.012062 -0.002609 -0.000002 -0.004048 0.000005
# 3 -0.006727 -0.002609 0.011393 -0.000007 0.002821 -0.000009
# 4 -0.000003 -0.000002 -0.000007 0.042852 0.000009 0.010077
# 5 0.000308 -0.004048 0.002821 0.000009 0.024147 -0.000002
# 6 0.000000 0.000005 -0.000009 0.010077 -0.000002 0.039334
#
#
# Mechanical properties :
#
#
# Convention : Reuss Voigt Hill
#
# Bulk Modulus (GPa) = 39.94002 46.32434 43.13218
# Shear Modulus (GPa) = 27.44510 32.11481 29.77996
#
# Velocity S-wave (km/s) = 3.79640 4.10669 3.95459
# Velocity P-wave (km/s) = 6.33965 6.84204 6.59563
#
# Compressibility (1/GPa) = 0.02503754
#
# Stress axis : x y z
#
# Youngs Moduli (GPa) = 43.82989 82.90487 87.77012
#
# Poissons Ratio (x) = 0.10620 0.59044
# Poissons Ratio (y) = 0.05615 0.22895
# Poissons Ratio (z) = 0.29485 0.21626
#
# Static dielectric constant tensor:
#      x y z
#    x 1.610260 0.000010 0.067590 
#    y 0.000010 1.656730 0.000010 
#    z 0.067590 0.000010 1.627530 
# 
# From -- ./inp_files/216964.got.cif
#   From: 2010.05.17/outbox.cif.g08.bks.cpg/sg15_109_cif.got.tgz:216964.got - 2010.06.03 18:47:42.
