data_PCOD9301284
_publ_section_title
;
Structure prediction by ZEFSAII (Michael W. Deem and Ramdas Pophale) SiO2 
 PCOD9301284
Probable space group: C 2/C
;
_chemical_formula_sum "Si O2"
_cell_formula_units_Z 60
_cell_length_a 11.912080
_cell_length_b 15.690482
_cell_length_c 24.754162
_cell_angle_alpha 90.000000
_cell_angle_beta 133.855729
_cell_angle_gamma 90.000000
_cell_volume 3336.257652
_symmetry_space_group_name_H-M "C 2/C"
_symmetry_group_IT_number 15
_symmetry_cell_setting 'monoclinic'
loop_
_space_group_symop_operation_xyz
x,y,z
-x,y,1/2-z
-x,-y,-z
x,-y,1/2+z
1/2+x,1/2+y,z
1/2-x,1/2+y,1/2-z
1/2-x,1/2-y,-z
1/2+x,1/2-y,1/2+z
loop_
_atom_site_type_symbol
_atom_site_label
_atom_site_fract_x
_atom_site_fract_y
_atom_site_fract_z
Si Si1 0.433965 0.033961 0.592305
Si Si2 0.139753 0.995007 0.183711
Si Si3 0.885579 0.626836 0.300206
Si Si4 0.789891 0.967246 0.583248
Si Si5 0.500000 0.253914 0.250000
Si Si6 0.675885 0.312161 0.827545
Si Si7 0.168134 0.612516 0.834153
Si Si8 0.238957 0.904817 0.326112
O O1 0.337289 0.024773 0.505630
O O2 0.332829 0.068875 0.608000
O O3 0.580870 0.097285 0.631842
O O4 0.506836 0.944395 0.635954
O O5 0.201881 0.926198 0.161825
O O6 0.154498 0.955226 0.248931
O O7 0.259569 0.074090 0.222754
O O8 0.962803 0.022119 0.116851
O O9 0.977270 0.693233 0.293970
O O10 0.788997 0.672977 0.314789
O O11 0.779776 0.876766 0.610226
O O12 0.768323 0.038615 0.622385
O O13 0.649557 0.316216 0.303674
O O14 0.500000 0.333353 0.750000
O O15 0.681763 0.213604 0.845105
O O16 0.000000 0.594678 0.750000
#
# Coordination Sequence:
#
# PCOD9301284 Si02
#       8
#     8   8   8   8   4   8   8   8
#     4  11  25  41  65  88 129 168 198 247 322 367
#     4  11  20  40  68  88 124 162 211 252 303 369
#     4  11  22  39  62  95 117 160 208 260 305 363
#     4  12  22  41  63  92 126 165 209 246 299 387
#     4  12  24  38  68  94 122 152 220 264 302 358
#     4  11  22  37  63  92 120 155 215 257 298 357
#     4  11  22  39  62  92 122 160 202 263 308 355
#     4  11  21  39  65  92 113 167 208 252 299 362
#
# _framework density 17.984221000000002
#
# number of rings (size 3 to 8) (size 9 to 14) (size 15 to 20)
#    0.000    0.800    8.000    2.000    1.867    1.067 
#    0.000    2.000    0.000    0.000    0.000    0.000 
#    0.000    0.000    0.000    0.000    0.000    0.000 
#
# Total GULP energy -167645.933346 kJ/mol
# GULP energy per Si atom -5588.197778 kJ/mol
# Density = 1.794329 g / cm^3
# Si number density = 17.984221 Si / 1000 Ang^3
#
#
#
# Elastic Constant Matrix: (Units=GPa)
#
#
# Indices 1 2 3 4 5 6 
#
# 1 99.0569 57.3199 52.0006 0.0000 -12.8656 0.0000
# 2 57.3199 62.6925 27.0359 0.0000 -9.1879 0.0000
# 3 52.0006 27.0359 86.5836 0.0000 -3.8305 0.0000
# 4 0.0000 0.0000 0.0000 11.9627 0.0000 7.0937
# 5 -12.8656 -9.1879 -3.8305 0.0000 25.0086 0.0000
# 6 0.0000 0.0000 0.0000 7.0937 0.0000 62.4883
#
#
#
# Elastic Compliance Matrix: (Units=1/GPa)
#
#
# Indices 1 2 3 4 5 6 
#
# 1 0.027891 -0.020337 -0.010165 0.000000 0.005320 0.000000
# 2 -0.020337 0.034180 0.001645 0.000000 0.002347 0.000000
# 3 -0.010165 0.001645 0.017052 0.000000 -0.002013 0.000000
# 4 0.000000 0.000000 0.000000 0.089626 0.000000 -0.010174
# 5 0.005320 0.002347 -0.002013 0.000000 0.043277 0.000000
# 6 0.000000 0.000000 0.000000 -0.010174 0.000000 0.017158
#
#
# Mechanical properties :
#
#
# Convention : Reuss Voigt Hill
#
# Bulk Modulus (GPa) = 46.71103 57.89397 52.30250
# Shear Modulus (GPa) = 17.00496 27.35704 22.18100
#
# Velocity S-wave (km/s) = 3.07831 3.90445 3.51573
# Velocity P-wave (km/s) = 6.21807 7.25174 6.75471
#
# Compressibility (1/GPa) = 0.02140822
#
# Stress axis : x y z
#
# Youngs Moduli (GPa) = 35.85450 29.25721 58.64560
#
# Poissons Ratio (x) = 0.59501 0.59613
# Poissons Ratio (y) = 0.72918 -0.09649
# Poissons Ratio (z) = 0.36446 -0.04814
#
# Static dielectric constant tensor:
#      x y z
#    x 1.628080 0.000000 0.010330 
#    y 0.000000 1.606320 0.000000 
#    z 0.010330 0.000000 1.588210 
# 
# From -- ./inp_files/198268.got.cif
#   From: 2010.05.17/outbox.cif.g08.bks.cpg/sg15_100_cif.got.tgz:198268.got - 2010.06.03 18:47:42.
