data_PCOD9301981
_publ_section_title
;
Structure prediction by ZEFSAII (Michael W. Deem and Ramdas Pophale) SiO2 
 PCOD9301981
Probable space group: C 2/C
;
_chemical_formula_sum "Si O2"
_cell_formula_units_Z 60
_cell_length_a 25.330090
_cell_length_b 5.774488
_cell_length_c 18.990421
_cell_angle_alpha 90.000000
_cell_angle_beta 120.564229
_cell_angle_gamma 90.000000
_cell_volume 2391.762512
_symmetry_space_group_name_H-M "C 2/C"
_symmetry_group_IT_number 15
_symmetry_cell_setting 'monoclinic'
loop_
_space_group_symop_operation_xyz
x,y,z
-x,y,1/2-z
-x,-y,-z
x,-y,1/2+z
1/2+x,1/2+y,z
1/2-x,1/2+y,1/2-z
1/2-x,1/2-y,-z
1/2+x,1/2-y,1/2+z
loop_
_atom_site_type_symbol
_atom_site_label
_atom_site_fract_x
_atom_site_fract_y
_atom_site_fract_z
Si Si1 0.199579 0.901779 0.049741
Si Si2 0.243782 0.990582 0.844684
Si Si3 0.580566 0.065974 0.688337
Si Si4 0.668684 0.342782 0.662437
Si Si5 0.000000 0.818176 0.750000
Si Si6 0.827523 0.628831 0.142995
Si Si7 0.091958 0.872340 0.401409
Si Si8 0.502535 0.248980 0.043961
O O1 0.172015 0.944864 0.110090
O O2 0.258423 0.063679 0.077695
O O3 0.232380 0.658427 0.074654
O O4 0.145229 0.953334 0.961238
O O5 0.219744 0.872036 0.757465
O O6 0.303151 0.136897 0.864401
O O7 0.183403 0.124993 0.827955
O O8 0.603840 0.261032 0.649120
O O9 0.529175 0.163327 0.706957
O O10 0.640901 0.025543 0.776552
O O11 0.558851 0.828212 0.635127
O O12 0.049197 0.988957 0.818884
O O13 0.874413 0.657353 0.112108
O O14 0.054565 0.780461 0.442443
O O15 0.500000 0.500000 0.000000
O O16 0.500000 0.000000 0.000000
#
# Coordination Sequence:
#
# PCOD9301981 Si02
#       8
#     8   8   8   8   4   8   8   8
#     4  11  25  44  72 113 153 194 248 326 399 489
#     4  11  21  41  68 112 148 194 244 307 405 487
#     4  12  25  49  79 107 155 204 270 336 403 488
#     4  11  21  40  72 110 151 193 253 314 401 483
#     4  12  28  54  82 114 150 228 282 336 406 486
#     4  11  25  45  73 112 146 200 250 322 408 488
#     4  12  27  50  78 108 157 204 274 329 400 485
#     4  12  29  53  79 120 160 214 281 346 410 476
#
# _framework density 25.086103000000001
#
# number of rings (size 3 to 8) (size 9 to 14) (size 15 to 20)
#    0.000    0.533    2.667    5.200    1.867    1.600 
#    9.600    0.000    0.000    0.000    0.000    0.000 
#    0.000    0.000    0.000    0.000    0.000    0.000 
#
# Total GULP energy -167756.578374 kJ/mol
# GULP energy per Si atom -5591.885946 kJ/mol
# Density = 2.502901 g / cm^3
# Si number density = 25.086103 Si / 1000 Ang^3
#
#
#
# Elastic Constant Matrix: (Units=GPa)
#
#
# Indices 1 2 3 4 5 6 
#
# 1 147.4283 45.2709 43.7485 -0.0001 -15.1585 0.0000
# 2 45.2709 81.5561 25.9910 0.0000 -10.3147 -0.0006
# 3 43.7485 25.9910 125.9073 0.0000 21.8949 0.0000
# 4 -0.0001 0.0000 0.0000 34.5103 0.0000 -6.5403
# 5 -15.1585 -10.3147 21.8949 0.0000 46.8398 0.0000
# 6 0.0000 -0.0006 0.0000 -6.5403 0.0000 19.1249
#
#
#
# Elastic Compliance Matrix: (Units=1/GPa)
#
#
# Indices 1 2 3 4 5 6 
#
# 1 0.009188 -0.003670 -0.003060 0.000000 0.003596 0.000000
# 2 -0.003670 0.015535 -0.002525 0.000000 0.003414 0.000000
# 3 -0.003060 -0.002525 0.010663 0.000000 -0.006531 0.000000
# 4 0.000000 0.000000 0.000000 0.030985 0.000000 0.010596
# 5 0.003596 0.003414 -0.006531 0.000000 0.026317 0.000000
# 6 0.000000 0.000000 0.000000 0.010596 0.000000 0.055912
#
#
# Mechanical properties :
#
#
# Convention : Reuss Voigt Hill
#
# Bulk Modulus (GPa) = 59.26079 64.99030 62.12554
# Shear Modulus (GPa) = 28.94598 36.08706 32.51652
#
# Velocity S-wave (km/s) = 3.40054 3.79691 3.60418
# Velocity P-wave (km/s) = 6.25240 6.72199 6.49144
#
# Compressibility (1/GPa) = 0.01687457
#
# Stress axis : x y z
#
# Youngs Moduli (GPa) = 108.84163 64.36971 93.78588
#
# Poissons Ratio (x) = 0.23624 0.28699
# Poissons Ratio (y) = 0.39945 0.23685
# Poissons Ratio (z) = 0.33306 0.16256
#
# Static dielectric constant tensor:
#      x y z
#    x 1.957840 0.000000 -0.041690 
#    y 0.000000 2.074830 0.000000 
#    z -0.041690 0.000000 2.041970 
# 
# From -- ./inp_files/256789.got.cif
#   From: 2010.05.17/outbox.cif.g08.bks.cpg/sg15_129_cif.got.tgz:256789.got - 2010.06.03 18:47:42.
