data_PCOD9301538
_publ_section_title
;
Structure prediction by ZEFSAII (Michael W. Deem and Ramdas Pophale) SiO2 
 PCOD9301538
Probable space group: C 2/C
;
_chemical_formula_sum "Si O2"
_cell_formula_units_Z 40
_cell_length_a 17.376628
_cell_length_b 9.505036
_cell_length_c 15.674571
_cell_angle_alpha 90.000000
_cell_angle_beta 130.387163
_cell_angle_gamma 90.000000
_cell_volume 1971.920855
_symmetry_space_group_name_H-M "C 2/C"
_symmetry_group_IT_number 15
_symmetry_cell_setting 'monoclinic'
loop_
_space_group_symop_operation_xyz
x,y,z
-x,y,1/2-z
-x,-y,-z
x,-y,1/2+z
1/2+x,1/2+y,z
1/2-x,1/2+y,1/2-z
1/2-x,1/2-y,-z
1/2+x,1/2-y,1/2+z
loop_
_atom_site_type_symbol
_atom_site_label
_atom_site_fract_x
_atom_site_fract_y
_atom_site_fract_z
Si Si1 0.696161 0.602077 0.448313
Si Si2 0.654841 0.948951 0.071330
Si Si3 0.500000 0.745269 0.250000
Si Si4 0.000000 0.263048 0.750000
Si Si5 0.559391 0.996975 0.176693
Si Si6 0.666687 0.671893 0.997211
O O1 0.750000 0.750000 0.500000
O O2 0.751014 0.521699 0.408830
O O3 0.581725 0.646298 0.351514
O O4 0.699074 0.489607 0.527694
O O5 0.636261 0.998071 0.153824
O O6 0.657092 0.778380 0.068974
O O7 0.554304 0.989097 0.944572
O O8 0.557486 0.851988 0.227341
O O9 0.928776 0.370931 0.751697
O O10 0.934740 0.178938 0.634009
O O11 0.750000 0.750000 0.000000
#
# Coordination Sequence:
#
# PCOD9301538 Si02
#       6
#     8   8   4   4   8   8
#     4  11  21  37  57  83 114 152 192 239 287 341
#     4   9  18  38  58  84 111 147 192 237 283 344
#     4  11  21  36  58  84 118 152 188 236 294 340
#     4   9  17  34  58  82 110 148 186 230 282 344
#     4   9  18  34  62  83 112 150 188 233 290 345
#     4   9  19  34  57  79 109 148 187 227 280 336
#
# _framework density 20.284789
#
# number of rings (size 3 to 8) (size 9 to 14) (size 15 to 20)
#    0.000    2.400    2.000    0.600    2.800    0.000 
#    7.200    1.000    0.000    0.000    0.000    0.000 
#    0.000    0.000    0.000    0.000    0.000    0.000 
#
# Total GULP energy -111505.615252 kJ/mol
# GULP energy per Si atom -5575.280763 kJ/mol
# Density = 2.023862 g / cm^3
# Si number density = 20.284789 Si / 1000 Ang^3
#
#
#
# Elastic Constant Matrix: (Units=GPa)
#
#
# Indices 1 2 3 4 5 6 
#
# 1 43.8539 15.8153 -7.6936 0.0000 -15.6114 0.0000
# 2 15.8153 151.1334 12.2546 0.0000 -5.5556 0.0000
# 3 -7.6936 12.2546 21.7630 0.0000 4.1495 0.0000
# 4 0.0000 0.0000 0.0000 20.5351 0.0000 5.0267
# 5 -15.6114 -5.5556 4.1495 0.0000 33.8915 0.0000
# 6 0.0000 0.0000 0.0000 5.0267 0.0000 12.0717
#
#
#
# Elastic Compliance Matrix: (Units=1/GPa)
#
#
# Indices 1 2 3 4 5 6 
#
# 1 0.030200 -0.003559 0.010381 0.000000 0.012056 0.000000
# 2 -0.003559 0.007444 -0.005498 0.000000 0.000254 0.000000
# 3 0.010381 -0.005498 0.053218 0.000000 -0.002635 0.000000
# 4 0.000000 0.000000 0.000000 0.054224 0.000000 -0.022579
# 5 0.012056 0.000254 -0.002635 0.000000 0.035424 0.000000
# 6 0.000000 0.000000 0.000000 -0.022579 0.000000 0.092240
#
#
# Mechanical properties :
#
#
# Convention : Reuss Voigt Hill
#
# Bulk Modulus (GPa) = 10.69406 28.61145 19.65275
# Shear Modulus (GPa) = 16.59632 26.39127 21.49379
#
# Velocity S-wave (km/s) = 2.86346 3.61090 3.25868
# Velocity P-wave (km/s) = 4.02690 5.61430 4.88550
#
# Compressibility (1/GPa) = 0.09350983
#
# Stress axis : x y z
#
# Youngs Moduli (GPa) = 33.11309 134.33172 18.79065
#
# Poissons Ratio (x) = 0.47806 -0.19507
# Poissons Ratio (y) = 0.11784 0.10332
# Poissons Ratio (z) = -0.34375 0.73861
#
# Static dielectric constant tensor:
#      x y z
#    x 1.978220 0.000000 0.851700 
#    y 0.000000 1.747470 0.000000 
#    z 0.851700 0.000000 4.354010 
# 
# From -- ./inp_files/159139.got.cif
#   From: 2010.05.17/outbox.cif.g08.bks.cpg/sg15_80_cif.got.tgz:159139.got - 2010.06.03 18:47:42.
