data_PCOD9301591
_publ_section_title
;
Structure prediction by ZEFSAII (Michael W. Deem and Ramdas Pophale) SiO2 
 PCOD9301591
Probable space group: C 2/C
;
_chemical_formula_sum "Si O2"
_cell_formula_units_Z 48
_cell_length_a 26.076832
_cell_length_b 10.408739
_cell_length_c 20.773988
_cell_angle_alpha 90.000000
_cell_angle_beta 159.990963
_cell_angle_gamma 90.000000
_cell_volume 1929.357301
_symmetry_space_group_name_H-M "C 2/C"
_symmetry_group_IT_number 15
_symmetry_cell_setting 'monoclinic'
loop_
_space_group_symop_operation_xyz
x,y,z
-x,y,1/2-z
-x,-y,-z
x,-y,1/2+z
1/2+x,1/2+y,z
1/2-x,1/2+y,1/2-z
1/2-x,1/2-y,-z
1/2+x,1/2-y,1/2+z
loop_
_atom_site_type_symbol
_atom_site_label
_atom_site_fract_x
_atom_site_fract_y
_atom_site_fract_z
Si Si1 0.626982 0.003683 0.031476
Si Si2 0.145286 0.981991 0.302604
Si Si3 0.289915 0.091483 0.737717
Si Si4 0.384830 0.150673 0.169349
Si Si5 0.001828 0.763714 0.904349
Si Si6 0.878837 0.098617 0.556274
O O1 0.506017 0.906186 0.861118
O O2 0.568449 0.144440 0.943213
O O3 0.638071 0.992254 0.121064
O O4 0.786273 0.973985 0.187564
O O5 0.085034 0.126725 0.237211
O O6 0.288287 0.956595 0.516754
O O7 0.010716 0.878656 0.157639
O O8 0.397123 0.199278 0.834270
O O9 0.147963 0.162755 0.601933
O O10 0.226808 0.003131 0.605251
O O11 0.500000 0.208331 0.250000
O O12 0.243168 0.190237 0.049723
O O13 0.000000 0.038687 0.750000
#
# Coordination Sequence:
#
# PCOD9301591 Si02
#       6
#     8   8   8   8   8   8
#     4  11  21  37  56  83 117 160 193 235 292 349
#     4   9  20  36  54  82 117 147 187 243 286 347
#     4  11  23  38  57  81 119 157 196 244 286 351
#     4   9  18  33  55  83 111 154 187 231 286 350
#     4  11  21  37  53  85 117 150 201 230 295 342
#     4   9  18  34  51  79 114 149 186 230 287 340
#
# _framework density 24.878748999999999
#
# number of rings (size 3 to 8) (size 9 to 14) (size 15 to 20)
#    0.000    2.000    3.333    0.500    0.000    3.333 
#    3.000    0.000    0.000    0.000    0.000   14.000 
#    0.000    0.167    0.000    0.000    0.000    0.000 
#
# Total GULP energy -133722.420881 kJ/mol
# GULP energy per Si atom -5571.767537 kJ/mol
# Density = 2.482212 g / cm^3
# Si number density = 24.878749 Si / 1000 Ang^3
#
#
#
# Elastic Constant Matrix: (Units=GPa)
#
#
# Indices 1 2 3 4 5 6 
#
# 1 147.2729 64.9460 77.6053 -0.0001 37.7754 -0.0001
# 2 64.9460 101.5442 65.0880 -0.0001 14.1186 -0.0001
# 3 77.6053 65.0880 111.6091 -0.0001 40.0794 -0.0001
# 4 -0.0001 -0.0001 -0.0001 67.6106 -0.0001 12.5759
# 5 37.7754 14.1186 40.0794 -0.0001 57.3617 -0.0001
# 6 -0.0001 -0.0001 -0.0001 12.5759 -0.0001 29.0759
#
#
#
# Elastic Compliance Matrix: (Units=1/GPa)
#
#
# Indices 1 2 3 4 5 6 
#
# 1 0.012005 -0.004253 -0.004544 0.000000 -0.003684 0.000000
# 2 -0.004253 0.017743 -0.009114 0.000000 0.004802 0.000000
# 3 -0.004544 -0.009114 0.020764 0.000000 -0.009273 0.000000
# 4 0.000000 0.000000 0.000000 0.016085 0.000000 -0.006957
# 5 -0.003684 0.004802 -0.009273 0.000000 0.025156 0.000000
# 6 0.000000 0.000000 0.000000 -0.006957 0.000000 0.037402
#
#
# Mechanical properties :
#
#
# Convention : Reuss Voigt Hill
#
# Bulk Modulus (GPa) = 68.07759 86.18944 77.13351
# Shear Modulus (GPa) = 29.43344 40.99544 35.21444
#
# Velocity S-wave (km/s) = 3.44332 4.06373 3.76632
# Velocity P-wave (km/s) = 6.57508 7.53243 7.06998
#
# Compressibility (1/GPa) = 0.01468912
#
# Stress axis : x y z
#
# Youngs Moduli (GPa) = 83.29587 56.36158 48.15915
#
# Poissons Ratio (x) = 0.23973 0.21885
# Poissons Ratio (y) = 0.35430 0.43892
# Poissons Ratio (z) = 0.37851 0.51368
#
# Static dielectric constant tensor:
#      x y z
#    x 2.125300 0.000000 0.043800 
#    y 0.000000 2.056040 0.000000 
#    z 0.043800 0.000000 1.989480 
# 
# From -- ./inp_files/54960.got.cif
#   From: 2010.05.17/outbox.cif.g08.bks.cpg/sg15_28_cif.got.tgz:54960.got - 2010.06.03 18:47:42.
