data_PCOD9301237
_publ_section_title
;
Structure prediction by ZEFSAII (Michael W. Deem and Ramdas Pophale) SiO2 
 PCOD9301237
Probable space group: C 2/C
;
_chemical_formula_sum "Si O2"
_cell_formula_units_Z 56
_cell_length_a 26.948909
_cell_length_b 12.325934
_cell_length_c 11.193393
_cell_angle_alpha 90.000000
_cell_angle_beta 134.595379
_cell_angle_gamma 90.000000
_cell_volume 2647.605024
_symmetry_space_group_name_H-M "C 2/C"
_symmetry_group_IT_number 15
_symmetry_cell_setting 'monoclinic'
loop_
_space_group_symop_operation_xyz
x,y,z
-x,y,1/2-z
-x,-y,-z
x,-y,1/2+z
1/2+x,1/2+y,z
1/2-x,1/2+y,1/2-z
1/2-x,1/2-y,-z
1/2+x,1/2-y,1/2+z
loop_
_atom_site_type_symbol
_atom_site_label
_atom_site_fract_x
_atom_site_fract_y
_atom_site_fract_z
Si Si1 0.898206 0.394663 0.196810
Si Si2 0.689683 0.321245 0.545501
Si Si3 0.384247 0.513349 0.749898
Si Si4 0.021985 0.898772 0.914771
Si Si5 0.172375 0.612850 0.356832
Si Si6 0.817083 0.797868 0.678997
Si Si7 0.950234 0.648908 0.525258
O O1 0.843688 0.490681 0.129528
O O2 0.875169 0.287849 0.231204
O O3 0.904876 0.377547 0.065958
O O4 0.979012 0.420401 0.365511
O O5 0.632121 0.398270 0.380630
O O6 0.763114 0.372057 0.625075
O O7 0.685562 0.199959 0.483737
O O8 0.684321 0.309580 0.679257
O O9 0.454304 0.439955 0.869982
O O10 0.326675 0.421178 0.650675
O O11 0.401469 0.573403 0.903973
O O12 0.022638 0.770343 0.912039
O O13 0.000000 0.945417 0.750000
O O14 0.100714 0.645226 0.171549
O O15 0.750000 0.750000 0.500000
#
# Coordination Sequence:
#
# PCOD9301237 Si02
#       7
#     8   8   8   8   8   8   8
#     4  11  24  42  71 102 135 184 242 283 358 412
#     4  11  26  46  69  98 142 188 233 296 359 418
#     4  11  23  43  67 101 135 183 230 287 354 421
#     4  11  20  39  68  98 136 175 228 283 346 418
#     4  11  25  46  65  98 138 187 237 288 355 425
#     4  12  25  45  68 105 137 179 240 294 349 429
#     4  11  21  44  70  99 140 185 225 296 352 419
#
# _framework density 21.151191000000001
#
# number of rings (size 3 to 8) (size 9 to 14) (size 15 to 20)
#    0.000    0.857    4.286    3.000    2.000    0.000 
#   10.286    1.429    0.000    0.000    0.000    0.000 
#    0.000    0.000    0.000    0.000    0.000    0.000 
#
# Total GULP energy -155982.463117 kJ/mol
# GULP energy per Si atom -5570.802254 kJ/mol
# Density = 2.110305 g / cm^3
# Si number density = 21.151191 Si / 1000 Ang^3
#
#
#
# Elastic Constant Matrix: (Units=GPa)
#
#
# Indices 1 2 3 4 5 6 
#
# 1 86.9739 50.0310 26.4492 0.0000 -0.9708 0.0000
# 2 50.0310 120.1776 33.8297 0.0000 -1.1779 0.0000
# 3 26.4492 33.8297 115.8089 0.0000 -0.8923 0.0000
# 4 0.0000 0.0000 0.0000 38.3765 0.0000 17.2580
# 5 -0.9708 -1.1779 -0.8923 0.0000 30.6005 0.0000
# 6 0.0000 0.0000 0.0000 17.2580 0.0000 29.1753
#
#
#
# Elastic Compliance Matrix: (Units=1/GPa)
#
#
# Indices 1 2 3 4 5 6 
#
# 1 0.015456 -0.005926 -0.001797 0.000000 0.000210 0.000000
# 2 -0.005926 0.011341 -0.001958 0.000000 0.000191 0.000000
# 3 -0.001797 -0.001958 0.009618 0.000000 0.000148 0.000000
# 4 0.000000 0.000000 0.000000 0.035501 0.000000 -0.021000
# 5 0.000210 0.000191 0.000148 0.000000 0.032698 0.000000
# 6 0.000000 0.000000 0.000000 -0.021000 0.000000 0.046698
#
#
# Mechanical properties :
#
#
# Convention : Reuss Voigt Hill
#
# Bulk Modulus (GPa) = 58.64246 60.39780 59.52013
# Shear Modulus (GPa) = 28.35127 33.80717 31.07922
#
# Velocity S-wave (km/s) = 3.66513 4.00228 3.83741
# Velocity P-wave (km/s) = 6.75992 7.06930 6.91634
#
# Compressibility (1/GPa) = 0.01705249
#
# Stress axis : x y z
#
# Youngs Moduli (GPa) = 64.70124 88.17353 103.96696
#
# Poissons Ratio (x) = 0.52255 0.18683
# Poissons Ratio (y) = 0.38345 0.20357
# Poissons Ratio (z) = 0.11627 0.17264
#
# Static dielectric constant tensor:
#      x y z
#    x -0.371760 0.000000 1.070070 
#    y 0.000000 1.828010 0.000000 
#    z 1.070070 0.000000 1.451140 
# 
# From -- ./inp_files/122706.got.cif
#   From: 2010.05.17/outbox.cif.g08.bks.cpg/sg15_62_cif.got.tgz:122706.got - 2010.06.03 18:47:42.
