data_PCOD9301670
_publ_section_title
;
Structure prediction by ZEFSAII (Michael W. Deem and Ramdas Pophale) SiO2 
 PCOD9301670
Probable space group: C 2/C
;
_chemical_formula_sum "Si O2"
_cell_formula_units_Z 56
_cell_length_a 19.169538
_cell_length_b 29.886559
_cell_length_c 5.146085
_cell_angle_alpha 90.000000
_cell_angle_beta 102.727470
_cell_angle_gamma 90.000000
_cell_volume 2875.810021
_symmetry_space_group_name_H-M "C 2/C"
_symmetry_group_IT_number 15
_symmetry_cell_setting 'monoclinic'
loop_
_space_group_symop_operation_xyz
x,y,z
-x,y,1/2-z
-x,-y,-z
x,-y,1/2+z
1/2+x,1/2+y,z
1/2-x,1/2+y,1/2-z
1/2-x,1/2-y,-z
1/2+x,1/2-y,1/2+z
loop_
_atom_site_type_symbol
_atom_site_label
_atom_site_fract_x
_atom_site_fract_y
_atom_site_fract_z
Si Si1 0.500000 0.556851 0.750000
Si Si2 0.342423 0.527043 0.752478
Si Si3 0.738363 0.619527 0.719209
Si Si4 0.890371 0.819794 0.444766
Si Si5 0.500000 0.610704 0.250000
Si Si6 0.083410 0.276265 0.791070
Si Si7 0.700869 0.837971 0.763720
Si Si8 0.806734 0.234475 0.265908
O O1 0.428980 0.534413 0.815805
O O2 0.468885 0.582045 0.465269
O O3 0.324809 0.510868 0.448796
O O4 0.298164 0.570894 0.801573
O O5 0.672325 0.652118 0.735256
O O6 0.769637 0.637267 0.469899
O O7 0.795438 0.627818 0.994002
O O8 0.949634 0.855791 0.551785
O O9 0.912120 0.774119 0.321683
O O10 0.859255 0.802480 0.689987
O O11 0.124261 0.314368 0.661635
O O12 0.000000 0.286534 0.750000
O O13 0.136343 0.270546 0.083593
O O14 0.751154 0.794934 0.886297
O O15 0.750000 0.250000 0.000000
#
# Coordination Sequence:
#
# PCOD9301670 Si02
#       8
#     4   8   8   8   4   8   8   8
#     4  12  26  43  60  90 128 172 206 262 338 379
#     4  12  25  44  67  93 121 158 208 266 327 395
#     4  11  24  41  66  84 120 160 213 260 314 380
#     4  11  23  36  55  85 119 171 222 271 292 356
#     4  12  26  37  58  86 132 172 224 264 308 361
#     4  12  24  38  59  92 129 175 223 278 318 366
#     4  11  23  41  61  88 122 169 219 257 320 376
#     4  11  21  38  58  81 118 171 226 275 310 365
#
# _framework density 19.472776
#
# number of rings (size 3 to 8) (size 9 to 14) (size 15 to 20)
#    0.000    0.571    4.286    5.143    7.000    0.000 
#    0.000    0.000    0.000    0.000    0.000    0.000 
#    0.000   11.429    0.000    0.000    0.000    0.000 
#
# Total GULP energy -155998.507057 kJ/mol
# GULP energy per Si atom -5571.375252 kJ/mol
# Density = 1.942845 g / cm^3
# Si number density = 19.472776 Si / 1000 Ang^3
#
#
#
# Elastic Constant Matrix: (Units=GPa)
#
#
# Indices 1 2 3 4 5 6 
#
# 1 112.8896 48.1698 31.6295 0.0000 5.9142 0.0000
# 2 48.1698 83.2901 23.8525 0.0000 -7.2367 0.0000
# 3 31.6295 23.8525 88.9009 0.0000 -0.1814 0.0000
# 4 0.0000 0.0000 0.0000 18.0063 0.0000 -2.3348
# 5 5.9142 -7.2367 -0.1814 0.0000 13.4942 0.0000
# 6 0.0000 0.0000 0.0000 -2.3348 0.0000 26.1681
#
#
#
# Elastic Compliance Matrix: (Units=1/GPa)
#
#
# Indices 1 2 3 4 5 6 
#
# 1 0.013544 -0.007947 -0.002707 0.000000 -0.010234 0.000000
# 2 -0.007947 0.018350 -0.002069 0.000000 0.013296 0.000000
# 3 -0.002707 -0.002069 0.012767 0.000000 0.000249 0.000000
# 4 0.000000 0.000000 0.000000 0.056186 0.000000 0.005013
# 5 -0.010234 0.013296 0.000249 0.000000 0.085725 0.000000
# 6 0.000000 0.000000 0.000000 0.005013 0.000000 0.038662
#
#
# Mechanical properties :
#
#
# Convention : Reuss Voigt Hill
#
# Bulk Modulus (GPa) = 52.04295 54.70934 53.37615
# Shear Modulus (GPa) = 19.44883 23.62898 21.53891
#
# Velocity S-wave (km/s) = 3.16376 3.48722 3.32942
# Velocity P-wave (km/s) = 6.33481 6.66112 6.50002
#
# Compressibility (1/GPa) = 0.01921490
#
# Stress axis : x y z
#
# Youngs Moduli (GPa) = 73.83458 54.49639 78.32498
#
# Poissons Ratio (x) = 0.43307 0.21206
# Poissons Ratio (y) = 0.58674 0.16205
# Poissons Ratio (z) = 0.19990 0.11275
#
# Static dielectric constant tensor:
#      x y z
#    x 1.614560 0.000000 -0.079280 
#    y 0.000000 1.724090 0.000000 
#    z -0.079280 0.000000 1.743900 
# 
# From -- ./inp_files/11611.got.cif
#   From: 2010.05.17/outbox.cif.g08.bks.cpg/sg15_6_cif.got.tgz:11611.got - 2010.06.03 18:47:42.
