data_PCOD9301506
_publ_section_title
;
Structure prediction by ZEFSAII (Michael W. Deem and Ramdas Pophale) SiO2 
 PCOD9301506
Probable space group: C 2/C
;
_chemical_formula_sum "Si O2"
_cell_formula_units_Z 56
_cell_length_a 19.995106
_cell_length_b 24.036144
_cell_length_c 12.153881
_cell_angle_alpha 90.000000
_cell_angle_beta 29.002562
_cell_angle_gamma 90.000000
_cell_volume 2832.107597
_symmetry_space_group_name_H-M "C 2/C"
_symmetry_group_IT_number 15
_symmetry_cell_setting 'monoclinic'
loop_
_space_group_symop_operation_xyz
x,y,z
-x,y,1/2-z
-x,-y,-z
x,-y,1/2+z
1/2+x,1/2+y,z
1/2-x,1/2+y,1/2-z
1/2-x,1/2-y,-z
1/2+x,1/2-y,1/2+z
loop_
_atom_site_type_symbol
_atom_site_label
_atom_site_fract_x
_atom_site_fract_y
_atom_site_fract_z
Si Si1 0.526806 0.239486 0.832095
Si Si2 0.771503 0.835635 0.974967
Si Si3 0.748040 0.741489 0.634481
Si Si4 0.165764 0.120780 0.741277
Si Si5 0.158596 0.061005 0.984097
Si Si6 0.641673 0.340188 0.891322
Si Si7 0.667631 0.562491 0.515563
O O1 0.500000 0.215384 0.750000
O O2 0.653672 0.203600 0.695316
O O3 0.586802 0.300755 0.719983
O O4 0.397638 0.242158 0.098073
O O5 0.766829 0.839972 0.849973
O O6 0.773043 0.893777 0.034161
O O7 0.750000 0.750000 0.500000
O O8 0.758251 0.674967 0.633387
O O9 0.852796 0.782328 0.548626
O O10 0.158395 0.083740 0.860576
O O11 0.211502 0.082987 0.572904
O O12 0.014430 0.143997 0.920795
O O13 0.000000 0.058768 0.250000
O O14 0.217709 0.998871 0.911749
O O15 0.701401 0.388170 0.883309
O O16 0.500000 0.559916 0.750000
#
# Coordination Sequence:
#
# PCOD9301506 Si02
#       7
#     8   8   8   8   8   8   8
#     4  11  22  37  56  87 117 153 195 237 292 358
#     4  11  22  35  61  84 120 151 197 240 293 358
#     4  12  23  37  60  88 120 160 194 245 304 359
#     4  11  22  37  55  87 126 150 193 243 301 362
#     4  11  21  35  59  86 117 157 195 246 299 353
#     4  11  21  37  57  84 117 158 190 239 296 358
#     4   9  22  35  54  83 118 153 197 238 300 356
#
# _framework density 19.773260000000001
#
# number of rings (size 3 to 8) (size 9 to 14) (size 15 to 20)
#    0.000    1.143    5.714    1.286    4.000    1.714 
#    0.000    0.000    0.000    0.857    0.000    0.000 
#    0.000    0.000    0.000    0.000    0.000    0.000 
#
# Total GULP energy -156227.631007 kJ/mol
# GULP energy per Si atom -5579.558250 kJ/mol
# Density = 1.972826 g / cm^3
# Si number density = 19.773260 Si / 1000 Ang^3
#
#
#
# Elastic Constant Matrix: (Units=GPa)
#
#
# Indices 1 2 3 4 5 6 
#
# 1 105.2415 71.9370 34.3523 -0.0026 43.4589 0.0032
# 2 71.9370 167.6152 20.4258 0.0001 21.9926 0.0017
# 3 34.3523 20.4258 58.1472 -0.0014 19.1700 0.0010
# 4 -0.0026 0.0001 -0.0014 2.9386 0.0033 5.9532
# 5 43.4589 21.9926 19.1700 0.0033 25.2651 -0.0018
# 6 0.0032 0.0017 0.0010 5.9532 -0.0018 22.2090
#
#
#
# Elastic Compliance Matrix: (Units=1/GPa)
#
#
# Indices 1 2 3 4 5 6 
#
# 1 0.044158 -0.010131 -0.000527 0.000297 -0.066739 -0.000091
# 2 -0.010131 0.009074 -0.000458 -0.000052 0.009875 0.000015
# 3 -0.000527 -0.000458 0.022991 0.000072 -0.016140 -0.000021
# 4 0.000297 -0.000052 0.000072 0.744724 -0.000632 -0.199626
# 5 -0.066739 0.009875 -0.016140 -0.000632 0.158030 0.000192
# 6 -0.000091 0.000015 -0.000021 -0.199626 0.000192 0.098537
#
#
# Mechanical properties :
#
#
# Convention : Reuss Voigt Hill
#
# Bulk Modulus (GPa) = 18.52119 64.93714 41.72916
# Shear Modulus (GPa) = 4.47330 23.70178 14.08754
#
# Velocity S-wave (km/s) = 1.50573 3.46595 2.67208
# Velocity P-wave (km/s) = 3.52279 6.99494 5.53802
#
# Compressibility (1/GPa) = 0.05399222
#
# Stress axis : x y z
#
# Youngs Moduli (GPa) = 22.64578 110.20310 43.49590
#
# Poissons Ratio (x) = 1.11646 0.02290
# Poissons Ratio (y) = 0.22942 0.01992
# Poissons Ratio (z) = 0.01192 0.05047
#
# Static dielectric constant tensor:
#      x y z
#    x 1.777370 0.000000 -0.011530 
#    y 0.000000 1.726390 0.000000 
#    z -0.011530 0.000000 1.704620 
# 
# From -- ./inp_files/114683.got.cif
#   From: 2010.05.17/outbox.cif.g08.bks.cpg/sg15_58_cif.got.tgz:114683.got - 2010.06.03 18:47:42.
