data_PCOD9301698
_publ_section_title
;
Structure prediction by ZEFSAII (Michael W. Deem and Ramdas Pophale) SiO2 
 PCOD9301698
Probable space group: C 2/C
;
_chemical_formula_sum "Si O2"
_cell_formula_units_Z 40
_cell_length_a 23.626975
_cell_length_b 5.421311
_cell_length_c 17.488932
_cell_angle_alpha 90.000000
_cell_angle_beta 115.922999
_cell_angle_gamma 90.000000
_cell_volume 2014.745077
_symmetry_space_group_name_H-M "C 2/C"
_symmetry_group_IT_number 15
_symmetry_cell_setting 'monoclinic'
loop_
_space_group_symop_operation_xyz
x,y,z
-x,y,1/2-z
-x,-y,-z
x,-y,1/2+z
1/2+x,1/2+y,z
1/2-x,1/2+y,1/2-z
1/2-x,1/2-y,-z
1/2+x,1/2-y,1/2+z
loop_
_atom_site_type_symbol
_atom_site_label
_atom_site_fract_x
_atom_site_fract_y
_atom_site_fract_z
Si Si1 0.136666 0.955011 0.529153
Si Si2 0.700720 0.614905 0.915618
Si Si3 0.926798 0.547926 0.444789
Si Si4 0.655052 0.909670 0.742090
Si Si5 0.246274 0.230117 0.662320
O O1 0.095996 0.193822 0.531039
O O2 0.205003 0.000413 0.608643
O O3 0.148055 0.970760 0.445137
O O4 0.109192 0.692872 0.541588
O O5 0.665048 0.761081 0.826291
O O6 0.746098 0.416546 0.902382
O O7 0.750000 0.750000 0.000000
O O8 0.908138 0.579478 0.344063
O O9 0.000000 0.500000 0.500000
O O10 0.707624 0.820854 0.711971
O O11 0.681364 0.180018 0.775117
#
# Coordination Sequence:
#
# PCOD9301698 Si02
#       5
#     8   8   8   8   8
#     4  11  24  42  69  98 131 171 216 277 333 389
#     4  12  23  37  61 103 142 165 203 271 347 401
#     4  11  26  48  70  90 127 182 237 270 314 385
#     4  11  22  36  66  93 134 169 219 257 330 396
#     4  11  21  38  62  99 134 168 206 265 333 408
#
# _framework density 19.853626999999999
#
# number of rings (size 3 to 8) (size 9 to 14) (size 15 to 20)
#    0.000    0.800    4.000    4.800    5.600    0.000 
#    0.000    1.000    0.000    0.000    0.000    0.000 
#    0.000    0.000    0.000    0.000    0.000    0.000 
#
# Total GULP energy -111476.403738 kJ/mol
# GULP energy per Si atom -5573.820187 kJ/mol
# Density = 1.980844 g / cm^3
# Si number density = 19.853627 Si / 1000 Ang^3
#
#
#
# Elastic Constant Matrix: (Units=GPa)
#
#
# Indices 1 2 3 4 5 6 
#
# 1 68.2380 30.8428 70.5701 0.0000 17.2360 0.0000
# 2 30.8428 90.6086 46.6458 -0.0001 -4.4530 0.0001
# 3 70.5701 46.6458 150.3534 0.0000 -2.7954 0.0000
# 4 0.0000 -0.0001 0.0000 33.8130 0.0000 -8.4768
# 5 17.2360 -4.4530 -2.7954 0.0000 39.3633 0.0000
# 6 0.0000 0.0001 0.0000 -8.4768 0.0000 34.4809
#
#
#
# Elastic Compliance Matrix: (Units=1/GPa)
#
#
# Indices 1 2 3 4 5 6 
#
# 1 0.040209 -0.005644 -0.017484 0.000000 -0.019486 0.000000
# 2 -0.005644 0.013983 -0.001616 0.000000 0.003938 0.000000
# 3 -0.017484 -0.001616 0.015518 0.000000 0.008575 0.000000
# 4 0.000000 0.000000 0.000000 0.031517 0.000000 0.007748
# 5 -0.019486 0.003938 0.008575 0.000000 0.034991 0.000000
# 6 0.000000 0.000000 0.000000 0.007748 0.000000 0.030906
#
#
# Mechanical properties :
#
#
# Convention : Reuss Voigt Hill
#
# Bulk Modulus (GPa) = 49.44918 67.25749 58.35333
# Shear Modulus (GPa) = 22.38610 32.27420 27.33015
#
# Velocity S-wave (km/s) = 3.36155 4.03626 3.71426
# Velocity P-wave (km/s) = 6.32674 7.46137 6.91736
#
# Compressibility (1/GPa) = 0.02022278
#
# Stress axis : x y z
#
# Youngs Moduli (GPa) = 24.87005 71.51525 64.44124
#
# Poissons Ratio (x) = 0.40362 1.12669
# Poissons Ratio (y) = 0.14036 0.10413
# Poissons Ratio (z) = 0.43483 0.11556
#
# Static dielectric constant tensor:
#      x y z
#    x 1.709910 0.000000 -0.023500 
#    y 0.000000 1.853260 0.000000 
#    z -0.023500 0.000000 1.814870 
# 
# From -- ./inp_files/170904.got.cif
#   From: 2010.05.17/outbox.cif.g08.bks.cpg/sg15_86_cif.got.tgz:170904.got - 2010.06.03 18:47:42.
