data_PCOD9301911
_publ_section_title
;
Structure prediction by ZEFSAII (Michael W. Deem and Ramdas Pophale) SiO2 
 PCOD9301911
Probable space group: C 2/C
;
_chemical_formula_sum "Si O2"
_cell_formula_units_Z 64
_cell_length_a 16.710465
_cell_length_b 13.830980
_cell_length_c 14.585284
_cell_angle_alpha 90.000000
_cell_angle_beta 125.554167
_cell_angle_gamma 90.000000
_cell_volume 2742.516541
_symmetry_space_group_name_H-M "C 2/C"
_symmetry_group_IT_number 15
_symmetry_cell_setting 'monoclinic'
loop_
_space_group_symop_operation_xyz
x,y,z
-x,y,1/2-z
-x,-y,-z
x,-y,1/2+z
1/2+x,1/2+y,z
1/2-x,1/2+y,1/2-z
1/2-x,1/2-y,-z
1/2+x,1/2-y,1/2+z
loop_
_atom_site_type_symbol
_atom_site_label
_atom_site_fract_x
_atom_site_fract_y
_atom_site_fract_z
Si Si1 0.560794 0.988519 0.135672
Si Si2 0.211683 0.036609 0.677028
Si Si3 0.095469 0.315137 0.772910
Si Si4 0.795319 0.745453 0.331053
Si Si5 0.883083 0.375860 0.051497
Si Si6 0.736325 0.933597 0.971369
Si Si7 0.383136 0.705113 0.184072
Si Si8 0.612070 0.511905 0.799074
O O1 0.676792 0.964931 0.206590
O O2 0.499136 0.899844 0.137954
O O3 0.558459 0.084680 0.197395
O O4 0.500000 0.000000 0.000000
O O5 0.188588 0.144521 0.627821
O O6 0.214670 0.965280 0.592637
O O7 0.136705 0.010669 0.708040
O O8 0.159258 0.262961 0.738763
O O9 0.165249 0.346070 0.901999
O O10 0.000000 0.264285 0.750000
O O11 0.851970 0.667467 0.432347
O O12 0.679342 0.722141 0.264737
O O13 0.831497 0.476611 0.041456
O O14 0.849309 0.291839 0.096948
O O15 0.816844 0.915085 0.101492
O O16 0.500000 0.707050 0.250000
O O17 0.358992 0.594523 0.142741
O O18 0.500000 0.528105 0.750000
#
# Coordination Sequence:
#
# PCOD9301911 Si02
#       8
#     8   8   8   8   8   8   8   8
#     4  11  21  40  66 103 133 168 216 276 354 402
#     4  11  25  41  66  96 133 174 218 276 335 406
#     4  11  24  38  65  98 138 177 214 273 335 419
#     4  12  23  41  60  96 135 169 217 269 338 394
#     4  12  21  36  69  99 133 162 207 287 348 391
#     4  11  22  41  68  96 130 167 216 278 340 395
#     4  11  22  37  61  96 127 160 217 279 334 383
#     4  11  25  45  64  87 127 181 229 268 318 396
#
# _framework density 23.336231000000002
#
# number of rings (size 3 to 8) (size 9 to 14) (size 15 to 20)
#    0.000    0.750    5.000    4.125    1.750    1.000 
#    0.000    3.125    0.000    0.000    0.000    0.000 
#    0.000    0.000    0.000    0.000    0.000    0.000 
#
# Total GULP energy -178942.756124 kJ/mol
# GULP energy per Si atom -5591.961129 kJ/mol
# Density = 2.328312 g / cm^3
# Si number density = 23.336231 Si / 1000 Ang^3
#
#
#
# Elastic Constant Matrix: (Units=GPa)
#
#
# Indices 1 2 3 4 5 6 
#
# 1 185.0155 8.4943 17.5320 0.0000 -2.3184 0.0000
# 2 8.4943 55.7967 -4.4147 0.0000 -1.9518 0.0000
# 3 17.5320 -4.4147 37.6265 0.0000 -16.3606 0.0000
# 4 0.0000 0.0000 0.0000 20.2400 0.0000 -8.9134
# 5 -2.3184 -1.9518 -16.3606 0.0000 26.5005 0.0000
# 6 0.0000 0.0000 0.0000 -8.9134 0.0000 25.1358
#
#
#
# Elastic Compliance Matrix: (Units=1/GPa)
#
#
# Indices 1 2 3 4 5 6 
#
# 1 0.005783 -0.001232 -0.003634 0.000000 -0.001828 0.000000
# 2 -0.001232 0.018609 0.004520 0.000000 0.004053 0.000000
# 3 -0.003634 0.004520 0.039378 0.000000 0.024325 0.000000
# 4 0.000000 0.000000 0.000000 0.058551 0.000000 0.020763
# 5 -0.001828 0.004053 0.024325 0.000000 0.052891 0.000000
# 6 0.000000 0.000000 0.000000 0.020763 0.000000 0.047147
#
#
# Mechanical properties :
#
#
# Convention : Reuss Voigt Hill
#
# Bulk Modulus (GPa) = 15.85354 35.74022 25.79688
# Shear Modulus (GPa) = 20.48534 31.49706 25.99120
#
# Velocity S-wave (km/s) = 2.96604 3.67782 3.34094
# Velocity P-wave (km/s) = 4.30559 5.77787 5.09519
#
# Compressibility (1/GPa) = 0.06307739
#
# Stress axis : x y z
#
# Youngs Moduli (GPa) = 172.92162 53.73700 25.39509
#
# Poissons Ratio (x) = 0.06620 0.09229
# Poissons Ratio (y) = 0.21302 -0.11478
# Poissons Ratio (z) = 0.62842 -0.24288
#
# Static dielectric constant tensor:
#      x y z
#    x 1.929120 0.000000 -0.009700 
#    y 0.000000 1.895160 0.000000 
#    z -0.009700 0.000000 1.899700 
# 
# From -- ./inp_files/155208.got.cif
#   From: 2010.05.17/outbox.cif.g08.bks.cpg/sg15_78_cif.got.tgz:155208.got - 2010.06.03 18:47:42.
