data_PCOD9301612
_publ_section_title
;
Structure prediction by ZEFSAII (Michael W. Deem and Ramdas Pophale) SiO2 
 PCOD9301612
Probable space group: C 2/C
;
_chemical_formula_sum "Si O2"
_cell_formula_units_Z 40
_cell_length_a 16.760061
_cell_length_b 24.675726
_cell_length_c 9.475590
_cell_angle_alpha 90.000000
_cell_angle_beta 30.521450
_cell_angle_gamma 90.000000
_cell_volume 1990.199311
_symmetry_space_group_name_H-M "C 2/C"
_symmetry_group_IT_number 15
_symmetry_cell_setting 'monoclinic'
loop_
_space_group_symop_operation_xyz
x,y,z
-x,y,1/2-z
-x,-y,-z
x,-y,1/2+z
1/2+x,1/2+y,z
1/2-x,1/2+y,1/2-z
1/2-x,1/2-y,-z
1/2+x,1/2-y,1/2+z
loop_
_atom_site_type_symbol
_atom_site_label
_atom_site_fract_x
_atom_site_fract_y
_atom_site_fract_z
Si Si1 0.326338 0.881418 0.524071
Si Si2 0.174109 0.913153 0.038332
Si Si3 0.666412 0.026402 0.708334
Si Si4 0.325784 0.876313 0.083379
Si Si5 0.177311 0.196779 0.039160
O O1 0.336744 0.939692 0.431456
O O2 0.198235 0.848105 0.630775
O O3 0.286303 0.888766 0.747263
O O4 0.500000 0.855698 0.250000
O O5 0.208115 0.884011 0.133045
O O6 0.000000 0.905532 0.250000
O O7 0.213207 0.977037 0.988373
O O8 0.694719 0.070654 0.786913
O O9 0.500000 0.000000 0.000000
O O10 0.283090 0.825825 0.248196
O O11 0.500000 0.874647 0.750000
O O12 0.000000 0.202453 0.250000
O O13 0.250000 0.250000 0.000000
#
# Coordination Sequence:
#
# PCOD9301612 Si02
#       5
#     8   8   8   8   8
#     4  11  22  40  66  90 128 177 219 262 329 389
#     4  12  24  36  59  98 136 169 219 271 319 376
#     4  11  21  37  62  93 135 183 215 253 309 392
#     4  11  23  42  68  95 131 172 222 264 326 394
#     4  11  25  47  70  92 125 166 220 279 342 393
#
# _framework density 20.098490000000002
#
# number of rings (size 3 to 8) (size 9 to 14) (size 15 to 20)
#    0.000    0.800    4.000    4.200    0.000    6.400 
#    0.000    5.000    0.000    0.000    0.000    0.000 
#    0.000    0.000    0.000    0.000    0.000    0.000 
#
# Total GULP energy -111806.225555 kJ/mol
# GULP energy per Si atom -5590.311278 kJ/mol
# Density = 2.005274 g / cm^3
# Si number density = 20.098490 Si / 1000 Ang^3
#
#
#
# Elastic Constant Matrix: (Units=GPa)
#
#
# Indices 1 2 3 4 5 6 
#
# 1 153.7985 53.5806 31.9511 0.0000 4.2983 -0.0002
# 2 53.5806 98.4141 30.4541 0.0000 8.1805 0.0000
# 3 31.9511 30.4541 49.5299 0.0000 13.3351 -0.0002
# 4 0.0000 0.0000 0.0000 18.3941 0.0000 -1.8921
# 5 4.2983 8.1805 13.3351 0.0000 47.7117 0.0002
# 6 -0.0002 0.0000 -0.0002 -1.8921 0.0002 26.4173
#
#
#
# Elastic Compliance Matrix: (Units=1/GPa)
#
#
# Indices 1 2 3 4 5 6 
#
# 1 0.008452 -0.003599 -0.003461 0.000000 0.000823 0.000000
# 2 -0.003599 0.014081 -0.006243 0.000000 -0.000345 0.000000
# 3 -0.003461 -0.006243 0.027996 0.000000 -0.006442 0.000000
# 4 0.000000 0.000000 0.000000 0.054769 0.000000 0.003923
# 5 0.000823 -0.000345 -0.006442 0.000000 0.022745 0.000000
# 6 0.000000 0.000000 0.000000 0.003923 0.000000 0.038135
#
#
# Mechanical properties :
#
#
# Convention : Reuss Voigt Hill
#
# Bulk Modulus (GPa) = 41.80212 59.30159 50.55185
# Shear Modulus (GPa) = 24.90558 30.88839 27.89698
#
# Velocity S-wave (km/s) = 3.52401 3.92452 3.72965
# Velocity P-wave (km/s) = 6.11572 7.07852 6.61466
#
# Compressibility (1/GPa) = 0.02392223
#
# Stress axis : x y z
#
# Youngs Moduli (GPa) = 118.31790 71.01627 35.71971
#
# Poissons Ratio (x) = 0.25558 0.12362
# Poissons Ratio (y) = 0.42582 0.22302
# Poissons Ratio (z) = 0.40948 0.44339
#
# Static dielectric constant tensor:
#      x y z
#    x 1.703950 0.000000 -0.012420 
#    y 0.000000 1.715450 0.000000 
#    z -0.012420 0.000000 1.667280 
# 
# From -- ./inp_files/51650.got.cif
#   From: 2010.05.17/outbox.cif.g08.bks.cpg/sg15_26_cif.got.tgz:51650.got - 2010.06.03 18:47:42.
