data_PCOD9301400
_publ_section_title
;
Structure prediction by ZEFSAII (Michael W. Deem and Ramdas Pophale) SiO2 
 PCOD9301400
Probable space group: C 2/C
;
_chemical_formula_sum "Si O2"
_cell_formula_units_Z 52
_cell_length_a 13.844806
_cell_length_b 17.458754
_cell_length_c 15.845035
_cell_angle_alpha 90.000000
_cell_angle_beta 37.281710
_cell_angle_gamma 90.000000
_cell_volume 2319.933779
_symmetry_space_group_name_H-M "C 2/C"
_symmetry_group_IT_number 15
_symmetry_cell_setting 'monoclinic'
loop_
_space_group_symop_operation_xyz
x,y,z
-x,y,1/2-z
-x,-y,-z
x,-y,1/2+z
1/2+x,1/2+y,z
1/2-x,1/2+y,1/2-z
1/2-x,1/2-y,-z
1/2+x,1/2-y,1/2+z
loop_
_atom_site_type_symbol
_atom_site_label
_atom_site_fract_x
_atom_site_fract_y
_atom_site_fract_z
Si Si1 0.526348 0.616221 0.063261
Si Si2 0.924796 0.584394 0.551771
Si Si3 0.944214 0.960592 0.196471
Si Si4 0.430448 0.793485 0.672329
Si Si5 0.701805 0.180239 0.720983
Si Si6 0.500000 0.710290 0.250000
Si Si7 0.156535 0.170132 0.468573
O O1 0.446847 0.534802 0.135472
O O2 0.549864 0.658560 0.135820
O O3 0.416772 0.664488 0.075667
O O4 0.691722 0.615004 0.897735
O O5 0.732684 0.575344 0.673445
O O6 0.931753 0.636861 0.631379
O O7 0.000000 0.500000 0.500000
O O8 0.018551 0.633120 0.417163
O O9 0.000000 0.985202 0.250000
O O10 0.078637 0.902265 0.069091
O O11 0.313046 0.733428 0.703688
O O12 0.340568 0.820884 0.818410
O O13 0.588846 0.742574 0.565133
O O14 0.634501 0.234972 0.695428
#
# Coordination Sequence:
#
# PCOD9301400 Si02
#       7
#     8   8   8   8   8   4   8
#     4  11  22  39  67  96 140 184 222 282 367 418
#     4  12  26  43  72 103 145 194 240 295 359 430
#     4  12  26  46  68 104 142 184 248 297 352 424
#     4  11  20  43  69 100 131 184 240 283 347 434
#     4  11  23  41  67 104 142 185 231 287 358 440
#     4  12  22  40  68 110 144 178 232 300 356 436
#     4  11  21  41  73  94 139 184 236 282 358 435
#
# _framework density 22.414432999999999
#
# number of rings (size 3 to 8) (size 9 to 14) (size 15 to 20)
#    0.000    0.615    6.923    2.769    2.154    1.231 
#    0.000    3.846    0.000    0.000    0.000    0.000 
#    0.000    0.000    0.000    0.000    0.000    0.000 
#
# Total GULP energy -145272.523721 kJ/mol
# GULP energy per Si atom -5587.404759 kJ/mol
# Density = 2.236342 g / cm^3
# Si number density = 22.414433 Si / 1000 Ang^3
#
#
#
# Elastic Constant Matrix: (Units=GPa)
#
#
# Indices 1 2 3 4 5 6 
#
# 1 66.5193 14.2302 24.3428 0.0017 4.4723 -0.0006
# 2 14.2302 130.4249 67.8200 0.0010 -6.9013 -0.0003
# 3 24.3428 67.8200 182.0238 0.0025 -8.2622 -0.0010
# 4 0.0017 0.0010 0.0025 56.9670 -0.0018 1.3867
# 5 4.4723 -6.9013 -8.2622 -0.0018 23.4029 0.0007
# 6 -0.0006 -0.0003 -0.0010 1.3867 0.0007 23.8186
#
#
#
# Elastic Compliance Matrix: (Units=1/GPa)
#
#
# Indices 1 2 3 4 5 6 
#
# 1 0.016245 -0.000946 -0.002006 -0.000001 -0.004091 0.000000
# 2 -0.000946 0.009623 -0.003376 0.000000 0.001827 0.000000
# 3 -0.002006 -0.003376 0.007106 0.000000 0.001896 0.000000
# 4 -0.000001 0.000000 0.000000 0.017579 0.000001 -0.001023
# 5 -0.004091 0.001827 0.001896 0.000001 0.044720 -0.000001
# 6 0.000000 0.000000 0.000000 -0.001023 -0.000001 0.042044
#
#
# Mechanical properties :
#
#
# Convention : Reuss Voigt Hill
#
# Bulk Modulus (GPa) = 49.21721 65.75044 57.48383
# Shear Modulus (GPa) = 31.89934 39.00937 35.45435
#
# Velocity S-wave (km/s) = 3.77657 4.17630 3.98145
# Velocity P-wave (km/s) = 6.40485 7.25623 6.84380
#
# Compressibility (1/GPa) = 0.02031809
#
# Stress axis : x y z
#
# Youngs Moduli (GPa) = 61.55870 103.92299 140.72806
#
# Poissons Ratio (x) = 0.09830 0.28226
# Poissons Ratio (y) = 0.05823 0.47507
# Poissons Ratio (z) = 0.12347 0.35083
#
# Static dielectric constant tensor:
#      x y z
#    x 1.878380 0.000000 -0.030460 
#    y 0.000000 1.812930 0.000000 
#    z -0.030460 0.000000 1.861560 
# 
# From -- ./inp_files/155410.got.cif
#   From: 2010.05.17/outbox.cif.g08.bks.cpg/sg15_78_cif.got.tgz:155410.got - 2010.06.03 18:47:42.
