data_PCOD9301711
_publ_section_title
;
Structure prediction by ZEFSAII (Michael W. Deem and Ramdas Pophale) SiO2 
 PCOD9301711
Probable space group: C 2/C
;
_chemical_formula_sum "Si O2"
_cell_formula_units_Z 36
_cell_length_a 20.870295
_cell_length_b 20.867046
_cell_length_c 9.418878
_cell_angle_alpha 90.000000
_cell_angle_beta 29.453333
_cell_angle_gamma 90.000000
_cell_volume 2016.980719
_symmetry_space_group_name_H-M "C 2/C"
_symmetry_group_IT_number 15
_symmetry_cell_setting 'monoclinic'
loop_
_space_group_symop_operation_xyz
x,y,z
-x,y,1/2-z
-x,-y,-z
x,-y,1/2+z
1/2+x,1/2+y,z
1/2-x,1/2+y,1/2-z
1/2-x,1/2-y,-z
1/2+x,1/2-y,1/2+z
loop_
_atom_site_type_symbol
_atom_site_label
_atom_site_fract_x
_atom_site_fract_y
_atom_site_fract_z
Si Si1 0.764945 0.418545 0.172708
Si Si2 0.500000 0.654185 0.250000
Si Si3 0.903088 0.738711 0.725191
Si Si4 0.500000 0.817638 0.750000
Si Si5 0.363828 0.025608 0.197251
Si Si6 0.000000 0.368887 0.250000
O O1 0.625268 0.387970 0.470827
O O2 0.801508 0.470065 0.222714
O O3 0.776574 0.452090 0.997180
O O4 0.875640 0.363439 0.964259
O O5 0.535744 0.700881 0.311744
O O6 0.970222 0.724396 0.445566
O O7 0.928165 0.676803 0.776049
O O8 0.750000 0.750000 0.000000
O O9 0.401017 0.085230 0.025138
O O10 0.500000 0.000000 0.000000
#
# Coordination Sequence:
#
# PCOD9301711 Si02
#       6
#     8   4   8   4   8   4
#     4  12  24  41  66  98 130 166 215 268 318 381
#     4  11  28  44  61  99 140 165 208 272 330 371
#     4  11  24  41  66  94 131 170 211 266 320 379
#     4  12  21  40  71  93 124 175 218 258 316 386
#     4  12  21  38  67  97 121 169 219 261 311 382
#     4  11  21  38  64 100 120 166 220 264 306 383
#
# _framework density 17.848459999999999
#
# number of rings (size 3 to 8) (size 9 to 14) (size 15 to 20)
#    0.000    0.444    8.889    0.000    0.000    3.556 
#    0.000    0.000    0.000    0.000    0.000    0.000 
#    0.000    0.000    0.000    0.000    0.000    0.000 
#
# Total GULP energy -100665.994152 kJ/mol
# GULP energy per Si atom -5592.555231 kJ/mol
# Density = 1.780784 g / cm^3
# Si number density = 17.848460 Si / 1000 Ang^3
#
#
#
# Elastic Constant Matrix: (Units=GPa)
#
#
# Indices 1 2 3 4 5 6 
#
# 1 150.9292 92.0695 97.6785 0.0001 21.7374 -0.0001
# 2 92.0695 134.8737 100.8666 0.0000 8.2616 0.0000
# 3 97.6785 100.8666 174.4909 0.0003 7.1886 -0.0002
# 4 0.0001 0.0000 0.0003 40.6727 -0.0002 7.2632
# 5 21.7374 8.2616 7.1886 -0.0002 41.9935 0.0001
# 6 -0.0001 0.0000 -0.0002 7.2632 0.0001 20.8251
#
#
#
# Elastic Compliance Matrix: (Units=1/GPa)
#
#
# Indices 1 2 3 4 5 6 
#
# 1 0.013574 -0.006035 -0.003897 0.000000 -0.005172 0.000000
# 2 -0.006035 0.015813 -0.005804 0.000000 0.001006 0.000000
# 3 -0.003897 -0.005804 0.011217 0.000000 0.001239 0.000000
# 4 0.000000 0.000000 0.000000 0.026220 0.000000 -0.009145
# 5 -0.005172 0.001006 0.001239 0.000000 0.026080 0.000000
# 6 0.000000 0.000000 0.000000 -0.009145 0.000000 0.051208
#
#
# Mechanical properties :
#
#
# Convention : Reuss Voigt Hill
#
# Bulk Modulus (GPa) = 109.50984 115.72476 112.61730
# Shear Modulus (GPa) = 27.99125 32.01020 30.00073
#
# Velocity S-wave (km/s) = 3.96444 4.23950 4.10427
# Velocity P-wave (km/s) = 9.07988 9.43094 9.25707
#
# Compressibility (1/GPa) = 0.00913160
#
# Stress axis : x y z
#
# Youngs Moduli (GPa) = 73.67079 63.23950 89.15418
#
# Poissons Ratio (x) = 0.38164 0.34743
# Poissons Ratio (y) = 0.44459 0.51746
# Poissons Ratio (z) = 0.28709 0.36705
#
# Static dielectric constant tensor:
#      x y z
#    x 1.549320 0.000000 0.014210 
#    y 0.000000 1.601810 0.000000 
#    z 0.014210 0.000000 1.571620 
# 
# From -- ./inp_files/22557.got.cif
#   From: 2010.05.17/outbox.cif.g08.bks.cpg/sg15_12_cif.got.tgz:22557.got - 2010.06.03 18:47:42.
