data_PCOD9301665
_publ_section_title
;
Structure prediction by ZEFSAII (Michael W. Deem and Ramdas Pophale) SiO2 
 PCOD9301665
Probable space group: C 2/C
;
_chemical_formula_sum "Si O2"
_cell_formula_units_Z 56
_cell_length_a 9.180149
_cell_length_b 28.134870
_cell_length_c 21.465826
_cell_angle_alpha 90.000000
_cell_angle_beta 29.580143
_cell_angle_gamma 90.000000
_cell_volume 2736.862807
_symmetry_space_group_name_H-M "C 2/C"
_symmetry_group_IT_number 15
_symmetry_cell_setting 'monoclinic'
loop_
_space_group_symop_operation_xyz
x,y,z
-x,y,1/2-z
-x,-y,-z
x,-y,1/2+z
1/2+x,1/2+y,z
1/2-x,1/2+y,1/2-z
1/2-x,1/2-y,-z
1/2+x,1/2-y,1/2+z
loop_
_atom_site_type_symbol
_atom_site_label
_atom_site_fract_x
_atom_site_fract_y
_atom_site_fract_z
Si Si1 0.166340 0.019027 0.624125
Si Si2 0.280491 0.365117 0.100891
Si Si3 0.718128 0.171380 0.491633
Si Si4 0.510745 0.290571 0.093138
Si Si5 0.706105 0.743049 0.316550
Si Si6 0.356812 0.471259 0.110115
Si Si7 0.282649 0.631623 0.888123
O O1 0.173547 0.076178 0.620783
O O2 0.000000 0.004100 0.750000
O O3 0.995975 0.009174 0.622771
O O4 0.500000 0.000000 0.500000
O O5 0.191003 0.362217 0.062360
O O6 0.444836 0.314973 0.051926
O O7 0.419341 0.415363 0.069983
O O8 0.000000 0.360625 0.250000
O O9 0.510883 0.218325 0.571699
O O10 0.561418 0.141889 0.496031
O O11 0.044558 0.192716 0.366923
O O12 0.261828 0.265819 0.227591
O O13 0.616074 0.335897 0.093232
O O14 0.750000 0.250000 0.000000
O O15 0.000000 0.739538 0.250000
O O16 0.000000 0.474909 0.250000
O O17 0.500000 0.500000 0.000000
O O18 0.500000 0.645882 0.750000
#
# Coordination Sequence:
#
# PCOD9301665 Si02
#       7
#     8   8   8   8   8   8   8
#     4  11  25  45  76 104 136 177 226 286 352 418
#     4  11  22  37  62  96 124 165 224 264 323 396
#     4  11  22  36  63  86 120 172 215 265 316 383
#     4  12  22  37  60  89 134 168 214 275 317 381
#     4  11  21  38  56  86 126 168 216 263 321 375
#     4  11  25  45  72 105 138 175 225 285 351 415
#     4  11  21  41  66  94 125 170 226 265 323 402
#
# _framework density 20.461383999999999
#
# number of rings (size 3 to 8) (size 9 to 14) (size 15 to 20)
#    0.000    0.857    5.714    1.714   10.000    0.000 
#    0.000    3.571    0.000    0.000    0.000    0.000 
#    0.000    0.000    0.000    0.000    0.000    0.000 
#
# Total GULP energy -156218.316808 kJ/mol
# GULP energy per Si atom -5579.225600 kJ/mol
# Density = 2.041481 g / cm^3
# Si number density = 20.461384 Si / 1000 Ang^3
#
#
#
# Elastic Constant Matrix: (Units=GPa)
#
#
# Indices 1 2 3 4 5 6 
#
# 1 94.5644 7.2959 38.2521 -0.0025 -4.2026 0.0004
# 2 7.2959 62.6277 36.6745 -0.0020 3.3705 0.0005
# 3 38.2521 36.6745 77.4027 -0.0169 -5.0903 0.0017
# 4 -0.0025 -0.0020 -0.0169 23.3056 0.0003 -8.5576
# 5 -4.2026 3.3705 -5.0903 0.0003 26.6432 -0.0017
# 6 0.0004 0.0005 0.0017 -8.5576 -0.0017 32.0704
#
#
#
# Elastic Compliance Matrix: (Units=1/GPa)
#
#
# Indices 1 2 3 4 5 6 
#
# 1 0.013686 0.003254 -0.008295 -0.000005 0.000162 -0.000001
# 2 0.003254 0.023511 -0.013074 -0.000008 -0.004959 -0.000002
# 3 -0.008295 -0.013074 0.023532 0.000016 0.004841 0.000004
# 4 -0.000005 -0.000008 0.000016 0.047569 0.000004 0.012693
# 5 0.000162 -0.004959 0.004841 0.000004 0.039111 0.000003
# 6 -0.000001 -0.000002 0.000004 0.012693 0.000003 0.034568
#
#
# Mechanical properties :
#
#
# Convention : Reuss Voigt Hill
#
# Bulk Modulus (GPa) = 40.81693 44.33774 42.57734
# Shear Modulus (GPa) = 22.08723 26.56199 24.32461
#
# Velocity S-wave (km/s) = 3.28908 3.60690 3.45165
# Velocity P-wave (km/s) = 5.86648 6.24998 6.06127
#
# Compressibility (1/GPa) = 0.02449964
#
# Stress axis : x y z
#
# Youngs Moduli (GPa) = 73.06552 42.53241 42.49516
#
# Poissons Ratio (x) = -0.13842 0.35250
# Poissons Ratio (y) = -0.23778 0.55560
# Poissons Ratio (z) = 0.60608 0.55609
#
# Static dielectric constant tensor:
#      x y z
#    x 1.660150 0.000140 -0.069240 
#    y 0.000140 1.677880 0.000040 
#    z -0.069240 0.000040 1.742790 
# 
# From -- ./inp_files/234934.got.cif
#   From: 2010.05.17/outbox.cif.g08.bks.cpg/sg15_118_cif.got.tgz:234934.got - 2010.06.03 18:47:42.
