data_PCOD9301844
_publ_section_title
;
Structure prediction by ZEFSAII (Michael W. Deem and Ramdas Pophale) SiO2 
 PCOD9301844
Probable space group: C 2/C
;
_chemical_formula_sum "Si O2"
_cell_formula_units_Z 52
_cell_length_a 16.747576
_cell_length_b 8.014926
_cell_length_c 15.039448
_cell_angle_alpha 90.000000
_cell_angle_beta 89.992697
_cell_angle_gamma 90.000000
_cell_volume 2018.753846
_symmetry_space_group_name_H-M "C 2/C"
_symmetry_group_IT_number 15
_symmetry_cell_setting 'monoclinic'
loop_
_space_group_symop_operation_xyz
x,y,z
-x,y,1/2-z
-x,-y,-z
x,-y,1/2+z
1/2+x,1/2+y,z
1/2-x,1/2+y,1/2-z
1/2-x,1/2-y,-z
1/2+x,1/2-y,1/2+z
loop_
_atom_site_type_symbol
_atom_site_label
_atom_site_fract_x
_atom_site_fract_y
_atom_site_fract_z
Si Si1 0.896140 0.873223 0.883440
Si Si2 0.888978 0.022804 0.059585
Si Si3 0.121635 0.590170 0.897151
Si Si4 0.868222 0.918389 0.237415
Si Si5 0.208209 0.429729 0.750401
Si Si6 0.000000 0.646502 0.750000
Si Si7 0.300333 0.928583 0.433863
O O1 0.817284 0.762725 0.906181
O O2 0.944449 0.763748 0.811802
O O3 0.892129 0.054979 0.837940
O O4 0.927881 0.917109 0.980650
O O5 0.892026 0.223604 0.065385
O O6 0.792836 0.976998 0.053042
O O7 0.922661 0.957733 0.153907
O O8 0.194479 0.565866 0.827717
O O9 0.050329 0.549175 0.826193
O O10 0.145385 0.476879 0.981476
O O11 0.827511 0.743571 0.219844
O O12 0.801936 0.065346 0.232972
O O13 0.171487 0.474435 0.654874
#
# Coordination Sequence:
#
# PCOD9301844 Si02
#       7
#     8   8   8   8   8   4   8
#     4  12  24  46  66 103 140 183 227 277 342 409
#     4  11  22  40  72 105 132 171 224 294 348 399
#     4  12  24  46  66 103 140 183 227 277 342 409
#     4  11  21  39  68 106 140 174 218 287 357 406
#     4  11  21  39  68 106 140 174 218 287 357 406
#     4  12  28  48  66  88 150 192 226 278 324 404
#     4  11  22  40  72 105 132 171 224 294 348 399
#
# _framework density 25.758465999999999
#
# number of rings (size 3 to 8) (size 9 to 14) (size 15 to 20)
#    0.000    0.615    3.077    7.385    0.000    1.231 
#    0.000    0.769    0.000    0.000    0.000    0.000 
#    0.000    0.000    0.000    0.000    0.000    0.000 
#
# Total GULP energy -145123.792920 kJ/mol
# GULP energy per Si atom -5581.684343 kJ/mol
# Density = 2.569984 g / cm^3
# Si number density = 25.758466 Si / 1000 Ang^3
#
#
#
# Elastic Constant Matrix: (Units=GPa)
#
#
# Indices 1 2 3 4 5 6 
#
# 1 86.0548 18.0340 14.4037 0.0000 20.8189 0.0000
# 2 18.0340 90.6141 30.6714 0.0000 0.7786 0.0000
# 3 14.4037 30.6714 173.9367 0.0000 21.0992 0.0000
# 4 0.0000 0.0000 0.0000 41.8415 0.0000 4.4084
# 5 20.8189 0.7786 21.0992 0.0000 28.7410 0.0000
# 6 0.0000 0.0000 0.0000 4.4084 0.0000 25.9563
#
#
#
# Elastic Compliance Matrix: (Units=1/GPa)
#
#
# Indices 1 2 3 4 5 6 
#
# 1 0.014858 -0.003087 0.000669 0.000000 -0.011170 0.000000
# 2 -0.003087 0.012424 -0.002377 0.000000 0.003645 0.000000
# 3 0.000669 -0.002377 0.006767 0.000000 -0.005388 0.000000
# 4 0.000000 0.000000 0.000000 0.024335 0.000000 -0.004133
# 5 -0.011170 0.003645 -0.005388 0.000000 0.046741 0.000000
# 6 0.000000 0.000000 0.000000 -0.004133 0.000000 0.039228
#
#
# Mechanical properties :
#
#
# Convention : Reuss Voigt Hill
#
# Bulk Modulus (GPa) = 40.88872 52.98044 46.93458
# Shear Modulus (GPa) = 30.84591 38.47418 34.66004
#
# Velocity S-wave (km/s) = 3.46425 3.86897 3.67219
# Velocity P-wave (km/s) = 5.64887 6.36957 6.02002
#
# Compressibility (1/GPa) = 0.02445662
#
# Stress axis : x y z
#
# Youngs Moduli (GPa) = 67.30449 80.49190 147.78587
#
# Poissons Ratio (x) = 0.24852 -0.09887
# Poissons Ratio (y) = 0.20780 0.35132
# Poissons Ratio (z) = -0.04503 0.19135
#
# Static dielectric constant tensor:
#      x y z
#    x 2.152390 0.000000 0.030240 
#    y 0.000000 1.997810 0.000000 
#    z 0.030240 0.000000 2.079020 
# 
# From -- ./inp_files/166239.got.cif
#   From: 2010.05.17/outbox.cif.g08.bks.cpg/sg15_84_cif.got.tgz:166239.got - 2010.06.03 18:47:42.
