data_PCOD9301056
_publ_section_title
;
Structure prediction by ZEFSAII (Michael W. Deem and Ramdas Pophale) SiO2 
 PCOD9301056
Probable space group: C 2/C
;
_chemical_formula_sum "Si O2"
_cell_formula_units_Z 48
_cell_length_a 5.671821
_cell_length_b 29.347692
_cell_length_c 14.048751
_cell_angle_alpha 90.000000
_cell_angle_beta 63.740651
_cell_angle_gamma 90.000000
_cell_volume 2097.152706
_symmetry_space_group_name_H-M "C 2/C"
_symmetry_group_IT_number 15
_symmetry_cell_setting 'monoclinic'
loop_
_space_group_symop_operation_xyz
x,y,z
-x,y,1/2-z
-x,-y,-z
x,-y,1/2+z
1/2+x,1/2+y,z
1/2-x,1/2+y,1/2-z
1/2-x,1/2-y,-z
1/2+x,1/2-y,1/2+z
loop_
_atom_site_type_symbol
_atom_site_label
_atom_site_fract_x
_atom_site_fract_y
_atom_site_fract_z
Si Si1 0.000000 0.733090 0.250000
Si Si2 0.500000 0.388350 0.250000
Si Si3 0.228347 0.633951 0.471255
Si Si4 0.613342 0.808278 0.332093
Si Si5 0.520043 0.958230 0.569880
Si Si6 0.500000 0.005968 0.750000
Si Si7 0.500000 0.680836 0.250000
Si Si8 0.448069 0.433791 0.075536
O O1 0.809422 0.769538 0.337139
O O2 0.783079 0.704904 0.227958
O O3 0.263602 0.354127 0.272234
O O4 0.586990 0.419979 0.148727
O O5 0.077767 0.590520 0.450993
O O6 0.425750 0.652594 0.357191
O O7 0.363566 0.611797 0.538679
O O8 0.063828 0.675007 0.548399
O O9 0.500000 0.791127 0.250000
O O10 0.833845 0.955030 0.531439
O O11 0.500000 0.000000 0.500000
O O12 0.376123 0.973572 0.691758
O O13 0.299005 0.037691 0.843720
#
# Coordination Sequence:
#
# PCOD9301056 Si02
#       8
#     4   4   8   8   8   4   4   8
#     4  11  28  55  80 125 152 205 256 324 407 484
#     4  11  20  36  77 105 152 182 252 328 382 456
#     4  12  28  47  78 111 155 209 257 322 391 470
#     4  11  22  47  79 117 149 192 263 322 389 463
#     4  12  27  46  68 107 149 207 258 321 390 452
#     4  12  26  43  71  97 156 196 266 330 371 458
#     4  12  32  52  80 117 168 207 256 314 412 490
#     4  12  24  45  68 110 143 204 265 320 394 450
#
# _framework density 22.888178
#
# number of rings (size 3 to 8) (size 9 to 14) (size 15 to 20)
#    0.000    0.333    5.833    2.500    4.667    1.333 
#    0.000    0.000    0.000    0.000    0.000    0.000 
#    0.000    0.000    0.000    0.000    0.000    0.000 
#
# Total GULP energy -133823.062312 kJ/mol
# GULP energy per Si atom -5575.960930 kJ/mol
# Density = 2.283608 g / cm^3
# Si number density = 22.888178 Si / 1000 Ang^3
#
#
#
# Elastic Constant Matrix: (Units=GPa)
#
#
# Indices 1 2 3 4 5 6 
#
# 1 77.0284 41.3541 27.6045 0.0000 -4.5447 0.0000
# 2 41.3541 78.3754 55.4121 0.0000 -4.6969 0.0000
# 3 27.6045 55.4121 151.2206 0.0000 1.4725 0.0000
# 4 0.0000 0.0000 0.0000 18.3047 0.0000 0.0436
# 5 -4.5447 -4.6969 1.4725 0.0000 33.2178 0.0000
# 6 0.0000 0.0000 0.0000 0.0436 0.0000 10.0690
#
#
#
# Elastic Compliance Matrix: (Units=1/GPa)
#
#
# Indices 1 2 3 4 5 6 
#
# 1 0.018161 -0.009670 0.000217 0.000000 0.001108 0.000000
# 2 -0.009670 0.022618 -0.006544 0.000000 0.002165 0.000000
# 3 0.000217 -0.006544 0.008984 0.000000 -0.001294 0.000000
# 4 0.000000 0.000000 0.000000 0.054631 0.000000 -0.000236
# 5 0.001108 0.002165 -0.001294 0.000000 0.030619 0.000000
# 6 0.000000 0.000000 0.000000 -0.000236 0.000000 0.099315
#
#
# Mechanical properties :
#
#
# Convention : Reuss Voigt Hill
#
# Bulk Modulus (GPa) = 56.27510 61.70733 58.99122
# Shear Modulus (GPa) = 18.36587 24.46855 21.41721
#
# Velocity S-wave (km/s) = 2.83577 3.27318 3.06229
# Velocity P-wave (km/s) = 5.94664 6.42680 6.19138
#
# Compressibility (1/GPa) = 0.01776985
#
# Stress axis : x y z
#
# Youngs Moduli (GPa) = 55.06264 44.21344 111.31388
#
# Poissons Ratio (x) = 0.42754 -0.02419
# Poissons Ratio (y) = 0.53245 0.72841
# Poissons Ratio (z) = -0.01197 0.28932
#
# Static dielectric constant tensor:
#      x y z
#    x 1.985960 0.000000 0.069980 
#    y 0.000000 1.889390 0.000000 
#    z 0.069980 0.000000 2.257910 
# 
# From -- ./inp_files/130670.got.cif
#   From: 2010.05.17/outbox.cif.g08.bks.cpg/sg15_66_cif.got.tgz:130670.got - 2010.06.03 18:47:42.
