data_PCOD9301365
_publ_section_title
;
Structure prediction by ZEFSAII (Michael W. Deem and Ramdas Pophale) SiO2 
 PCOD9301365
Probable space group: C 2/C
;
_chemical_formula_sum "Si O2"
_cell_formula_units_Z 52
_cell_length_a 9.683843
_cell_length_b 11.075670
_cell_length_c 26.144266
_cell_angle_alpha 90.000000
_cell_angle_beta 82.657974
_cell_angle_gamma 90.000000
_cell_volume 2781.113618
_symmetry_space_group_name_H-M "C 2/C"
_symmetry_group_IT_number 15
_symmetry_cell_setting 'monoclinic'
loop_
_space_group_symop_operation_xyz
x,y,z
-x,y,1/2-z
-x,-y,-z
x,-y,1/2+z
1/2+x,1/2+y,z
1/2-x,1/2+y,1/2-z
1/2-x,1/2-y,-z
1/2+x,1/2-y,1/2+z
loop_
_atom_site_type_symbol
_atom_site_label
_atom_site_fract_x
_atom_site_fract_y
_atom_site_fract_z
Si Si1 0.357953 0.090210 0.971569
Si Si2 0.500000 0.935000 0.750000
Si Si3 0.844916 0.330212 0.662046
Si Si4 0.290252 0.632843 0.966310
Si Si5 0.426272 0.173455 0.802736
Si Si6 0.085955 0.213033 0.944534
Si Si7 0.110682 0.585167 0.884275
O O1 0.236622 0.152209 0.943963
O O2 0.483360 0.052201 0.928704
O O3 0.414564 0.185457 0.010830
O O4 0.283891 0.981968 0.004930
O O5 0.597592 0.033368 0.715002
O O6 0.425199 0.853339 0.711304
O O7 0.708984 0.248792 0.676821
O O8 0.927362 0.269071 0.611221
O O9 0.819943 0.466086 0.642831
O O10 0.456655 0.624046 0.958475
O O11 0.226412 0.648909 0.912985
O O12 0.250000 0.750000 0.000000
O O13 0.500000 0.231763 0.750000
O O14 0.536731 0.162034 0.843482
#
# Coordination Sequence:
#
# PCOD9301365 Si02
#       7
#     8   4   8   8   8   8   8
#     4  11  22  41  61  91 134 172 207 254 313 370
#     4   8  22  40  68  86 118 156 210 264 312 372
#     4  11  20  42  69  90 123 167 207 258 325 368
#     4  12  23  37  59  95 132 169 215 251 300 375
#     4   9  21  42  65  90 120 162 207 264 320 369
#     4  11  23  38  65  93 131 170 209 257 308 376
#     4  11  21  40  67  89 126 172 206 255 314 370
#
# _framework density 18.697545000000002
#
# number of rings (size 3 to 8) (size 9 to 14) (size 15 to 20)
#    0.462    0.923    4.615    1.846    0.000    1.231 
#    2.769    1.538    0.000    0.000    0.000    0.000 
#    0.000    0.000    0.000    0.000    0.000    0.000 
#
# Total GULP energy -144967.414858 kJ/mol
# GULP energy per Si atom -5575.669802 kJ/mol
# Density = 1.865499 g / cm^3
# Si number density = 18.697545 Si / 1000 Ang^3
#
#
#
# Elastic Constant Matrix: (Units=GPa)
#
#
# Indices 1 2 3 4 5 6 
#
# 1 98.8302 43.0835 51.8594 0.0000 10.2048 0.0000
# 2 43.0835 64.2209 38.3873 0.0000 15.0738 0.0000
# 3 51.8594 38.3873 122.4974 0.0000 26.3590 0.0000
# 4 0.0000 0.0000 0.0000 24.6155 0.0000 0.3219
# 5 10.2048 15.0738 26.3590 0.0000 34.2394 0.0000
# 6 0.0000 0.0000 0.0000 0.3219 0.0000 33.6430
#
#
#
# Elastic Compliance Matrix: (Units=1/GPa)
#
#
# Indices 1 2 3 4 5 6 
#
# 1 0.016035 -0.008581 -0.004655 0.000000 0.002582 0.000000
# 2 -0.008581 0.024368 -0.002691 0.000000 -0.006099 0.000000
# 3 -0.004655 -0.002691 0.012494 0.000000 -0.007046 0.000000
# 4 0.000000 0.000000 0.000000 0.040630 0.000000 -0.000389
# 5 0.002582 -0.006099 -0.007046 0.000000 0.036546 0.000000
# 6 0.000000 0.000000 0.000000 -0.000389 0.000000 0.029728
#
#
# Mechanical properties :
#
#
# Convention : Reuss Voigt Hill
#
# Bulk Modulus (GPa) = 47.52335 61.35652 54.43994
# Shear Modulus (GPa) = 25.16753 28.64747 26.90750
#
# Velocity S-wave (km/s) = 3.67281 3.91852 3.79765
# Velocity P-wave (km/s) = 6.59228 7.30476 6.95765
#
# Compressibility (1/GPa) = 0.02104229
#
# Stress axis : x y z
#
# Youngs Moduli (GPa) = 62.36291 41.03741 80.04043
#
# Poissons Ratio (x) = 0.35214 0.37260
# Poissons Ratio (y) = 0.53514 0.21540
# Poissons Ratio (z) = 0.29031 0.11044
#
# Static dielectric constant tensor:
#      x y z
#    x 1.651340 0.000000 0.004430 
#    y 0.000000 1.646740 0.000000 
#    z 0.004430 0.000000 1.676520 
# 
# From -- ./inp_files/287681.got.cif
#   From: 2010.05.17/outbox.cif.g08.bks.cpg/sg15_144_cif.got.tgz:287681.got - 2010.06.03 18:47:42.
