data_PCOD9301348
_publ_section_title
;
Structure prediction by ZEFSAII (Michael W. Deem and Ramdas Pophale) SiO2 
 PCOD9301348
Probable space group: C 2/C
;
_chemical_formula_sum "Si O2"
_cell_formula_units_Z 40
_cell_length_a 10.471488
_cell_length_b 9.442368
_cell_length_c 19.964390
_cell_angle_alpha 90.000000
_cell_angle_beta 59.145980
_cell_angle_gamma 90.000000
_cell_volume 1694.626148
_symmetry_space_group_name_H-M "C 2/C"
_symmetry_group_IT_number 15
_symmetry_cell_setting 'monoclinic'
loop_
_space_group_symop_operation_xyz
x,y,z
-x,y,1/2-z
-x,-y,-z
x,-y,1/2+z
1/2+x,1/2+y,z
1/2-x,1/2+y,1/2-z
1/2-x,1/2-y,-z
1/2+x,1/2-y,1/2+z
loop_
_atom_site_type_symbol
_atom_site_label
_atom_site_fract_x
_atom_site_fract_y
_atom_site_fract_z
Si Si1 0.565033 0.657016 0.997527
Si Si2 0.413567 0.558718 0.370447
Si Si3 0.729485 0.929823 0.705378
Si Si4 0.745636 0.232888 0.921078
Si Si5 0.745275 0.237621 0.682664
O O1 0.645399 0.700051 0.907986
O O2 0.500000 0.500000 0.000000
O O3 0.650597 0.627639 0.043609
O O4 0.431063 0.767213 0.047391
O O5 0.590961 0.555744 0.332701
O O6 0.339210 0.406438 0.379635
O O7 0.367529 0.657034 0.322329
O O8 0.698964 0.862130 0.640725
O O9 0.679851 0.820430 0.775864
O O10 0.675138 0.090217 0.726396
O O11 0.750000 0.250000 0.000000
#
# Coordination Sequence:
#
# PCOD9301348 Si02
#       5
#     8   8   8   8   8
#     4  11  21  43  70 102 135 171 230 285 327 408
#     4  11  23  43  69  96 134 177 223 277 341 402
#     4  11  25  44  64  98 139 172 228 284 333 410
#     4  11  20  41  73  96 131 180 221 275 341 399
#     4  12  23  44  69  95 140 182 219 286 349 391
#
# _framework density 23.604026999999999
#
# number of rings (size 3 to 8) (size 9 to 14) (size 15 to 20)
#    0.000    0.800    6.000    2.400    0.000    0.800 
#    0.000   19.000    0.000    0.000    0.000    0.000 
#    0.000    0.000    0.000    0.000    0.000    0.000 
#
# Total GULP energy -111820.506808 kJ/mol
# GULP energy per Si atom -5591.025340 kJ/mol
# Density = 2.355030 g / cm^3
# Si number density = 23.604027 Si / 1000 Ang^3
#
#
#
# Elastic Constant Matrix: (Units=GPa)
#
#
# Indices 1 2 3 4 5 6 
#
# 1 61.8420 47.9131 11.9817 0.0000 8.7241 0.0000
# 2 47.9131 167.4890 50.6546 0.0000 17.2753 0.0000
# 3 11.9817 50.6546 112.8891 0.0000 28.3004 0.0000
# 4 0.0000 0.0000 0.0000 36.9445 0.0000 19.0942
# 5 8.7241 17.2753 28.3004 0.0000 51.2518 0.0000
# 6 0.0000 0.0000 0.0000 19.0942 0.0000 33.8390
#
#
#
# Elastic Compliance Matrix: (Units=1/GPa)
#
#
# Indices 1 2 3 4 5 6 
#
# 1 0.020992 -0.006103 0.001033 0.000000 -0.002087 0.000000
# 2 -0.006103 0.008705 -0.003230 0.000000 -0.000112 0.000000
# 3 0.001033 -0.003230 0.011571 0.000000 -0.005476 0.000000
# 4 0.000000 0.000000 0.000000 0.038211 0.000000 -0.021561
# 5 -0.002087 -0.000112 -0.005476 0.000000 0.022928 0.000000
# 6 0.000000 0.000000 0.000000 -0.021561 0.000000 0.041718
#
#
# Mechanical properties :
#
#
# Convention : Reuss Voigt Hill
#
# Bulk Modulus (GPa) = 40.53611 62.59100 51.56355
# Shear Modulus (GPa) = 29.59498 39.85176 34.72337
#
# Velocity S-wave (km/s) = 3.54476 4.11341 3.83962
# Velocity P-wave (km/s) = 5.82790 7.00962 6.44590
#
# Compressibility (1/GPa) = 0.02466936
#
# Stress axis : x y z
#
# Youngs Moduli (GPa) = 47.63616 114.88026 86.42379
#
# Poissons Ratio (x) = 0.70106 -0.08931
# Poissons Ratio (y) = 0.29070 0.27917
# Poissons Ratio (z) = -0.04923 0.37109
#
# Static dielectric constant tensor:
#      x y z
#    x 1.979800 0.000000 -0.029920 
#    y 0.000000 1.893290 0.000000 
#    z -0.029920 0.000000 1.956290 
# 
# From -- ./inp_files/235705.got.cif
#   From: 2010.05.17/outbox.cif.g08.bks.cpg/sg15_118_cif.got.tgz:235705.got - 2010.06.03 18:47:42.
