data_PCOD9301687
_publ_section_title
;
Structure prediction by ZEFSAII (Michael W. Deem and Ramdas Pophale) SiO2 
 PCOD9301687
Probable space group: C 2/C
;
_chemical_formula_sum "Si O2"
_cell_formula_units_Z 52
_cell_length_a 11.284206
_cell_length_b 28.881386
_cell_length_c 11.938040
_cell_angle_alpha 90.000000
_cell_angle_beta 38.129795
_cell_angle_gamma 90.000000
_cell_volume 2402.261907
_symmetry_space_group_name_H-M "C 2/C"
_symmetry_group_IT_number 15
_symmetry_cell_setting 'monoclinic'
loop_
_space_group_symop_operation_xyz
x,y,z
-x,y,1/2-z
-x,-y,-z
x,-y,1/2+z
1/2+x,1/2+y,z
1/2-x,1/2+y,1/2-z
1/2-x,1/2-y,-z
1/2+x,1/2-y,1/2+z
loop_
_atom_site_type_symbol
_atom_site_label
_atom_site_fract_x
_atom_site_fract_y
_atom_site_fract_z
Si Si1 0.341810 0.180054 0.771977
Si Si2 0.249388 0.365370 0.763620
Si Si3 0.779534 0.476276 0.371762
Si Si4 0.231704 0.421322 0.569469
Si Si5 0.500000 0.422473 0.750000
Si Si6 0.458546 0.274914 0.649355
Si Si7 0.173784 0.406436 0.362343
O O1 0.500000 0.166577 0.750000
O O2 0.426179 0.222165 0.635259
O O3 0.268710 0.136275 0.758152
O O4 0.154033 0.203040 0.962026
O O5 0.299884 0.380928 0.600235
O O6 0.387029 0.389778 0.749574
O O7 0.288477 0.310843 0.748726
O O8 0.043413 0.388754 0.946300
O O9 0.708295 0.529341 0.423114
O O10 0.647099 0.451210 0.562777
O O11 0.793925 0.451129 0.240618
O O12 0.000000 0.475954 0.250000
O O13 0.274040 0.415049 0.406907
O O14 0.000000 0.421269 0.750000
O O15 0.500000 0.270264 0.750000
#
# Coordination Sequence:
#
# PCOD9301687 Si02
#       7
#     8   8   8   8   4   8   8
#     4  11  22  37  63  94 125 166 208 263 320 378
#     4  11  22  40  63  95 131 166 211 267 318 385
#     4  11  23  42  65  92 125 170 219 270 323 375
#     4   9  24  42  65  89 126 174 216 264 320 384
#     4  12  24  38  64  98 124 164 218 266 328 370
#     4  11  21  38  60  96 128 160 209 262 319 375
#     4  11  22  42  66  91 129 172 214 262 327 380
#
# _framework density 21.646267000000002
#
# number of rings (size 3 to 8) (size 9 to 14) (size 15 to 20)
#    0.000    1.231    2.308    5.077    2.154    2.462 
#    2.769    0.769    0.000    0.000    0.000    0.000 
#    0.000    0.000    0.000    0.000    0.000    0.000 
#
# Total GULP energy -145222.210656 kJ/mol
# GULP energy per Si atom -5585.469641 kJ/mol
# Density = 2.159700 g / cm^3
# Si number density = 21.646267 Si / 1000 Ang^3
#
#
#
# Elastic Constant Matrix: (Units=GPa)
#
#
# Indices 1 2 3 4 5 6 
#
# 1 73.3972 31.0652 26.8327 0.0000 14.1481 0.0000
# 2 31.0652 95.5412 0.6042 0.0000 10.2428 0.0000
# 3 26.8327 0.6042 83.3556 0.0000 -5.1137 0.0000
# 4 0.0000 0.0000 0.0000 29.5714 0.0000 30.0114
# 5 14.1481 10.2428 -5.1137 0.0000 36.7139 0.0000
# 6 0.0000 0.0000 0.0000 30.0114 0.0000 -16.2986
#
#
#
# Elastic Compliance Matrix: (Units=1/GPa)
#
#
# Indices 1 2 3 4 5 6 
#
# 1 0.019850 -0.005659 -0.006779 0.000000 -0.007015 0.000000
# 2 -0.005659 0.012409 0.001668 0.000000 -0.001049 0.000000
# 3 -0.006779 0.001668 0.014422 0.000000 0.004156 0.000000
# 4 0.000000 0.000000 0.000000 0.011788 0.000000 0.021706
# 5 -0.007015 -0.001049 0.004156 0.000000 0.030812 0.000000
# 6 0.000000 0.000000 0.000000 0.021706 0.000000 -0.021387
#
#
# Mechanical properties :
#
#
# Convention : Reuss Voigt Hill
#
# Bulk Modulus (GPa) = 39.77929 41.03314 40.40621
# Shear Modulus (GPa) = 51.11632 22.91679 37.01655
#
# Velocity S-wave (km/s) = 4.86474 3.25729 4.13978
# Velocity P-wave (km/s) = 7.06902 5.75708 6.44651
#
# Compressibility (1/GPa) = 0.02513871
#
# Stress axis : x y z
#
# Youngs Moduli (GPa) = 50.37667 80.58839 69.33864
#
# Poissons Ratio (x) = 0.45608 0.47007
# Poissons Ratio (y) = 0.28510 -0.11562
# Poissons Ratio (z) = 0.34152 -0.13438
#
# Static dielectric constant tensor:
#      x y z
#    x 1.759980 0.000000 -0.010190 
#    y 0.000000 1.823700 0.000000 
#    z -0.010190 0.000000 1.876240 
# 
# From -- ./inp_files/92566.got.cif
#   From: 2010.05.17/outbox.cif.g08.bks.cpg/sg15_47_cif.got.tgz:92566.got - 2010.06.03 18:47:42.
