data_PCOD9301344
_publ_section_title
;
Structure prediction by ZEFSAII (Michael W. Deem and Ramdas Pophale) SiO2 
 PCOD9301344
Probable space group: C 2/C
;
_chemical_formula_sum "Si O2"
_cell_formula_units_Z 48
_cell_length_a 25.324489
_cell_length_b 13.973891
_cell_length_c 12.143320
_cell_angle_alpha 90.000000
_cell_angle_beta 152.836514
_cell_angle_gamma 90.000000
_cell_volume 1961.849881
_symmetry_space_group_name_H-M "C 2/C"
_symmetry_group_IT_number 15
_symmetry_cell_setting 'monoclinic'
loop_
_space_group_symop_operation_xyz
x,y,z
-x,y,1/2-z
-x,-y,-z
x,-y,1/2+z
1/2+x,1/2+y,z
1/2-x,1/2+y,1/2-z
1/2-x,1/2-y,-z
1/2+x,1/2-y,1/2+z
loop_
_atom_site_type_symbol
_atom_site_label
_atom_site_fract_x
_atom_site_fract_y
_atom_site_fract_z
Si Si1 0.788010 0.994586 0.620681
Si Si2 0.919028 0.349246 0.499362
Si Si3 0.631933 0.935299 0.519417
Si Si4 0.071840 0.155084 0.546283
Si Si5 0.128790 0.343485 0.742023
Si Si6 0.175452 0.840841 0.993565
O O1 0.905509 0.046039 0.876264
O O2 0.704505 0.086550 0.456050
O O3 0.723460 0.928629 0.590679
O O4 0.800033 0.938744 0.528848
O O5 0.877480 0.452700 0.466127
O O6 0.999919 0.368412 0.544569
O O7 0.803132 0.295173 0.244845
O O8 0.000000 0.308623 0.750000
O O9 0.500000 0.905460 0.250000
O O10 0.662599 0.873513 0.681920
O O11 0.128040 0.228796 0.737746
O O12 0.130324 0.156122 0.534717
O O13 0.939853 0.191246 0.285839
#
# Coordination Sequence:
#
# PCOD9301344 Si02
#       6
#     8   8   8   8   8   8
#     4  12  21  44  70  94 130 187 228 263 326 417
#     4  11  20  41  71  97 128 168 225 270 332 404
#     4  11  21  37  67 101 125 166 226 274 330 399
#     4  11  26  43  63  97 139 176 221 275 340 391
#     4  12  23  40  68 101 133 168 219 296 333 375
#     4  11  24  45  65  92 135 179 218 270 331 415
#
# _framework density 24.466704
#
# number of rings (size 3 to 8) (size 9 to 14) (size 15 to 20)
#    0.000    0.667    6.667    2.500    2.333    0.667 
#    3.000    0.000    7.333    0.000    0.000    0.000 
#    0.000    0.000    0.000    0.000    0.000    0.000 
#
# Total GULP energy -133879.369892 kJ/mol
# GULP energy per Si atom -5578.307079 kJ/mol
# Density = 2.441102 g / cm^3
# Si number density = 24.466704 Si / 1000 Ang^3
#
#
#
# Elastic Constant Matrix: (Units=GPa)
#
#
# Indices 1 2 3 4 5 6 
#
# 1 94.4706 45.2469 45.2499 0.0000 17.1756 0.0000
# 2 45.2469 52.1324 11.0818 0.0000 7.6294 0.0000
# 3 45.2499 11.0818 111.7852 0.0000 14.6034 0.0000
# 4 0.0000 0.0000 0.0000 20.0078 0.0000 -4.2167
# 5 17.1756 7.6294 14.6034 0.0000 34.0131 0.0000
# 6 0.0000 0.0000 0.0000 -4.2167 0.0000 11.9341
#
#
#
# Elastic Compliance Matrix: (Units=1/GPa)
#
#
# Indices 1 2 3 4 5 6 
#
# 1 0.023629 -0.018295 -0.007128 0.000000 -0.004768 0.000000
# 2 -0.018295 0.034228 0.004035 0.000000 -0.000172 0.000000
# 3 -0.007128 0.004035 0.011738 0.000000 -0.002345 0.000000
# 4 0.000000 0.000000 0.000000 0.054002 0.000000 0.019081
# 5 -0.004768 -0.000172 -0.002345 0.000000 0.032853 0.000000
# 6 0.000000 0.000000 0.000000 0.019081 0.000000 0.090535
#
#
# Mechanical properties :
#
#
# Convention : Reuss Voigt Hill
#
# Bulk Modulus (GPa) = 37.28889 51.28283 44.28586
# Shear Modulus (GPa) = 16.73913 23.64497 20.19205
#
# Velocity S-wave (km/s) = 2.61848 3.11209 2.87590
# Velocity P-wave (km/s) = 4.94122 5.82402 5.40069
#
# Compressibility (1/GPa) = 0.02681764
#
# Stress axis : x y z
#
# Youngs Moduli (GPa) = 42.32093 29.21575 85.19654
#
# Poissons Ratio (x) = 0.53451 0.60731
# Poissons Ratio (y) = 0.77427 -0.34376
# Poissons Ratio (z) = 0.30168 -0.11788
#
# Static dielectric constant tensor:
#      x y z
#    x 1.885470 0.000000 0.037430 
#    y 0.000000 1.952970 0.000000 
#    z 0.037430 0.000000 2.102980 
# 
# From -- ./inp_files/123601.got.cif
#   From: 2010.05.17/outbox.cif.g08.bks.cpg/sg15_62_cif.got.tgz:123601.got - 2010.06.03 18:47:42.
