data_PCOD9301963
_publ_section_title
;
Structure prediction by ZEFSAII (Michael W. Deem and Ramdas Pophale) SiO2 
 PCOD9301963
Probable space group: C 2/C
;
_chemical_formula_sum "Si O2"
_cell_formula_units_Z 56
_cell_length_a 21.721714
_cell_length_b 8.019847
_cell_length_c 31.310993
_cell_angle_alpha 90.000000
_cell_angle_beta 152.385231
_cell_angle_gamma 90.000000
_cell_volume 2528.306183
_symmetry_space_group_name_H-M "C 2/C"
_symmetry_group_IT_number 15
_symmetry_cell_setting 'monoclinic'
loop_
_space_group_symop_operation_xyz
x,y,z
-x,y,1/2-z
-x,-y,-z
x,-y,1/2+z
1/2+x,1/2+y,z
1/2-x,1/2+y,1/2-z
1/2-x,1/2-y,-z
1/2+x,1/2-y,1/2+z
loop_
_atom_site_type_symbol
_atom_site_label
_atom_site_fract_x
_atom_site_fract_y
_atom_site_fract_z
Si Si1 0.111349 0.937171 0.910791
Si Si2 0.276527 0.286152 0.132229
Si Si3 0.083887 0.563950 0.892510
Si Si4 0.638883 0.785830 0.137169
Si Si5 0.984173 0.595871 0.067271
Si Si6 0.000000 0.026594 0.250000
Si Si7 0.500000 0.025886 0.250000
Si Si8 0.397485 0.427076 0.341700
O O1 0.090777 0.749788 0.915674
O O2 0.084535 0.913391 0.843452
O O3 0.261944 0.991168 0.013538
O O4 0.007713 0.053222 0.872035
O O5 0.196835 0.251278 0.126096
O O6 0.387840 0.425678 0.206680
O O7 0.365843 0.134284 0.170808
O O8 0.168218 0.355759 0.033257
O O9 0.000100 0.450386 0.873134
O O10 0.016298 0.566939 0.804700
O O11 0.605961 0.605719 0.136983
O O12 0.755302 0.879323 0.235004
O O13 0.524854 0.928491 0.066917
O O14 0.063545 0.765345 0.106148
#
# Coordination Sequence:
#
# PCOD9301963 Si02
#       8
#     8   8   8   8   8   4   4   8
#     4  11  23  43  71 107 141 185 235 293 357 415
#     4  11  25  43  67 100 138 182 237 292 344 425
#     4  11  24  43  71 107 145 179 237 296 350 427
#     4  12  25  46  67 102 138 183 237 283 347 423
#     4  12  25  45  71 102 142 185 233 292 354 414
#     4  11  21  40  70 102 136 182 242 282 354 416
#     4  11  25  44  68 106 138 186 240 286 362 414
#     4  12  25  42  72  99 135 188 232 284 354 419
#
# _framework density 22.149217
#
# number of rings (size 3 to 8) (size 9 to 14) (size 15 to 20)
#    0.000    0.571    5.714    2.571    2.000    1.714 
#    0.000    0.000    0.000    0.000    0.000    0.000 
#    0.000    0.000    0.000    0.000    0.000    0.000 
#
# Total GULP energy -156216.326349 kJ/mol
# GULP energy per Si atom -5579.154512 kJ/mol
# Density = 2.209880 g / cm^3
# Si number density = 22.149217 Si / 1000 Ang^3
#
#
#
# Elastic Constant Matrix: (Units=GPa)
#
#
# Indices 1 2 3 4 5 6 
#
# 1 81.9821 22.6708 -12.3659 -0.0004 -6.7768 0.0000
# 2 22.6708 92.5375 -11.0813 -0.0003 7.0860 0.0011
# 3 -12.3659 -11.0813 59.7574 0.0018 -2.7613 0.0008
# 4 -0.0004 -0.0003 0.0018 21.8897 -0.0003 1.6283
# 5 -6.7768 7.0860 -2.7613 -0.0003 26.5526 -0.0001
# 6 0.0000 0.0011 0.0008 1.6283 -0.0001 27.1820
#
#
#
# Elastic Compliance Matrix: (Units=1/GPa)
#
#
# Indices 1 2 3 4 5 6 
#
# 1 0.013922 -0.003479 0.002455 0.000000 0.004737 0.000000
# 2 -0.003479 0.012125 0.001344 0.000000 -0.003984 -0.000001
# 3 0.002455 0.001344 0.017588 -0.000001 0.002097 0.000000
# 4 0.000000 0.000000 -0.000001 0.045888 0.000000 -0.002749
# 5 0.004737 -0.003984 0.002097 0.000000 0.040151 0.000000
# 6 0.000000 -0.000001 0.000000 -0.002749 0.000000 0.036954
#
#
# Mechanical properties :
#
#
# Convention : Reuss Voigt Hill
#
# Bulk Modulus (GPa) = 22.58666 25.85822 24.22244
# Shear Modulus (GPa) = 27.66290 30.79509 29.22900
#
# Velocity S-wave (km/s) = 3.53786 3.73278 3.63663
# Velocity P-wave (km/s) = 5.18731 5.50255 5.34726
#
# Compressibility (1/GPa) = 0.04427392
#
# Stress axis : x y z
#
# Youngs Moduli (GPa) = 71.82986 82.47481 56.85548
#
# Poissons Ratio (x) = 0.28697 -0.13956
# Poissons Ratio (y) = 0.24993 -0.07643
# Poissons Ratio (z) = -0.17631 -0.11087
#
# Static dielectric constant tensor:
#      x y z
#    x 1.713540 0.000000 0.000570 
#    y 0.000000 1.851460 0.000000 
#    z 0.000570 0.000000 1.829000 
# 
# From -- ./inp_files/317600.got.cif
#   From: 2010.05.17/outbox.cif.g08.bks.cpg/sg15_159_cif.got.tgz:317600.got - 2010.06.03 18:47:42.
