data_PCOD9301221
_publ_section_title
;
Structure prediction by ZEFSAII (Michael W. Deem and Ramdas Pophale) SiO2 
 PCOD9301221
Probable space group: C 2/C
;
_chemical_formula_sum "Si O2"
_cell_formula_units_Z 56
_cell_length_a 8.875475
_cell_length_b 18.002446
_cell_length_c 24.098834
_cell_angle_alpha 90.000000
_cell_angle_beta 47.204911
_cell_angle_gamma 90.000000
_cell_volume 2825.464245
_symmetry_space_group_name_H-M "C 2/C"
_symmetry_group_IT_number 15
_symmetry_cell_setting 'monoclinic'
loop_
_space_group_symop_operation_xyz
x,y,z
-x,y,1/2-z
-x,-y,-z
x,-y,1/2+z
1/2+x,1/2+y,z
1/2-x,1/2+y,1/2-z
1/2-x,1/2-y,-z
1/2+x,1/2-y,1/2+z
loop_
_atom_site_type_symbol
_atom_site_label
_atom_site_fract_x
_atom_site_fract_y
_atom_site_fract_z
Si Si1 0.130020 0.706193 0.606643
Si Si2 0.440052 0.506329 0.079155
Si Si3 0.735521 0.390972 0.198059
Si Si4 0.977844 0.824294 0.569066
Si Si5 0.221049 0.789352 0.065947
Si Si6 0.221038 0.868082 0.328205
Si Si7 0.808933 0.451859 0.065257
O O1 0.338035 0.679442 0.523180
O O2 0.152389 0.690508 0.666259
O O3 0.929230 0.661540 0.637444
O O4 0.081987 0.789049 0.597687
O O5 0.396856 0.592959 0.098773
O O6 0.279648 0.441274 0.132579
O O7 0.622744 0.482237 0.074710
O O8 0.500000 0.500000 0.000000
O O9 0.500000 0.362099 0.250000
O O10 0.763256 0.402053 0.256918
O O11 0.755384 0.452491 0.144427
O O12 0.797506 0.771340 0.590931
O O13 0.348726 0.865706 0.039260
O O14 0.991997 0.822712 0.126885
O O15 0.250000 0.750000 0.000000
O O16 0.000000 0.500000 0.000000
#
# Coordination Sequence:
#
# PCOD9301221 Si02
#       7
#     8   8   8   8   8   8   8
#     4  11  22  37  65  96 126 166 218 275 319 399
#     4  11  21  37  61  97 132 166 216 277 322 390
#     4  12  22  44  66  92 128 181 226 264 340 415
#     4  11  21  37  64  99 133 159 216 274 336 379
#     4  11  20  39  64  96 127 169 209 268 329 400
#     4  11  23  40  68  92 128 178 227 262 331 408
#     4  11  24  40  67  94 124 172 224 273 327 397
#
# _framework density 19.819752000000001
#
# number of rings (size 3 to 8) (size 9 to 14) (size 15 to 20)
#    0.000    0.857    7.143    2.143    2.000    0.000 
#    0.000    0.000    9.429    1.714    0.000    0.000 
#    0.000    0.000    0.000    0.000    0.000    0.000 
#
# Total GULP energy -155878.542578 kJ/mol
# GULP energy per Si atom -5567.090806 kJ/mol
# Density = 1.977464 g / cm^3
# Si number density = 19.819752 Si / 1000 Ang^3
#
#
#
# Elastic Constant Matrix: (Units=GPa)
#
#
# Indices 1 2 3 4 5 6 
#
# 1 99.6803 46.0220 49.5998 0.0001 23.2682 0.0002
# 2 46.0220 140.1043 25.7427 0.0005 16.8283 0.0004
# 3 49.5998 25.7427 83.8616 0.0011 29.6391 -0.0005
# 4 0.0001 0.0005 0.0011 10.4590 -0.0003 -0.4188
# 5 23.2682 16.8283 29.6391 -0.0003 59.6532 -0.0001
# 6 0.0002 0.0004 -0.0005 -0.4188 -0.0001 31.9343
#
#
#
# Elastic Compliance Matrix: (Units=1/GPa)
#
#
# Indices 1 2 3 4 5 6 
#
# 1 0.015910 -0.003631 -0.007841 0.000001 -0.001286 0.000000
# 2 -0.003631 0.008463 -0.000130 0.000000 -0.000907 0.000000
# 3 -0.007841 -0.000130 0.018811 -0.000002 -0.006251 0.000000
# 4 0.000001 0.000000 -0.000002 0.095662 0.000001 0.001255
# 5 -0.001286 -0.000907 -0.006251 0.000001 0.020627 0.000000
# 6 0.000000 0.000000 0.000000 0.001255 0.000000 0.031331
#
#
# Mechanical properties :
#
#
# Convention : Reuss Voigt Hill
#
# Bulk Modulus (GPa) = 50.04866 62.93056 56.48961
# Shear Modulus (GPa) = 22.65843 33.89473 28.27658
#
# Velocity S-wave (km/s) = 3.38483 4.13988 3.78125
# Velocity P-wave (km/s) = 6.37046 7.39404 6.90126
#
# Compressibility (1/GPa) = 0.01998056
#
# Stress axis : x y z
#
# Youngs Moduli (GPa) = 62.85230 118.16065 53.15951
#
# Poissons Ratio (x) = 0.42906 0.41683
# Poissons Ratio (y) = 0.22822 0.00690
# Poissons Ratio (z) = 0.49283 0.01534
#
# Static dielectric constant tensor:
#      x y z
#    x 1.782340 0.000000 -0.025890 
#    y 0.000000 1.710130 0.000000 
#    z -0.025890 0.000000 1.774220 
# 
# From -- ./inp_files/265472.got.cif
#   From: 2010.05.17/outbox.cif.g08.bks.cpg/sg15_133_cif.got.tgz:265472.got - 2010.06.03 18:47:42.
