data_PCOD9301413
_publ_section_title
;
Structure prediction by ZEFSAII (Michael W. Deem and Ramdas Pophale) SiO2 
 PCOD9301413
Probable space group: C 2/C
;
_chemical_formula_sum "Si O2"
_cell_formula_units_Z 40
_cell_length_a 12.145593
_cell_length_b 24.322930
_cell_length_c 5.064703
_cell_angle_alpha 90.000000
_cell_angle_beta 73.116875
_cell_angle_gamma 90.000000
_cell_volume 1431.709051
_symmetry_space_group_name_H-M "C 2/C"
_symmetry_group_IT_number 15
_symmetry_cell_setting 'monoclinic'
loop_
_space_group_symop_operation_xyz
x,y,z
-x,y,1/2-z
-x,-y,-z
x,-y,1/2+z
1/2+x,1/2+y,z
1/2-x,1/2+y,1/2-z
1/2-x,1/2-y,-z
1/2+x,1/2-y,1/2+z
loop_
_atom_site_type_symbol
_atom_site_label
_atom_site_fract_x
_atom_site_fract_y
_atom_site_fract_z
Si Si1 0.500000 0.790052 0.250000
Si Si2 0.836037 0.362667 0.028754
Si Si3 0.500000 0.616235 0.250000
Si Si4 0.500000 0.956746 0.750000
Si Si5 0.000000 0.056419 0.750000
Si Si6 0.237577 0.966081 0.328366
Si Si7 0.119533 0.202535 0.830177
O O1 0.562579 0.826384 0.423532
O O2 0.397456 0.756121 0.471075
O O3 0.729610 0.317605 0.079569
O O4 0.895589 0.410107 0.802618
O O5 0.786941 0.405980 0.275104
O O6 0.561581 0.588560 0.464904
O O7 0.404366 0.653780 0.447959
O O8 0.500000 0.000000 0.500000
O O9 0.900311 0.033812 0.628972
O O10 0.271480 0.995769 0.565005
O O11 0.000000 0.204832 0.750000
#
# Coordination Sequence:
#
# PCOD9301413 Si02
#       7
#     4   8   4   4   4   8   8
#     4  11  29  52  81 132 172 235 299 358 445 536
#     4  12  27  54  87 120 175 230 287 364 440 510
#     4  11  20  43  73 118 162 219 262 343 443 506
#     4  12  29  60  86 126 172 230 297 346 426 532
#     4  12  22  43  72 116 172 208 270 351 442 516
#     4  12  26  45  75 119 160 215 278 346 426 516
#     4  11  25  52  84 128 172 221 295 370 440 527
#
# _framework density 27.938635000000001
#
# number of rings (size 3 to 8) (size 9 to 14) (size 15 to 20)
#    0.000    0.400    3.000    4.200    1.400    2.400 
#   14.400    0.000    0.000    0.000    0.000    0.000 
#    0.000    0.000    0.000    0.000    0.000    0.000 
#
# Total GULP energy -111432.329929 kJ/mol
# GULP energy per Si atom -5571.616496 kJ/mol
# Density = 2.787505 g / cm^3
# Si number density = 27.938635 Si / 1000 Ang^3
#
#
#
# Elastic Constant Matrix: (Units=GPa)
#
#
# Indices 1 2 3 4 5 6 
#
# 1 132.2783 34.7164 24.4622 0.0000 -14.6785 0.0000
# 2 34.7164 145.2759 32.9198 0.0000 -13.5634 0.0000
# 3 24.4622 32.9198 135.7149 0.0000 6.3408 0.0000
# 4 0.0000 0.0000 0.0000 -354.7993 0.0000 162.3346
# 5 -14.6785 -13.5634 6.3408 0.0000 29.5627 0.0000
# 6 0.0000 0.0000 0.0000 162.3346 0.0000 -25.5800
#
#
#
# Elastic Compliance Matrix: (Units=1/GPa)
#
#
# Indices 1 2 3 4 5 6 
#
# 1 0.008618 -0.001372 -0.001405 0.000000 0.003951 0.000000
# 2 -0.001372 0.007941 -0.001836 0.000000 0.003356 0.000000
# 3 -0.001405 -0.001836 0.008221 0.000000 -0.003303 0.000000
# 4 0.000000 0.000000 0.000000 0.001481 0.000000 0.009396
# 5 0.003951 0.003356 -0.003303 0.000000 0.038036 0.000000
# 6 0.000000 0.000000 0.000000 0.009396 0.000000 0.020536
#
#
# Mechanical properties :
#
#
# Convention : Reuss Voigt Hill
#
# Bulk Modulus (GPa) = 64.29116 66.38507 65.33811
# Shear Modulus (GPa) = 50.38105 -48.75195 0.81455
#
# Velocity S-wave (km/s) = 4.25111 -4.18181 0.54054
# Velocity P-wave (km/s) = 6.86712 0.70420 4.88125
#
# Compressibility (1/GPa) = 0.01555424
#
# Stress axis : x y z
#
# Youngs Moduli (GPa) = 116.03301 125.93523 121.63622
#
# Poissons Ratio (x) = 0.17281 0.17092
# Poissons Ratio (y) = 0.15922 0.22327
# Poissons Ratio (z) = 0.16304 0.23116
#
# Static dielectric constant tensor:
#      x y z
#    x 2.615680 0.000000 -0.114520 
#    y 0.000000 2.331240 0.000000 
#    z -0.114520 0.000000 2.392580 
# 
# From -- ./inp_files/7330.got.cif
#   From: 2010.05.17/outbox.cif.g08.bks.cpg/sg15_4_cif.got.tgz:7330.got - 2010.06.03 18:47:42.
