data_PCOD9301761
_publ_section_title
;
Structure prediction by ZEFSAII (Michael W. Deem and Ramdas Pophale) SiO2 
 PCOD9301761
Probable space group: C 2/C
;
_chemical_formula_sum "Si O2"
_cell_formula_units_Z 32
_cell_length_a 10.411916
_cell_length_b 21.199826
_cell_length_c 7.430848
_cell_angle_alpha 90.000000
_cell_angle_beta 50.823715
_cell_angle_gamma 90.000000
_cell_volume 1271.506158
_symmetry_space_group_name_H-M "C 2/C"
_symmetry_group_IT_number 15
_symmetry_cell_setting 'monoclinic'
loop_
_space_group_symop_operation_xyz
x,y,z
-x,y,1/2-z
-x,-y,-z
x,-y,1/2+z
1/2+x,1/2+y,z
1/2-x,1/2+y,1/2-z
1/2-x,1/2-y,-z
1/2+x,1/2-y,1/2+z
loop_
_atom_site_type_symbol
_atom_site_label
_atom_site_fract_x
_atom_site_fract_y
_atom_site_fract_z
Si Si1 0.746742 0.814089 0.696505
Si Si2 0.856781 0.317971 0.116692
Si Si3 0.838665 0.544826 0.640626
Si Si4 0.353943 0.438986 0.522593
O O1 0.816923 0.751372 0.727029
O O2 0.755358 0.813974 0.467890
O O3 0.842971 0.878253 0.659631
O O4 0.552134 0.818371 0.904818
O O5 0.833773 0.385621 0.234712
O O6 0.681628 0.503980 0.844823
O O7 0.809597 0.561657 0.459106
O O8 0.000000 0.500000 0.500000
O O9 0.500000 0.433436 0.250000
#
# Coordination Sequence:
#
# PCOD9301761 Si02
#       4
#     8   8   8   8
#     4   9  18  31  52  83 114 144 191 241 289 334
#     4   9  18  31  53  82 113 148 187 243 289 335
#     4  11  21  39  59  86 119 159 198 236 296 353
#     4  11  23  37  58  90 120 153 195 245 294 346
#
# _framework density 25.167003000000001
#
# number of rings (size 3 to 8) (size 9 to 14) (size 15 to 20)
#    0.000    2.000    2.500    1.500   10.500    0.000 
#    0.000    0.000    0.000    1.500    0.000    0.000 
#    0.000    0.000    0.000    0.000    0.000    0.000 
#
# Total GULP energy -89147.523181 kJ/mol
# GULP energy per Si atom -5571.720199 kJ/mol
# Density = 2.510972 g / cm^3
# Si number density = 25.167003 Si / 1000 Ang^3
#
#
#
# Elastic Constant Matrix: (Units=GPa)
#
#
# Indices 1 2 3 4 5 6 
#
# 1 36.2926 20.6401 6.9178 0.0000 -13.8266 0.0000
# 2 20.6401 308.5135 73.4694 0.0000 -30.7601 0.0000
# 3 6.9178 73.4694 90.7257 0.0000 -35.2148 0.0000
# 4 0.0000 0.0000 0.0000 31.2781 0.0000 -10.1656
# 5 -13.8266 -30.7601 -35.2148 0.0000 31.6162 0.0000
# 6 0.0000 0.0000 0.0000 -10.1656 0.0000 23.9569
#
#
#
# Elastic Compliance Matrix: (Units=1/GPa)
#
#
# Indices 1 2 3 4 5 6 
#
# 1 0.035587 -0.001952 0.007348 0.000000 0.021848 0.000000
# 2 -0.001952 0.004127 -0.003464 0.000000 -0.000696 0.000000
# 3 0.007348 -0.003464 0.023263 0.000000 0.025755 0.000000
# 4 0.000000 0.000000 0.000000 0.037086 0.000000 0.015737
# 5 0.021848 -0.000696 0.025755 0.000000 0.069193 0.000000
# 6 0.000000 0.000000 0.000000 0.015737 0.000000 0.048419
#
#
# Mechanical properties :
#
#
# Convention : Reuss Voigt Hill
#
# Bulk Modulus (GPa) = 14.96086 70.84294 42.90190
# Shear Modulus (GPa) = 21.17810 39.67054 30.42432
#
# Velocity S-wave (km/s) = 2.90401 3.97456 3.48069
# Velocity P-wave (km/s) = 4.14752 7.01948 5.76520
#
# Compressibility (1/GPa) = 0.06684107
#
# Stress axis : x y z
#
# Youngs Moduli (GPa) = 28.10013 242.28336 42.98586
#
# Poissons Ratio (x) = 0.47300 -0.31584
# Poissons Ratio (y) = 0.05486 0.14889
# Poissons Ratio (z) = -0.20647 0.83919
#
# Static dielectric constant tensor:
#      x y z
#    x 2.191560 0.000000 0.125160 
#    y 0.000000 2.358410 0.000000 
#    z 0.125160 0.000000 2.019560 
# 
# From -- ./inp_files/28875.got.cif
#   From: 2010.05.17/outbox.cif.g08.bks.cpg/sg15_15_cif.got.tgz:28875.got - 2010.06.03 18:47:42.
