data_PCOD9301179
_publ_section_title
;
Structure prediction by ZEFSAII (Michael W. Deem and Ramdas Pophale) SiO2 
 PCOD9301179
Probable space group: C 2/C
;
_chemical_formula_sum "Si O2"
_cell_formula_units_Z 64
_cell_length_a 21.142476
_cell_length_b 8.491072
_cell_length_c 30.043225
_cell_angle_alpha 90.000000
_cell_angle_beta 34.784548
_cell_angle_gamma 90.000000
_cell_volume 3076.908271
_symmetry_space_group_name_H-M "C 2/C"
_symmetry_group_IT_number 15
_symmetry_cell_setting 'monoclinic'
loop_
_space_group_symop_operation_xyz
x,y,z
-x,y,1/2-z
-x,-y,-z
x,-y,1/2+z
1/2+x,1/2+y,z
1/2-x,1/2+y,1/2-z
1/2-x,1/2-y,-z
1/2+x,1/2-y,1/2+z
loop_
_atom_site_type_symbol
_atom_site_label
_atom_site_fract_x
_atom_site_fract_y
_atom_site_fract_z
Si Si1 0.881945 0.705907 0.709029
Si Si2 0.802290 0.036781 0.092090
Si Si3 0.047900 0.850381 0.076217
Si Si4 0.330932 0.478672 0.916018
Si Si5 0.623939 0.775232 0.185226
Si Si6 0.380692 0.215470 0.336790
Si Si7 0.404125 0.989367 0.910741
Si Si8 0.334047 0.501328 0.172680
O O1 0.873630 0.774842 0.764158
O O2 0.789278 0.569791 0.756010
O O3 0.856573 0.841914 0.688117
O O4 0.000216 0.617732 0.638013
O O5 0.697325 0.154454 0.157226
O O6 0.861576 0.027412 0.104843
O O7 0.736267 0.878255 0.117283
O O8 0.880615 0.097319 0.007742
O O9 0.083556 0.971026 0.094885
O O10 0.072862 0.671261 0.075234
O O11 0.918791 0.871692 0.141970
O O12 0.368872 0.352924 0.857873
O O13 0.319509 0.641411 0.895649
O O14 0.213658 0.440918 0.006303
O O15 0.500000 0.848303 0.250000
O O16 0.500000 0.263901 0.250000
O O17 0.394008 0.079924 0.366542
#
# Coordination Sequence:
#
# PCOD9301179 Si02
#       8
#     8   8   8   8   8   8   8   8
#     4  11  25  45  66  93 131 176 224 275 321 395
#     4  11  22  40  62  91 131 170 213 268 321 392
#     4  11  22  42  65  96 132 166 217 269 324 403
#     4  11  23  40  67  99 132 165 214 272 335 385
#     4  11  24  40  63  99 131 166 215 275 336 388
#     4  11  20  38  67  97 129 169 212 265 325 389
#     4  11  22  44  68  96 130 169 216 275 335 384
#     4  11  25  42  64  91 128 179 221 261 329 386
#
# _framework density 20.800097999999998
#
# number of rings (size 3 to 8) (size 9 to 14) (size 15 to 20)
#    0.000    1.000    2.500    5.625    1.750    3.500 
#    0.000    0.625    0.000    0.000    0.000    0.000 
#    0.000    0.000    0.000    0.000    0.000    0.000 
#
# Total GULP energy -178777.045886 kJ/mol
# GULP energy per Si atom -5586.782684 kJ/mol
# Density = 2.075276 g / cm^3
# Si number density = 20.800098 Si / 1000 Ang^3
#
#
#
# Elastic Constant Matrix: (Units=GPa)
#
#
# Indices 1 2 3 4 5 6 
#
# 1 110.8663 31.7165 26.2802 0.0054 7.5876 -0.0036
# 2 31.7165 49.8247 29.6071 0.0206 19.5299 0.0148
# 3 26.2802 29.6071 82.3214 -0.0017 -6.1161 0.0001
# 4 0.0054 0.0206 -0.0017 30.1887 -0.0054 1.1088
# 5 7.5876 19.5299 -6.1161 -0.0054 34.7652 -0.0018
# 6 -0.0036 0.0148 0.0001 1.1088 -0.0018 36.8683
#
#
#
# Elastic Compliance Matrix: (Units=1/GPa)
#
#
# Indices 1 2 3 4 5 6 
#
# 1 0.011177 -0.007135 -0.000897 0.000003 0.001411 0.000004
# 2 -0.007135 0.043902 -0.015430 -0.000033 -0.025820 -0.000019
# 3 -0.000897 -0.015430 0.018889 0.000014 0.012187 0.000006
# 4 0.000003 -0.000033 0.000014 0.033162 0.000026 -0.000997
# 5 0.001411 -0.025820 0.012187 0.000026 0.045105 0.000012
# 6 0.000004 -0.000019 0.000006 -0.000997 0.000012 0.027154
#
#
# Mechanical properties :
#
#
# Convention : Reuss Voigt Hill
#
# Bulk Modulus (GPa) = 36.97733 46.46888 41.72311
# Shear Modulus (GPa) = 21.24708 30.72499 25.98604
#
# Velocity S-wave (km/s) = 3.19954 3.84755 3.53841
# Velocity P-wave (km/s) = 5.60941 6.49056 6.06601
#
# Compressibility (1/GPa) = 0.02704360
#
# Stress axis : x y z
#
# Youngs Moduli (GPa) = 89.46852 22.77824 52.94131
#
# Poissons Ratio (x) = 0.16251 0.04751
# Poissons Ratio (y) = 0.63833 0.81688
# Poissons Ratio (z) = 0.08029 0.35147
#
# Static dielectric constant tensor:
#      x y z
#    x 1.720560 0.000000 0.003400 
#    y 0.000000 1.762960 0.000000 
#    z 0.003400 0.000000 1.745280 
# 
# From -- ./inp_files/315681.got.cif
#   From: 2010.05.17/outbox.cif.g08.bks.cpg/sg15_158_cif.got.tgz:315681.got - 2010.06.03 18:47:42.
