data_PCOD9301694
_publ_section_title
;
Structure prediction by ZEFSAII (Michael W. Deem and Ramdas Pophale) SiO2 
 PCOD9301694
Probable space group: C 2/C
;
_chemical_formula_sum "Si O2"
_cell_formula_units_Z 48
_cell_length_a 7.052365
_cell_length_b 19.040076
_cell_length_c 14.708072
_cell_angle_alpha 90.000000
_cell_angle_beta 70.706774
_cell_angle_gamma 90.000000
_cell_volume 1864.050160
_symmetry_space_group_name_H-M "C 2/C"
_symmetry_group_IT_number 15
_symmetry_cell_setting 'monoclinic'
loop_
_space_group_symop_operation_xyz
x,y,z
-x,y,1/2-z
-x,-y,-z
x,-y,1/2+z
1/2+x,1/2+y,z
1/2-x,1/2+y,1/2-z
1/2-x,1/2-y,-z
1/2+x,1/2-y,1/2+z
loop_
_atom_site_type_symbol
_atom_site_label
_atom_site_fract_x
_atom_site_fract_y
_atom_site_fract_z
Si Si1 0.187124 0.695517 0.933257
Si Si2 0.260419 0.179820 0.057299
Si Si3 0.744787 0.037995 0.216328
Si Si4 0.273088 0.051708 0.612363
Si Si5 0.268417 0.950172 0.446016
Si Si6 0.240618 0.696490 0.229582
O O1 0.322094 0.628900 0.883099
O O2 0.158853 0.742955 0.847453
O O3 0.250000 0.750000 0.000000
O O4 0.997035 0.661133 0.015112
O O5 0.216493 0.195328 0.169243
O O6 0.250000 0.250000 0.000000
O O7 0.169874 0.115902 0.012462
O O8 0.500000 0.041233 0.250000
O O9 0.797892 0.007655 0.306446
O O10 0.824461 0.982633 0.129835
O O11 0.804693 0.118195 0.189710
O O12 0.499437 0.068027 0.614540
O O13 0.281978 0.014123 0.514340
O O14 0.000000 0.704557 0.250000
#
# Coordination Sequence:
#
# PCOD9301694 Si02
#       6
#     8   8   8   8   8   8
#     4  11  22  37  61  89 117 155 200 243 290 354
#     4  11  24  39  58  89 126 157 192 244 303 350
#     4   9  17  30  54  83 111 146 191 248 293 334
#     4   9  17  30  53  83 108 141 192 245 286 335
#     4   9  17  32  53  81 114 142 189 248 293 332
#     4  11  21  38  62  88 119 158 199 242 296 354
#
# _framework density 25.750378000000001
#
# number of rings (size 3 to 8) (size 9 to 14) (size 15 to 20)
#    0.000    2.000    3.333    1.000    7.000    0.667 
#    0.000    0.000    0.000    6.000    0.000    0.000 
#    0.000    0.000    0.000    0.000    0.000    0.000 
#
# Total GULP energy -134103.698138 kJ/mol
# GULP energy per Si atom -5587.654089 kJ/mol
# Density = 2.569177 g / cm^3
# Si number density = 25.750378 Si / 1000 Ang^3
#
#
#
# Elastic Constant Matrix: (Units=GPa)
#
#
# Indices 1 2 3 4 5 6 
#
# 1 46.7655 -16.2652 -0.9508 0.0000 -14.4748 0.0000
# 2 -16.2652 185.9133 49.5847 0.0000 14.1689 0.0000
# 3 -0.9508 49.5847 140.1027 0.0000 9.8512 0.0000
# 4 0.0000 0.0000 0.0000 47.8672 0.0000 11.4944
# 5 -14.4748 14.1689 9.8512 0.0000 41.6192 0.0000
# 6 0.0000 0.0000 0.0000 11.4944 0.0000 24.8623
#
#
#
# Elastic Compliance Matrix: (Units=1/GPa)
#
#
# Indices 1 2 3 4 5 6 
#
# 1 0.024514 0.001802 -0.001045 0.000000 0.008160 0.000000
# 2 0.001802 0.006172 -0.002103 0.000000 -0.000977 0.000000
# 3 -0.001045 -0.002103 0.007983 0.000000 -0.001537 0.000000
# 4 0.000000 0.000000 0.000000 0.023500 0.000000 -0.010865
# 5 0.008160 -0.000977 -0.001537 0.000000 0.027562 0.000000
# 6 0.000000 0.000000 0.000000 -0.010865 0.000000 0.045245
#
#
# Mechanical properties :
#
#
# Convention : Reuss Voigt Hill
#
# Bulk Modulus (GPa) = 27.79674 48.61318 38.20496
# Shear Modulus (GPa) = 33.40882 45.56390 39.48636
#
# Velocity S-wave (km/s) = 3.60587 4.21104 3.92015
# Velocity P-wave (km/s) = 5.30608 6.52407 5.94634
#
# Compressibility (1/GPa) = 0.03597544
#
# Stress axis : x y z
#
# Youngs Moduli (GPa) = 40.79258 162.02437 125.26554
#
# Poissons Ratio (x) = -0.29189 0.13090
# Poissons Ratio (y) = -0.07349 0.26349
# Poissons Ratio (z) = 0.04263 0.34081
#
# Static dielectric constant tensor:
#      x y z
#    x 2.296610 0.000000 -0.132950 
#    y 0.000000 2.060310 0.000000 
#    z -0.132950 0.000000 2.036320 
# 
# From -- ./inp_files/145000.got.cif
#   From: 2010.05.17/outbox.cif.g08.bks.cpg/sg15_73_cif.got.tgz:145000.got - 2010.06.03 18:47:42.
