data_PCOD9301125
_publ_section_title
;
Structure prediction by ZEFSAII (Michael W. Deem and Ramdas Pophale) SiO2 
 PCOD9301125
Probable space group: C 2/C
;
_chemical_formula_sum "Si O2"
_cell_formula_units_Z 40
_cell_length_a 18.192124
_cell_length_b 10.322684
_cell_length_c 12.420005
_cell_angle_alpha 90.000000
_cell_angle_beta 129.740054
_cell_angle_gamma 90.000000
_cell_volume 1793.483996
_symmetry_space_group_name_H-M "C 2/C"
_symmetry_group_IT_number 15
_symmetry_cell_setting 'monoclinic'
loop_
_space_group_symop_operation_xyz
x,y,z
-x,y,1/2-z
-x,-y,-z
x,-y,1/2+z
1/2+x,1/2+y,z
1/2-x,1/2+y,1/2-z
1/2-x,1/2-y,-z
1/2+x,1/2-y,1/2+z
loop_
_atom_site_type_symbol
_atom_site_label
_atom_site_fract_x
_atom_site_fract_y
_atom_site_fract_z
Si Si1 0.435849 0.393908 0.352948
Si Si2 0.695220 0.182560 0.350411
Si Si3 0.068609 0.094314 0.409293
Si Si4 0.292030 0.353700 0.710440
Si Si5 0.203752 0.601933 0.916726
O O1 0.393232 0.274808 0.252484
O O2 0.533262 0.447158 0.395027
O O3 0.449074 0.351087 0.488664
O O4 0.361365 0.518682 0.277718
O O5 0.750000 0.250000 0.500000
O O6 0.757006 0.177181 0.297618
O O7 0.665549 0.036336 0.348214
O O8 0.180617 0.096265 0.492659
O O9 0.000000 0.144949 0.250000
O O10 0.202502 0.381700 0.545069
O O11 0.331042 0.220952 0.690225
#
# Coordination Sequence:
#
# PCOD9301125 Si02
#       5
#     8   8   8   8   8
#     4  11  23  36  63  90 124 158 208 254 304 366
#     4  12  21  38  59  92 124 161 201 258 301 366
#     4  11  20  38  57  92 118 162 202 252 300 367
#     4  11  21  39  58  96 117 162 204 257 307 366
#     4  11  23  37  66  90 125 156 210 257 310 361
#
# _framework density 22.302959000000001
#
# number of rings (size 3 to 8) (size 9 to 14) (size 15 to 20)
#    0.000    0.800    8.000    0.000    0.000    0.000 
#    0.000    0.000    0.000    7.200   10.400    0.000 
#    0.000    0.000    0.000    0.000    0.000    0.000 
#
# Total GULP energy -111618.700768 kJ/mol
# GULP energy per Si atom -5580.935038 kJ/mol
# Density = 2.225220 g / cm^3
# Si number density = 22.302959 Si / 1000 Ang^3
#
#
#
# Elastic Constant Matrix: (Units=GPa)
#
#
# Indices 1 2 3 4 5 6 
#
# 1 65.4953 19.0967 11.8041 0.0000 -10.2872 0.0000
# 2 19.0967 168.0824 49.8859 0.0000 -2.6615 0.0000
# 3 11.8041 49.8859 132.6390 0.0000 -31.6982 0.0000
# 4 0.0000 0.0000 0.0000 48.7889 0.0000 7.3688
# 5 -10.2872 -2.6615 -31.6982 0.0000 44.1494 0.0000
# 6 0.0000 0.0000 0.0000 7.3688 0.0000 30.1275
#
#
#
# Elastic Compliance Matrix: (Units=1/GPa)
#
#
# Indices 1 2 3 4 5 6 
#
# 1 0.016378 -0.001844 0.000147 0.000000 0.003810 0.000000
# 2 -0.001844 0.007011 -0.002987 0.000000 -0.002152 0.000000
# 3 0.000147 -0.002987 0.010399 0.000000 0.007320 0.000000
# 4 0.000000 0.000000 0.000000 0.021283 0.000000 -0.005205
# 5 0.003810 -0.002152 0.007320 0.000000 0.028664 0.000000
# 6 0.000000 0.000000 0.000000 -0.005205 0.000000 0.034465
#
#
# Mechanical properties :
#
#
# Convention : Reuss Voigt Hill
#
# Bulk Modulus (GPa) = 40.95091 58.64334 49.79713
# Shear Modulus (GPa) = 36.84330 43.64183 40.24257
#
# Velocity S-wave (km/s) = 4.06882 4.42834 4.25238
# Velocity P-wave (km/s) = 6.36198 7.24555 6.81809
#
# Compressibility (1/GPa) = 0.02441948
#
# Stress axis : x y z
#
# Youngs Moduli (GPa) = 61.05759 142.62368 96.16202
#
# Poissons Ratio (x) = 0.26299 -0.01409
# Poissons Ratio (y) = 0.11259 0.28725
# Poissons Ratio (z) = -0.00895 0.42604
#
# Static dielectric constant tensor:
#      x y z
#    x 1.882060 0.000000 -0.036440 
#    y 0.000000 1.848790 0.000000 
#    z -0.036440 0.000000 1.934740 
# 
# From -- ./inp_files/110753.got.cif
#   From: 2010.05.17/outbox.cif.g08.bks.cpg/sg15_56_cif.got.tgz:110753.got - 2010.06.03 18:47:42.
