data_PCOD9301091
_publ_section_title
;
Structure prediction by ZEFSAII (Michael W. Deem and Ramdas Pophale) SiO2 
 PCOD9301091
Probable space group: C 2/C
;
_chemical_formula_sum "Si O2"
_cell_formula_units_Z 40
_cell_length_a 14.092024
_cell_length_b 15.207547
_cell_length_c 20.806912
_cell_angle_alpha 90.000000
_cell_angle_beta 158.961003
_cell_angle_gamma 90.000000
_cell_volume 1600.805601
_symmetry_space_group_name_H-M "C 2/C"
_symmetry_group_IT_number 15
_symmetry_cell_setting 'monoclinic'
loop_
_space_group_symop_operation_xyz
x,y,z
-x,y,1/2-z
-x,-y,-z
x,-y,1/2+z
1/2+x,1/2+y,z
1/2-x,1/2+y,1/2-z
1/2-x,1/2-y,-z
1/2+x,1/2-y,1/2+z
loop_
_atom_site_type_symbol
_atom_site_label
_atom_site_fract_x
_atom_site_fract_y
_atom_site_fract_z
Si Si1 0.000000 0.606085 0.750000
Si Si2 0.122070 0.678766 0.687281
Si Si3 0.981866 0.117673 0.373326
Si Si4 0.584029 0.895224 0.028497
Si Si5 0.000000 0.958810 0.750000
Si Si6 0.272015 0.285408 0.941760
O O1 0.963048 0.657856 0.793717
O O2 0.706961 0.565486 0.554738
O O3 0.029766 0.779275 0.615904
O O4 0.024244 0.619458 0.566110
O O5 0.443021 0.670326 0.887333
O O6 0.058147 0.102336 0.347454
O O7 0.674025 0.091573 0.179228
O O8 0.711454 0.802165 0.090729
O O9 0.784053 0.972370 0.140447
O O10 0.000000 0.333896 0.750000
O O11 0.250000 0.250000 0.000000
#
# Coordination Sequence:
#
# PCOD9301091 Si02
#       6
#     4   8   8   8   4   8
#     4  12  25  42  64 100 141 178 232 298 349 400
#     4  11  23  42  68 104 139 184 236 292 348 412
#     4  11  24  40  68  96 138 180 232 282 347 409
#     4  11  23  43  70 100 134 191 238 279 345 433
#     4  12  23  46  68 100 137 190 230 284 345 438
#     4  11  20  37  64 100 138 175 234 289 348 401
#
# _framework density 24.98742
#
# number of rings (size 3 to 8) (size 9 to 14) (size 15 to 20)
#    0.000    0.800    3.000    5.400    2.800    0.000 
#    0.000    4.000    2.200    0.000    0.000    1.400 
#    0.000    0.000    0.000    0.000    0.000    0.000 
#
# Total GULP energy -111748.286673 kJ/mol
# GULP energy per Si atom -5587.414334 kJ/mol
# Density = 2.493055 g / cm^3
# Si number density = 24.987420 Si / 1000 Ang^3
#
#
#
# Elastic Constant Matrix: (Units=GPa)
#
#
# Indices 1 2 3 4 5 6 
#
# 1 129.4789 21.5352 24.6340 -0.0089 5.4479 -0.0041
# 2 21.5352 70.7776 17.1362 0.0159 -3.1865 0.0056
# 3 24.6340 17.1362 203.5088 -0.0073 8.9192 0.0165
# 4 -0.0089 0.0159 -0.0073 4.5561 -0.0051 15.4327
# 5 5.4479 -3.1865 8.9192 -0.0051 43.9878 -0.0012
# 6 -0.0041 0.0056 0.0165 15.4327 -0.0012 25.7587
#
#
#
# Elastic Compliance Matrix: (Units=1/GPa)
#
#
# Indices 1 2 3 4 5 6 
#
# 1 0.008310 -0.002392 -0.000758 -0.000014 -0.001049 0.000011
# 2 -0.002392 0.015186 -0.001060 0.000046 0.001611 -0.000031
# 3 -0.000758 -0.001060 0.005140 -0.000020 -0.001025 0.000009
# 4 -0.000014 0.000046 -0.000020 -0.213219 -0.000012 0.127745
# 5 -0.001049 0.001611 -0.001025 -0.000012 0.023188 0.000009
# 6 0.000011 -0.000031 0.000009 0.127745 0.000009 -0.037714
#
#
# Mechanical properties :
#
#
# Convention : Reuss Voigt Hill
#
# Bulk Modulus (GPa) = 49.46900 58.93067 54.19983
# Shear Modulus (GPa) = -27.18117 37.55784 5.18833
#
# Velocity S-wave (km/s) = -3.30175 3.88115 1.44253
# Velocity P-wave (km/s) = 2.30329 6.61209 4.95101
#
# Compressibility (1/GPa) = 0.02021468
#
# Stress axis : x y z
#
# Youngs Moduli (GPa) = 120.34398 65.85167 194.56155
#
# Poissons Ratio (x) = 0.15751 0.14757
# Poissons Ratio (y) = 0.28785 0.20619
# Poissons Ratio (z) = 0.09128 0.06979
#
# Static dielectric constant tensor:
#      x y z
#    x 2.027840 -0.000010 0.106210 
#    y -0.000010 1.885970 -0.000030 
#    z 0.106210 -0.000030 2.115400 
# 
# From -- ./inp_files/245098.got.cif
#   From: 2010.05.17/outbox.cif.g08.bks.cpg/sg15_123_cif.got.tgz:245098.got - 2010.06.03 18:47:42.
