data_PCOD9301690
_publ_section_title
;
Structure prediction by ZEFSAII (Michael W. Deem and Ramdas Pophale) SiO2 
 PCOD9301690
Probable space group: C 2/C
;
_chemical_formula_sum "Si O2"
_cell_formula_units_Z 48
_cell_length_a 18.985010
_cell_length_b 14.738198
_cell_length_c 8.558248
_cell_angle_alpha 90.000000
_cell_angle_beta 71.769948
_cell_angle_gamma 90.000000
_cell_volume 2274.447689
_symmetry_space_group_name_H-M "C 2/C"
_symmetry_group_IT_number 15
_symmetry_cell_setting 'monoclinic'
loop_
_space_group_symop_operation_xyz
x,y,z
-x,y,1/2-z
-x,-y,-z
x,-y,1/2+z
1/2+x,1/2+y,z
1/2-x,1/2+y,1/2-z
1/2-x,1/2-y,-z
1/2+x,1/2-y,1/2+z
loop_
_atom_site_type_symbol
_atom_site_label
_atom_site_fract_x
_atom_site_fract_y
_atom_site_fract_z
Si Si1 0.933060 0.909607 0.671857
Si Si2 0.889183 0.083518 0.877414
Si Si3 0.224134 0.603790 0.117554
Si Si4 0.661622 0.717655 0.822177
Si Si5 0.087665 0.279198 0.193489
Si Si6 0.301618 0.089075 0.720864
O O1 0.948113 0.924654 0.477373
O O2 0.897960 0.809895 0.710495
O O3 0.000000 0.904071 0.750000
O O4 0.886950 0.993447 0.773425
O O5 0.894158 0.169264 0.760342
O O6 0.811196 0.095360 0.019682
O O7 0.202519 0.697125 0.215263
O O8 0.203099 0.516154 0.232513
O O9 0.187187 0.600487 0.971988
O O10 0.724723 0.642122 0.815284
O O11 0.618342 0.750890 0.003292
O O12 0.133778 0.362263 0.228743
O O13 0.000000 0.297858 0.250000
#
# Coordination Sequence:
#
# PCOD9301690 Si02
#       6
#     8   8   8   8   8   8
#     4  11  22  37  58  89 127 165 201 244 303 373
#     4  11  21  38  61  93 125 158 201 251 304 368
#     4  11  22  39  64  94 120 156 206 257 307 359
#     4  11  23  40  65  93 122 161 205 257 308 358
#     4  11  24  42  61  88 122 163 207 253 308 366
#     4  11  22  40  65  93 124 159 204 256 305 364
#
# _framework density 21.104025
#
# number of rings (size 3 to 8) (size 9 to 14) (size 15 to 20)
#    0.000    1.000    0.000   10.000    0.000    1.333 
#    0.000    7.500    0.000    0.000    0.000    0.000 
#    0.000    0.000    0.000    0.000    0.000    0.000 
#
# Total GULP energy -134267.633900 kJ/mol
# GULP energy per Si atom -5594.484746 kJ/mol
# Density = 2.105599 g / cm^3
# Si number density = 21.104025 Si / 1000 Ang^3
#
#
#
# Elastic Constant Matrix: (Units=GPa)
#
#
# Indices 1 2 3 4 5 6 
#
# 1 84.9035 26.1783 26.7701 0.0000 15.8601 0.0000
# 2 26.1783 86.3506 -4.4277 0.0000 9.8754 0.0000
# 3 26.7701 -4.4277 40.6666 0.0000 13.8824 0.0000
# 4 0.0000 0.0000 0.0000 40.2949 0.0000 12.4811
# 5 15.8601 9.8754 13.8824 0.0000 32.2962 0.0000
# 6 0.0000 0.0000 0.0000 12.4811 0.0000 26.8559
#
#
#
# Elastic Compliance Matrix: (Units=1/GPa)
#
#
# Indices 1 2 3 4 5 6 
#
# 1 0.017510 -0.005677 -0.011488 0.000000 -0.001925 0.000000
# 2 -0.005677 0.014162 0.006804 0.000000 -0.004467 0.000000
# 3 -0.011488 0.006804 0.037125 0.000000 -0.012397 0.000000
# 4 0.000000 0.000000 0.000000 0.028990 0.000000 -0.013473
# 5 -0.001925 -0.004467 -0.012397 0.000000 0.038604 0.000000
# 6 0.000000 0.000000 0.000000 -0.013473 0.000000 0.043497
#
#
# Mechanical properties :
#
#
# Convention : Reuss Voigt Hill
#
# Bulk Modulus (GPa) = 20.80074 34.32911 27.56493
# Shear Modulus (GPa) = 23.08028 30.78272 26.93150
#
# Velocity S-wave (km/s) = 3.31062 3.82333 3.57617
# Velocity P-wave (km/s) = 4.94886 5.98267 5.49016
#
# Compressibility (1/GPa) = 0.04807521
#
# Stress axis : x y z
#
# Youngs Moduli (GPa) = 57.10944 70.61351 26.93584
#
# Poissons Ratio (x) = 0.40090 0.30943
# Poissons Ratio (y) = 0.32423 -0.18327
# Poissons Ratio (z) = 0.65605 -0.48046
#
# Static dielectric constant tensor:
#      x y z
#    x 1.829300 0.000000 0.030120 
#    y 0.000000 1.736860 0.000000 
#    z 0.030120 0.000000 1.765540 
# 
# From -- ./inp_files/55224.got.cif
#   From: 2010.05.17/outbox.cif.g08.bks.cpg/sg15_28_cif.got.tgz:55224.got - 2010.06.03 18:47:42.
