data_PCOD9301928
_publ_section_title
;
Structure prediction by ZEFSAII (Michael W. Deem and Ramdas Pophale) SiO2 
 PCOD9301928
Probable space group: C 2/C
;
_chemical_formula_sum "Si O2"
_cell_formula_units_Z 60
_cell_length_a 22.921256
_cell_length_b 8.597221
_cell_length_c 22.515122
_cell_angle_alpha 90.000000
_cell_angle_beta 42.193938
_cell_angle_gamma 90.000000
_cell_volume 2979.948696
_symmetry_space_group_name_H-M "C 2/C"
_symmetry_group_IT_number 15
_symmetry_cell_setting 'monoclinic'
loop_
_space_group_symop_operation_xyz
x,y,z
-x,y,1/2-z
-x,-y,-z
x,-y,1/2+z
1/2+x,1/2+y,z
1/2-x,1/2+y,1/2-z
1/2-x,1/2-y,-z
1/2+x,1/2-y,1/2+z
loop_
_atom_site_type_symbol
_atom_site_label
_atom_site_fract_x
_atom_site_fract_y
_atom_site_fract_z
Si Si1 0.589126 0.453346 0.965249
Si Si2 0.157217 0.613858 0.272979
Si Si3 0.500000 0.554207 0.750000
Si Si4 0.290032 0.913525 0.990592
Si Si5 0.531764 0.779382 0.612268
Si Si6 0.827619 0.913148 0.833548
Si Si7 0.201673 0.965957 0.271009
Si Si8 0.251311 0.927731 0.399694
O O1 0.653224 0.442086 0.860485
O O2 0.649162 0.570701 0.959333
O O3 0.500000 0.500000 0.000000
O O4 0.567062 0.315952 0.028162
O O5 0.183771 0.783059 0.278602
O O6 0.197025 0.495056 0.291229
O O7 0.200046 0.557842 0.178017
O O8 0.054771 0.627968 0.339949
O O9 0.511454 0.661841 0.682544
O O10 0.415272 0.449133 0.803264
O O11 0.391608 0.890284 0.923318
O O12 0.265019 0.030110 0.957353
O O13 0.250000 0.750000 0.000000
O O14 0.245103 0.974874 0.083549
O O15 0.795097 0.737593 0.857068
O O16 0.836765 0.963983 0.759307
#
# Coordination Sequence:
#
# PCOD9301928 Si02
#       8
#     8   8   4   8   8   8   8   8
#     4  11  21  40  67  98 132 179 229 277 344 398
#     4  11  23  44  68 100 133 187 231 277 350 404
#     4  12  22  42  72 102 144 180 232 274 354 418
#     4  12  23  44  69 100 133 178 228 284 347 410
#     4  12  24  41  72 106 133 183 231 288 340 419
#     4  12  25  42  68 105 135 183 228 279 352 412
#     4  11  23  41  67  95 139 177 229 281 343 416
#     4  11  25  44  67  97 142 179 226 291 345 412
#
# _framework density 20.134575999999999
#
# number of rings (size 3 to 8) (size 9 to 14) (size 15 to 20)
#    0.000    0.533    5.333    3.600    1.867    1.067 
#    0.000    4.667    0.000    0.000    0.000    0.000 
#    0.000    0.000    0.000    0.000    0.000    0.000 
#
# Total GULP energy -167409.077402 kJ/mol
# GULP energy per Si atom -5580.302580 kJ/mol
# Density = 2.008875 g / cm^3
# Si number density = 20.134576 Si / 1000 Ang^3
#
#
#
# Elastic Constant Matrix: (Units=GPa)
#
#
# Indices 1 2 3 4 5 6 
#
# 1 163.6175 28.7101 23.2854 0.0002 -39.2059 -0.0004
# 2 28.7101 43.1334 29.4606 0.0007 -8.8194 -0.0019
# 3 23.2854 29.4606 60.0960 -0.0001 -5.7782 0.0001
# 4 0.0002 0.0007 -0.0001 22.2900 -0.0001 -1.0513
# 5 -39.2059 -8.8194 -5.7782 -0.0001 52.1446 0.0005
# 6 -0.0004 -0.0019 0.0001 -1.0513 0.0005 30.7408
#
#
#
# Elastic Compliance Matrix: (Units=1/GPa)
#
#
# Indices 1 2 3 4 5 6 
#
# 1 0.008192 -0.003806 -0.000787 0.000000 0.005429 0.000000
# 2 -0.003806 0.037487 -0.016746 -0.000001 0.001623 0.000002
# 3 -0.000787 -0.016746 0.025093 0.000001 -0.000643 -0.000001
# 4 0.000000 -0.000001 0.000001 0.044936 0.000000 0.001537
# 5 0.005429 0.001623 -0.000643 0.000000 0.023462 0.000000
# 6 0.000000 0.000002 -0.000001 0.001537 0.000000 0.032583
#
#
# Mechanical properties :
#
#
# Convention : Reuss Voigt Hill
#
# Bulk Modulus (GPa) = 35.59436 47.75100 41.67268
# Shear Modulus (GPa) = 22.34193 33.39448 27.86821
#
# Velocity S-wave (km/s) = 3.33473 4.07696 3.72438
# Velocity P-wave (km/s) = 5.70472 6.77714 6.26392
#
# Compressibility (1/GPa) = 0.02809434
#
# Stress axis : x y z
#
# Youngs Moduli (GPa) = 122.06450 26.67609 39.85254
#
# Poissons Ratio (x) = 0.10152 0.03135
# Poissons Ratio (y) = 0.46453 0.66738
# Poissons Ratio (z) = 0.09603 0.44673
#
# Static dielectric constant tensor:
#      x y z
#    x 1.720290 0.000000 -0.023710 
#    y 0.000000 1.599330 0.000000 
#    z -0.023710 0.000000 1.756370 
# 
# From -- ./inp_files/213852.got.cif
#   From: 2010.05.17/outbox.cif.g08.bks.cpg/sg15_107_cif.got.tgz:213852.got - 2010.06.03 18:47:42.
