data_PCOD9301909
_publ_section_title
;
Structure prediction by ZEFSAII (Michael W. Deem and Ramdas Pophale) SiO2 
 PCOD9301909
Probable space group: C 2/C
;
_chemical_formula_sum "Si O2"
_cell_formula_units_Z 60
_cell_length_a 23.606890
_cell_length_b 19.780956
_cell_length_c 9.459377
_cell_angle_alpha 90.000000
_cell_angle_beta 40.435002
_cell_angle_gamma 90.000000
_cell_volume 2864.939735
_symmetry_space_group_name_H-M "C 2/C"
_symmetry_group_IT_number 15
_symmetry_cell_setting 'monoclinic'
loop_
_space_group_symop_operation_xyz
x,y,z
-x,y,1/2-z
-x,-y,-z
x,-y,1/2+z
1/2+x,1/2+y,z
1/2-x,1/2+y,1/2-z
1/2-x,1/2-y,-z
1/2+x,1/2-y,1/2+z
loop_
_atom_site_type_symbol
_atom_site_label
_atom_site_fract_x
_atom_site_fract_y
_atom_site_fract_z
Si Si1 0.299497 0.894999 0.232738
Si Si2 0.570875 0.451404 0.437460
Si Si3 0.311936 0.268492 0.023408
Si Si4 0.686144 0.129849 0.332515
Si Si5 0.576448 0.916662 0.275317
Si Si6 0.000000 0.172580 0.250000
Si Si7 0.400807 0.921538 0.764490
Si Si8 0.181355 0.973665 0.957227
O O1 0.231083 0.836599 0.333867
O O2 0.345940 0.879338 0.291174
O O3 0.251134 0.966255 0.342065
O O4 0.374091 0.902814 0.973087
O O5 0.500000 0.500000 0.500000
O O6 0.536871 0.379309 0.559430
O O7 0.607624 0.492322 0.501651
O O8 0.644314 0.447138 0.175955
O O9 0.300802 0.206473 0.151633
O O10 0.250000 0.250000 0.000000
O O11 0.418366 0.285497 0.831654
O O12 0.597123 0.103007 0.576121
O O13 0.672753 0.110449 0.195350
O O14 0.769003 0.085321 0.221185
O O15 0.491286 0.897270 0.524856
O O16 0.591333 0.997177 0.257685
#
# Coordination Sequence:
#
# PCOD9301909 Si02
#       8
#     8   8   8   8   8   4   8   8
#     4  12  22  44  67  99 140 184 234 300 362 427
#     4  12  23  44  74 109 141 179 239 313 375 433
#     4  12  29  48  72 100 147 203 245 291 378 452
#     4  12  25  41  68  98 136 191 236 290 356 442
#     4  11  21  40  66 100 138 179 233 289 356 423
#     4  12  28  50  74 106 154 196 248 308 374 450
#     4  11  23  38  67 104 135 176 235 300 350 417
#     4  12  23  41  73 108 138 179 241 309 368 431
#
# _framework density 20.94285
#
# number of rings (size 3 to 8) (size 9 to 14) (size 15 to 20)
#    0.000    0.267    6.667    2.400    3.733    2.667 
#    0.000    0.000    0.000    0.000    0.000    0.000 
#    0.000    0.000    0.000    0.000    0.000    0.000 
#
# Total GULP energy -167299.772139 kJ/mol
# GULP energy per Si atom -5576.659071 kJ/mol
# Density = 2.089518 g / cm^3
# Si number density = 20.942850 Si / 1000 Ang^3
#
#
#
# Elastic Constant Matrix: (Units=GPa)
#
#
# Indices 1 2 3 4 5 6 
#
# 1 89.1233 5.8266 23.4508 0.0000 -3.8810 0.0000
# 2 5.8266 94.1409 36.6865 0.0000 -18.2926 0.0000
# 3 23.4508 36.6865 132.9855 0.0000 3.9429 0.0000
# 4 0.0000 0.0000 0.0000 -63.3455 0.0000 -24.0722
# 5 -3.8810 -18.2926 3.9429 0.0000 23.6176 0.0000
# 6 0.0000 0.0000 0.0000 -24.0722 0.0000 12.5775
#
#
#
# Elastic Compliance Matrix: (Units=1/GPa)
#
#
# Indices 1 2 3 4 5 6 
#
# 1 0.011932 0.000775 -0.002406 0.000000 0.002962 0.000000
# 2 0.000775 0.014748 -0.004570 0.000000 0.012313 0.000000
# 3 -0.002406 -0.004570 0.009368 0.000000 -0.005499 0.000000
# 4 0.000000 0.000000 0.000000 -0.009139 0.000000 -0.017492
# 5 0.002962 0.012313 -0.005499 0.000000 0.053283 0.000000
# 6 0.000000 0.000000 0.000000 -0.017492 0.000000 0.046029
#
#
# Mechanical properties :
#
#
# Convention : Reuss Voigt Hill
#
# Bulk Modulus (GPa) = 42.29226 49.79750 46.04488
# Shear Modulus (GPa) = 34.12871 11.25564 22.69218
#
# Velocity S-wave (km/s) = 4.04122 2.32080 3.29527
# Velocity P-wave (km/s) = 6.48177 5.56875 6.04253
#
# Compressibility (1/GPa) = 0.02364499
#
# Stress axis : x y z
#
# Youngs Moduli (GPa) = 83.81008 67.80599 106.75077
#
# Poissons Ratio (x) = -0.05252 0.25679
# Poissons Ratio (y) = -0.06491 0.48787
# Poissons Ratio (z) = 0.20161 0.30988
#
# Static dielectric constant tensor:
#      x y z
#    x 1.851500 0.000000 -0.064210 
#    y 0.000000 1.720540 0.000000 
#    z -0.064210 0.000000 1.792440 
# 
# From -- ./inp_files/63507.got.cif
#   From: 2010.05.17/outbox.cif.g08.bks.cpg/sg15_32_cif.got.tgz:63507.got - 2010.06.03 18:47:42.
