data_PCOD9301428
_publ_section_title
;
Structure prediction by ZEFSAII (Michael W. Deem and Ramdas Pophale) SiO2 
 PCOD9301428
Probable space group: C 2/C
;
_chemical_formula_sum "Si O2"
_cell_formula_units_Z 48
_cell_length_a 10.516215
_cell_length_b 14.930508
_cell_length_c 23.006027
_cell_angle_alpha 90.000000
_cell_angle_beta 37.140472
_cell_angle_gamma 90.000000
_cell_volume 2180.961898
_symmetry_space_group_name_H-M "C 2/C"
_symmetry_group_IT_number 15
_symmetry_cell_setting 'monoclinic'
loop_
_space_group_symop_operation_xyz
x,y,z
-x,y,1/2-z
-x,-y,-z
x,-y,1/2+z
1/2+x,1/2+y,z
1/2-x,1/2+y,1/2-z
1/2-x,1/2-y,-z
1/2+x,1/2-y,1/2+z
loop_
_atom_site_type_symbol
_atom_site_label
_atom_site_fract_x
_atom_site_fract_y
_atom_site_fract_z
Si Si1 0.784844 0.015478 0.043506
Si Si2 0.200880 0.770866 0.218174
Si Si3 0.837392 0.425882 0.726086
Si Si4 0.016365 0.074696 0.854694
Si Si5 0.644823 0.158263 0.520432
Si Si6 0.290618 0.958908 0.605215
O O1 0.708107 0.922834 0.040869
O O2 0.584434 0.057877 0.148821
O O3 0.000000 0.000000 0.000000
O O4 0.850801 0.081340 0.966943
O O5 0.244407 0.670664 0.224254
O O6 0.127070 0.834097 0.297554
O O7 0.396020 0.820727 0.116019
O O8 0.000000 0.765134 0.250000
O O9 0.695211 0.502902 0.805901
O O10 0.813525 0.439627 0.664711
O O11 0.891627 0.027917 0.846848
O O12 0.750000 0.250000 0.500000
O O13 0.730008 0.130282 0.426016
O O14 0.500000 0.000000 0.500000
#
# Coordination Sequence:
#
# PCOD9301428 Si02
#       6
#     8   8   8   8   8   8
#     4  11  26  45  68  99 144 185 224 288 352 414
#     4  12  26  42  69 105 137 180 235 290 343 416
#     4  12  25  43  71 104 136 183 235 285 347 409
#     4  11  23  45  71  97 137 182 231 284 348 411
#     4  11  24  45  69  99 136 182 225 282 351 406
#     4  11  20  44  72  95 132 177 228 283 343 413
#
# _framework density 22.008638999999999
#
# number of rings (size 3 to 8) (size 9 to 14) (size 15 to 20)
#    0.000    0.667    5.000    4.500    4.667    2.000 
#    0.000    1.667    0.000    0.000    0.000    0.000 
#    0.000    0.000    0.000    0.000    0.000    0.000 
#
# Total GULP energy -134261.493050 kJ/mol
# GULP energy per Si atom -5594.228877 kJ/mol
# Density = 2.195855 g / cm^3
# Si number density = 22.008639 Si / 1000 Ang^3
#
#
#
# Elastic Constant Matrix: (Units=GPa)
#
#
# Indices 1 2 3 4 5 6 
#
# 1 81.1224 -8.7014 6.0473 -0.0002 -15.9655 0.0000
# 2 -8.7014 89.9436 -3.0014 0.0009 -0.9578 0.0000
# 3 6.0473 -3.0014 85.8413 0.0008 -15.5455 0.0001
# 4 -0.0002 0.0009 0.0008 33.1498 0.0012 -7.4329
# 5 -15.9655 -0.9578 -15.5455 0.0012 37.0586 -0.0001
# 6 0.0000 0.0000 0.0001 -7.4329 -0.0001 30.4833
#
#
#
# Elastic Compliance Matrix: (Units=1/GPa)
#
#
# Indices 1 2 3 4 5 6 
#
# 1 0.013641 0.001389 0.000171 0.000000 0.005985 0.000000
# 2 0.001389 0.011281 0.000495 0.000000 0.001098 0.000000
# 3 0.000171 0.000495 0.012630 -0.000001 0.005385 0.000000
# 4 0.000000 0.000000 -0.000001 0.031911 -0.000001 0.007781
# 5 0.005985 0.001098 0.005385 -0.000001 0.031850 0.000000
# 6 0.000000 0.000000 0.000000 0.007781 0.000000 0.034702
#
#
# Mechanical properties :
#
#
# Convention : Reuss Voigt Hill
#
# Bulk Modulus (GPa) = 24.00193 27.28848 25.64521
# Shear Modulus (GPa) = 34.29589 37.64253 35.96921
#
# Velocity S-wave (km/s) = 3.95180 4.14013 4.04706
# Velocity P-wave (km/s) = 5.63486 5.93971 5.78929
#
# Compressibility (1/GPa) = 0.04166331
#
# Stress axis : x y z
#
# Youngs Moduli (GPa) = 73.30789 88.64711 79.17789
#
# Poissons Ratio (x) = -0.12314 -0.01357
# Poissons Ratio (y) = -0.10183 -0.03922
# Poissons Ratio (z) = -0.01256 -0.04391
#
# Static dielectric constant tensor:
#      x y z
#    x 1.905840 0.000000 -0.009950 
#    y 0.000000 1.793130 0.000000 
#    z -0.009950 0.000000 1.831860 
# 
# From -- ./inp_files/143526.got.cif
#   From: 2010.05.17/outbox.cif.g08.bks.cpg/sg15_72_cif.got.tgz:143526.got - 2010.06.03 18:47:42.
