data_PCOD9301026
_publ_section_title
;
Structure prediction by ZEFSAII (Michael W. Deem and Ramdas Pophale) SiO2 
 PCOD9301026
Probable space group: C 2/C
;
_chemical_formula_sum "Si O2"
_cell_formula_units_Z 44
_cell_length_a 15.902436
_cell_length_b 9.087203
_cell_length_c 13.961588
_cell_angle_alpha 90.000000
_cell_angle_beta 89.514807
_cell_angle_gamma 90.000000
_cell_volume 2017.498091
_symmetry_space_group_name_H-M "C 2/C"
_symmetry_group_IT_number 15
_symmetry_cell_setting 'monoclinic'
loop_
_space_group_symop_operation_xyz
x,y,z
-x,y,1/2-z
-x,-y,-z
x,-y,1/2+z
1/2+x,1/2+y,z
1/2-x,1/2+y,1/2-z
1/2-x,1/2-y,-z
1/2+x,1/2-y,1/2+z
loop_
_atom_site_type_symbol
_atom_site_label
_atom_site_fract_x
_atom_site_fract_y
_atom_site_fract_z
Si Si1 0.000000 0.626352 0.250000
Si Si2 0.271094 0.955048 0.125039
Si Si3 0.676219 0.663491 0.272643
Si Si4 0.090945 0.331151 0.934108
Si Si5 0.103546 0.616515 0.640147
Si Si6 0.705334 0.450893 0.430219
O O1 0.963458 0.710497 0.158246
O O2 0.932073 0.519472 0.300392
O O3 0.234383 0.074040 0.198886
O O4 0.362422 0.016703 0.094204
O O5 0.275973 0.797245 0.174434
O O6 0.216335 0.962317 0.029354
O O7 0.605895 0.742758 0.209471
O O8 0.654003 0.547807 0.354966
O O9 0.160239 0.203933 0.946422
O O10 0.054710 0.354753 0.041049
O O11 0.200608 0.580612 0.610866
#
# Coordination Sequence:
#
# PCOD9301026 Si02
#       6
#     4   8   8   8   8   8
#     4  12  24  40  66  98 132 172 212 258 334 394
#     4  11  20  36  60  98 126 164 216 266 315 368
#     4  12  19  36  62  96 132 161 209 270 320 370
#     4  11  21  41  63  92 128 171 213 269 318 381
#     4  11  22  38  64  92 130 167 215 264 317 383
#     4  11  22  38  66  96 127 164 222 271 312 373
#
# _framework density 21.809190000000001
#
# number of rings (size 3 to 8) (size 9 to 14) (size 15 to 20)
#    0.000    0.727    7.273    2.182    0.000    0.000 
#    0.000    0.909    0.000    2.182    0.000    0.000 
#    0.000    0.000    0.000    0.000    0.000    0.000 
#
# Total GULP energy -122917.715136 kJ/mol
# GULP energy per Si atom -5587.168870 kJ/mol
# Density = 2.175955 g / cm^3
# Si number density = 21.809190 Si / 1000 Ang^3
#
#
#
# Elastic Constant Matrix: (Units=GPa)
#
#
# Indices 1 2 3 4 5 6 
#
# 1 28.3436 8.4398 17.5476 0.0000 3.5321 0.0000
# 2 8.4398 69.3062 24.6772 0.0000 -11.4110 0.0000
# 3 17.5476 24.6772 196.3071 0.0000 20.7687 0.0000
# 4 0.0000 0.0000 0.0000 46.6469 0.0000 10.3642
# 5 3.5321 -11.4110 20.7687 0.0000 26.9497 0.0000
# 6 0.0000 0.0000 0.0000 10.3642 0.0000 17.4379
#
#
#
# Elastic Compliance Matrix: (Units=1/GPa)
#
#
# Indices 1 2 3 4 5 6 
#
# 1 0.038796 -0.004783 -0.002302 0.000000 -0.005336 0.000000
# 2 -0.004783 0.017754 -0.002903 0.000000 0.010381 0.000000
# 3 -0.002302 -0.002903 0.006274 0.000000 -0.005763 0.000000
# 4 0.000000 0.000000 0.000000 0.024699 0.000000 -0.014680
# 5 -0.005336 0.010381 -0.005763 0.000000 0.046642 0.000000
# 6 0.000000 0.000000 0.000000 -0.014680 0.000000 0.066071
#
#
# Mechanical properties :
#
#
# Convention : Reuss Voigt Hill
#
# Bulk Modulus (GPa) = 23.33814 43.92069 33.62942
# Shear Modulus (GPa) = 21.32241 34.42638 27.87439
#
# Velocity S-wave (km/s) = 3.13018 3.97738 3.57894
# Velocity P-wave (km/s) = 4.87733 6.42457 5.70366
#
# Compressibility (1/GPa) = 0.04284831
#
# Stress axis : x y z
#
# Youngs Moduli (GPa) = 25.77604 56.32566 159.37850
#
# Poissons Ratio (x) = 0.26942 0.36690
# Poissons Ratio (y) = 0.12329 0.46260
# Poissons Ratio (z) = 0.05934 0.16349
#
# Static dielectric constant tensor:
#      x y z
#    x 1.824440 0.000000 0.045340 
#    y 0.000000 1.753790 0.000000 
#    z 0.045340 0.000000 1.866030 
# 
# From -- ./inp_files/159294.got.cif
#   From: 2010.05.17/outbox.cif.g08.bks.cpg/sg15_80_cif.got.tgz:159294.got - 2010.06.03 18:47:42.
