data_PCOD9301511
_publ_section_title
;
Structure prediction by ZEFSAII (Michael W. Deem and Ramdas Pophale) SiO2 
 PCOD9301511
Probable space group: C 2/C
;
_chemical_formula_sum "Si O2"
_cell_formula_units_Z 48
_cell_length_a 6.974704
_cell_length_b 13.658731
_cell_length_c 20.752704
_cell_angle_alpha 90.000000
_cell_angle_beta 98.790945
_cell_angle_gamma 90.000000
_cell_volume 1953.793980
_symmetry_space_group_name_H-M "C 2/C"
_symmetry_group_IT_number 15
_symmetry_cell_setting 'monoclinic'
loop_
_space_group_symop_operation_xyz
x,y,z
-x,y,1/2-z
-x,-y,-z
x,-y,1/2+z
1/2+x,1/2+y,z
1/2-x,1/2+y,1/2-z
1/2-x,1/2-y,-z
1/2+x,1/2-y,1/2+z
loop_
_atom_site_type_symbol
_atom_site_label
_atom_site_fract_x
_atom_site_fract_y
_atom_site_fract_z
Si Si1 0.239538 0.515768 0.358597
Si Si2 0.765167 0.925808 0.226819
Si Si3 0.598151 0.242147 0.067046
Si Si4 0.810599 0.949251 0.608169
Si Si5 0.137214 0.264385 0.819024
Si Si6 0.634402 0.090977 0.975359
O O1 0.189351 0.452549 0.292997
O O2 0.468721 0.515970 0.385430
O O3 0.207613 0.628782 0.340776
O O4 0.117151 0.473708 0.411177
O O5 0.713651 0.820125 0.194885
O O6 0.000000 0.922763 0.250000
O O7 0.735867 0.009125 0.172057
O O8 0.764493 0.167475 0.103558
O O9 0.470989 0.271298 0.121729
O O10 0.691483 0.335467 0.038227
O O11 0.502786 0.171555 0.007007
O O12 0.705923 0.980478 0.536364
O O13 0.000000 0.277656 0.750000
#
# Coordination Sequence:
#
# PCOD9301511 Si02
#       6
#     8   8   8   8   8   8
#     4  11  21  35  60  85 108 148 192 233 273 330
#     4   9  19  35  57  78 108 149 191 226 270 334
#     4   9  19  36  59  80 114 150 182 221 286 326
#     4   9  18  36  58  82 109 147 193 228 263 332
#     4  11  22  37  56  82 114 147 186 233 288 331
#     4   9  19  36  60  82 115 153 185 221 280 341
#
# _framework density 24.567585000000001
#
# number of rings (size 3 to 8) (size 9 to 14) (size 15 to 20)
#    1.000    1.333    0.000    4.500    0.000    0.667 
#    0.000    6.667    0.000    0.000    0.000    0.000 
#    0.000    0.000    0.000    0.000    0.000    0.000 
#
# Total GULP energy -133931.359512 kJ/mol
# GULP energy per Si atom -5580.473313 kJ/mol
# Density = 2.451167 g / cm^3
# Si number density = 24.567585 Si / 1000 Ang^3
#
#
#
# Elastic Constant Matrix: (Units=GPa)
#
#
# Indices 1 2 3 4 5 6 
#
# 1 45.7724 6.2464 41.1586 0.0000 -11.9596 0.0000
# 2 6.2464 134.1910 61.3051 0.0000 -24.0820 0.0000
# 3 41.1586 61.3051 208.5547 0.0000 -41.7834 0.0000
# 4 0.0000 0.0000 0.0000 -100.0303 0.0000 24.0676
# 5 -11.9596 -24.0820 -41.7834 0.0000 33.8248 0.0000
# 6 0.0000 0.0000 0.0000 24.0676 0.0000 8.2431
#
#
#
# Elastic Compliance Matrix: (Units=1/GPa)
#
#
# Indices 1 2 3 4 5 6 
#
# 1 0.027330 0.001870 -0.004971 0.000000 0.004854 0.000000
# 2 0.001870 0.009161 -0.002156 0.000000 0.004520 0.000000
# 3 -0.004971 -0.002156 0.007641 0.000000 0.006146 0.000000
# 4 0.000000 0.000000 0.000000 -0.005872 0.000000 0.017144
# 5 0.004854 0.004520 0.006146 0.000000 0.042091 0.000000
# 6 0.000000 0.000000 0.000000 0.017144 0.000000 0.071256
#
#
# Mechanical properties :
#
#
# Convention : Reuss Voigt Hill
#
# Bulk Modulus (GPa) = 29.74613 67.32647 48.53630
# Shear Modulus (GPa) = 28.84700 7.06139 17.95420
#
# Velocity S-wave (km/s) = 3.43036 1.69721 2.70628
# Velocity P-wave (km/s) = 5.27485 5.59507 5.43731
#
# Compressibility (1/GPa) = 0.03361782
#
# Stress axis : x y z
#
# Youngs Moduli (GPa) = 36.58970 109.15428 130.87019
#
# Poissons Ratio (x) = -0.20410 0.65052
# Poissons Ratio (y) = -0.06842 0.28222
# Poissons Ratio (z) = 0.18188 0.23539
#
# Static dielectric constant tensor:
#      x y z
#    x 2.099970 0.000000 0.036600 
#    y 0.000000 1.990050 0.000000 
#    z 0.036600 0.000000 1.938150 
# 
# From -- ./inp_files/230723.got.cif
#   From: 2010.05.17/outbox.cif.g08.bks.cpg/sg15_116_cif.got.tgz:230723.got - 2010.06.03 18:47:42.
