data_PCOD9301895
_publ_section_title
;
Structure prediction by ZEFSAII (Michael W. Deem and Ramdas Pophale) SiO2 
 PCOD9301895
Probable space group: C 2/C
;
_chemical_formula_sum "Si O2"
_cell_formula_units_Z 48
_cell_length_a 10.671328
_cell_length_b 25.014438
_cell_length_c 11.406727
_cell_angle_alpha 90.000000
_cell_angle_beta 126.193535
_cell_angle_gamma 90.000000
_cell_volume 2457.300695
_symmetry_space_group_name_H-M "C 2/C"
_symmetry_group_IT_number 15
_symmetry_cell_setting 'monoclinic'
loop_
_space_group_symop_operation_xyz
x,y,z
-x,y,1/2-z
-x,-y,-z
x,-y,1/2+z
1/2+x,1/2+y,z
1/2-x,1/2+y,1/2-z
1/2-x,1/2-y,-z
1/2+x,1/2-y,1/2+z
loop_
_atom_site_type_symbol
_atom_site_label
_atom_site_fract_x
_atom_site_fract_y
_atom_site_fract_z
Si Si1 0.203524 0.057541 0.960708
Si Si2 0.500000 0.462239 0.750000
Si Si3 0.509469 0.610281 0.465672
Si Si4 0.086293 0.696092 0.677009
Si Si5 0.500000 0.011430 0.250000
Si Si6 0.869029 0.227796 0.965891
Si Si7 0.814744 0.580474 0.767759
O O1 0.232699 0.079488 0.847620
O O2 0.114460 0.001930 0.883217
O O3 0.100191 0.096026 0.984958
O O4 0.366726 0.045203 0.113085
O O5 0.560648 0.422620 0.682362
O O6 0.541689 0.672461 0.454373
O O7 0.681042 0.588579 0.596419
O O8 0.078048 0.632563 0.668151
O O9 0.000000 0.711616 0.750000
O O10 0.997505 0.726392 0.525635
O O11 0.263196 0.714140 0.795272
O O12 0.587635 0.972154 0.207013
O O13 0.750000 0.250000 0.000000
#
# Coordination Sequence:
#
# PCOD9301895 Si02
#       7
#     8   4   8   8   4   8   8
#     4  12  24  42  61  88 130 167 205 255 311 376
#     4  12  22  38  67  84 123 164 210 252 290 378
#     4  11  23  40  65  94 120 164 212 253 313 371
#     4   9  18  36  58  87 116 150 197 254 303 358
#     4  12  24  40  57  98 127 162 220 256 306 358
#     4   9  20  36  60  90 120 146 200 261 301 362
#     4  11  21  40  64  89 124 167 206 254 313 369
#
# _framework density 19.533629000000001
#
# number of rings (size 3 to 8) (size 9 to 14) (size 15 to 20)
#    0.000    1.333    4.167    2.000    3.500    0.000 
#    3.000    0.833    0.000    0.000    0.000    0.000 
#    0.000    0.000    0.000    0.000    0.000    0.000 
#
# Total GULP energy -133758.133612 kJ/mol
# GULP energy per Si atom -5573.255567 kJ/mol
# Density = 1.948917 g / cm^3
# Si number density = 19.533629 Si / 1000 Ang^3
#
#
#
# Elastic Constant Matrix: (Units=GPa)
#
#
# Indices 1 2 3 4 5 6 
#
# 1 52.6640 17.0679 -12.3556 0.0000 -17.6477 0.0000
# 2 17.0679 75.7148 17.7903 0.0000 3.2349 0.0000
# 3 -12.3556 17.7903 20.8427 0.0000 -0.4490 0.0000
# 4 0.0000 0.0000 0.0000 23.2242 0.0000 2.4358
# 5 -17.6477 3.2349 -0.4490 0.0000 33.5444 0.0000
# 6 0.0000 0.0000 0.0000 2.4358 0.0000 -34.4670
#
#
#
# Elastic Compliance Matrix: (Units=1/GPa)
#
#
# Indices 1 2 3 4 5 6 
#
# 1 0.047050 -0.023116 0.048217 0.000000 0.027628 0.000000
# 2 -0.023116 0.027985 -0.037921 0.000000 -0.015368 0.000000
# 3 0.048217 -0.037921 0.109585 0.000000 0.030491 0.000000
# 4 0.000000 0.000000 0.000000 0.042742 0.000000 0.003021
# 5 0.027628 -0.015368 0.030491 0.000000 0.046236 0.000000
# 6 0.000000 0.000000 0.000000 0.003021 0.000000 -0.028800
#
#
# Mechanical properties :
#
#
# Convention : Reuss Voigt Hill
#
# Bulk Modulus (GPa) = 6.29005 21.58075 13.93540
# Shear Modulus (GPa) = 15.45924 12.90824 14.18374
#
# Velocity S-wave (km/s) = 2.81626 2.57343 2.69758
# Velocity P-wave (km/s) = 3.71514 4.46117 4.10514
#
# Compressibility (1/GPa) = 0.15898134
#
# Stress axis : x y z
#
# Youngs Moduli (GPa) = 21.25390 35.73358 9.12532
#
# Poissons Ratio (x) = 0.82601 -0.44000
# Poissons Ratio (y) = 0.49130 0.34604
# Poissons Ratio (z) = -1.02480 1.35504
#
# Static dielectric constant tensor:
#      x y z
#    x 1.694400 0.000000 0.008270 
#    y 0.000000 1.724260 0.000000 
#    z 0.008270 0.000000 1.700280 
# 
# From -- ./inp_files/32169.got.cif
#   From: 2010.05.17/outbox.cif.g08.bks.cpg/sg15_17_cif.got.tgz:32169.got - 2010.06.03 18:47:42.
