data_PCOD9301890
_publ_section_title
;
Structure prediction by ZEFSAII (Michael W. Deem and Ramdas Pophale) SiO2 
 PCOD9301890
Probable space group: C 2/C
;
_chemical_formula_sum "Si O2"
_cell_formula_units_Z 56
_cell_length_a 19.540394
_cell_length_b 21.474640
_cell_length_c 5.171426
_cell_angle_alpha 90.000000
_cell_angle_beta 94.395125
_cell_angle_gamma 90.000000
_cell_volume 2163.667398
_symmetry_space_group_name_H-M "C 2/C"
_symmetry_group_IT_number 15
_symmetry_cell_setting 'monoclinic'
loop_
_space_group_symop_operation_xyz
x,y,z
-x,y,1/2-z
-x,-y,-z
x,-y,1/2+z
1/2+x,1/2+y,z
1/2-x,1/2+y,1/2-z
1/2-x,1/2-y,-z
1/2+x,1/2-y,1/2+z
loop_
_atom_site_type_symbol
_atom_site_label
_atom_site_fract_x
_atom_site_fract_y
_atom_site_fract_z
Si Si1 0.576185 0.767426 0.734856
Si Si2 0.603608 0.967679 0.085743
Si Si3 0.699869 0.626374 0.546963
Si Si4 0.348510 0.134128 0.547121
Si Si5 0.184811 0.241438 0.164697
Si Si6 0.268353 0.536381 0.564419
Si Si7 0.954215 0.862534 0.492774
O O1 0.500000 0.791576 0.750000
O O2 0.619394 0.828870 0.680971
O O3 0.562717 0.712057 0.525199
O O4 0.617538 0.730557 0.969190
O O5 0.599254 0.907493 0.270661
O O6 0.685835 0.967231 0.055503
O O7 0.579205 0.979179 0.784774
O O8 0.775030 0.601635 0.464741
O O9 0.698758 0.692637 0.398223
O O10 0.710417 0.607056 0.854362
O O11 0.620506 0.606487 0.495827
O O12 0.327857 0.191408 0.719627
O O13 0.250000 0.250000 0.000000
O O14 0.294744 0.494265 0.811533
O O15 0.000000 0.877123 0.750000
O O16 0.000000 0.875845 0.250000
#
# Coordination Sequence:
#
# PCOD9301890 Si02
#       7
#     8   8   8   8   8   8   8
#     4  11  24  39  59  88 134 173 207 252 317 392
#     4   9  20  37  60  87 123 162 210 260 311 370
#     4  11  21  40  63  92 127 165 209 268 317 375
#     4  11  23  37  62  96 125 163 212 265 324 370
#     4  12  23  37  62  95 133 161 211 265 325 377
#     4   9  20  36  58  88 119 161 210 257 312 367
#     4  11  24  41  61  89 127 173 210 248 314 390
#
# _framework density 25.881982000000001
#
# number of rings (size 3 to 8) (size 9 to 14) (size 15 to 20)
#    0.000    1.429    2.857    3.000    2.000    5.714 
#    0.000    0.000    0.000    3.429    0.000    0.000 
#    0.000    0.000    0.000    0.000    0.000    0.000 
#
# Total GULP energy -156158.242270 kJ/mol
# GULP energy per Si atom -5577.080081 kJ/mol
# Density = 2.582307 g / cm^3
# Si number density = 25.881982 Si / 1000 Ang^3
#
#
#
# Elastic Constant Matrix: (Units=GPa)
#
#
# Indices 1 2 3 4 5 6 
#
# 1 158.1379 -4.2537 25.8177 0.0000 2.6372 0.0000
# 2 -4.2537 64.8671 4.5188 0.0000 -21.2113 0.0000
# 3 25.8177 4.5188 110.6289 0.0000 -26.0486 0.0000
# 4 0.0000 0.0000 0.0000 41.3892 0.0000 -5.6008
# 5 2.6372 -21.2113 -26.0486 0.0000 12.4305 0.0000
# 6 0.0000 0.0000 0.0000 -5.6008 0.0000 8.3229
#
#
#
# Elastic Compliance Matrix: (Units=1/GPa)
#
#
# Indices 1 2 3 4 5 6 
#
# 1 -0.000463 0.047163 0.033863 0.000000 0.151539 0.000000
# 2 0.047163 -0.292532 -0.234806 0.000000 -1.001228 0.000000
# 3 0.033863 -0.234806 -0.168395 0.000000 -0.760736 0.000000
# 4 0.000000 0.000000 0.000000 0.026581 0.000000 0.017888
# 5 0.151539 -1.001228 -0.760736 0.000000 -3.254350 0.000000
# 6 0.000000 0.000000 0.000000 0.017888 0.000000 0.132188
#
#
# Mechanical properties :
#
#
# Convention : Reuss Voigt Hill
#
# Bulk Modulus (GPa) = -1.30047 42.86661 20.78307
# Shear Modulus (GPa) = -1.42624 32.93192 15.75284
#
# Velocity S-wave (km/s) = -0.74314 3.57092 2.46974
# Velocity P-wave (km/s) = 1.11350 5.79658 4.02246
#
# Compressibility (1/GPa) = -0.76895048
#
# Stress axis : x y z
#
# Youngs Moduli (GPa) = -2157.78883 -3.41843 -5.93842
#
# Poissons Ratio (x) = 0.16122 0.20109
# Poissons Ratio (y) = 101.76818 -1.39438
# Poissons Ratio (z) = 73.06903 -0.80267
#
# Static dielectric constant tensor:
#      x y z
#    x 2.111030 0.000000 -0.017270 
#    y 0.000000 2.259560 0.000000 
#    z -0.017270 0.000000 2.142880 
# 
# From -- ./inp_files/13714.got.cif
#   From: 2010.05.17/outbox.cif.g08.bks.cpg/sg15_7_cif.got.tgz:13714.got - 2010.06.03 18:47:42.
