data_PCOD9301096
_publ_section_title
;
Structure prediction by ZEFSAII (Michael W. Deem and Ramdas Pophale) SiO2 
 PCOD9301096
Probable space group: C 2/C
;
_chemical_formula_sum "Si O2"
_cell_formula_units_Z 52
_cell_length_a 20.979453
_cell_length_b 24.862305
_cell_length_c 15.071893
_cell_angle_alpha 90.000000
_cell_angle_beta 18.611435
_cell_angle_gamma 90.000000
_cell_volume 2508.973659
_symmetry_space_group_name_H-M "C 2/C"
_symmetry_group_IT_number 15
_symmetry_cell_setting 'monoclinic'
loop_
_space_group_symop_operation_xyz
x,y,z
-x,y,1/2-z
-x,-y,-z
x,-y,1/2+z
1/2+x,1/2+y,z
1/2-x,1/2+y,1/2-z
1/2-x,1/2-y,-z
1/2+x,1/2-y,1/2+z
loop_
_atom_site_type_symbol
_atom_site_label
_atom_site_fract_x
_atom_site_fract_y
_atom_site_fract_z
Si Si1 0.000000 0.451865 0.250000
Si Si2 0.924584 0.991032 0.199689
Si Si3 0.976776 0.869893 0.382581
Si Si4 0.878212 0.092172 0.496216
Si Si5 0.033178 0.820125 0.485069
Si Si6 0.527016 0.126588 0.546498
Si Si7 0.387619 0.765376 0.484975
O O1 0.965333 0.413585 0.380246
O O2 0.801120 0.486720 0.495870
O O3 0.072826 0.029547 0.059192
O O4 0.939842 0.929862 0.211019
O O5 0.000000 0.000000 0.000000
O O6 0.076051 0.830682 0.325240
O O7 0.000000 0.853813 0.250000
O O8 0.741834 0.871620 0.716755
O O9 0.648145 0.105845 0.785481
O O10 0.000000 0.112201 0.250000
O O11 0.959716 0.122842 0.474790
O O12 0.159535 0.779328 0.378887
O O13 0.812869 0.795075 0.780800
O O14 0.484061 0.186637 0.639269
O O15 0.500000 0.743894 0.250000
#
# Coordination Sequence:
#
# PCOD9301096 Si02
#       7
#     4   8   8   8   8   8   8
#     4  12  22  42  66 100 134 170 208 278 322 400
#     4  12  23  42  65  95 135 174 219 264 335 385
#     4  11  26  47  64  91 135 181 224 276 311 393
#     4  12  22  37  64 100 132 171 206 270 329 401
#     4  11  23  40  62  93 134 164 224 265 329 387
#     4  11  23  40  68  98 136 169 216 261 340 387
#     4  11  20  37  64  99 132 169 204 276 340 393
#
# _framework density 20.725605999999999
#
# number of rings (size 3 to 8) (size 9 to 14) (size 15 to 20)
#    0.000    0.615    5.385    4.154    0.000    1.846 
#    0.000    3.077    0.000    0.000    0.000    0.000 
#    0.000    0.000    0.000    0.000    0.000    0.000 
#
# Total GULP energy -145389.656895 kJ/mol
# GULP energy per Si atom -5591.909881 kJ/mol
# Density = 2.067843 g / cm^3
# Si number density = 20.725606 Si / 1000 Ang^3
#
#
#
# Elastic Constant Matrix: (Units=GPa)
#
#
# Indices 1 2 3 4 5 6 
#
# 1 126.6039 31.1234 35.1476 0.0497 24.5662 -0.1225
# 2 31.1234 87.5782 12.3202 -0.2368 0.4771 0.2489
# 3 35.1476 12.3202 77.9325 -0.0613 10.4879 -0.0071
# 4 0.0497 -0.2368 -0.0613 -24.3106 -0.1270 57.3913
# 5 24.5662 0.4771 10.4879 -0.1270 43.5102 0.1997
# 6 -0.1225 0.2489 -0.0071 57.3913 0.1997 -39.0974
#
#
#
# Elastic Compliance Matrix: (Units=1/GPa)
#
#
# Indices 1 2 3 4 5 6 
#
# 1 0.010703 -0.003266 -0.003620 0.000040 -0.005134 -0.000021
# 2 -0.003266 0.012679 -0.000786 -0.000040 0.001894 0.000041
# 3 -0.003620 -0.000786 0.014792 0.000016 -0.001513 0.000019
# 4 0.000040 -0.000040 0.000016 0.016685 -0.000090 0.024492
# 5 -0.005134 0.001894 -0.001513 -0.000090 0.026226 0.000031
# 6 -0.000021 0.000041 0.000019 0.024492 0.000031 0.010375
#
#
# Mechanical properties :
#
#
# Convention : Reuss Voigt Hill
#
# Bulk Modulus (GPa) = 43.80260 49.92188 46.86224
# Shear Modulus (GPa) = 43.70107 10.25533 26.97820
#
# Velocity S-wave (km/s) = 4.59688 2.22686 3.61180
# Velocity P-wave (km/s) = 7.02535 5.54538 6.32877
#
# Compressibility (1/GPa) = 0.02282970
#
# Stress axis : x y z
#
# Youngs Moduli (GPa) = 93.43467 78.86957 67.60392
#
# Poissons Ratio (x) = 0.25760 0.24470
# Poissons Ratio (y) = 0.30517 0.05316
# Poissons Ratio (z) = 0.33819 0.06202
#
# Static dielectric constant tensor:
#      x y z
#    x 1.812360 -0.000060 -0.021900 
#    y -0.000060 1.766240 0.000080 
#    z -0.021900 0.000080 1.714350 
# 
# From -- ./inp_files/33628.got.cif
#   From: 2010.05.17/outbox.cif.g08.bks.cpg/sg15_17_cif.got.tgz:33628.got - 2010.06.03 18:47:42.
