data_PCOD9301035
_publ_section_title
;
Structure prediction by ZEFSAII (Michael W. Deem and Ramdas Pophale) SiO2 
 PCOD9301035
Probable space group: C 2/C
;
_chemical_formula_sum "Si O2"
_cell_formula_units_Z 48
_cell_length_a 25.363502
_cell_length_b 6.991299
_cell_length_c 11.831275
_cell_angle_alpha 90.000000
_cell_angle_beta 112.391767
_cell_angle_gamma 90.000000
_cell_volume 1939.781882
_symmetry_space_group_name_H-M "C 2/C"
_symmetry_group_IT_number 15
_symmetry_cell_setting 'monoclinic'
loop_
_space_group_symop_operation_xyz
x,y,z
-x,y,1/2-z
-x,-y,-z
x,-y,1/2+z
1/2+x,1/2+y,z
1/2-x,1/2+y,1/2-z
1/2-x,1/2-y,-z
1/2+x,1/2-y,1/2+z
loop_
_atom_site_type_symbol
_atom_site_label
_atom_site_fract_x
_atom_site_fract_y
_atom_site_fract_z
Si Si1 0.558597 0.747851 0.548120
Si Si2 0.670988 0.111731 0.244538
Si Si3 0.240022 0.154265 0.612923
Si Si4 0.155328 0.158833 0.954215
Si Si5 0.569636 0.716859 0.063213
Si Si6 0.434689 0.340966 0.691583
O O1 0.605440 0.856136 0.657953
O O2 0.493083 0.781873 0.526724
O O3 0.568564 0.517631 0.563915
O O4 0.567329 0.787593 0.421994
O O5 0.705914 0.215160 0.172727
O O6 0.679279 0.216177 0.372195
O O7 0.699897 0.906889 0.284855
O O8 0.250000 0.250000 0.500000
O O9 0.202103 0.966087 0.557691
O O10 0.110865 0.008492 0.861960
O O11 0.118482 0.273841 0.016325
O O12 0.576053 0.763292 0.199951
O O13 0.500000 0.417910 0.750000
#
# Coordination Sequence:
#
# PCOD9301035 Si02
#       6
#     8   8   8   8   8   8
#     4   9  17  30  57 100 141 182 228 289 333 407
#     4  12  24  43  68 100 142 181 246 297 352 419
#     4  12  27  47  68  97 136 191 244 298 360 420
#     4  11  20  36  64 104 142 183 231 282 350 418
#     4   9  16  29  58 103 146 178 229 271 345 421
#     4   9  15  28  54  96 144 176 231 276 322 413
#
# _framework density 24.745049000000002
#
# number of rings (size 3 to 8) (size 9 to 14) (size 15 to 20)
#    0.000    1.667    5.000    2.500    0.000    0.000 
#    0.000    0.000    0.000    0.000    4.333    8.167 
#    0.000    0.000    0.000    0.000    0.000    0.000 
#
# Total GULP energy -134468.355985 kJ/mol
# GULP energy per Si atom -5602.848166 kJ/mol
# Density = 2.468873 g / cm^3
# Si number density = 24.745049 Si / 1000 Ang^3
#
#
#
# Elastic Constant Matrix: (Units=GPa)
#
#
# Indices 1 2 3 4 5 6 
#
# 1 155.6680 43.6557 67.6054 0.0000 -7.8727 0.0000
# 2 43.6557 70.9972 31.2311 0.0000 -0.1699 0.0000
# 3 67.6054 31.2311 136.1284 0.0000 -5.6179 0.0000
# 4 0.0000 0.0000 0.0000 27.1319 0.0000 -3.8167
# 5 -7.8727 -0.1699 -5.6179 0.0000 70.2313 0.0000
# 6 0.0000 0.0000 0.0000 -3.8167 0.0000 20.9605
#
#
#
# Elastic Compliance Matrix: (Units=1/GPa)
#
#
# Indices 1 2 3 4 5 6 
#
# 1 0.009154 -0.004049 -0.003587 0.000000 0.000729 0.000000
# 2 -0.004049 0.017462 -0.002019 0.000000 -0.000573 0.000000
# 3 -0.003587 -0.002019 0.009606 0.000000 0.000361 0.000000
# 4 0.000000 0.000000 0.000000 0.037826 0.000000 0.006888
# 5 0.000729 -0.000573 0.000361 0.000000 0.014348 0.000000
# 6 0.000000 0.000000 0.000000 0.006888 0.000000 0.048963
#
#
# Mechanical properties :
#
#
# Convention : Reuss Voigt Hill
#
# Bulk Modulus (GPa) = 59.13291 71.97531 65.55411
# Shear Modulus (GPa) = 30.80608 38.35150 34.57879
#
# Velocity S-wave (km/s) = 3.53220 3.94110 3.74224
# Velocity P-wave (km/s) = 6.37055 7.06114 6.72472
#
# Compressibility (1/GPa) = 0.01691106
#
# Stress axis : x y z
#
# Youngs Moduli (GPa) = 109.23880 57.26864 104.10601
#
# Poissons Ratio (x) = 0.23189 0.37345
# Poissons Ratio (y) = 0.44233 0.21017
# Poissons Ratio (z) = 0.39186 0.11561
#
# Static dielectric constant tensor:
#      x y z
#    x 1.958150 0.000000 0.018370 
#    y 0.000000 2.033430 0.000000 
#    z 0.018370 0.000000 1.955510 
# 
# From -- ./inp_files/116783.got.cif
#   From: 2010.05.17/outbox.cif.g08.bks.cpg/sg15_59_cif.got.tgz:116783.got - 2010.06.03 18:47:42.
