data_PCOD9301340
_publ_section_title
;
Structure prediction by ZEFSAII (Michael W. Deem and Ramdas Pophale) SiO2 
 PCOD9301340
Probable space group: C 2/C
;
_chemical_formula_sum "Si O2"
_cell_formula_units_Z 36
_cell_length_a 7.967148
_cell_length_b 15.857423
_cell_length_c 20.180476
_cell_angle_alpha 90.000000
_cell_angle_beta 141.222042
_cell_angle_gamma 90.000000
_cell_volume 1596.805619
_symmetry_space_group_name_H-M "C 2/C"
_symmetry_group_IT_number 15
_symmetry_cell_setting 'monoclinic'
loop_
_space_group_symop_operation_xyz
x,y,z
-x,y,1/2-z
-x,-y,-z
x,-y,1/2+z
1/2+x,1/2+y,z
1/2-x,1/2+y,1/2-z
1/2-x,1/2-y,-z
1/2+x,1/2-y,1/2+z
loop_
_atom_site_type_symbol
_atom_site_label
_atom_site_fract_x
_atom_site_fract_y
_atom_site_fract_z
Si Si1 0.004830 0.642093 0.390567
Si Si2 0.935581 0.080871 0.906378
Si Si3 0.000000 0.555369 0.250000
Si Si4 0.106967 0.204936 0.710834
Si Si5 0.716186 0.750954 0.409919
O O1 0.245819 0.581400 0.486641
O O2 0.907419 0.604492 0.288700
O O3 0.091997 0.735199 0.391482
O O4 0.831438 0.671985 0.401729
O O5 0.882465 0.113138 0.816003
O O6 0.831609 0.158944 0.919523
O O7 0.752621 0.999079 0.854507
O O8 0.401483 0.243307 0.797218
O O9 0.000000 0.202821 0.750000
O O10 0.750000 0.750000 0.500000
#
# Coordination Sequence:
#
# PCOD9301340 Si02
#       5
#     8   8   4   8   8
#     4  11  23  40  69  98 134 187 229 280 346 406
#     4  11  22  43  65  98 138 184 225 280 349 400
#     4  12  24  44  66  98 152 180 214 288 352 422
#     4  11  20  41  71 100 131 176 238 287 331 400
#     4  11  22  41  73 102 134 174 243 287 332 402
#
# _framework density 22.545010000000001
#
# number of rings (size 3 to 8) (size 9 to 14) (size 15 to 20)
#    0.000    0.889    3.333    8.000    0.000    0.000 
#    0.000    3.333    0.000    0.000    0.000    0.000 
#    0.000    0.000    0.000    0.000    0.000    0.000 
#
# Total GULP energy -100276.685127 kJ/mol
# GULP energy per Si atom -5570.926951 kJ/mol
# Density = 2.249370 g / cm^3
# Si number density = 22.545010 Si / 1000 Ang^3
#
#
#
# Elastic Constant Matrix: (Units=GPa)
#
#
# Indices 1 2 3 4 5 6 
#
# 1 156.0806 37.6692 65.6774 0.0003 -30.4148 0.0001
# 2 37.6692 59.1610 26.7928 0.0002 -5.5611 0.0000
# 3 65.6774 26.7928 114.0675 0.0002 -17.1354 0.0001
# 4 0.0003 0.0002 0.0002 6.4583 0.0002 -4.3131
# 5 -30.4148 -5.5611 -17.1354 0.0002 38.6884 0.0001
# 6 0.0001 0.0000 0.0001 -4.3131 0.0001 43.1118
#
#
#
# Elastic Compliance Matrix: (Units=1/GPa)
#
#
# Indices 1 2 3 4 5 6 
#
# 1 0.010212 -0.004133 -0.004063 0.000000 0.005635 0.000000
# 2 -0.004133 0.020611 -0.002683 0.000000 -0.001475 0.000000
# 3 -0.004063 -0.002683 0.011997 0.000000 0.001734 0.000000
# 4 0.000000 0.000000 0.000000 0.165927 -0.000002 0.016600
# 5 0.005635 -0.001475 0.001734 -0.000002 0.030833 0.000000
# 6 0.000000 0.000000 0.000000 0.016600 0.000000 0.024856
#
#
# Mechanical properties :
#
#
# Convention : Reuss Voigt Hill
#
# Bulk Modulus (GPa) = 47.47791 65.50977 56.49384
# Shear Modulus (GPa) = 17.05244 30.92968 23.99106
#
# Velocity S-wave (km/s) = 2.75321 3.70795 3.26566
# Velocity P-wave (km/s) = 5.58675 6.88856 6.27152
#
# Compressibility (1/GPa) = 0.02106243
#
# Stress axis : x y z
#
# Youngs Moduli (GPa) = 97.92565 48.51796 83.35684
#
# Poissons Ratio (x) = 0.20051 0.33865
# Poissons Ratio (y) = 0.40469 0.22367
# Poissons Ratio (z) = 0.39783 0.13019
#
# Static dielectric constant tensor:
#      x y z
#    x 1.887180 0.000000 0.011650 
#    y 0.000000 1.901330 0.000000 
#    z 0.011650 0.000000 1.947660 
# 
# From -- ./inp_files/231648.got.cif
#   From: 2010.05.17/outbox.cif.g08.bks.cpg/sg15_116_cif.got.tgz:231648.got - 2010.06.03 18:47:42.
