data_PCOD9301165
_publ_section_title
;
Structure prediction by ZEFSAII (Michael W. Deem and Ramdas Pophale) SiO2 
 PCOD9301165
Probable space group: C 2/C
;
_chemical_formula_sum "Si O2"
_cell_formula_units_Z 48
_cell_length_a 8.916911
_cell_length_b 18.190713
_cell_length_c 16.271964
_cell_angle_alpha 90.000000
_cell_angle_beta 69.049230
_cell_angle_gamma 90.000000
_cell_volume 2464.897838
_symmetry_space_group_name_H-M "C 2/C"
_symmetry_group_IT_number 15
_symmetry_cell_setting 'monoclinic'
loop_
_space_group_symop_operation_xyz
x,y,z
-x,y,1/2-z
-x,-y,-z
x,-y,1/2+z
1/2+x,1/2+y,z
1/2-x,1/2+y,1/2-z
1/2-x,1/2-y,-z
1/2+x,1/2-y,1/2+z
loop_
_atom_site_type_symbol
_atom_site_label
_atom_site_fract_x
_atom_site_fract_y
_atom_site_fract_z
Si Si1 0.501881 0.411921 0.342152
Si Si2 0.938635 0.585077 0.007999
Si Si3 0.350116 0.568660 0.318140
Si Si4 0.752241 0.163712 0.013721
Si Si5 0.834598 0.589656 0.311081
Si Si6 0.361677 0.074295 0.840869
O O1 0.500000 0.378951 0.250000
O O2 0.427080 0.494034 0.341493
O O3 0.387903 0.372509 0.429892
O O4 0.682763 0.411793 0.341825
O O5 0.774731 0.596464 0.090768
O O6 0.081187 0.632349 0.017950
O O7 0.900816 0.606425 0.921895
O O8 0.000000 0.500000 0.000000
O O9 0.500000 0.613283 0.250000
O O10 0.246224 0.559650 0.256046
O O11 0.766816 0.138962 0.106440
O O12 0.750000 0.250000 0.000000
O O13 0.875055 0.514052 0.349804
O O14 0.000000 0.627352 0.250000
O O15 0.500000 0.096357 0.750000
#
# Coordination Sequence:
#
# PCOD9301165 Si02
#       6
#     8   8   8   8   8   8
#     4  11  22  40  64  99 129 161 214 282 337 393
#     4  12  21  39  65  96 129 168 218 281 330 384
#     4  11  21  35  65 103 127 157 216 288 336 385
#     4  12  27  43  63  93 136 183 219 266 342 423
#     4  11  20  38  65  95 128 166 216 270 337 388
#     4  11  21  36  66 101 128 158 215 287 342 378
#
# _framework density 19.473421999999999
#
# number of rings (size 3 to 8) (size 9 to 14) (size 15 to 20)
#    0.000    0.667    8.333    2.000    2.333    2.000 
#    0.000    0.833    0.000    0.000    0.000    0.000 
#    0.000    0.000    0.000    0.000    0.000    0.000 
#
# Total GULP energy -133817.551989 kJ/mol
# GULP energy per Si atom -5575.731333 kJ/mol
# Density = 1.942910 g / cm^3
# Si number density = 19.473422 Si / 1000 Ang^3
#
#
#
# Elastic Constant Matrix: (Units=GPa)
#
#
# Indices 1 2 3 4 5 6 
#
# 1 135.2542 23.1268 61.9266 0.0000 -15.3440 0.0000
# 2 23.1268 50.4197 27.7938 0.0000 -10.4972 0.0000
# 3 61.9266 27.7938 173.5113 0.0000 -24.4521 0.0000
# 4 0.0000 0.0000 0.0000 8.6352 0.0000 -1.1550
# 5 -15.3440 -10.4972 -24.4521 0.0000 54.0342 0.0000
# 6 0.0000 0.0000 0.0000 -1.1550 0.0000 13.1255
#
#
#
# Elastic Compliance Matrix: (Units=1/GPa)
#
#
# Indices 1 2 3 4 5 6 
#
# 1 0.009182 -0.002513 -0.002751 0.000000 0.000874 0.000000
# 2 -0.002513 0.022855 -0.002391 0.000000 0.002644 0.000000
# 3 -0.002751 -0.002391 0.007426 0.000000 0.002115 0.000000
# 4 0.000000 0.000000 0.000000 0.117184 0.000000 0.010312
# 5 0.000874 0.002644 0.002115 0.000000 0.020226 0.000000
# 6 0.000000 0.000000 0.000000 0.010312 0.000000 0.077095
#
#
# Mechanical properties :
#
#
# Convention : Reuss Voigt Hill
#
# Bulk Modulus (GPa) = 41.40487 64.98662 53.19574
# Shear Modulus (GPa) = 18.02899 31.58151 24.80525
#
# Velocity S-wave (km/s) = 3.04604 4.03150 3.57291
# Velocity P-wave (km/s) = 5.80341 7.42395 6.66313
#
# Compressibility (1/GPa) = 0.02415175
#
# Stress axis : x y z
#
# Youngs Moduli (GPa) = 108.90788 43.75412 134.65502
#
# Poissons Ratio (x) = 0.10995 0.37049
# Poissons Ratio (y) = 0.27368 0.32203
# Poissons Ratio (z) = 0.29965 0.10464
#
# Static dielectric constant tensor:
#      x y z
#    x 1.742870 0.000000 0.007260 
#    y 0.000000 1.666670 0.000000 
#    z 0.007260 0.000000 1.729770 
# 
# From -- ./inp_files/135924.got.cif
#   From: 2010.05.17/outbox.cif.g08.bks.cpg/sg15_68_cif.got.tgz:135924.got - 2010.06.03 18:47:42.
