data_PCOD9301964
_publ_section_title
;
Structure prediction by ZEFSAII (Michael W. Deem and Ramdas Pophale) SiO2 
 PCOD9301964
Probable space group: C 2/C
;
_chemical_formula_sum "Si O2"
_cell_formula_units_Z 52
_cell_length_a 8.953411
_cell_length_b 14.359708
_cell_length_c 29.568041
_cell_angle_alpha 90.000000
_cell_angle_beta 36.836024
_cell_angle_gamma 90.000000
_cell_volume 2279.110475
_symmetry_space_group_name_H-M "C 2/C"
_symmetry_group_IT_number 15
_symmetry_cell_setting 'monoclinic'
loop_
_space_group_symop_operation_xyz
x,y,z
-x,y,1/2-z
-x,-y,-z
x,-y,1/2+z
1/2+x,1/2+y,z
1/2-x,1/2+y,1/2-z
1/2-x,1/2-y,-z
1/2+x,1/2-y,1/2+z
loop_
_atom_site_type_symbol
_atom_site_label
_atom_site_fract_x
_atom_site_fract_y
_atom_site_fract_z
Si Si1 0.000000 0.350919 0.750000
Si Si2 0.082046 0.030011 0.402623
Si Si3 0.720400 0.608102 0.950233
Si Si4 0.236691 0.559507 0.817638
Si Si5 0.753763 0.239042 0.052572
Si Si6 0.774607 0.446429 0.077914
Si Si7 0.261676 0.852729 0.714035
O O1 0.205516 0.404726 0.669171
O O2 0.182657 0.316571 0.747887
O O3 0.835223 0.074881 0.485264
O O4 0.177786 0.970418 0.422090
O O5 0.980669 0.969081 0.386301
O O6 0.006800 0.629721 0.871889
O O7 0.505081 0.681858 0.998300
O O8 0.500000 0.609556 0.750000
O O9 0.231269 0.519431 0.869578
O O10 0.228480 0.466869 0.788729
O O11 0.788949 0.335441 0.070367
O O12 0.500959 0.186843 0.128714
O O13 0.750000 0.250000 0.000000
O O14 0.000000 0.500000 0.000000
O O15 0.000000 0.829441 0.750000
#
# Coordination Sequence:
#
# PCOD9301964 Si02
#       7
#     4   8   8   8   8   8   8
#     4  12  22  42  80 106 148 202 248 298 382 452
#     4  11  21  40  70 102 138 188 243 288 362 444
#     4  11  21  43  70 100 143 187 238 303 357 439
#     4  11  23  45  71 105 146 184 244 300 368 452
#     4  12  25  47  71 106 147 195 249 309 375 441
#     4  12  25  44  72 104 136 191 251 302 370 446
#     4  11  24  47  75 111 151 196 244 311 374 448
#
# _framework density 22.815919000000001
#
# number of rings (size 3 to 8) (size 9 to 14) (size 15 to 20)
#    0.000    0.615    6.154    3.692    0.000    0.615 
#    5.538    0.000    0.000    0.000    0.000    0.000 
#    0.000    0.000    0.000    0.000    0.000    0.000 
#
# Total GULP energy -144903.720496 kJ/mol
# GULP energy per Si atom -5573.220019 kJ/mol
# Density = 2.276399 g / cm^3
# Si number density = 22.815919 Si / 1000 Ang^3
#
#
#
# Elastic Constant Matrix: (Units=GPa)
#
#
# Indices 1 2 3 4 5 6 
#
# 1 134.7969 16.8471 51.4286 -0.0016 -8.7638 0.0015
# 2 16.8471 43.9994 25.3535 -0.0013 -21.8979 0.0010
# 3 51.4286 25.3535 141.6227 -0.0025 -40.2866 0.0048
# 4 -0.0016 -0.0013 -0.0025 26.0408 0.0037 2.6216
# 5 -8.7638 -21.8979 -40.2866 0.0037 63.5499 -0.0024
# 6 0.0015 0.0010 0.0048 2.6216 -0.0024 23.7551
#
#
#
# Elastic Compliance Matrix: (Units=1/GPa)
#
#
# Indices 1 2 3 4 5 6 
#
# 1 0.008848 -0.002328 -0.003267 0.000000 -0.001653 0.000000
# 2 -0.002328 0.028925 -0.001938 0.000000 0.008417 0.000000
# 3 -0.003267 -0.001938 0.010097 0.000000 0.005282 -0.000001
# 4 0.000000 0.000000 0.000000 0.038833 -0.000002 -0.004286
# 5 -0.001653 0.008417 0.005282 -0.000002 0.021757 0.000001
# 6 0.000000 0.000000 -0.000001 -0.004286 0.000001 0.042569
#
#
# Mechanical properties :
#
#
# Convention : Reuss Voigt Hill
#
# Bulk Modulus (GPa) = 30.48422 56.40861 43.44642
# Shear Modulus (GPa) = 28.24378 37.78847 33.01612
#
# Velocity S-wave (km/s) = 3.52219 4.07410 3.80816
# Velocity P-wave (km/s) = 5.47093 6.84895 6.19835
#
# Compressibility (1/GPa) = 0.03280386
#
# Stress axis : x y z
#
# Youngs Moduli (GPa) = 113.01505 34.57213 99.04046
#
# Poissons Ratio (x) = 0.08049 0.32352
# Poissons Ratio (y) = 0.26313 0.19198
# Poissons Ratio (z) = 0.36917 0.06701
#
# Static dielectric constant tensor:
#      x y z
#    x 2.043190 0.000020 -0.176890 
#    y 0.000020 1.774660 0.000010 
#    z -0.176890 0.000010 1.837330 
# 
# From -- ./inp_files/308198.got.cif
#   From: 2010.05.17/outbox.cif.g08.bks.cpg/sg15_155_cif.got.tgz:308198.got - 2010.06.03 18:47:42.
