data_PCOD9301967
_publ_section_title
;
Structure prediction by ZEFSAII (Michael W. Deem and Ramdas Pophale) SiO2 
 PCOD9301967
Probable space group: C 2/C
;
_chemical_formula_sum "Si O2"
_cell_formula_units_Z 48
_cell_length_a 31.657150
_cell_length_b 8.397925
_cell_length_c 17.548048
_cell_angle_alpha 90.000000
_cell_angle_beta 152.161570
_cell_angle_gamma 90.000000
_cell_volume 2178.566199
_symmetry_space_group_name_H-M "C 2/C"
_symmetry_group_IT_number 15
_symmetry_cell_setting 'monoclinic'
loop_
_space_group_symop_operation_xyz
x,y,z
-x,y,1/2-z
-x,-y,-z
x,-y,1/2+z
1/2+x,1/2+y,z
1/2-x,1/2+y,1/2-z
1/2-x,1/2-y,-z
1/2+x,1/2-y,1/2+z
loop_
_atom_site_type_symbol
_atom_site_label
_atom_site_fract_x
_atom_site_fract_y
_atom_site_fract_z
Si Si1 0.839567 0.807034 0.691877
Si Si2 0.215385 0.048503 0.773464
Si Si3 0.413976 0.603427 0.162422
Si Si4 0.355349 0.179530 0.438941
Si Si5 0.595863 0.988681 0.113709
Si Si6 0.768429 0.179606 0.446051
O O1 0.750000 0.750000 0.500000
O O2 0.919556 0.834624 0.758270
O O3 0.863564 0.679688 0.795341
O O4 0.824385 0.968470 0.714459
O O5 0.151222 0.156587 0.619210
O O6 0.289524 0.173120 0.923762
O O7 0.259532 0.909546 0.794325
O O8 0.500000 0.548966 0.250000
O O9 0.381594 0.758871 0.063743
O O10 0.341041 0.461103 0.053261
O O11 0.413775 0.046546 0.488820
O O12 0.671479 0.109506 0.266080
O O13 0.500000 0.000000 0.000000
O O14 0.750000 0.250000 0.500000
#
# Coordination Sequence:
#
# PCOD9301967 Si02
#       6
#     8   8   8   8   8   8
#     4  12  21  43  73  97 137 189 230 281 355 419
#     4  11  21  40  70  93 131 183 228 282 346 416
#     4  12  25  44  68 103 141 183 234 292 349 416
#     4  11  23  41  63 103 139 173 235 288 344 407
#     4  11  24  43  67 101 138 183 234 283 349 419
#     4  11  22  44  68  97 134 181 234 282 347 415
#
# _framework density 22.032838999999999
#
# number of rings (size 3 to 8) (size 9 to 14) (size 15 to 20)
#    0.000    0.667    5.000    4.000    0.000    0.000 
#    6.000    2.500    0.000    0.000    0.000    0.000 
#    0.000    0.000    0.000    0.000    0.000    0.000 
#
# Total GULP energy -133847.266233 kJ/mol
# GULP energy per Si atom -5576.969426 kJ/mol
# Density = 2.198269 g / cm^3
# Si number density = 22.032839 Si / 1000 Ang^3
#
#
#
# Elastic Constant Matrix: (Units=GPa)
#
#
# Indices 1 2 3 4 5 6 
#
# 1 162.8017 55.4712 19.7647 0.0000 10.8430 0.0000
# 2 55.4712 114.6537 25.0031 0.0000 -6.5695 0.0000
# 3 19.7647 25.0031 35.5381 0.0000 18.8251 0.0000
# 4 0.0000 0.0000 0.0000 17.3333 0.0000 -8.9572
# 5 10.8430 -6.5695 18.8251 0.0000 33.5041 0.0000
# 6 0.0000 0.0000 0.0000 -8.9572 0.0000 59.6286
#
#
#
# Elastic Compliance Matrix: (Units=1/GPa)
#
#
# Indices 1 2 3 4 5 6 
#
# 1 0.007693 -0.004008 0.000394 0.000000 -0.003497 0.000000
# 2 -0.004008 0.014530 -0.014507 0.000000 0.012297 0.000000
# 3 0.000394 -0.014507 0.056524 0.000000 -0.034732 0.000000
# 4 0.000000 0.000000 0.000000 0.062548 0.000000 0.009396
# 5 -0.003497 0.012297 -0.034732 0.000000 0.052905 0.000000
# 6 0.000000 0.000000 0.000000 0.009396 0.000000 0.018182
#
#
# Mechanical properties :
#
#
# Convention : Reuss Voigt Hill
#
# Bulk Modulus (GPa) = 23.52730 57.05238 40.28984
# Shear Modulus (GPa) = 19.02639 36.27686 27.65163
#
# Velocity S-wave (km/s) = 2.94181 4.06210 3.54647
# Velocity P-wave (km/s) = 4.71598 6.92469 5.92418
#
# Compressibility (1/GPa) = 0.04250381
#
# Stress axis : x y z
#
# Youngs Moduli (GPa) = 129.98289 68.82532 17.69151
#
# Poissons Ratio (x) = 0.27588 -0.00697
# Poissons Ratio (y) = 0.52103 0.25665
# Poissons Ratio (z) = -0.05121 0.99846
#
# Static dielectric constant tensor:
#      x y z
#    x 1.876160 0.000000 -0.045290 
#    y 0.000000 1.869070 0.000000 
#    z -0.045290 0.000000 1.887430 
# 
# From -- ./inp_files/224702.got.cif
#   From: 2010.05.17/outbox.cif.g08.bks.cpg/sg15_113_cif.got.tgz:224702.got - 2010.06.03 18:47:42.
