data_PCOD9301968
_publ_section_title
;
Structure prediction by ZEFSAII (Michael W. Deem and Ramdas Pophale) SiO2 
 PCOD9301968
Probable space group: C 2/C
;
_chemical_formula_sum "Si O2"
_cell_formula_units_Z 48
_cell_length_a 17.505858
_cell_length_b 9.450973
_cell_length_c 17.751909
_cell_angle_alpha 90.000000
_cell_angle_beta 128.040505
_cell_angle_gamma 90.000000
_cell_volume 2313.114248
_symmetry_space_group_name_H-M "C 2/C"
_symmetry_group_IT_number 15
_symmetry_cell_setting 'monoclinic'
loop_
_space_group_symop_operation_xyz
x,y,z
-x,y,1/2-z
-x,-y,-z
x,-y,1/2+z
1/2+x,1/2+y,z
1/2-x,1/2+y,1/2-z
1/2-x,1/2-y,-z
1/2+x,1/2-y,1/2+z
loop_
_atom_site_type_symbol
_atom_site_label
_atom_site_fract_x
_atom_site_fract_y
_atom_site_fract_z
Si Si1 0.019303 0.661128 0.173853
Si Si2 0.716508 0.734034 0.712945
Si Si3 0.951708 0.419057 0.039190
Si Si4 0.752218 0.492339 0.352692
Si Si5 0.084199 0.932121 0.363011
Si Si6 0.924594 0.895605 0.494953
O O1 0.124581 0.699208 0.203691
O O2 0.000000 0.667607 0.250000
O O3 0.990175 0.504421 0.132882
O O4 0.948018 0.791833 0.109507
O O5 0.773191 0.629472 0.803532
O O6 0.774618 0.865350 0.711380
O O7 0.664572 0.640870 0.615645
O O8 0.972198 0.255441 0.042719
O O9 0.839098 0.451454 0.957063
O O10 0.000000 0.500000 0.000000
O O11 0.675283 0.425129 0.363033
O O12 0.103652 0.043163 0.440897
O O13 0.000000 0.968757 0.250000
O O14 0.000000 0.000000 0.500000
#
# Coordination Sequence:
#
# PCOD9301968 Si02
#       6
#     8   8   8   8   8   8
#     4  11  21  45  67  92 136 176 218 275 340 396
#     4  11  23  44  65  96 134 174 222 280 330 414
#     4  11  23  41  64  96 134 170 219 281 328 399
#     4  11  24  43  66  95 133 174 228 277 333 405
#     4  11  22  42  67  94 132 178 227 274 334 407
#     4  11  21  40  70  94 129 182 220 266 346 399
#
# _framework density 20.751245999999998
#
# number of rings (size 3 to 8) (size 9 to 14) (size 15 to 20)
#    0.000    1.000    8.333    0.000    0.000    8.000 
#    6.000    0.000    0.000    0.000    0.000    0.000 
#    0.000    0.000    0.000    0.000    0.000    0.000 
#
# Total GULP energy -133735.987886 kJ/mol
# GULP energy per Si atom -5572.332829 kJ/mol
# Density = 2.070402 g / cm^3
# Si number density = 20.751246 Si / 1000 Ang^3
#
#
#
# Elastic Constant Matrix: (Units=GPa)
#
#
# Indices 1 2 3 4 5 6 
#
# 1 47.3767 0.1423 -7.0899 0.0000 -7.7719 0.0000
# 2 0.1423 111.7817 8.8190 0.0000 -4.2101 0.0000
# 3 -7.0899 8.8190 43.9219 0.0000 -16.8821 0.0000
# 4 0.0000 0.0000 0.0000 42.1966 0.0000 -9.9436
# 5 -7.7719 -4.2101 -16.8821 0.0000 27.4865 0.0000
# 6 0.0000 0.0000 0.0000 -9.9436 0.0000 27.4269
#
#
#
# Elastic Compliance Matrix: (Units=1/GPa)
#
#
# Indices 1 2 3 4 5 6 
#
# 1 0.024407 -0.000256 0.008677 0.000000 0.012191 0.000000
# 2 -0.000256 0.009095 -0.001780 0.000000 0.000227 0.000000
# 3 0.008677 -0.001780 0.033202 0.000000 0.022574 0.000000
# 4 0.000000 0.000000 0.000000 0.025912 0.000000 0.009395
# 5 0.012191 0.000227 0.022574 0.000000 0.053728 0.000000
# 6 0.000000 0.000000 0.000000 0.009395 0.000000 0.039867
#
#
# Mechanical properties :
#
#
# Convention : Reuss Voigt Hill
#
# Bulk Modulus (GPa) = 12.50233 22.98033 17.74133
# Shear Modulus (GPa) = 25.05103 32.83592 28.94347
#
# Velocity S-wave (km/s) = 3.47826 3.98220 3.73873
# Velocity P-wave (km/s) = 4.70839 5.67822 5.21589
#
# Compressibility (1/GPa) = 0.07998511
#
# Stress axis : x y z
#
# Youngs Moduli (GPa) = 40.97243 109.94633 30.11830
#
# Poissons Ratio (x) = 0.02820 -0.26134
# Poissons Ratio (y) = 0.01051 0.05362
# Poissons Ratio (z) = -0.35552 0.19574
#
# Static dielectric constant tensor:
#      x y z
#    x 1.804860 0.000000 -0.067780 
#    y 0.000000 1.407140 0.000000 
#    z -0.067780 0.000000 1.802150 
# 
# From -- ./inp_files/209298.got.cif
#   From: 2010.05.17/outbox.cif.g08.bks.cpg/sg15_105_cif.got.tgz:209298.got - 2010.06.03 18:47:42.
