data_PCOD9301486
_publ_section_title
;
Structure prediction by ZEFSAII (Michael W. Deem and Ramdas Pophale) SiO2 
 PCOD9301486
Probable space group: C 2/C
;
_chemical_formula_sum "Si O2"
_cell_formula_units_Z 56
_cell_length_a 16.843092
_cell_length_b 9.823403
_cell_length_c 22.654649
_cell_angle_alpha 90.000000
_cell_angle_beta 129.527279
_cell_angle_gamma 90.000000
_cell_volume 2891.190070
_symmetry_space_group_name_H-M "C 2/C"
_symmetry_group_IT_number 15
_symmetry_cell_setting 'monoclinic'
loop_
_space_group_symop_operation_xyz
x,y,z
-x,y,1/2-z
-x,-y,-z
x,-y,1/2+z
1/2+x,1/2+y,z
1/2-x,1/2+y,1/2-z
1/2-x,1/2-y,-z
1/2+x,1/2-y,1/2+z
loop_
_atom_site_type_symbol
_atom_site_label
_atom_site_fract_x
_atom_site_fract_y
_atom_site_fract_z
Si Si1 0.071425 0.722830 0.159034
Si Si2 0.497668 0.056895 0.818903
Si Si3 0.106613 0.074656 0.897382
Si Si4 0.207102 0.597978 0.986070
Si Si5 0.550825 0.651928 0.209447
Si Si6 0.306776 0.584468 0.694784
Si Si7 0.112702 0.445799 0.569168
O O1 0.149793 0.808633 0.237156
O O2 0.106001 0.683884 0.109499
O O3 0.053612 0.575479 0.178690
O O4 0.962163 0.803165 0.109828
O O5 0.500000 0.041837 0.750000
O O6 0.613173 0.072876 0.897734
O O7 0.439866 0.196275 0.809329
O O8 0.139262 0.106586 0.844362
O O9 0.030312 0.944352 0.861985
O O10 0.207598 0.021349 0.978527
O O11 0.250000 0.750000 0.000000
O O12 0.166374 0.591216 0.033425
O O13 0.500000 0.667127 0.250000
O O14 0.652968 0.563994 0.264981
O O15 0.185364 0.565283 0.629945
O O16 0.000000 0.500000 0.500000
#
# Coordination Sequence:
#
# PCOD9301486 Si02
#       7
#     8   8   8   8   8   8   8
#     4  11  22  41  63  96 130 163 214 268 323 376
#     4  11  21  34  61  96 129 157 217 270 307 371
#     4   9  18  37  66  91 121 166 215 262 316 378
#     4  11  22  42  66  92 124 172 220 255 318 388
#     4   8  15  31  57  90 118 157 204 260 307 362
#     4   9  20  39  66  87 125 174 214 251 321 395
#     4  11  24  44  62  93 136 174 202 265 336 383
#
# _framework density 19.369185999999999
#
# number of rings (size 3 to 8) (size 9 to 14) (size 15 to 20)
#    0.000    2.000    2.857    2.143    2.000    1.714 
#    2.571    0.714    0.000    0.000    0.000    0.000 
#    0.000    0.000    0.000    0.000    0.000    0.000 
#
# Total GULP energy -156201.263113 kJ/mol
# GULP energy per Si atom -5578.616540 kJ/mol
# Density = 1.932510 g / cm^3
# Si number density = 19.369186 Si / 1000 Ang^3
#
#
#
# Elastic Constant Matrix: (Units=GPa)
#
#
# Indices 1 2 3 4 5 6 
#
# 1 71.5686 32.1973 36.0996 0.0000 5.2030 0.0000
# 2 32.1973 116.3195 33.4749 0.0000 6.2361 0.0000
# 3 36.0996 33.4749 122.8717 0.0000 12.1650 0.0000
# 4 0.0000 0.0000 0.0000 25.2809 0.0000 -3.9503
# 5 5.2030 6.2361 12.1650 0.0000 27.8730 0.0000
# 6 0.0000 0.0000 0.0000 -3.9503 0.0000 27.9311
#
#
#
# Elastic Compliance Matrix: (Units=1/GPa)
#
#
# Indices 1 2 3 4 5 6 
#
# 1 0.017775 -0.003689 -0.004150 0.000000 -0.000681 0.000000
# 2 -0.003689 0.010122 -0.001586 0.000000 -0.000884 0.000000
# 3 -0.004150 -0.001586 0.010115 0.000000 -0.003285 0.000000
# 4 0.000000 0.000000 0.000000 0.040449 0.000000 0.005721
# 5 -0.000681 -0.000884 -0.003285 0.000000 0.037636 0.000000
# 6 0.000000 0.000000 0.000000 0.005721 0.000000 0.036612
#
#
# Mechanical properties :
#
#
# Convention : Reuss Voigt Hill
#
# Bulk Modulus (GPa) = 52.18743 57.14482 54.66613
# Shear Modulus (GPa) = 28.09826 30.14951 29.12389
#
# Velocity S-wave (km/s) = 3.81290 3.94962 3.88186
# Velocity P-wave (km/s) = 6.81075 7.09692 6.95531
#
# Compressibility (1/GPa) = 0.01916170
#
# Stress axis : x y z
#
# Youngs Moduli (GPa) = 56.25857 98.79376 98.86164
#
# Poissons Ratio (x) = 0.36449 0.41025
# Poissons Ratio (y) = 0.20756 0.15682
# Poissons Ratio (z) = 0.23346 0.15671
#
# Static dielectric constant tensor:
#      x y z
#    x 1.739640 0.000000 -0.046530 
#    y 0.000000 1.675690 0.000000 
#    z -0.046530 0.000000 1.750430 
# 
# From -- ./inp_files/276641.got.cif
#   From: 2010.05.17/outbox.cif.g08.bks.cpg/sg15_139_cif.got.tgz:276641.got - 2010.06.03 18:47:42.
