data_PCOD9301984
_publ_section_title
;
Structure prediction by ZEFSAII (Michael W. Deem and Ramdas Pophale) SiO2 
 PCOD9301984
Probable space group: C 2/C
;
_chemical_formula_sum "Si O2"
_cell_formula_units_Z 40
_cell_length_a 9.654371
_cell_length_b 11.960183
_cell_length_c 13.305327
_cell_angle_alpha 90.000000
_cell_angle_beta 109.475720
_cell_angle_gamma 90.000000
_cell_volume 1448.435100
_symmetry_space_group_name_H-M "C 2/C"
_symmetry_group_IT_number 15
_symmetry_cell_setting 'monoclinic'
loop_
_space_group_symop_operation_xyz
x,y,z
-x,y,1/2-z
-x,-y,-z
x,-y,1/2+z
1/2+x,1/2+y,z
1/2-x,1/2+y,1/2-z
1/2-x,1/2-y,-z
1/2+x,1/2-y,1/2+z
loop_
_atom_site_type_symbol
_atom_site_label
_atom_site_fract_x
_atom_site_fract_y
_atom_site_fract_z
Si Si1 0.274855 0.770676 0.905563
Si Si2 0.946593 0.168738 0.628702
Si Si3 0.717615 0.378223 0.585651
Si Si4 0.635912 0.022969 0.210661
Si Si5 0.988822 0.715486 0.847794
O O1 0.402340 0.694935 0.889832
O O2 0.311065 0.891516 0.860601
O O3 0.119660 0.741117 0.792012
O O4 0.349697 0.794025 0.042200
O O5 0.847419 0.283696 0.609527
O O6 0.842150 0.088442 0.537933
O O7 0.000000 0.129766 0.750000
O O8 0.747347 0.477073 0.670458
O O9 0.587046 0.309874 0.605425
O O10 0.500000 0.059570 0.250000
O O11 0.581801 0.906513 0.153464
#
# Coordination Sequence:
#
# PCOD9301984 Si02
#       5
#     8   8   8   8   8
#     4  12  22  41  69 108 152 197 248 327 379 449
#     4  11  21  40  73 101 144 206 245 304 399 446
#     4  11  21  41  75 103 147 203 248 316 385 450
#     4  11  23  44  73 109 153 201 254 308 388 468
#     4  11  23  40  76 109 146 199 251 313 385 455
#
# _framework density 27.616012999999999
#
# number of rings (size 3 to 8) (size 9 to 14) (size 15 to 20)
#    0.000    0.800    8.000    0.000    0.000    0.800 
#    0.000    0.000   26.400   15.600    0.000    0.000 
#    0.000    0.000    0.000    0.000    0.000    0.000 
#
# Total GULP energy -111636.999686 kJ/mol
# GULP energy per Si atom -5581.849984 kJ/mol
# Density = 2.755316 g / cm^3
# Si number density = 27.616013 Si / 1000 Ang^3
#
#
#
# Elastic Constant Matrix: (Units=GPa)
#
#
# Indices 1 2 3 4 5 6 
#
# 1 145.6011 51.4041 43.5891 0.0000 -0.0550 0.0000
# 2 51.4041 129.2840 64.5562 0.0000 16.8293 0.0000
# 3 43.5891 64.5562 273.3753 0.0000 -0.5979 0.0000
# 4 0.0000 0.0000 0.0000 1154.1470 0.0000 1002.1968
# 5 -0.0550 16.8293 -0.5979 0.0000 62.1898 0.0000
# 6 0.0000 0.0000 0.0000 1002.1968 0.0000 907.0640
#
#
#
# Elastic Compliance Matrix: (Units=1/GPa)
#
#
# Indices 1 2 3 4 5 6 
#
# 1 0.008116 -0.003049 -0.000572 0.000000 0.000827 0.000000
# 2 -0.003049 0.010285 -0.001949 0.000000 -0.002805 0.000000
# 3 -0.000572 -0.001949 0.004211 0.000000 0.000567 0.000000
# 4 0.000000 0.000000 0.000000 0.021349 0.000000 -0.023588
# 5 0.000827 -0.002805 0.000567 0.000000 0.016845 0.000000
# 6 0.000000 0.000000 0.000000 -0.023588 0.000000 0.027165
#
#
# Mechanical properties :
#
#
# Convention : Reuss Voigt Hill
#
# Bulk Modulus (GPa) = 87.16762 96.37326 91.77044
# Shear Modulus (GPa) = 48.57410 450.59423 249.58417
#
# Velocity S-wave (km/s) = 4.19849 12.78743 9.51697
# Velocity P-wave (km/s) = 7.42534 15.90590 12.41236
#
# Compressibility (1/GPa) = 0.01147215
#
# Stress axis : x y z
#
# Youngs Moduli (GPa) = 123.21152 97.22528 237.49134
#
# Poissons Ratio (x) = 0.29643 0.13592
# Poissons Ratio (y) = 0.37565 0.46283
# Poissons Ratio (z) = 0.07052 0.18948
#
# Static dielectric constant tensor:
#      x y z
#    x 2.155410 0.000000 0.173340 
#    y 0.000000 2.033180 0.000000 
#    z 0.173340 0.000000 2.687730 
# 
# From -- ./inp_files/94608.got.cif
#   From: 2010.05.17/outbox.cif.g08.bks.cpg/sg15_48_cif.got.tgz:94608.got - 2010.06.03 18:47:42.
