data_PCOD9301414
_publ_section_title
;
Structure prediction by ZEFSAII (Michael W. Deem and Ramdas Pophale) SiO2 
 PCOD9301414
Probable space group: C 2/C
;
_chemical_formula_sum "Si O2"
_cell_formula_units_Z 56
_cell_length_a 21.582246
_cell_length_b 12.890124
_cell_length_c 9.689662
_cell_angle_alpha 90.000000
_cell_angle_beta 117.204300
_cell_angle_gamma 90.000000
_cell_volume 2397.456464
_symmetry_space_group_name_H-M "C 2/C"
_symmetry_group_IT_number 15
_symmetry_cell_setting 'monoclinic'
loop_
_space_group_symop_operation_xyz
x,y,z
-x,y,1/2-z
-x,-y,-z
x,-y,1/2+z
1/2+x,1/2+y,z
1/2-x,1/2+y,1/2-z
1/2-x,1/2-y,-z
1/2+x,1/2-y,1/2+z
loop_
_atom_site_type_symbol
_atom_site_label
_atom_site_fract_x
_atom_site_fract_y
_atom_site_fract_z
Si Si1 0.998045 0.729500 0.905265
Si Si2 0.453267 0.453584 0.568453
Si Si3 0.274491 0.739291 0.683560
Si Si4 0.663149 0.046371 0.912428
Si Si5 0.158074 0.776412 0.783135
Si Si6 0.695867 0.563323 0.565156
Si Si7 0.605865 0.097043 0.146327
O O1 0.048650 0.829441 0.956685
O O2 0.000000 0.690273 0.750000
O O3 0.920620 0.771304 0.853306
O O4 0.030404 0.641816 0.032896
O O5 0.500000 0.470254 0.750000
O O6 0.500000 0.500000 0.500000
O O7 0.375615 0.498596 0.485980
O O8 0.250000 0.750000 0.500000
O O9 0.214243 0.786894 0.720052
O O10 0.344909 0.805444 0.767721
O O11 0.286838 0.627990 0.776434
O O12 0.666848 0.165807 0.868744
O O13 0.606020 0.984156 0.769185
O O14 0.737285 0.004686 0.929369
O O15 0.643337 0.044235 0.051737
O O16 0.173403 0.860529 0.915997
#
# Coordination Sequence:
#
# PCOD9301414 Si02
#       7
#     8   8   8   8   8   8   8
#     4  11  20  43  73  94 134 188 224 273 358 417
#     4  11  23  42  69 100 133 172 229 285 350 421
#     4  11  23  41  68  98 131 174 230 290 341 403
#     4  11  24  37  66  99 132 178 232 285 327 401
#     4  11  20  44  73  93 127 192 230 271 353 422
#     4  11  20  44  70  91 132 186 232 274 354 417
#     4  12  24  43  65 102 143 177 231 284 341 418
#
# _framework density 23.358089
#
# number of rings (size 3 to 8) (size 9 to 14) (size 15 to 20)
#    0.000    0.857    8.571    0.857    4.000    2.857 
#    2.571    0.714    0.000    0.000    0.000    0.000 
#    0.000    0.000    0.000    0.000    0.000    0.000 
#
# Total GULP energy -156602.599969 kJ/mol
# GULP energy per Si atom -5592.949999 kJ/mol
# Density = 2.330493 g / cm^3
# Si number density = 23.358089 Si / 1000 Ang^3
#
#
#
# Elastic Constant Matrix: (Units=GPa)
#
#
# Indices 1 2 3 4 5 6 
#
# 1 69.6984 -3.6671 36.3299 0.0000 15.7016 0.0000
# 2 -3.6671 20.9702 35.9918 0.0000 2.9892 0.0000
# 3 36.3299 35.9918 141.7412 0.0000 -5.7585 0.0000
# 4 0.0000 0.0000 0.0000 17.6227 0.0000 2.0687
# 5 15.7016 2.9892 -5.7585 0.0000 41.2180 0.0000
# 6 0.0000 0.0000 0.0000 2.0687 0.0000 19.9769
#
#
#
# Elastic Compliance Matrix: (Units=1/GPa)
#
#
# Indices 1 2 3 4 5 6 
#
# 1 0.029417 0.038259 -0.017925 0.000000 -0.016485 0.000000
# 2 0.038259 0.137884 -0.046078 0.000000 -0.031012 0.000000
# 3 -0.017925 -0.046078 0.023899 0.000000 0.013509 0.000000
# 4 0.000000 0.000000 0.000000 0.057443 0.000000 -0.005949
# 5 -0.016485 -0.031012 0.013509 0.000000 0.034677 0.000000
# 6 0.000000 0.000000 0.000000 -0.005949 0.000000 0.050674
#
#
# Mechanical properties :
#
#
# Convention : Reuss Voigt Hill
#
# Bulk Modulus (GPa) = 7.15759 41.07988 24.11874
# Shear Modulus (GPa) = 11.57264 26.68054 19.12659
#
# Velocity S-wave (km/s) = 2.22827 3.38337 2.86465
# Velocity P-wave (km/s) = 3.11307 5.73482 4.61407
#
# Compressibility (1/GPa) = 0.13971175
#
# Stress axis : x y z
#
# Youngs Moduli (GPa) = 33.99344 7.25248 41.84313
#
# Poissons Ratio (x) = -0.27747 0.75003
# Poissons Ratio (y) = -1.30056 1.92807
# Poissons Ratio (z) = 0.60932 0.33418
#
# Static dielectric constant tensor:
#      x y z
#    x 1.937410 0.000000 0.058290 
#    y 0.000000 1.925610 0.000000 
#    z 0.058290 0.000000 1.863880 
# 
# From -- ./inp_files/61990.got.cif
#   From: 2010.05.17/outbox.cif.g08.bks.cpg/sg15_31_cif.got.tgz:61990.got - 2010.06.03 18:47:42.
