data_PCOD9301803
_publ_section_title
;
Structure prediction by ZEFSAII (Michael W. Deem and Ramdas Pophale) SiO2 
 PCOD9301803
Probable space group: C 2/C
;
_chemical_formula_sum "Si O2"
_cell_formula_units_Z 48
_cell_length_a 11.670357
_cell_length_b 22.774013
_cell_length_c 9.322287
_cell_angle_alpha 90.000000
_cell_angle_beta 100.387792
_cell_angle_gamma 90.000000
_cell_volume 2437.075991
_symmetry_space_group_name_H-M "C 2/C"
_symmetry_group_IT_number 15
_symmetry_cell_setting 'monoclinic'
loop_
_space_group_symop_operation_xyz
x,y,z
-x,y,1/2-z
-x,-y,-z
x,-y,1/2+z
1/2+x,1/2+y,z
1/2-x,1/2+y,1/2-z
1/2-x,1/2-y,-z
1/2+x,1/2-y,1/2+z
loop_
_atom_site_type_symbol
_atom_site_label
_atom_site_fract_x
_atom_site_fract_y
_atom_site_fract_z
Si Si1 0.905773 0.671291 0.846796
Si Si2 0.582151 0.480865 0.386896
Si Si3 0.211547 0.189443 0.565883
Si Si4 0.535323 0.270683 0.413054
Si Si5 0.860487 0.890730 0.699544
Si Si6 0.224874 0.869566 0.508402
O O1 0.796368 0.682540 0.718417
O O2 0.851448 0.633597 0.964602
O O3 0.000000 0.650267 0.750000
O O4 0.952335 0.727220 0.947779
O O5 0.500000 0.452055 0.250000
O O6 0.500000 0.500000 0.500000
O O7 0.635164 0.539492 0.328128
O O8 0.671067 0.431591 0.451890
O O9 0.250000 0.250000 0.500000
O O10 0.207115 0.138517 0.447433
O O11 0.078282 0.190922 0.584492
O O12 0.500000 0.242316 0.250000
O O13 0.647792 0.313220 0.439181
O O14 0.000000 0.874040 0.750000
O O15 0.791576 0.870132 0.824509
#
# Coordination Sequence:
#
# PCOD9301803 Si02
#       6
#     8   8   8   8   8   8
#     4  12  28  43  61  96 136 183 229 270 328 400
#     4  11  21  39  65 104 133 160 210 280 345 394
#     4  12  24  40  66  92 136 175 213 278 329 395
#     4  12  24  41  65  99 131 174 223 275 335 394
#     4  11  23  40  66 102 135 166 212 280 336 395
#     4  12  24  40  67  97 137 171 220 277 334 398
#
# _framework density 19.695734000000002
#
# number of rings (size 3 to 8) (size 9 to 14) (size 15 to 20)
#    0.000    0.333    8.333    2.000    4.667    0.000 
#    0.000    0.000    0.000    4.000    0.000    0.000 
#    0.000    0.000    0.000    0.000    0.000    0.000 
#
# Total GULP energy -133821.863846 kJ/mol
# GULP energy per Si atom -5575.910994 kJ/mol
# Density = 1.965091 g / cm^3
# Si number density = 19.695734 Si / 1000 Ang^3
#
#
#
# Elastic Constant Matrix: (Units=GPa)
#
#
# Indices 1 2 3 4 5 6 
#
# 1 89.5131 9.6696 30.0959 0.0000 -30.8831 0.0000
# 2 9.6696 29.0393 5.8546 0.0000 2.6587 0.0000
# 3 30.0959 5.8546 134.5887 0.0000 -4.8691 0.0000
# 4 0.0000 0.0000 0.0000 27.0580 0.0000 -4.5869
# 5 -30.8831 2.6587 -4.8691 0.0000 44.2359 0.0000
# 6 0.0000 0.0000 0.0000 -4.5869 0.0000 4.9255
#
#
#
# Elastic Compliance Matrix: (Units=1/GPa)
#
#
# Indices 1 2 3 4 5 6 
#
# 1 0.016971 -0.006113 -0.003099 0.000000 0.011874 0.000000
# 2 -0.006113 0.037170 -0.000487 0.000000 -0.006556 0.000000
# 3 -0.003099 -0.000487 0.008099 0.000000 -0.001243 0.000000
# 4 0.000000 0.000000 0.000000 0.043886 0.000000 0.040869
# 5 0.011874 -0.006556 -0.001243 0.000000 0.031153 0.000000
# 6 0.000000 0.000000 0.000000 0.040869 0.000000 0.241087
#
#
# Mechanical properties :
#
#
# Convention : Reuss Voigt Hill
#
# Bulk Modulus (GPa) = 23.34221 38.26458 30.80339
# Shear Modulus (GPa) = 12.13457 29.07861 20.60659
#
# Velocity S-wave (km/s) = 2.48483 3.84655 3.23808
# Velocity P-wave (km/s) = 4.48438 6.26083 5.44553
#
# Compressibility (1/GPa) = 0.04284084
#
# Stress axis : x y z
#
# Youngs Moduli (GPa) = 58.92477 26.90332 123.46700
#
# Poissons Ratio (x) = 0.16447 0.38267
# Poissons Ratio (y) = 0.36022 0.06013
# Poissons Ratio (z) = 0.18263 0.01310
#
# Static dielectric constant tensor:
#      x y z
#    x 1.714960 0.000000 -0.024450 
#    y 0.000000 1.723080 0.000000 
#    z -0.024450 0.000000 1.767330 
# 
# From -- ./inp_files/32000.got.cif
#   From: 2010.05.17/outbox.cif.g08.bks.cpg/sg15_16_cif.got.tgz:32000.got - 2010.06.03 18:47:42.
