data_PCOD9301239
_publ_section_title
;
Structure prediction by ZEFSAII (Michael W. Deem and Ramdas Pophale) SiO2 
 PCOD9301239
Probable space group: C 2/C
;
_chemical_formula_sum "Si O2"
_cell_formula_units_Z 60
_cell_length_a 9.315794
_cell_length_b 17.070939
_cell_length_c 17.247419
_cell_angle_alpha 90.000000
_cell_angle_beta 81.893837
_cell_angle_gamma 90.000000
_cell_volume 2715.440697
_symmetry_space_group_name_H-M "C 2/C"
_symmetry_group_IT_number 15
_symmetry_cell_setting 'monoclinic'
loop_
_space_group_symop_operation_xyz
x,y,z
-x,y,1/2-z
-x,-y,-z
x,-y,1/2+z
1/2+x,1/2+y,z
1/2-x,1/2+y,1/2-z
1/2-x,1/2-y,-z
1/2+x,1/2-y,1/2+z
loop_
_atom_site_type_symbol
_atom_site_label
_atom_site_fract_x
_atom_site_fract_y
_atom_site_fract_z
Si Si1 0.837413 0.027244 0.110817
Si Si2 0.069737 0.637871 0.856826
Si Si3 0.150067 0.453613 0.491757
Si Si4 0.746509 0.343296 0.409713
Si Si5 0.735393 0.608902 0.235364
Si Si6 0.140741 0.094019 0.069569
Si Si7 0.831739 0.780778 0.241765
Si Si8 0.500000 0.999931 0.250000
O O1 0.854878 0.057382 0.196847
O O2 0.979372 0.065308 0.062115
O O3 0.805204 0.933942 0.109184
O O4 0.701066 0.064181 0.074970
O O5 0.139314 0.617895 0.934116
O O6 0.200627 0.668099 0.791445
O O7 0.999840 0.561640 0.820837
O O8 0.916815 0.679905 0.886923
O O9 0.265116 0.515437 0.449810
O O10 0.000000 0.500000 0.500000
O O11 0.698543 0.343221 0.502854
O O12 0.670709 0.291609 0.350744
O O13 0.665330 0.618214 0.156463
O O14 0.779841 0.693162 0.264538
O O15 0.879167 0.557348 0.226255
O O16 0.000000 0.796910 0.250000
#
# Coordination Sequence:
#
# PCOD9301239 Si02
#       8
#     8   8   8   8   8   8   8   4
#     4  11  24  42  69 105 135 175 236 297 341 415
#     4  12  22  43  73 101 131 187 233 286 348 425
#     4  11  20  39  69 105 134 173 234 297 347 404
#     4  11  23  44  67 103 139 176 233 288 346 422
#     4  12  25  46  69  97 141 187 232 289 356 413
#     4  11  25  39  70 103 137 178 232 295 352 407
#     4  12  29  43  69 102 142 184 233 289 355 424
#     4  12  20  44  74  98 126 184 246 280 332 412
#
# _framework density 22.095860999999999
#
# number of rings (size 3 to 8) (size 9 to 14) (size 15 to 20)
#    0.000    0.533    7.333    2.000    3.733    2.667 
#    0.000    0.667    0.000    0.000    0.000    0.000 
#    0.000    0.000    0.000    0.000    0.000    0.000 
#
# Total GULP energy -167120.043272 kJ/mol
# GULP energy per Si atom -5570.668109 kJ/mol
# Density = 2.204557 g / cm^3
# Si number density = 22.095861 Si / 1000 Ang^3
#
#
#
# Elastic Constant Matrix: (Units=GPa)
#
#
# Indices 1 2 3 4 5 6 
#
# 1 136.4040 3.3803 18.7457 0.0000 4.0333 0.0000
# 2 3.3803 35.3741 4.2288 0.0000 5.6314 0.0000
# 3 18.7457 4.2288 102.9591 0.0000 19.2416 0.0000
# 4 0.0000 0.0000 0.0000 20.4926 0.0000 1.4617
# 5 4.0333 5.6314 19.2416 0.0000 30.9812 0.0000
# 6 0.0000 0.0000 0.0000 1.4617 0.0000 17.6833
#
#
#
# Elastic Compliance Matrix: (Units=1/GPa)
#
#
# Indices 1 2 3 4 5 6 
#
# 1 0.007530 -0.000552 -0.001339 0.000000 -0.000048 0.000000
# 2 -0.000552 0.029157 -0.000136 0.000000 -0.005144 0.000000
# 3 -0.001339 -0.000136 0.011228 0.000000 -0.006774 0.000000
# 4 0.000000 0.000000 0.000000 0.049087 0.000000 -0.004058
# 5 -0.000048 -0.005144 -0.006774 0.000000 0.037426 0.000000
# 6 0.000000 0.000000 0.000000 -0.004058 0.000000 0.056886
#
#
# Mechanical properties :
#
#
# Convention : Reuss Voigt Hill
#
# Bulk Modulus (GPa) = 22.79903 36.38298 29.59101
# Shear Modulus (GPa) = 23.81071 30.39026 27.10049
#
# Velocity S-wave (km/s) = 3.28626 3.71264 3.50594
# Velocity P-wave (km/s) = 4.97393 5.90593 5.45985
#
# Compressibility (1/GPa) = 0.04386151
#
# Stress axis : x y z
#
# Youngs Moduli (GPa) = 132.79631 34.29699 89.06252
#
# Poissons Ratio (x) = 0.01893 0.11929
# Poissons Ratio (y) = 0.07328 0.01210
# Poissons Ratio (z) = 0.17786 0.00466
#
# Static dielectric constant tensor:
#      x y z
#    x 1.851820 0.000000 -0.079190 
#    y 0.000000 1.800830 0.000000 
#    z -0.079190 0.000000 1.911800 
# 
# From -- ./inp_files/191008.got.cif
#   From: 2010.05.17/outbox.cif.g08.bks.cpg/sg15_96_cif.got.tgz:191008.got - 2010.06.03 18:47:42.
