data_PCOD9301807
_publ_section_title
;
Structure prediction by ZEFSAII (Michael W. Deem and Ramdas Pophale) SiO2 
 PCOD9301807
Probable space group: C 2/C
;
_chemical_formula_sum "Si O2"
_cell_formula_units_Z 64
_cell_length_a 12.055584
_cell_length_b 15.286482
_cell_length_c 26.692139
_cell_angle_alpha 90.000000
_cell_angle_beta 39.383959
_cell_angle_gamma 90.000000
_cell_volume 3121.192037
_symmetry_space_group_name_H-M "C 2/C"
_symmetry_group_IT_number 15
_symmetry_cell_setting 'monoclinic'
loop_
_space_group_symop_operation_xyz
x,y,z
-x,y,1/2-z
-x,-y,-z
x,-y,1/2+z
1/2+x,1/2+y,z
1/2-x,1/2+y,1/2-z
1/2-x,1/2-y,-z
1/2+x,1/2-y,1/2+z
loop_
_atom_site_type_symbol
_atom_site_label
_atom_site_fract_x
_atom_site_fract_y
_atom_site_fract_z
Si Si1 0.765222 0.495209 0.535323
Si Si2 0.172491 0.535341 0.872291
Si Si3 0.935534 0.180925 0.388238
Si Si4 0.719724 0.110677 0.286174
Si Si5 0.339287 0.226575 0.095060
Si Si6 0.904603 0.278783 0.078119
Si Si7 0.901303 0.178098 0.933285
Si Si8 0.563646 0.207810 0.171529
O O1 0.755083 0.503433 0.599455
O O2 0.667513 0.405061 0.558091
O O3 0.679014 0.582109 0.542243
O O4 0.965293 0.486710 0.447565
O O5 0.246456 0.486609 0.797880
O O6 0.196138 0.639238 0.863550
O O7 0.828335 0.231202 0.382121
O O8 0.119569 0.148159 0.301398
O O9 0.970104 0.241175 0.423695
O O10 0.701888 0.165499 0.343765
O O11 0.542729 0.128557 0.316616
O O12 0.437325 0.310046 0.084710
O O13 0.486865 0.185659 0.007010
O O14 0.772739 0.204637 0.104672
O O15 0.965466 0.211092 0.856214
O O16 0.750000 0.250000 0.000000
O O17 0.500000 0.220112 0.250000
#
# Coordination Sequence:
#
# PCOD9301807 Si02
#       8
#     8   8   8   8   8   8   8   8
#     4  11  22  39  65  98 130 164 224 274 324 393
#     4  11  21  39  65  96 124 168 221 275 323 391
#     4  12  25  43  65  99 140 174 216 280 346 391
#     4  11  24  41  68  97 133 175 219 282 337 391
#     4  11  22  40  68  95 129 176 220 267 331 401
#     4  12  23  43  69  97 134 175 225 274 331 404
#     4  11  21  39  68  98 127 169 225 272 319 394
#     4  11  22  40  64  96 129 170 219 271 336 390
#
# _framework density 20.504988000000001
#
# number of rings (size 3 to 8) (size 9 to 14) (size 15 to 20)
#    0.000    0.750    6.250    3.000    0.000    1.000 
#    0.000    1.875    0.000    0.000    0.000    0.000 
#    0.000    0.000    0.000    0.000    0.000    0.000 
#
# Total GULP energy -178725.614897 kJ/mol
# GULP energy per Si atom -5585.175466 kJ/mol
# Density = 2.045832 g / cm^3
# Si number density = 20.504988 Si / 1000 Ang^3
#
#
#
# Elastic Constant Matrix: (Units=GPa)
#
#
# Indices 1 2 3 4 5 6 
#
# 1 123.4006 31.6187 -2.7333 0.0001 -2.7422 0.0000
# 2 31.6187 62.4564 -1.9606 -0.0002 2.7626 0.0000
# 3 -2.7333 -1.9606 49.0900 -0.0005 12.7949 0.0001
# 4 0.0001 -0.0002 -0.0005 16.3971 0.0002 -4.2630
# 5 -2.7422 2.7626 12.7949 0.0002 27.6176 0.0000
# 6 0.0000 0.0000 0.0001 -4.2630 0.0000 31.9196
#
#
#
# Elastic Compliance Matrix: (Units=1/GPa)
#
#
# Indices 1 2 3 4 5 6 
#
# 1 0.009366 -0.004806 -0.000043 0.000000 0.001431 0.000000
# 2 -0.004806 0.018612 0.001234 0.000000 -0.002911 0.000000
# 3 -0.000043 0.001234 0.023260 0.000001 -0.010904 0.000000
# 4 0.000000 0.000000 0.000001 0.063180 -0.000001 0.008438
# 5 0.001431 -0.002911 -0.010904 -0.000001 0.041694 0.000000
# 6 0.000000 0.000000 0.000000 0.008438 0.000000 0.032456
#
#
# Mechanical properties :
#
#
# Convention : Reuss Voigt Hill
#
# Bulk Modulus (GPa) = 22.72366 32.08853 27.40609
# Shear Modulus (GPa) = 23.75678 29.05501 26.40589
#
# Velocity S-wave (km/s) = 3.40749 3.76835 3.59246
# Velocity P-wave (km/s) = 5.15630 5.88363 5.53193
#
# Compressibility (1/GPa) = 0.04400700
#
# Stress axis : x y z
#
# Youngs Moduli (GPa) = 106.76900 53.72923 42.99308
#
# Poissons Ratio (x) = 0.25823 0.00187
# Poissons Ratio (y) = 0.51316 -0.05307
# Poissons Ratio (z) = 0.00463 -0.06632
#
# Static dielectric constant tensor:
#      x y z
#    x 1.751240 0.000000 -0.026340 
#    y 0.000000 1.725530 0.000000 
#    z -0.026340 0.000000 1.775990 
# 
# From -- ./inp_files/293047.got.cif
#   From: 2010.05.17/outbox.cif.g08.bks.cpg/sg15_147_cif.got.tgz:293047.got - 2010.06.03 18:47:42.
