data_PCOD9301397
_publ_section_title
;
Structure prediction by ZEFSAII (Michael W. Deem and Ramdas Pophale) SiO2 
 PCOD9301397
Probable space group: C 2/C
;
_chemical_formula_sum "Si O2"
_cell_formula_units_Z 48
_cell_length_a 32.237498
_cell_length_b 8.792216
_cell_length_c 8.594011
_cell_angle_alpha 90.000000
_cell_angle_beta 106.788079
_cell_angle_gamma 90.000000
_cell_volume 2332.060202
_symmetry_space_group_name_H-M "C 2/C"
_symmetry_group_IT_number 15
_symmetry_cell_setting 'monoclinic'
loop_
_space_group_symop_operation_xyz
x,y,z
-x,y,1/2-z
-x,-y,-z
x,-y,1/2+z
1/2+x,1/2+y,z
1/2-x,1/2+y,1/2-z
1/2-x,1/2-y,-z
1/2+x,1/2-y,1/2+z
loop_
_atom_site_type_symbol
_atom_site_label
_atom_site_fract_x
_atom_site_fract_y
_atom_site_fract_z
Si Si1 0.613413 0.279454 0.294436
Si Si2 0.621640 0.584217 0.465315
Si Si3 0.566543 0.072718 0.453400
Si Si4 0.661202 0.983100 0.690203
Si Si5 0.799607 0.708579 0.532369
Si Si6 0.043930 0.273216 0.246259
O O1 0.622667 0.405748 0.433911
O O2 0.609164 0.367928 0.126965
O O3 0.572592 0.184601 0.312976
O O4 0.649860 0.152246 0.299589
O O5 0.668621 0.652852 0.476258
O O6 0.585867 0.668727 0.319738
O O7 0.544302 0.158353 0.572807
O O8 0.614797 0.027113 0.565923
O O9 0.546972 0.917313 0.367047
O O10 0.692796 0.912054 0.597513
O O11 0.681431 0.126976 0.795254
O O12 0.750000 0.750000 0.500000
O O13 0.000000 0.189944 0.250000
#
# Coordination Sequence:
#
# PCOD9301397 Si02
#       6
#     8   8   8   8   8   8
#     4  11  22  39  71  90 126 182 211 269 335 388
#     4  11  23  42  61  96 133 168 220 271 339 382
#     4  12  19  42  67  94 128 178 222 269 325 386
#     4  11  20  43  68  91 130 171 219 267 324 388
#     4  11  24  41  66  94 128 171 217 269 329 394
#     4  12  23  39  66 100 133 173 225 273 326 396
#
# _framework density 20.582659
#
# number of rings (size 3 to 8) (size 9 to 14) (size 15 to 20)
#    0.000    0.667    8.333    1.500    0.000    2.667 
#    0.000    5.833    0.000    0.000    0.000    0.000 
#    0.000    0.000    0.000    0.000    0.000    0.000 
#
# Total GULP energy -134115.987854 kJ/mol
# GULP energy per Si atom -5588.166161 kJ/mol
# Density = 2.053581 g / cm^3
# Si number density = 20.582659 Si / 1000 Ang^3
#
#
#
# Elastic Constant Matrix: (Units=GPa)
#
#
# Indices 1 2 3 4 5 6 
#
# 1 83.9251 -2.3340 25.2754 0.0000 -20.7035 0.0000
# 2 -2.3340 46.7034 1.7592 0.0000 0.7100 0.0000
# 3 25.2754 1.7592 46.5587 0.0000 -12.8816 0.0000
# 4 0.0000 0.0000 0.0000 40.1097 0.0000 -7.9910
# 5 -20.7035 0.7100 -12.8816 0.0000 28.1422 0.0000
# 6 0.0000 0.0000 0.0000 -7.9910 0.0000 14.4263
#
#
#
# Elastic Compliance Matrix: (Units=1/GPa)
#
#
# Indices 1 2 3 4 5 6 
#
# 1 0.016024 0.000902 -0.006272 0.000000 0.008895 0.000000
# 2 0.000902 0.021520 -0.001453 0.000000 -0.000545 0.000000
# 3 -0.006272 -0.001453 0.027104 0.000000 0.007829 0.000000
# 4 0.000000 0.000000 0.000000 0.028024 0.000000 0.015523
# 5 0.008895 -0.000545 0.007829 0.000000 0.045675 0.000000
# 6 0.000000 0.000000 0.000000 0.015523 0.000000 0.077916
#
#
# Mechanical properties :
#
#
# Convention : Reuss Voigt Hill
#
# Bulk Modulus (GPa) = 19.60766 25.17649 22.39208
# Shear Modulus (GPa) = 20.25028 26.70142 23.47585
#
# Velocity S-wave (km/s) = 3.14004 3.60568 3.38089
# Velocity P-wave (km/s) = 4.76377 5.43995 5.11305
#
# Compressibility (1/GPa) = 0.05100047
#
# Stress axis : x y z
#
# Youngs Moduli (GPa) = 62.40811 46.46878 36.89471
#
# Poissons Ratio (x) = -0.04191 0.23140
# Poissons Ratio (y) = -0.05628 0.05362
# Poissons Ratio (z) = 0.39142 0.06754
#
# Static dielectric constant tensor:
#      x y z
#    x 1.710530 0.000000 -0.009570 
#    y 0.000000 1.729710 0.000000 
#    z -0.009570 0.000000 1.780490 
# 
# From -- ./inp_files/68576.got.cif
#   From: 2010.05.17/outbox.cif.g08.bks.cpg/sg15_35_cif.got.tgz:68576.got - 2010.06.03 18:47:42.
