data_PCOD9301000
_publ_section_title
;
Structure prediction by ZEFSAII (Michael W. Deem and Ramdas Pophale) SiO2 
 PCOD9301000
Probable space group: C 2/C
;
_chemical_formula_sum "Si O2"
_cell_formula_units_Z 60
_cell_length_a 14.334722
_cell_length_b 21.827095
_cell_length_c 13.835032
_cell_angle_alpha 90.000000
_cell_angle_beta 52.088804
_cell_angle_gamma 90.000000
_cell_volume 3415.250687
_symmetry_space_group_name_H-M "C 2/C"
_symmetry_group_IT_number 15
_symmetry_cell_setting 'monoclinic'
loop_
_space_group_symop_operation_xyz
x,y,z
-x,y,1/2-z
-x,-y,-z
x,-y,1/2+z
1/2+x,1/2+y,z
1/2-x,1/2+y,1/2-z
1/2-x,1/2-y,-z
1/2+x,1/2-y,1/2+z
loop_
_atom_site_type_symbol
_atom_site_label
_atom_site_fract_x
_atom_site_fract_y
_atom_site_fract_z
Si Si1 0.776097 0.555937 0.759234
Si Si2 0.186255 0.775768 0.636982
Si Si3 0.979088 0.453413 0.655798
Si Si4 0.000000 0.880661 0.750000
Si Si5 0.357045 0.866468 0.582261
Si Si6 0.577638 0.465755 0.532586
Si Si7 0.736498 0.004659 0.429885
Si Si8 0.443575 0.159616 0.691506
O O1 0.878274 0.506356 0.722068
O O2 0.724492 0.529334 0.692843
O O3 0.844991 0.618873 0.704000
O O4 0.678128 0.566530 0.903138
O O5 0.250000 0.750000 0.500000
O O6 0.103889 0.832714 0.661438
O O7 0.272713 0.809495 0.658224
O O8 0.112806 0.721943 0.733793
O O9 0.928277 0.400043 0.621035
O O10 0.000000 0.431017 0.750000
O O11 0.104549 0.479631 0.538077
O O12 0.998761 0.923963 0.655203
O O13 0.448901 0.836759 0.449646
O O14 0.285646 0.923147 0.577775
O O15 0.500000 0.500000 0.500000
O O16 0.663702 0.503350 0.551735
O O17 0.500000 0.126808 0.750000
#
# Coordination Sequence:
#
# PCOD9301000 Si02
#       8
#     8   8   8   4   8   8   8   8
#     4  11  21  35  59  90 120 154 197 246 305 360
#     4  12  23  37  58  86 121 164 197 245 303 355
#     4  11  20  35  64  93 116 150 195 254 307 351
#     4  12  24  42  54  82 132 160 204 248 294 372
#     4  11  21  37  57  90 119 151 194 250 300 355
#     4  12  25  37  57  84 123 168 197 239 306 371
#     4  11  20  38  60  88 125 151 195 254 301 359
#     4  12  20  33  59  88 117 152 194 241 300 361
#
# _framework density 17.568256000000002
#
# number of rings (size 3 to 8) (size 9 to 14) (size 15 to 20)
#    0.000    0.533    7.333    3.600    1.867    0.000 
#    0.000    0.000    0.000    0.800    6.933    0.000 
#    0.000    0.000    0.000    0.000    0.000    0.000 
#
# Total GULP energy -167193.111772 kJ/mol
# GULP energy per Si atom -5573.103726 kJ/mol
# Density = 1.752827 g / cm^3
# Si number density = 17.568256 Si / 1000 Ang^3
#
#
#
# Elastic Constant Matrix: (Units=GPa)
#
#
# Indices 1 2 3 4 5 6 
#
# 1 108.5339 44.2926 18.1744 0.0000 13.6039 0.0000
# 2 44.2926 92.2170 40.4073 0.0000 3.9210 0.0000
# 3 18.1744 40.4073 82.1137 0.0000 11.1786 0.0000
# 4 0.0000 0.0000 0.0000 31.1605 0.0000 -6.3400
# 5 13.6039 3.9210 11.1786 0.0000 22.0183 0.0000
# 6 0.0000 0.0000 0.0000 -6.3400 0.0000 26.9755
#
#
#
# Elastic Compliance Matrix: (Units=1/GPa)
#
#
# Indices 1 2 3 4 5 6 
#
# 1 0.012451 -0.006243 0.001302 0.000000 -0.007242 0.000000
# 2 -0.006243 0.016979 -0.007613 0.000000 0.004699 0.000000
# 3 0.001302 -0.007613 0.016717 0.000000 -0.007936 0.000000
# 4 0.000000 0.000000 0.000000 0.033704 0.000000 0.007921
# 5 -0.007242 0.004699 -0.007936 0.000000 0.053084 0.000000
# 6 0.000000 0.000000 0.000000 0.007921 0.000000 0.038932
#
#
# Mechanical properties :
#
#
# Convention : Reuss Voigt Hill
#
# Bulk Modulus (GPa) = 47.53091 54.29037 50.91064
# Shear Modulus (GPa) = 24.51146 28.03022 26.27084
#
# Velocity S-wave (km/s) = 3.73931 3.99871 3.87118
# Velocity P-wave (km/s) = 6.76439 7.23113 7.00165
#
# Compressibility (1/GPa) = 0.02103894
#
# Stress axis : x y z
#
# Youngs Moduli (GPa) = 80.31346 58.89769 59.82087
#
# Poissons Ratio (x) = 0.36770 -0.07790
# Poissons Ratio (y) = 0.50141 0.45541
# Poissons Ratio (z) = -0.10459 0.44838
#
# Static dielectric constant tensor:
#      x y z
#    x 1.660020 0.000000 -0.044660 
#    y 0.000000 1.586120 0.000000 
#    z -0.044660 0.000000 1.651270 
# 
# From -- ./inp_files/155988.got.cif
#   From: 2010.05.17/outbox.cif.g08.bks.cpg/sg15_78_cif.got.tgz:155988.got - 2010.06.03 18:47:42.
