data_PCOD9301609
_publ_section_title
;
Structure prediction by ZEFSAII (Michael W. Deem and Ramdas Pophale) SiO2 
 PCOD9301609
Probable space group: C 2/C
;
_chemical_formula_sum "Si O2"
_cell_formula_units_Z 28
_cell_length_a 12.043732
_cell_length_b 18.934692
_cell_length_c 4.855463
_cell_angle_alpha 90.000000
_cell_angle_beta 66.305608
_cell_angle_gamma 90.000000
_cell_volume 1013.920974
_symmetry_space_group_name_H-M "C 2/C"
_symmetry_group_IT_number 15
_symmetry_cell_setting 'monoclinic'
loop_
_space_group_symop_operation_xyz
x,y,z
-x,y,1/2-z
-x,-y,-z
x,-y,1/2+z
1/2+x,1/2+y,z
1/2-x,1/2+y,1/2-z
1/2-x,1/2-y,-z
1/2+x,1/2-y,1/2+z
loop_
_atom_site_type_symbol
_atom_site_label
_atom_site_fract_x
_atom_site_fract_y
_atom_site_fract_z
Si Si1 0.500000 0.500000 0.500000
Si Si2 0.214963 0.091797 0.917571
Si Si3 0.085463 0.764771 0.414804
Si Si4 0.633544 0.110399 0.234066
O O1 0.500000 0.559830 0.750000
O O2 0.395502 0.541164 0.378929
O O3 0.164868 0.171692 0.955803
O O4 0.268758 0.077493 0.566400
O O5 0.329143 0.084420 0.004415
O O6 0.151773 0.695271 0.233282
O O7 0.000000 0.788155 0.250000
O O8 0.000000 0.738683 0.750000
O O9 0.500000 0.097711 0.250000
#
# Coordination Sequence:
#
# PCOD9301609 Si02
#       4
#     4   8   8   8
#     4  12  26  46  70 100 128 172 232 290 346 388
#     4  12  23  41  67  96 138 181 229 290 341 404
#     4  11  21  37  62 101 141 176 222 277 350 419
#     4  11  23  40  64  97 137 182 227 277 350 426
#
# _framework density 27.615563999999999
#
# number of rings (size 3 to 8) (size 9 to 14) (size 15 to 20)
#    0.000    0.571    0.000   11.143    0.000    0.000 
#    0.000    0.000    0.000   17.143    0.000    0.000 
#    0.000    0.000    0.000    0.000    0.000    0.000 
#
# Total GULP energy -78319.258505 kJ/mol
# GULP energy per Si atom -5594.232750 kJ/mol
# Density = 2.755271 g / cm^3
# Si number density = 27.615564 Si / 1000 Ang^3
#
#
#
# Elastic Constant Matrix: (Units=GPa)
#
#
# Indices 1 2 3 4 5 6 
#
# 1 208.5924 51.7115 53.2799 0.0000 14.5897 0.0000
# 2 51.7115 140.0507 14.7811 0.0000 -22.8148 0.0000
# 3 53.2799 14.7811 137.5493 0.0000 29.0983 0.0000
# 4 0.0000 0.0000 0.0000 -48.0223 0.0000 30.2021
# 5 14.5897 -22.8148 29.0983 0.0000 70.5653 0.0000
# 6 0.0000 0.0000 0.0000 30.2021 0.0000 13.7941
#
#
#
# Elastic Compliance Matrix: (Units=1/GPa)
#
#
# Indices 1 2 3 4 5 6 
#
# 1 0.005872 -0.002171 -0.001792 0.000000 -0.001177 0.000000
# 2 -0.002171 0.008614 -0.000842 0.000000 0.003581 0.000000
# 3 -0.001792 -0.000842 0.008802 0.000000 -0.003531 0.000000
# 4 0.000000 0.000000 0.000000 -0.008760 0.000000 0.019181
# 5 -0.001177 0.003581 -0.003531 0.000000 0.017029 0.000000
# 6 0.000000 0.000000 0.000000 0.019181 0.000000 0.030498
#
#
# Mechanical properties :
#
#
# Convention : Reuss Voigt Hill
#
# Bulk Modulus (GPa) = 73.11460 80.63748 76.87604
# Shear Modulus (GPa) = 65.59494 31.69541 48.64517
#
# Velocity S-wave (km/s) = 4.87898 3.39150 4.20159
# Velocity P-wave (km/s) = 7.63365 6.67831 7.17190
#
# Compressibility (1/GPa) = 0.01367716
#
# Stress axis : x y z
#
# Youngs Moduli (GPa) = 170.28981 116.08838 113.61056
#
# Poissons Ratio (x) = 0.25201 0.20364
# Poissons Ratio (y) = 0.36967 0.09571
# Poissons Ratio (z) = 0.30523 0.09780
#
# Static dielectric constant tensor:
#      x y z
#    x 2.272170 0.000000 -0.038930 
#    y 0.000000 2.130200 0.000000 
#    z -0.038930 0.000000 3.370470 
# 
# From -- ./inp_files/3612.got.cif
#   From: 2010.05.17/outbox.cif.g08.bks.cpg/sg15_2_cif.got.tgz:3612.got - 2010.06.03 18:47:42.
