data_PCOD9301580
_publ_section_title
;
Structure prediction by ZEFSAII (Michael W. Deem and Ramdas Pophale) SiO2 
 PCOD9301580
Probable space group: C 2/C
;
_chemical_formula_sum "Si O2"
_cell_formula_units_Z 36
_cell_length_a 9.733742
_cell_length_b 9.997532
_cell_length_c 18.163454
_cell_angle_alpha 90.000000
_cell_angle_beta 67.611856
_cell_angle_gamma 90.000000
_cell_volume 1634.318291
_symmetry_space_group_name_H-M "C 2/C"
_symmetry_group_IT_number 15
_symmetry_cell_setting 'monoclinic'
loop_
_space_group_symop_operation_xyz
x,y,z
-x,y,1/2-z
-x,-y,-z
x,-y,1/2+z
1/2+x,1/2+y,z
1/2-x,1/2+y,1/2-z
1/2-x,1/2-y,-z
1/2+x,1/2-y,1/2+z
loop_
_atom_site_type_symbol
_atom_site_label
_atom_site_fract_x
_atom_site_fract_y
_atom_site_fract_z
Si Si1 0.712603 0.424070 0.876815
Si Si2 0.500000 0.159591 0.250000
Si Si3 0.599914 0.717415 0.584816
Si Si4 0.189200 0.770766 0.431063
Si Si5 0.574167 0.434820 0.655741
O O1 0.849176 0.422069 0.791396
O O2 0.514272 0.755392 0.956076
O O3 0.700561 0.573401 0.908469
O O4 0.561412 0.383331 0.867786
O O5 0.504927 0.247390 0.322130
O O6 0.735111 0.820843 0.570068
O O7 0.635312 0.563854 0.597760
O O8 0.250000 0.750000 0.500000
O O9 0.295989 0.673791 0.362253
O O10 0.500000 0.466645 0.750000
#
# Coordination Sequence:
#
# PCOD9301580 Si02
#       5
#     8   4   8   8   8
#     4   9  21  38  58  85 119 151 189 246 295 343
#     4   8  16  40  58  86 116 142 196 252 288 334
#     4   9  20  40  60  84 123 149 193 250 291 342
#     4  11  25  39  56  90 125 156 197 237 287 359
#     4  11  21  36  64  90 109 154 200 244 295 341
#
# _framework density 22.027535
#
# number of rings (size 3 to 8) (size 9 to 14) (size 15 to 20)
#    1.333    0.889    1.111    1.333    1.556    6.222 
#    0.000    2.222    0.000    0.000    0.000    0.000 
#    0.000    0.000    0.000    0.000    0.000    0.000 
#
# Total GULP energy -100363.862145 kJ/mol
# GULP energy per Si atom -5575.770119 kJ/mol
# Density = 2.197740 g / cm^3
# Si number density = 22.027535 Si / 1000 Ang^3
#
#
#
# Elastic Constant Matrix: (Units=GPa)
#
#
# Indices 1 2 3 4 5 6 
#
# 1 179.1564 74.9962 17.0342 0.0000 -0.4899 0.0000
# 2 74.9962 78.9664 -1.7267 0.0000 -6.0321 0.0000
# 3 17.0342 -1.7267 27.4477 0.0000 -0.5252 0.0000
# 4 0.0000 0.0000 0.0000 27.7232 0.0000 3.0143
# 5 -0.4899 -6.0321 -0.5252 0.0000 42.8816 0.0000
# 6 0.0000 0.0000 0.0000 3.0143 0.0000 29.0465
#
#
#
# Elastic Compliance Matrix: (Units=1/GPa)
#
#
# Indices 1 2 3 4 5 6 
#
# 1 0.010588 -0.010323 -0.007248 0.000000 -0.001420 0.000000
# 2 -0.010323 0.022885 0.007907 0.000000 0.003198 0.000000
# 3 -0.007248 0.007907 0.041458 0.000000 0.001537 0.000000
# 4 0.000000 0.000000 0.000000 0.036482 0.000000 -0.003786
# 5 -0.001420 0.003198 0.001537 0.000000 0.023772 0.000000
# 6 0.000000 0.000000 0.000000 -0.003786 0.000000 0.034820
#
#
# Mechanical properties :
#
#
# Convention : Reuss Voigt Hill
#
# Bulk Modulus (GPa) = 17.98430 51.79756 34.89093
# Shear Modulus (GPa) = 24.05388 32.94806 28.50097
#
# Velocity S-wave (km/s) = 3.30811 3.87171 3.60096
# Velocity P-wave (km/s) = 4.77218 6.59946 5.75875
#
# Compressibility (1/GPa) = 0.05560404
#
# Stress axis : x y z
#
# Youngs Moduli (GPa) = 94.44566 43.69767 24.12097
#
# Poissons Ratio (x) = 0.45108 0.17482
# Poissons Ratio (y) = 0.97493 -0.19073
# Poissons Ratio (z) = 0.68451 -0.34553
#
# Static dielectric constant tensor:
#      x y z
#    x 1.793070 0.000000 -0.019890 
#    y 0.000000 1.799440 0.000000 
#    z -0.019890 0.000000 1.993130 
# 
# From -- ./inp_files/195445.got.cif
#   From: 2010.05.17/outbox.cif.g08.bks.cpg/sg15_98_cif.got.tgz:195445.got - 2010.06.03 18:47:42.
