data_PCOD9301440
_publ_section_title
;
Structure prediction by ZEFSAII (Michael W. Deem and Ramdas Pophale) SiO2 
 PCOD9301440
Probable space group: C 2/C
;
_chemical_formula_sum "Si O2"
_cell_formula_units_Z 48
_cell_length_a 23.096437
_cell_length_b 8.786379
_cell_length_c 14.070792
_cell_angle_alpha 90.000000
_cell_angle_beta 49.222166
_cell_angle_gamma 90.000000
_cell_volume 2162.277738
_symmetry_space_group_name_H-M "C 2/C"
_symmetry_group_IT_number 15
_symmetry_cell_setting 'monoclinic'
loop_
_space_group_symop_operation_xyz
x,y,z
-x,y,1/2-z
-x,-y,-z
x,-y,1/2+z
1/2+x,1/2+y,z
1/2-x,1/2+y,1/2-z
1/2-x,1/2-y,-z
1/2+x,1/2-y,1/2+z
loop_
_atom_site_type_symbol
_atom_site_label
_atom_site_fract_x
_atom_site_fract_y
_atom_site_fract_z
Si Si1 0.319678 0.437265 0.748186
Si Si2 0.187190 0.295479 0.990118
Si Si3 0.030260 0.814303 0.825745
Si Si4 0.569973 0.002585 0.736439
Si Si5 0.393650 0.517346 0.975079
Si Si6 0.166780 0.214089 0.635463
O O1 0.235420 0.373959 0.855318
O O2 0.383035 0.359433 0.747910
O O3 0.350927 0.409443 0.609931
O O4 0.320572 0.608381 0.786661
O O5 0.149157 0.141189 0.997505
O O6 0.250000 0.250000 0.000000
O O7 0.126475 0.406788 0.104047
O O8 0.033456 0.632306 0.845221
O O9 0.000000 0.812826 0.750000
O O10 0.976960 0.953736 0.918794
O O11 0.500000 0.938902 0.750000
O O12 0.621053 0.863812 0.717140
O O13 0.382327 0.623627 0.894181
O O14 0.250000 0.250000 0.500000
#
# Coordination Sequence:
#
# PCOD9301440 Si02
#       6
#     8   8   8   8   8   8
#     4  12  26  41  71 100 136 185 229 279 351 410
#     4  12  20  44  70  92 135 188 225 275 343 415
#     4  11  20  46  70  94 132 190 226 272 350 415
#     4  11  22  40  72  97 131 182 225 283 346 402
#     4  12  26  44  71 100 141 182 232 283 346 418
#     4  12  25  44  66 105 136 170 234 295 338 403
#
# _framework density 22.198812
#
# number of rings (size 3 to 8) (size 9 to 14) (size 15 to 20)
#    0.000    0.333   10.000    0.500    4.667    0.000 
#    0.000    2.500    0.000    0.000    0.000    0.000 
#    0.000    0.000    0.000    0.000    0.000    0.000 
#
# Total GULP energy -133830.990231 kJ/mol
# GULP energy per Si atom -5576.291260 kJ/mol
# Density = 2.214829 g / cm^3
# Si number density = 22.198812 Si / 1000 Ang^3
#
#
#
# Elastic Constant Matrix: (Units=GPa)
#
#
# Indices 1 2 3 4 5 6 
#
# 1 52.7403 7.8549 6.9124 0.0000 -16.4930 0.0000
# 2 7.8549 79.4655 -1.1574 -0.0001 -5.9310 0.0000
# 3 6.9124 -1.1574 66.0057 0.0000 -4.0268 0.0000
# 4 0.0000 -0.0001 0.0000 36.9351 0.0000 -19.5544
# 5 -16.4930 -5.9310 -4.0268 0.0000 40.3695 0.0000
# 6 0.0000 0.0000 0.0000 -19.5544 0.0000 28.4327
#
#
#
# Elastic Compliance Matrix: (Units=1/GPa)
#
#
# Indices 1 2 3 4 5 6 
#
# 1 0.022132 -0.001570 -0.001819 0.000000 0.008630 0.000000
# 2 -0.001570 0.012843 0.000468 0.000000 0.001292 0.000000
# 3 -0.001819 0.000468 0.015401 0.000000 0.000862 0.000000
# 4 0.000000 0.000000 0.000000 0.042577 0.000000 0.029282
# 5 0.008630 0.001292 0.000862 0.000000 0.028573 0.000000
# 6 0.000000 0.000000 0.000000 0.029282 0.000000 0.055309
#
#
# Mechanical properties :
#
#
# Convention : Reuss Voigt Hill
#
# Bulk Modulus (GPa) = 22.45421 25.04791 23.75106
# Shear Modulus (GPa) = 25.31377 33.45424 29.38400
#
# Velocity S-wave (km/s) = 3.38053 3.88626 3.64218
# Velocity P-wave (km/s) = 5.03729 5.60761 5.33008
#
# Compressibility (1/GPa) = 0.04453507
#
# Stress axis : x y z
#
# Youngs Moduli (GPa) = 45.18385 77.86625 64.92879
#
# Poissons Ratio (x) = 0.12225 0.11809
# Poissons Ratio (y) = 0.07094 -0.03042
# Poissons Ratio (z) = 0.08218 -0.03648
#
# Static dielectric constant tensor:
#      x y z
#    x 1.602740 0.000000 0.107700 
#    y 0.000000 1.898340 0.000000 
#    z 0.107700 0.000000 1.845720 
# 
# From -- ./inp_files/176892.got.cif
#   From: 2010.05.17/outbox.cif.g08.bks.cpg/sg15_89_cif.got.tgz:176892.got - 2010.06.03 18:47:42.
