data_PCOD9301108
_publ_section_title
;
Structure prediction by ZEFSAII (Michael W. Deem and Ramdas Pophale) SiO2 
 PCOD9301108
Probable space group: C 2/C
;
_chemical_formula_sum "Si O2"
_cell_formula_units_Z 48
_cell_length_a 11.841691
_cell_length_b 14.387933
_cell_length_c 27.124488
_cell_angle_alpha 90.000000
_cell_angle_beta 31.322764
_cell_angle_gamma 90.000000
_cell_volume 2402.474983
_symmetry_space_group_name_H-M "C 2/C"
_symmetry_group_IT_number 15
_symmetry_cell_setting 'monoclinic'
loop_
_space_group_symop_operation_xyz
x,y,z
-x,y,1/2-z
-x,-y,-z
x,-y,1/2+z
1/2+x,1/2+y,z
1/2-x,1/2+y,1/2-z
1/2-x,1/2-y,-z
1/2+x,1/2-y,1/2+z
loop_
_atom_site_type_symbol
_atom_site_label
_atom_site_fract_x
_atom_site_fract_y
_atom_site_fract_z
Si Si1 0.360575 0.437180 0.752618
Si Si2 0.149167 0.159176 0.513222
Si Si3 0.297824 0.767444 0.289163
Si Si4 0.802702 0.569045 0.357569
Si Si5 0.995392 0.415255 0.146510
Si Si6 0.110949 0.042949 0.059384
O O1 0.500000 0.450435 0.750000
O O2 0.235743 0.338505 0.800358
O O3 0.189211 0.518806 0.807596
O O4 0.523726 0.432761 0.645483
O O5 0.250000 0.250000 0.500000
O O6 0.232674 0.138581 0.427168
O O7 0.892826 0.177905 0.612596
O O8 0.190884 0.064036 0.527532
O O9 0.500000 0.760460 0.250000
O O10 0.379087 0.825334 0.211920
O O11 0.592764 0.549245 0.402286
O O12 0.000000 0.603785 0.250000
O O13 0.893381 0.476193 0.350957
O O14 0.188877 0.397252 0.035873
#
# Coordination Sequence:
#
# PCOD9301108 Si02
#       6
#     8   8   8   8   8   8
#     4  11  25  42  62  89 132 175 209 256 318 384
#     4  11  22  37  63  97 129 163 202 261 323 373
#     4  11  21  39  65  92 122 165 215 255 312 376
#     4  11  20  37  67  98 125 160 210 269 316 368
#     4  11  21  40  66  93 125 165 209 268 319 373
#     4  11  22  40  65  92 127 165 213 263 322 369
#
# _framework density 19.979396000000001
#
# number of rings (size 3 to 8) (size 9 to 14) (size 15 to 20)
#    0.000    1.000    3.333    6.500    0.000    1.333 
#    0.000    2.500    0.000    0.000    0.000    0.000 
#    0.000    0.000    0.000    0.000    0.000    0.000 
#
# Total GULP energy -134176.161756 kJ/mol
# GULP energy per Si atom -5590.673407 kJ/mol
# Density = 1.993392 g / cm^3
# Si number density = 19.979396 Si / 1000 Ang^3
#
#
#
# Elastic Constant Matrix: (Units=GPa)
#
#
# Indices 1 2 3 4 5 6 
#
# 1 94.0664 21.7717 22.1436 -0.0012 10.0972 0.0008
# 2 21.7717 65.9298 -5.9737 -0.0031 1.6171 -0.0011
# 3 22.1436 -5.9737 123.0401 -0.0063 14.5252 0.0021
# 4 -0.0012 -0.0031 -0.0063 24.2777 0.0016 2.0466
# 5 10.0972 1.6171 14.5252 0.0016 35.1671 -0.0016
# 6 0.0008 -0.0011 0.0021 2.0466 -0.0016 16.7663
#
#
#
# Elastic Compliance Matrix: (Units=1/GPa)
#
#
# Indices 1 2 3 4 5 6 
#
# 1 0.012377 -0.004220 -0.002140 0.000000 -0.002476 -0.000001
# 2 -0.004220 0.016711 0.001596 0.000002 -0.000216 0.000001
# 3 -0.002140 0.001596 0.008963 0.000003 -0.003161 -0.000002
# 4 0.000000 0.000002 0.000003 0.041618 -0.000003 -0.005080
# 5 -0.002476 -0.000216 -0.003161 -0.000003 0.030462 0.000004
# 6 -0.000001 0.000001 -0.000002 -0.005080 0.000004 0.060263
#
#
# Mechanical properties :
#
#
# Convention : Reuss Voigt Hill
#
# Bulk Modulus (GPa) = 35.05904 39.87994 37.46949
# Shear Modulus (GPa) = 26.39473 31.58188 28.98830
#
# Velocity S-wave (km/s) = 3.63863 3.98014 3.81321
# Velocity P-wave (km/s) = 5.93621 6.41295 6.17918
#
# Compressibility (1/GPa) = 0.02852332
#
# Stress axis : x y z
#
# Youngs Moduli (GPa) = 80.79390 59.83980 111.56636
#
# Poissons Ratio (x) = 0.25255 0.23877
# Poissons Ratio (y) = 0.34099 -0.17811
# Poissons Ratio (z) = 0.17291 -0.09553
#
# Static dielectric constant tensor:
#      x y z
#    x 1.691350 0.000000 -0.008530 
#    y 0.000000 1.708290 0.000000 
#    z -0.008530 0.000000 1.729500 
# 
# From -- ./inp_files/239026.got.cif
#   From: 2010.05.17/outbox.cif.g08.bks.cpg/sg15_120_cif.got.tgz:239026.got - 2010.06.03 18:47:42.
