data_PCOD9301618
_publ_section_title
;
Structure prediction by ZEFSAII (Michael W. Deem and Ramdas Pophale) SiO2 
 PCOD9301618
Probable space group: C 2/C
;
_chemical_formula_sum "Si O2"
_cell_formula_units_Z 64
_cell_length_a 22.997691
_cell_length_b 6.784573
_cell_length_c 22.025391
_cell_angle_alpha 90.000000
_cell_angle_beta 75.105984
_cell_angle_gamma 90.000000
_cell_volume 3321.150976
_symmetry_space_group_name_H-M "C 2/C"
_symmetry_group_IT_number 15
_symmetry_cell_setting 'monoclinic'
loop_
_space_group_symop_operation_xyz
x,y,z
-x,y,1/2-z
-x,-y,-z
x,-y,1/2+z
1/2+x,1/2+y,z
1/2-x,1/2+y,1/2-z
1/2-x,1/2-y,-z
1/2+x,1/2-y,1/2+z
loop_
_atom_site_type_symbol
_atom_site_label
_atom_site_fract_x
_atom_site_fract_y
_atom_site_fract_z
Si Si1 0.688600 0.602448 0.143313
Si Si2 0.839303 0.861055 0.233500
Si Si3 0.763194 0.268755 0.068550
Si Si4 0.274410 0.988328 0.809772
Si Si5 0.959162 0.070872 0.627598
Si Si6 0.895752 0.896964 0.527441
Si Si7 0.576637 0.673826 0.087226
Si Si8 0.973688 0.424257 0.943848
O O1 0.662656 0.453770 0.199658
O O2 0.744237 0.489576 0.095085
O O3 0.636151 0.654710 0.110802
O O4 0.705087 0.795872 0.176427
O O5 0.815713 0.636512 0.251499
O O6 0.904774 0.899416 0.188522
O O7 0.790214 0.975093 0.204905
O O8 0.727944 0.129908 0.125778
O O9 0.830441 0.186985 0.059888
O O10 0.750000 0.250000 0.000000
O O11 0.977287 0.290822 0.602567
O O12 0.933839 0.944388 0.577284
O O13 0.021196 0.958654 0.627576
O O14 0.922951 0.729351 0.477130
O O15 0.903149 0.092203 0.484418
O O16 0.552325 0.894741 0.086822
O O17 0.000000 0.500000 0.000000
#
# Coordination Sequence:
#
# PCOD9301618 Si02
#       8
#     8   8   8   8   8   8   8   8
#     4  11  26  43  66  94 136 174 219 279 332 396
#     4  11  24  45  67  93 126 171 231 272 326 390
#     4  11  24  41  66 104 133 170 213 277 346 396
#     4  11  24  44  68  96 130 174 220 276 329 393
#     4  11  23  41  68  95 128 173 220 272 321 396
#     4  11  21  39  65  97 133 163 220 267 331 399
#     4  11  23  42  62  96 139 169 211 273 335 392
#     4  11  21  37  62  99 129 171 212 263 332 399
#
# _framework density 19.270426
#
# number of rings (size 3 to 8) (size 9 to 14) (size 15 to 20)
#    0.000    1.000    6.250    0.750    1.750    5.000 
#    0.000    0.000    0.000    0.000    0.000    0.000 
#    0.000    0.000    0.000    0.000    0.000    0.000 
#
# Total GULP energy -178413.220349 kJ/mol
# GULP energy per Si atom -5575.413136 kJ/mol
# Density = 1.922657 g / cm^3
# Si number density = 19.270426 Si / 1000 Ang^3
#
#
#
# Elastic Constant Matrix: (Units=GPa)
#
#
# Indices 1 2 3 4 5 6 
#
# 1 63.2204 20.3698 11.8367 0.0000 -13.8945 0.0000
# 2 20.3698 107.5296 24.5884 0.0000 -12.9822 0.0000
# 3 11.8367 24.5884 80.6996 0.0000 -20.9065 0.0000
# 4 0.0000 0.0000 0.0000 22.2225 0.0000 1.9196
# 5 -13.8945 -12.9822 -20.9065 0.0000 31.6373 0.0000
# 6 0.0000 0.0000 0.0000 1.9196 0.0000 25.8978
#
#
#
# Elastic Compliance Matrix: (Units=1/GPa)
#
#
# Indices 1 2 3 4 5 6 
#
# 1 0.018178 -0.002593 -0.000101 0.000000 0.006853 0.000000
# 2 -0.002593 0.010536 -0.002419 0.000000 0.001586 0.000000
# 3 -0.000101 -0.002419 0.015534 0.000000 0.009228 0.000000
# 4 0.000000 0.000000 0.000000 0.045289 0.000000 -0.003357
# 5 0.006853 0.001586 0.009228 0.000000 0.041367 0.000000
# 6 0.000000 0.000000 0.000000 -0.003357 0.000000 0.038862
#
#
# Mechanical properties :
#
#
# Convention : Reuss Voigt Hill
#
# Bulk Modulus (GPa) = 29.39263 40.55993 34.97628
# Shear Modulus (GPa) = 26.13244 28.92850 27.53047
#
# Velocity S-wave (km/s) = 3.68651 3.87872 3.78383
# Velocity P-wave (km/s) = 5.77982 6.41504 6.10569
#
# Compressibility (1/GPa) = 0.03402213
#
# Stress axis : x y z
#
# Youngs Moduli (GPa) = 55.01100 94.91648 64.37396
#
# Poissons Ratio (x) = 0.24613 0.00649
# Poissons Ratio (y) = 0.14265 0.15571
# Poissons Ratio (z) = 0.00555 0.22959
#
# Static dielectric constant tensor:
#      x y z
#    x 1.092390 0.000000 0.076890 
#    y 0.000000 1.313540 0.000000 
#    z 0.076890 0.000000 1.673830 
# 
# From -- ./inp_files/281180.got.cif
#   From: 2010.05.17/outbox.cif.g08.bks.cpg/sg15_141_cif.got.tgz:281180.got - 2010.06.03 18:47:42.
