data_PCOD9301673
_publ_section_title
;
Structure prediction by ZEFSAII (Michael W. Deem and Ramdas Pophale) SiO2 
 PCOD9301673
Probable space group: C 2/C
;
_chemical_formula_sum "Si O2"
_cell_formula_units_Z 64
_cell_length_a 26.508508
_cell_length_b 14.243818
_cell_length_c 9.604653
_cell_angle_alpha 90.000000
_cell_angle_beta 101.804266
_cell_angle_gamma 90.000000
_cell_volume 3549.853932
_symmetry_space_group_name_H-M "C 2/C"
_symmetry_group_IT_number 15
_symmetry_cell_setting 'monoclinic'
loop_
_space_group_symop_operation_xyz
x,y,z
-x,y,1/2-z
-x,-y,-z
x,-y,1/2+z
1/2+x,1/2+y,z
1/2-x,1/2+y,1/2-z
1/2-x,1/2-y,-z
1/2+x,1/2-y,1/2+z
loop_
_atom_site_type_symbol
_atom_site_label
_atom_site_fract_x
_atom_site_fract_y
_atom_site_fract_z
Si Si1 0.121190 0.333857 0.267574
Si Si2 0.262312 0.486622 0.219962
Si Si3 0.620280 0.154292 0.262191
Si Si4 0.052191 0.604198 0.964233
Si Si5 0.705290 0.286070 0.177776
Si Si6 0.192592 0.495319 0.427556
Si Si7 0.057256 0.613749 0.469431
Si Si8 0.306957 0.329125 0.655142
O O1 0.074359 0.335977 0.350106
O O2 0.165192 0.398967 0.364597
O O3 0.100223 0.377422 0.113607
O O4 0.146163 0.232441 0.260435
O O5 0.279108 0.378706 0.227807
O O6 0.244194 0.506425 0.366392
O O7 0.303970 0.562242 0.194452
O O8 0.211498 0.502725 0.096059
O O9 0.592470 0.110003 0.113224
O O10 0.658118 0.234089 0.226225
O O11 0.654728 0.078180 0.363148
O O12 0.575551 0.175680 0.349370
O O13 0.050366 0.494881 0.917566
O O14 0.997249 0.636755 0.990527
O O15 0.754293 0.217088 0.186418
O O16 0.692335 0.315944 0.011602
#
# Coordination Sequence:
#
# PCOD9301673 Si02
#       8
#     8   8   8   8   8   8   8   8
#     4  12  21  37  59  83 118 161 192 226 292 350
#     4  12  23  38  55  82 120 156 201 238 274 335
#     4  12  22  36  57  84 117 160 189 233 293 342
#     4  11  21  38  58  82 122 157 187 238 292 348
#     4  11  23  38  58  83 116 157 196 234 289 343
#     4  12  21  33  56  84 118 157 196 232 278 342
#     4  11  23  35  56  91 118 148 198 241 282 347
#     4  11  22  38  58  83 116 157 194 233 288 348
#
# _framework density 18.028911000000001
#
# number of rings (size 3 to 8) (size 9 to 14) (size 15 to 20)
#    0.000    0.500    7.500    3.000    0.000    3.500 
#    0.000    0.000    0.000    0.000    0.000    5.250 
#    0.000    0.000    0.000    0.000    0.000    0.000 
#
# Total GULP energy -178821.225069 kJ/mol
# GULP energy per Si atom -5588.163283 kJ/mol
# Density = 1.798788 g / cm^3
# Si number density = 18.028911 Si / 1000 Ang^3
#
#
#
# Elastic Constant Matrix: (Units=GPa)
#
#
# Indices 1 2 3 4 5 6 
#
# 1 89.7179 31.0133 27.2732 0.0000 -26.2452 0.0000
# 2 31.0133 74.8332 21.7483 0.0000 -3.4665 0.0000
# 3 27.2732 21.7483 56.8541 0.0000 -14.7638 0.0000
# 4 0.0000 0.0000 0.0000 18.2943 0.0000 -6.0526
# 5 -26.2452 -3.4665 -14.7638 0.0000 36.1007 0.0000
# 6 0.0000 0.0000 0.0000 -6.0526 0.0000 26.6493
#
#
#
# Elastic Compliance Matrix: (Units=1/GPa)
#
#
# Indices 1 2 3 4 5 6 
#
# 1 0.017229 -0.005679 -0.003336 0.000000 0.010616 0.000000
# 2 -0.005679 0.016940 -0.004929 0.000000 -0.004518 0.000000
# 3 -0.003336 -0.004929 0.022736 0.000000 0.006400 0.000000
# 4 0.000000 0.000000 0.000000 0.059103 0.000000 0.013423
# 5 0.010616 -0.004518 0.006400 0.000000 0.037601 0.000000
# 6 0.000000 0.000000 0.000000 0.013423 0.000000 0.040573
#
#
# Mechanical properties :
#
#
# Convention : Reuss Voigt Hill
#
# Bulk Modulus (GPa) = 34.46156 42.38612 38.42384
# Shear Modulus (GPa) = 21.57577 25.63355 23.60466
#
# Velocity S-wave (km/s) = 3.46313 3.77477 3.62231
# Velocity P-wave (km/s) = 5.92850 6.52378 6.23325
#
# Compressibility (1/GPa) = 0.02901784
#
# Stress axis : x y z
#
# Youngs Moduli (GPa) = 58.04334 59.03279 43.98245
#
# Poissons Ratio (x) = 0.33524 0.14671
# Poissons Ratio (y) = 0.32962 0.21678
# Poissons Ratio (z) = 0.19361 0.29097
#
# Static dielectric constant tensor:
#      x y z
#    x 1.655260 0.000000 -0.013420 
#    y 0.000000 1.607390 0.000000 
#    z -0.013420 0.000000 1.632330 
# 
# From -- ./inp_files/66225.got.cif
#   From: 2010.05.17/outbox.cif.g08.bks.cpg/sg15_34_cif.got.tgz:66225.got - 2010.06.03 18:47:42.
