data_PCOD9301730
_publ_section_title
;
Structure prediction by ZEFSAII (Michael W. Deem and Ramdas Pophale) SiO2 
 PCOD9301730
Probable space group: C 2/C
;
_chemical_formula_sum "Si O2"
_cell_formula_units_Z 60
_cell_length_a 14.902489
_cell_length_b 11.615887
_cell_length_c 18.712794
_cell_angle_alpha 90.000000
_cell_angle_beta 115.540949
_cell_angle_gamma 90.000000
_cell_volume 2922.738026
_symmetry_space_group_name_H-M "C 2/C"
_symmetry_group_IT_number 15
_symmetry_cell_setting 'monoclinic'
loop_
_space_group_symop_operation_xyz
x,y,z
-x,y,1/2-z
-x,-y,-z
x,-y,1/2+z
1/2+x,1/2+y,z
1/2-x,1/2+y,1/2-z
1/2-x,1/2-y,-z
1/2+x,1/2-y,1/2+z
loop_
_atom_site_type_symbol
_atom_site_label
_atom_site_fract_x
_atom_site_fract_y
_atom_site_fract_z
Si Si1 0.501468 0.442594 0.579468
Si Si2 0.221942 0.073967 0.457020
Si Si3 0.461805 0.684096 0.849294
Si Si4 0.804118 0.811414 0.083615
Si Si5 0.000000 0.368200 0.750000
Si Si6 0.741328 0.758933 0.659903
Si Si7 0.827214 0.533477 0.640358
Si Si8 0.299050 0.336609 0.834164
O O1 0.500000 0.500000 0.500000
O O2 0.390264 0.400200 0.555855
O O3 0.533621 0.543989 0.647200
O O4 0.582897 0.342772 0.612876
O O5 0.252917 0.163663 0.408065
O O6 0.296795 0.063730 0.549212
O O7 0.214167 0.946521 0.422187
O O8 0.579807 0.709487 0.894927
O O9 0.440251 0.776700 0.778581
O O10 0.372012 0.713063 0.871888
O O11 0.755934 0.760833 0.138642
O O12 0.750000 0.750000 0.000000
O O13 0.074858 0.454825 0.816748
O O14 0.818856 0.653188 0.679458
O O15 0.771810 0.826459 0.741976
O O16 0.741317 0.453902 0.644606
#
# Coordination Sequence:
#
# PCOD9301730 Si02
#       8
#     8   8   8   8   4   8   8   8
#     4  11  22  41  71  99 131 179 230 283 336 396
#     4  11  25  45  71  99 136 175 232 281 339 406
#     4  11  21  38  66  95 127 177 221 267 333 409
#     4  11  21  41  69  99 127 170 228 281 329 398
#     4  12  24  42  70  96 134 188 226 274 350 414
#     4  12  27  42  66 100 140 177 226 277 349 411
#     4  12  24  46  66  95 140 179 216 281 343 403
#     4  12  23  40  70  98 135 173 227 283 338 391
#
# _framework density 20.528696
#
# number of rings (size 3 to 8) (size 9 to 14) (size 15 to 20)
#    0.000    0.533    6.667    1.200    1.867    3.733 
#    0.000    4.000    0.000    0.000    0.000    0.000 
#    0.000    0.000    0.000    0.000    0.000    0.000 
#
# Total GULP energy -167320.327220 kJ/mol
# GULP energy per Si atom -5577.344241 kJ/mol
# Density = 2.048197 g / cm^3
# Si number density = 20.528696 Si / 1000 Ang^3
#
#
#
# Elastic Constant Matrix: (Units=GPa)
#
#
# Indices 1 2 3 4 5 6 
#
# 1 110.8643 22.5450 36.0894 0.0000 9.1751 0.0000
# 2 22.5450 50.4528 3.7809 0.0000 -6.5094 0.0000
# 3 36.0894 3.7809 71.2724 0.0000 -5.2502 0.0000
# 4 0.0000 0.0000 0.0000 24.6246 0.0000 -3.8278
# 5 9.1751 -6.5094 -5.2502 0.0000 35.4282 0.0000
# 6 0.0000 0.0000 0.0000 -3.8278 0.0000 26.4743
#
#
#
# Elastic Compliance Matrix: (Units=1/GPa)
#
#
# Indices 1 2 3 4 5 6 
#
# 1 0.012808 -0.005925 -0.006567 0.000000 -0.005379 0.000000
# 2 -0.005925 0.023089 0.002225 0.000000 0.006107 0.000000
# 3 -0.006567 0.002225 0.017585 0.000000 0.004716 0.000000
# 4 0.000000 0.000000 0.000000 0.041543 0.000000 0.006007
# 5 -0.005379 0.006107 0.004716 0.000000 0.031440 0.000000
# 6 0.000000 0.000000 0.000000 0.006007 0.000000 0.038641
#
#
# Mechanical properties :
#
#
# Convention : Reuss Voigt Hill
#
# Bulk Modulus (GPa) = 30.35068 39.71334 35.03201
# Shear Modulus (GPa) = 25.42925 28.65038 27.03981
#
# Velocity S-wave (km/s) = 3.52336 3.73986 3.63322
# Velocity P-wave (km/s) = 5.60078 6.16733 5.89087
#
# Compressibility (1/GPa) = 0.03294819
#
# Stress axis : x y z
#
# Youngs Moduli (GPa) = 78.07655 43.31022 56.86531
#
# Poissons Ratio (x) = 0.25662 0.37345
# Poissons Ratio (y) = 0.46261 -0.12654
# Poissons Ratio (z) = 0.51275 -0.09637
#
# Static dielectric constant tensor:
#      x y z
#    x 1.748570 0.000000 0.007100 
#    y 0.000000 1.787770 0.000000 
#    z 0.007100 0.000000 1.781450 
# 
# From -- ./inp_files/204519.got.cif
#   From: 2010.05.17/outbox.cif.g08.bks.cpg/sg15_103_cif.got.tgz:204519.got - 2010.06.03 18:47:42.
