data_PCOD9301250
_publ_section_title
;
Structure prediction by ZEFSAII (Michael W. Deem and Ramdas Pophale) SiO2 
 PCOD9301250
Probable space group: C 2/C
;
_chemical_formula_sum "Si O2"
_cell_formula_units_Z 36
_cell_length_a 8.111086
_cell_length_b 13.110997
_cell_length_c 16.322101
_cell_angle_alpha 90.000000
_cell_angle_beta 104.492040
_cell_angle_gamma 90.000000
_cell_volume 1680.536602
_symmetry_space_group_name_H-M "C 2/C"
_symmetry_group_IT_number 15
_symmetry_cell_setting 'monoclinic'
loop_
_space_group_symop_operation_xyz
x,y,z
-x,y,1/2-z
-x,-y,-z
x,-y,1/2+z
1/2+x,1/2+y,z
1/2-x,1/2+y,1/2-z
1/2-x,1/2-y,-z
1/2+x,1/2-y,1/2+z
loop_
_atom_site_type_symbol
_atom_site_label
_atom_site_fract_x
_atom_site_fract_y
_atom_site_fract_z
Si Si1 0.500000 0.720170 0.750000
Si Si2 0.189997 0.402780 0.157087
Si Si3 0.057317 0.286503 0.475217
Si Si4 0.143584 0.916673 0.503135
Si Si5 0.491593 0.096784 0.124065
O O1 0.668349 0.650677 0.769936
O O2 0.503718 0.797757 0.826464
O O3 0.284153 0.417737 0.080466
O O4 0.028702 0.329677 0.117807
O O5 0.112626 0.510181 0.175865
O O6 0.250000 0.250000 0.500000
O O7 0.936183 0.194447 0.489507
O O8 0.052937 0.377714 0.540087
O O9 0.297210 0.935992 0.585797
O O10 0.000000 0.000000 0.500000
#
# Coordination Sequence:
#
# PCOD9301250 Si02
#       5
#     4   8   8   8   8
#     4  12  24  46  62  90 152 170 210 260 340 400
#     4  11  23  43  65  93 129 172 213 269 326 382
#     4  11  20  41  68  98 122 160 227 275 310 374
#     4  11  20  39  72  96 124 166 223 278 317 371
#     4  11  23  43  65  93 129 172 213 269 326 382
#
# _framework density 21.42173
#
# number of rings (size 3 to 8) (size 9 to 14) (size 15 to 20)
#    0.000    0.889    4.444    6.667    0.000    1.778 
#    8.000    0.000    0.000    0.000    0.000    0.000 
#    0.000    0.000    0.000    0.000    0.000    0.000 
#
# Total GULP energy -100642.063536 kJ/mol
# GULP energy per Si atom -5591.225752 kJ/mol
# Density = 2.137297 g / cm^3
# Si number density = 21.421730 Si / 1000 Ang^3
#
#
#
# Elastic Constant Matrix: (Units=GPa)
#
#
# Indices 1 2 3 4 5 6 
#
# 1 128.0887 49.6774 25.8896 0.0000 45.0381 0.0000
# 2 49.6774 123.1284 15.7523 0.0000 29.5473 0.0000
# 3 25.8896 15.7523 50.7272 0.0000 34.0864 0.0000
# 4 0.0000 0.0000 0.0000 29.5726 0.0000 19.6135
# 5 45.0381 29.5473 34.0864 0.0000 39.1348 0.0000
# 6 0.0000 0.0000 0.0000 19.6135 0.0000 57.2270
#
#
#
# Elastic Compliance Matrix: (Units=1/GPa)
#
#
# Indices 1 2 3 4 5 6 
#
# 1 0.014950 -0.001454 0.008789 0.000000 -0.023762 0.000000
# 2 -0.001454 0.010549 0.004084 0.000000 -0.009849 0.000000
# 3 0.008789 0.004084 0.055044 0.000000 -0.061141 0.000000
# 4 0.000000 0.000000 0.000000 0.043763 0.000000 -0.014999
# 5 -0.023762 -0.009849 -0.061141 0.000000 0.113590 0.000000
# 6 0.000000 0.000000 0.000000 -0.014999 0.000000 0.022615
#
#
# Mechanical properties :
#
#
# Convention : Reuss Voigt Hill
#
# Bulk Modulus (GPa) = 9.67294 53.84254 31.75774
# Shear Modulus (GPa) = 18.37345 39.22855 28.80100
#
# Velocity S-wave (km/s) = 2.93183 4.28395 3.67069
# Velocity P-wave (km/s) = 3.99827 7.04690 5.72909
#
# Compressibility (1/GPa) = 0.10338122
#
# Stress axis : x y z
#
# Youngs Moduli (GPa) = 66.89121 94.79457 18.16735
#
# Poissons Ratio (x) = 0.13780 -0.15967
# Poissons Ratio (y) = 0.09724 -0.07420
# Poissons Ratio (z) = -0.58788 -0.38718
#
# Static dielectric constant tensor:
#      x y z
#    x 1.790290 0.000000 0.000800 
#    y 0.000000 1.788350 0.000000 
#    z 0.000800 0.000000 1.838970 
# 
# From -- ./inp_files/187617.got.cif
#   From: 2010.05.17/outbox.cif.g08.bks.cpg/sg15_94_cif.got.tgz:187617.got - 2010.06.03 18:47:42.
