data_PCOD9301176
_publ_section_title
;
Structure prediction by ZEFSAII (Michael W. Deem and Ramdas Pophale) SiO2 
 PCOD9301176
Probable space group: C 2/C
;
_chemical_formula_sum "Si O2"
_cell_formula_units_Z 56
_cell_length_a 23.029300
_cell_length_b 19.729231
_cell_length_c 19.102722
_cell_angle_alpha 90.000000
_cell_angle_beta 163.166645
_cell_angle_gamma 90.000000
_cell_volume 2513.438688
_symmetry_space_group_name_H-M "C 2/C"
_symmetry_group_IT_number 15
_symmetry_cell_setting 'monoclinic'
loop_
_space_group_symop_operation_xyz
x,y,z
-x,y,1/2-z
-x,-y,-z
x,-y,1/2+z
1/2+x,1/2+y,z
1/2-x,1/2+y,1/2-z
1/2-x,1/2-y,-z
1/2+x,1/2-y,1/2+z
loop_
_atom_site_type_symbol
_atom_site_label
_atom_site_fract_x
_atom_site_fract_y
_atom_site_fract_z
Si Si1 0.854270 0.341254 0.756118
Si Si2 0.791611 0.061840 0.040935
Si Si3 0.641718 0.185280 0.711242
Si Si4 0.510334 0.339282 0.550089
Si Si5 0.792051 0.582463 0.045497
Si Si6 0.410987 0.312202 0.288486
Si Si7 0.597244 0.892460 0.457541
O O1 0.830921 0.397406 0.670146
O O2 0.640201 0.331217 0.543774
O O3 0.895692 0.268618 0.766925
O O4 0.007270 0.350188 0.996118
O O5 0.000000 0.088965 0.250000
O O6 0.589728 0.054643 0.759458
O O7 0.699464 0.105857 0.998309
O O8 0.838879 0.984649 0.118042
O O9 0.619637 0.265801 0.675038
O O10 0.536853 0.168281 0.664167
O O11 0.865640 0.160507 0.950991
O O12 0.365978 0.337301 0.315440
O O13 0.691805 0.393355 0.756517
O O14 0.000000 0.565844 0.250000
O O15 0.706988 0.647731 0.906780
#
# Coordination Sequence:
#
# PCOD9301176 Si02
#       7
#     8   8   8   8   8   8   8
#     4  11  21  37  62 101 135 168 208 256 320 382
#     4  11  25  47  68  88 121 177 219 267 315 368
#     4  11  20  38  67 100 134 165 203 262 330 385
#     4  11  20  38  67 100 134 165 203 262 330 385
#     4  12  23  42  65  88 133 172 220 259 309 374
#     4  11  21  37  62 101 135 168 208 256 320 382
#     4  11  22  44  68  91 132 164 216 263 318 392
#
# _framework density 22.280232000000002
#
# number of rings (size 3 to 8) (size 9 to 14) (size 15 to 20)
#    0.000    0.857    4.286    6.857    0.000    0.000 
#    0.000    4.286    0.000    0.000    0.000    0.000 
#    0.000    0.000    0.000    0.000    0.000    0.000 
#
# Total GULP energy -155926.776145 kJ/mol
# GULP energy per Si atom -5568.813434 kJ/mol
# Density = 2.222952 g / cm^3
# Si number density = 22.280232 Si / 1000 Ang^3
#
#
#
# Elastic Constant Matrix: (Units=GPa)
#
#
# Indices 1 2 3 4 5 6 
#
# 1 108.4701 34.1174 41.8569 -0.0086 28.7252 -0.0050
# 2 34.1174 31.8677 12.3733 0.0130 -10.4169 -0.0002
# 3 41.8569 12.3733 101.9545 0.0423 27.4392 -0.0117
# 4 -0.0086 0.0130 0.0423 21.2460 0.0305 13.1209
# 5 28.7252 -10.4169 27.4392 0.0305 50.0318 -0.0108
# 6 -0.0050 -0.0002 -0.0117 13.1209 -0.0108 19.6997
#
#
#
# Elastic Compliance Matrix: (Units=1/GPa)
#
#
# Indices 1 2 3 4 5 6 
#
# 1 0.026454 -0.035360 -0.000587 0.000118 -0.022229 -0.000084
# 2 -0.035360 0.085822 -0.007240 -0.000203 0.042141 0.000146
# 3 -0.000587 -0.007240 0.013190 -0.000020 -0.008404 0.000016
# 4 0.000118 -0.000203 -0.000020 0.079956 -0.000159 -0.053254
# 5 -0.022229 0.042141 -0.008404 -0.000159 0.046133 0.000121
# 6 -0.000084 0.000146 0.000016 -0.053254 0.000121 0.086232
#
#
# Mechanical properties :
#
#
# Convention : Reuss Voigt Hill
#
# Bulk Modulus (GPa) = 25.58049 46.55417 36.06733
# Shear Modulus (GPa) = 11.43666 28.45848 19.94757
#
# Velocity S-wave (km/s) = 2.26809 3.57781 2.99541
# Velocity P-wave (km/s) = 4.28546 6.16505 5.30909
#
# Compressibility (1/GPa) = 0.03909229
#
# Stress axis : x y z
#
# Youngs Moduli (GPa) = 37.80140 11.65204 75.81662
#
# Poissons Ratio (x) = 0.41201 0.04450
# Poissons Ratio (y) = 1.33665 0.54891
# Poissons Ratio (z) = 0.02219 0.08436
#
# Static dielectric constant tensor:
#      x y z
#    x 1.765860 -0.001060 0.163600 
#    y -0.001060 4.869280 0.001380 
#    z 0.163600 0.001380 1.624710 
# 
# From -- ./inp_files/216615.got.cif
#   From: 2010.05.17/outbox.cif.g08.bks.cpg/sg15_109_cif.got.tgz:216615.got - 2010.06.03 18:47:42.
