data_PCOD9301106
_publ_section_title
;
Structure prediction by ZEFSAII (Michael W. Deem and Ramdas Pophale) SiO2 
 PCOD9301106
Probable space group: C 2/C
;
_chemical_formula_sum "Si O2"
_cell_formula_units_Z 48
_cell_length_a 12.243964
_cell_length_b 26.075050
_cell_length_c 8.758457
_cell_angle_alpha 90.000000
_cell_angle_beta 54.985795
_cell_angle_gamma 90.000000
_cell_volume 2290.149864
_symmetry_space_group_name_H-M "C 2/C"
_symmetry_group_IT_number 15
_symmetry_cell_setting 'monoclinic'
loop_
_space_group_symop_operation_xyz
x,y,z
-x,y,1/2-z
-x,-y,-z
x,-y,1/2+z
1/2+x,1/2+y,z
1/2-x,1/2+y,1/2-z
1/2-x,1/2-y,-z
1/2+x,1/2-y,1/2+z
loop_
_atom_site_type_symbol
_atom_site_label
_atom_site_fract_x
_atom_site_fract_y
_atom_site_fract_z
Si Si1 0.978749 0.212412 0.603200
Si Si2 0.000000 0.661948 0.750000
Si Si3 0.392882 0.005550 0.954708
Si Si4 0.231656 0.392625 0.877525
Si Si5 0.657352 0.110027 0.095745
Si Si6 0.000000 0.839723 0.750000
Si Si7 0.819740 0.704412 0.637992
O O1 0.824356 0.228745 0.721571
O O2 0.000000 0.182996 0.750000
O O3 0.001658 0.188316 0.415403
O O4 0.083657 0.258517 0.532453
O O5 0.897296 0.694557 0.732536
O O6 0.096038 0.630922 0.557814
O O7 0.500000 0.027307 0.750000
O O8 0.335252 0.950050 0.956070
O O9 0.500000 0.000000 0.000000
O O10 0.282145 0.046562 0.085541
O O11 0.231144 0.381344 0.697095
O O12 0.362216 0.371361 0.854925
O O13 0.500000 0.118801 0.250000
O O14 0.699309 0.150053 0.932455
#
# Coordination Sequence:
#
# PCOD9301106 Si02
#       7
#     8   4   8   8   8   4   8
#     4  12  28  48  71 101 144 189 243 294 357 420
#     4  12  23  38  74  96 140 180 234 289 344 424
#     4  11  20  37  67 107 131 172 230 289 338 412
#     4  12  24  44  69 104 144 182 234 289 356 422
#     4  11  22  40  71 101 138 180 237 293 346 413
#     4  12  29  48  70 104 152 192 230 291 362 424
#     4  12  26  45  69 104 134 187 238 294 355 420
#
# _framework density 20.959327999999999
#
# number of rings (size 3 to 8) (size 9 to 14) (size 15 to 20)
#    0.000    0.333    7.500    2.500    2.333    1.333 
#    0.000    0.833    1.833    0.000    0.000    0.000 
#    0.000    0.000    0.000    0.000    0.000    0.000 
#
# Total GULP energy -133951.670416 kJ/mol
# GULP energy per Si atom -5581.319601 kJ/mol
# Density = 2.091162 g / cm^3
# Si number density = 20.959328 Si / 1000 Ang^3
#
#
#
# Elastic Constant Matrix: (Units=GPa)
#
#
# Indices 1 2 3 4 5 6 
#
# 1 135.9706 39.3272 49.2500 0.0000 6.0857 0.0000
# 2 39.3272 66.6438 27.3117 0.0000 -3.2186 0.0000
# 3 49.2500 27.3117 86.6748 0.0000 13.2222 0.0000
# 4 0.0000 0.0000 0.0000 28.0096 0.0000 1.8851
# 5 6.0857 -3.2186 13.2222 0.0000 58.0153 0.0000
# 6 0.0000 0.0000 0.0000 1.8851 0.0000 15.4050
#
#
#
# Elastic Compliance Matrix: (Units=1/GPa)
#
#
# Indices 1 2 3 4 5 6 
#
# 1 0.010186 -0.004216 -0.004414 0.000000 -0.000296 0.000000
# 2 -0.004216 0.019269 -0.004047 0.000000 0.002434 0.000000
# 3 -0.004414 -0.004047 0.015835 0.000000 -0.003370 0.000000
# 4 0.000000 0.000000 0.000000 0.035999 0.000000 -0.004405
# 5 -0.000296 0.002434 -0.003370 0.000000 0.018171 0.000000
# 6 0.000000 0.000000 0.000000 -0.004405 0.000000 0.065453
#
#
# Mechanical properties :
#
#
# Convention : Reuss Voigt Hill
#
# Bulk Modulus (GPa) = 50.16302 57.89632 54.02967
# Shear Modulus (GPa) = 25.39178 31.84599 28.61888
#
# Velocity S-wave (km/s) = 3.48441 3.90220 3.69921
# Velocity P-wave (km/s) = 6.33826 6.92720 6.63926
#
# Compressibility (1/GPa) = 0.01993501
#
# Stress axis : x y z
#
# Youngs Moduli (GPa) = 98.17276 51.89561 63.15090
#
# Poissons Ratio (x) = 0.21881 0.27876
# Poissons Ratio (y) = 0.41392 0.25560
# Poissons Ratio (z) = 0.43335 0.21004
#
# Static dielectric constant tensor:
#      x y z
#    x 1.707050 0.000000 0.029270 
#    y 0.000000 1.799360 0.000000 
#    z 0.029270 0.000000 1.791390 
# 
# From -- ./inp_files/33458.got.cif
#   From: 2010.05.17/outbox.cif.g08.bks.cpg/sg15_17_cif.got.tgz:33458.got - 2010.06.03 18:47:42.
