data_PCOD9301853
_publ_section_title
;
Structure prediction by ZEFSAII (Michael W. Deem and Ramdas Pophale) SiO2 
 PCOD9301853
Probable space group: C 2/C
;
_chemical_formula_sum "Si O2"
_cell_formula_units_Z 36
_cell_length_a 21.995802
_cell_length_b 7.941462
_cell_length_c 15.874201
_cell_angle_alpha 90.000000
_cell_angle_beta 36.688317
_cell_angle_gamma 90.000000
_cell_volume 1656.693509
_symmetry_space_group_name_H-M "C 2/C"
_symmetry_group_IT_number 15
_symmetry_cell_setting 'monoclinic'
loop_
_space_group_symop_operation_xyz
x,y,z
-x,y,1/2-z
-x,-y,-z
x,-y,1/2+z
1/2+x,1/2+y,z
1/2-x,1/2+y,1/2-z
1/2-x,1/2-y,-z
1/2+x,1/2-y,1/2+z
loop_
_atom_site_type_symbol
_atom_site_label
_atom_site_fract_x
_atom_site_fract_y
_atom_site_fract_z
Si Si1 0.364645 0.169552 0.549020
Si Si2 0.158351 0.694734 0.663065
Si Si3 0.282558 0.809598 0.674423
Si Si4 0.006160 0.180231 0.451108
Si Si5 0.000000 0.564733 0.250000
O O1 0.281136 0.308430 0.668045
O O2 0.445576 0.189518 0.535147
O O3 0.299085 0.997276 0.621203
O O4 0.432174 0.171745 0.390357
O O5 0.250000 0.750000 0.500000
O O6 0.222369 0.684086 0.678847
O O7 0.073788 0.827141 0.791242
O O8 0.084544 0.550357 0.706233
O O9 0.394702 0.741845 0.556850
O O10 0.000000 0.000000 0.500000
#
# Coordination Sequence:
#
# PCOD9301853 Si02
#       5
#     8   8   8   8   4
#     4  11  24  44  70 100 140 180 235 287 347 418
#     4  11  21  39  69 102 137 178 233 280 348 417
#     4  11  22  40  68  98 130 187 231 285 348 410
#     4  11  24  43  67  99 138 181 236 288 348 415
#     4  12  24  44  66 108 144 186 226 296 350 404
#
# _framework density 21.730029999999999
#
# number of rings (size 3 to 8) (size 9 to 14) (size 15 to 20)
#    0.000    0.889    4.444    3.333    3.111    0.000 
#    0.000    8.889    0.000    0.000    0.000    0.000 
#    0.000    0.000    0.000    0.000    0.000    0.000 
#
# Total GULP energy -100213.837786 kJ/mol
# GULP energy per Si atom -5567.435433 kJ/mol
# Density = 2.168057 g / cm^3
# Si number density = 21.730030 Si / 1000 Ang^3
#
#
#
# Elastic Constant Matrix: (Units=GPa)
#
#
# Indices 1 2 3 4 5 6 
#
# 1 84.5071 12.6395 29.6134 -0.0007 -20.1731 0.0004
# 2 12.6395 34.6949 26.9542 -0.0028 9.8825 0.0024
# 3 29.6134 26.9542 256.6718 -0.0011 8.3141 0.0010
# 4 -0.0007 -0.0028 -0.0011 30.7420 0.0006 12.3319
# 5 -20.1731 9.8825 8.3141 0.0006 47.0617 -0.0005
# 6 0.0004 0.0024 0.0010 12.3319 -0.0005 14.3921
#
#
#
# Elastic Compliance Matrix: (Units=1/GPa)
#
#
# Indices 1 2 3 4 5 6 
#
# 1 0.015288 -0.006900 -0.001306 -0.000001 0.008233 0.000002
# 2 -0.006900 0.036304 -0.002689 0.000009 -0.010106 -0.000014
# 3 -0.001306 -0.002689 0.004354 0.000000 -0.000764 0.000000
# 4 -0.000001 0.000009 0.000000 0.049565 -0.000003 -0.042470
# 5 0.008233 -0.010106 -0.000764 -0.000003 0.027035 0.000005
# 6 0.000002 -0.000014 0.000000 -0.042470 0.000005 0.105873
#
#
# Mechanical properties :
#
#
# Convention : Reuss Voigt Hill
#
# Bulk Modulus (GPa) = 29.27727 57.14311 43.21019
# Shear Modulus (GPa) = 18.40972 38.88363 28.64668
#
# Velocity S-wave (km/s) = 2.91383 4.23471 3.63478
# Velocity P-wave (km/s) = 4.98227 7.08973 6.12729
#
# Compressibility (1/GPa) = 0.03415619
#
# Stress axis : x y z
#
# Youngs Moduli (GPa) = 65.40930 27.54507 229.68224
#
# Poissons Ratio (x) = 0.19006 0.29996
# Poissons Ratio (y) = 0.45133 0.61762
# Poissons Ratio (z) = 0.08542 0.07407
#
# Static dielectric constant tensor:
#      x y z
#    x 1.865260 0.000000 0.037010 
#    y 0.000000 1.764800 0.000000 
#    z 0.037010 0.000000 1.868800 
# 
# From -- ./inp_files/159044.got.cif
#   From: 2010.05.17/outbox.cif.g08.bks.cpg/sg15_80_cif.got.tgz:159044.got - 2010.06.03 18:47:42.
