data_PCOD9301811
_publ_section_title
;
Structure prediction by ZEFSAII (Michael W. Deem and Ramdas Pophale) SiO2 
 PCOD9301811
Probable space group: C 2/C
;
_chemical_formula_sum "Si O2"
_cell_formula_units_Z 44
_cell_length_a 13.324843
_cell_length_b 18.788197
_cell_length_c 11.872975
_cell_angle_alpha 90.000000
_cell_angle_beta 137.515992
_cell_angle_gamma 90.000000
_cell_volume 2007.510303
_symmetry_space_group_name_H-M "C 2/C"
_symmetry_group_IT_number 15
_symmetry_cell_setting 'monoclinic'
loop_
_space_group_symop_operation_xyz
x,y,z
-x,y,1/2-z
-x,-y,-z
x,-y,1/2+z
1/2+x,1/2+y,z
1/2-x,1/2+y,1/2-z
1/2-x,1/2-y,-z
1/2+x,1/2-y,1/2+z
loop_
_atom_site_type_symbol
_atom_site_label
_atom_site_fract_x
_atom_site_fract_y
_atom_site_fract_z
Si Si1 0.904098 0.228678 0.072423
Si Si2 0.771307 0.602147 0.146461
Si Si3 0.000000 0.513345 0.750000
Si Si4 0.040167 0.378918 0.484957
Si Si5 0.325260 0.180770 0.973318
Si Si6 0.481367 0.323533 0.402479
O O1 0.972260 0.304311 0.090573
O O2 0.000000 0.194019 0.250000
O O3 0.750000 0.250000 0.000000
O O4 0.902883 0.181868 0.959586
O O5 0.819346 0.619437 0.314080
O O6 0.858602 0.532819 0.175338
O O7 0.834033 0.660805 0.111016
O O8 0.593682 0.609913 0.989129
O O9 0.957534 0.560823 0.606773
O O10 0.904314 0.379228 0.461434
O O11 0.152741 0.180416 0.796072
O O12 0.413305 0.253559 0.021483
#
# Coordination Sequence:
#
# PCOD9301811 Si02
#       6
#     8   8   4   8   8   8
#     4  11  21  39  65  97 135 171 216 275 344 400
#     4  12  24  42  67  99 135 178 234 279 338 407
#     4  12  26  44  74  90 140 188 242 276 328 422
#     4  11  23  44  68  98 128 185 232 277 335 413
#     4  11  23  42  69 104 139 173 220 289 354 408
#     4  11  24  40  70 108 140 171 224 284 359 409
#
# _framework density 21.917695999999999
#
# number of rings (size 3 to 8) (size 9 to 14) (size 15 to 20)
#    0.000    0.727    2.727    7.091    0.000    2.909 
#    0.000    0.909    4.000    0.000    0.000    0.000 
#    0.000    0.000    0.000    0.000    0.000    0.000 
#
# Total GULP energy -122959.265801 kJ/mol
# GULP energy per Si atom -5589.057536 kJ/mol
# Density = 2.186781 g / cm^3
# Si number density = 21.917696 Si / 1000 Ang^3
#
#
#
# Elastic Constant Matrix: (Units=GPa)
#
#
# Indices 1 2 3 4 5 6 
#
# 1 100.0932 9.6546 27.5307 0.0000 -9.9465 0.0000
# 2 9.6546 43.7328 19.0560 0.0000 -9.3352 0.0000
# 3 27.5307 19.0560 138.7752 0.0000 -4.9438 0.0000
# 4 0.0000 0.0000 0.0000 24.0085 0.0000 -5.8718
# 5 -9.9465 -9.3352 -4.9438 0.0000 54.9166 0.0000
# 6 0.0000 0.0000 0.0000 -5.8718 0.0000 22.9865
#
#
#
# Elastic Compliance Matrix: (Units=1/GPa)
#
#
# Indices 1 2 3 4 5 6 
#
# 1 0.010792 -0.001210 -0.001919 0.000000 0.001576 0.000000
# 2 -0.001210 0.025295 -0.003098 0.000000 0.003802 0.000000
# 3 -0.001919 -0.003098 0.008006 0.000000 -0.000153 0.000000
# 4 0.000000 0.000000 0.000000 0.044428 0.000000 0.011349
# 5 0.001576 0.003802 -0.000153 0.000000 0.019127 0.000000
# 6 0.000000 0.000000 0.000000 0.011349 0.000000 0.046403
#
#
# Mechanical properties :
#
#
# Convention : Reuss Voigt Hill
#
# Bulk Modulus (GPa) = 31.60559 43.89819 37.75189
# Shear Modulus (GPa) = 28.24058 35.47296 31.85677
#
# Velocity S-wave (km/s) = 3.59344 4.02738 3.81658
# Velocity P-wave (km/s) = 5.62748 6.45744 6.05669
#
# Compressibility (1/GPa) = 0.03163997
#
# Stress axis : x y z
#
# Youngs Moduli (GPa) = 92.66340 39.53403 124.89937
#
# Poissons Ratio (x) = 0.04783 0.23963
# Poissons Ratio (y) = 0.11212 0.38692
# Poissons Ratio (z) = 0.17778 0.12247
#
# Static dielectric constant tensor:
#      x y z
#    x 1.922460 0.000000 0.051320 
#    y 0.000000 1.823820 0.000000 
#    z 0.051320 0.000000 1.814680 
# 
# From -- ./inp_files/99894.got.cif
#   From: 2010.05.17/outbox.cif.g08.bks.cpg/sg15_50_cif.got.tgz:99894.got - 2010.06.03 18:47:42.
