data_PCOD9301147
_publ_section_title
;
Structure prediction by ZEFSAII (Michael W. Deem and Ramdas Pophale) SiO2 
 PCOD9301147
Probable space group: C 2/C
;
_chemical_formula_sum "Si O2"
_cell_formula_units_Z 40
_cell_length_a 19.170929
_cell_length_b 12.192296
_cell_length_c 8.804027
_cell_angle_alpha 90.000000
_cell_angle_beta 111.012974
_cell_angle_gamma 90.000000
_cell_volume 1920.985106
_symmetry_space_group_name_H-M "C 2/C"
_symmetry_group_IT_number 15
_symmetry_cell_setting 'monoclinic'
loop_
_space_group_symop_operation_xyz
x,y,z
-x,y,1/2-z
-x,-y,-z
x,-y,1/2+z
1/2+x,1/2+y,z
1/2-x,1/2+y,1/2-z
1/2-x,1/2-y,-z
1/2+x,1/2-y,1/2+z
loop_
_atom_site_type_symbol
_atom_site_label
_atom_site_fract_x
_atom_site_fract_y
_atom_site_fract_z
Si Si1 0.189459 0.450104 0.303916
Si Si2 0.194921 0.753444 0.605109
Si Si3 0.826993 0.343544 0.888284
Si Si4 0.420202 0.587904 0.624988
Si Si5 0.360972 0.405543 0.401336
O O1 0.176305 0.366440 0.154035
O O2 0.162869 0.400670 0.441999
O O3 0.156437 0.567440 0.229996
O O4 0.280018 0.450523 0.389283
O O5 0.250000 0.750000 0.500000
O O6 0.241526 0.809619 0.779050
O O7 0.121850 0.821974 0.508159
O O8 0.866523 0.225500 0.920058
O O9 0.500000 0.623319 0.750000
O O10 0.423014 0.473541 0.538471
O O11 0.368371 0.569464 0.730396
#
# Coordination Sequence:
#
# PCOD9301147 Si02
#       5
#     8   8   8   8   8
#     4  11  21  36  64  93 126 155 210 267 309 354
#     4  11  20  38  62  90 125 164 205 261 305 363
#     4  11  22  36  63  94 123 160 206 266 310 359
#     4  12  25  40  61  89 130 167 203 248 310 373
#     4  11  23  39  58  90 128 161 209 247 310 365
#
# _framework density 20.822648999999998
#
# number of rings (size 3 to 8) (size 9 to 14) (size 15 to 20)
#    0.000    0.800    6.000    5.400    2.800    0.000 
#    0.000    0.000    0.000    2.400    0.000    0.000 
#    0.000    0.000    0.000    0.000    0.000    0.000 
#
# Total GULP energy -111710.533498 kJ/mol
# GULP energy per Si atom -5585.526675 kJ/mol
# Density = 2.077526 g / cm^3
# Si number density = 20.822649 Si / 1000 Ang^3
#
#
#
# Elastic Constant Matrix: (Units=GPa)
#
#
# Indices 1 2 3 4 5 6 
#
# 1 28.4060 26.1248 27.0112 0.0000 11.5646 0.0000
# 2 26.1248 133.5745 42.3214 0.0000 13.1457 0.0000
# 3 27.0112 42.3214 79.7919 0.0000 2.7896 0.0000
# 4 0.0000 0.0000 0.0000 45.0810 0.0000 1.1163
# 5 11.5646 13.1457 2.7896 0.0000 34.7328 0.0000
# 6 0.0000 0.0000 0.0000 1.1163 0.0000 14.2932
#
#
#
# Elastic Compliance Matrix: (Units=1/GPa)
#
#
# Indices 1 2 3 4 5 6 
#
# 1 0.065040 -0.004988 -0.018733 0.000000 -0.018263 0.000000
# 2 -0.004988 0.009711 -0.003401 0.000000 -0.001742 0.000000
# 3 -0.018733 -0.003401 0.020473 0.000000 0.005880 0.000000
# 4 0.000000 0.000000 0.000000 0.022225 0.000000 -0.001736
# 5 -0.018263 -0.001742 0.005880 0.000000 0.035059 0.000000
# 6 0.000000 0.000000 0.000000 -0.001736 0.000000 0.070099
#
#
# Mechanical properties :
#
#
# Convention : Reuss Voigt Hill
#
# Bulk Modulus (GPa) = 24.40296 48.07637 36.23967
# Shear Modulus (GPa) = 17.21101 28.57572 22.89337
#
# Velocity S-wave (km/s) = 2.87810 3.70853 3.31939
# Velocity P-wave (km/s) = 4.77383 6.44020 5.66858
#
# Compressibility (1/GPa) = 0.04097863
#
# Stress axis : x y z
#
# Youngs Moduli (GPa) = 15.37516 102.97537 48.84552
#
# Poissons Ratio (x) = 0.51363 0.91504
# Poissons Ratio (y) = 0.07669 0.16614
# Poissons Ratio (z) = 0.28803 0.35025
#
# Static dielectric constant tensor:
#      x y z
#    x 1.759830 0.000000 -0.007880 
#    y 0.000000 1.811870 0.000000 
#    z -0.007880 0.000000 1.749230 
# 
# From -- ./inp_files/54057.got.cif
#   From: 2010.05.17/outbox.cif.g08.bks.cpg/sg15_28_cif.got.tgz:54057.got - 2010.06.03 18:47:42.
