data_PCOD9301004
_publ_section_title
;
Structure prediction by ZEFSAII (Michael W. Deem and Ramdas Pophale) SiO2 
 PCOD9301004
Probable space group: C 2/C
;
_chemical_formula_sum "Si O2"
_cell_formula_units_Z 48
_cell_length_a 16.708254
_cell_length_b 9.975601
_cell_length_c 13.260422
_cell_angle_alpha 90.000000
_cell_angle_beta 53.799342
_cell_angle_gamma 90.000000
_cell_volume 1783.511893
_symmetry_space_group_name_H-M "C 2/C"
_symmetry_group_IT_number 15
_symmetry_cell_setting 'monoclinic'
loop_
_space_group_symop_operation_xyz
x,y,z
-x,y,1/2-z
-x,-y,-z
x,-y,1/2+z
1/2+x,1/2+y,z
1/2-x,1/2+y,1/2-z
1/2-x,1/2-y,-z
1/2+x,1/2-y,1/2+z
loop_
_atom_site_type_symbol
_atom_site_label
_atom_site_fract_x
_atom_site_fract_y
_atom_site_fract_z
Si Si1 0.429978 0.201530 0.999729
Si Si2 0.213736 0.902460 0.715318
Si Si3 0.056916 0.610948 0.313328
Si Si4 0.826366 0.838862 0.378283
Si Si5 0.354145 0.857269 0.337342
Si Si6 0.360441 0.517958 0.521602
O O1 0.323008 0.159355 0.125843
O O2 0.497076 0.141852 0.040446
O O3 0.435279 0.362134 0.990123
O O4 0.417208 0.148975 0.894350
O O5 0.146382 0.789413 0.711592
O O6 0.219526 0.043108 0.653488
O O7 0.172565 0.935142 0.856250
O O8 0.120550 0.740809 0.236980
O O9 0.112325 0.468134 0.268529
O O10 0.000000 0.600558 0.250000
O O11 0.750000 0.750000 0.500000
O O12 0.893690 0.916681 0.410003
O O13 0.240281 0.904743 0.443134
#
# Coordination Sequence:
#
# PCOD9301004 Si02
#       6
#     8   8   8   8   8   8
#     4  11  20  39  64  91 130 162 206 264 314 371
#     4  11  20  35  65  99 123 156 209 264 318 365
#     4  12  27  43  62  91 130 171 211 259 317 382
#     4  12  21  39  65  99 126 157 215 262 315 371
#     4  11  22  39  61  94 127 163 206 259 318 374
#     4  11  20  35  66 100 122 158 204 265 317 364
#
# _framework density 26.913191999999999
#
# number of rings (size 3 to 8) (size 9 to 14) (size 15 to 20)
#    0.000    0.667    8.333    1.000    2.333    2.000 
#    0.000    1.667    0.000    0.000    0.000    0.000 
#    0.000    0.000    0.000    0.000    0.000    0.000 
#
# Total GULP energy -134375.988057 kJ/mol
# GULP energy per Si atom -5598.999502 kJ/mol
# Density = 2.685194 g / cm^3
# Si number density = 26.913192 Si / 1000 Ang^3
#
#
#
# Elastic Constant Matrix: (Units=GPa)
#
#
# Indices 1 2 3 4 5 6 
#
# 1 48.9901 29.2616 32.3027 0.0000 21.2488 0.0000
# 2 29.2616 195.1184 79.1201 0.0000 20.7885 0.0000
# 3 32.3027 79.1201 170.0568 0.0000 49.1498 0.0000
# 4 0.0000 0.0000 0.0000 57.7735 0.0000 10.7346
# 5 21.2488 20.7885 49.1498 0.0000 43.5263 0.0000
# 6 0.0000 0.0000 0.0000 10.7346 0.0000 73.7126
#
#
#
# Elastic Compliance Matrix: (Units=1/GPa)
#
#
# Indices 1 2 3 4 5 6 
#
# 1 0.027340 -0.002606 -0.000717 0.000000 -0.011292 0.000000
# 2 -0.002606 0.006571 -0.003003 0.000000 0.001525 0.000000
# 3 -0.000717 -0.003003 0.010240 0.000000 -0.009779 0.000000
# 4 0.000000 0.000000 0.000000 0.017790 0.000000 -0.002591
# 5 -0.011292 0.001525 -0.009779 0.000000 0.038801 0.000000
# 6 0.000000 0.000000 0.000000 -0.002591 0.000000 0.013943
#
#
# Mechanical properties :
#
#
# Convention : Reuss Voigt Hill
#
# Bulk Modulus (GPa) = 31.74743 77.28156 54.51450
# Shear Modulus (GPa) = 36.27457 53.23453 44.75455
#
# Velocity S-wave (km/s) = 3.67527 4.45231 4.08232
# Velocity P-wave (km/s) = 5.46187 7.43022 6.52074
#
# Compressibility (1/GPa) = 0.03149861
#
# Stress axis : x y z
#
# Youngs Moduli (GPa) = 36.57692 152.17992 97.65675
#
# Poissons Ratio (x) = 0.39662 0.07001
# Poissons Ratio (y) = 0.09533 0.29325
# Poissons Ratio (z) = 0.02622 0.45698
#
# Static dielectric constant tensor:
#      x y z
#    x 2.455240 0.000000 0.052420 
#    y 0.000000 2.047380 0.000000 
#    z 0.052420 0.000000 2.110940 
# 
# From -- ./inp_files/166162.got.cif
#   From: 2010.05.17/outbox.cif.g08.bks.cpg/sg15_84_cif.got.tgz:166162.got - 2010.06.03 18:47:42.
