data_PCOD9301950
_publ_section_title
;
Structure prediction by ZEFSAII (Michael W. Deem and Ramdas Pophale) SiO2 
 PCOD9301950
Probable space group: C 2/C
;
_chemical_formula_sum "Si O2"
_cell_formula_units_Z 48
_cell_length_a 11.939712
_cell_length_b 11.442608
_cell_length_c 21.498492
_cell_angle_alpha 90.000000
_cell_angle_beta 40.456066
_cell_angle_gamma 90.000000
_cell_volume 1905.816457
_symmetry_space_group_name_H-M "C 2/C"
_symmetry_group_IT_number 15
_symmetry_cell_setting 'monoclinic'
loop_
_space_group_symop_operation_xyz
x,y,z
-x,y,1/2-z
-x,-y,-z
x,-y,1/2+z
1/2+x,1/2+y,z
1/2-x,1/2+y,1/2-z
1/2-x,1/2-y,-z
1/2+x,1/2-y,1/2+z
loop_
_atom_site_type_symbol
_atom_site_label
_atom_site_fract_x
_atom_site_fract_y
_atom_site_fract_z
Si Si1 0.224897 0.611223 0.506241
Si Si2 0.380529 0.664921 0.649081
Si Si3 0.810971 0.137619 0.335727
Si Si4 0.854147 0.778551 0.363791
Si Si5 0.198545 0.492432 0.644250
Si Si6 0.829329 0.592617 0.651148
O O1 0.250000 0.750000 0.500000
O O2 0.311873 0.582733 0.404190
O O3 0.269592 0.554365 0.552402
O O4 0.027009 0.574908 0.581436
O O5 0.327473 0.762690 0.621378
O O6 0.564691 0.689344 0.603760
O O7 0.329451 0.539524 0.641682
O O8 0.247117 0.676643 0.763393
O O9 0.000000 0.191262 0.250000
O O10 0.771433 0.029803 0.307102
O O11 0.813330 0.643402 0.368521
O O12 0.691938 0.850465 0.407757
O O13 0.000000 0.811613 0.250000
O O14 0.000000 0.523646 0.750000
#
# Coordination Sequence:
#
# PCOD9301950 Si02
#       6
#     8   8   8   8   8   8
#     4  12  24  44  68 104 137 177 240 283 349 422
#     4  11  21  40  69 102 135 185 236 282 358 417
#     4  12  25  44  70 101 136 181 233 294 349 423
#     4   9  22  41  65 101 143 187 230 288 357 421
#     4  11  21  43  72 101 138 188 233 293 354 426
#     4  11  24  44  68 100 142 180 230 295 352 422
#
# _framework density 25.186055
#
# number of rings (size 3 to 8) (size 9 to 14) (size 15 to 20)
#    0.000    1.000    3.333    4.500    4.667    0.000 
#    3.000    5.833    0.000    0.000    0.000    0.000 
#    0.000    0.000    0.000    0.000    0.000    0.000 
#
# Total GULP energy -134231.822611 kJ/mol
# GULP energy per Si atom -5592.992609 kJ/mol
# Density = 2.512873 g / cm^3
# Si number density = 25.186055 Si / 1000 Ang^3
#
#
#
# Elastic Constant Matrix: (Units=GPa)
#
#
# Indices 1 2 3 4 5 6 
#
# 1 162.2803 35.1102 17.4403 0.0000 24.0510 0.0000
# 2 35.1102 92.1711 -7.9660 0.0000 3.5565 0.0000
# 3 17.4403 -7.9660 65.8819 0.0000 18.2518 0.0000
# 4 0.0000 0.0000 0.0000 24.7953 0.0000 8.7181
# 5 24.0510 3.5565 18.2518 0.0000 30.1405 0.0000
# 6 0.0000 0.0000 0.0000 8.7181 0.0000 41.2956
#
#
#
# Elastic Compliance Matrix: (Units=1/GPa)
#
#
# Indices 1 2 3 4 5 6 
#
# 1 0.007636 -0.002787 -0.000915 0.000000 -0.005210 0.000000
# 2 -0.002787 0.012142 0.002387 0.000000 -0.000655 0.000000
# 3 -0.000915 0.002387 0.018727 0.000000 -0.010892 0.000000
# 4 0.000000 0.000000 0.000000 0.043564 0.000000 -0.009197
# 5 -0.005210 -0.000655 -0.010892 0.000000 0.044008 0.000000
# 6 0.000000 0.000000 0.000000 -0.009197 0.000000 0.026157
#
#
# Mechanical properties :
#
#
# Convention : Reuss Voigt Hill
#
# Bulk Modulus (GPa) = 27.87329 45.50027 36.68678
# Shear Modulus (GPa) = 29.97213 37.62955 33.80084
#
# Velocity S-wave (km/s) = 3.45342 3.86950 3.66737
# Velocity P-wave (km/s) = 5.19543 6.17001 5.70357
#
# Compressibility (1/GPa) = 0.03587664
#
# Stress axis : x y z
#
# Youngs Moduli (GPa) = 130.96610 82.35569 53.39886
#
# Poissons Ratio (x) = 0.22949 0.04885
# Poissons Ratio (y) = 0.36495 -0.12748
# Poissons Ratio (z) = 0.11981 -0.19660
#
# Static dielectric constant tensor:
#      x y z
#    x 2.005370 0.000000 -0.048820 
#    y 0.000000 2.044580 0.000000 
#    z -0.048820 0.000000 1.836380 
# 
# From -- ./inp_files/237402.got.cif
#   From: 2010.05.17/outbox.cif.g08.bks.cpg/sg15_119_cif.got.tgz:237402.got - 2010.06.03 18:47:42.
