data_PCOD9301887
_publ_section_title
;
Structure prediction by ZEFSAII (Michael W. Deem and Ramdas Pophale) SiO2 
 PCOD9301887
Probable space group: C 2/C
;
_chemical_formula_sum "Si O2"
_cell_formula_units_Z 48
_cell_length_a 9.270240
_cell_length_b 29.392031
_cell_length_c 16.723521
_cell_angle_alpha 90.000000
_cell_angle_beta 30.340026
_cell_angle_gamma 90.000000
_cell_volume 2301.717509
_symmetry_space_group_name_H-M "C 2/C"
_symmetry_group_IT_number 15
_symmetry_cell_setting 'monoclinic'
loop_
_space_group_symop_operation_xyz
x,y,z
-x,y,1/2-z
-x,-y,-z
x,-y,1/2+z
1/2+x,1/2+y,z
1/2-x,1/2+y,1/2-z
1/2-x,1/2-y,-z
1/2+x,1/2-y,1/2+z
loop_
_atom_site_type_symbol
_atom_site_label
_atom_site_fract_x
_atom_site_fract_y
_atom_site_fract_z
Si Si1 0.656872 0.530638 0.357415
Si Si2 0.948875 0.382887 0.149294
Si Si3 0.464461 0.275688 0.459593
Si Si4 0.304206 0.203784 0.649681
Si Si5 0.601465 0.015469 0.537612
Si Si6 0.010460 0.872643 0.497278
O O1 0.500000 0.500000 0.500000
O O2 0.958748 0.514403 0.177490
O O3 0.652676 0.583213 0.389470
O O4 0.439743 0.520778 0.387727
O O5 0.912628 0.347404 0.095384
O O6 0.994294 0.433591 0.100870
O O7 0.667595 0.384794 0.339126
O O8 0.223139 0.366578 0.069289
O O9 0.250000 0.250000 0.500000
O O10 0.502838 0.240418 0.512821
O O11 0.739402 0.285717 0.273542
O O12 0.365180 0.323935 0.545946
O O13 0.000000 0.205595 0.750000
O O14 0.500000 0.000000 0.500000
#
# Coordination Sequence:
#
# PCOD9301887 Si02
#       6
#     8   8   8   8   8   8
#     4  11  21  40  63  87 118 165 207 249 298 375
#     4   9  18  35  57  80 110 154 195 236 293 369
#     4   9  18  35  54  79 110 143 182 242 291 354
#     4   9  18  33  54  77 108 142 187 235 293 352
#     4  11  23  39  59  90 126 156 203 261 309 355
#     4   9  18  35  60  80 109 153 199 236 294 363
#
# _framework density 20.853992999999999
#
# number of rings (size 3 to 8) (size 9 to 14) (size 15 to 20)
#    0.000    2.333    1.667    1.000    0.000    2.000 
#    6.000    3.333    0.000    0.000    0.000    0.000 
#    0.000    0.000    0.000    0.000    0.000    0.000 
#
# Total GULP energy -133713.450406 kJ/mol
# GULP energy per Si atom -5571.393767 kJ/mol
# Density = 2.080653 g / cm^3
# Si number density = 20.853993 Si / 1000 Ang^3
#
#
#
# Elastic Constant Matrix: (Units=GPa)
#
#
# Indices 1 2 3 4 5 6 
#
# 1 54.1478 37.6343 17.9455 0.0000 9.1774 0.0000
# 2 37.6343 125.5624 31.3715 0.0000 2.4968 0.0000
# 3 17.9455 31.3715 53.0787 0.0000 0.4180 0.0000
# 4 0.0000 0.0000 0.0000 17.6804 0.0000 7.9019
# 5 9.1774 2.4968 0.4180 0.0000 26.0703 0.0000
# 6 0.0000 0.0000 0.0000 7.9019 0.0000 40.8276
#
#
#
# Elastic Compliance Matrix: (Units=1/GPa)
#
#
# Indices 1 2 3 4 5 6 
#
# 1 0.025975 -0.006382 -0.004943 0.000000 -0.008453 0.000000
# 2 -0.006382 0.010929 -0.004312 0.000000 0.001269 0.000000
# 3 -0.004943 -0.004312 0.023046 0.000000 0.001784 0.000000
# 4 0.000000 0.000000 0.000000 0.061915 0.000000 -0.011983
# 5 -0.008453 0.001269 0.001784 0.000000 0.041183 0.000000
# 6 0.000000 0.000000 0.000000 -0.011983 0.000000 0.026812
#
#
# Mechanical properties :
#
#
# Convention : Reuss Voigt Hill
#
# Bulk Modulus (GPa) = 34.87334 45.18795 40.03065
# Shear Modulus (GPa) = 21.67379 26.63816 24.15597
#
# Velocity S-wave (km/s) = 3.22733 3.57790 3.40713
# Velocity P-wave (km/s) = 5.53593 6.22770 5.89198
#
# Compressibility (1/GPa) = 0.02867520
#
# Stress axis : x y z
#
# Youngs Moduli (GPa) = 38.49895 91.49866 43.39224
#
# Poissons Ratio (x) = 0.58396 0.21450
# Poissons Ratio (y) = 0.24571 0.18710
# Poissons Ratio (z) = 0.19031 0.39452
#
# Static dielectric constant tensor:
#      x y z
#    x 1.828810 0.000000 -0.041300 
#    y 0.000000 1.779600 0.000000 
#    z -0.041300 0.000000 1.792640 
# 
# From -- ./inp_files/80912.got.cif
#   From: 2010.05.17/outbox.cif.g08.bks.cpg/sg15_41_cif.got.tgz:80912.got - 2010.06.03 18:47:42.
