data_PCOD9301563
_publ_section_title
;
Structure prediction by ZEFSAII (Michael W. Deem and Ramdas Pophale) SiO2 
 PCOD9301563
Probable space group: C 2/C
;
_chemical_formula_sum "Si O2"
_cell_formula_units_Z 52
_cell_length_a 19.067137
_cell_length_b 8.987737
_cell_length_c 24.181986
_cell_angle_alpha 90.000000
_cell_angle_beta 37.953826
_cell_angle_gamma 90.000000
_cell_volume 2548.715992
_symmetry_space_group_name_H-M "C 2/C"
_symmetry_group_IT_number 15
_symmetry_cell_setting 'monoclinic'
loop_
_space_group_symop_operation_xyz
x,y,z
-x,y,1/2-z
-x,-y,-z
x,-y,1/2+z
1/2+x,1/2+y,z
1/2-x,1/2+y,1/2-z
1/2-x,1/2-y,-z
1/2+x,1/2-y,1/2+z
loop_
_atom_site_type_symbol
_atom_site_label
_atom_site_fract_x
_atom_site_fract_y
_atom_site_fract_z
Si Si1 0.177008 0.933383 0.402279
Si Si2 0.956395 0.380075 0.397191
Si Si3 0.301742 0.579058 0.773370
Si Si4 0.848472 0.579032 0.226619
Si Si5 0.750772 0.380081 0.602818
Si Si6 0.981592 0.933414 0.597712
Si Si7 0.000000 0.250029 0.250000
O O1 0.195814 0.755069 0.392863
O O2 0.110796 0.971072 0.499988
O O3 0.298467 0.005052 0.313829
O O4 0.095776 0.999986 0.404216
O O5 0.827930 0.383534 0.500007
O O6 0.021632 0.535151 0.364881
O O7 0.018449 0.244896 0.392854
O O8 0.976357 0.340654 0.320992
O O9 0.220089 0.499996 0.779926
O O10 0.317191 0.750013 0.750001
O O11 0.248644 0.535177 0.864866
O O12 0.426171 0.505110 0.686147
O O13 0.618337 0.340607 0.679025
#
# Coordination Sequence:
#
# PCOD9301563 Si02
#       7
#     8   8   8   8   8   8   4
#     4   9  17  33  58  87 118 153 197 250 311 367
#     4  11  23  40  65  94 122 163 213 258 307 374
#     4  11  21  36  61  92 131 163 199 256 318 379
#     4  11  21  36  61  92 131 163 199 256 318 379
#     4  11  23  40  65  94 122 163 213 258 307 374
#     4   9  17  33  58  87 118 153 197 250 311 367
#     4  12  22  44  66  86 124 168 216 254 300 366
#
# _framework density 20.402429999999999
#
# number of rings (size 3 to 8) (size 9 to 14) (size 15 to 20)
#    0.000    1.538    3.077    4.154    0.000    1.846 
#    0.000    0.769    0.000    1.846    0.000    0.000 
#    0.000    0.000    0.000    0.000    0.000    0.000 
#
# Total GULP energy -144780.747039 kJ/mol
# GULP energy per Si atom -5568.490271 kJ/mol
# Density = 2.035599 g / cm^3
# Si number density = 20.402430 Si / 1000 Ang^3
#
#
#
# Elastic Constant Matrix: (Units=GPa)
#
#
# Indices 1 2 3 4 5 6 
#
# 1 51.5305 30.8922 43.4106 0.0000 -0.2021 -0.0001
# 2 30.8922 118.0072 39.9245 0.0000 0.6096 -0.0001
# 3 43.4106 39.9245 183.7215 0.0000 8.1406 0.0000
# 4 0.0000 0.0000 0.0000 28.5343 0.0000 1.2412
# 5 -0.2021 0.6096 8.1406 0.0000 2.2340 0.0000
# 6 -0.0001 -0.0001 0.0000 1.2412 0.0000 7.5182
#
#
#
# Elastic Compliance Matrix: (Units=1/GPa)
#
#
# Indices 1 2 3 4 5 6 
#
# 1 0.028469 -0.005280 -0.006866 0.000000 0.029035 0.000000
# 2 -0.005280 0.010186 -0.000980 0.000000 0.000314 0.000000
# 3 -0.006866 -0.000980 0.008698 0.000000 -0.032051 0.000000
# 4 0.000000 0.000000 0.000000 0.035299 0.000000 -0.005828
# 5 0.029035 0.000314 -0.032051 0.000000 0.566961 -0.000002
# 6 0.000000 0.000000 0.000000 -0.005828 -0.000002 0.133973
#
#
# Mechanical properties :
#
#
# Convention : Reuss Voigt Hill
#
# Bulk Modulus (GPa) = 47.38824 64.63488 56.01156
# Shear Modulus (GPa) = 6.12090 23.59275 14.85683
#
# Velocity S-wave (km/s) = 1.73395 3.40423 2.70143
# Velocity P-wave (km/s) = 5.22360 6.87026 6.10272
#
# Compressibility (1/GPa) = 0.02110228
#
# Stress axis : x y z
#
# Youngs Moduli (GPa) = 35.12576 98.17279 114.96307
#
# Poissons Ratio (x) = 0.51833 0.78934
# Poissons Ratio (y) = 0.18546 0.11266
# Poissons Ratio (z) = 0.24117 0.09620
#
# Static dielectric constant tensor:
#      x y z
#    x 1.779400 0.000000 0.000420 
#    y 0.000000 1.793180 0.000000 
#    z 0.000420 0.000000 1.786240 
# 
# From -- ./inp_files/318399.got.cif
#   From: 2010.05.17/outbox.cif.g08.bks.cpg/sg15_160_cif.got.tgz:318399.got - 2010.06.03 18:47:42.
