data_PCOD9301255
_publ_section_title
;
Structure prediction by ZEFSAII (Michael W. Deem and Ramdas Pophale) SiO2 
 PCOD9301255
Probable space group: C 2/C
;
_chemical_formula_sum "Si O2"
_cell_formula_units_Z 44
_cell_length_a 9.092013
_cell_length_b 26.842652
_cell_length_c 8.202617
_cell_angle_alpha 90.000000
_cell_angle_beta 66.876494
_cell_angle_gamma 90.000000
_cell_volume 1841.049299
_symmetry_space_group_name_H-M "C 2/C"
_symmetry_group_IT_number 15
_symmetry_cell_setting 'monoclinic'
loop_
_space_group_symop_operation_xyz
x,y,z
-x,y,1/2-z
-x,-y,-z
x,-y,1/2+z
1/2+x,1/2+y,z
1/2-x,1/2+y,1/2-z
1/2-x,1/2-y,-z
1/2+x,1/2-y,1/2+z
loop_
_atom_site_type_symbol
_atom_site_label
_atom_site_fract_x
_atom_site_fract_y
_atom_site_fract_z
Si Si1 0.615267 0.591889 0.859388
Si Si2 0.500000 0.848140 0.750000
Si Si3 0.035353 0.719824 0.913908
Si Si4 0.187958 0.511478 0.903260
Si Si5 0.794125 0.075621 0.166120
Si Si6 0.361492 0.296556 0.177057
O O1 0.500000 0.589326 0.750000
O O2 0.749527 0.550272 0.763982
O O3 0.689307 0.646864 0.834555
O O4 0.478882 0.588911 0.057611
O O5 0.516569 0.815882 0.577724
O O6 0.338426 0.880950 0.793727
O O7 0.000000 0.698404 0.750000
O O8 0.219733 0.734332 0.819230
O O9 0.926671 0.767827 0.992785
O O10 0.268645 0.458235 0.835456
O O11 0.244288 0.538293 0.041931
O O12 0.000000 0.500000 0.000000
O O13 0.500000 0.299041 0.250000
#
# Coordination Sequence:
#
# PCOD9301255 Si02
#       6
#     8   4   8   8   8   8
#     4   9  21  39  66  95 137 183 238 288 358 437
#     4  12  24  46  74 102 146 194 248 292 368 440
#     4  12  27  46  73 109 148 189 248 303 363 436
#     4  11  20  40  62  93 130 172 229 291 346 421
#     4  11  23  42  66  97 134 185 236 289 364 433
#     4  11  23  46  75 105 147 196 239 300 371 435
#
# _framework density 23.899414
#
# number of rings (size 3 to 8) (size 9 to 14) (size 15 to 20)
#    0.000    1.091    2.727    4.909    2.545    0.000 
#    6.545    0.000    0.000    0.000    0.000    0.000 
#    0.000    0.000    0.000    0.000    0.000    0.000 
#
# Total GULP energy -122967.990274 kJ/mol
# GULP energy per Si atom -5589.454103 kJ/mol
# Density = 2.384502 g / cm^3
# Si number density = 23.899414 Si / 1000 Ang^3
#
#
#
# Elastic Constant Matrix: (Units=GPa)
#
#
# Indices 1 2 3 4 5 6 
#
# 1 77.1163 35.1334 48.6200 0.0000 -18.4399 0.0000
# 2 35.1334 116.2362 50.9663 0.0000 -15.3953 0.0000
# 3 48.6200 50.9663 135.3504 0.0000 -20.0391 0.0000
# 4 0.0000 0.0000 0.0000 46.6670 0.0000 58.6432
# 5 -18.4399 -15.3953 -20.0391 0.0000 48.4762 0.0000
# 6 0.0000 0.0000 0.0000 58.6432 0.0000 429.6401
#
#
#
# Elastic Compliance Matrix: (Units=1/GPa)
#
#
# Indices 1 2 3 4 5 6 
#
# 1 0.018329 -0.002851 -0.004913 0.000000 0.004036 0.000000
# 2 -0.002851 0.010894 -0.002904 0.000000 0.001175 0.000000
# 3 -0.004913 -0.002904 0.010474 0.000000 0.001539 0.000000
# 4 0.000000 0.000000 0.000000 0.025865 0.000000 -0.003530
# 5 0.004036 0.001175 0.001539 0.000000 0.023173 0.000000
# 6 0.000000 0.000000 0.000000 -0.003530 0.000000 0.002809
#
#
# Mechanical properties :
#
#
# Convention : Reuss Voigt Hill
#
# Bulk Modulus (GPa) = 54.46389 66.46026 60.46207
# Shear Modulus (GPa) = 42.01644 117.88885 79.95265
#
# Velocity S-wave (km/s) = 4.19746 7.03094 5.79020
# Velocity P-wave (km/s) = 6.80660 9.68406 8.36991
#
# Compressibility (1/GPa) = 0.01836079
#
# Stress axis : x y z
#
# Youngs Moduli (GPa) = 54.55856 91.79434 95.47173
#
# Poissons Ratio (x) = 0.26174 0.46904
# Poissons Ratio (y) = 0.15557 0.27724
# Poissons Ratio (z) = 0.26804 0.26656
#
# Static dielectric constant tensor:
#      x y z
#    x 1.972220 0.000000 0.024060 
#    y 0.000000 1.910130 0.000000 
#    z 0.024060 0.000000 1.993970 
# 
# From -- ./inp_files/25959.got.cif
#   From: 2010.05.17/outbox.cif.g08.bks.cpg/sg15_13_cif.got.tgz:25959.got - 2010.06.03 18:47:42.
