data_PCOD9301760
_publ_section_title
;
Structure prediction by ZEFSAII (Michael W. Deem and Ramdas Pophale) SiO2 
 PCOD9301760
Probable space group: C 2/C
;
_chemical_formula_sum "Si O2"
_cell_formula_units_Z 64
_cell_length_a 26.630335
_cell_length_b 14.233777
_cell_length_c 9.226879
_cell_angle_alpha 90.000000
_cell_angle_beta 98.171279
_cell_angle_gamma 90.000000
_cell_volume 3461.943281
_symmetry_space_group_name_H-M "C 2/C"
_symmetry_group_IT_number 15
_symmetry_cell_setting 'monoclinic'
loop_
_space_group_symop_operation_xyz
x,y,z
-x,y,1/2-z
-x,-y,-z
x,-y,1/2+z
1/2+x,1/2+y,z
1/2-x,1/2+y,1/2-z
1/2-x,1/2-y,-z
1/2+x,1/2-y,1/2+z
loop_
_atom_site_type_symbol
_atom_site_label
_atom_site_fract_x
_atom_site_fract_y
_atom_site_fract_z
Si Si1 0.127029 0.658389 0.345649
Si Si2 0.383461 0.838377 0.159027
Si Si3 0.940782 0.603259 0.932634
Si Si4 0.304181 0.996795 0.189545
Si Si5 0.699373 0.299651 0.535292
Si Si6 0.796512 0.201652 0.110839
Si Si7 0.231818 0.009228 0.913042
Si Si8 0.551722 0.110018 0.089902
O O1 0.102272 0.596772 0.463036
O O2 0.168102 0.596226 0.273004
O O3 0.153657 0.744096 0.438853
O O4 0.080033 0.674189 0.218814
O O5 0.422842 0.822390 0.305512
O O6 0.343855 0.912916 0.211855
O O7 0.348688 0.753117 0.091231
O O8 0.415403 0.880187 0.041482
O O9 0.947188 0.500128 0.863885
O O10 0.993615 0.630623 0.028710
O O11 0.253024 0.977874 0.259183
O O12 0.285369 0.003339 0.017838
O O13 0.750000 0.250000 0.500000
O O14 0.703447 0.291487 0.711878
O O15 0.701909 0.405154 0.473038
O O16 0.794750 0.090780 0.081324
O O17 0.750000 0.250000 0.000000
#
# Coordination Sequence:
#
# PCOD9301760 Si02
#       8
#     8   8   8   8   8   8   8   8
#     4  12  22  38  60  86 122 165 200 240 304 361
#     4  12  22  36  58  87 121 162 196 244 301 359
#     4  11  21  39  58  86 128 156 200 251 296 366
#     4  12  21  34  58  85 121 164 202 241 291 354
#     4  12  25  40  59  88 121 163 204 248 298 357
#     4  12  26  39  61  88 120 162 205 246 298 360
#     4  12  24  39  56  84 125 162 209 245 287 348
#     4  11  23  35  59  92 119 161 200 245 304 362
#
# _framework density 18.486726999999998
#
# number of rings (size 3 to 8) (size 9 to 14) (size 15 to 20)
#    0.000    0.250    7.500    3.000    1.750    2.000 
#    0.000    0.000    0.000    0.000    0.000    5.250 
#    0.000    0.000    0.000    0.000    0.000    0.000 
#
# Total GULP energy -178582.849661 kJ/mol
# GULP energy per Si atom -5580.714052 kJ/mol
# Density = 1.844465 g / cm^3
# Si number density = 18.486727 Si / 1000 Ang^3
#
#
#
# Elastic Constant Matrix: (Units=GPa)
#
#
# Indices 1 2 3 4 5 6 
#
# 1 86.0300 43.6050 35.8808 0.0000 20.6064 0.0000
# 2 43.6050 96.4973 28.6597 0.0000 10.1928 0.0000
# 3 35.8808 28.6597 86.6696 0.0000 17.2232 0.0000
# 4 0.0000 0.0000 0.0000 25.3341 0.0000 4.7875
# 5 20.6064 10.1928 17.2232 0.0000 41.7691 0.0000
# 6 0.0000 0.0000 0.0000 4.7875 0.0000 21.1834
#
#
#
# Elastic Compliance Matrix: (Units=1/GPa)
#
#
# Indices 1 2 3 4 5 6 
#
# 1 0.017882 -0.006235 -0.004238 0.000000 -0.005553 0.000000
# 2 -0.006235 0.013736 -0.002076 0.000000 0.000580 0.000000
# 3 -0.004238 -0.002076 0.014664 0.000000 -0.003450 0.000000
# 4 0.000000 0.000000 0.000000 0.041234 0.000000 -0.009319
# 5 -0.005553 0.000580 -0.003450 0.000000 0.027961 0.000000
# 6 0.000000 0.000000 0.000000 -0.009319 0.000000 0.049313
#
#
# Mechanical properties :
#
#
# Convention : Reuss Voigt Hill
#
# Bulk Modulus (GPa) = 47.20514 53.94309 50.57411
# Shear Modulus (GPa) = 25.38729 28.39408 26.89068
#
# Velocity S-wave (km/s) = 3.70979 3.92333 3.81805
# Velocity P-wave (km/s) = 6.62873 7.05451 6.84493
#
# Compressibility (1/GPa) = 0.02118413
#
# Stress axis : x y z
#
# Youngs Moduli (GPa) = 55.92321 72.80209 68.19220
#
# Poissons Ratio (x) = 0.45394 0.28897
# Poissons Ratio (y) = 0.34869 0.14157
# Poissons Ratio (z) = 0.23698 0.15114
#
# Static dielectric constant tensor:
#      x y z
#    x 1.642950 0.000000 0.007040 
#    y 0.000000 1.657370 0.000000 
#    z 0.007040 0.000000 1.707250 
# 
# From -- ./inp_files/66254.got.cif
#   From: 2010.05.17/outbox.cif.g08.bks.cpg/sg15_34_cif.got.tgz:66254.got - 2010.06.03 18:47:42.
