data_PCOD9301579
_publ_section_title
;
Structure prediction by ZEFSAII (Michael W. Deem and Ramdas Pophale) SiO2 
 PCOD9301579
Probable space group: C 2/C
;
_chemical_formula_sum "Si O2"
_cell_formula_units_Z 40
_cell_length_a 15.256894
_cell_length_b 18.090020
_cell_length_c 6.121321
_cell_angle_alpha 90.000000
_cell_angle_beta 98.219081
_cell_angle_gamma 90.000000
_cell_volume 1672.116314
_symmetry_space_group_name_H-M "C 2/C"
_symmetry_group_IT_number 15
_symmetry_cell_setting 'monoclinic'
loop_
_space_group_symop_operation_xyz
x,y,z
-x,y,1/2-z
-x,-y,-z
x,-y,1/2+z
1/2+x,1/2+y,z
1/2-x,1/2+y,1/2-z
1/2-x,1/2-y,-z
1/2+x,1/2-y,1/2+z
loop_
_atom_site_type_symbol
_atom_site_label
_atom_site_fract_x
_atom_site_fract_y
_atom_site_fract_z
Si Si1 0.000000 0.579355 0.250000
Si Si2 0.172311 0.150474 0.020110
Si Si3 0.799512 0.468626 0.745918
Si Si4 0.706615 0.203182 0.794257
Si Si5 0.456034 0.798546 0.029840
Si Si6 0.500000 0.672026 0.750000
O O1 0.092568 0.540864 0.230329
O O2 0.016715 0.637988 0.451432
O O3 0.228774 0.151757 0.816569
O O4 0.070902 0.129488 0.924547
O O5 0.231847 0.101331 0.202142
O O6 0.170916 0.234476 0.112554
O O7 0.782230 0.502576 0.490476
O O8 0.628949 0.162833 0.897138
O O9 0.750000 0.250000 0.000000
O O10 0.500000 0.760157 0.250000
O O11 0.439572 0.731752 0.859898
#
# Coordination Sequence:
#
# PCOD9301579 Si02
#       6
#     4   8   8   8   8   4
#     4  11  26  44  72 104 146 184 239 298 366 438
#     4  11  25  42  66 104 138 187 240 298 356 430
#     4  12  30  51  73 102 142 198 257 299 350 424
#     4  11  21  37  67  99 142 177 219 291 376 428
#     4  11  21  36  64 107 144 174 219 282 367 456
#     4  11  22  40  62 106 140 178 227 284 368 430
#
# _framework density 23.921779999999998
#
# number of rings (size 3 to 8) (size 9 to 14) (size 15 to 20)
#    0.000    0.800    4.000    3.000   14.000    0.000 
#    0.000    1.000    0.000    0.000    0.000    0.000 
#    0.000    0.000    0.000    0.000    0.000    0.000 
#
# Total GULP energy -111340.980098 kJ/mol
# GULP energy per Si atom -5567.049005 kJ/mol
# Density = 2.386733 g / cm^3
# Si number density = 23.921780 Si / 1000 Ang^3
#
#
#
# Elastic Constant Matrix: (Units=GPa)
#
#
# Indices 1 2 3 4 5 6 
#
# 1 86.1859 11.3798 12.1831 0.0000 5.0929 0.0000
# 2 11.3798 46.9107 21.6068 0.0000 3.1449 0.0000
# 3 12.1831 21.6068 123.4068 0.0000 6.1950 0.0000
# 4 0.0000 0.0000 0.0000 42.6551 0.0000 5.3720
# 5 5.0929 3.1449 6.1950 0.0000 52.5650 0.0000
# 6 0.0000 0.0000 0.0000 5.3720 0.0000 30.6736
#
#
#
# Elastic Compliance Matrix: (Units=1/GPa)
#
#
# Indices 1 2 3 4 5 6 
#
# 1 0.012094 -0.002548 -0.000701 0.000000 -0.000937 0.000000
# 2 -0.002548 0.023768 -0.003874 0.000000 -0.000719 0.000000
# 3 -0.000701 -0.003874 0.008888 0.000000 -0.000748 0.000000
# 4 0.000000 0.000000 0.000000 0.023973 0.000000 -0.004198
# 5 -0.000937 -0.000719 -0.000748 0.000000 0.019246 0.000000
# 6 0.000000 0.000000 0.000000 -0.004198 0.000000 0.033337
#
#
# Mechanical properties :
#
#
# Convention : Reuss Voigt Hill
#
# Bulk Modulus (GPa) = 32.78237 38.53810 35.66023
# Shear Modulus (GPa) = 34.31283 39.26766 36.79025
#
# Velocity S-wave (km/s) = 3.79142 4.05594 3.92591
# Velocity P-wave (km/s) = 5.73588 6.17084 5.95733
#
# Compressibility (1/GPa) = 0.03050421
#
# Stress axis : x y z
#
# Youngs Moduli (GPa) = 82.68779 42.07407 112.50823
#
# Poissons Ratio (x) = 0.10721 0.07884
# Poissons Ratio (y) = 0.21070 0.43583
# Poissons Ratio (z) = 0.05794 0.16298
#
# Static dielectric constant tensor:
#      x y z
#    x 2.025690 0.000000 0.014690 
#    y 0.000000 1.920200 0.000000 
#    z 0.014690 0.000000 1.945420 
# 
# From -- ./inp_files/9848.got.cif
#   From: 2010.05.17/outbox.cif.g08.bks.cpg/sg15_5_cif.got.tgz:9848.got - 2010.06.03 18:47:42.
