data_PCOD9301488
_publ_section_title
;
Structure prediction by ZEFSAII (Michael W. Deem and Ramdas Pophale) SiO2 
 PCOD9301488
Probable space group: C 2/C
;
_chemical_formula_sum "Si O2"
_cell_formula_units_Z 60
_cell_length_a 23.601354
_cell_length_b 18.599667
_cell_length_c 14.875467
_cell_angle_alpha 90.000000
_cell_angle_beta 151.191848
_cell_angle_gamma 90.000000
_cell_volume 3146.662111
_symmetry_space_group_name_H-M "C 2/C"
_symmetry_group_IT_number 15
_symmetry_cell_setting 'monoclinic'
loop_
_space_group_symop_operation_xyz
x,y,z
-x,y,1/2-z
-x,-y,-z
x,-y,1/2+z
1/2+x,1/2+y,z
1/2-x,1/2+y,1/2-z
1/2-x,1/2-y,-z
1/2+x,1/2-y,1/2+z
loop_
_atom_site_type_symbol
_atom_site_label
_atom_site_fract_x
_atom_site_fract_y
_atom_site_fract_z
Si Si1 0.270353 0.780572 0.879881
Si Si2 0.217463 0.434378 0.702859
Si Si3 0.213580 0.016539 0.010939
Si Si4 0.578720 0.778979 0.239881
Si Si5 0.389437 0.680258 0.939936
Si Si6 0.122493 0.958136 0.190210
Si Si7 0.500000 0.408642 0.750000
Si Si8 0.543081 0.056194 0.704852
O O1 0.268904 0.857160 0.828034
O O2 0.165650 0.771302 0.804244
O O3 0.269176 0.709502 0.815646
O O4 0.382812 0.771380 0.102172
O O5 0.272738 0.436829 0.879415
O O6 0.282206 0.494071 0.731379
O O7 0.079752 0.454859 0.517503
O O8 0.344797 0.992596 0.162791
O O9 0.152961 0.046858 0.837228
O O10 0.120149 0.953616 0.905974
O O11 0.588673 0.864233 0.243866
O O12 0.455143 0.756401 0.023533
O O13 0.377863 0.623103 0.846393
O O14 0.473647 0.639683 0.127580
O O15 0.000000 0.000000 0.000000
O O16 0.500000 0.053662 0.750000
#
# Coordination Sequence:
#
# PCOD9301488 Si02
#       8
#     8   8   8   8   8   8   4   8
#     4  11  22  36  59  93 127 168 206 266 328 382
#     4  12  24  42  64  98 135 173 218 264 331 397
#     4  12  25  43  64  95 136 173 219 271 322 393
#     4  11  21  34  63  91 127 160 207 271 328 373
#     4  12  21  37  60  96 124 153 213 270 320 378
#     4  12  24  40  66  96 128 170 219 271 326 380
#     4  12  22  38  66  98 126 166 212 276 336 366
#     4  12  22  41  65  97 134 175 214 263 331 397
#
# _framework density 19.067823000000001
#
# number of rings (size 3 to 8) (size 9 to 14) (size 15 to 20)
#    0.000    0.267    8.000    2.000    1.867    0.000 
#    0.000    0.667    0.000    0.000    0.000    0.000 
#    0.000    0.000    0.000    0.000    0.000    0.000 
#
# Total GULP energy -167165.134048 kJ/mol
# GULP energy per Si atom -5572.171135 kJ/mol
# Density = 1.902442 g / cm^3
# Si number density = 19.067823 Si / 1000 Ang^3
#
#
#
# Elastic Constant Matrix: (Units=GPa)
#
#
# Indices 1 2 3 4 5 6 
#
# 1 76.1661 30.8988 30.8974 0.0000 -11.1024 0.0000
# 2 30.8988 66.2215 13.0355 0.0000 -15.3979 0.0000
# 3 30.8974 13.0355 77.9007 0.0000 -15.3427 0.0000
# 4 0.0000 0.0000 0.0000 32.6946 0.0000 -0.7078
# 5 -11.1024 -15.3979 -15.3427 0.0000 43.2771 0.0000
# 6 0.0000 0.0000 0.0000 -0.7078 0.0000 29.5313
#
#
#
# Elastic Compliance Matrix: (Units=1/GPa)
#
#
# Indices 1 2 3 4 5 6 
#
# 1 0.018666 -0.007513 -0.006160 0.000000 -0.000068 0.000000
# 2 -0.007513 0.019704 0.000735 0.000000 0.005344 0.000000
# 3 -0.006160 0.000735 0.016015 0.000000 0.004359 0.000000
# 4 0.000000 0.000000 0.000000 0.030602 0.000000 0.000733
# 5 -0.000068 0.005344 0.004359 0.000000 0.026536 0.000000
# 6 0.000000 0.000000 0.000000 0.000733 0.000000 0.033880
#
#
# Mechanical properties :
#
#
# Convention : Reuss Voigt Hill
#
# Bulk Modulus (GPa) = 35.07446 41.10575 38.09011
# Shear Modulus (GPa) = 27.65769 30.79771 29.22770
#
# Velocity S-wave (km/s) = 3.81266 4.02327 3.91938
# Velocity P-wave (km/s) = 6.14950 6.57166 6.36408
#
# Compressibility (1/GPa) = 0.02851077
#
# Stress axis : x y z
#
# Youngs Moduli (GPa) = 53.57420 50.75078 62.43970
#
# Poissons Ratio (x) = 0.38128 0.38460
# Poissons Ratio (y) = 0.40249 -0.04590
# Poissons Ratio (z) = 0.33000 -0.03731
#
# Static dielectric constant tensor:
#      x y z
#    x 1.760140 0.000000 0.052090 
#    y 0.000000 1.685530 0.000000 
#    z 0.052090 0.000000 1.713160 
# 
# From -- ./inp_files/174106.got.cif
#   From: 2010.05.17/outbox.cif.g08.bks.cpg/sg15_88_cif.got.tgz:174106.got - 2010.06.03 18:47:42.
