data_PCOD9301569
_publ_section_title
;
Structure prediction by ZEFSAII (Michael W. Deem and Ramdas Pophale) SiO2 
 PCOD9301569
Probable space group: C 2/C
;
_chemical_formula_sum "Si O2"
_cell_formula_units_Z 64
_cell_length_a 36.497569
_cell_length_b 17.301908
_cell_length_c 10.014131
_cell_angle_alpha 90.000000
_cell_angle_beta 35.436400
_cell_angle_gamma 90.000000
_cell_volume 3666.473890
_symmetry_space_group_name_H-M "C 2/C"
_symmetry_group_IT_number 15
_symmetry_cell_setting 'monoclinic'
loop_
_space_group_symop_operation_xyz
x,y,z
-x,y,1/2-z
-x,-y,-z
x,-y,1/2+z
1/2+x,1/2+y,z
1/2-x,1/2+y,1/2-z
1/2-x,1/2-y,-z
1/2+x,1/2-y,1/2+z
loop_
_atom_site_type_symbol
_atom_site_label
_atom_site_fract_x
_atom_site_fract_y
_atom_site_fract_z
Si Si1 0.424419 0.415753 0.481124
Si Si2 0.250018 0.087103 0.307425
Si Si3 0.924760 0.418801 0.967309
Si Si4 0.138897 0.975190 0.558214
Si Si5 0.252374 0.629484 0.885729
Si Si6 0.362808 0.247822 0.666415
Si Si7 0.640660 0.979146 0.606029
Si Si8 0.250530 0.244520 0.190943
O O1 0.500000 0.416792 0.250000
O O2 0.402052 0.442082 0.696619
O O3 0.397205 0.474941 0.448881
O O4 0.399845 0.327633 0.528030
O O5 0.248155 0.125451 0.455722
O O6 0.246085 0.152581 0.207532
O O7 0.190853 0.031303 0.469501
O O8 0.314917 0.042187 0.096886
O O9 0.903615 0.330061 0.060771
O O10 0.895405 0.477162 0.165941
O O11 0.901161 0.441918 0.888015
O O12 0.000000 0.424199 0.750000
O O13 0.182992 0.910328 0.358482
O O14 0.247950 0.714114 0.839181
O O15 0.191640 0.581412 0.013369
O O16 0.309884 0.227846 0.712519
O O17 0.317412 0.264792 0.926834
#
# Coordination Sequence:
#
# PCOD9301569 Si02
#       8
#     8   8   8   8   8   8   8   8
#     4  12  24  43  62  85 126 165 202 245 292 363
#     4  11  21  36  62  86 123 153 194 256 306 358
#     4  12  24  43  62  85 126 165 202 245 292 363
#     4  11  23  38  62  92 113 159 206 244 304 357
#     4  11  21  36  62  86 123 153 194 256 306 358
#     4  11  23  38  62  92 113 159 206 244 304 357
#     4  11  23  38  62  92 113 159 206 244 304 357
#     4  11  21  36  62  86 123 153 194 256 306 358
#
# _framework density 17.455463000000002
#
# number of rings (size 3 to 8) (size 9 to 14) (size 15 to 20)
#    0.000    0.750    7.500    1.500    0.000    0.000 
#    0.000    0.000    0.000    0.000    0.000   10.500 
#    0.000    0.000    0.000    0.000    0.000    0.000 
#
# Total GULP energy -178471.336688 kJ/mol
# GULP energy per Si atom -5577.229272 kJ/mol
# Density = 1.741573 g / cm^3
# Si number density = 17.455463 Si / 1000 Ang^3
#
#
#
# Elastic Constant Matrix: (Units=GPa)
#
#
# Indices 1 2 3 4 5 6 
#
# 1 62.5526 19.8410 52.9722 0.0000 6.2465 0.0000
# 2 19.8410 84.6467 40.7977 0.0000 -5.3146 0.0000
# 3 52.9722 40.7977 116.0013 0.0000 -17.8287 0.0000
# 4 0.0000 0.0000 0.0000 30.7065 0.0000 10.6921
# 5 6.2465 -5.3146 -17.8287 0.0000 27.3059 0.0000
# 6 0.0000 0.0000 0.0000 10.6921 0.0000 25.6528
#
#
#
# Elastic Compliance Matrix: (Units=1/GPa)
#
#
# Indices 1 2 3 4 5 6 
#
# 1 0.033412 -0.000310 -0.018154 0.000000 -0.019557 0.000000
# 2 -0.000310 0.014236 -0.004923 0.000000 -0.000373 0.000000
# 3 -0.018154 -0.004923 0.021267 0.000000 0.017081 0.000000
# 4 0.000000 0.000000 0.000000 0.038095 0.000000 -0.015878
# 5 -0.019557 -0.000373 0.017081 0.000000 0.052176 0.000000
# 6 0.000000 0.000000 0.000000 -0.015878 0.000000 0.045600
#
#
# Mechanical properties :
#
#
# Convention : Reuss Voigt Hill
#
# Bulk Modulus (GPa) = 45.16404 54.49138 49.82771
# Shear Modulus (GPa) = 19.30955 26.70570 23.00762
#
# Velocity S-wave (km/s) = 3.32959 3.91568 3.63447
# Velocity P-wave (km/s) = 6.38057 7.19226 6.79854
#
# Compressibility (1/GPa) = 0.02214151
#
# Stress axis : x y z
#
# Youngs Moduli (GPa) = 29.92968 70.24681 47.02048
#
# Poissons Ratio (x) = 0.02174 0.85363
# Poissons Ratio (y) = 0.00926 0.23146
# Poissons Ratio (z) = 0.54336 0.34579
#
# Static dielectric constant tensor:
#      x y z
#    x 1.585890 0.000000 0.012830 
#    y 0.000000 1.584770 0.000000 
#    z 0.012830 0.000000 1.570950 
# 
# From -- ./inp_files/70572.got.cif
#   From: 2010.05.17/outbox.cif.g08.bks.cpg/sg15_36_cif.got.tgz:70572.got - 2010.06.03 18:47:42.
