data_PCOD9301359
_publ_section_title
;
Structure prediction by ZEFSAII (Michael W. Deem and Ramdas Pophale) SiO2 
 PCOD9301359
Probable space group: C 2/C
;
_chemical_formula_sum "Si O2"
_cell_formula_units_Z 48
_cell_length_a 33.044921
_cell_length_b 15.713364
_cell_length_c 16.485161
_cell_angle_alpha 90.000000
_cell_angle_beta 16.952498
_cell_angle_gamma 90.000000
_cell_volume 2495.875817
_symmetry_space_group_name_H-M "C 2/C"
_symmetry_group_IT_number 15
_symmetry_cell_setting 'monoclinic'
loop_
_space_group_symop_operation_xyz
x,y,z
-x,y,1/2-z
-x,-y,-z
x,-y,1/2+z
1/2+x,1/2+y,z
1/2-x,1/2+y,1/2-z
1/2-x,1/2-y,-z
1/2+x,1/2-y,1/2+z
loop_
_atom_site_type_symbol
_atom_site_label
_atom_site_fract_x
_atom_site_fract_y
_atom_site_fract_z
Si Si1 0.417612 0.048401 0.232032
Si Si2 0.857674 0.001015 0.320185
Si Si3 0.856843 0.112058 0.977680
Si Si4 0.885894 0.253220 0.797705
Si Si5 0.632316 0.906643 0.041791
Si Si6 0.822986 0.173530 0.316970
O O1 0.442723 0.149347 0.196516
O O2 0.258405 0.046813 0.508695
O O3 0.423962 0.988972 0.300072
O O4 0.500000 0.000000 0.000000
O O5 0.817802 0.099004 0.393445
O O6 0.868153 0.957264 0.385609
O O7 0.000000 0.000000 0.000000
O O8 0.835850 0.204065 0.975077
O O9 0.000000 0.117690 0.750000
O O10 0.738964 0.079925 0.264239
O O11 0.019775 0.198437 0.510033
O O12 0.750000 0.250000 0.000000
O O13 0.725800 0.855525 0.928023
O O14 0.500000 0.865144 0.250000
O O15 0.750000 0.250000 0.500000
#
# Coordination Sequence:
#
# PCOD9301359 Si02
#       6
#     8   8   8   8   8   8
#     4  11  23  43  70  96 126 179 231 270 333 418
#     4  11  20  42  67  92 127 180 221 262 330 405
#     4  12  23  42  66  97 142 173 220 290 342 391
#     4  12  23  41  71  99 132 178 227 278 332 406
#     4  11  25  44  65  96 138 175 220 286 349 384
#     4  11  24  43  68  98 132 172 231 272 325 413
#
# _framework density 19.231725999999998
#
# number of rings (size 3 to 8) (size 9 to 14) (size 15 to 20)
#    0.000    0.667    5.000    4.000    2.333    0.667 
#    3.000    0.833    0.000    0.000    0.000    0.000 
#    0.000    0.000    0.000    0.000    0.000    0.000 
#
# Total GULP energy -133797.959690 kJ/mol
# GULP energy per Si atom -5574.914987 kJ/mol
# Density = 1.918795 g / cm^3
# Si number density = 19.231726 Si / 1000 Ang^3
#
#
#
# Elastic Constant Matrix: (Units=GPa)
#
#
# Indices 1 2 3 4 5 6 
#
# 1 117.5666 47.6934 49.7227 0.0001 -0.6279 -0.0008
# 2 47.6934 148.5002 23.2224 0.0000 16.6589 0.0008
# 3 49.7227 23.2224 103.9612 0.0000 2.9946 0.0010
# 4 0.0001 0.0000 0.0000 32.0408 -0.0001 -9.8586
# 5 -0.6279 16.6589 2.9946 -0.0001 51.8969 0.0002
# 6 -0.0008 0.0008 0.0010 -9.8586 0.0002 132.4166
#
#
#
# Elastic Compliance Matrix: (Units=1/GPa)
#
#
# Indices 1 2 3 4 5 6 
#
# 1 0.011949 -0.003214 -0.005039 0.000000 0.001467 0.000000
# 2 -0.003214 0.008091 -0.000195 0.000000 -0.002625 0.000000
# 3 -0.005039 -0.000195 0.012093 0.000000 -0.000696 0.000000
# 4 0.000000 0.000000 0.000000 0.031942 0.000000 0.002378
# 5 0.001467 -0.002625 -0.000696 0.000000 0.020169 0.000000
# 6 0.000000 0.000000 0.000000 0.002378 0.000000 0.007729
#
#
# Mechanical properties :
#
#
# Convention : Reuss Voigt Hill
#
# Bulk Modulus (GPa) = 65.62990 67.92276 66.77633
# Shear Modulus (GPa) = 43.87989 59.89684 51.88836
#
# Velocity S-wave (km/s) = 4.78183 5.58681 5.19992
# Velocity P-wave (km/s) = 8.04288 8.77561 8.41722
#
# Compressibility (1/GPa) = 0.01523696
#
# Stress axis : x y z
#
# Youngs Moduli (GPa) = 83.69075 123.59191 82.69502
#
# Poissons Ratio (x) = 0.39724 0.41671
# Poissons Ratio (y) = 0.26899 0.01608
# Poissons Ratio (z) = 0.42173 0.02404
#
# Static dielectric constant tensor:
#      x y z
#    x 1.782770 0.000000 -0.100170 
#    y 0.000000 1.739290 0.000000 
#    z -0.100170 0.000000 1.792810 
# 
# From -- ./inp_files/182453.got.cif
#   From: 2010.05.17/outbox.cif.g08.bks.cpg/sg15_92_cif.got.tgz:182453.got - 2010.06.03 18:47:42.
