data_PCOD9301494
_publ_section_title
;
Structure prediction by ZEFSAII (Michael W. Deem and Ramdas Pophale) SiO2 
 PCOD9301494
Probable space group: C 2/C
;
_chemical_formula_sum "Si O2"
_cell_formula_units_Z 56
_cell_length_a 21.139080
_cell_length_b 23.898837
_cell_length_c 11.192835
_cell_angle_alpha 90.000000
_cell_angle_beta 150.219439
_cell_angle_gamma 90.000000
_cell_volume 2808.530893
_symmetry_space_group_name_H-M "C 2/C"
_symmetry_group_IT_number 15
_symmetry_cell_setting 'monoclinic'
loop_
_space_group_symop_operation_xyz
x,y,z
-x,y,1/2-z
-x,-y,-z
x,-y,1/2+z
1/2+x,1/2+y,z
1/2-x,1/2+y,1/2-z
1/2-x,1/2-y,-z
1/2+x,1/2-y,1/2+z
loop_
_atom_site_type_symbol
_atom_site_label
_atom_site_fract_x
_atom_site_fract_y
_atom_site_fract_z
Si Si1 0.769297 0.121408 0.649249
Si Si2 0.638678 0.175938 0.037609
Si Si3 0.937626 0.805147 0.274641
Si Si4 0.477355 0.543141 0.071848
Si Si5 0.347479 0.647417 0.216994
Si Si6 0.565842 0.180525 0.192358
Si Si7 0.764104 0.703432 0.699090
O O1 0.843097 0.145211 0.654600
O O2 0.623888 0.131580 0.370364
O O3 0.796896 0.166347 0.797285
O O4 0.834101 0.066202 0.808478
O O5 0.738217 0.133950 0.136159
O O6 0.610053 0.169159 0.130089
O O7 0.710577 0.234892 0.133819
O O8 0.500000 0.175879 0.750000
O O9 0.883622 0.742196 0.185450
O O10 0.000000 0.815653 0.250000
O O11 0.048206 0.811667 0.553728
O O12 0.500000 0.526586 0.250000
O O13 0.575775 0.594222 0.207188
O O14 0.500000 0.500000 0.000000
O O15 0.281549 0.680463 0.002139
O O16 0.414820 0.190905 0.952726
#
# Coordination Sequence:
#
# PCOD9301494 Si02
#       7
#     8   8   8   8   8   8   8
#     4  11  24  38  64  91 127 173 214 270 334 390
#     4  12  23  35  58  95 141 187 225 256 311 387
#     4  11  21  35  55  88 133 179 223 266 309 380
#     4  11  26  49  78 100 123 165 226 297 353 400
#     4  11  23  40  63  94 132 172 222 269 327 392
#     4  12  23  36  55  92 137 180 220 254 314 388
#     4  12  22  38  59  93 137 183 218 257 311 399
#
# _framework density 19.939250000000001
#
# number of rings (size 3 to 8) (size 9 to 14) (size 15 to 20)
#    0.000    0.571    5.714    3.857    2.000    3.429 
#    0.000    0.000    0.000    2.571    0.000    0.000 
#    0.000    0.000    0.000    0.000    0.000    0.000 
#
# Total GULP energy -156223.902073 kJ/mol
# GULP energy per Si atom -5579.425074 kJ/mol
# Density = 1.989387 g / cm^3
# Si number density = 19.939250 Si / 1000 Ang^3
#
#
#
# Elastic Constant Matrix: (Units=GPa)
#
#
# Indices 1 2 3 4 5 6 
#
# 1 135.0682 13.6151 30.0214 0.0000 -11.7796 0.0000
# 2 13.6151 41.5393 25.2812 0.0000 -11.2006 0.0000
# 3 30.0214 25.2812 135.8252 0.0000 0.1469 0.0000
# 4 0.0000 0.0000 0.0000 13.9113 0.0000 3.6823
# 5 -11.7796 -11.2006 0.1469 0.0000 40.7049 0.0000
# 6 0.0000 0.0000 0.0000 3.6823 0.0000 24.0336
#
#
#
# Elastic Compliance Matrix: (Units=1/GPa)
#
#
# Indices 1 2 3 4 5 6 
#
# 1 0.008043 -0.001137 -0.001568 0.000000 0.002020 0.000000
# 2 -0.001137 0.029802 -0.005304 0.000000 0.007891 0.000000
# 3 -0.001568 -0.005304 0.008698 0.000000 -0.001945 0.000000
# 4 0.000000 0.000000 0.000000 0.074923 0.000000 -0.011479
# 5 0.002020 0.007891 -0.001945 0.000000 0.027330 0.000000
# 6 0.000000 0.000000 0.000000 -0.011479 0.000000 0.043367
#
#
# Mechanical properties :
#
#
# Convention : Reuss Voigt Hill
#
# Bulk Modulus (GPa) = 32.76063 50.02980 41.39521
# Shear Modulus (GPa) = 22.89821 31.96428 27.43125
#
# Velocity S-wave (km/s) = 3.39248 4.00820 3.71312
# Velocity P-wave (km/s) = 5.64013 6.82396 6.26009
#
# Compressibility (1/GPa) = 0.03052444
#
# Stress axis : x y z
#
# Youngs Moduli (GPa) = 124.33078 33.55464 114.96310
#
# Poissons Ratio (x) = 0.03815 0.18030
# Poissons Ratio (y) = 0.14136 0.60980
# Poissons Ratio (z) = 0.19499 0.17798
#
# Static dielectric constant tensor:
#      x y z
#    x 1.770570 0.000000 0.026430 
#    y 0.000000 1.693470 0.000000 
#    z 0.026430 0.000000 1.815780 
# 
# From -- ./inp_files/114757.got.cif
#   From: 2010.05.17/outbox.cif.g08.bks.cpg/sg15_58_cif.got.tgz:114757.got - 2010.06.03 18:47:42.
