data_PCOD9301384
_publ_section_title
;
Structure prediction by ZEFSAII (Michael W. Deem and Ramdas Pophale) SiO2 
 PCOD9301384
Probable space group: C 2/C
;
_chemical_formula_sum "Si O2"
_cell_formula_units_Z 48
_cell_length_a 9.326066
_cell_length_b 12.891283
_cell_length_c 17.693233
_cell_angle_alpha 90.000000
_cell_angle_beta 60.760313
_cell_angle_gamma 90.000000
_cell_volume 1856.132780
_symmetry_space_group_name_H-M "C 2/C"
_symmetry_group_IT_number 15
_symmetry_cell_setting 'monoclinic'
loop_
_space_group_symop_operation_xyz
x,y,z
-x,y,1/2-z
-x,-y,-z
x,-y,1/2+z
1/2+x,1/2+y,z
1/2-x,1/2+y,1/2-z
1/2-x,1/2-y,-z
1/2+x,1/2-y,1/2+z
loop_
_atom_site_type_symbol
_atom_site_label
_atom_site_fract_x
_atom_site_fract_y
_atom_site_fract_z
Si Si1 0.416186 0.984510 0.368959
Si Si2 0.958524 0.886999 0.659272
Si Si3 0.657195 0.661928 0.473394
Si Si4 0.643050 0.387749 0.343402
Si Si5 0.320319 0.851880 0.522054
Si Si6 0.845919 0.667320 0.183862
O O1 0.277266 0.064192 0.433003
O O2 0.561610 0.064850 0.309281
O O3 0.324406 0.906665 0.333636
O O4 0.442676 0.913120 0.435775
O O5 0.889415 0.822741 0.603363
O O6 0.849783 0.837587 0.754229
O O7 0.149438 0.903706 0.592074
O O8 0.896821 0.004634 0.684145
O O9 0.750000 0.750000 0.500000
O O10 0.490796 0.623561 0.555669
O O11 0.617943 0.284898 0.299766
O O12 0.250000 0.750000 0.500000
O O13 0.398707 0.830514 0.582663
#
# Coordination Sequence:
#
# PCOD9301384 Si02
#       6
#     8   8   8   8   8   8
#     4  11  22  42  74  99 134 186 249 288 350 450
#     4  11  25  45  67 102 147 181 236 312 366 427
#     4  11  20  42  76  96 129 190 242 288 360 438
#     4  11  22  47  70  95 141 189 237 301 364 432
#     4  12  23  45  72  98 142 197 242 286 366 450
#     4  12  26  43  69 110 143 185 240 306 372 426
#
# _framework density 25.860220000000002
#
# number of rings (size 3 to 8) (size 9 to 14) (size 15 to 20)
#    0.000    0.667    6.667    2.000    0.000    4.000 
#    6.000    0.000    0.000    0.000    0.000    0.000 
#    0.000    0.000    0.000    0.000    0.000    0.000 
#
# Total GULP energy -133798.798562 kJ/mol
# GULP energy per Si atom -5574.949940 kJ/mol
# Density = 2.580136 g / cm^3
# Si number density = 25.860220 Si / 1000 Ang^3
#
#
#
# Elastic Constant Matrix: (Units=GPa)
#
#
# Indices 1 2 3 4 5 6 
#
# 1 81.1778 29.9982 11.5753 0.0000 -23.6291 0.0000
# 2 29.9982 122.7173 27.9464 0.0000 -15.0553 0.0000
# 3 11.5753 27.9464 55.8923 0.0000 -28.5188 0.0000
# 4 0.0000 0.0000 0.0000 19.1179 0.0000 -8.1457
# 5 -23.6291 -15.0553 -28.5188 0.0000 50.7329 0.0000
# 6 0.0000 0.0000 0.0000 -8.1457 0.0000 39.2487
#
#
#
# Elastic Compliance Matrix: (Units=1/GPa)
#
#
# Indices 1 2 3 4 5 6 
#
# 1 0.015413 -0.003377 0.002311 0.000000 0.007476 0.000000
# 2 -0.003377 0.009937 -0.005002 0.000000 -0.001436 0.000000
# 3 0.002311 -0.005002 0.027631 0.000000 0.015124 0.000000
# 4 0.000000 0.000000 0.000000 0.057381 0.000000 0.011909
# 5 0.007476 -0.001436 0.015124 0.000000 0.031269 0.000000
# 6 0.000000 0.000000 0.000000 0.011909 0.000000 0.027950
#
#
# Mechanical properties :
#
#
# Convention : Reuss Voigt Hill
#
# Bulk Modulus (GPa) = 24.48244 44.31413 34.39828
# Shear Modulus (GPa) = 25.59740 34.50438 30.05089
#
# Velocity S-wave (km/s) = 3.14958 3.65672 3.41258
# Velocity P-wave (km/s) = 4.76595 5.91625 5.37198
#
# Compressibility (1/GPa) = 0.04084560
#
# Stress axis : x y z
#
# Youngs Moduli (GPa) = 64.88036 100.63185 36.19115
#
# Poissons Ratio (x) = 0.33981 -0.08363
# Poissons Ratio (y) = 0.21909 0.18102
# Poissons Ratio (z) = -0.14992 0.50334
#
# Static dielectric constant tensor:
#      x y z
#    x 2.169330 0.000000 0.017500 
#    y 0.000000 2.051190 0.000000 
#    z 0.017500 0.000000 2.013360 
# 
# From -- ./inp_files/237433.got.cif
#   From: 2010.05.17/outbox.cif.g08.bks.cpg/sg15_119_cif.got.tgz:237433.got - 2010.06.03 18:47:42.
