data_PCOD9301395
_publ_section_title
;
Structure prediction by ZEFSAII (Michael W. Deem and Ramdas Pophale) SiO2 
 PCOD9301395
Probable space group: C 2/C
;
_chemical_formula_sum "Si O2"
_cell_formula_units_Z 48
_cell_length_a 11.847524
_cell_length_b 14.207613
_cell_length_c 16.594169
_cell_angle_alpha 90.000000
_cell_angle_beta 55.435257
_cell_angle_gamma 90.000000
_cell_volume 2300.171684
_symmetry_space_group_name_H-M "C 2/C"
_symmetry_group_IT_number 15
_symmetry_cell_setting 'monoclinic'
loop_
_space_group_symop_operation_xyz
x,y,z
-x,y,1/2-z
-x,-y,-z
x,-y,1/2+z
1/2+x,1/2+y,z
1/2-x,1/2+y,1/2-z
1/2-x,1/2-y,-z
1/2+x,1/2-y,1/2+z
loop_
_atom_site_type_symbol
_atom_site_label
_atom_site_fract_x
_atom_site_fract_y
_atom_site_fract_z
Si Si1 0.605787 0.963781 0.388305
Si Si2 0.085046 0.252934 0.367234
Si Si3 0.593454 0.717103 0.549734
Si Si4 0.114945 0.029123 0.635060
Si Si5 0.821842 0.174926 0.412528
Si Si6 0.657885 0.838718 0.810639
O O1 0.562901 0.864730 0.368737
O O2 0.748840 0.939486 0.373337
O O3 0.500000 0.000000 0.500000
O O4 0.633478 0.049235 0.315590
O O5 0.055569 0.223510 0.471005
O O6 0.236535 0.213201 0.290333
O O7 0.979349 0.206613 0.348498
O O8 0.750000 0.750000 0.500000
O O9 0.571791 0.613363 0.594441
O O10 0.487780 0.788230 0.634323
O O11 0.000000 0.008603 0.750000
O O12 0.162361 0.934712 0.569719
O O13 0.750000 0.250000 0.500000
O O14 0.733084 0.173339 0.367106
#
# Coordination Sequence:
#
# PCOD9301395 Si02
#       6
#     8   8   8   8   8   8
#     4  11  20  43  67  89 123 179 211 247 327 394
#     4  12  23  41  69  95 130 164 221 272 314 382
#     4  12  24  41  65  98 129 167 218 269 317 381
#     4  11  23  41  66  93 130 173 210 259 332 394
#     4  11  22  44  66  94 126 168 215 268 322 384
#     4  11  24  42  68  93 128 171 216 264 326 388
#
# _framework density 20.868006000000001
#
# number of rings (size 3 to 8) (size 9 to 14) (size 15 to 20)
#    0.000    0.667    5.000    4.500    0.000    0.667 
#    3.000    0.000    3.667    0.000    0.000    0.000 
#    0.000    0.000    0.000    0.000    0.000    0.000 
#
# Total GULP energy -134033.010931 kJ/mol
# GULP energy per Si atom -5584.708789 kJ/mol
# Density = 2.082051 g / cm^3
# Si number density = 20.868006 Si / 1000 Ang^3
#
#
#
# Elastic Constant Matrix: (Units=GPa)
#
#
# Indices 1 2 3 4 5 6 
#
# 1 87.5189 13.9515 -1.5035 0.0000 -21.6140 0.0000
# 2 13.9515 173.7278 29.2150 0.0000 11.4555 0.0000
# 3 -1.5035 29.2150 64.2575 0.0000 -15.6744 0.0000
# 4 0.0000 0.0000 0.0000 24.6185 0.0000 -7.9012
# 5 -21.6140 11.4555 -15.6744 0.0000 31.0637 0.0000
# 6 0.0000 0.0000 0.0000 -7.9012 0.0000 32.5212
#
#
#
# Elastic Compliance Matrix: (Units=1/GPa)
#
#
# Indices 1 2 3 4 5 6 
#
# 1 0.015673 -0.003143 0.005403 0.000000 0.014790 0.000000
# 2 -0.003143 0.007397 -0.005286 0.000000 -0.007582 0.000000
# 3 0.005403 -0.005286 0.022220 0.000000 0.016921 0.000000
# 4 0.000000 0.000000 0.000000 0.044055 0.000000 0.010703
# 5 0.014790 -0.007582 0.016921 0.000000 0.053817 0.000000
# 6 0.000000 0.000000 0.000000 0.010703 0.000000 0.033350
#
#
# Mechanical properties :
#
#
# Convention : Reuss Voigt Hill
#
# Bulk Modulus (GPa) = 25.48509 45.42558 35.45533
# Shear Modulus (GPa) = 25.55688 36.56342 31.06015
#
# Velocity S-wave (km/s) = 3.50336 4.19038 3.86218
# Velocity P-wave (km/s) = 5.34824 6.72516 6.07583
#
# Compressibility (1/GPa) = 0.03923864
#
# Stress axis : x y z
#
# Youngs Moduli (GPa) = 63.80596 135.18253 45.00503
#
# Poissons Ratio (x) = 0.42481 -0.24317
# Poissons Ratio (y) = 0.20051 0.23791
# Poissons Ratio (z) = -0.34476 0.71461
#
# Static dielectric constant tensor:
#      x y z
#    x 1.738480 0.000000 -0.023960 
#    y 0.000000 1.739620 0.000000 
#    z -0.023960 0.000000 1.863240 
# 
# From -- ./inp_files/144087.got.cif
#   From: 2010.05.17/outbox.cif.g08.bks.cpg/sg15_73_cif.got.tgz:144087.got - 2010.06.03 18:47:42.
