data_PCOD9301083
_publ_section_title
;
Structure prediction by ZEFSAII (Michael W. Deem and Ramdas Pophale) SiO2 
 PCOD9301083
Probable space group: C 2/C
;
_chemical_formula_sum "Si O2"
_cell_formula_units_Z 60
_cell_length_a 13.870815
_cell_length_b 14.714431
_cell_length_c 29.133066
_cell_angle_alpha 90.000000
_cell_angle_beta 150.591270
_cell_angle_gamma 90.000000
_cell_volume 2919.748297
_symmetry_space_group_name_H-M "C 2/C"
_symmetry_group_IT_number 15
_symmetry_cell_setting 'monoclinic'
loop_
_space_group_symop_operation_xyz
x,y,z
-x,y,1/2-z
-x,-y,-z
x,-y,1/2+z
1/2+x,1/2+y,z
1/2-x,1/2+y,1/2-z
1/2-x,1/2-y,-z
1/2+x,1/2-y,1/2+z
loop_
_atom_site_type_symbol
_atom_site_label
_atom_site_fract_x
_atom_site_fract_y
_atom_site_fract_z
Si Si1 0.237715 0.218914 0.101408
Si Si2 0.663534 0.388711 0.738569
Si Si3 0.849505 0.758663 0.253813
Si Si4 0.903374 0.432981 0.333327
Si Si5 0.295125 0.357612 0.521117
Si Si6 0.662147 0.342378 0.066384
Si Si7 0.000000 0.771790 0.750000
Si Si8 0.149816 0.515420 0.351362
O O1 0.271862 0.239095 0.169763
O O2 0.415855 0.272328 0.151421
O O3 0.261069 0.111874 0.098548
O O4 0.010768 0.228505 0.994079
O O5 0.807808 0.330211 0.766363
O O6 0.756979 0.486599 0.786154
O O7 0.458252 0.386895 0.625145
O O8 0.629383 0.334609 0.771051
O O9 0.725827 0.841590 0.223677
O O10 0.088060 0.408374 0.442522
O O11 0.017026 0.466978 0.334983
O O12 0.250000 0.250000 0.500000
O O13 0.369255 0.371881 0.499700
O O14 0.863300 0.289997 0.160931
O O15 0.695128 0.440959 0.103089
O O16 0.000000 0.541098 0.250000
#
# Coordination Sequence:
#
# PCOD9301083 Si02
#       8
#     8   8   8   8   8   8   4   8
#     4  11  21  40  67  96 128 175 227 280 335 416
#     4  12  23  46  66  98 139 176 233 287 341 418
#     4  11  22  41  70  96 134 178 224 283 343 409
#     4  11  24  41  67 102 134 179 236 285 343 406
#     4  11  20  42  75  93 126 190 237 270 342 426
#     4  11  22  38  63 103 128 171 227 285 352 407
#     4  12  26  40  66  96 138 182 224 294 342 402
#     4  11  20  37  62  97 130 172 220 289 343 390
#
# _framework density 20.549717000000001
#
# number of rings (size 3 to 8) (size 9 to 14) (size 15 to 20)
#    0.000    0.800    7.333    1.200    0.000    1.067 
#    2.400    1.333    0.000    0.000    0.000    0.000 
#    0.000    0.000    0.000    0.000    0.000    0.000 
#
# Total GULP energy -167306.667249 kJ/mol
# GULP energy per Si atom -5576.888908 kJ/mol
# Density = 2.050295 g / cm^3
# Si number density = 20.549717 Si / 1000 Ang^3
#
#
#
# Elastic Constant Matrix: (Units=GPa)
#
#
# Indices 1 2 3 4 5 6 
#
# 1 45.2398 10.1884 16.9055 0.0000 11.1971 0.0000
# 2 10.1884 94.4772 24.4332 -0.0001 6.9325 0.0000
# 3 16.9055 24.4332 51.7682 0.0001 6.7321 0.0003
# 4 0.0000 -0.0001 0.0001 25.2145 0.0002 8.8489
# 5 11.1971 6.9325 6.7321 0.0002 16.6026 0.0001
# 6 0.0000 0.0000 0.0003 8.8489 0.0001 27.1533
#
#
#
# Elastic Compliance Matrix: (Units=1/GPa)
#
#
# Indices 1 2 3 4 5 6 
#
# 1 0.028927 -0.000021 -0.007285 0.000000 -0.016546 0.000000
# 2 -0.000021 0.012188 -0.005369 0.000000 -0.002898 0.000000
# 3 -0.007285 -0.005369 0.024596 0.000000 -0.002819 0.000000
# 4 0.000000 0.000000 0.000000 0.044781 0.000000 -0.014594
# 5 -0.016546 -0.002898 -0.002819 0.000000 0.073744 0.000000
# 6 0.000000 0.000000 0.000000 -0.014594 0.000000 0.041584
#
#
# Mechanical properties :
#
#
# Convention : Reuss Voigt Hill
#
# Bulk Modulus (GPa) = 24.77600 32.72661 28.75130
# Shear Modulus (GPa) = 18.89486 23.12460 21.00973
#
# Velocity S-wave (km/s) = 3.03557 3.35819 3.20095
# Velocity P-wave (km/s) = 4.93650 5.56747 5.26145
#
# Compressibility (1/GPa) = 0.04036164
#
# Stress axis : x y z
#
# Youngs Moduli (GPa) = 34.57028 82.04866 40.65680
#
# Poissons Ratio (x) = 0.00176 0.29617
# Poissons Ratio (y) = 0.00074 0.21827
# Poissons Ratio (z) = 0.25183 0.44048
#
# Static dielectric constant tensor:
#      x y z
#    x 1.801670 0.000000 0.053820 
#    y 0.000000 1.764310 0.000000 
#    z 0.053820 0.000000 1.794730 
# 
# From -- ./inp_files/313990.got.cif
#   From: 2010.05.17/outbox.cif.g08.bks.cpg/sg15_157_cif.got.tgz:313990.got - 2010.06.03 18:47:42.
