data_PCOD9301663
_publ_section_title
;
Structure prediction by ZEFSAII (Michael W. Deem and Ramdas Pophale) SiO2 
 PCOD9301663
Probable space group: C 2/C
;
_chemical_formula_sum "Si O2"
_cell_formula_units_Z 48
_cell_length_a 11.884157
_cell_length_b 8.932343
_cell_length_c 22.760791
_cell_angle_alpha 90.000000
_cell_angle_beta 55.660119
_cell_angle_gamma 90.000000
_cell_volume 1995.016465
_symmetry_space_group_name_H-M "C 2/C"
_symmetry_group_IT_number 15
_symmetry_cell_setting 'monoclinic'
loop_
_space_group_symop_operation_xyz
x,y,z
-x,y,1/2-z
-x,-y,-z
x,-y,1/2+z
1/2+x,1/2+y,z
1/2-x,1/2+y,1/2-z
1/2-x,1/2-y,-z
1/2+x,1/2-y,1/2+z
loop_
_atom_site_type_symbol
_atom_site_label
_atom_site_fract_x
_atom_site_fract_y
_atom_site_fract_z
Si Si1 0.181730 0.838971 0.927054
Si Si2 0.327660 0.202173 0.154458
Si Si3 0.375575 0.914834 0.318671
Si Si4 0.410431 0.371206 0.416366
Si Si5 0.028888 0.400963 0.390562
Si Si6 0.213361 0.625023 0.464108
O O1 0.306927 0.749397 0.919608
O O2 0.100642 0.731342 0.906016
O O3 0.251324 0.976892 0.872673
O O4 0.097393 0.883557 0.010161
O O5 0.181989 0.280392 0.204771
O O6 0.441915 0.313786 0.145120
O O7 0.338303 0.194708 0.080527
O O8 0.365343 0.031638 0.158957
O O9 0.500000 0.997586 0.250000
O O10 0.444308 0.855971 0.358159
O O11 0.344976 0.524576 0.413482
O O12 0.910656 0.467120 0.469031
O O13 0.250000 0.750000 0.500000
#
# Coordination Sequence:
#
# PCOD9301663 Si02
#       6
#     8   8   8   8   8   8
#     4  11  22  41  71 100 135 172 215 276 343 400
#     4  12  24  41  69 100 139 172 213 280 343 398
#     4  12  29  48  65  93 133 185 237 271 320 404
#     4  11  21  37  70 108 135 167 211 276 352 402
#     4  12  23  43  68 100 136 173 216 281 339 390
#     4  12  22  37  66 110 142 168 210 273 348 410
#
# _framework density 24.059950000000001
#
# number of rings (size 3 to 8) (size 9 to 14) (size 15 to 20)
#    0.000    0.333    8.333    1.500    2.333    2.667 
#    0.000    0.833    0.000    0.000    0.000    0.000 
#    0.000    0.000    0.000    0.000    0.000    0.000 
#
# Total GULP energy -134169.864616 kJ/mol
# GULP energy per Si atom -5590.411026 kJ/mol
# Density = 2.400519 g / cm^3
# Si number density = 24.059950 Si / 1000 Ang^3
#
#
#
# Elastic Constant Matrix: (Units=GPa)
#
#
# Indices 1 2 3 4 5 6 
#
# 1 133.5239 37.6495 3.3401 0.0000 7.0981 0.0000
# 2 37.6495 96.8650 0.5866 0.0000 -5.6131 0.0000
# 3 3.3401 0.5866 28.9612 0.0000 -9.6406 0.0000
# 4 0.0000 0.0000 0.0000 10.6805 0.0000 -3.1635
# 5 7.0981 -5.6131 -9.6406 0.0000 19.0941 0.0000
# 6 0.0000 0.0000 0.0000 -3.1635 0.0000 53.9379
#
#
#
# Elastic Compliance Matrix: (Units=1/GPa)
#
#
# Indices 1 2 3 4 5 6 
#
# 1 0.008950 -0.003804 -0.002927 0.000000 -0.005923 0.000000
# 2 -0.003804 0.012143 0.002226 0.000000 0.006108 0.000000
# 3 -0.002927 0.002226 0.042553 0.000000 0.023228 0.000000
# 4 0.000000 0.000000 0.000000 0.095284 0.000000 0.005588
# 5 -0.005923 0.006108 0.023228 0.000000 0.068097 0.000000
# 6 0.000000 0.000000 0.000000 0.005588 0.000000 0.018868
#
#
# Mechanical properties :
#
#
# Convention : Reuss Voigt Hill
#
# Bulk Modulus (GPa) = 18.30299 38.05581 28.17940
# Shear Modulus (GPa) = 18.30715 31.26075 24.78395
#
# Velocity S-wave (km/s) = 2.76143 3.60847 3.21299
# Velocity P-wave (km/s) = 4.21795 5.76306 5.04995
#
# Compressibility (1/GPa) = 0.05463588
#
# Stress axis : x y z
#
# Youngs Moduli (GPa) = 111.73105 82.35384 23.49986
#
# Poissons Ratio (x) = 0.31329 0.06878
# Poissons Ratio (y) = 0.42505 -0.05231
# Poissons Ratio (z) = 0.32702 -0.18331
#
# Static dielectric constant tensor:
#      x y z
#    x 1.943770 0.000000 -0.074170 
#    y 0.000000 2.000130 0.000000 
#    z -0.074170 0.000000 1.971260 
# 
# From -- ./inp_files/268039.got.cif
#   From: 2010.05.17/outbox.cif.g08.bks.cpg/sg15_135_cif.got.tgz:268039.got - 2010.06.03 18:47:42.
