data_PCOD9301678
_publ_section_title
;
Structure prediction by ZEFSAII (Michael W. Deem and Ramdas Pophale) SiO2 
 PCOD9301678
Probable space group: C 2/C
;
_chemical_formula_sum "Si O2"
_cell_formula_units_Z 36
_cell_length_a 13.605963
_cell_length_b 13.404586
_cell_length_c 9.378302
_cell_angle_alpha 90.000000
_cell_angle_beta 74.388050
_cell_angle_gamma 90.000000
_cell_volume 1647.332246
_symmetry_space_group_name_H-M "C 2/C"
_symmetry_group_IT_number 15
_symmetry_cell_setting 'monoclinic'
loop_
_space_group_symop_operation_xyz
x,y,z
-x,y,1/2-z
-x,-y,-z
x,-y,1/2+z
1/2+x,1/2+y,z
1/2-x,1/2+y,1/2-z
1/2-x,1/2-y,-z
1/2+x,1/2-y,1/2+z
loop_
_atom_site_type_symbol
_atom_site_label
_atom_site_fract_x
_atom_site_fract_y
_atom_site_fract_z
Si Si1 0.858187 0.729548 0.382894
Si Si2 0.000000 0.892446 0.250000
Si Si3 0.180591 0.469667 0.485144
Si Si4 0.210422 0.324180 0.895658
Si Si5 0.682299 0.490007 0.802431
O O1 0.750000 0.750000 0.500000
O O2 0.887560 0.618858 0.426629
O O3 0.844534 0.725196 0.217288
O O4 0.935718 0.818801 0.377252
O O5 0.075849 0.959656 0.313231
O O6 0.143184 0.583546 0.484534
O O7 0.277816 0.478036 0.554050
O O8 0.228965 0.445044 0.312346
O O9 0.304173 0.384881 0.784733
O O10 0.250000 0.250000 0.000000
#
# Coordination Sequence:
#
# PCOD9301678 Si02
#       5
#     8   4   8   8   8
#     4  11  21  38  59  88 117 159 194 244 305 358
#     4  12  22  36  62  94 120 148 206 256 294 350
#     4   9  19  38  59  84 117 159 196 236 301 350
#     4   9  19  37  59  85 118 161 193 241 293 359
#     4   9  20  34  59  90 118 152 198 245 295 349
#
# _framework density 21.853515000000002
#
# number of rings (size 3 to 8) (size 9 to 14) (size 15 to 20)
#    1.333    0.889    2.222    1.333    0.000    0.889 
#    0.000    1.111    0.000    1.333    0.000    0.000 
#    0.000    0.000    0.000    0.000    0.000    0.000 
#
# Total GULP energy -100279.723637 kJ/mol
# GULP energy per Si atom -5571.095758 kJ/mol
# Density = 2.180378 g / cm^3
# Si number density = 21.853515 Si / 1000 Ang^3
#
#
#
# Elastic Constant Matrix: (Units=GPa)
#
#
# Indices 1 2 3 4 5 6 
#
# 1 51.6436 27.0780 8.0639 0.0000 -5.4945 0.0000
# 2 27.0780 91.4446 11.5844 0.0000 6.5908 0.0000
# 3 8.0639 11.5844 63.8716 0.0000 14.1216 0.0000
# 4 0.0000 0.0000 0.0000 45.5512 0.0000 -10.5786
# 5 -5.4945 6.5908 14.1216 0.0000 23.7333 0.0000
# 6 0.0000 0.0000 0.0000 -10.5786 0.0000 41.1337
#
#
#
# Elastic Compliance Matrix: (Units=1/GPa)
#
#
# Indices 1 2 3 4 5 6 
#
# 1 0.025125 -0.007671 -0.004074 0.000000 0.010371 0.000000
# 2 -0.007671 0.013635 -0.000316 0.000000 -0.005374 0.000000
# 3 -0.004074 -0.000316 0.018904 0.000000 -0.012103 0.000000
# 4 0.000000 0.000000 0.000000 0.023348 0.000000 0.006004
# 5 0.010371 -0.005374 -0.012103 0.000000 0.053230 0.000000
# 6 0.000000 0.000000 0.000000 0.006004 0.000000 0.025855
#
#
# Mechanical properties :
#
#
# Convention : Reuss Voigt Hill
#
# Bulk Modulus (GPa) = 29.81394 33.37918 31.59656
# Shear Modulus (GPa) = 25.58858 32.76589 29.17723
#
# Velocity S-wave (km/s) = 3.42557 3.87633 3.65790
# Velocity P-wave (km/s) = 5.41464 5.94490 5.68595
#
# Compressibility (1/GPa) = 0.03354136
#
# Stress axis : x y z
#
# Youngs Moduli (GPa) = 39.80060 73.34297 52.89872
#
# Poissons Ratio (x) = 0.56264 0.21549
# Poissons Ratio (y) = 0.30532 0.01673
# Poissons Ratio (z) = 0.16214 0.02319
#
# Static dielectric constant tensor:
#      x y z
#    x 1.790210 0.000000 -0.036780 
#    y 0.000000 1.920750 0.000000 
#    z -0.036780 0.000000 1.819820 
# 
# From -- ./inp_files/95246.got.cif
#   From: 2010.05.17/outbox.cif.g08.bks.cpg/sg15_48_cif.got.tgz:95246.got - 2010.06.03 18:47:42.
