data_PCOD9301723
_publ_section_title
;
Structure prediction by ZEFSAII (Michael W. Deem and Ramdas Pophale) SiO2 
 PCOD9301723
Probable space group: C 2/C
;
_chemical_formula_sum "Si O2"
_cell_formula_units_Z 56
_cell_length_a 12.494416
_cell_length_b 19.994839
_cell_length_c 10.950365
_cell_angle_alpha 90.000000
_cell_angle_beta 88.807315
_cell_angle_gamma 90.000000
_cell_volume 2735.069510
_symmetry_space_group_name_H-M "C 2/C"
_symmetry_group_IT_number 15
_symmetry_cell_setting 'monoclinic'
loop_
_space_group_symop_operation_xyz
x,y,z
-x,y,1/2-z
-x,-y,-z
x,-y,1/2+z
1/2+x,1/2+y,z
1/2-x,1/2+y,1/2-z
1/2-x,1/2-y,-z
1/2+x,1/2-y,1/2+z
loop_
_atom_site_type_symbol
_atom_site_label
_atom_site_fract_x
_atom_site_fract_y
_atom_site_fract_z
Si Si1 0.861415 0.201981 0.655034
Si Si2 0.630614 0.167902 0.644810
Si Si3 0.609644 0.039335 0.526645
Si Si4 0.620571 0.860932 0.799991
Si Si5 0.092280 0.832672 0.069506
Si Si6 0.097318 0.701224 0.922094
Si Si7 0.733803 0.092059 0.059568
O O1 0.749525 0.182677 0.596591
O O2 0.868963 0.281943 0.673583
O O3 0.866273 0.171370 0.792316
O O4 0.964264 0.172178 0.583330
O O5 0.607392 0.088428 0.644009
O O6 0.625268 0.200332 0.778959
O O7 0.531283 0.196636 0.571682
O O8 0.630903 0.090446 0.415318
O O9 0.500000 0.000000 0.500000
O O10 0.699969 0.984167 0.543685
O O11 0.500000 0.870523 0.750000
O O12 0.706788 0.883345 0.696593
O O13 0.129093 0.766167 0.996675
O O14 0.148516 0.891797 0.993932
O O15 0.152795 0.637222 0.980255
#
# Coordination Sequence:
#
# PCOD9301723 Si02
#       7
#     8   8   8   8   8   8   8
#     4  11  22  41  68  93 130 166 225 270 324 377
#     4  11  24  39  64  97 130 166 209 279 324 378
#     4  12  26  40  61  95 136 170 205 262 330 395
#     4  12  22  39  65  96 127 167 210 266 320 386
#     4  11  22  40  64  96 124 176 218 265 319 393
#     4  11  21  38  65  97 128 159 215 271 335 371
#     4  12  23  39  63  92 131 168 217 254 322 399
#
# _framework density 20.474799999999998
#
# number of rings (size 3 to 8) (size 9 to 14) (size 15 to 20)
#    0.000    0.571    7.143    2.143    2.000    2.286 
#    0.000    0.714    0.000    0.000    0.000    0.000 
#    0.000    0.000    0.000    0.143    0.000    0.000 
#
# Total GULP energy -156517.154554 kJ/mol
# GULP energy per Si atom -5589.898377 kJ/mol
# Density = 2.042820 g / cm^3
# Si number density = 20.474800 Si / 1000 Ang^3
#
#
#
# Elastic Constant Matrix: (Units=GPa)
#
#
# Indices 1 2 3 4 5 6 
#
# 1 144.1439 32.9189 23.7105 0.0000 -19.4148 0.0000
# 2 32.9189 68.5959 12.7704 0.0000 -17.1922 0.0000
# 3 23.7105 12.7704 69.8634 0.0000 -27.3271 0.0000
# 4 0.0000 0.0000 0.0000 27.2189 0.0000 -3.7665
# 5 -19.4148 -17.1922 -27.3271 0.0000 31.2494 0.0000
# 6 0.0000 0.0000 0.0000 -3.7665 0.0000 25.1941
#
#
#
# Elastic Compliance Matrix: (Units=1/GPa)
#
#
# Indices 1 2 3 4 5 6 
#
# 1 0.008166 -0.003122 -0.001350 0.000000 0.002175 0.000000
# 2 -0.003122 0.018135 0.001350 0.000000 0.009219 0.000000
# 3 -0.001350 0.001350 0.022019 0.000000 0.019160 0.000000
# 4 0.000000 0.000000 0.000000 0.037515 0.000000 0.005608
# 5 0.002175 0.009219 0.019160 0.000000 0.055179 0.000000
# 6 0.000000 0.000000 0.000000 0.005608 0.000000 0.040530
#
#
# Mechanical properties :
#
#
# Convention : Reuss Voigt Hill
#
# Bulk Modulus (GPa) = 23.76574 46.82254 35.29414
# Shear Modulus (GPa) = 24.77539 30.94605 27.86072
#
# Velocity S-wave (km/s) = 3.48234 3.89192 3.69281
# Velocity P-wave (km/s) = 5.27271 6.56613 5.95464
#
# Compressibility (1/GPa) = 0.04207738
#
# Stress axis : x y z
#
# Youngs Moduli (GPa) = 122.46610 55.14048 45.41479
#
# Poissons Ratio (x) = 0.17216 0.06130
# Poissons Ratio (y) = 0.38236 -0.06133
# Poissons Ratio (z) = 0.16530 -0.07447
#
# Static dielectric constant tensor:
#      x y z
#    x 1.763450 0.000000 -0.040710 
#    y 0.000000 1.710080 0.000000 
#    z -0.040710 0.000000 1.792450 
# 
# From -- ./inp_files/88956.got.cif
#   From: 2010.05.17/outbox.cif.g08.bks.cpg/sg15_45_cif.got.tgz:88956.got - 2010.06.03 18:47:42.
