data_PCOD9301291
_publ_section_title
;
Structure prediction by ZEFSAII (Michael W. Deem and Ramdas Pophale) SiO2 
 PCOD9301291
Probable space group: C 2/C
;
_chemical_formula_sum "Si O2"
_cell_formula_units_Z 64
_cell_length_a 30.539755
_cell_length_b 17.736352
_cell_length_c 14.585974
_cell_angle_alpha 90.000000
_cell_angle_beta 159.217889
_cell_angle_gamma 90.000000
_cell_volume 2803.285578
_symmetry_space_group_name_H-M "C 2/C"
_symmetry_group_IT_number 15
_symmetry_cell_setting 'monoclinic'
loop_
_space_group_symop_operation_xyz
x,y,z
-x,y,1/2-z
-x,-y,-z
x,-y,1/2+z
1/2+x,1/2+y,z
1/2-x,1/2+y,1/2-z
1/2-x,1/2-y,-z
1/2+x,1/2-y,1/2+z
loop_
_atom_site_type_symbol
_atom_site_label
_atom_site_fract_x
_atom_site_fract_y
_atom_site_fract_z
Si Si1 0.542304 0.548488 0.233940
Si Si2 0.697658 0.029663 0.829878
Si Si3 0.076312 0.884290 0.482052
Si Si4 0.509905 0.201795 0.871354
Si Si5 0.485004 0.674016 0.981368
Si Si6 0.170721 0.437360 0.485267
Si Si7 0.046564 0.403974 0.743283
Si Si8 0.294835 0.148176 0.113507
O O1 0.500000 0.576554 0.250000
O O2 0.688670 0.552100 0.510727
O O3 0.493838 0.462856 0.131911
O O4 0.487387 0.597682 0.045234
O O5 0.715610 0.060319 0.967904
O O6 0.569882 0.061171 0.540202
O O7 0.703152 0.939914 0.854172
O O8 0.000000 0.849741 0.250000
O O9 0.066138 0.832414 0.549931
O O10 0.215869 0.907180 0.732968
O O11 0.500000 0.233466 0.750000
O O12 0.439636 0.122229 0.729110
O O13 0.459093 0.261519 0.844631
O O14 0.642756 0.187483 0.176623
O O15 0.341337 0.679716 0.671309
O O16 0.128801 0.521640 0.427961
O O17 0.000000 0.371626 0.750000
O O18 0.122096 0.352645 0.818017
#
# Coordination Sequence:
#
# PCOD9301291 Si02
#       8
#     8   8   8   8   8   8   8   8
#     4  11  23  39  67 101 136 171 214 265 327 389
#     4  11  20  40  69  98 134 168 216 275 325 374
#     4  11  25  41  69 101 126 171 217 273 335 382
#     4  12  27  45  68  92 125 182 223 261 324 392
#     4  12  25  45  65  95 135 172 219 267 325 387
#     4  11  22  43  66  94 137 170 221 268 321 391
#     4  11  23  37  68 107 133 170 212 273 334 374
#     4  11  23  44  67  96 132 168 219 276 318 390
#
# _framework density 22.830354
#
# number of rings (size 3 to 8) (size 9 to 14) (size 15 to 20)
#    0.000    0.750    5.000    3.750    7.000    0.500 
#    0.000    0.625    0.000    0.000    0.000    0.000 
#    0.000    0.000    0.000    0.000    0.000    0.000 
#
# Total GULP energy -179015.254462 kJ/mol
# GULP energy per Si atom -5594.226702 kJ/mol
# Density = 2.277839 g / cm^3
# Si number density = 22.830354 Si / 1000 Ang^3
#
#
#
# Elastic Constant Matrix: (Units=GPa)
#
#
# Indices 1 2 3 4 5 6 
#
# 1 112.5876 15.3816 20.5136 0.0000 -17.1194 0.0000
# 2 15.3816 39.8340 -1.4878 0.0000 -10.3427 0.0000
# 3 20.5136 -1.4878 107.9480 0.0000 -4.7471 0.0000
# 4 0.0000 0.0000 0.0000 -0.9213 0.0000 8.8722
# 5 -17.1194 -10.3427 -4.7471 0.0000 38.7521 0.0000
# 6 0.0000 0.0000 0.0000 8.8722 0.0000 0.6506
#
#
#
# Elastic Compliance Matrix: (Units=1/GPa)
#
#
# Indices 1 2 3 4 5 6 
#
# 1 0.010160 -0.003099 -0.001822 0.000000 0.003438 0.000000
# 2 -0.003099 0.027970 0.001249 0.000000 0.006249 0.000000
# 3 -0.001822 0.001249 0.009659 0.000000 0.000712 0.000000
# 4 0.000000 0.000000 0.000000 -0.008203 0.000000 0.111860
# 5 0.003438 0.006249 0.000712 0.000000 0.029079 0.000000
# 6 0.000000 0.000000 0.000000 0.111860 0.000000 0.011616
#
#
# Mechanical properties :
#
#
# Convention : Reuss Voigt Hill
#
# Bulk Modulus (GPa) = 24.72487 36.57604 30.65046
# Shear Modulus (GPa) = 49.45328 22.76044 36.10686
#
# Velocity S-wave (km/s) = 4.65921 3.16086 3.98116
# Velocity P-wave (km/s) = 6.30854 5.42005 5.88110
#
# Compressibility (1/GPa) = 0.04044511
#
# Stress axis : x y z
#
# Youngs Moduli (GPa) = 98.42421 35.75269 103.53565
#
# Poissons Ratio (x) = 0.11078 0.18867
# Poissons Ratio (y) = 0.30498 -0.12933
# Poissons Ratio (z) = 0.17935 -0.04466
#
# Static dielectric constant tensor:
#      x y z
#    x 1.869500 0.000000 0.002900 
#    y 0.000000 1.886040 0.000000 
#    z 0.002900 0.000000 1.842260 
# 
# From -- ./inp_files/183156.got.cif
#   From: 2010.05.17/outbox.cif.g08.bks.cpg/sg15_92_cif.got.tgz:183156.got - 2010.06.03 18:47:42.
