data_PCOD9301779
_publ_section_title
;
Structure prediction by ZEFSAII (Michael W. Deem and Ramdas Pophale) SiO2 
 PCOD9301779
Probable space group: C 2/C
;
_chemical_formula_sum "Si O2"
_cell_formula_units_Z 56
_cell_length_a 9.881289
_cell_length_b 33.048635
_cell_length_c 8.848446
_cell_angle_alpha 90.000000
_cell_angle_beta 110.068528
_cell_angle_gamma 90.000000
_cell_volume 2714.129336
_symmetry_space_group_name_H-M "C 2/C"
_symmetry_group_IT_number 15
_symmetry_cell_setting 'monoclinic'
loop_
_space_group_symop_operation_xyz
x,y,z
-x,y,1/2-z
-x,-y,-z
x,-y,1/2+z
1/2+x,1/2+y,z
1/2-x,1/2+y,1/2-z
1/2-x,1/2-y,-z
1/2+x,1/2-y,1/2+z
loop_
_atom_site_type_symbol
_atom_site_label
_atom_site_fract_x
_atom_site_fract_y
_atom_site_fract_z
Si Si1 0.073437 0.662840 0.442815
Si Si2 0.509775 0.925072 0.571783
Si Si3 0.098197 0.162132 0.040236
Si Si4 0.226711 0.959732 0.329547
Si Si5 0.500000 0.393189 0.750000
Si Si6 0.000000 0.109706 0.750000
Si Si7 0.200198 0.042364 0.464644
Si Si8 0.424081 0.748948 0.554599
O O1 0.019105 0.621135 0.494242
O O2 0.245289 0.660744 0.479749
O O3 0.035677 0.706897 0.496207
O O4 0.000000 0.664027 0.250000
O O5 0.500000 0.074646 0.250000
O O6 0.383828 0.953021 0.458574
O O7 0.661073 0.941508 0.572363
O O8 0.103713 0.136616 0.196031
O O9 0.987803 0.138946 0.888363
O O10 0.047834 0.208566 0.031009
O O11 0.133068 0.920117 0.328178
O O12 0.158637 0.999336 0.378253
O O13 0.233538 0.963803 0.152539
O O14 0.419894 0.423563 0.605989
O O15 0.500000 0.744615 0.750000
O O16 0.250000 0.750000 0.500000
#
# Coordination Sequence:
#
# PCOD9301779 Si02
#       8
#     8   8   8   8   4   4   8   8
#     4   9  18  35  64  93 119 161 211 251 298 369
#     4  11  22  41  67  90 123 163 211 256 312 375
#     4  11  21  39  63  92 129 162 209 251 314 376
#     4  12  26  43  63  90 123 159 209 261 315 376
#     4  12  25  40  62  92 128 164 202 258 323 368
#     4  12  23  40  66  90 122 166 206 252 309 384
#     4  12  27  42  63  89 123 162 208 263 317 373
#     4   9  18  33  61  94 123 159 209 258 301 367
#
# _framework density 20.632767000000001
#
# number of rings (size 3 to 8) (size 9 to 14) (size 15 to 20)
#    0.000    1.143    3.571    3.857    2.000    1.143 
#    0.000    0.000    3.143    8.571    0.000    0.000 
#    0.000    0.000    0.000    0.000    0.000    0.000 
#
# Total GULP energy -156354.209692 kJ/mol
# GULP energy per Si atom -5584.078918 kJ/mol
# Density = 2.058581 g / cm^3
# Si number density = 20.632767 Si / 1000 Ang^3
#
#
#
# Elastic Constant Matrix: (Units=GPa)
#
#
# Indices 1 2 3 4 5 6 
#
# 1 22.0401 11.0339 7.4482 0.0000 11.5311 0.0000
# 2 11.0339 166.0006 36.4270 0.0000 -7.5966 0.0000
# 3 7.4482 36.4270 87.0341 0.0000 1.9129 0.0000
# 4 0.0000 0.0000 0.0000 109.7167 0.0000 74.1584
# 5 11.5311 -7.5966 1.9129 0.0000 31.3615 0.0000
# 6 0.0000 0.0000 0.0000 74.1584 0.0000 81.0321
#
#
#
# Elastic Compliance Matrix: (Units=1/GPa)
#
#
# Indices 1 2 3 4 5 6 
#
# 1 0.060726 -0.004484 -0.002809 0.000000 -0.023243 0.000000
# 2 -0.004484 0.007065 -0.002651 0.000000 0.003522 0.000000
# 3 -0.002809 -0.002651 0.012848 0.000000 -0.000393 0.000000
# 4 0.000000 0.000000 0.000000 0.023895 0.000000 -0.021869
# 5 -0.023243 0.003522 -0.000393 0.000000 0.041309 0.000000
# 6 0.000000 0.000000 0.000000 -0.021869 0.000000 0.032354
#
#
# Mechanical properties :
#
#
# Convention : Reuss Voigt Hill
#
# Bulk Modulus (GPa) = 16.46034 42.76588 29.61311
# Shear Modulus (GPa) = 22.90045 59.09976 41.00011
#
# Velocity S-wave (km/s) = 3.33514 5.35778 4.46257
# Velocity P-wave (km/s) = 4.77765 7.68418 6.39815
#
# Compressibility (1/GPa) = 0.06075208
#
# Stress axis : x y z
#
# Youngs Moduli (GPa) = 16.46734 141.54495 77.83192
#
# Poissons Ratio (x) = 0.63462 0.21867
# Poissons Ratio (y) = 0.07383 0.20630
# Poissons Ratio (z) = 0.04626 0.37518
#
# Static dielectric constant tensor:
#      x y z
#    x 1.724740 0.000000 0.019010 
#    y 0.000000 1.774700 0.000000 
#    z 0.019010 0.000000 1.714910 
# 
# From -- ./inp_files/35175.got.cif
#   From: 2010.05.17/outbox.cif.g08.bks.cpg/sg15_18_cif.got.tgz:35175.got - 2010.06.03 18:47:42.
