data_PCOD9301094
_publ_section_title
;
Structure prediction by ZEFSAII (Michael W. Deem and Ramdas Pophale) SiO2 
 PCOD9301094
Probable space group: C 2/C
;
_chemical_formula_sum "Si O2"
_cell_formula_units_Z 48
_cell_length_a 16.082662
_cell_length_b 18.207970
_cell_length_c 13.373746
_cell_angle_alpha 90.000000
_cell_angle_beta 35.445205
_cell_angle_gamma 90.000000
_cell_volume 2271.138910
_symmetry_space_group_name_H-M "C 2/C"
_symmetry_group_IT_number 15
_symmetry_cell_setting 'monoclinic'
loop_
_space_group_symop_operation_xyz
x,y,z
-x,y,1/2-z
-x,-y,-z
x,-y,1/2+z
1/2+x,1/2+y,z
1/2-x,1/2+y,1/2-z
1/2-x,1/2-y,-z
1/2+x,1/2-y,1/2+z
loop_
_atom_site_type_symbol
_atom_site_label
_atom_site_fract_x
_atom_site_fract_y
_atom_site_fract_z
Si Si1 0.534215 0.781046 0.950460
Si Si2 0.651283 0.693073 0.655770
Si Si3 0.500000 0.023284 0.750000
Si Si4 0.647455 0.083287 0.947502
Si Si5 0.749142 0.401195 0.374936
Si Si6 0.500000 0.368604 0.750000
Si Si7 0.203440 0.773916 0.688785
O O1 0.625924 0.732897 0.785628
O O2 0.641431 0.805319 0.934097
O O3 0.464460 0.850888 0.966381
O O4 0.410534 0.727017 0.109683
O O5 0.500000 0.683732 0.750000
O O6 0.750000 0.750000 0.500000
O O7 0.732361 0.617791 0.597973
O O8 0.631021 0.068291 0.668104
O O9 0.564540 0.977109 0.593148
O O10 0.718833 0.067657 0.768490
O O11 0.590938 0.412784 0.577386
O O12 0.771883 0.313029 0.349336
O O13 0.619202 0.317002 0.685926
#
# Coordination Sequence:
#
# PCOD9301094 Si02
#       7
#     8   8   4   8   8   4   8
#     4  11  20  37  64  98 136 163 210 276 346 394
#     4  12  20  35  64  99 136 169 211 275 344 398
#     4  12  27  48  68  90 131 192 242 260 322 400
#     4  11  24  44  68  97 135 179 226 276 325 400
#     4  11  25  43  68  95 135 177 222 276 326 400
#     4  12  23  40  66 104 135 168 220 278 348 402
#     4  11  21  38  66 102 134 164 206 279 350 398
#
# _framework density 21.134771000000001
#
# number of rings (size 3 to 8) (size 9 to 14) (size 15 to 20)
#    0.000    0.667    6.667    2.500    4.667    0.000 
#    1.500    0.833    0.000    0.000    0.000    0.000 
#    0.000    0.000    0.000    0.000    0.000    0.000 
#
# Total GULP energy -134056.899878 kJ/mol
# GULP energy per Si atom -5585.704162 kJ/mol
# Density = 2.108667 g / cm^3
# Si number density = 21.134771 Si / 1000 Ang^3
#
#
#
# Elastic Constant Matrix: (Units=GPa)
#
#
# Indices 1 2 3 4 5 6 
#
# 1 125.3782 27.9490 17.7818 0.0003 -33.0438 0.0000
# 2 27.9490 25.9522 24.1373 0.0002 1.9335 0.0001
# 3 17.7818 24.1373 130.8505 0.0006 12.2198 0.0000
# 4 0.0003 0.0002 0.0006 6.1974 -0.0002 0.8078
# 5 -33.0438 1.9335 12.2198 -0.0002 50.0131 -0.0001
# 6 0.0000 0.0001 0.0000 0.8078 -0.0001 24.0917
#
#
#
# Elastic Compliance Matrix: (Units=1/GPa)
#
#
# Indices 1 2 3 4 5 6 
#
# 1 0.014178 -0.016120 0.000116 0.000000 0.009962 0.000000
# 2 -0.016120 0.064844 -0.008742 -0.000001 -0.011021 0.000000
# 3 0.000116 -0.008742 0.009415 -0.000001 -0.001886 0.000000
# 4 0.000000 -0.000001 -0.000001 0.162066 0.000001 -0.005434
# 5 0.009962 -0.011021 -0.001886 0.000001 0.027464 0.000000
# 6 0.000000 0.000000 0.000000 -0.005434 0.000000 0.041690
#
#
# Mechanical properties :
#
#
# Convention : Reuss Voigt Hill
#
# Bulk Modulus (GPa) = 25.67561 46.87966 36.27764
# Shear Modulus (GPa) = 13.08458 30.21465 21.64961
#
# Velocity S-wave (km/s) = 2.49088 3.78513 3.20403
# Velocity P-wave (km/s) = 4.52189 6.42903 5.55787
#
# Compressibility (1/GPa) = 0.03894747
#
# Stress axis : x y z
#
# Youngs Moduli (GPa) = 70.53006 15.42167 106.21247
#
# Poissons Ratio (x) = 0.24859 -0.01236
# Poissons Ratio (y) = 1.13693 0.92846
# Poissons Ratio (z) = -0.00821 0.13481
#
# Static dielectric constant tensor:
#      x y z
#    x 2.186110 0.000000 0.026430 
#    y 0.000000 1.722030 0.000000 
#    z 0.026430 0.000000 1.820280 
# 
# From -- ./inp_files/48748.got.cif
#   From: 2010.05.17/outbox.cif.g08.bks.cpg/sg15_25_cif.got.tgz:48748.got - 2010.06.03 18:47:42.
