data_PCOD9301456
_publ_section_title
;
Structure prediction by ZEFSAII (Michael W. Deem and Ramdas Pophale) SiO2 
 PCOD9301456
Probable space group: C 2/C
;
_chemical_formula_sum "Si O2"
_cell_formula_units_Z 60
_cell_length_a 22.251695
_cell_length_b 11.438980
_cell_length_c 19.403428
_cell_angle_alpha 90.000000
_cell_angle_beta 36.772236
_cell_angle_gamma 90.000000
_cell_volume 2956.591617
_symmetry_space_group_name_H-M "C 2/C"
_symmetry_group_IT_number 15
_symmetry_cell_setting 'monoclinic'
loop_
_space_group_symop_operation_xyz
x,y,z
-x,y,1/2-z
-x,-y,-z
x,-y,1/2+z
1/2+x,1/2+y,z
1/2-x,1/2+y,1/2-z
1/2-x,1/2-y,-z
1/2+x,1/2-y,1/2+z
loop_
_atom_site_type_symbol
_atom_site_label
_atom_site_fract_x
_atom_site_fract_y
_atom_site_fract_z
Si Si1 0.893478 0.406904 0.663275
Si Si2 0.865373 0.243877 0.910271
Si Si3 0.993711 0.819514 0.495817
Si Si4 0.000000 0.054038 0.750000
Si Si5 0.045829 0.503030 0.137507
Si Si6 0.215009 0.496562 0.875376
Si Si7 0.797588 0.224200 0.113903
Si Si8 0.949745 0.963694 0.654425
O O1 0.960565 0.302971 0.569535
O O2 0.841181 0.469112 0.645712
O O3 0.804279 0.346461 0.788291
O O4 0.961676 0.478404 0.654912
O O5 0.916333 0.369338 0.869713
O O6 0.912357 0.148803 0.817432
O O7 0.750000 0.250000 0.000000
O O8 0.866506 0.191262 0.985569
O O9 0.872906 0.807942 0.605243
O O10 0.009442 0.862676 0.558817
O O11 0.035775 0.920883 0.407013
O O12 0.998760 0.979416 0.819295
O O13 0.000000 0.446535 0.250000
O O14 0.142909 0.456746 0.005345
O O15 0.221122 0.637901 0.873016
O O16 0.328953 0.449237 0.774331
#
# Coordination Sequence:
#
# PCOD9301456 Si02
#       8
#     8   8   8   4   8   8   8   8
#     4  12  22  39  63  86 121 161 197 241 305 351
#     4  11  21  32  54  86 122 152 184 235 304 355
#     4  11  22  40  59  85 123 159 195 248 293 351
#     4  12  20  36  60  84 116 164 190 244 302 352
#     4  11  22  36  55  89 125 153 190 243 302 360
#     4  11  23  37  62  92 115 158 203 242 291 367
#     4  11  21  36  58  89 119 156 196 244 290 354
#     4  11  23  39  60  90 120 153 207 242 297 357
#
# _framework density 20.293638000000001
#
# number of rings (size 3 to 8) (size 9 to 14) (size 15 to 20)
#    0.000    0.800    7.333    2.800    0.000    0.000 
#    0.000    0.000    1.467    0.800    0.000    0.000 
#    0.000    0.000    0.000    0.000    0.000    0.000 
#
# Total GULP energy -167237.293498 kJ/mol
# GULP energy per Si atom -5574.576450 kJ/mol
# Density = 2.024745 g / cm^3
# Si number density = 20.293638 Si / 1000 Ang^3
#
#
#
# Elastic Constant Matrix: (Units=GPa)
#
#
# Indices 1 2 3 4 5 6 
#
# 1 59.0059 -1.7221 -7.0860 0.0000 -1.9682 0.0000
# 2 -1.7221 4.3349 4.4702 0.0000 3.7253 0.0000
# 3 -7.0860 4.4702 77.0787 0.0000 -11.5645 0.0000
# 4 0.0000 0.0000 0.0000 17.7546 0.0000 -0.1696
# 5 -1.9682 3.7253 -11.5645 0.0000 40.6476 0.0000
# 6 0.0000 0.0000 0.0000 -0.1696 0.0000 21.0873
#
#
#
# Elastic Compliance Matrix: (Units=1/GPa)
#
#
# Indices 1 2 3 4 5 6 
#
# 1 0.017284 0.004678 0.001440 0.000000 0.000818 0.000000
# 2 0.004678 0.280671 -0.020550 0.000000 -0.031343 0.000000
# 3 0.001440 -0.020550 0.015242 0.000000 0.006289 0.000000
# 4 0.000000 0.000000 0.000000 0.056328 0.000000 0.000453
# 5 0.000818 -0.031343 0.006289 0.000000 0.029303 0.000000
# 6 0.000000 0.000000 0.000000 0.000453 0.000000 0.047426
#
#
# Mechanical properties :
#
#
# Convention : Reuss Voigt Hill
#
# Bulk Modulus (GPa) = 3.51700 14.63821 9.07760
# Shear Modulus (GPa) = 8.77354 25.54840 17.16097
#
# Velocity S-wave (km/s) = 2.08151 3.55200 2.91113
# Velocity P-wave (km/s) = 2.74112 4.90419 3.97271
#
# Compressibility (1/GPa) = 0.28433345
#
# Stress axis : x y z
#
# Youngs Moduli (GPa) = 57.85618 3.56289 65.60978
#
# Poissons Ratio (x) = -0.01667 -0.09450
# Poissons Ratio (y) = -0.27065 1.34830
# Poissons Ratio (z) = -0.08334 0.07322
#
# Static dielectric constant tensor:
#      x y z
#    x 1.585480 0.000000 -0.071710 
#    y 0.000000 1.714230 0.000000 
#    z -0.071710 0.000000 1.763760 
# 
# From -- ./inp_files/215201.got.cif
#   From: 2010.05.17/outbox.cif.g08.bks.cpg/sg15_108_cif.got.tgz:215201.got - 2010.06.03 18:47:42.
