data_PCOD9301649
_publ_section_title
;
Structure prediction by ZEFSAII (Michael W. Deem and Ramdas Pophale) SiO2 
 PCOD9301649
Probable space group: C 2/C
;
_chemical_formula_sum "Si O2"
_cell_formula_units_Z 44
_cell_length_a 8.897413
_cell_length_b 16.464011
_cell_length_c 14.164522
_cell_angle_alpha 90.000000
_cell_angle_beta 76.389510
_cell_angle_gamma 90.000000
_cell_volume 2016.651792
_symmetry_space_group_name_H-M "C 2/C"
_symmetry_group_IT_number 15
_symmetry_cell_setting 'monoclinic'
loop_
_space_group_symop_operation_xyz
x,y,z
-x,y,1/2-z
-x,-y,-z
x,-y,1/2+z
1/2+x,1/2+y,z
1/2-x,1/2+y,1/2-z
1/2-x,1/2-y,-z
1/2+x,1/2-y,1/2+z
loop_
_atom_site_type_symbol
_atom_site_label
_atom_site_fract_x
_atom_site_fract_y
_atom_site_fract_z
Si Si1 0.500000 0.237681 0.250000
Si Si2 0.262434 0.992066 0.630939
Si Si3 0.792496 0.148355 0.121708
Si Si4 0.500000 0.625604 0.250000
Si Si5 0.000000 0.544467 0.750000
Si Si6 0.442740 0.636564 0.910873
Si Si7 0.755358 0.042133 0.580382
O O1 0.640677 0.184205 0.191670
O O2 0.472931 0.297969 0.166331
O O3 0.406567 0.998338 0.680268
O O4 0.171972 0.078061 0.631949
O O5 0.138126 0.930591 0.691941
O O6 0.301334 0.962949 0.519131
O O7 0.931006 0.171912 0.171490
O O8 0.773503 0.050684 0.114115
O O9 0.841205 0.174142 0.009738
O O10 0.864252 0.585915 0.831157
O O11 0.576185 0.581727 0.937904
#
# Coordination Sequence:
#
# PCOD9301649 Si02
#       7
#     4   8   8   4   4   8   8
#     4  12  26  42  66 101 145 178 218 278 354 400
#     4  11  21  37  66 104 127 175 228 287 328 393
#     4  11  23  41  67 101 134 178 225 283 337 408
#     4  12  19  40  69  90 130 168 232 274 337 390
#     4  12  21  32  57 107 147 152 210 294 345 376
#     4  11  22  46  70  95 135 187 227 273 339 418
#     4  11  21  40  68 101 134 174 234 286 330 394
#
# _framework density 21.818342000000001
#
# number of rings (size 3 to 8) (size 9 to 14) (size 15 to 20)
#    0.000    0.727    5.455    4.364    0.000    0.000 
#    0.000    4.545    0.000    0.000    0.000    0.000 
#    0.000    0.000    0.000    0.000    0.000    0.000 
#
# Total GULP energy -122891.437870 kJ/mol
# GULP energy per Si atom -5585.974449 kJ/mol
# Density = 2.176868 g / cm^3
# Si number density = 21.818342 Si / 1000 Ang^3
#
#
#
# Elastic Constant Matrix: (Units=GPa)
#
#
# Indices 1 2 3 4 5 6 
#
# 1 134.2604 29.2230 53.1422 0.0000 5.5837 0.0000
# 2 29.2230 53.9775 36.8550 0.0000 -5.0249 0.0000
# 3 53.1422 36.8550 150.6659 0.0000 -13.3822 0.0000
# 4 0.0000 0.0000 0.0000 21.4385 0.0000 -7.8428
# 5 5.5837 -5.0249 -13.3822 0.0000 53.4138 0.0000
# 6 0.0000 0.0000 0.0000 -7.8428 0.0000 29.3305
#
#
#
# Elastic Compliance Matrix: (Units=1/GPa)
#
#
# Indices 1 2 3 4 5 6 
#
# 1 0.009314 -0.003437 -0.002618 0.000000 -0.001953 0.000000
# 2 -0.003437 0.023538 -0.004415 0.000000 0.001467 0.000000
# 3 -0.002618 -0.004415 0.008824 0.000000 0.002069 0.000000
# 4 0.000000 0.000000 0.000000 0.051703 0.000000 0.013825
# 5 -0.001953 0.001467 0.002069 0.000000 0.019582 0.000000
# 6 0.000000 0.000000 0.000000 0.013825 0.000000 0.037791
#
#
# Mechanical properties :
#
#
# Convention : Reuss Voigt Hill
#
# Bulk Modulus (GPa) = 48.22403 64.14934 56.18669
# Shear Modulus (GPa) = 27.99495 35.48215 31.73855
#
# Velocity S-wave (km/s) = 3.58591 4.03706 3.81816
# Velocity P-wave (km/s) = 6.26862 7.15513 6.72649
#
# Compressibility (1/GPa) = 0.02073655
#
# Stress axis : x y z
#
# Youngs Moduli (GPa) = 107.36943 42.48434 113.32263
#
# Poissons Ratio (x) = 0.14601 0.29666
# Poissons Ratio (y) = 0.36900 0.50035
# Poissons Ratio (z) = 0.28108 0.18758
#
# Static dielectric constant tensor:
#      x y z
#    x 1.844280 0.000000 -0.001260 
#    y 0.000000 1.815810 0.000000 
#    z -0.001260 0.000000 1.846860 
# 
# From -- ./inp_files/134326.got.cif
#   From: 2010.05.17/outbox.cif.g08.bks.cpg/sg15_68_cif.got.tgz:134326.got - 2010.06.03 18:47:42.
