data_PCOD9301458
_publ_section_title
;
Structure prediction by ZEFSAII (Michael W. Deem and Ramdas Pophale) SiO2 
 PCOD9301458
Probable space group: C 2/C
;
_chemical_formula_sum "Si O2"
_cell_formula_units_Z 32
_cell_length_a 9.342057
_cell_length_b 9.764010
_cell_length_c 19.239637
_cell_angle_alpha 90.000000
_cell_angle_beta 127.802897
_cell_angle_gamma 90.000000
_cell_volume 1386.637266
_symmetry_space_group_name_H-M "C 2/C"
_symmetry_group_IT_number 15
_symmetry_cell_setting 'monoclinic'
loop_
_space_group_symop_operation_xyz
x,y,z
-x,y,1/2-z
-x,-y,-z
x,-y,1/2+z
1/2+x,1/2+y,z
1/2-x,1/2+y,1/2-z
1/2-x,1/2-y,-z
1/2+x,1/2-y,1/2+z
loop_
_atom_site_type_symbol
_atom_site_label
_atom_site_fract_x
_atom_site_fract_y
_atom_site_fract_z
Si Si1 0.678303 0.114169 0.122192
Si Si2 0.796287 0.590258 0.212912
Si Si3 0.870476 0.312589 0.436770
Si Si4 0.525361 0.561243 0.837275
O O1 0.689685 0.153510 0.205494
O O2 0.874552 0.086188 0.146284
O O3 0.599386 0.956183 0.096791
O O4 0.546067 0.202989 0.035934
O O5 0.688224 0.688638 0.128719
O O6 0.664239 0.460869 0.183446
O O7 0.000000 0.559629 0.250000
O O8 0.682633 0.352220 0.420491
O O9 0.500000 0.614983 0.750000
#
# Coordination Sequence:
#
# PCOD9301458 Si02
#       4
#     8   8   8   8
#     4   8  19  39  58  85 115 155 196 228 298 353
#     4  11  21  32  61  89 113 150 201 235 284 349
#     4   9  18  38  65  76 120 160 181 246 293 329
#     4   8  16  35  57  78 115 154 186 231 289 345
#
# _framework density 23.077411000000001
#
# number of rings (size 3 to 8) (size 9 to 14) (size 15 to 20)
#    1.500    1.500    0.000    0.750    0.000    2.000 
#    0.000    5.000    0.000    0.000    0.000    0.000 
#    0.000    0.000    0.000    0.000    0.000    0.000 
#
# Total GULP energy -89142.026285 kJ/mol
# GULP energy per Si atom -5571.376643 kJ/mol
# Density = 2.302489 g / cm^3
# Si number density = 23.077411 Si / 1000 Ang^3
#
#
#
# Elastic Constant Matrix: (Units=GPa)
#
#
# Indices 1 2 3 4 5 6 
#
# 1 114.8872 28.8120 32.7172 0.0000 14.7778 0.0000
# 2 28.8120 53.7726 16.1008 0.0000 -2.5138 0.0000
# 3 32.7172 16.1008 128.8033 0.0000 23.9687 0.0000
# 4 0.0000 0.0000 0.0000 30.6042 0.0000 3.1776
# 5 14.7778 -2.5138 23.9687 0.0000 19.1512 0.0000
# 6 0.0000 0.0000 0.0000 3.1776 0.0000 11.9786
#
#
#
# Elastic Compliance Matrix: (Units=1/GPa)
#
#
# Indices 1 2 3 4 5 6 
#
# 1 0.011671 -0.006572 -0.000400 0.000000 -0.009368 0.000000
# 2 -0.006572 0.023824 -0.003695 0.000000 0.012822 0.000000
# 3 -0.000400 -0.003695 0.010898 0.000000 -0.013816 0.000000
# 4 0.000000 0.000000 0.000000 0.033601 0.000000 -0.008913
# 5 -0.009368 0.012822 -0.013816 0.000000 0.078420 0.000000
# 6 0.000000 0.000000 0.000000 -0.008913 0.000000 0.085847
#
#
# Mechanical properties :
#
#
# Convention : Reuss Voigt Hill
#
# Bulk Modulus (GPa) = 39.90372 50.30258 45.10315
# Shear Modulus (GPa) = 18.25174 27.00235 22.62704
#
# Velocity S-wave (km/s) = 2.81533 3.42435 3.13467
# Velocity P-wave (km/s) = 5.28175 6.12205 5.71736
#
# Compressibility (1/GPa) = 0.02506032
#
# Stress axis : x y z
#
# Youngs Moduli (GPa) = 85.68125 41.97478 91.75819
#
# Poissons Ratio (x) = 0.27585 0.03668
# Poissons Ratio (y) = 0.56308 0.33903
# Poissons Ratio (z) = 0.03425 0.15509
#
# Static dielectric constant tensor:
#      x y z
#    x 1.902360 0.000000 0.015140 
#    y 0.000000 1.946790 0.000000 
#    z 0.015140 0.000000 1.882930 
# 
# From -- ./inp_files/230078.got.cif
#   From: 2010.05.17/outbox.cif.g08.bks.cpg/sg15_116_cif.got.tgz:230078.got - 2010.06.03 18:47:42.
