data_PCOD9301497
_publ_section_title
;
Structure prediction by ZEFSAII (Michael W. Deem and Ramdas Pophale) SiO2 
 PCOD9301497
Probable space group: C 2/C
;
_chemical_formula_sum "Si O2"
_cell_formula_units_Z 40
_cell_length_a 12.153458
_cell_length_b 19.124327
_cell_length_c 10.986558
_cell_angle_alpha 90.000000
_cell_angle_beta 41.244061
_cell_angle_gamma 90.000000
_cell_volume 1683.486333
_symmetry_space_group_name_H-M "C 2/C"
_symmetry_group_IT_number 15
_symmetry_cell_setting 'monoclinic'
loop_
_space_group_symop_operation_xyz
x,y,z
-x,y,1/2-z
-x,-y,-z
x,-y,1/2+z
1/2+x,1/2+y,z
1/2-x,1/2+y,1/2-z
1/2-x,1/2-y,-z
1/2+x,1/2-y,1/2+z
loop_
_atom_site_type_symbol
_atom_site_label
_atom_site_fract_x
_atom_site_fract_y
_atom_site_fract_z
Si Si1 0.180161 0.983699 0.163155
Si Si2 0.236321 0.612989 0.539082
Si Si3 0.616220 0.622934 0.325627
Si Si4 0.652924 0.849459 0.359144
Si Si5 0.011106 0.227478 0.884577
O O1 0.279892 0.917877 0.128472
O O2 0.000000 0.967181 0.250000
O O3 0.157440 0.040003 0.293096
O O4 0.279350 0.031586 0.984040
O O5 0.424206 0.621491 0.438402
O O6 0.265295 0.649923 0.383636
O O7 0.115779 0.634141 0.749132
O O8 0.610580 0.670120 0.449651
O O9 0.806985 0.796465 0.229258
O O10 0.520232 0.805701 0.544153
O O11 0.000000 0.223235 0.750000
#
# Coordination Sequence:
#
# PCOD9301497 Si02
#       5
#     8   8   8   8   8
#     4   8  16  32  56  83 103 134 185 232 262 297
#     4   7  15  32  54  85  99 133 182 230 268 285
#     4   7  15  34  52  82 104 131 187 225 263 299
#     4  11  21  35  57  82 112 140 176 221 271 324
#     4  11  23  35  52  81 116 146 172 216 274 324
#
# _framework density 23.760217000000001
#
# number of rings (size 3 to 8) (size 9 to 14) (size 15 to 20)
#    1.200    2.000    0.000    1.200    0.000    9.600 
#    0.000    0.000    0.000    4.800    0.000    0.000 
#    0.000    0.000    0.000    0.000    0.000    0.000 
#
# Total GULP energy -111470.755632 kJ/mol
# GULP energy per Si atom -5573.537782 kJ/mol
# Density = 2.370614 g / cm^3
# Si number density = 23.760217 Si / 1000 Ang^3
#
#
#
# Elastic Constant Matrix: (Units=GPa)
#
#
# Indices 1 2 3 4 5 6 
#
# 1 108.7451 91.2411 49.3396 -0.0001 38.1140 0.0002
# 2 91.2411 125.3095 57.7049 -0.0006 39.5757 -0.0001
# 3 49.3396 57.7049 98.4304 -0.0015 41.8728 -0.0001
# 4 -0.0001 -0.0006 -0.0015 126.4576 0.0011 37.0941
# 5 38.1140 39.5757 41.8728 0.0011 37.5612 0.0000
# 6 0.0002 -0.0001 -0.0001 37.0941 0.0000 26.8344
#
#
#
# Elastic Compliance Matrix: (Units=1/GPa)
#
#
# Indices 1 2 3 4 5 6 
#
# 1 0.025761 -0.015861 0.000754 0.000000 -0.010269 -0.000001
# 2 -0.015861 0.022259 -0.003744 0.000000 -0.003184 0.000000
# 3 0.000754 -0.003744 0.020206 0.000001 -0.019346 -0.000001
# 4 0.000000 0.000000 0.000001 0.013301 -0.000001 -0.018387
# 5 -0.010269 -0.003184 -0.019346 -0.000001 0.061965 0.000002
# 6 -0.000001 0.000000 -0.000001 -0.018387 0.000002 0.062682
#
#
# Mechanical properties :
#
#
# Convention : Reuss Voigt Hill
#
# Bulk Modulus (GPa) = 32.76150 81.00625 56.88388
# Shear Modulus (GPa) = 19.68097 47.11728 33.39912
#
# Velocity S-wave (km/s) = 2.88117 4.45796 3.75330
# Velocity P-wave (km/s) = 4.98864 7.78878 6.54032
#
# Compressibility (1/GPa) = 0.03052363
#
# Stress axis : x y z
#
# Youngs Moduli (GPa) = 38.81817 44.92525 49.48921
#
# Poissons Ratio (x) = 0.71258 -0.03732
# Poissons Ratio (y) = 0.61571 0.18529
# Poissons Ratio (z) = -0.02927 0.16821
#
# Static dielectric constant tensor:
#      x y z
#    x 1.831040 0.000000 0.005460 
#    y 0.000000 1.905920 0.000000 
#    z 0.005460 0.000000 1.992860 
# 
# From -- ./inp_files/162881.got.cif
#   From: 2010.05.17/outbox.cif.g08.bks.cpg/sg15_82_cif.got.tgz:162881.got - 2010.06.03 18:47:42.
