data_PCOD9301171
_publ_section_title
;
Structure prediction by ZEFSAII (Michael W. Deem and Ramdas Pophale) SiO2 
 PCOD9301171
Probable space group: C 2/C
;
_chemical_formula_sum "Si O2"
_cell_formula_units_Z 48
_cell_length_a 21.642982
_cell_length_b 16.016129
_cell_length_c 10.497321
_cell_angle_alpha 90.000000
_cell_angle_beta 143.450286
_cell_angle_gamma 90.000000
_cell_volume 2166.953142
_symmetry_space_group_name_H-M "C 2/C"
_symmetry_group_IT_number 15
_symmetry_cell_setting 'monoclinic'
loop_
_space_group_symop_operation_xyz
x,y,z
-x,y,1/2-z
-x,-y,-z
x,-y,1/2+z
1/2+x,1/2+y,z
1/2-x,1/2+y,1/2-z
1/2-x,1/2-y,-z
1/2+x,1/2-y,1/2+z
loop_
_atom_site_type_symbol
_atom_site_label
_atom_site_fract_x
_atom_site_fract_y
_atom_site_fract_z
Si Si1 0.306427 0.278506 0.224248
Si Si2 0.180809 0.042351 0.833036
Si Si3 0.901080 0.259034 0.492152
Si Si4 0.982536 0.646063 0.527931
Si Si5 0.112270 0.936221 0.494175
Si Si6 0.084777 0.487396 0.790205
O O1 0.359115 0.365101 0.269690
O O2 0.387443 0.208403 0.408159
O O3 0.250000 0.250000 0.000000
O O4 0.209252 0.299102 0.154050
O O5 0.182116 0.034488 0.988953
O O6 0.119187 0.979700 0.641706
O O7 0.297772 0.027331 0.977982
O O8 0.874835 0.161610 0.459539
O O9 0.000000 0.272152 0.750000
O O10 0.943102 0.293977 0.430013
O O11 0.930925 0.572107 0.357921
O O12 0.059436 0.586147 0.735661
O O13 0.000000 0.950831 0.250000
O O14 0.000000 0.456244 0.750000
#
# Coordination Sequence:
#
# PCOD9301171 Si02
#       6
#     8   8   8   8   8   8
#     4  12  20  38  66  97 128 179 233 274 329 410
#     4  12  25  43  71  98 136 181 230 278 346 408
#     4  11  20  38  66  93 125 172 230 277 322 405
#     4  11  23  40  63  98 132 169 231 286 336 396
#     4  11  25  44  69  98 134 176 228 283 335 407
#     4  11  25  39  65  98 137 175 217 289 353 404
#
# _framework density 22.150918000000001
#
# number of rings (size 3 to 8) (size 9 to 14) (size 15 to 20)
#    0.000    0.667    5.000    3.000    9.333    0.000 
#    0.000    3.333    0.000    0.000    0.000    0.000 
#    0.000    0.000    0.000    0.000    0.000    0.000 
#
# Total GULP energy -133841.756334 kJ/mol
# GULP energy per Si atom -5576.739847 kJ/mol
# Density = 2.210050 g / cm^3
# Si number density = 22.150918 Si / 1000 Ang^3
#
#
#
# Elastic Constant Matrix: (Units=GPa)
#
#
# Indices 1 2 3 4 5 6 
#
# 1 87.3906 23.4849 9.1932 0.0000 17.1728 0.0000
# 2 23.4849 99.4604 22.1200 0.0000 -22.7174 0.0000
# 3 9.1932 22.1200 20.1373 0.0000 7.3903 0.0000
# 4 0.0000 0.0000 0.0000 33.4387 0.0000 -5.5294
# 5 17.1728 -22.7174 7.3903 0.0000 25.9883 0.0000
# 6 0.0000 0.0000 0.0000 -5.5294 0.0000 28.3439
#
#
#
# Elastic Compliance Matrix: (Units=1/GPa)
#
#
# Indices 1 2 3 4 5 6 
#
# 1 0.021840 -0.020155 0.026720 0.000000 -0.039648 0.000000
# 2 -0.020155 0.047744 -0.070841 0.000000 0.075199 0.000000
# 3 0.026720 -0.070841 0.161318 0.000000 -0.125455 0.000000
# 4 0.000000 0.000000 0.000000 0.030902 0.000000 0.006029
# 5 -0.039648 0.075199 -0.125455 0.000000 0.166088 0.000000
# 6 0.000000 0.000000 0.000000 0.006029 0.000000 0.036457
#
#
# Mechanical properties :
#
#
# Convention : Reuss Voigt Hill
#
# Bulk Modulus (GPa) = 9.77047 35.17607 22.47327
# Shear Modulus (GPa) = 7.97425 27.70020 17.83722
#
# Velocity S-wave (km/s) = 1.89941 3.54011 2.84079
# Velocity P-wave (km/s) = 3.03823 5.71178 4.57467
#
# Compressibility (1/GPa) = 0.10234917
#
# Stress axis : x y z
#
# Youngs Moduli (GPa) = 45.78845 20.94487 6.19893
#
# Poissons Ratio (x) = 0.42215 -0.16564
# Poissons Ratio (y) = 0.92288 0.43914
# Poissons Ratio (z) = -1.22347 1.48376
#
# Static dielectric constant tensor:
#      x y z
#    x 1.934050 0.000000 -0.011760 
#    y 0.000000 1.833220 0.000000 
#    z -0.011760 0.000000 1.858490 
# 
# From -- ./inp_files/112982.got.cif
#   From: 2010.05.17/outbox.cif.g08.bks.cpg/sg15_57_cif.got.tgz:112982.got - 2010.06.03 18:47:42.
