data_PCOD9301244
_publ_section_title
;
Structure prediction by ZEFSAII (Michael W. Deem and Ramdas Pophale) SiO2 
 PCOD9301244
Probable space group: C 2/C
;
_chemical_formula_sum "Si O2"
_cell_formula_units_Z 48
_cell_length_a 10.622891
_cell_length_b 13.175400
_cell_length_c 15.457224
_cell_angle_alpha 90.000000
_cell_angle_beta 56.682125
_cell_angle_gamma 90.000000
_cell_volume 1807.820039
_symmetry_space_group_name_H-M "C 2/C"
_symmetry_group_IT_number 15
_symmetry_cell_setting 'monoclinic'
loop_
_space_group_symop_operation_xyz
x,y,z
-x,y,1/2-z
-x,-y,-z
x,-y,1/2+z
1/2+x,1/2+y,z
1/2-x,1/2+y,1/2-z
1/2-x,1/2-y,-z
1/2+x,1/2-y,1/2+z
loop_
_atom_site_type_symbol
_atom_site_label
_atom_site_fract_x
_atom_site_fract_y
_atom_site_fract_z
Si Si1 0.186993 0.121717 0.780006
Si Si2 0.669351 0.115944 0.589486
Si Si3 0.183653 0.793818 0.882835
Si Si4 0.430952 0.647000 0.370013
Si Si5 0.538007 0.781907 0.611299
Si Si6 0.409820 0.983584 0.622899
O O1 0.232654 0.102255 0.861275
O O2 0.283168 0.215494 0.705892
O O3 0.020734 0.170357 0.840159
O O4 0.245828 0.031231 0.698041
O O5 0.613399 0.232872 0.609155
O O6 0.779291 0.096294 0.465449
O O7 0.523746 0.045018 0.642595
O O8 0.341607 0.824977 0.866039
O O9 0.063418 0.871542 0.890515
O O10 0.109861 0.732385 0.990121
O O11 0.500000 0.625725 0.250000
O O12 0.410179 0.865630 0.646345
O O13 0.500000 0.000000 0.500000
#
# Coordination Sequence:
#
# PCOD9301244 Si02
#       6
#     8   8   8   8   8   8
#     4  12  23  44  75 112 148 204 257 314 386 465
#     4  11  23  39  71 108 147 192 262 308 376 462
#     4  11  22  44  74 109 149 202 254 312 388 453
#     4  11  20  39  70 107 144 201 249 305 378 456
#     4  11  26  46  78 112 155 203 256 317 396 462
#     4  12  25  47  76 115 150 206 264 318 388 467
#
# _framework density 26.551314000000001
#
# number of rings (size 3 to 8) (size 9 to 14) (size 15 to 20)
#    0.000    0.667    6.667    1.000    2.333    2.667 
#    0.000    0.833   14.667    4.000    0.000    0.000 
#    0.000    0.000    0.000    0.000    0.000    0.000 
#
# Total GULP energy -134415.953249 kJ/mol
# GULP energy per Si atom -5600.664719 kJ/mol
# Density = 2.649088 g / cm^3
# Si number density = 26.551314 Si / 1000 Ang^3
#
#
#
# Elastic Constant Matrix: (Units=GPa)
#
#
# Indices 1 2 3 4 5 6 
#
# 1 101.7607 24.4831 34.3472 0.0000 5.2854 0.0000
# 2 24.4831 83.9203 42.6632 0.0000 -11.9537 0.0000
# 3 34.3472 42.6632 186.4016 0.0000 9.2048 0.0000
# 4 0.0000 0.0000 0.0000 36.2849 0.0000 -14.1523
# 5 5.2854 -11.9537 9.2048 0.0000 47.1667 0.0000
# 6 0.0000 0.0000 0.0000 -14.1523 0.0000 33.6882
#
#
#
# Elastic Compliance Matrix: (Units=1/GPa)
#
#
# Indices 1 2 3 4 5 6 
#
# 1 0.011028 -0.002792 -0.001310 0.000000 -0.001688 0.000000
# 2 -0.002792 0.015008 -0.003154 0.000000 0.004732 0.000000
# 3 -0.001310 -0.003154 0.006422 0.000000 -0.001906 0.000000
# 4 0.000000 0.000000 0.000000 0.032960 0.000000 0.013847
# 5 -0.001688 0.004732 -0.001906 0.000000 0.022962 0.000000
# 6 0.000000 0.000000 0.000000 0.013847 0.000000 0.035501
#
#
# Mechanical properties :
#
#
# Convention : Reuss Voigt Hill
#
# Bulk Modulus (GPa) = 55.72043 63.89662 59.80853
# Shear Modulus (GPa) = 34.63178 41.46725 38.04951
#
# Velocity S-wave (km/s) = 3.61547 3.95622 3.78968
# Velocity P-wave (km/s) = 6.20164 6.70720 6.45937
#
# Compressibility (1/GPa) = 0.01794674
#
# Stress axis : x y z
#
# Youngs Moduli (GPa) = 90.67442 66.63018 155.71076
#
# Poissons Ratio (x) = 0.18603 0.20395
# Poissons Ratio (y) = 0.25317 0.49115
# Poissons Ratio (z) = 0.11876 0.21017
#
# Static dielectric constant tensor:
#      x y z
#    x 2.133680 0.000000 -0.035840 
#    y 0.000000 2.026900 0.000000 
#    z -0.035840 0.000000 2.077650 
# 
# From -- ./inp_files/205281.got.cif
#   From: 2010.05.17/outbox.cif.g08.bks.cpg/sg15_103_cif.got.tgz:205281.got - 2010.06.03 18:47:42.
