data_PCOD9301092
_publ_section_title
;
Structure prediction by ZEFSAII (Michael W. Deem and Ramdas Pophale) SiO2 
 PCOD9301092
Probable space group: C 2/C
;
_chemical_formula_sum "Si O2"
_cell_formula_units_Z 32
_cell_length_a 25.388586
_cell_length_b 7.027849
_cell_length_c 12.559901
_cell_angle_alpha 90.000000
_cell_angle_beta 40.410542
_cell_angle_gamma 90.000000
_cell_volume 1452.768390
_symmetry_space_group_name_H-M "C 2/C"
_symmetry_group_IT_number 15
_symmetry_cell_setting 'monoclinic'
loop_
_space_group_symop_operation_xyz
x,y,z
-x,y,1/2-z
-x,-y,-z
x,-y,1/2+z
1/2+x,1/2+y,z
1/2-x,1/2+y,1/2-z
1/2-x,1/2-y,-z
1/2+x,1/2-y,1/2+z
loop_
_atom_site_type_symbol
_atom_site_label
_atom_site_fract_x
_atom_site_fract_y
_atom_site_fract_z
Si Si1 0.209637 0.986194 0.109615
Si Si2 0.571027 0.237171 0.868703
Si Si3 0.608840 0.192398 0.357165
Si Si4 0.648242 0.760327 0.038640
O O1 0.139017 0.104442 0.284239
O O2 0.196961 0.078089 0.012082
O O3 0.180170 0.772729 0.172999
O O4 0.293658 0.059044 0.028059
O O5 0.573209 0.220845 0.736021
O O6 0.600414 0.034731 0.866953
O O7 0.479112 0.269815 0.045811
O O8 0.626777 0.252947 0.449906
#
# Coordination Sequence:
#
# PCOD9301092 Si02
#       4
#     8   8   8   8
#     4   9  21  38  54  86 116 145 197 235 276 355
#     4   9  21  39  55  88 110 146 200 235 280 361
#     4  11  20  37  64  76 120 156 181 244 296 326
#     4   9  21  38  55  86 118 146 197 237 279 355
#
# _framework density 22.026910999999998
#
# number of rings (size 3 to 8) (size 9 to 14) (size 15 to 20)
#    1.500    1.000    0.000    1.500    3.500    1.000 
#    4.500    0.000    5.500    0.000    0.000    0.000 
#    0.000    0.000    0.000    0.000    0.000    0.000 
#
# Total GULP energy -89195.730410 kJ/mol
# GULP energy per Si atom -5574.733151 kJ/mol
# Density = 2.197678 g / cm^3
# Si number density = 22.026911 Si / 1000 Ang^3
#
#
#
# Elastic Constant Matrix: (Units=GPa)
#
#
# Indices 1 2 3 4 5 6 
#
# 1 49.4136 10.0808 14.2250 0.0000 6.8299 0.0000
# 2 10.0808 58.1414 -8.8767 0.0009 4.6395 -0.0002
# 3 14.2250 -8.8767 78.0706 0.0004 -8.4962 -0.0001
# 4 0.0000 0.0009 0.0004 33.7256 -0.0003 -10.6649
# 5 6.8299 4.6395 -8.4962 -0.0003 39.5862 0.0001
# 6 0.0000 -0.0002 -0.0001 -10.6649 0.0001 16.6464
#
#
#
# Elastic Compliance Matrix: (Units=1/GPa)
#
#
# Indices 1 2 3 4 5 6 
#
# 1 0.023303 -0.004474 -0.005258 0.000000 -0.004625 0.000000
# 2 -0.004474 0.018470 0.002830 -0.000001 -0.000785 0.000000
# 3 -0.005258 0.002830 0.014490 0.000000 0.003685 0.000000
# 4 0.000000 -0.000001 0.000000 0.037185 0.000000 0.023823
# 5 -0.004625 -0.000785 0.003685 0.000000 0.026942 0.000000
# 6 0.000000 0.000000 0.000000 0.023823 0.000000 0.075336
#
#
# Mechanical properties :
#
#
# Convention : Reuss Voigt Hill
#
# Bulk Modulus (GPa) = 23.55267 24.05379 23.80323
# Shear Modulus (GPa) = 22.35311 29.33807 25.84559
#
# Velocity S-wave (km/s) = 3.18906 3.65351 3.42916
# Velocity P-wave (km/s) = 4.92707 5.36110 5.14866
#
# Compressibility (1/GPa) = 0.04245804
#
# Stress axis : x y z
#
# Youngs Moduli (GPa) = 42.91300 54.14221 69.01423
#
# Poissons Ratio (x) = 0.24224 0.36287
# Poissons Ratio (y) = 0.19200 -0.19529
# Poissons Ratio (z) = 0.22563 -0.15321
#
# Static dielectric constant tensor:
#      x y z
#    x 1.740300 0.000000 -0.044510 
#    y 0.000000 1.878600 0.000000 
#    z -0.044510 0.000000 1.845620 
# 
# From -- ./inp_files/109286.got.cif
#   From: 2010.05.17/outbox.cif.g08.bks.cpg/sg15_55_cif.got.tgz:109286.got - 2010.06.03 18:47:42.
