data_PCOD9301466
_publ_section_title
;
Structure prediction by ZEFSAII (Michael W. Deem and Ramdas Pophale) SiO2 
 PCOD9301466
Probable space group: C 2/C
;
_chemical_formula_sum "Si O2"
_cell_formula_units_Z 52
_cell_length_a 8.685518
_cell_length_b 11.012292
_cell_length_c 29.280652
_cell_angle_alpha 90.000000
_cell_angle_beta 139.689436
_cell_angle_gamma 90.000000
_cell_volume 1811.806181
_symmetry_space_group_name_H-M "C 2/C"
_symmetry_group_IT_number 15
_symmetry_cell_setting 'monoclinic'
loop_
_space_group_symop_operation_xyz
x,y,z
-x,y,1/2-z
-x,-y,-z
x,-y,1/2+z
1/2+x,1/2+y,z
1/2-x,1/2+y,1/2-z
1/2-x,1/2-y,-z
1/2+x,1/2-y,1/2+z
loop_
_atom_site_type_symbol
_atom_site_label
_atom_site_fract_x
_atom_site_fract_y
_atom_site_fract_z
Si Si1 0.196045 0.043926 0.139360
Si Si2 0.276711 0.032973 0.566879
Si Si3 0.645101 0.346755 0.713941
Si Si4 0.000000 0.843949 0.250000
Si Si5 0.153461 0.670812 0.141808
Si Si6 0.186989 0.202533 0.882076
Si Si7 0.360127 0.109357 0.493761
O O1 0.298859 0.949748 0.126064
O O2 0.240974 0.045994 0.203183
O O3 0.305138 0.169361 0.143006
O O4 0.912693 0.071812 0.074808
O O5 0.439377 0.922228 0.584939
O O6 0.351409 0.133197 0.547557
O O7 0.000000 0.000000 0.500000
O O8 0.781717 0.229239 0.724773
O O9 0.723296 0.371010 0.783092
O O10 0.359561 0.326831 0.651003
O O11 0.128730 0.891217 0.326698
O O12 0.025097 0.795039 0.128845
O O13 0.428425 0.205463 0.966495
O O14 0.500000 0.000000 0.500000
#
# Coordination Sequence:
#
# PCOD9301466 Si02
#       7
#     8   8   8   4   8   8   8
#     4   9  18  35  55  75 101 141 183 219 264 326
#     4   9  19  34  51  74 110 147 181 221 272 329
#     4   9  16  30  57  85 106 130 182 242 281 325
#     4   8  16  32  54  78 102 132 172 228 280 330
#     4   9  17  32  55  84 109 139 183 234 281 332
#     4   9  18  34  55  76 101 137 179 217 269 332
#     4  11  21  34  50  75 110 142 176 225 273 321
#
# _framework density 28.700642999999999
#
# number of rings (size 3 to 8) (size 9 to 14) (size 15 to 20)
#    0.000    2.769    0.000    2.308    0.000    0.000 
#    0.000   19.231    0.000    0.000    0.000    2.154 
#    0.000    0.000    0.000    0.000    0.000    0.000 
#
# Total GULP energy -144788.641655 kJ/mol
# GULP energy per Si atom -5568.793910 kJ/mol
# Density = 2.863532 g / cm^3
# Si number density = 28.700643 Si / 1000 Ang^3
#
#
#
# Elastic Constant Matrix: (Units=GPa)
#
#
# Indices 1 2 3 4 5 6 
#
# 1 230.2877 25.9419 40.3997 0.0000 17.2991 0.0000
# 2 25.9419 47.2239 4.1094 0.0000 6.1362 0.0000
# 3 40.3997 4.1094 50.9306 0.0000 28.6287 0.0000
# 4 0.0000 0.0000 0.0000 26.7512 0.0000 0.8427
# 5 17.2991 6.1362 28.6287 0.0000 74.5194 0.0000
# 6 0.0000 0.0000 0.0000 0.8427 0.0000 34.0248
#
#
#
# Elastic Compliance Matrix: (Units=1/GPa)
#
#
# Indices 1 2 3 4 5 6 
#
# 1 0.005366 -0.002650 -0.004419 0.000000 0.000670 0.000000
# 2 -0.002650 0.022749 0.001242 0.000000 -0.001735 0.000000
# 3 -0.004419 0.001242 0.028724 0.000000 -0.010111 0.000000
# 4 0.000000 0.000000 0.000000 0.037411 0.000000 -0.000927
# 5 0.000670 -0.001735 -0.010111 0.000000 0.017291 0.000000
# 6 0.000000 0.000000 0.000000 -0.000927 0.000000 0.029413
#
#
# Mechanical properties :
#
#
# Convention : Reuss Voigt Hill
#
# Bulk Modulus (GPa) = 22.13202 52.14935 37.14069
# Shear Modulus (GPa) = 29.82053 44.25849 37.03951
#
# Velocity S-wave (km/s) = 3.22688 3.93118 3.59631
# Velocity P-wave (km/s) = 4.64884 6.23018 5.49668
#
# Compressibility (1/GPa) = 0.04518340
#
# Stress axis : x y z
#
# Youngs Moduli (GPa) = 186.36266 43.95808 34.81458
#
# Poissons Ratio (x) = 0.11650 0.15386
# Poissons Ratio (y) = 0.49390 -0.04324
# Poissons Ratio (z) = 0.82361 -0.05460
#
# Static dielectric constant tensor:
#      x y z
#    x 2.143100 0.000000 -0.028450 
#    y 0.000000 2.452050 0.000000 
#    z -0.028450 0.000000 2.622700 
# 
# From -- ./inp_files/289627.got.cif
#   From: 2010.05.17/outbox.cif.g08.bks.cpg/sg15_145_cif.got.tgz:289627.got - 2010.06.03 18:47:42.
