data_PCOD9301476
_publ_section_title
;
Structure prediction by ZEFSAII (Michael W. Deem and Ramdas Pophale) SiO2 
 PCOD9301476
Probable space group: C 2/C
;
_chemical_formula_sum "Si O2"
_cell_formula_units_Z 40
_cell_length_a 24.336911
_cell_length_b 12.306903
_cell_length_c 19.763124
_cell_angle_alpha 90.000000
_cell_angle_beta 157.278338
_cell_angle_gamma 90.000000
_cell_volume 2286.355288
_symmetry_space_group_name_H-M "C 2/C"
_symmetry_group_IT_number 15
_symmetry_cell_setting 'monoclinic'
loop_
_space_group_symop_operation_xyz
x,y,z
-x,y,1/2-z
-x,-y,-z
x,-y,1/2+z
1/2+x,1/2+y,z
1/2-x,1/2+y,1/2-z
1/2-x,1/2-y,-z
1/2+x,1/2-y,1/2+z
loop_
_atom_site_type_symbol
_atom_site_label
_atom_site_fract_x
_atom_site_fract_y
_atom_site_fract_z
Si Si1 0.211739 0.521312 0.791864
Si Si2 0.423052 0.843920 0.952566
Si Si3 0.267806 0.172050 0.418499
Si Si4 0.975878 0.889298 0.514004
Si Si5 0.172846 0.090411 0.448963
O O1 0.180401 0.416890 0.710592
O O2 0.077083 0.599743 0.627589
O O3 0.351620 0.579453 0.923571
O O4 0.247781 0.505833 0.911551
O O5 0.374353 0.843903 0.976225
O O6 0.425741 0.723487 0.923581
O O7 0.115452 0.152157 0.210922
O O8 0.252310 0.094757 0.466728
O O9 0.298261 0.290680 0.484495
O O10 0.000000 0.000000 0.500000
O O11 0.000000 0.075427 0.250000
#
# Coordination Sequence:
#
# PCOD9301476 Si02
#       5
#     8   8   8   8   8
#     4  11  23  36  57  85 123 155 189 250 292 355
#     4  11  22  39  56  87 124 153 199 241 299 348
#     4  11  21  34  57  87 122 151 190 247 298 350
#     4  12  21  38  60  87 115 160 200 239 294 359
#     4  11  21  34  57  91 123 153 191 248 305 350
#
# _framework density 17.495093000000001
#
# number of rings (size 3 to 8) (size 9 to 14) (size 15 to 20)
#    0.000    0.800    8.000    0.000    2.800    0.000 
#    0.000    0.000    0.000    1.200    0.000    0.000 
#    0.000    0.000    0.000    0.000    0.000    0.000 
#
# Total GULP energy -111354.931818 kJ/mol
# GULP energy per Si atom -5567.746591 kJ/mol
# Density = 1.745527 g / cm^3
# Si number density = 17.495093 Si / 1000 Ang^3
#
#
#
# Elastic Constant Matrix: (Units=GPa)
#
#
# Indices 1 2 3 4 5 6 
#
# 1 96.2793 34.4797 7.5803 0.0000 -1.7270 0.0000
# 2 34.4797 83.6011 11.7243 0.0000 -9.5456 0.0000
# 3 7.5803 11.7243 44.5679 0.0000 -1.6113 0.0000
# 4 0.0000 0.0000 0.0000 18.3270 0.0000 -13.3871
# 5 -1.7270 -9.5456 -1.6113 0.0000 34.9775 0.0000
# 6 0.0000 0.0000 0.0000 -13.3871 0.0000 21.4292
#
#
#
# Elastic Compliance Matrix: (Units=1/GPa)
#
#
# Indices 1 2 3 4 5 6 
#
# 1 0.012234 -0.005027 -0.000787 0.000000 -0.000804 0.000000
# 2 -0.005027 0.014864 -0.002922 0.000000 0.003674 0.000000
# 3 -0.000787 -0.002922 0.023349 0.000000 0.000239 0.000000
# 4 0.000000 0.000000 0.000000 0.100363 0.000000 0.062698
# 5 -0.000804 0.003674 0.000239 0.000000 0.029564 0.000000
# 6 0.000000 0.000000 0.000000 0.062698 0.000000 0.085834
#
#
# Mechanical properties :
#
#
# Convention : Reuss Voigt Hill
#
# Bulk Modulus (GPa) = 30.32740 36.89076 33.60908
# Shear Modulus (GPa) = 16.96795 26.32434 21.64615
#
# Velocity S-wave (km/s) = 3.11765 3.88322 3.52130
# Velocity P-wave (km/s) = 5.50746 6.42168 5.98206
#
# Compressibility (1/GPa) = 0.03297349
#
# Stress axis : x y z
#
# Youngs Moduli (GPa) = 81.73689 67.27554 42.82836
#
# Poissons Ratio (x) = 0.33821 0.03373
# Poissons Ratio (y) = 0.41091 0.12516
# Poissons Ratio (z) = 0.06436 0.19661
#
# Static dielectric constant tensor:
#      x y z
#    x 1.669580 0.000000 -0.024070 
#    y 0.000000 1.613770 0.000000 
#    z -0.024070 0.000000 1.637760 
# 
# From -- ./inp_files/257721.got.cif
#   From: 2010.05.17/outbox.cif.g08.bks.cpg/sg15_129_cif.got.tgz:257721.got - 2010.06.03 18:47:42.
