data_PCOD9301209
_publ_section_title
;
Structure prediction by ZEFSAII (Michael W. Deem and Ramdas Pophale) SiO2 
 PCOD9301209
Probable space group: C 2/C
;
_chemical_formula_sum "Si O2"
_cell_formula_units_Z 64
_cell_length_a 21.097740
_cell_length_b 16.886726
_cell_length_c 9.202425
_cell_angle_alpha 90.000000
_cell_angle_beta 90.463884
_cell_angle_gamma 90.000000
_cell_volume 3278.456647
_symmetry_space_group_name_H-M "C 2/C"
_symmetry_group_IT_number 15
_symmetry_cell_setting 'monoclinic'
loop_
_space_group_symop_operation_xyz
x,y,z
-x,y,1/2-z
-x,-y,-z
x,-y,1/2+z
1/2+x,1/2+y,z
1/2-x,1/2+y,1/2-z
1/2-x,1/2-y,-z
1/2+x,1/2-y,1/2+z
loop_
_atom_site_type_symbol
_atom_site_label
_atom_site_fract_x
_atom_site_fract_y
_atom_site_fract_z
Si Si1 0.621293 0.418718 0.606812
Si Si2 0.881412 0.191145 0.896953
Si Si3 0.806147 0.324717 0.266652
Si Si4 0.427112 0.266192 0.717690
Si Si5 0.754087 0.112010 0.000021
Si Si6 0.569462 0.552275 0.790971
Si Si7 0.236917 0.571929 0.499012
Si Si8 0.207618 0.308006 0.779754
O O1 0.593762 0.344444 0.693663
O O2 0.619214 0.491046 0.720981
O O3 0.580149 0.439333 0.462758
O O4 0.691337 0.404816 0.543306
O O5 0.824526 0.134181 0.952078
O O6 0.922407 0.135997 0.791100
O O7 0.849077 0.260711 0.800197
O O8 0.915707 0.219920 0.044654
O O9 0.878682 0.300353 0.275756
O O10 0.789870 0.330911 0.096719
O O11 0.782043 0.405366 0.338170
O O12 0.758854 0.257929 0.327961
O O13 0.500000 0.248800 0.750000
O O14 0.734771 0.021545 0.977844
O O15 0.743858 0.137777 0.163734
O O16 0.500000 0.520373 0.750000
O O17 0.191631 0.630572 0.406205
#
# Coordination Sequence:
#
# PCOD9301209 Si02
#       8
#     8   8   8   8   8   8   8   8
#     4  12  24  39  59  90 128 164 208 247 301 371
#     4  11  21  41  63  87 123 165 208 251 310 362
#     4  11  22  38  60  91 121 158 204 253 312 363
#     4  12  24  41  62  86 123 170 213 251 298 367
#     4  11  20  39  62  89 119 161 196 253 315 376
#     4  12  25  40  58  86 128 174 212 244 290 369
#     4  12  24  35  63  94 125 151 199 262 321 365
#     4  11  21  38  61  88 122 157 200 257 318 363
#
# _framework density 19.521380000000001
#
# number of rings (size 3 to 8) (size 9 to 14) (size 15 to 20)
#    0.000    0.500    5.000    5.625    3.500    0.000 
#    0.000    0.000    0.000    0.750    0.000    0.000 
#    0.000    0.000    0.000    0.000    0.000    0.000 
#
# Total GULP energy -178816.261880 kJ/mol
# GULP energy per Si atom -5588.008184 kJ/mol
# Density = 1.947695 g / cm^3
# Si number density = 19.521380 Si / 1000 Ang^3
#
#
#
# Elastic Constant Matrix: (Units=GPa)
#
#
# Indices 1 2 3 4 5 6 
#
# 1 88.3835 19.1833 10.3638 0.0000 10.4743 0.0000
# 2 19.1833 68.8314 6.4344 0.0000 6.2027 0.0000
# 3 10.3638 6.4344 66.3503 0.0000 7.5342 0.0000
# 4 0.0000 0.0000 0.0000 33.7953 0.0000 -5.4151
# 5 10.4743 6.2027 7.5342 0.0000 20.2001 0.0000
# 6 0.0000 0.0000 0.0000 -5.4151 0.0000 21.5749
#
#
#
# Elastic Compliance Matrix: (Units=1/GPa)
#
#
# Indices 1 2 3 4 5 6 
#
# 1 0.012711 -0.002965 -0.001099 0.000000 -0.005271 0.000000
# 2 -0.002965 0.015693 -0.000716 0.000000 -0.003014 0.000000
# 3 -0.001099 -0.000716 0.015896 0.000000 -0.005139 0.000000
# 4 0.000000 0.000000 0.000000 0.030830 0.000000 0.007738
# 5 -0.005271 -0.003014 -0.005139 0.000000 0.055080 0.000000
# 6 0.000000 0.000000 0.000000 0.007738 0.000000 0.048292
#
#
# Mechanical properties :
#
#
# Convention : Reuss Voigt Hill
#
# Bulk Modulus (GPa) = 28.78603 32.83648 30.81125
# Shear Modulus (GPa) = 25.04454 27.61965 26.33210
#
# Velocity S-wave (km/s) = 3.58569 3.76552 3.67670
# Velocity P-wave (km/s) = 5.64985 5.98020 5.81737
#
# Compressibility (1/GPa) = 0.03473907
#
# Stress axis : x y z
#
# Youngs Moduli (GPa) = 78.66950 63.72195 62.90788
#
# Poissons Ratio (x) = 0.18893 0.06917
# Poissons Ratio (y) = 0.23325 0.04507
# Poissons Ratio (z) = 0.08650 0.04566
#
# Static dielectric constant tensor:
#      x y z
#    x 1.672460 0.000000 0.016570 
#    y 0.000000 1.691550 0.000000 
#    z 0.016570 0.000000 1.709000 
# 
# From -- ./inp_files/56612.got.cif
#   From: 2010.05.17/outbox.cif.g08.bks.cpg/sg15_29_cif.got.tgz:56612.got - 2010.06.03 18:47:42.
