data_PCOD9301706
_publ_section_title
;
Structure prediction by ZEFSAII (Michael W. Deem and Ramdas Pophale) SiO2 
 PCOD9301706
Probable space group: C 2/C
;
_chemical_formula_sum "Si O2"
_cell_formula_units_Z 64
_cell_length_a 17.627125
_cell_length_b 19.690990
_cell_length_c 9.877623
_cell_angle_alpha 90.000000
_cell_angle_beta 85.210369
_cell_angle_gamma 90.000000
_cell_volume 3416.506615
_symmetry_space_group_name_H-M "C 2/C"
_symmetry_group_IT_number 15
_symmetry_cell_setting 'monoclinic'
loop_
_space_group_symop_operation_xyz
x,y,z
-x,y,1/2-z
-x,-y,-z
x,-y,1/2+z
1/2+x,1/2+y,z
1/2-x,1/2+y,1/2-z
1/2-x,1/2-y,-z
1/2+x,1/2-y,1/2+z
loop_
_atom_site_type_symbol
_atom_site_label
_atom_site_fract_x
_atom_site_fract_y
_atom_site_fract_z
Si Si1 0.412870 0.116226 0.583950
Si Si2 0.220022 0.804064 0.698561
Si Si3 0.307111 0.331666 0.112953
Si Si4 0.342908 0.905109 0.807292
Si Si5 0.564368 0.728811 0.350688
Si Si6 0.536342 0.737694 0.888623
Si Si7 0.576246 0.111599 0.470342
Si Si8 0.307554 0.942424 0.325632
O O1 0.378737 0.123527 0.439062
O O2 0.421687 0.189964 0.650263
O O3 0.497614 0.087274 0.549194
O O4 0.356886 0.073029 0.684565
O O5 0.254651 0.728313 0.682681
O O6 0.200500 0.826108 0.548468
O O7 0.283273 0.852737 0.752631
O O8 0.143802 0.804247 0.798437
O O9 0.393728 0.313852 0.136652
O O10 0.272030 0.402659 0.166467
O O11 0.407159 0.915054 0.682470
O O12 0.304098 0.977154 0.843327
O O13 0.500000 0.713010 0.250000
O O14 0.529130 0.711251 0.501477
O O15 0.500000 0.755339 0.750000
O O16 0.568907 0.806611 0.953833
O O17 0.644680 0.089948 0.557237
#
# Coordination Sequence:
#
# PCOD9301706 Si02
#       8
#     8   8   8   8   8   8   8   8
#     4  11  24  35  58  90 127 161 205 257 295 363
#     4  11  22  40  65  89 120 165 208 257 305 370
#     4  11  21  40  66  89 119 167 205 252 315 364
#     4  12  25  39  59  88 127 169 208 252 304 360
#     4  11  21  38  63  93 118 156 209 258 312 368
#     4  11  22  38  66  96 123 156 201 266 314 361
#     4  11  21  40  59  83 129 172 203 236 310 376
#     4  12  24  40  60  88 123 171 212 246 302 373
#
# _framework density 18.732585
#
# number of rings (size 3 to 8) (size 9 to 14) (size 15 to 20)
#    0.000    0.750    5.000    5.250    0.000    4.500 
#    0.000    0.000    0.000    1.500    0.000    0.000 
#    0.000    0.000    0.000    0.000    0.000    0.000 
#
# Total GULP energy -178936.169508 kJ/mol
# GULP energy per Si atom -5591.755297 kJ/mol
# Density = 1.868995 g / cm^3
# Si number density = 18.732585 Si / 1000 Ang^3
#
#
#
# Elastic Constant Matrix: (Units=GPa)
#
#
# Indices 1 2 3 4 5 6 
#
# 1 67.4494 18.2394 13.3604 0.0000 -21.3844 0.0000
# 2 18.2394 50.2643 -2.6130 0.0000 -5.8943 0.0000
# 3 13.3604 -2.6130 81.1412 0.0000 -6.6336 0.0000
# 4 0.0000 0.0000 0.0000 12.7396 0.0000 -4.8974
# 5 -21.3844 -5.8943 -6.6336 0.0000 36.3307 0.0000
# 6 0.0000 0.0000 0.0000 -4.8974 0.0000 6.9741
#
#
#
# Elastic Compliance Matrix: (Units=1/GPa)
#
#
# Indices 1 2 3 4 5 6 
#
# 1 0.020392 -0.006311 -0.002704 0.000000 0.010485 0.000000
# 2 -0.006311 0.022304 0.001776 0.000000 0.000228 0.000000
# 3 -0.002704 0.001776 0.012913 0.000000 0.001054 0.000000
# 4 0.000000 0.000000 0.000000 0.107520 0.000000 0.075503
# 5 0.010485 0.000228 0.001054 0.000000 0.033926 0.000000
# 6 0.000000 0.000000 0.000000 0.075503 0.000000 0.196407
#
#
# Mechanical properties :
#
#
# Convention : Reuss Voigt Hill
#
# Bulk Modulus (GPa) = 24.31183 28.53646 26.42415
# Shear Modulus (GPa) = 11.85817 22.53343 17.19580
#
# Velocity S-wave (km/s) = 2.51873 3.47205 3.03308
# Velocity P-wave (km/s) = 4.63305 5.59823 5.13835
#
# Compressibility (1/GPa) = 0.04113224
#
# Stress axis : x y z
#
# Youngs Moduli (GPa) = 49.03796 44.83516 77.44267
#
# Poissons Ratio (x) = 0.28294 0.20938
# Poissons Ratio (y) = 0.30947 -0.13754
# Poissons Ratio (z) = 0.13258 -0.07963
#
# Static dielectric constant tensor:
#      x y z
#    x 1.650060 0.000000 -0.019200 
#    y 0.000000 1.639370 0.000000 
#    z -0.019200 0.000000 1.661810 
# 
# From -- ./inp_files/50250.got.cif
#   From: 2010.05.17/outbox.cif.g08.bks.cpg/sg15_26_cif.got.tgz:50250.got - 2010.06.03 18:47:42.
