data_PCOD9301796
_publ_section_title
;
Structure prediction by ZEFSAII (Michael W. Deem and Ramdas Pophale) SiO2 
 PCOD9301796
Probable space group: C 2/C
;
_chemical_formula_sum "Si O2"
_cell_formula_units_Z 32
_cell_length_a 17.555572
_cell_length_b 7.109066
_cell_length_c 15.224631
_cell_angle_alpha 90.000000
_cell_angle_beta 130.120878
_cell_angle_gamma 90.000000
_cell_volume 1452.973881
_symmetry_space_group_name_H-M "C 2/C"
_symmetry_group_IT_number 15
_symmetry_cell_setting 'monoclinic'
loop_
_space_group_symop_operation_xyz
x,y,z
-x,y,1/2-z
-x,-y,-z
x,-y,1/2+z
1/2+x,1/2+y,z
1/2-x,1/2+y,1/2-z
1/2-x,1/2-y,-z
1/2+x,1/2-y,1/2+z
loop_
_atom_site_type_symbol
_atom_site_label
_atom_site_fract_x
_atom_site_fract_y
_atom_site_fract_z
Si Si1 0.751199 0.866055 0.116875
Si Si2 0.149466 0.207132 0.373291
Si Si3 0.453875 0.036865 0.123254
Si Si4 0.660849 0.005074 0.229288
O O1 0.784935 0.661049 0.171349
O O2 0.840736 0.987105 0.140296
O O3 0.718309 0.968926 0.182562
O O4 0.650566 0.872901 0.983374
O O5 0.250000 0.250000 0.500000
O O6 0.069137 0.314295 0.374439
O O7 0.153774 0.321075 0.285182
O O8 0.500000 0.106940 0.250000
O O9 0.546222 0.063879 0.126567
#
# Coordination Sequence:
#
# PCOD9301796 Si02
#       4
#     8   8   8   8
#     4  11  21  39  66  91 125 165 209 253 320 367
#     4   9  20  39  60  87 124 163 203 253 306 366
#     4   9  21  39  60  88 126 160 204 257 308 362
#     4  11  21  39  64  94 124 164 206 263 309 370
#
# _framework density 22.023796999999998
#
# number of rings (size 3 to 8) (size 9 to 14) (size 15 to 20)
#    0.000    2.000    2.500    0.750    0.000    9.000 
#    0.000   25.000    0.000    0.000    0.000    0.000 
#    0.000    0.000    0.000    0.000    0.000    0.000 
#
# Total GULP energy -89223.471745 kJ/mol
# GULP energy per Si atom -5576.466984 kJ/mol
# Density = 2.197367 g / cm^3
# Si number density = 22.023797 Si / 1000 Ang^3
#
#
#
# Elastic Constant Matrix: (Units=GPa)
#
#
# Indices 1 2 3 4 5 6 
#
# 1 73.9087 18.0234 12.4428 0.0000 12.6606 0.0000
# 2 18.0234 77.8597 39.1072 0.0000 9.8306 0.0000
# 3 12.4428 39.1072 127.8546 0.0000 15.5203 0.0000
# 4 0.0000 0.0000 0.0000 38.2014 0.0000 -3.1288
# 5 12.6606 9.8306 15.5203 0.0000 37.0347 0.0000
# 6 0.0000 0.0000 0.0000 -3.1288 0.0000 30.2593
#
#
#
# Elastic Compliance Matrix: (Units=1/GPa)
#
#
# Indices 1 2 3 4 5 6 
#
# 1 0.014987 -0.002899 -0.000046 0.000000 -0.004335 0.000000
# 2 -0.002899 0.015907 -0.004416 0.000000 -0.001381 0.000000
# 3 -0.000046 -0.004416 0.009516 0.000000 -0.002800 0.000000
# 4 0.000000 0.000000 0.000000 0.026401 0.000000 0.002730
# 5 -0.004335 -0.001381 -0.002800 0.000000 0.030024 0.000000
# 6 0.000000 0.000000 0.000000 0.002730 0.000000 0.033330
#
#
# Mechanical properties :
#
#
# Convention : Reuss Voigt Hill
#
# Bulk Modulus (GPa) = 38.92587 46.52999 42.72793
# Shear Modulus (GPa) = 32.58402 35.10238 33.84320
#
# Velocity S-wave (km/s) = 3.85059 3.99662 3.92428
# Velocity P-wave (km/s) = 6.12227 6.51693 6.32268
#
# Compressibility (1/GPa) = 0.02568986
#
# Stress axis : x y z
#
# Youngs Moduli (GPa) = 66.72251 62.86539 105.08151
#
# Poissons Ratio (x) = 0.18226 0.00479
# Poissons Ratio (y) = 0.19344 0.46401
# Poissons Ratio (z) = 0.00304 0.27760
#
# Static dielectric constant tensor:
#      x y z
#    x 1.875040 0.000000 0.005840 
#    y 0.000000 1.820580 0.000000 
#    z 0.005840 0.000000 1.815100 
# 
# From -- ./inp_files/102135.got.cif
#   From: 2010.05.17/outbox.cif.g08.bks.cpg/sg15_52_cif.got.tgz:102135.got - 2010.06.03 18:47:42.
