data_PCOD9301213
_publ_section_title
;
Structure prediction by ZEFSAII (Michael W. Deem and Ramdas Pophale) SiO2 
 PCOD9301213
Probable space group: C 2/C
;
_chemical_formula_sum "Si O2"
_cell_formula_units_Z 56
_cell_length_a 20.861866
_cell_length_b 17.621064
_cell_length_c 8.821423
_cell_angle_alpha 90.000000
_cell_angle_beta 112.371407
_cell_angle_gamma 90.000000
_cell_volume 2998.760174
_symmetry_space_group_name_H-M "C 2/C"
_symmetry_group_IT_number 15
_symmetry_cell_setting 'monoclinic'
loop_
_space_group_symop_operation_xyz
x,y,z
-x,y,1/2-z
-x,-y,-z
x,-y,1/2+z
1/2+x,1/2+y,z
1/2-x,1/2+y,1/2-z
1/2-x,1/2-y,-z
1/2+x,1/2-y,1/2+z
loop_
_atom_site_type_symbol
_atom_site_label
_atom_site_fract_x
_atom_site_fract_y
_atom_site_fract_z
Si Si1 0.744788 0.310654 0.856125
Si Si2 0.150959 0.210014 0.715998
Si Si3 0.042613 0.438955 0.441723
Si Si4 0.019013 0.267816 0.445830
Si Si5 0.696196 0.036608 0.959365
Si Si6 0.277913 0.102680 0.839950
Si Si7 0.129478 0.752631 0.543070
O O1 0.803396 0.282965 0.791623
O O2 0.761150 0.394227 0.928318
O O3 0.672467 0.301292 0.704695
O O4 0.750000 0.250000 0.000000
O O5 0.081714 0.213381 0.553225
O O6 0.203641 0.140423 0.737665
O O7 0.134756 0.215274 0.878941
O O8 0.043149 0.353783 0.507700
O O9 0.119648 0.462555 0.463377
O O10 0.000000 0.431256 0.250000
O O11 0.000000 0.500000 0.500000
O O12 0.000000 0.262237 0.250000
O O13 0.949155 0.253598 0.475286
O O14 0.727132 0.954867 0.025309
O O15 0.695369 0.056025 0.781382
O O16 0.331806 0.170849 0.918335
#
# Coordination Sequence:
#
# PCOD9301213 Si02
#       7
#     8   8   8   8   8   8   8
#     4  11  20  39  63  87 119 169 214 262 303 380
#     4  11  23  41  61  92 127 161 216 267 308 375
#     4  11  23  37  55  88 130 166 200 242 307 390
#     4  11  22  39  65  90 123 168 210 253 322 381
#     4  12  23  39  61  88 128 169 211 254 319 367
#     4  11  25  39  62  94 127 165 216 258 315 378
#     4  11  23  39  62  94 127 160 212 261 315 371
#
# _framework density 18.674385000000001
#
# number of rings (size 3 to 8) (size 9 to 14) (size 15 to 20)
#    0.000    0.857    4.286    6.429    4.000    2.286 
#    0.000    0.000    0.000    0.857    0.000    0.000 
#    0.000    0.000    0.000    0.000    0.000    0.000 
#
# Total GULP energy -156455.181749 kJ/mol
# GULP energy per Si atom -5587.685062 kJ/mol
# Density = 1.863188 g / cm^3
# Si number density = 18.674385 Si / 1000 Ang^3
#
#
#
# Elastic Constant Matrix: (Units=GPa)
#
#
# Indices 1 2 3 4 5 6 
#
# 1 124.7377 30.9567 42.0160 0.0000 6.3461 0.0000
# 2 30.9567 60.0620 17.2566 0.0000 14.5004 0.0000
# 3 42.0160 17.2566 68.3286 0.0000 6.5516 0.0000
# 4 0.0000 0.0000 0.0000 32.3905 0.0000 -0.8899
# 5 6.3461 14.5004 6.5516 0.0000 41.3813 0.0000
# 6 0.0000 0.0000 0.0000 -0.8899 0.0000 16.8192
#
#
#
# Elastic Compliance Matrix: (Units=1/GPa)
#
#
# Indices 1 2 3 4 5 6 
#
# 1 0.010950 -0.004158 -0.005749 0.000000 0.000688 0.000000
# 2 -0.004158 0.020938 -0.002121 0.000000 -0.006363 0.000000
# 3 -0.005749 -0.002121 0.018836 0.000000 -0.001357 0.000000
# 4 0.000000 0.000000 0.000000 0.030918 0.000000 0.001636
# 5 0.000688 -0.006363 -0.001357 0.000000 0.026505 0.000000
# 6 0.000000 0.000000 0.000000 0.001636 0.000000 0.059543
#
#
# Mechanical properties :
#
#
# Convention : Reuss Voigt Hill
#
# Bulk Modulus (GPa) = 37.49809 48.17634 42.83722
# Shear Modulus (GPa) = 24.92067 28.97811 26.94939
#
# Velocity S-wave (km/s) = 3.65702 3.94351 3.80296
# Velocity P-wave (km/s) = 6.16079 6.82562 6.50171
#
# Compressibility (1/GPa) = 0.02666802
#
# Stress axis : x y z
#
# Youngs Moduli (GPa) = 91.32139 47.75930 53.08904
#
# Poissons Ratio (x) = 0.19859 0.30522
# Poissons Ratio (y) = 0.37973 0.11260
# Poissons Ratio (z) = 0.52503 0.10130
#
# Static dielectric constant tensor:
#      x y z
#    x 1.618820 0.000000 -0.013220 
#    y 0.000000 1.668110 0.000000 
#    z -0.013220 0.000000 1.681960 
# 
# From -- ./inp_files/49167.got.cif
#   From: 2010.05.17/outbox.cif.g08.bks.cpg/sg15_25_cif.got.tgz:49167.got - 2010.06.03 18:47:42.
