data_PCOD9301847
_publ_section_title
;
Structure prediction by ZEFSAII (Michael W. Deem and Ramdas Pophale) SiO2 
 PCOD9301847
Probable space group: C 2/C
;
_chemical_formula_sum "Si O2"
_cell_formula_units_Z 56
_cell_length_a 18.045044
_cell_length_b 12.443015
_cell_length_c 12.550432
_cell_angle_alpha 90.000000
_cell_angle_beta 64.695888
_cell_angle_gamma 90.000000
_cell_volume 2547.625558
_symmetry_space_group_name_H-M "C 2/C"
_symmetry_group_IT_number 15
_symmetry_cell_setting 'monoclinic'
loop_
_space_group_symop_operation_xyz
x,y,z
-x,y,1/2-z
-x,-y,-z
x,-y,1/2+z
1/2+x,1/2+y,z
1/2-x,1/2+y,1/2-z
1/2-x,1/2-y,-z
1/2+x,1/2-y,1/2+z
loop_
_atom_site_type_symbol
_atom_site_label
_atom_site_fract_x
_atom_site_fract_y
_atom_site_fract_z
Si Si1 0.715036 0.341548 0.245085
Si Si2 0.619636 0.025111 0.829682
Si Si3 0.189803 0.365490 0.618192
Si Si4 0.046818 0.237180 0.609106
Si Si5 0.147820 0.956450 0.092683
Si Si6 0.834361 0.195052 0.482922
Si Si7 0.542623 0.144088 0.529145
O O1 0.803676 0.396969 0.198211
O O2 0.717541 0.226896 0.184162
O O3 0.656905 0.415821 0.208011
O O4 0.677521 0.328788 0.384511
O O5 0.640573 0.954088 0.714277
O O6 0.602997 0.944179 0.938938
O O7 0.534399 0.086737 0.870592
O O8 0.129701 0.307306 0.571815
O O9 0.267836 0.418352 0.515212
O O10 0.075462 0.113381 0.583641
O O11 0.000000 0.250460 0.750000
O O12 0.994133 0.284686 0.545669
O O13 0.144442 0.083575 0.086415
O O14 0.750000 0.250000 0.500000
O O15 0.906218 0.280643 0.425480
#
# Coordination Sequence:
#
# PCOD9301847 Si02
#       7
#     8   8   8   8   8   8   8
#     4  11  22  44  67 100 136 180 230 282 337 408
#     4  11  21  39  68  96 136 181 220 287 348 398
#     4  11  21  41  68 103 129 182 238 279 332 415
#     4  11  21  41  65  98 134 176 234 288 331 409
#     4  11  24  41  71  98 134 185 234 275 344 414
#     4  12  26  45  68  99 140 177 229 285 344 415
#     4  11  23  42  63 100 142 179 225 288 350 399
#
# _framework density 21.981252999999999
#
# number of rings (size 3 to 8) (size 9 to 14) (size 15 to 20)
#    0.000    0.857    4.286    5.143    0.000    1.714 
#    2.571    1.429    0.000    0.000    0.000    0.000 
#    0.000    0.000    0.000    0.000    0.000    0.000 
#
# Total GULP energy -156872.911945 kJ/mol
# GULP energy per Si atom -5602.603998 kJ/mol
# Density = 2.193122 g / cm^3
# Si number density = 21.981253 Si / 1000 Ang^3
#
#
#
# Elastic Constant Matrix: (Units=GPa)
#
#
# Indices 1 2 3 4 5 6 
#
# 1 59.7325 45.0176 9.7374 0.0000 -4.7542 0.0000
# 2 45.0176 133.6712 23.4742 0.0000 -2.6192 0.0000
# 3 9.7374 23.4742 57.4808 0.0000 0.3900 0.0000
# 4 0.0000 0.0000 0.0000 25.9102 0.0000 -12.5899
# 5 -4.7542 -2.6192 0.3900 0.0000 29.8816 0.0000
# 6 0.0000 0.0000 0.0000 -12.5899 0.0000 36.8743
#
#
#
# Elastic Compliance Matrix: (Units=1/GPa)
#
#
# Indices 1 2 3 4 5 6 
#
# 1 0.022728 -0.007451 -0.000828 0.000000 0.002974 0.000000
# 2 -0.007451 0.010518 -0.003032 0.000000 -0.000224 0.000000
# 3 -0.000828 -0.003032 0.018780 0.000000 -0.000643 0.000000
# 4 0.000000 0.000000 0.000000 0.046271 0.000000 0.015798
# 5 0.002974 -0.000224 -0.000643 0.000000 0.033927 0.000000
# 6 0.000000 0.000000 0.000000 0.015798 0.000000 0.032513
#
#
# Mechanical properties :
#
#
# Convention : Reuss Voigt Hill
#
# Bulk Modulus (GPa) = 34.00674 45.26034 39.63354
# Shear Modulus (GPa) = 25.36007 30.04358 27.70183
#
# Velocity S-wave (km/s) = 3.40032 3.70101 3.55385
# Velocity P-wave (km/s) = 5.56063 6.23686 5.90843
#
# Compressibility (1/GPa) = 0.02940593
#
# Stress axis : x y z
#
# Youngs Moduli (GPa) = 43.99823 95.07211 53.24867
#
# Poissons Ratio (x) = 0.70836 0.04407
# Poissons Ratio (y) = 0.32782 0.16144
# Poissons Ratio (z) = 0.03641 0.28824
#
# Static dielectric constant tensor:
#      x y z
#    x 1.802220 0.000000 0.003970 
#    y 0.000000 1.817660 0.000000 
#    z 0.003970 0.000000 1.801170 
# 
# From -- ./inp_files/161253.got.cif
#   From: 2010.05.17/outbox.cif.g08.bks.cpg/sg15_81_cif.got.tgz:161253.got - 2010.06.03 18:47:42.
