data_PCOD9301989
_publ_section_title
;
Structure prediction by ZEFSAII (Michael W. Deem and Ramdas Pophale) SiO2 
 PCOD9301989
Probable space group: C 2/C
;
_chemical_formula_sum "Si O2"
_cell_formula_units_Z 56
_cell_length_a 15.098395
_cell_length_b 13.386940
_cell_length_c 18.832395
_cell_angle_alpha 90.000000
_cell_angle_beta 42.741728
_cell_angle_gamma 90.000000
_cell_volume 2583.402802
_symmetry_space_group_name_H-M "C 2/C"
_symmetry_group_IT_number 15
_symmetry_cell_setting 'monoclinic'
loop_
_space_group_symop_operation_xyz
x,y,z
-x,y,1/2-z
-x,-y,-z
x,-y,1/2+z
1/2+x,1/2+y,z
1/2-x,1/2+y,1/2-z
1/2-x,1/2-y,-z
1/2+x,1/2-y,1/2+z
loop_
_atom_site_type_symbol
_atom_site_label
_atom_site_fract_x
_atom_site_fract_y
_atom_site_fract_z
Si Si1 0.447375 0.142261 0.202182
Si Si2 0.205886 0.669531 0.421025
Si Si3 0.296782 0.619035 0.508364
Si Si4 0.051840 0.606915 0.995663
Si Si5 0.909338 0.154652 0.182921
Si Si6 0.759840 0.175677 0.770871
Si Si7 0.293884 0.502827 0.147835
O O1 0.500000 0.152166 0.250000
O O2 0.552479 0.123791 0.079136
O O3 0.363624 0.240436 0.231297
O O4 0.350267 0.047566 0.256264
O O5 0.203116 0.607187 0.495860
O O6 0.243152 0.781544 0.424194
O O7 0.066174 0.676091 0.465165
O O8 0.310638 0.623842 0.304250
O O9 0.439055 0.642910 0.391269
O O10 0.306981 0.529909 0.558655
O O11 0.000000 0.500000 0.000000
O O12 0.190839 0.627548 0.879376
O O13 0.859318 0.266153 0.197445
O O14 0.884126 0.090223 0.126351
O O15 0.814510 0.092421 0.686154
#
# Coordination Sequence:
#
# PCOD9301989 Si02
#       7
#     8   8   8   8   8   8   8
#     4  11  26  45  68 102 131 168 232 276 319 397
#     4  11  22  39  60  94 127 163 212 266 328 391
#     4  11  23  36  63  95 126 162 213 268 329 383
#     4  12  22  42  68  91 130 178 214 262 337 396
#     4  11  21  41  62  91 129 171 213 271 327 390
#     4  11  22  42  68  91 132 176 215 267 334 392
#     4  11  22  42  65  93 127 171 222 264 329 400
#
# _framework density 21.676836999999999
#
# number of rings (size 3 to 8) (size 9 to 14) (size 15 to 20)
#    0.000    0.857    7.143    0.857    2.000    0.571 
#    0.000    2.857    0.000    0.000    0.000    0.000 
#    0.000    0.000    0.000    0.000    0.000    0.000 
#
# Total GULP energy -156445.832905 kJ/mol
# GULP energy per Si atom -5587.351175 kJ/mol
# Density = 2.162750 g / cm^3
# Si number density = 21.676837 Si / 1000 Ang^3
#
#
#
# Elastic Constant Matrix: (Units=GPa)
#
#
# Indices 1 2 3 4 5 6 
#
# 1 61.4424 -11.6726 8.7159 0.0000 18.6909 0.0000
# 2 -11.6726 51.3828 0.3802 0.0000 -1.1906 0.0000
# 3 8.7159 0.3802 88.9537 0.0000 18.7537 0.0000
# 4 0.0000 0.0000 0.0000 26.0920 0.0000 9.4681
# 5 18.6909 -1.1906 18.7537 0.0000 25.2636 0.0000
# 6 0.0000 0.0000 0.0000 9.4681 0.0000 17.7653
#
#
#
# Elastic Compliance Matrix: (Units=1/GPa)
#
#
# Indices 1 2 3 4 5 6 
#
# 1 0.022209 0.004634 0.001449 0.000000 -0.017289 0.000000
# 2 0.004634 0.020458 -0.000026 0.000000 -0.002445 0.000000
# 3 0.001449 -0.000026 0.013428 0.000000 -0.011041 0.000000
# 4 0.000000 0.000000 0.000000 0.047515 0.000000 -0.025323
# 5 -0.017289 -0.002445 -0.011041 0.000000 0.060454 0.000000
# 6 0.000000 0.000000 0.000000 -0.025323 0.000000 0.069786
#
#
# Mechanical properties :
#
#
# Convention : Reuss Voigt Hill
#
# Bulk Modulus (GPa) = 14.66085 21.84732 18.25408
# Shear Modulus (GPa) = 20.45220 27.44788 23.95004
#
# Velocity S-wave (km/s) = 3.07498 3.56227 3.32756
# Velocity P-wave (km/s) = 4.40289 5.19810 4.81693
#
# Compressibility (1/GPa) = 0.06820888
#
# Stress axis : x y z
#
# Youngs Moduli (GPa) = 45.02587 48.88066 74.47330
#
# Poissons Ratio (x) = -0.22651 -0.10791
# Poissons Ratio (y) = -0.20865 0.00194
# Poissons Ratio (z) = -0.06524 0.00127
#
# Static dielectric constant tensor:
#      x y z
#    x 1.808770 0.000000 0.011230 
#    y 0.000000 1.816870 0.000000 
#    z 0.011230 0.000000 1.822330 
# 
# From -- ./inp_files/205346.got.cif
#   From: 2010.05.17/outbox.cif.g08.bks.cpg/sg15_103_cif.got.tgz:205346.got - 2010.06.03 18:47:42.
