data_PCOD9301544
_publ_section_title
;
Structure prediction by ZEFSAII (Michael W. Deem and Ramdas Pophale) SiO2 
 PCOD9301544
Probable space group: C 2/C
;
_chemical_formula_sum "Si O2"
_cell_formula_units_Z 64
_cell_length_a 26.567912
_cell_length_b 14.153918
_cell_length_c 9.897337
_cell_angle_alpha 90.000000
_cell_angle_beta 79.545206
_cell_angle_gamma 90.000000
_cell_volume 3660.007267
_symmetry_space_group_name_H-M "C 2/C"
_symmetry_group_IT_number 15
_symmetry_cell_setting 'monoclinic'
loop_
_space_group_symop_operation_xyz
x,y,z
-x,y,1/2-z
-x,-y,-z
x,-y,1/2+z
1/2+x,1/2+y,z
1/2-x,1/2+y,1/2-z
1/2-x,1/2-y,-z
1/2+x,1/2-y,1/2+z
loop_
_atom_site_type_symbol
_atom_site_label
_atom_site_fract_x
_atom_site_fract_y
_atom_site_fract_z
Si Si1 0.692065 0.998363 0.435853
Si Si2 0.264553 0.482622 0.656449
Si Si3 0.555164 0.866935 0.662505
Si Si4 0.792265 0.785848 0.777801
Si Si5 0.881679 0.657879 0.610811
Si Si6 0.117675 0.332300 0.900337
Si Si7 0.445317 0.089735 0.832196
Si Si8 0.691577 0.670961 0.913568
O O1 0.731111 0.990572 0.538393
O O2 0.650120 0.917499 0.461267
O O3 0.725477 0.982771 0.288367
O O4 0.662933 0.097514 0.430290
O O5 0.280380 0.377653 0.692342
O O6 0.308697 0.560667 0.622859
O O7 0.500000 0.837304 0.750000
O O8 0.574164 0.813715 0.517691
O O9 0.596193 0.856598 0.763613
O O10 0.550576 0.979119 0.631730
O O11 0.840900 0.732512 0.689063
O O12 0.741832 0.719685 0.819915
O O13 0.803610 0.817406 0.926544
O O14 0.905806 0.605236 0.728510
O O15 0.142276 0.229236 0.891583
O O16 0.073250 0.351226 0.030479
O O17 0.500000 0.120625 0.750000
#
# Coordination Sequence:
#
# PCOD9301544 Si02
#       8
#     8   8   8   8   8   8   8   8
#     4  12  21  33  56  84 118 159 195 231 278 339
#     4  12  23  38  55  82 122 155 199 238 273 331
#     4  11  23  37  55  88 124 150 189 245 291 339
#     4  11  23  38  58  84 117 155 197 236 281 343
#     4  12  22  36  57  85 116 158 196 230 285 349
#     4  12  21  37  59  82 119 164 191 227 291 346
#     4  11  21  36  59  85 116 155 195 237 287 351
#     4  11  22  38  58  84 117 156 194 234 285 340
#
# _framework density 17.486302999999999
#
# number of rings (size 3 to 8) (size 9 to 14) (size 15 to 20)
#    0.000    0.500    7.500    3.000    0.000    3.500 
#    0.000    0.000    0.000    0.000    0.000    5.250 
#    0.000    0.000    0.000    0.000    0.000    0.000 
#
# Total GULP energy -178682.002664 kJ/mol
# GULP energy per Si atom -5583.812583 kJ/mol
# Density = 1.744650 g / cm^3
# Si number density = 17.486303 Si / 1000 Ang^3
#
#
#
# Elastic Constant Matrix: (Units=GPa)
#
#
# Indices 1 2 3 4 5 6 
#
# 1 48.4237 22.3024 21.0192 0.0000 -10.6508 0.0000
# 2 22.3024 68.7553 17.7664 0.0000 -2.1252 0.0000
# 3 21.0192 17.7664 113.6176 0.0000 -14.4695 0.0000
# 4 0.0000 0.0000 0.0000 0.9885 0.0000 -8.0100
# 5 -10.6508 -2.1252 -14.4695 0.0000 35.8502 0.0000
# 6 0.0000 0.0000 0.0000 -8.0100 0.0000 20.4897
#
#
#
# Elastic Compliance Matrix: (Units=1/GPa)
#
#
# Indices 1 2 3 4 5 6 
#
# 1 0.026906 -0.007768 -0.002955 0.000000 0.006340 0.000000
# 2 -0.007768 0.017400 -0.001525 0.000000 -0.001892 0.000000
# 3 -0.002955 -0.001525 0.009976 0.000000 0.003058 0.000000
# 4 0.000000 0.000000 0.000000 -0.466671 0.000000 -0.182435
# 5 0.006340 -0.001892 0.003058 0.000000 0.030900 0.000000
# 6 0.000000 0.000000 0.000000 -0.182435 0.000000 -0.022514
#
#
# Mechanical properties :
#
#
# Convention : Reuss Voigt Hill
#
# Bulk Modulus (GPa) = 33.57326 39.21919 36.39622
# Shear Modulus (GPa) = -13.52891 22.77958 4.62533
#
# Velocity S-wave (km/s) = -2.78454 3.61322 1.62815
# Velocity P-wave (km/s) = 2.98383 6.31541 4.93901
#
# Compressibility (1/GPa) = 0.02978561
#
# Stress axis : x y z
#
# Youngs Moduli (GPa) = 37.16620 57.47275 100.23988
#
# Poissons Ratio (x) = 0.44645 0.29626
# Poissons Ratio (y) = 0.28871 0.15283
# Poissons Ratio (z) = 0.10984 0.08762
#
# Static dielectric constant tensor:
#      x y z
#    x 1.620990 0.000000 -0.016350 
#    y 0.000000 1.600180 0.000000 
#    z -0.016350 0.000000 1.611420 
# 
# From -- ./inp_files/66193.got.cif
#   From: 2010.05.17/outbox.cif.g08.bks.cpg/sg15_34_cif.got.tgz:66193.got - 2010.06.03 18:47:42.
