data_PCOD9301190
_publ_section_title
;
Structure prediction by ZEFSAII (Michael W. Deem and Ramdas Pophale) SiO2 
 PCOD9301190
Probable space group: C 2/C
;
_chemical_formula_sum "Si O2"
_cell_formula_units_Z 44
_cell_length_a 10.741761
_cell_length_b 22.950859
_cell_length_c 13.439917
_cell_angle_alpha 90.000000
_cell_angle_beta 142.109421
_cell_angle_gamma 90.000000
_cell_volume 2034.929291
_symmetry_space_group_name_H-M "C 2/C"
_symmetry_group_IT_number 15
_symmetry_cell_setting 'monoclinic'
loop_
_space_group_symop_operation_xyz
x,y,z
-x,y,1/2-z
-x,-y,-z
x,-y,1/2+z
1/2+x,1/2+y,z
1/2-x,1/2+y,1/2-z
1/2-x,1/2-y,-z
1/2+x,1/2-y,1/2+z
loop_
_atom_site_type_symbol
_atom_site_label
_atom_site_fract_x
_atom_site_fract_y
_atom_site_fract_z
Si Si1 0.500000 0.123030 0.750000
Si Si2 0.814074 0.043296 0.857999
Si Si3 0.500000 0.717449 0.750000
Si Si4 0.500000 0.962808 0.750000
Si Si5 0.377492 0.790072 0.006657
Si Si6 0.721574 0.299672 0.698372
Si Si7 0.638737 0.383205 0.473158
O O1 0.713476 0.088534 0.873380
O O2 0.518122 0.161099 0.860669
O O3 0.619008 0.000013 0.739567
O O4 0.921421 0.082834 0.839819
O O5 0.000000 0.000000 0.000000
O O6 0.403219 0.761750 0.767376
O O7 0.361132 0.671461 0.601446
O O8 0.329423 0.925942 0.584269
O O9 0.539892 0.744937 0.069194
O O10 0.250000 0.750000 0.000000
O O11 0.254588 0.812973 0.834901
O O12 0.674127 0.356353 0.604960
#
# Coordination Sequence:
#
# PCOD9301190 Si02
#       7
#     4   8   4   4   8   8   8
#     4  11  20  38  69  94 125 174 212 255 324 378
#     4   9  20  42  68  87 125 164 210 280 319 365
#     4  12  25  40  63  98 133 172 209 254 318 390
#     4   9  21  40  70  88 118 166 215 269 328 366
#     4  12  23  39  62  95 133 171 209 251 310 385
#     4  12  24  40  61  95 140 168 206 256 311 395
#     4  11  22  40  65  92 127 172 208 260 323 376
#
# _framework density 21.622374000000001
#
# number of rings (size 3 to 8) (size 9 to 14) (size 15 to 20)
#    0.000    1.091    3.636    3.273    2.545    0.000 
#    0.000    0.909   32.000    0.000    0.000    0.000 
#    0.000    0.000    0.000    0.000    0.000    0.000 
#
# Total GULP energy -122530.412905 kJ/mol
# GULP energy per Si atom -5569.564223 kJ/mol
# Density = 2.157316 g / cm^3
# Si number density = 21.622374 Si / 1000 Ang^3
#
#
#
# Elastic Constant Matrix: (Units=GPa)
#
#
# Indices 1 2 3 4 5 6 
#
# 1 92.3641 30.6753 32.7413 0.0000 20.2842 0.0000
# 2 30.6753 74.9093 16.0766 0.0000 14.2673 0.0000
# 3 32.7413 16.0766 78.2056 0.0000 -9.2113 0.0000
# 4 0.0000 0.0000 0.0000 23.5483 0.0000 14.0660
# 5 20.2842 14.2673 -9.2113 0.0000 44.6439 0.0000
# 6 0.0000 0.0000 0.0000 14.0660 0.0000 39.7291
#
#
#
# Elastic Compliance Matrix: (Units=1/GPa)
#
#
# Indices 1 2 3 4 5 6 
#
# 1 0.016167 -0.003693 -0.006903 0.000000 -0.007590 0.000000
# 2 -0.003693 0.016086 -0.002222 0.000000 -0.003921 0.000000
# 3 -0.006903 -0.002222 0.017000 0.000000 0.007354 0.000000
# 4 0.000000 0.000000 0.000000 0.053855 0.000000 -0.019067
# 5 -0.007590 -0.003921 0.007354 0.000000 0.028618 0.000000
# 6 0.000000 0.000000 0.000000 -0.019067 0.000000 0.031921
#
#
# Mechanical properties :
#
#
# Convention : Reuss Voigt Hill
#
# Bulk Modulus (GPa) = 42.34588 44.94058 43.64323
# Shear Modulus (GPa) = 25.36050 32.64998 29.00524
#
# Velocity S-wave (km/s) = 3.42845 3.89010 3.66655
# Velocity P-wave (km/s) = 5.94131 6.40364 6.17680
#
# Compressibility (1/GPa) = 0.02361505
#
# Stress axis : x y z
#
# Youngs Moduli (GPa) = 61.85385 62.16718 58.82380
#
# Poissons Ratio (x) = 0.22961 0.40607
# Poissons Ratio (y) = 0.22845 0.13072
# Poissons Ratio (z) = 0.42699 0.13815
#
# Static dielectric constant tensor:
#      x y z
#    x 1.646490 0.000000 -0.139120 
#    y 0.000000 1.835140 0.000000 
#    z -0.139120 0.000000 1.676420 
# 
# From -- ./inp_files/31431.got.cif
#   From: 2010.05.17/outbox.cif.g08.bks.cpg/sg15_16_cif.got.tgz:31431.got - 2010.06.03 18:47:42.
