data_PCOD9301028
_publ_section_title
;
Structure prediction by ZEFSAII (Michael W. Deem and Ramdas Pophale) SiO2 
 PCOD9301028
Probable space group: C 2/C
;
_chemical_formula_sum "Si O2"
_cell_formula_units_Z 52
_cell_length_a 26.051075
_cell_length_b 13.500417
_cell_length_c 8.389598
_cell_angle_alpha 90.000000
_cell_angle_beta 50.869711
_cell_angle_gamma 90.000000
_cell_volume 2288.837686
_symmetry_space_group_name_H-M "C 2/C"
_symmetry_group_IT_number 15
_symmetry_cell_setting 'monoclinic'
loop_
_space_group_symop_operation_xyz
x,y,z
-x,y,1/2-z
-x,-y,-z
x,-y,1/2+z
1/2+x,1/2+y,z
1/2-x,1/2+y,1/2-z
1/2-x,1/2-y,-z
1/2+x,1/2-y,1/2+z
loop_
_atom_site_type_symbol
_atom_site_label
_atom_site_fract_x
_atom_site_fract_y
_atom_site_fract_z
Si Si1 0.304136 0.735732 0.609921
Si Si2 0.917643 0.212780 0.136342
Si Si3 0.594446 0.471605 0.038753
Si Si4 0.683002 0.074458 0.233117
Si Si5 0.000000 0.157853 0.250000
Si Si6 0.842112 0.639149 0.574747
Si Si7 0.170935 0.084431 0.679902
O O1 0.349636 0.700781 0.373947
O O2 0.319712 0.850497 0.611509
O O3 0.227660 0.699001 0.754428
O O4 0.328495 0.685918 0.726513
O O5 0.937070 0.111678 0.008340
O O6 0.899690 0.293982 0.039327
O O7 0.975393 0.225506 0.153000
O O8 0.664464 0.498050 0.821928
O O9 0.557588 0.576169 0.110775
O O10 0.610299 0.429472 0.179511
O O11 0.660352 0.965811 0.329473
O O12 0.652447 0.115333 0.125404
O O13 0.760458 0.072678 0.040967
#
# Coordination Sequence:
#
# PCOD9301028 Si02
#       7
#     8   8   8   8   4   8   8
#     4  11  22  39  62  96 133 170 212 265 324 398
#     4  12  24  41  61  90 127 172 219 266 328 379
#     4  12  22  39  61  92 133 171 212 263 327 385
#     4  11  22  39  64 100 133 173 211 258 330 394
#     4  12  26  42  62  92 130 176 224 272 324 380
#     4  11  23  39  63  95 130 173 211 267 325 389
#     4  11  20  36  61  96 133 169 205 262 324 398
#
# _framework density 22.718954
#
# number of rings (size 3 to 8) (size 9 to 14) (size 15 to 20)
#    0.000    0.615    3.077    8.308    0.000    0.000 
#    0.000    0.000    0.000    3.692    0.000    1.077 
#    0.000    0.000    0.000    0.000    0.000    0.000 
#
# Total GULP energy -145218.050162 kJ/mol
# GULP energy per Si atom -5585.309622 kJ/mol
# Density = 2.266724 g / cm^3
# Si number density = 22.718954 Si / 1000 Ang^3
#
#
#
# Elastic Constant Matrix: (Units=GPa)
#
#
# Indices 1 2 3 4 5 6 
#
# 1 133.5504 51.8515 17.2376 0.0000 33.5132 0.0000
# 2 51.8515 98.4361 0.7623 0.0000 12.8432 0.0000
# 3 17.2376 0.7623 37.6648 0.0000 18.9059 0.0000
# 4 0.0000 0.0000 0.0000 25.0692 0.0000 17.7192
# 5 33.5132 12.8432 18.9059 0.0000 28.9775 0.0000
# 6 0.0000 0.0000 0.0000 17.7192 0.0000 36.0812
#
#
#
# Elastic Compliance Matrix: (Units=1/GPa)
#
#
# Indices 1 2 3 4 5 6 
#
# 1 0.012511 -0.004925 0.000805 0.000000 -0.012811 0.000000
# 2 -0.004925 0.012994 0.003008 0.000000 -0.002026 0.000000
# 3 0.000805 0.003008 0.040531 0.000000 -0.028707 0.000000
# 4 0.000000 0.000000 0.000000 0.061097 0.000000 -0.030004
# 5 -0.012811 -0.002026 -0.028707 0.000000 0.068954 0.000000
# 6 0.000000 0.000000 0.000000 -0.030004 0.000000 0.042450
#
#
# Mechanical properties :
#
#
# Convention : Reuss Voigt Hill
#
# Bulk Modulus (GPa) = 15.67133 45.48379 30.57756
# Shear Modulus (GPa) = 19.08166 31.34557 25.21361
#
# Velocity S-wave (km/s) = 2.90125 3.71847 3.33499
# Velocity P-wave (km/s) = 4.25862 6.20482 5.32145
#
# Compressibility (1/GPa) = 0.06381081
#
# Stress axis : x y z
#
# Youngs Moduli (GPa) = 79.92984 76.95806 24.67272
#
# Poissons Ratio (x) = 0.37901 -0.01985
# Poissons Ratio (y) = 0.39365 -0.07421
# Poissons Ratio (z) = -0.06432 -0.23147
#
# Static dielectric constant tensor:
#      x y z
#    x 1.913700 0.000000 0.016210 
#    y 0.000000 1.894880 0.000000 
#    z 0.016210 0.000000 1.954310 
# 
# From -- ./inp_files/65372.got.cif
#   From: 2010.05.17/outbox.cif.g08.bks.cpg/sg15_33_cif.got.tgz:65372.got - 2010.06.03 18:47:42.
