data_PCOD9301073
_publ_section_title
;
Structure prediction by ZEFSAII (Michael W. Deem and Ramdas Pophale) SiO2 
 PCOD9301073
Probable space group: C 2/C
;
_chemical_formula_sum "Si O2"
_cell_formula_units_Z 60
_cell_length_a 16.265321
_cell_length_b 14.709671
_cell_length_c 11.250610
_cell_angle_alpha 90.000000
_cell_angle_beta 94.378648
_cell_angle_gamma 90.000000
_cell_volume 2683.936446
_symmetry_space_group_name_H-M "C 2/C"
_symmetry_group_IT_number 15
_symmetry_cell_setting 'monoclinic'
loop_
_space_group_symop_operation_xyz
x,y,z
-x,y,1/2-z
-x,-y,-z
x,-y,1/2+z
1/2+x,1/2+y,z
1/2-x,1/2+y,1/2-z
1/2-x,1/2-y,-z
1/2+x,1/2-y,1/2+z
loop_
_atom_site_type_symbol
_atom_site_label
_atom_site_fract_x
_atom_site_fract_y
_atom_site_fract_z
Si Si1 0.265796 0.641495 0.495134
Si Si2 0.234081 0.328562 0.735381
Si Si3 0.109418 0.234993 0.372895
Si Si4 0.120819 0.430258 0.357163
Si Si5 0.804586 0.158459 0.891922
Si Si6 0.343962 0.999872 0.890455
Si Si7 0.000000 0.103477 0.250000
Si Si8 0.411421 0.520151 0.432847
O O1 0.250000 0.750000 0.500000
O O2 0.226829 0.622994 0.360763
O O3 0.217502 0.583593 0.588150
O O4 0.357312 0.597705 0.493216
O O5 0.328072 0.294757 0.725635
O O6 0.185864 0.233043 0.712418
O O7 0.206283 0.406293 0.640218
O O8 0.073198 0.335050 0.359233
O O9 0.167508 0.219747 0.492521
O O10 0.034171 0.166245 0.358058
O O11 0.214737 0.388342 0.371608
O O12 0.108516 0.484179 0.479348
O O13 0.109475 0.478129 0.228178
O O14 0.861559 0.072240 0.917192
O O15 0.927942 0.045887 0.297988
O O16 0.500000 0.500000 0.500000
#
# Coordination Sequence:
#
# PCOD9301073 Si02
#       8
#     8   8   8   8   8   8   4   8
#     4  12  25  40  62  97 141 176 226 289 341 404
#     4  11  20  37  63  93 127 169 223 281 331 394
#     4  11  20  39  59  89 122 175 222 261 330 406
#     4  11  22  36  66  92 130 165 221 282 331 393
#     4  11  20  37  61  92 129 175 223 272 333 403
#     4  12  21  37  61  96 126 166 215 282 342 386
#     4  12  26  38  64  88 138 174 222 266 334 440
#     4  12  25  41  63  99 138 186 218 277 358 431
#
# _framework density 22.355225000000001
#
# number of rings (size 3 to 8) (size 9 to 14) (size 15 to 20)
#    0.000    0.533    8.000    2.400    0.000    1.067 
#    0.000    0.000    0.000    0.800    3.467    0.000 
#    0.000    0.000    0.000    0.000    0.000    0.000 
#
# Total GULP energy -167253.251677 kJ/mol
# GULP energy per Si atom -5575.108389 kJ/mol
# Density = 2.230434 g / cm^3
# Si number density = 22.355225 Si / 1000 Ang^3
#
#
#
# Elastic Constant Matrix: (Units=GPa)
#
#
# Indices 1 2 3 4 5 6 
#
# 1 37.5521 26.5801 0.7307 0.0000 7.3442 0.0000
# 2 26.5801 143.5443 22.4947 0.0000 -4.5352 0.0000
# 3 0.7307 22.4947 115.9371 0.0000 4.7510 0.0000
# 4 0.0000 0.0000 0.0000 45.6837 0.0000 4.4627
# 5 7.3442 -4.5352 4.7510 0.0000 20.1760 0.0000
# 6 0.0000 0.0000 0.0000 4.4627 0.0000 23.6548
#
#
#
# Elastic Compliance Matrix: (Units=1/GPa)
#
#
# Indices 1 2 3 4 5 6 
#
# 1 0.034486 -0.007122 0.001762 0.000000 -0.014569 0.000000
# 2 -0.007122 0.008734 -0.001854 0.000000 0.004992 0.000000
# 3 0.001762 -0.001854 0.009105 0.000000 -0.003202 0.000000
# 4 0.000000 0.000000 0.000000 0.022301 0.000000 -0.004207
# 5 -0.014569 0.004992 -0.003202 0.000000 0.056743 0.000000
# 6 0.000000 0.000000 0.000000 -0.004207 0.000000 0.043068
#
#
# Mechanical properties :
#
#
# Convention : Reuss Voigt Hill
#
# Bulk Modulus (GPa) = 26.38867 44.07161 35.23014
# Shear Modulus (GPa) = 24.81414 34.38476 29.59945
#
# Velocity S-wave (km/s) = 3.33527 3.92613 3.64270
# Velocity P-wave (km/s) = 5.16352 6.34899 5.78669
#
# Compressibility (1/GPa) = 0.03789505
#
# Stress axis : x y z
#
# Youngs Moduli (GPa) = 28.99748 114.50063 109.82679
#
# Poissons Ratio (x) = 0.81548 -0.19346
# Poissons Ratio (y) = 0.20652 0.20364
# Poissons Ratio (z) = -0.05108 0.21231
#
# Static dielectric constant tensor:
#      x y z
#    x 1.820210 0.000000 0.022470 
#    y 0.000000 1.943510 0.000000 
#    z 0.022470 0.000000 1.935130 
# 
# From -- ./inp_files/105347.got.cif
#   From: 2010.05.17/outbox.cif.g08.bks.cpg/sg15_53_cif.got.tgz:105347.got - 2010.06.03 18:47:42.
