data_PCOD9301079
_publ_section_title
;
Structure prediction by ZEFSAII (Michael W. Deem and Ramdas Pophale) SiO2 
 PCOD9301079
Probable space group: C 2/C
;
_chemical_formula_sum "Si O2"
_cell_formula_units_Z 56
_cell_length_a 17.404022
_cell_length_b 8.697423
_cell_length_c 26.499901
_cell_angle_alpha 90.000000
_cell_angle_beta 138.187374
_cell_angle_gamma 90.000000
_cell_volume 2674.316435
_symmetry_space_group_name_H-M "C 2/C"
_symmetry_group_IT_number 15
_symmetry_cell_setting 'monoclinic'
loop_
_space_group_symop_operation_xyz
x,y,z
-x,y,1/2-z
-x,-y,-z
x,-y,1/2+z
1/2+x,1/2+y,z
1/2-x,1/2+y,1/2-z
1/2-x,1/2-y,-z
1/2+x,1/2-y,1/2+z
loop_
_atom_site_type_symbol
_atom_site_label
_atom_site_fract_x
_atom_site_fract_y
_atom_site_fract_z
Si Si1 0.789478 0.446072 0.324918
Si Si2 0.038010 0.714141 0.104771
Si Si3 0.957541 0.264416 0.672729
Si Si4 0.182762 0.968469 0.127934
Si Si5 0.545594 0.893577 0.221144
Si Si6 0.634048 0.328545 0.696821
Si Si7 0.196925 0.255651 0.065855
O O1 0.899786 0.548579 0.363284
O O2 0.687037 0.565962 0.266298
O O3 0.778662 0.303362 0.280979
O O4 0.801663 0.368915 0.385007
O O5 0.112044 0.811300 0.099742
O O6 0.024974 0.784836 0.155043
O O7 0.908781 0.702204 0.021144
O O8 0.822685 0.230551 0.603112
O O9 0.000000 0.214232 0.750000
O O10 0.977131 0.448547 0.681667
O O11 0.318666 0.938907 0.205675
O O12 0.121667 0.068639 0.141875
O O13 0.179568 0.080148 0.077999
O O14 0.500000 0.819557 0.250000
O O15 0.532561 0.771331 0.170191
#
# Coordination Sequence:
#
# PCOD9301079 Si02
#       7
#     8   8   8   8   8   8   8
#     4  11  22  37  67  97 129 164 221 269 321 375
#     4  12  23  43  66  94 135 172 212 266 329 392
#     4  11  23  41  66  93 125 170 217 265 319 382
#     4  11  22  39  65  94 124 168 214 265 320 385
#     4  11  20  37  62  89 123 162 207 268 324 365
#     4  11  20  37  64  96 123 161 216 272 315 369
#     4  11  25  42  65  96 131 174 216 261 330 400
#
# _framework density 20.939931000000001
#
# number of rings (size 3 to 8) (size 9 to 14) (size 15 to 20)
#    0.000    0.857    7.143    1.286    4.000    0.000 
#    2.571    0.000    0.000    0.857    0.000    0.000 
#    0.000    0.000    0.000    0.000    0.000    0.000 
#
# Total GULP energy -156152.463410 kJ/mol
# GULP energy per Si atom -5576.873693 kJ/mol
# Density = 2.089227 g / cm^3
# Si number density = 20.939931 Si / 1000 Ang^3
#
#
#
# Elastic Constant Matrix: (Units=GPa)
#
#
# Indices 1 2 3 4 5 6 
#
# 1 91.8957 11.8509 6.4056 0.0000 3.6971 0.0000
# 2 11.8509 72.3539 13.7762 0.0000 2.8367 0.0000
# 3 6.4056 13.7762 58.2146 0.0000 13.4218 0.0000
# 4 0.0000 0.0000 0.0000 17.3587 0.0000 -1.3972
# 5 3.6971 2.8367 13.4218 0.0000 29.2406 0.0000
# 6 0.0000 0.0000 0.0000 -1.3972 0.0000 31.5083
#
#
#
# Elastic Compliance Matrix: (Units=1/GPa)
#
#
# Indices 1 2 3 4 5 6 
#
# 1 0.011180 -0.001677 -0.000609 0.000000 -0.000971 0.000000
# 2 -0.001677 0.014726 -0.003377 0.000000 0.000334 0.000000
# 3 -0.000609 -0.003377 0.020075 0.000000 -0.008810 0.000000
# 4 0.000000 0.000000 0.000000 0.057814 0.000000 0.002564
# 5 -0.000971 0.000334 -0.008810 0.000000 0.038333 0.000000
# 6 0.000000 0.000000 0.000000 0.002564 0.000000 0.031851
#
#
# Mechanical properties :
#
#
# Convention : Reuss Voigt Hill
#
# Bulk Modulus (GPa) = 28.85709 31.83660 30.34684
# Shear Modulus (GPa) = 25.39904 28.31698 26.85801
#
# Velocity S-wave (km/s) = 3.48652 3.68135 3.58526
# Velocity P-wave (km/s) = 5.47892 5.77118 5.62695
#
# Compressibility (1/GPa) = 0.03465353
#
# Stress axis : x y z
#
# Youngs Moduli (GPa) = 89.44771 67.90910 49.81250
#
# Poissons Ratio (x) = 0.11389 0.03035
# Poissons Ratio (y) = 0.15001 0.16822
# Poissons Ratio (z) = 0.05451 0.22934
#
# Static dielectric constant tensor:
#      x y z
#    x 1.801450 0.000000 -0.036510 
#    y 0.000000 1.775990 0.000000 
#    z -0.036510 0.000000 1.770790 
# 
# From -- ./inp_files/209533.got.cif
#   From: 2010.05.17/outbox.cif.g08.bks.cpg/sg15_105_cif.got.tgz:209533.got - 2010.06.03 18:47:42.
