data_PCOD9302449
_publ_section_title
;
Structure prediction by ZEFSAII (Michael W. Deem and Ramdas Pophale) SiO2 
 PCOD9302449
Probable space group: C 2/C
;
_chemical_formula_sum "Si O2"
_cell_formula_units_Z 48
_cell_length_a 10.758052
_cell_length_b 25.213699
_cell_length_c 9.817939
_cell_angle_alpha 90.000000
_cell_angle_beta 64.817473
_cell_angle_gamma 90.000000
_cell_volume 2410.007574
_symmetry_space_group_name_H-M "C 2/C"
_symmetry_group_IT_number 15
_symmetry_cell_setting 'monoclinic'
loop_
_space_group_symop_operation_xyz
x,y,z
-x,y,1/2-z
-x,-y,-z
x,-y,1/2+z
1/2+x,1/2+y,z
1/2-x,1/2+y,1/2-z
1/2-x,1/2-y,-z
1/2+x,1/2-y,1/2+z
loop_
_atom_site_type_symbol
_atom_site_label
_atom_site_fract_x
_atom_site_fract_y
_atom_site_fract_z
Si Si1 0.194728 0.104422 0.409037
Si Si2 0.365525 0.793606 0.908583
Si Si3 0.484947 0.141124 0.601403
Si Si4 0.194239 0.457351 0.400504
Si Si5 0.572416 0.554448 0.920554
Si Si6 0.265134 0.074219 0.087251
O O1 0.277494 0.158898 0.380769
O O2 0.285216 0.063126 0.455223
O O3 0.179418 0.085811 0.261909
O O4 0.041909 0.100234 0.541186
O O5 0.500000 0.780230 0.750000
O O6 0.250000 0.750000 0.000000
O O7 0.421658 0.817296 0.025436
O O8 0.500000 0.159159 0.750000
O O9 0.396088 0.086556 0.634569
O O10 0.631780 0.122455 0.479632
O O11 0.340594 0.455347 0.255482
O O12 0.154658 0.518873 0.422796
O O13 0.500000 0.500000 0.000000
O O14 0.675537 0.568034 0.994736
#
# Coordination Sequence:
#
# PCOD9302449 Si02
#       6
#     8   8   8   8   8   8
#     4  11  24  38  65  97 132 177 225 267 327 395
#     4  11  26  52  78  97 128 172 230 297 353 408
#     4  11  24  44  65 100 134 169 224 273 344 402
#     4  11  22  36  60  93 139 189 220 263 311 399
#     4  12  22  36  58  93 144 184 223 261 314 388
#     4  12  21  39  61  92 143 181 223 265 317 393
#
# _framework density 19.916948999999999
#
# number of rings (size 3 to 8) (size 9 to 14) (size 15 to 20)
#    0.000    0.667    6.667    1.500    0.000    2.667 
#    0.000    2.500    0.000    0.000    0.000    0.000 
#    0.000    0.000    0.000    0.000    0.000    0.000 
#
# Total GULP energy -133997.582859 kJ/mol
# GULP energy per Si atom -5583.232619 kJ/mol
# Density = 1.987162 g / cm^3
# Si number density = 19.916949 Si / 1000 Ang^3
#
#
#
# Elastic Constant Matrix: (Units=GPa)
#
#
# Indices 1 2 3 4 5 6 
#
# 1 86.4232 40.1069 26.5965 0.0000 1.6086 0.0000
# 2 40.1069 83.6109 39.6641 0.0000 -1.7937 0.0000
# 3 26.5965 39.6641 104.4819 0.0000 0.9207 0.0000
# 4 0.0000 0.0000 0.0000 12.3258 0.0000 -9.9891
# 5 1.6086 -1.7937 0.9207 0.0000 42.4654 0.0000
# 6 0.0000 0.0000 0.0000 -9.9891 0.0000 44.9045
#
#
#
# Elastic Compliance Matrix: (Units=1/GPa)
#
#
# Indices 1 2 3 4 5 6 
#
# 1 0.015063 -0.006620 -0.001314 0.000000 -0.000822 0.000000
# 2 -0.006620 0.017519 -0.004975 0.000000 0.001099 0.000000
# 3 -0.001314 -0.004975 0.011798 0.000000 -0.000416 0.000000
# 4 0.000000 0.000000 0.000000 0.098974 0.000000 0.022017
# 5 -0.000822 0.001099 -0.000416 0.000000 0.023635 0.000000
# 6 0.000000 0.000000 0.000000 0.022017 0.000000 0.027167
#
#
# Mechanical properties :
#
#
# Convention : Reuss Voigt Hill
#
# Bulk Modulus (GPa) = 53.87400 54.13899 54.00649
# Shear Modulus (GPa) = 22.10808 31.14902 26.62855
#
# Velocity S-wave (km/s) = 3.33530 3.95897 3.66044
# Velocity P-wave (km/s) = 6.47614 6.93825 6.71117
#
# Compressibility (1/GPa) = 0.01856183
#
# Stress axis : x y z
#
# Youngs Moduli (GPa) = 66.38944 57.07980 84.75996
#
# Poissons Ratio (x) = 0.37784 0.11138
# Poissons Ratio (y) = 0.43947 0.42172
# Poissons Ratio (z) = 0.08724 0.28400
#
# Static dielectric constant tensor:
#      x y z
#    x 1.735240 0.000000 -0.019710 
#    y 0.000000 1.692850 0.000000 
#    z -0.019710 0.000000 1.720230 
# 
# From -- ./inp_files/32534.got.cif
#   From: 2010.05.17/outbox.cif.g08.bks.cpg/sg15_17_cif.got.tgz:32534.got - 2010.06.03 18:47:42.
