data_PCOD9302643
_publ_section_title
;
Structure prediction by ZEFSAII (Michael W. Deem and Ramdas Pophale) SiO2 
 PCOD9302643
Probable space group: C 2/C
;
_chemical_formula_sum "Si O2"
_cell_formula_units_Z 48
_cell_length_a 13.596174
_cell_length_b 14.370967
_cell_length_c 17.101589
_cell_angle_alpha 90.000000
_cell_angle_beta 34.131891
_cell_angle_gamma 90.000000
_cell_volume 1874.905104
_symmetry_space_group_name_H-M "C 2/C"
_symmetry_group_IT_number 15
_symmetry_cell_setting 'monoclinic'
loop_
_space_group_symop_operation_xyz
x,y,z
-x,y,1/2-z
-x,-y,-z
x,-y,1/2+z
1/2+x,1/2+y,z
1/2-x,1/2+y,1/2-z
1/2-x,1/2-y,-z
1/2+x,1/2-y,1/2+z
loop_
_atom_site_type_symbol
_atom_site_label
_atom_site_fract_x
_atom_site_fract_y
_atom_site_fract_z
Si Si1 0.131845 0.921135 0.306366
Si Si2 0.287442 0.558139 0.380052
Si Si3 0.762859 0.401660 0.971557
Si Si4 0.162574 0.632621 0.684852
Si Si5 0.942541 0.260496 0.454952
Si Si6 0.244490 0.256893 0.377526
O O1 0.226525 0.924928 0.326427
O O2 0.151649 0.818509 0.253893
O O3 0.926653 0.934136 0.436300
O O4 0.223431 0.995983 0.190676
O O5 0.500000 0.571709 0.250000
O O6 0.195169 0.494655 0.507456
O O7 0.174743 0.650386 0.447560
O O8 0.765503 0.325952 0.041137
O O9 0.822234 0.339970 0.857829
O O10 0.304572 0.677744 0.533341
O O11 0.000000 0.584964 0.750000
O O12 0.065602 0.712937 0.801018
O O13 0.063166 0.238449 0.450797
#
# Coordination Sequence:
#
# PCOD9302643 Si02
#       6
#     8   8   8   8   8   8
#     4   9  18  34  56  86 118 160 202 252 308 367
#     4   9  19  35  62  87 119 161 201 250 310 378
#     4   9  16  32  53  86 120 152 195 251 309 359
#     4  11  23  38  61  84 119 158 210 256 298 357
#     4  11  22  39  62  92 119 160 210 253 303 369
#     4   9  17  28  55  83 114 151 195 247 296 361
#
# _framework density 25.601295
#
# number of rings (size 3 to 8) (size 9 to 14) (size 15 to 20)
#    0.000    2.333    1.667    2.500    0.000    6.000 
#    0.000    0.000    7.333    3.000    0.000    0.000 
#    0.000    0.000    0.000    0.000    0.000    0.000 
#
# Total GULP energy -134036.299518 kJ/mol
# GULP energy per Si atom -5584.845813 kJ/mol
# Density = 2.554303 g / cm^3
# Si number density = 25.601295 Si / 1000 Ang^3
#
#
#
# Elastic Constant Matrix: (Units=GPa)
#
#
# Indices 1 2 3 4 5 6 
#
# 1 127.4741 -12.4489 9.2786 0.0003 -13.4592 0.0011
# 2 -12.4489 57.8865 13.2407 -0.0006 2.2492 0.0015
# 3 9.2786 13.2407 66.7161 -0.0014 7.6851 0.0025
# 4 0.0003 -0.0006 -0.0014 30.7424 -0.0002 -0.4344
# 5 -13.4592 2.2492 7.6851 -0.0002 28.8240 -0.0007
# 6 0.0011 0.0015 0.0025 -0.4344 -0.0007 -9.4708
#
#
#
# Elastic Compliance Matrix: (Units=1/GPa)
#
#
# Indices 1 2 3 4 5 6 
#
# 1 0.008686 0.002188 -0.002156 0.000000 0.004460 0.000001
# 2 0.002188 0.018654 -0.004082 0.000000 0.000654 0.000002
# 3 -0.002156 -0.004082 0.016691 0.000001 -0.005138 0.000004
# 4 0.000000 0.000000 0.000001 0.032507 0.000000 -0.001491
# 5 0.004460 0.000654 -0.005138 0.000000 0.038095 -0.000003
# 6 0.000001 0.000002 0.000004 -0.001491 -0.000003 -0.105520
#
#
# Mechanical properties :
#
#
# Convention : Reuss Voigt Hill
#
# Bulk Modulus (GPa) = 27.83106 30.24639 29.03872
# Shear Modulus (GPa) = 171.29072 26.15287 98.72180
#
# Velocity S-wave (km/s) = 8.18855 3.19963 6.21651
# Velocity P-wave (km/s) = 10.01487 5.04878 7.93057
#
# Compressibility (1/GPa) = 0.03593108
#
# Stress axis : x y z
#
# Youngs Moduli (GPa) = 115.12449 53.60806 59.91356
#
# Poissons Ratio (x) = -0.11729 0.12918
# Poissons Ratio (y) = -0.25188 0.24455
# Poissons Ratio (z) = 0.24821 0.21882
#
# Static dielectric constant tensor:
#      x y z
#    x 1.995250 0.000000 0.008650 
#    y 0.000000 2.041730 0.000000 
#    z 0.008650 0.000000 2.078920 
# 
# From -- ./inp_files/244319.got.cif
#   From: 2010.05.17/outbox.cif.g08.bks.cpg/sg15_123_cif.got.tgz:244319.got - 2010.06.03 18:47:42.
