data_PCOD9302446
_publ_section_title
;
Structure prediction by ZEFSAII (Michael W. Deem and Ramdas Pophale) SiO2 
 PCOD9302446
Probable space group: C 2/C
;
_chemical_formula_sum "Si O2"
_cell_formula_units_Z 56
_cell_length_a 18.117233
_cell_length_b 11.100842
_cell_length_c 15.520915
_cell_angle_alpha 90.000000
_cell_angle_beta 121.398148
_cell_angle_gamma 90.000000
_cell_volume 2664.422254
_symmetry_space_group_name_H-M "C 2/C"
_symmetry_group_IT_number 15
_symmetry_cell_setting 'monoclinic'
loop_
_space_group_symop_operation_xyz
x,y,z
-x,y,1/2-z
-x,-y,-z
x,-y,1/2+z
1/2+x,1/2+y,z
1/2-x,1/2+y,1/2-z
1/2-x,1/2-y,-z
1/2+x,1/2-y,1/2+z
loop_
_atom_site_type_symbol
_atom_site_label
_atom_site_fract_x
_atom_site_fract_y
_atom_site_fract_z
Si Si1 0.022865 0.636562 0.484141
Si Si2 0.352456 0.253401 0.065112
Si Si3 0.673111 0.525066 0.443190
Si Si4 0.252434 0.162176 0.341239
Si Si5 0.373124 0.863943 0.761669
Si Si6 0.919011 0.736019 0.557900
Si Si7 0.341276 0.897873 0.158279
O O1 0.110648 0.668021 0.488151
O O2 0.000000 0.500000 0.500000
O O3 0.952257 0.672940 0.369488
O O4 0.005309 0.719777 0.556175
O O5 0.370598 0.396045 0.069283
O O6 0.377784 0.204345 0.174317
O O7 0.250000 0.250000 0.000000
O O8 0.706458 0.553385 0.365710
O O9 0.606585 0.631384 0.427034
O O10 0.758395 0.545047 0.555947
O O11 0.285136 0.147748 0.263935
O O12 0.338975 0.192594 0.448846
O O13 0.193214 0.279146 0.315882
O O14 0.378999 0.004403 0.744221
O O15 0.911953 0.645602 0.633066
#
# Coordination Sequence:
#
# PCOD9302446 Si02
#       7
#     8   8   8   8   8   8   8
#     4  11  25  42  63  90 125 170 211 260 321 378
#     4  12  25  38  61  94 127 163 208 263 320 376
#     4   9  18  37  60  87 124 158 207 258 313 372
#     4   8  18  31  57  88 119 161 205 253 311 375
#     4  11  22  36  60  88 128 162 207 260 316 375
#     4   8  17  37  61  82 115 167 205 247 317 376
#     4   9  16  34  60  90 118 161 208 254 309 380
#
# _framework density 21.017690000000002
#
# number of rings (size 3 to 8) (size 9 to 14) (size 15 to 20)
#    0.000    2.286    1.429    3.000    6.000    0.571 
#    0.000    0.000    0.000    6.857    0.000    0.000 
#    0.000    0.000    0.000    0.000    0.000    0.000 
#
# Total GULP energy -156286.247346 kJ/mol
# GULP energy per Si atom -5581.651691 kJ/mol
# Density = 2.096985 g / cm^3
# Si number density = 21.017690 Si / 1000 Ang^3
#
#
#
# Elastic Constant Matrix: (Units=GPa)
#
#
# Indices 1 2 3 4 5 6 
#
# 1 139.4863 40.1237 30.4971 0.0000 -35.9770 0.0000
# 2 40.1237 91.8640 7.6567 0.0000 -20.6725 0.0000
# 3 30.4971 7.6567 26.4982 0.0000 -13.5434 0.0000
# 4 0.0000 0.0000 0.0000 8.0531 0.0000 -5.9029
# 5 -35.9770 -20.6725 -13.5434 0.0000 31.1255 0.0000
# 6 0.0000 0.0000 0.0000 -5.9029 0.0000 23.4082
#
#
#
# Elastic Compliance Matrix: (Units=1/GPa)
#
#
# Indices 1 2 3 4 5 6 
#
# 1 0.011987 -0.002641 -0.008806 0.000000 0.008270 0.000000
# 2 -0.002641 0.013394 0.002772 0.000000 0.007050 0.000000
# 3 -0.008806 0.002772 0.055055 0.000000 0.015618 0.000000
# 4 0.000000 0.000000 0.000000 0.152333 0.000000 0.038414
# 5 0.008270 0.007050 0.015618 0.000000 0.053165 0.000000
# 6 0.000000 0.000000 0.000000 0.038414 0.000000 0.052407
#
#
# Mechanical properties :
#
#
# Convention : Reuss Voigt Hill
#
# Bulk Modulus (GPa) = 15.85104 46.04483 30.94794
# Shear Modulus (GPa) = 13.27241 24.48875 18.88058
#
# Velocity S-wave (km/s) = 2.51567 3.41713 3.00045
# Velocity P-wave (km/s) = 3.99953 6.12571 5.17303
#
# Compressibility (1/GPa) = 0.06308733
#
# Stress axis : x y z
#
# Youngs Moduli (GPa) = 83.42222 74.65755 18.16355
#
# Poissons Ratio (x) = 0.19715 0.15996
# Poissons Ratio (y) = 0.22029 -0.05035
# Poissons Ratio (z) = 0.73465 -0.20697
#
# Static dielectric constant tensor:
#      x y z
#    x 1.820330 0.000000 0.005950 
#    y 0.000000 1.792260 0.000000 
#    z 0.005950 0.000000 1.793230 
# 
# From -- ./inp_files/161427.got.cif
#   From: 2010.05.17/outbox.cif.g08.bks.cpg/sg15_81_cif.got.tgz:161427.got - 2010.06.03 18:47:42.
