data_PCOD9302587
_publ_section_title
;
Structure prediction by ZEFSAII (Michael W. Deem and Ramdas Pophale) SiO2 
 PCOD9302587
Probable space group: C 2/C
;
_chemical_formula_sum "Si O2"
_cell_formula_units_Z 60
_cell_length_a 16.943316
_cell_length_b 19.994705
_cell_length_c 8.927111
_cell_angle_alpha 90.000000
_cell_angle_beta 81.285231
_cell_angle_gamma 90.000000
_cell_volume 2989.380445
_symmetry_space_group_name_H-M "C 2/C"
_symmetry_group_IT_number 15
_symmetry_cell_setting 'monoclinic'
loop_
_space_group_symop_operation_xyz
x,y,z
-x,y,1/2-z
-x,-y,-z
x,-y,1/2+z
1/2+x,1/2+y,z
1/2-x,1/2+y,1/2-z
1/2-x,1/2-y,-z
1/2+x,1/2-y,1/2+z
loop_
_atom_site_type_symbol
_atom_site_label
_atom_site_fract_x
_atom_site_fract_y
_atom_site_fract_z
Si Si1 0.104130 0.690398 0.988989
Si Si2 0.576823 0.661713 0.616912
Si Si3 0.449509 0.548845 0.116276
Si Si4 0.641533 0.060680 0.527334
Si Si5 0.724583 0.505199 0.854205
Si Si6 0.500000 0.860157 0.250000
Si Si7 0.744402 0.600962 0.591548
Si Si8 0.412448 0.930928 0.794450
O O1 0.043697 0.680906 0.868448
O O2 0.190673 0.659804 0.918882
O O3 0.099929 0.764500 0.054188
O O4 0.080051 0.639722 0.127846
O O5 0.500000 0.661388 0.750000
O O6 0.560659 0.616169 0.475992
O O7 0.657599 0.629295 0.661541
O O8 0.500000 0.561414 0.250000
O O9 0.367368 0.507644 0.162736
O O10 0.500000 0.500000 0.000000
O O11 0.736528 0.061304 0.543373
O O12 0.574863 0.101038 0.645744
O O13 0.626443 0.074690 0.357688
O O14 0.622817 0.984561 0.580266
O O15 0.762571 0.538297 0.695057
O O16 0.739523 0.432082 0.926870
O O17 0.500000 0.959316 0.750000
#
# Coordination Sequence:
#
# PCOD9302587 Si02
#       8
#     8   8   8   8   8   4   8   8
#     4  12  25  43  65  95 137 190 221 268 336 419
#     4  11  26  46  69  95 134 183 232 285 342 408
#     4  11  23  44  74 102 129 167 228 298 356 394
#     4  12  22  36  60  96 136 177 222 279 326 392
#     4  11  22  38  66 102 130 167 215 285 347 393
#     4  12  24  40  66  94 142 178 226 276 328 408
#     4  11  23  42  68 100 136 173 224 283 342 406
#     4  12  22  35  57  88 132 180 228 263 323 393
#
# _framework density 20.071048999999999
#
# number of rings (size 3 to 8) (size 9 to 14) (size 15 to 20)
#    0.000    0.533    4.667    5.600    0.933    0.000 
#    0.000    0.000    0.000    1.600    0.000    0.000 
#    0.000    0.000    0.000    0.000    0.000    0.000 
#
# Total GULP energy -167001.570064 kJ/mol
# GULP energy per Si atom -5566.719002 kJ/mol
# Density = 2.002537 g / cm^3
# Si number density = 20.071049 Si / 1000 Ang^3
#
#
#
# Elastic Constant Matrix: (Units=GPa)
#
#
# Indices 1 2 3 4 5 6 
#
# 1 119.8819 5.5466 31.0669 0.0000 0.6401 0.0000
# 2 5.5466 82.6503 31.9874 0.0000 -9.8269 0.0000
# 3 31.0669 31.9874 126.2612 0.0000 11.2247 0.0000
# 4 0.0000 0.0000 0.0000 28.0745 0.0000 -3.9158
# 5 0.6401 -9.8269 11.2247 0.0000 39.1334 0.0000
# 6 0.0000 0.0000 0.0000 -3.9158 0.0000 26.0288
#
#
#
# Elastic Compliance Matrix: (Units=1/GPa)
#
#
# Indices 1 2 3 4 5 6 
#
# 1 0.008929 0.000385 -0.002350 0.000000 0.000625 0.000000
# 2 0.000385 0.014234 -0.004123 0.000000 0.004751 0.000000
# 3 -0.002350 -0.004123 0.009884 0.000000 -0.003832 0.000000
# 4 0.000000 0.000000 0.000000 0.036383 0.000000 0.005474
# 5 0.000625 0.004751 -0.003832 0.000000 0.027835 0.000000
# 6 0.000000 0.000000 0.000000 0.005474 0.000000 0.039242
#
#
# Mechanical properties :
#
#
# Convention : Reuss Voigt Hill
#
# Bulk Modulus (GPa) = 47.91619 51.77723 49.84671
# Shear Modulus (GPa) = 32.12514 35.99350 34.05932
#
# Velocity S-wave (km/s) = 4.00505 4.23934 4.12386
# Velocity P-wave (km/s) = 6.73145 7.05802 6.89667
#
# Compressibility (1/GPa) = 0.02086977
#
# Stress axis : x y z
#
# Youngs Moduli (GPa) = 111.98930 70.25488 101.17864
#
# Poissons Ratio (x) = -0.02701 0.23777
# Poissons Ratio (y) = -0.04306 0.41716
# Poissons Ratio (z) = 0.26318 0.28966
#
# Static dielectric constant tensor:
#      x y z
#    x 2.036550 0.000000 -0.082660 
#    y 0.000000 1.489180 0.000000 
#    z -0.082660 0.000000 1.863430 
# 
# From -- ./inp_files/49099.got.cif
#   From: 2010.05.17/outbox.cif.g08.bks.cpg/sg15_25_cif.got.tgz:49099.got - 2010.06.03 18:47:42.
