data_PCOD9302458
_publ_section_title
;
Structure prediction by ZEFSAII (Michael W. Deem and Ramdas Pophale) SiO2 
 PCOD9302458
Probable space group: C 2/C
;
_chemical_formula_sum "Si O2"
_cell_formula_units_Z 44
_cell_length_a 10.519167
_cell_length_b 20.388540
_cell_length_c 10.500205
_cell_angle_alpha 90.000000
_cell_angle_beta 95.446187
_cell_angle_gamma 90.000000
_cell_volume 2241.817814
_symmetry_space_group_name_H-M "C 2/C"
_symmetry_group_IT_number 15
_symmetry_cell_setting 'monoclinic'
loop_
_space_group_symop_operation_xyz
x,y,z
-x,y,1/2-z
-x,-y,-z
x,-y,1/2+z
1/2+x,1/2+y,z
1/2-x,1/2+y,1/2-z
1/2-x,1/2-y,-z
1/2+x,1/2-y,1/2+z
loop_
_atom_site_type_symbol
_atom_site_label
_atom_site_fract_x
_atom_site_fract_y
_atom_site_fract_z
Si Si1 0.209794 0.822753 0.960080
Si Si2 0.858095 0.108658 0.779954
Si Si3 0.162966 0.558104 0.578257
Si Si4 0.115522 0.026623 0.097929
Si Si5 0.000000 0.141210 0.250000
Si Si6 0.068042 0.584796 0.124592
O O1 0.319219 0.866201 0.903340
O O2 0.093353 0.819538 0.850142
O O3 0.250000 0.750000 0.000000
O O4 0.171612 0.859826 0.086827
O O5 0.739789 0.111507 0.670274
O O6 0.000000 0.130636 0.750000
O O7 0.864983 0.030258 0.798453
O O8 0.261728 0.536422 0.477714
O O9 0.120234 0.490073 0.641769
O O10 0.036530 0.585115 0.498147
O O11 0.079286 0.093016 0.165040
O O12 0.000000 0.000000 0.000000
O O13 0.000000 0.603125 0.250000
#
# Coordination Sequence:
#
# PCOD9302458 Si02
#       6
#     8   8   8   8   4   8
#     4  12  28  45  64  90 131 181 222 259 316 402
#     4  12  22  38  64  98 126 159 216 272 324 384
#     4  11  22  36  64  97 133 160 203 272 340 389
#     4  12  18  36  66 103 132 159 206 281 341 376
#     4  12  22  42  70  96 130 164 220 278 332 372
#     4  11  24  41  61  93 132 170 209 264 335 392
#
# _framework density 19.626930000000002
#
# number of rings (size 3 to 8) (size 9 to 14) (size 15 to 20)
#    0.000    0.364    6.364    3.273    2.545    2.182 
#    0.000    0.000    0.000    6.545    0.000    0.000 
#    0.000    0.000    0.000    0.000    0.000    0.000 
#
# Total GULP energy -122982.417314 kJ/mol
# GULP energy per Si atom -5590.109878 kJ/mol
# Density = 1.958226 g / cm^3
# Si number density = 19.626930 Si / 1000 Ang^3
#
#
#
# Elastic Constant Matrix: (Units=GPa)
#
#
# Indices 1 2 3 4 5 6 
#
# 1 127.1050 39.5609 67.1030 0.0000 1.3350 0.0000
# 2 39.5609 77.3173 44.8508 0.0000 10.9578 0.0000
# 3 67.1030 44.8508 114.0272 0.0000 10.1189 0.0000
# 4 0.0000 0.0000 0.0000 12.9034 0.0000 13.4804
# 5 1.3350 10.9578 10.1189 0.0000 58.6712 0.0000
# 6 0.0000 0.0000 0.0000 13.4804 0.0000 15.3740
#
#
#
# Elastic Compliance Matrix: (Units=1/GPa)
#
#
# Indices 1 2 3 4 5 6 
#
# 1 0.011898 -0.002776 -0.006024 0.000000 0.001287 0.000000
# 2 -0.002776 0.017645 -0.005098 0.000000 -0.002353 0.000000
# 3 -0.006024 -0.005098 0.014445 0.000000 -0.001402 0.000000
# 4 0.000000 0.000000 0.000000 0.923022 0.000000 -0.809334
# 5 0.001287 -0.002353 -0.001402 0.000000 0.017696 0.000000
# 6 0.000000 0.000000 0.000000 -0.809334 0.000000 0.774694
#
#
# Mechanical properties :
#
#
# Convention : Reuss Voigt Hill
#
# Bulk Modulus (GPa) = 61.76031 69.05320 65.40675
# Shear Modulus (GPa) = 2.78925 28.51871 15.65398
#
# Velocity S-wave (km/s) = 1.19341 3.81601 2.82720
# Velocity P-wave (km/s) = 5.78225 7.39427 6.63738
#
# Compressibility (1/GPa) = 0.01619163
#
# Stress axis : x y z
#
# Youngs Moduli (GPa) = 84.04488 56.67407 69.22946
#
# Poissons Ratio (x) = 0.15731 0.41707
# Poissons Ratio (y) = 0.23329 0.35293
# Poissons Ratio (z) = 0.50632 0.28892
#
# Static dielectric constant tensor:
#      x y z
#    x 1.698460 0.000000 0.010600 
#    y 0.000000 1.637330 0.000000 
#    z 0.010600 0.000000 1.758630 
# 
# From -- ./inp_files/78298.got.cif
#   From: 2010.05.17/outbox.cif.g08.bks.cpg/sg15_40_cif.got.tgz:78298.got - 2010.06.03 18:47:42.
