data_PCOD9302833
_publ_section_title
;
Structure prediction by ZEFSAII (Michael W. Deem and Ramdas Pophale) SiO2 
 PCOD9302833
Probable space group: C 2/C
;
_chemical_formula_sum "Si O2"
_cell_formula_units_Z 48
_cell_length_a 19.347417
_cell_length_b 13.156817
_cell_length_c 8.740810
_cell_angle_alpha 90.000000
_cell_angle_beta 104.446783
_cell_angle_gamma 90.000000
_cell_volume 2154.622637
_symmetry_space_group_name_H-M "C 2/C"
_symmetry_group_IT_number 15
_symmetry_cell_setting 'monoclinic'
loop_
_space_group_symop_operation_xyz
x,y,z
-x,y,1/2-z
-x,-y,-z
x,-y,1/2+z
1/2+x,1/2+y,z
1/2-x,1/2+y,1/2-z
1/2-x,1/2-y,-z
1/2+x,1/2-y,1/2+z
loop_
_atom_site_type_symbol
_atom_site_label
_atom_site_fract_x
_atom_site_fract_y
_atom_site_fract_z
Si Si1 0.675006 0.438415 0.970143
Si Si2 0.425418 0.698027 0.285419
Si Si3 0.455685 0.580507 0.577238
Si Si4 0.637907 0.116561 0.641907
Si Si5 0.815210 0.570768 0.151426
Si Si6 0.726156 0.733330 0.667316
O O1 0.750665 0.499325 0.038782
O O2 0.668343 0.356825 0.105975
O O3 0.641947 0.369016 0.811444
O O4 0.618879 0.527561 0.934590
O O5 0.500000 0.666818 0.250000
O O6 0.437578 0.677777 0.469269
O O7 0.412499 0.817586 0.274738
O O8 0.500000 0.603003 0.750000
O O9 0.500000 0.500000 0.500000
O O10 0.633992 0.107417 0.457590
O O11 0.711781 0.177765 0.707013
O O12 0.645133 0.005745 0.714714
O O13 0.792413 0.666046 0.247169
O O14 0.750000 0.750000 0.500000
#
# Coordination Sequence:
#
# PCOD9302833 Si02
#       6
#     8   8   8   8   8   8
#     4  11  23  38  72  95 140 175 218 279 345 400
#     4  12  25  47  67  96 136 183 228 281 340 408
#     4  12  23  40  64 102 133 174 221 276 344 404
#     4  11  25  42  68  98 138 179 227 281 343 407
#     4  11  25  43  67 106 138 177 227 282 346 410
#     4  11  22  40  66 102 139 181 217 277 342 404
#
# _framework density 22.277681999999999
#
# number of rings (size 3 to 8) (size 9 to 14) (size 15 to 20)
#    0.000    0.667    5.000    3.500    4.667    1.333 
#    0.000    0.833    0.000    0.000    0.000    0.000 
#    0.000    0.000    0.000    0.000    0.000    0.000 
#
# Total GULP energy -133668.406002 kJ/mol
# GULP energy per Si atom -5569.516917 kJ/mol
# Density = 2.222698 g / cm^3
# Si number density = 22.277682 Si / 1000 Ang^3
#
#
#
# Elastic Constant Matrix: (Units=GPa)
#
#
# Indices 1 2 3 4 5 6 
#
# 1 26.5318 -6.7523 10.5969 0.0000 4.6459 0.0000
# 2 -6.7523 85.6911 19.2645 0.0000 -6.5481 0.0000
# 3 10.5969 19.2645 102.7750 0.0000 -4.8504 0.0000
# 4 0.0000 0.0000 0.0000 37.5391 0.0000 -13.5928
# 5 4.6459 -6.5481 -4.8504 0.0000 26.5544 0.0000
# 6 0.0000 0.0000 0.0000 -13.5928 0.0000 23.3046
#
#
#
# Elastic Compliance Matrix: (Units=1/GPa)
#
#
# Indices 1 2 3 4 5 6 
#
# 1 0.042172 0.003982 -0.005444 0.000000 -0.007391 0.000000
# 2 0.003982 0.012741 -0.002707 0.000000 0.001951 0.000000
# 3 -0.005444 -0.002707 0.010906 0.000000 0.002277 0.000000
# 4 0.000000 0.000000 0.000000 0.033771 0.000000 0.019698
# 5 -0.007391 0.001951 0.002277 0.000000 0.039849 0.000000
# 6 0.000000 0.000000 0.000000 0.019698 0.000000 0.054399
#
#
# Mechanical properties :
#
#
# Convention : Reuss Voigt Hill
#
# Bulk Modulus (GPa) = 17.39637 29.02401 23.21019
# Shear Modulus (GPa) = 22.59009 30.27220 26.43115
#
# Velocity S-wave (km/s) = 3.18783 3.69027 3.44821
# Velocity P-wave (km/s) = 4.62336 5.58695 5.12784
#
# Compressibility (1/GPa) = 0.05748324
#
# Stress axis : x y z
#
# Youngs Moduli (GPa) = 23.71225 78.48555 91.69189
#
# Poissons Ratio (x) = -0.31254 0.49913
# Poissons Ratio (y) = -0.09442 0.24819
# Poissons Ratio (z) = 0.12908 0.21244
#
# Static dielectric constant tensor:
#      x y z
#    x 2.118880 0.000000 0.008440 
#    y 0.000000 1.907730 0.000000 
#    z 0.008440 0.000000 2.025450 
# 
# From -- ./inp_files/60890.got.cif
#   From: 2010.05.17/outbox.cif.g08.bks.cpg/sg15_31_cif.got.tgz:60890.got - 2010.06.03 18:47:42.
