data_PCOD9302024
_publ_section_title
;
Structure prediction by ZEFSAII (Michael W. Deem and Ramdas Pophale) SiO2 
 PCOD9302024
Probable space group: C 2/C
;
_chemical_formula_sum "Si O2"
_cell_formula_units_Z 64
_cell_length_a 21.688060
_cell_length_b 12.435606
_cell_length_c 11.526934
_cell_angle_alpha 90.000000
_cell_angle_beta 76.208467
_cell_angle_gamma 90.000000
_cell_volume 3019.232165
_symmetry_space_group_name_H-M "C 2/C"
_symmetry_group_IT_number 15
_symmetry_cell_setting 'monoclinic'
loop_
_space_group_symop_operation_xyz
x,y,z
-x,y,1/2-z
-x,-y,-z
x,-y,1/2+z
1/2+x,1/2+y,z
1/2-x,1/2+y,1/2-z
1/2-x,1/2-y,-z
1/2+x,1/2-y,1/2+z
loop_
_atom_site_type_symbol
_atom_site_label
_atom_site_fract_x
_atom_site_fract_y
_atom_site_fract_z
Si Si1 0.964246 0.339525 0.584749
Si Si2 0.551912 0.978058 0.136896
Si Si3 0.678662 0.927872 0.214799
Si Si4 0.810882 0.192699 0.242916
Si Si5 0.695994 0.345083 0.478004
Si Si6 0.676098 0.149933 0.322512
Si Si7 0.504137 0.618927 0.617970
Si Si8 0.396494 0.522679 0.072801
O O1 0.947261 0.408328 0.479438
O O2 0.896857 0.332864 0.683127
O O3 0.021321 0.406206 0.618311
O O4 0.985628 0.219678 0.547062
O O5 0.500000 0.931354 0.250000
O O6 0.621174 0.971275 0.161759
O O7 0.661152 0.812541 0.277320
O O8 0.740531 0.897056 0.109284
O O9 0.687933 0.021195 0.307497
O O10 0.806351 0.159961 0.381683
O O11 0.738348 0.193773 0.226914
O O12 0.852557 0.104997 0.160328
O O13 0.682137 0.224811 0.434970
O O14 0.641627 0.420124 0.452543
O O15 0.500000 0.659399 0.750000
O O16 0.572983 0.579606 0.551917
O O17 0.455072 0.521412 0.622726
#
# Coordination Sequence:
#
# PCOD9302024 Si02
#       8
#     8   8   8   8   8   8   8   8
#     4  11  23  40  64  92 134 175 218 269 341 406
#     4  11  23  38  60  96 130 173 217 274 333 402
#     4  11  23  40  67 101 133 175 225 278 345 409
#     4  11  24  42  71  98 136 177 227 284 334 410
#     4  11  22  44  69  96 135 179 226 279 349 397
#     4  11  21  41  67  96 128 176 219 274 334 405
#     4  11  25  44  67  93 133 178 219 278 340 401
#     4  11  24  44  67 100 128 175 231 279 329 412
#
# _framework density 21.197443
#
# number of rings (size 3 to 8) (size 9 to 14) (size 15 to 20)
#    0.000    1.000    3.750    4.125    1.750    0.000 
#    0.000    0.000    0.000    3.000    0.000    0.000 
#    0.000    0.000    0.000    0.000    0.000    0.000 
#
# Total GULP energy -178465.792407 kJ/mol
# GULP energy per Si atom -5577.056013 kJ/mol
# Density = 2.114920 g / cm^3
# Si number density = 21.197443 Si / 1000 Ang^3
#
#
#
# Elastic Constant Matrix: (Units=GPa)
#
#
# Indices 1 2 3 4 5 6 
#
# 1 105.1670 39.6073 35.1580 0.0000 -16.5807 0.0000
# 2 39.6073 118.6594 49.8104 0.0000 -8.5514 0.0000
# 3 35.1580 49.8104 65.9229 0.0000 -8.6279 0.0000
# 4 0.0000 0.0000 0.0000 28.1342 0.0000 -6.9134
# 5 -16.5807 -8.5514 -8.6279 0.0000 21.4412 0.0000
# 6 0.0000 0.0000 0.0000 -6.9134 0.0000 33.6148
#
#
#
# Elastic Compliance Matrix: (Units=1/GPa)
#
#
# Indices 1 2 3 4 5 6 
#
# 1 0.012884 -0.001888 -0.004475 0.000000 0.007410 0.000000
# 2 -0.001888 0.012650 -0.008531 0.000000 0.000152 0.000000
# 3 -0.004475 -0.008531 0.024388 0.000000 0.002951 0.000000
# 4 0.000000 0.000000 0.000000 0.037436 0.000000 0.007699
# 5 0.007410 0.000152 0.002951 0.000000 0.053617 0.000000
# 6 0.000000 0.000000 0.000000 0.007699 0.000000 0.031332
#
#
# Mechanical properties :
#
#
# Convention : Reuss Voigt Hill
#
# Bulk Modulus (GPa) = 49.66852 59.87787 54.77319
# Shear Modulus (GPa) = 23.94557 27.64959 25.79758
#
# Velocity S-wave (km/s) = 3.36466 3.61554 3.49236
# Velocity P-wave (km/s) = 6.21103 6.76303 6.49290
#
# Compressibility (1/GPa) = 0.02013348
#
# Stress axis : x y z
#
# Youngs Moduli (GPa) = 77.61598 79.05223 41.00369
#
# Poissons Ratio (x) = 0.14926 0.18349
# Poissons Ratio (y) = 0.14655 0.34981
# Poissons Ratio (z) = 0.34732 0.67441
#
# Static dielectric constant tensor:
#      x y z
#    x 1.789540 0.000000 -0.005280 
#    y 0.000000 1.754220 0.000000 
#    z -0.005280 0.000000 1.786140 
# 
# From -- ./inp_files/117980.got.cif
#   From: 2010.05.17/outbox.cif.g08.bks.cpg/sg15_59_cif.got.tgz:117980.got - 2010.06.03 18:47:42.
