data_PCOD9302904
_publ_section_title
;
Structure prediction by ZEFSAII (Michael W. Deem and Ramdas Pophale) SiO2 
 PCOD9302904
Probable space group: C 2/C
;
_chemical_formula_sum "Si O2"
_cell_formula_units_Z 24
_cell_length_a 4.757511
_cell_length_b 19.030184
_cell_length_c 11.257207
_cell_angle_alpha 90.000000
_cell_angle_beta 64.659747
_cell_angle_gamma 90.000000
_cell_volume 921.122032
_symmetry_space_group_name_H-M "C 2/C"
_symmetry_group_IT_number 15
_symmetry_cell_setting 'monoclinic'
loop_
_space_group_symop_operation_xyz
x,y,z
-x,y,1/2-z
-x,-y,-z
x,-y,1/2+z
1/2+x,1/2+y,z
1/2-x,1/2+y,1/2-z
1/2-x,1/2-y,-z
1/2+x,1/2-y,1/2+z
loop_
_atom_site_type_symbol
_atom_site_label
_atom_site_fract_x
_atom_site_fract_y
_atom_site_fract_z
Si Si1 0.231139 0.547218 0.607124
Si Si2 0.776259 0.362454 0.042986
Si Si3 0.336787 0.723644 0.156242
O O1 0.500000 0.500000 0.500000
O O2 0.427693 0.609869 0.636065
O O3 0.000000 0.516581 0.750000
O O4 0.014689 0.578642 0.542734
O O5 0.945027 0.290954 0.060533
O O6 0.721315 0.343535 0.914993
O O7 0.500000 0.708745 0.250000
O O8 0.000000 0.751711 0.250000
#
# Coordination Sequence:
#
# PCOD9302904 Si02
#       3
#     8   8   8
#     4  12  26  47  74 105 146 197 250 306 367 435
#     4  11  24  43  71 107 147 192 241 301 376 446
#     4  11  22  40  70 108 147 186 235 301 375 448
#
# _framework density 26.055181000000001
#
# number of rings (size 3 to 8) (size 9 to 14) (size 15 to 20)
#    0.000    0.667    0.000    9.000    0.000    6.667 
#    0.000    6.667    0.000    0.000    0.000    0.000 
#    0.000    0.000    0.000    0.000    0.000    0.000 
#
# Total GULP energy -67049.768189 kJ/mol
# GULP energy per Si atom -5587.480682 kJ/mol
# Density = 2.599588 g / cm^3
# Si number density = 26.055181 Si / 1000 Ang^3
#
#
#
# Elastic Constant Matrix: (Units=GPa)
#
#
# Indices 1 2 3 4 5 6 
#
# 1 219.2196 53.0000 73.1274 0.0000 43.7870 0.0000
# 2 53.0000 88.3102 59.0804 0.0000 9.1069 0.0000
# 3 73.1274 59.0804 151.4616 0.0000 28.3436 0.0000
# 4 0.0000 0.0000 0.0000 27.4328 0.0000 2.8021
# 5 43.7870 9.1069 28.3436 0.0000 62.0479 0.0000
# 6 0.0000 0.0000 0.0000 2.8021 0.0000 49.4952
#
#
#
# Elastic Compliance Matrix: (Units=1/GPa)
#
#
# Indices 1 2 3 4 5 6 
#
# 1 0.006331 -0.002477 -0.001446 0.000000 -0.003443 0.000000
# 2 -0.002477 0.016307 -0.005516 0.000000 0.001874 0.000000
# 3 -0.001446 -0.005516 0.009961 0.000000 -0.002720 0.000000
# 4 0.000000 0.000000 0.000000 0.036665 0.000000 -0.002076
# 5 -0.003443 0.001874 -0.002720 0.000000 0.019514 0.000000
# 6 0.000000 0.000000 0.000000 -0.002076 0.000000 0.020321
#
#
# Mechanical properties :
#
#
# Convention : Reuss Voigt Hill
#
# Bulk Modulus (GPa) = 72.87803 92.15634 82.51718
# Shear Modulus (GPa) = 37.72164 46.04744 41.88454
#
# Velocity S-wave (km/s) = 3.80907 4.20849 4.01375
# Velocity P-wave (km/s) = 6.88308 7.68516 7.29515
#
# Compressibility (1/GPa) = 0.01372156
#
# Stress axis : x y z
#
# Youngs Moduli (GPa) = 157.96287 61.32325 100.39163
#
# Poissons Ratio (x) = 0.15189 0.14516
# Poissons Ratio (y) = 0.39126 0.55373
# Poissons Ratio (z) = 0.22840 0.33824
#
# Static dielectric constant tensor:
#      x y z
#    x 1.998270 0.000000 -0.014450 
#    y 0.000000 2.247090 0.000000 
#    z -0.014450 0.000000 2.112460 
# 
# From -- ./inp_files/71552.got.cif
#   From: 2010.05.17/outbox.cif.g08.bks.cpg/sg15_36_cif.got.tgz:71552.got - 2010.06.03 18:47:42.
