data_PCOD9302698
_publ_section_title
;
Structure prediction by ZEFSAII (Michael W. Deem and Ramdas Pophale) SiO2 
 PCOD9302698
Probable space group: C 2/C
;
_chemical_formula_sum "Si O2"
_cell_formula_units_Z 64
_cell_length_a 12.754792
_cell_length_b 19.295980
_cell_length_c 17.023389
_cell_angle_alpha 90.000000
_cell_angle_beta 138.862706
_cell_angle_gamma 90.000000
_cell_volume 2756.280573
_symmetry_space_group_name_H-M "C 2/C"
_symmetry_group_IT_number 15
_symmetry_cell_setting 'monoclinic'
loop_
_space_group_symop_operation_xyz
x,y,z
-x,y,1/2-z
-x,-y,-z
x,-y,1/2+z
1/2+x,1/2+y,z
1/2-x,1/2+y,1/2-z
1/2-x,1/2-y,-z
1/2+x,1/2-y,1/2+z
loop_
_atom_site_type_symbol
_atom_site_label
_atom_site_fract_x
_atom_site_fract_y
_atom_site_fract_z
Si Si1 0.871341 0.615717 0.005107
Si Si2 0.305460 0.524980 0.469138
Si Si3 0.038016 0.067258 0.181779
Si Si4 0.359762 0.016353 0.286646
Si Si5 0.476650 0.760108 0.828027
Si Si6 0.040286 0.857241 0.073699
Si Si7 0.102089 0.784003 0.654639
Si Si8 0.882412 0.631047 0.827138
O O1 0.754631 0.567332 0.988985
O O2 0.038487 0.576782 0.116285
O O3 0.898741 0.690583 0.058186
O O4 0.838485 0.626312 0.894885
O O5 0.384151 0.454327 0.543421
O O6 0.177391 0.523527 0.326841
O O7 0.444140 0.572830 0.511566
O O8 0.189169 0.023005 0.234984
O O9 0.074147 0.149211 0.193495
O O10 0.000000 0.050179 0.250000
O O11 0.455916 0.944377 0.352918
O O12 0.500000 0.770420 0.750000
O O13 0.503140 0.681835 0.870151
O O14 0.292712 0.777003 0.747433
O O15 0.226670 0.870424 0.184492
O O16 0.986873 0.805430 0.975414
O O17 0.042992 0.706859 0.644899
#
# Coordination Sequence:
#
# PCOD9302698 Si02
#       8
#     8   8   8   8   8   8   8   8
#     4  12  24  42  67 102 140 172 220 281 354 409
#     4  12  25  41  72 104 134 180 220 283 350 408
#     4  12  25  44  70 100 133 181 235 282 327 394
#     4  12  23  47  68  97 139 177 228 284 344 405
#     4  11  23  37  64 100 141 180 210 265 351 426
#     4  11  22  39  65  99 144 168 222 268 343 418
#     4  11  23  45  65  97 137 182 223 277 340 402
#     4  11  25  40  68  98 134 185 227 279 332 408
#
# _framework density 23.219697
#
# number of rings (size 3 to 8) (size 9 to 14) (size 15 to 20)
#    0.000    0.500    5.000    4.125    3.500    1.000 
#    0.000    1.250    0.000    8.250    0.000    0.000 
#    0.000    0.000    0.000    0.000    0.000    0.000 
#
# Total GULP energy -178946.736087 kJ/mol
# GULP energy per Si atom -5592.085503 kJ/mol
# Density = 2.316685 g / cm^3
# Si number density = 23.219697 Si / 1000 Ang^3
#
#
#
# Elastic Constant Matrix: (Units=GPa)
#
#
# Indices 1 2 3 4 5 6 
#
# 1 38.9922 2.1210 21.9389 0.0000 4.0657 0.0000
# 2 2.1210 133.5822 15.4974 0.0000 -1.1027 0.0000
# 3 21.9389 15.4974 95.4678 0.0000 -11.7156 0.0000
# 4 0.0000 0.0000 0.0000 45.0348 0.0000 -4.0084
# 5 4.0657 -1.1027 -11.7156 0.0000 21.8138 0.0000
# 6 0.0000 0.0000 0.0000 -4.0084 0.0000 23.2686
#
#
#
# Elastic Compliance Matrix: (Units=1/GPa)
#
#
# Indices 1 2 3 4 5 6 
#
# 1 0.031559 0.000411 -0.008605 0.000000 -0.010483 0.000000
# 2 0.000411 0.007637 -0.001388 0.000000 -0.000436 0.000000
# 3 -0.008605 -0.001388 0.013774 0.000000 0.008931 0.000000
# 4 0.000000 0.000000 0.000000 0.022551 0.000000 0.003885
# 5 -0.010483 -0.000436 0.008931 0.000000 0.052571 0.000000
# 6 0.000000 0.000000 0.000000 0.003885 0.000000 0.043646
#
#
# Mechanical properties :
#
#
# Convention : Reuss Voigt Hill
#
# Bulk Modulus (GPa) = 29.58180 38.57299 34.07739
# Shear Modulus (GPa) = 24.73173 33.25576 28.99374
#
# Velocity S-wave (km/s) = 3.26716 3.78858 3.53749
# Velocity P-wave (km/s) = 5.19616 5.98214 5.60295
#
# Compressibility (1/GPa) = 0.03380457
#
# Stress axis : x y z
#
# Youngs Moduli (GPa) = 31.68702 130.94345 72.60285
#
# Poissons Ratio (x) = -0.05378 0.62478
# Poissons Ratio (y) = -0.01301 0.10074
# Poissons Ratio (z) = 0.27268 0.18169
#
# Static dielectric constant tensor:
#      x y z
#    x 1.900690 0.000000 0.033520 
#    y 0.000000 1.897060 0.000000 
#    z 0.033520 0.000000 1.833110 
# 
# From -- ./inp_files/206492.got.cif
#   From: 2010.05.17/outbox.cif.g08.bks.cpg/sg15_104_cif.got.tgz:206492.got - 2010.06.03 18:47:42.
