data_PCOD9302650
_publ_section_title
;
Structure prediction by ZEFSAII (Michael W. Deem and Ramdas Pophale) SiO2 
 PCOD9302650
Probable space group: C 2/C
;
_chemical_formula_sum "Si O2"
_cell_formula_units_Z 56
_cell_length_a 9.034114
_cell_length_b 11.821396
_cell_length_c 30.499244
_cell_angle_alpha 90.000000
_cell_angle_beta 124.927067
_cell_angle_gamma 90.000000
_cell_volume 2670.511747
_symmetry_space_group_name_H-M "C 2/C"
_symmetry_group_IT_number 15
_symmetry_cell_setting 'monoclinic'
loop_
_space_group_symop_operation_xyz
x,y,z
-x,y,1/2-z
-x,-y,-z
x,-y,1/2+z
1/2+x,1/2+y,z
1/2-x,1/2+y,1/2-z
1/2-x,1/2-y,-z
1/2+x,1/2-y,1/2+z
loop_
_atom_site_type_symbol
_atom_site_label
_atom_site_fract_x
_atom_site_fract_y
_atom_site_fract_z
Si Si1 0.073802 0.280316 0.809754
Si Si2 0.019433 0.155219 0.125142
Si Si3 0.602817 0.068357 0.395692
Si Si4 0.527367 0.308453 0.532412
Si Si5 0.581757 0.947265 0.057257
Si Si6 0.498748 0.410584 0.358308
Si Si7 0.285730 0.669418 0.904969
O O1 0.292326 0.276731 0.845491
O O2 0.025507 0.368480 0.840153
O O3 0.999430 0.160652 0.814001
O O4 0.000000 0.311098 0.750000
O O5 0.859234 0.229068 0.118150
O O6 0.967480 0.123033 0.065772
O O7 0.069004 0.038600 0.157351
O O8 0.766922 0.149128 0.440445
O O9 0.470872 0.030290 0.411990
O O10 0.686476 0.950328 0.393759
O O11 0.504689 0.180082 0.545595
O O12 0.415905 0.321443 0.469310
O O13 0.794495 0.928146 0.092117
O O14 0.500000 0.000000 0.000000
O O15 0.395856 0.341092 0.378625
#
# Coordination Sequence:
#
# PCOD9302650 Si02
#       7
#     8   8   8   8   8   8   8
#     4  11  26  54  71  93 136 175 233 309 351 390
#     4  11  24  46  65 102 138 177 229 279 341 412
#     4  11  23  44  66  97 141 184 229 288 338 408
#     4  11  22  39  62  99 149 186 217 274 332 410
#     4  12  25  38  64 105 147 190 224 272 345 420
#     4  12  25  44  67 102 136 178 236 282 336 421
#     4  12  23  39  70 103 141 183 224 266 343 423
#
# _framework density 20.969763
#
# number of rings (size 3 to 8) (size 9 to 14) (size 15 to 20)
#    0.000    0.571    7.143    2.571    6.000    1.143 
#    5.143    0.714    0.000    0.000    0.000    0.000 
#    0.000    0.000    0.000    0.000    0.000    0.000 
#
# Total GULP energy -156520.058946 kJ/mol
# GULP energy per Si atom -5590.002105 kJ/mol
# Density = 2.092204 g / cm^3
# Si number density = 20.969763 Si / 1000 Ang^3
#
#
#
# Elastic Constant Matrix: (Units=GPa)
#
#
# Indices 1 2 3 4 5 6 
#
# 1 128.3322 38.5591 31.3680 0.0000 -18.5327 0.0000
# 2 38.5591 112.2381 33.5846 0.0000 -18.2820 0.0000
# 3 31.3680 33.5846 89.8158 0.0000 -19.3471 0.0000
# 4 0.0000 0.0000 0.0000 20.7392 0.0000 -5.4362
# 5 -18.5327 -18.2820 -19.3471 0.0000 16.1158 0.0000
# 6 0.0000 0.0000 0.0000 -5.4362 0.0000 43.7141
#
#
#
# Elastic Compliance Matrix: (Units=1/GPa)
#
#
# Indices 1 2 3 4 5 6 
#
# 1 0.009715 -0.001731 -0.001028 0.000000 0.007974 0.000000
# 2 -0.001731 0.011486 -0.001770 0.000000 0.008914 0.000000
# 3 -0.001028 -0.001770 0.015468 0.000000 0.015379 0.000000
# 4 0.000000 0.000000 0.000000 0.049842 0.000000 0.006198
# 5 0.007974 0.008914 0.015379 0.000000 0.099795 0.000000
# 6 0.000000 0.000000 0.000000 0.006198 0.000000 0.023647
#
#
# Mechanical properties :
#
#
# Convention : Reuss Voigt Hill
#
# Bulk Modulus (GPa) = 36.21852 59.71216 47.96534
# Shear Modulus (GPa) = 21.90914 31.23879 26.57397
#
# Velocity S-wave (km/s) = 3.23584 3.86386 3.56371
# Velocity P-wave (km/s) = 5.59197 6.96010 6.31321
#
# Compressibility (1/GPa) = 0.02761018
#
# Stress axis : x y z
#
# Youngs Moduli (GPa) = 102.93072 87.06239 64.65169
#
# Poissons Ratio (x) = 0.15072 0.06646
# Poissons Ratio (y) = 0.17819 0.11444
# Poissons Ratio (z) = 0.10581 0.15412
#
# Static dielectric constant tensor:
#      x y z
#    x 1.823800 0.000000 -0.017340 
#    y 0.000000 1.848180 0.000000 
#    z -0.017340 0.000000 1.741190 
# 
# From -- ./inp_files/307389.got.cif
#   From: 2010.05.17/outbox.cif.g08.bks.cpg/sg15_154_cif.got.tgz:307389.got - 2010.06.03 18:47:42.
