data_PCOD9302127
_publ_section_title
;
Structure prediction by ZEFSAII (Michael W. Deem and Ramdas Pophale) SiO2 
 PCOD9302127
Probable space group: C 2/C
;
_chemical_formula_sum "Si O2"
_cell_formula_units_Z 48
_cell_length_a 27.200161
_cell_length_b 9.573934
_cell_length_c 14.851124
_cell_angle_alpha 90.000000
_cell_angle_beta 34.386644
_cell_angle_gamma 90.000000
_cell_volume 2184.220217
_symmetry_space_group_name_H-M "C 2/C"
_symmetry_group_IT_number 15
_symmetry_cell_setting 'monoclinic'
loop_
_space_group_symop_operation_xyz
x,y,z
-x,y,1/2-z
-x,-y,-z
x,-y,1/2+z
1/2+x,1/2+y,z
1/2-x,1/2+y,1/2-z
1/2-x,1/2-y,-z
1/2+x,1/2-y,1/2+z
loop_
_atom_site_type_symbol
_atom_site_label
_atom_site_fract_x
_atom_site_fract_y
_atom_site_fract_z
Si Si1 0.840533 0.899210 0.625899
Si Si2 0.189872 0.513389 0.074760
Si Si3 0.105229 0.008547 0.278344
Si Si4 0.262995 0.890770 0.309294
Si Si5 0.907360 0.757809 0.842881
Si Si6 0.913942 0.777838 0.333139
O O1 0.815958 0.746676 0.701265
O O2 0.874174 0.870363 0.474173
O O3 0.904134 0.976445 0.600402
O O4 0.757183 0.000256 0.739398
O O5 0.192588 0.475775 0.176720
O O6 0.131440 0.392988 0.119675
O O7 0.150701 0.660938 0.105646
O O8 0.289865 0.503348 0.893321
O O9 0.067462 0.879726 0.278816
O O10 0.080958 0.151496 0.265172
O O11 0.168825 0.834156 0.485173
O O12 0.000000 0.752449 0.750000
O O13 0.000000 0.715806 0.250000
#
# Coordination Sequence:
#
# PCOD9302127 Si02
#       6
#     8   8   8   8   8   8
#     4  12  24  42  70 100 133 175 233 271 323 408
#     4  11  21  45  67  94 135 180 219 267 330 408
#     4  11  22  43  69  92 132 176 228 266 328 400
#     4  11  24  41  68 100 128 180 227 266 326 404
#     4  11  21  42  67  96 136 171 213 279 341 382
#     4  12  27  44  65 103 137 174 220 284 342 380
#
# _framework density 21.975805000000001
#
# number of rings (size 3 to 8) (size 9 to 14) (size 15 to 20)
#    0.000    0.667    6.667    3.500    2.333    0.667 
#    0.000    0.833    0.000    0.000    0.000    0.000 
#    0.000    0.000    0.000    0.000    0.000    0.000 
#
# Total GULP energy -134214.217256 kJ/mol
# GULP energy per Si atom -5592.259052 kJ/mol
# Density = 2.192579 g / cm^3
# Si number density = 21.975805 Si / 1000 Ang^3
#
#
#
# Elastic Constant Matrix: (Units=GPa)
#
#
# Indices 1 2 3 4 5 6 
#
# 1 174.3610 57.2673 36.2590 0.0000 4.6897 0.0000
# 2 57.2673 71.3156 9.2086 0.0000 14.3990 0.0000
# 3 36.2590 9.2086 42.8665 0.0000 2.6110 0.0000
# 4 0.0000 0.0000 0.0000 8.4227 0.0000 8.5285
# 5 4.6897 14.3990 2.6110 0.0000 34.3077 0.0000
# 6 0.0000 0.0000 0.0000 8.5285 0.0000 52.5604
#
#
#
# Elastic Compliance Matrix: (Units=1/GPa)
#
#
# Indices 1 2 3 4 5 6 
#
# 1 0.009377 -0.007132 -0.006534 0.000000 0.002209 0.000000
# 2 -0.007132 0.021116 0.001986 0.000000 -0.008039 0.000000
# 3 -0.006534 0.001986 0.028557 0.000000 -0.002114 0.000000
# 4 0.000000 0.000000 0.000000 0.142069 0.000000 -0.023052
# 5 0.002209 -0.008039 -0.002114 0.000000 0.032381 0.000000
# 6 0.000000 0.000000 0.000000 -0.023052 0.000000 0.022766
#
#
# Mechanical properties :
#
#
# Convention : Reuss Voigt Hill
#
# Bulk Modulus (GPa) = 28.01875 54.89031 41.45453
# Shear Modulus (GPa) = 17.15131 31.44537 24.29834
#
# Velocity S-wave (km/s) = 2.79671 3.78684 3.32879
# Velocity P-wave (km/s) = 4.81729 6.64470 5.80337
#
# Compressibility (1/GPa) = 0.03569038
#
# Stress axis : x y z
#
# Youngs Moduli (GPa) = 106.64246 47.35745 35.01739
#
# Poissons Ratio (x) = 0.33776 0.22881
# Poissons Ratio (y) = 0.76060 -0.06956
# Poissons Ratio (z) = 0.69682 -0.09407
#
# Static dielectric constant tensor:
#      x y z
#    x 1.813310 0.000000 0.014270 
#    y 0.000000 1.762470 0.000000 
#    z 0.014270 0.000000 1.860120 
# 
# From -- ./inp_files/176849.got.cif
#   From: 2010.05.17/outbox.cif.g08.bks.cpg/sg15_89_cif.got.tgz:176849.got - 2010.06.03 18:47:42.
