data_PCOD9302235
_publ_section_title
;
Structure prediction by ZEFSAII (Michael W. Deem and Ramdas Pophale) SiO2 
 PCOD9302235
Probable space group: C 2/C
;
_chemical_formula_sum "Si O2"
_cell_formula_units_Z 40
_cell_length_a 7.673359
_cell_length_b 16.860331
_cell_length_c 17.405436
_cell_angle_alpha 90.000000
_cell_angle_beta 135.356541
_cell_angle_gamma 90.000000
_cell_volume 1582.348359
_symmetry_space_group_name_H-M "C 2/C"
_symmetry_group_IT_number 15
_symmetry_cell_setting 'monoclinic'
loop_
_space_group_symop_operation_xyz
x,y,z
-x,y,1/2-z
-x,-y,-z
x,-y,1/2+z
1/2+x,1/2+y,z
1/2-x,1/2+y,1/2-z
1/2-x,1/2-y,-z
1/2+x,1/2-y,1/2+z
loop_
_atom_site_type_symbol
_atom_site_label
_atom_site_fract_x
_atom_site_fract_y
_atom_site_fract_z
Si Si1 0.500000 0.825163 0.250000
Si Si2 0.738747 0.706648 0.211578
Si Si3 0.000000 0.083624 0.750000
Si Si4 0.850068 0.630990 0.998295
Si Si5 0.571177 0.291747 0.029943
Si Si6 0.383229 0.033680 0.298412
O O1 0.691028 0.773672 0.258903
O O2 0.302838 0.849375 0.123331
O O3 0.754190 0.618913 0.249283
O O4 0.000000 0.719849 0.250000
O O5 0.505749 0.707834 0.082365
O O6 0.192061 0.122618 0.870555
O O7 0.183045 0.032321 0.754143
O O8 0.664181 0.669547 0.001508
O O9 0.059313 0.697825 0.048199
O O10 0.944999 0.551650 0.072339
O O11 0.500000 0.017536 0.250000
#
# Coordination Sequence:
#
# PCOD9302235 Si02
#       6
#     4   8   4   8   8   8
#     4  12  23  38  66 108 140 181 226 270 356 438
#     4  11  21  43  71  98 143 183 226 286 350 417
#     4  12  29  44  74 102 134 189 244 280 336 422
#     4  11  24  46  72 103 144 178 229 300 351 407
#     4  11  23  42  71 108 139 178 227 291 366 406
#     4  11  23  49  71  97 140 195 230 282 347 410
#
# _framework density 25.278883
#
# number of rings (size 3 to 8) (size 9 to 14) (size 15 to 20)
#    0.000    0.800    6.000    3.000    4.200    0.800 
#    1.800    0.000    0.000    0.000    0.000    0.000 
#    0.000    0.000    0.000    0.000    0.000    0.000 
#
# Total GULP energy -111712.728407 kJ/mol
# GULP energy per Si atom -5585.636420 kJ/mol
# Density = 2.522135 g / cm^3
# Si number density = 25.278883 Si / 1000 Ang^3
#
#
#
# Elastic Constant Matrix: (Units=GPa)
#
#
# Indices 1 2 3 4 5 6 
#
# 1 74.3189 11.0441 7.5590 -0.0001 1.0583 0.0003
# 2 11.0441 36.9610 17.5619 0.0001 -0.3147 0.0000
# 3 7.5590 17.5619 182.3918 0.0009 1.0410 -0.0003
# 4 -0.0001 0.0001 0.0009 489.7748 0.0005 -113.5622
# 5 1.0583 -0.3147 1.0410 0.0005 39.5042 -0.0001
# 6 0.0003 0.0000 -0.0003 -113.5622 -0.0001 37.6283
#
#
#
# Elastic Compliance Matrix: (Units=1/GPa)
#
#
# Indices 1 2 3 4 5 6 
#
# 1 0.014093 -0.004127 -0.000184 0.000000 -0.000406 0.000000
# 2 -0.004127 0.029565 -0.002678 0.000000 0.000417 0.000000
# 3 -0.000184 -0.002678 0.005749 0.000000 -0.000168 0.000000
# 4 0.000000 0.000000 0.000000 0.006801 0.000000 0.020524
# 5 -0.000406 0.000417 -0.000168 0.000000 0.025332 0.000000
# 6 0.000000 0.000000 0.000000 0.020524 0.000000 0.088518
#
#
# Mechanical properties :
#
#
# Convention : Reuss Voigt Hill
#
# Bulk Modulus (GPa) = 28.22594 40.66686 34.44640
# Shear Modulus (GPa) = 25.53014 130.54858 78.03936
#
# Velocity S-wave (km/s) = 3.18140 7.19413 5.56223
# Velocity P-wave (km/s) = 4.96842 9.22656 7.40995
#
# Compressibility (1/GPa) = 0.03542840
#
# Stress axis : x y z
#
# Youngs Moduli (GPa) = 70.95545 33.82411 173.93838
#
# Poissons Ratio (x) = 0.13959 0.03207
# Poissons Ratio (y) = 0.29283 0.46581
# Poissons Ratio (z) = 0.01308 0.09058
#
# Static dielectric constant tensor:
#      x y z
#    x 1.995690 0.000000 -0.057500 
#    y 0.000000 2.028600 0.000000 
#    z -0.057500 0.000000 2.070780 
# 
# From -- ./inp_files/192395.got.cif
#   From: 2010.05.17/outbox.cif.g08.bks.cpg/sg15_97_cif.got.tgz:192395.got - 2010.06.03 18:47:42.
