data_PCOD9302429
_publ_section_title
;
Structure prediction by ZEFSAII (Michael W. Deem and Ramdas Pophale) SiO2 
 PCOD9302429
Probable space group: C 2/C
;
_chemical_formula_sum "Si O2"
_cell_formula_units_Z 16
_cell_length_a 7.104027
_cell_length_b 18.257970
_cell_length_c 6.517251
_cell_angle_alpha 90.000000
_cell_angle_beta 138.242924
_cell_angle_gamma 90.000000
_cell_volume 562.961484
_symmetry_space_group_name_H-M "C 2/C"
_symmetry_group_IT_number 15
_symmetry_cell_setting 'monoclinic'
loop_
_space_group_symop_operation_xyz
x,y,z
-x,y,1/2-z
-x,-y,-z
x,-y,1/2+z
1/2+x,1/2+y,z
1/2-x,1/2+y,1/2-z
1/2-x,1/2-y,-z
1/2+x,1/2-y,1/2+z
loop_
_atom_site_type_symbol
_atom_site_label
_atom_site_fract_x
_atom_site_fract_y
_atom_site_fract_z
Si Si1 0.693685 0.933016 0.588098
Si Si2 0.585610 0.705630 0.077515
O O1 0.770816 0.873455 0.824404
O O2 0.000000 0.957907 0.750000
O O3 0.500000 0.000000 0.500000
O O4 0.500000 0.897811 0.250000
O O5 0.500000 0.703185 0.250000
O O6 0.799861 0.773509 0.231898
#
# Coordination Sequence:
#
# PCOD9302429 Si02
#       2
#     8   8
#     4  11  22  36  56  81 110 142 176 219 268 318
#     4   9  16  29  51  77 100 129 177 225 255 293
#
# _framework density 28.421129000000001
#
# number of rings (size 3 to 8) (size 9 to 14) (size 15 to 20)
#    0.000    2.000    0.000    9.000    0.000    0.000 
#    0.000    0.000    0.000    9.000    0.000    0.000 
#    0.000    0.000    0.000    0.000    0.000    0.000 
#
# Total GULP energy -44847.221758 kJ/mol
# GULP energy per Si atom -5605.902720 kJ/mol
# Density = 2.835644 g / cm^3
# Si number density = 28.421129 Si / 1000 Ang^3
#
#
#
# Elastic Constant Matrix: (Units=GPa)
#
#
# Indices 1 2 3 4 5 6 
#
# 1 106.4967 53.2047 31.7600 0.0000 46.2484 0.0000
# 2 53.2047 228.5758 87.8594 0.0000 34.6043 0.0000
# 3 31.7600 87.8594 220.5478 0.0000 19.1162 0.0000
# 4 0.0000 0.0000 0.0000 70.2536 0.0000 19.6111
# 5 46.2484 34.6043 19.1162 0.0000 66.7826 0.0000
# 6 0.0000 0.0000 0.0000 19.6111 0.0000 42.6958
#
#
#
# Elastic Compliance Matrix: (Units=1/GPa)
#
#
# Indices 1 2 3 4 5 6 
#
# 1 0.014267 -0.001762 -0.000590 0.000000 -0.008798 0.000000
# 2 -0.001762 0.005700 -0.001914 0.000000 -0.001185 0.000000
# 3 -0.000590 -0.001914 0.005394 0.000000 -0.000144 0.000000
# 4 0.000000 0.000000 0.000000 0.016328 0.000000 -0.007500
# 5 -0.008798 -0.001185 -0.000144 0.000000 0.021722 0.000000
# 6 0.000000 0.000000 0.000000 -0.007500 0.000000 0.026866
#
#
# Mechanical properties :
#
#
# Convention : Reuss Voigt Hill
#
# Bulk Modulus (GPa) = 59.42200 100.14094 79.78147
# Shear Modulus (GPa) = 47.88334 61.46615 54.67475
#
# Velocity S-wave (km/s) = 4.10906 4.65552 4.39080
# Velocity P-wave (km/s) = 6.59284 8.01309 7.33741
#
# Compressibility (1/GPa) = 0.01682878
#
# Stress axis : x y z
#
# Youngs Moduli (GPa) = 70.09126 175.42698 185.38500
#
# Poissons Ratio (x) = 0.30913 0.10937
# Poissons Ratio (y) = 0.12351 0.35489
# Poissons Ratio (z) = 0.04135 0.33583
#
# Static dielectric constant tensor:
#      x y z
#    x 2.502650 0.000000 -0.124700 
#    y 0.000000 2.234860 0.000000 
#    z -0.124700 0.000000 2.124300 
# 
# From -- ./inp_files/15.got.cif
#   From: 2010.05.17/outbox.cif.g08.bks.cpg/sg15_1_cif.got.tgz:15.got - 2010.06.03 18:47:42.
