data_PCOD9302870
_publ_section_title
;
Structure prediction by ZEFSAII (Michael W. Deem and Ramdas Pophale) SiO2 
 PCOD9302870
Probable space group: C 2/C
;
_chemical_formula_sum "Si O2"
_cell_formula_units_Z 48
_cell_length_a 22.101845
_cell_length_b 11.480117
_cell_length_c 9.124177
_cell_angle_alpha 90.000000
_cell_angle_beta 112.307132
_cell_angle_gamma 90.000000
_cell_volume 2141.837683
_symmetry_space_group_name_H-M "C 2/C"
_symmetry_group_IT_number 15
_symmetry_cell_setting 'monoclinic'
loop_
_space_group_symop_operation_xyz
x,y,z
-x,y,1/2-z
-x,-y,-z
x,-y,1/2+z
1/2+x,1/2+y,z
1/2-x,1/2+y,1/2-z
1/2-x,1/2-y,-z
1/2+x,1/2-y,1/2+z
loop_
_atom_site_type_symbol
_atom_site_label
_atom_site_fract_x
_atom_site_fract_y
_atom_site_fract_z
Si Si1 0.827387 0.028008 0.077079
Si Si2 0.260996 0.051218 0.771519
Si Si3 0.428663 0.930294 0.128330
Si Si4 0.368095 0.115460 0.269551
Si Si5 0.576871 0.676442 0.853711
Si Si6 0.366681 0.753551 0.289034
O O1 0.837379 0.137168 0.192451
O O2 0.769733 0.951527 0.096702
O O3 0.892602 0.952231 0.125362
O O4 0.799504 0.064389 0.895079
O O5 0.310922 0.155622 0.786888
O O6 0.299944 0.929890 0.775106
O O7 0.500000 0.962751 0.250000
O O8 0.407442 0.815993 0.198231
O O9 0.381956 0.032337 0.143764
O O10 0.419387 0.912321 0.947749
O O11 0.382311 0.243647 0.223308
O O12 0.500000 0.681036 0.750000
O O13 0.590650 0.724394 0.029460
#
# Coordination Sequence:
#
# PCOD9302870 Si02
#       6
#     8   8   8   8   8   8
#     4  12  26  44  69  99 138 182 225 287 342 414
#     4  11  24  44  69 101 133 173 234 288 349 396
#     4  11  22  40  68 100 138 179 226 280 337 403
#     4  11  23  41  70 102 137 178 225 288 341 401
#     4  12  27  46  69 101 142 187 228 275 345 419
#     4  11  25  45  67 100 135 180 234 284 338 406
#
# _framework density 22.410663
#
# number of rings (size 3 to 8) (size 9 to 14) (size 15 to 20)
#    0.000    0.667    1.667    7.500    4.667    2.667 
#    0.000    0.000    0.000    0.000    0.000    0.000 
#    0.000    0.000    0.000    0.000    0.000    0.000 
#
# Total GULP energy -134360.569497 kJ/mol
# GULP energy per Si atom -5598.357062 kJ/mol
# Density = 2.235966 g / cm^3
# Si number density = 22.410663 Si / 1000 Ang^3
#
#
#
# Elastic Constant Matrix: (Units=GPa)
#
#
# Indices 1 2 3 4 5 6 
#
# 1 65.3383 39.0547 6.3194 0.0000 15.3525 0.0000
# 2 39.0547 71.1045 19.5991 0.0000 2.4373 0.0000
# 3 6.3194 19.5991 111.8657 0.0000 4.6459 0.0000
# 4 0.0000 0.0000 0.0000 22.1623 0.0000 2.6368
# 5 15.3525 2.4373 4.6459 0.0000 27.7324 0.0000
# 6 0.0000 0.0000 0.0000 2.6368 0.0000 19.1876
#
#
#
# Elastic Compliance Matrix: (Units=1/GPa)
#
#
# Indices 1 2 3 4 5 6 
#
# 1 0.027480 -0.015070 0.001676 0.000000 -0.014169 0.000000
# 2 -0.015070 0.023063 -0.003476 0.000000 0.006898 0.000000
# 3 0.001676 -0.003476 0.009546 0.000000 -0.002222 0.000000
# 4 0.000000 0.000000 0.000000 0.045872 0.000000 -0.006304
# 5 -0.014169 0.006898 -0.002222 0.000000 0.043669 0.000000
# 6 0.000000 0.000000 0.000000 -0.006304 0.000000 0.052983
#
#
# Mechanical properties :
#
#
# Convention : Reuss Voigt Hill
#
# Bulk Modulus (GPa) = 37.95111 42.02833 39.98972
# Shear Modulus (GPa) = 20.39702 26.03881 23.21791
#
# Velocity S-wave (km/s) = 3.02014 3.41235 3.22222
# Velocity P-wave (km/s) = 5.39748 5.85833 5.63262
#
# Compressibility (1/GPa) = 0.02634969
#
# Stress axis : x y z
#
# Youngs Moduli (GPa) = 36.39034 43.36016 104.75782
#
# Poissons Ratio (x) = 0.65343 -0.17561
# Poissons Ratio (y) = 0.54840 0.36412
# Poissons Ratio (z) = -0.06100 0.15071
#
# Static dielectric constant tensor:
#      x y z
#    x 1.820930 0.000000 0.005880 
#    y 0.000000 1.844480 0.000000 
#    z 0.005880 0.000000 1.788130 
# 
# From -- ./inp_files/60904.got.cif
#   From: 2010.05.17/outbox.cif.g08.bks.cpg/sg15_31_cif.got.tgz:60904.got - 2010.06.03 18:47:42.
