data_PCOD9302544
_publ_section_title
;
Structure prediction by ZEFSAII (Michael W. Deem and Ramdas Pophale) SiO2 
 PCOD9302544
Probable space group: C 2/C
;
_chemical_formula_sum "Si O2"
_cell_formula_units_Z 64
_cell_length_a 14.501667
_cell_length_b 30.130170
_cell_length_c 10.313998
_cell_angle_alpha 90.000000
_cell_angle_beta 39.742167
_cell_angle_gamma 90.000000
_cell_volume 2881.205777
_symmetry_space_group_name_H-M "C 2/C"
_symmetry_group_IT_number 15
_symmetry_cell_setting 'monoclinic'
loop_
_space_group_symop_operation_xyz
x,y,z
-x,y,1/2-z
-x,-y,-z
x,-y,1/2+z
1/2+x,1/2+y,z
1/2-x,1/2+y,1/2-z
1/2-x,1/2-y,-z
1/2+x,1/2-y,1/2+z
loop_
_atom_site_type_symbol
_atom_site_label
_atom_site_fract_x
_atom_site_fract_y
_atom_site_fract_z
Si Si1 0.839839 0.491277 0.113767
Si Si2 0.718894 0.840081 0.928844
Si Si3 0.031551 0.220554 0.370435
Si Si4 0.839250 0.929552 0.392233
Si Si5 0.432042 0.822500 0.132331
Si Si6 0.598834 0.444382 0.518154
Si Si7 0.169100 0.143383 0.805363
Si Si8 0.817736 0.926239 0.707120
O O1 0.778729 0.456861 0.068419
O O2 0.731914 0.477037 0.348757
O O3 0.792546 0.539170 0.112998
O O4 0.000000 0.500000 0.000000
O O5 0.806598 0.797321 0.788736
O O6 0.819583 0.882036 0.791125
O O7 0.577840 0.849098 0.996315
O O8 0.661681 0.829389 0.134336
O O9 0.026032 0.271054 0.421337
O O10 0.000000 0.218937 0.250000
O O11 0.927994 0.185738 0.554539
O O12 0.867652 0.883674 0.283890
O O13 0.777773 0.919096 0.601174
O O14 0.000000 0.949400 0.250000
O O15 0.332753 0.839944 0.126049
O O16 0.500000 0.449614 0.750000
O O17 0.655818 0.394371 0.432034
O O18 0.475389 0.448421 0.542414
#
# Coordination Sequence:
#
# PCOD9302544 Si02
#       8
#     8   8   8   8   8   8   8   8
#     4  11  28  47  72 108 141 184 238 315 366 425
#     4  11  22  38  61 101 141 179 228 287 369 425
#     4  12  19  38  65 100 137 178 237 294 364 431
#     4  11  24  49  74  98 136 196 245 289 356 450
#     4  11  23  37  62 103 140 181 219 307 369 417
#     4  11  23  44  74 105 139 188 246 294 358 443
#     4  11  22  40  69 100 136 182 244 288 359 433
#     4  12  25  45  70 100 138 191 240 284 362 451
#
# _framework density 22.212921999999999
#
# number of rings (size 3 to 8) (size 9 to 14) (size 15 to 20)
#    0.000    0.750    6.250    2.625    5.250    0.500 
#    0.000    0.000    0.000    8.250    0.000    0.000 
#    0.000    0.000    0.000    0.000    0.000    0.000 
#
# Total GULP energy -178517.683841 kJ/mol
# GULP energy per Si atom -5578.677620 kJ/mol
# Density = 2.216236 g / cm^3
# Si number density = 22.212922 Si / 1000 Ang^3
#
#
#
# Elastic Constant Matrix: (Units=GPa)
#
#
# Indices 1 2 3 4 5 6 
#
# 1 113.7887 25.2114 36.3607 0.0000 -11.7004 0.0000
# 2 25.2114 110.9967 19.0044 0.0000 0.9598 0.0000
# 3 36.3607 19.0044 59.0716 0.0000 -10.3976 0.0000
# 4 0.0000 0.0000 0.0000 22.7706 0.0000 -4.8076
# 5 -11.7004 0.9598 -10.3976 0.0000 57.2139 0.0000
# 6 0.0000 0.0000 0.0000 -4.8076 0.0000 31.9774
#
#
#
# Elastic Compliance Matrix: (Units=1/GPa)
#
#
# Indices 1 2 3 4 5 6 
#
# 1 0.011230 -0.001496 -0.006222 0.000000 0.001191 0.000000
# 2 -0.001496 0.009764 -0.002379 0.000000 -0.000902 0.000000
# 3 -0.006222 -0.002379 0.022011 0.000000 0.002768 0.000000
# 4 0.000000 0.000000 0.000000 0.045356 0.000000 0.006819
# 5 0.001191 -0.000902 0.002768 0.000000 0.018240 0.000000
# 6 0.000000 0.000000 0.000000 0.006819 0.000000 0.032297
#
#
# Mechanical properties :
#
#
# Convention : Reuss Voigt Hill
#
# Bulk Modulus (GPa) = 43.83750 49.44555 46.64152
# Shear Modulus (GPa) = 29.99466 35.94441 32.96954
#
# Velocity S-wave (km/s) = 3.67866 4.02702 3.85678
# Velocity P-wave (km/s) = 6.14991 6.62802 6.39344
#
# Compressibility (1/GPa) = 0.02281152
#
# Stress axis : x y z
#
# Youngs Moduli (GPa) = 89.04524 102.41469 45.43186
#
# Poissons Ratio (x) = 0.15319 0.28267
# Poissons Ratio (y) = 0.13320 0.10810
# Poissons Ratio (z) = 0.55402 0.24368
#
# Static dielectric constant tensor:
#      x y z
#    x 1.911470 0.000000 -0.006750 
#    y 0.000000 1.832110 0.000000 
#    z -0.006750 0.000000 1.879170 
# 
# From -- ./inp_files/101630.got.cif
#   From: 2010.05.17/outbox.cif.g08.bks.cpg/sg15_51_cif.got.tgz:101630.got - 2010.06.03 18:47:42.
