data_PCOD9302089
_publ_section_title
;
Structure prediction by ZEFSAII (Michael W. Deem and Ramdas Pophale) SiO2 
 PCOD9302089
Probable space group: C 2/C
;
_chemical_formula_sum "Si O2"
_cell_formula_units_Z 44
_cell_length_a 9.258586
_cell_length_b 11.780064
_cell_length_c 12.844594
_cell_angle_alpha 90.000000
_cell_angle_beta 86.424583
_cell_angle_gamma 90.000000
_cell_volume 1398.191159
_symmetry_space_group_name_H-M "C 2/C"
_symmetry_group_IT_number 15
_symmetry_cell_setting 'monoclinic'
loop_
_space_group_symop_operation_xyz
x,y,z
-x,y,1/2-z
-x,-y,-z
x,-y,1/2+z
1/2+x,1/2+y,z
1/2-x,1/2+y,1/2-z
1/2-x,1/2-y,-z
1/2+x,1/2-y,1/2+z
loop_
_atom_site_type_symbol
_atom_site_label
_atom_site_fract_x
_atom_site_fract_y
_atom_site_fract_z
Si Si1 0.879587 0.978408 0.065547
Si Si2 0.000000 0.230496 0.250000
Si Si3 0.081125 0.449572 0.852679
Si Si4 0.386908 0.573974 0.820887
Si Si5 0.742326 0.193454 0.112950
Si Si6 0.618796 0.151636 0.555776
O O1 0.732651 0.058912 0.092133
O O2 0.925313 0.945997 0.188505
O O3 0.790693 0.869095 0.030317
O O4 0.930788 0.045431 0.949927
O O5 0.898733 0.179870 0.163954
O O6 0.883139 0.281004 0.335002
O O7 0.246459 0.489123 0.827329
O O8 0.000000 0.419553 0.750000
O O9 0.009031 0.564261 0.899281
O O10 0.067735 0.348529 0.936803
O O11 0.342671 0.706997 0.824147
O O12 0.750000 0.250000 0.000000
#
# Coordination Sequence:
#
# PCOD9302089 Si02
#       6
#     8   4   8   8   8   8
#     4  12  25  47  79 116 155 218 287 344 424 522
#     4  12  26  52  78 112 166 222 268 358 430 510
#     4  11  21  41  75 116 158 219 279 344 432 518
#     4  12  25  49  82 117 165 223 284 359 433 513
#     4  12  26  50  78 113 166 216 274 352 429 511
#     4  11  23  45  79 111 163 221 276 349 435 504
#
# _framework density 31.469232999999999
#
# number of rings (size 3 to 8) (size 9 to 14) (size 15 to 20)
#    0.000    0.364    6.364    2.182    3.818    0.000 
#    1.636    0.909    4.000    0.000    0.000    0.000 
#    0.000    0.000    0.000    0.000    0.000    0.000 
#
# Total GULP energy -122720.675509 kJ/mol
# GULP energy per Si atom -5578.212523 kJ/mol
# Density = 3.139761 g / cm^3
# Si number density = 31.469233 Si / 1000 Ang^3
#
#
#
# Elastic Constant Matrix: (Units=GPa)
#
#
# Indices 1 2 3 4 5 6 
#
# 1 175.5574 40.9408 78.0662 0.0000 -9.0174 0.0000
# 2 40.9408 95.7860 22.6356 0.0000 -8.1853 0.0000
# 3 78.0662 22.6356 292.2450 0.0000 7.5051 0.0000
# 4 0.0000 0.0000 0.0000 32.7851 0.0000 -1.0831
# 5 -9.0174 -8.1853 7.5051 0.0000 102.1754 0.0000
# 6 0.0000 0.0000 0.0000 -1.0831 0.0000 37.2316
#
#
#
# Elastic Compliance Matrix: (Units=1/GPa)
#
#
# Indices 1 2 3 4 5 6 
#
# 1 0.007084 -0.002578 -0.001707 0.000000 0.000544 0.000000
# 2 -0.002578 0.011659 -0.000233 0.000000 0.000724 0.000000
# 3 -0.001707 -0.000233 0.003907 0.000000 -0.000456 0.000000
# 4 0.000000 0.000000 0.000000 0.030531 0.000000 0.000888
# 5 0.000544 0.000724 -0.000456 0.000000 0.009927 0.000000
# 6 0.000000 0.000000 0.000000 0.000888 0.000000 0.026885
#
#
# Mechanical properties :
#
#
# Convention : Reuss Voigt Hill
#
# Bulk Modulus (GPa) = 73.44841 94.09705 83.77273
# Shear Modulus (GPa) = 48.27813 62.56813 55.42313
#
# Velocity S-wave (km/s) = 3.92106 4.46380 4.20120
# Velocity P-wave (km/s) = 6.62495 7.51888 7.08603
#
# Compressibility (1/GPa) = 0.01361500
#
# Stress axis : x y z
#
# Youngs Moduli (GPa) = 141.15858 85.77240 255.92215
#
# Poissons Ratio (x) = 0.22113 0.43677
# Poissons Ratio (y) = 0.36393 0.05961
# Poissons Ratio (z) = 0.24091 0.01998
#
# Static dielectric constant tensor:
#      x y z
#    x 2.722080 0.000000 0.620450 
#    y 0.000000 2.872550 0.000000 
#    z 0.620450 0.000000 4.083140 
# 
# From -- ./inp_files/95729.got.cif
#   From: 2010.05.17/outbox.cif.g08.bks.cpg/sg15_48_cif.got.tgz:95729.got - 2010.06.03 18:47:42.
