data_PCOD9302901
_publ_section_title
;
Structure prediction by ZEFSAII (Michael W. Deem and Ramdas Pophale) SiO2 
 PCOD9302901
Probable space group: C 2/C
;
_chemical_formula_sum "Si O2"
_cell_formula_units_Z 56
_cell_length_a 9.461993
_cell_length_b 12.240049
_cell_length_c 18.860269
_cell_angle_alpha 90.000000
_cell_angle_beta 78.319208
_cell_angle_gamma 90.000000
_cell_volume 2139.071536
_symmetry_space_group_name_H-M "C 2/C"
_symmetry_group_IT_number 15
_symmetry_cell_setting 'monoclinic'
loop_
_space_group_symop_operation_xyz
x,y,z
-x,y,1/2-z
-x,-y,-z
x,-y,1/2+z
1/2+x,1/2+y,z
1/2-x,1/2+y,1/2-z
1/2-x,1/2-y,-z
1/2+x,1/2-y,1/2+z
loop_
_atom_site_type_symbol
_atom_site_label
_atom_site_fract_x
_atom_site_fract_y
_atom_site_fract_z
Si Si1 0.565561 0.617161 0.015064
Si Si2 0.307637 0.363145 0.630910
Si Si3 0.701225 0.059215 0.413153
Si Si4 0.546720 0.206848 0.084253
Si Si5 0.656400 0.296291 0.719766
Si Si6 0.345640 0.941668 0.286725
Si Si7 0.127099 0.114388 0.684787
O O1 0.473692 0.644465 0.095037
O O2 0.731036 0.605298 0.021043
O O3 0.500000 0.500000 0.000000
O O4 0.525479 0.710608 0.963707
O O5 0.216544 0.320710 0.573164
O O6 0.276108 0.300182 0.707801
O O7 0.250424 0.483495 0.654096
O O8 0.531512 0.089069 0.423178
O O9 0.750817 0.133161 0.341737
O O10 0.794262 0.947916 0.390224
O O11 0.543752 0.280630 0.157439
O O12 0.500000 0.344145 0.750000
O O13 0.629480 0.179236 0.686402
O O14 0.500000 0.992527 0.250000
O O15 0.260005 0.910981 0.224850
O O16 0.000000 0.072428 0.750000
#
# Coordination Sequence:
#
# PCOD9302901 Si02
#       7
#     8   8   8   8   8   8   8
#     4  12  27  49  73  98 144 206 255 296 361 450
#     4  12  25  46  72 105 148 189 238 306 376 440
#     4  12  24  44  73 104 142 187 248 303 366 435
#     4  12  28  46  72 107 147 195 246 303 369 448
#     4  11  22  40  70 103 137 182 230 300 374 437
#     4  11  24  41  68 111 145 179 235 303 382 450
#     4  12  23  42  74 111 148 187 245 312 377 450
#
# _framework density 26.179583000000001
#
# number of rings (size 3 to 8) (size 9 to 14) (size 15 to 20)
#    0.000    0.286    5.714    3.857    2.000    0.000 
#    0.000    0.714    0.000    0.000    0.000    0.000 
#    0.000    0.000    0.000    0.000    0.000    0.000 
#
# Total GULP energy -156026.694094 kJ/mol
# GULP energy per Si atom -5572.381932 kJ/mol
# Density = 2.612000 g / cm^3
# Si number density = 26.179583 Si / 1000 Ang^3
#
#
#
# Elastic Constant Matrix: (Units=GPa)
#
#
# Indices 1 2 3 4 5 6 
#
# 1 114.5706 1.8062 12.7331 0.0000 38.6777 0.0000
# 2 1.8062 76.5257 6.3790 0.0000 -0.2680 0.0000
# 3 12.7331 6.3790 78.3951 0.0000 31.2011 0.0000
# 4 0.0000 0.0000 0.0000 110.2170 0.0000 12.1615
# 5 38.6777 -0.2680 31.2011 0.0000 35.8978 0.0000
# 6 0.0000 0.0000 0.0000 12.1615 0.0000 25.0205
#
#
#
# Elastic Compliance Matrix: (Units=1/GPa)
#
#
# Indices 1 2 3 4 5 6 
#
# 1 0.015603 -0.000987 0.006482 0.000000 -0.022453 0.000000
# 2 -0.000987 0.013278 -0.002114 0.000000 0.003000 0.000000
# 3 0.006482 -0.002114 0.022415 0.000000 -0.026482 0.000000
# 4 0.000000 0.000000 0.000000 0.009587 0.000000 -0.004660
# 5 -0.022453 0.003000 -0.026482 0.000000 0.075089 0.000000
# 6 0.000000 0.000000 0.000000 -0.004660 0.000000 0.042232
#
#
# Mechanical properties :
#
#
# Convention : Reuss Voigt Hill
#
# Bulk Modulus (GPa) = 17.22425 34.59201 25.90813
# Shear Modulus (GPa) = 26.20614 50.79860 38.50237
#
# Velocity S-wave (km/s) = 3.16731 4.40976 3.83913
# Velocity P-wave (km/s) = 4.46871 6.25860 5.43781
#
# Compressibility (1/GPa) = 0.05805767
#
# Stress axis : x y z
#
# Youngs Moduli (GPa) = 64.08892 75.31509 44.61293
#
# Poissons Ratio (x) = 0.07436 -0.28920
# Poissons Ratio (y) = 0.06327 0.09432
# Poissons Ratio (z) = -0.41545 0.15923
#
# Static dielectric constant tensor:
#      x y z
#    x 2.229070 0.000000 0.062860 
#    y 0.000000 2.409260 0.000000 
#    z 0.062860 0.000000 2.151670 
# 
# From -- ./inp_files/231600.got.cif
#   From: 2010.05.17/outbox.cif.g08.bks.cpg/sg15_116_cif.got.tgz:231600.got - 2010.06.03 18:47:42.
