data_PCOD9302149
_publ_section_title
;
Structure prediction by ZEFSAII (Michael W. Deem and Ramdas Pophale) SiO2 
 PCOD9302149
Probable space group: C 2/C
;
_chemical_formula_sum "Si O2"
_cell_formula_units_Z 60
_cell_length_a 25.892795
_cell_length_b 20.482281
_cell_length_c 12.702997
_cell_angle_alpha 90.000000
_cell_angle_beta 152.437120
_cell_angle_gamma 90.000000
_cell_volume 3117.334500
_symmetry_space_group_name_H-M "C 2/C"
_symmetry_group_IT_number 15
_symmetry_cell_setting 'monoclinic'
loop_
_space_group_symop_operation_xyz
x,y,z
-x,y,1/2-z
-x,-y,-z
x,-y,1/2+z
1/2+x,1/2+y,z
1/2-x,1/2+y,1/2-z
1/2-x,1/2-y,-z
1/2+x,1/2-y,1/2+z
loop_
_atom_site_type_symbol
_atom_site_label
_atom_site_fract_x
_atom_site_fract_y
_atom_site_fract_z
Si Si1 0.031540 0.714570 0.429613
Si Si2 0.624095 0.386209 0.106165
Si Si3 0.911820 0.844891 0.844108
Si Si4 0.500000 0.031253 0.250000
Si Si5 0.817423 0.522027 0.270760
Si Si6 0.600111 0.536492 0.015129
Si Si7 0.849013 0.617318 0.133412
Si Si8 0.244186 0.373402 0.368090
O O1 0.067834 0.781760 0.548208
O O2 0.133985 0.664468 0.631711
O O3 0.000000 0.723199 0.250000
O O4 0.922871 0.681386 0.285547
O O5 0.726656 0.368835 0.367800
O O6 0.666143 0.370631 0.064695
O O7 0.513341 0.351657 0.945410
O O8 0.603727 0.464286 0.071862
O O9 0.798627 0.844609 0.571591
O O10 0.912891 0.908385 0.920700
O O11 0.415542 0.076190 0.164235
O O12 0.573087 0.988729 0.461311
O O13 0.838829 0.572188 0.216623
O O14 0.784742 0.449917 0.168952
O O15 0.715641 0.544623 0.160500
O O16 0.500000 0.539167 0.750000
#
# Coordination Sequence:
#
# PCOD9302149 Si02
#       8
#     8   8   8   4   8   8   8   8
#     4  12  24  45  63  88 129 175 215 259 314 395
#     4  11  21  42  69  93 125 164 217 264 322 386
#     4  12  26  39  65  94 130 172 214 263 320 378
#     4  12  20  40  62 100 124 166 208 266 324 380
#     4  11  23  36  70  96 128 161 212 274 322 379
#     4  11  22  42  61  99 133 161 209 265 330 377
#     4  12  21  41  66  95 125 171 213 260 324 380
#     4  11  22  43  66  92 126 169 215 263 329 378
#
# _framework density 19.247212999999999
#
# number of rings (size 3 to 8) (size 9 to 14) (size 15 to 20)
#    0.000    0.533    6.000    5.200    0.000    0.533 
#    2.400    0.000    0.000    0.000    0.000    0.000 
#    0.000    0.000    0.000    0.000    0.000    0.000 
#
# Total GULP energy -167828.503231 kJ/mol
# GULP energy per Si atom -5594.283441 kJ/mol
# Density = 1.920341 g / cm^3
# Si number density = 19.247213 Si / 1000 Ang^3
#
#
#
# Elastic Constant Matrix: (Units=GPa)
#
#
# Indices 1 2 3 4 5 6 
#
# 1 38.5459 26.6461 22.6397 0.0000 -6.0746 0.0000
# 2 26.6461 67.9704 33.3604 0.0000 -14.1402 0.0000
# 3 22.6397 33.3604 148.5263 0.0000 -15.8208 0.0000
# 4 0.0000 0.0000 0.0000 -13.3119 0.0000 12.4598
# 5 -6.0746 -14.1402 -15.8208 0.0000 20.8430 0.0000
# 6 0.0000 0.0000 0.0000 12.4598 0.0000 -10.9048
#
#
#
# Elastic Compliance Matrix: (Units=1/GPa)
#
#
# Indices 1 2 3 4 5 6 
#
# 1 0.036486 -0.013049 -0.002656 0.000000 -0.000235 0.000000
# 2 -0.013049 0.022973 -0.002084 0.000000 0.010200 0.000000
# 3 -0.002656 -0.002084 0.008021 0.000000 0.003900 0.000000
# 4 0.000000 0.000000 0.000000 1.081652 0.000000 1.235884
# 5 -0.000235 0.010200 0.003900 0.000000 0.057790 0.000000
# 6 0.000000 0.000000 0.000000 1.235884 0.000000 1.320405
#
#
# Mechanical properties :
#
#
# Convention : Reuss Voigt Hill
#
# Bulk Modulus (GPa) = 31.34556 46.70389 39.02473
# Shear Modulus (GPa) = 1.94285 10.81835 6.38060
#
# Velocity S-wave (km/s) = 1.00579 2.37338 1.82271
# Velocity P-wave (km/s) = 4.20356 5.64168 4.97486
#
# Compressibility (1/GPa) = 0.03190244
#
# Stress axis : x y z
#
# Youngs Moduli (GPa) = 27.40742 43.52979 124.66881
#
# Poissons Ratio (x) = 0.56802 0.33108
# Poissons Ratio (y) = 0.35764 0.25986
# Poissons Ratio (z) = 0.07278 0.09073
#
# Static dielectric constant tensor:
#      x y z
#    x 1.657560 0.000000 -0.000070 
#    y 0.000000 1.649270 0.000000 
#    z -0.000070 0.000000 1.671710 
# 
# From -- ./inp_files/119968.got.cif
#   From: 2010.05.17/outbox.cif.g08.bks.cpg/sg15_60_cif.got.tgz:119968.got - 2010.06.03 18:47:42.
