data_PCOD9302320
_publ_section_title
;
Structure prediction by ZEFSAII (Michael W. Deem and Ramdas Pophale) SiO2 
 PCOD9302320
Probable space group: C 2/C
;
_chemical_formula_sum "Si O2"
_cell_formula_units_Z 56
_cell_length_a 10.068975
_cell_length_b 16.334971
_cell_length_c 20.459014
_cell_angle_alpha 90.000000
_cell_angle_beta 53.216147
_cell_angle_gamma 90.000000
_cell_volume 2695.049260
_symmetry_space_group_name_H-M "C 2/C"
_symmetry_group_IT_number 15
_symmetry_cell_setting 'monoclinic'
loop_
_space_group_symop_operation_xyz
x,y,z
-x,y,1/2-z
-x,-y,-z
x,-y,1/2+z
1/2+x,1/2+y,z
1/2-x,1/2+y,1/2-z
1/2-x,1/2-y,-z
1/2+x,1/2-y,1/2+z
loop_
_atom_site_type_symbol
_atom_site_label
_atom_site_fract_x
_atom_site_fract_y
_atom_site_fract_z
Si Si1 0.712022 0.828641 0.331402
Si Si2 0.302881 0.095800 0.798970
Si Si3 0.305707 0.083342 0.234063
Si Si4 0.000000 0.844705 0.750000
Si Si5 0.403434 0.289714 0.915193
Si Si6 0.998992 0.512695 0.924299
Si Si7 0.860691 0.065290 0.521164
Si Si8 0.500000 0.773882 0.750000
O O1 0.757906 0.847300 0.242252
O O2 0.562353 0.765687 0.380118
O O3 0.630305 0.913974 0.375606
O O4 0.868669 0.789027 0.321300
O O5 0.500000 0.111510 0.750000
O O6 0.198415 0.110225 0.894999
O O7 0.293138 0.998583 0.782587
O O8 0.380567 0.163296 0.246671
O O9 0.131004 0.103104 0.252598
O O10 0.432032 0.060817 0.139050
O O11 0.102782 0.798152 0.662103
O O12 0.250000 0.250000 0.000000
O O13 0.426880 0.376162 0.944597
O O14 0.814255 0.530824 0.953811
O O15 0.000000 0.500000 0.000000
O O16 0.000000 0.000000 0.500000
#
# Coordination Sequence:
#
# PCOD9302320 Si02
#       8
#     8   8   8   4   8   8   8   4
#     4  11  26  43  71 100 139 184 236 296 357 423
#     4  11  21  45  72  97 140 194 234 283 355 429
#     4  11  23  42  73  98 141 185 238 284 357 430
#     4  12  26  43  71 106 136 188 232 284 362 423
#     4  12  25  43  69 104 143 178 238 291 354 422
#     4  11  24  46  65  97 145 188 231 290 356 428
#     4  12  25  41  72 106 137 181 238 292 347 433
#     4  12  24  45  71 110 136 178 238 310 356 417
#
# _framework density 20.778841
#
# number of rings (size 3 to 8) (size 9 to 14) (size 15 to 20)
#    0.000    0.571    6.429    1.714    5.000    3.429 
#    0.000    0.714    0.000    0.000    0.000    0.000 
#    0.000    0.000    0.000    0.000    0.000    0.000 
#
# Total GULP energy -156332.038922 kJ/mol
# GULP energy per Si atom -5583.287104 kJ/mol
# Density = 2.073155 g / cm^3
# Si number density = 20.778841 Si / 1000 Ang^3
#
#
#
# Elastic Constant Matrix: (Units=GPa)
#
#
# Indices 1 2 3 4 5 6 
#
# 1 85.5367 39.7959 19.5884 0.0000 -4.2908 0.0000
# 2 39.7959 69.0643 29.3963 0.0000 -13.7440 0.0000
# 3 19.5884 29.3963 140.3251 0.0001 13.1341 -0.0001
# 4 0.0000 0.0000 0.0001 35.0109 0.0000 -1.8437
# 5 -4.2908 -13.7440 13.1341 0.0000 26.0808 0.0000
# 6 0.0000 0.0000 -0.0001 -1.8437 0.0000 11.3415
#
#
#
# Elastic Compliance Matrix: (Units=1/GPa)
#
#
# Indices 1 2 3 4 5 6 
#
# 1 0.016118 -0.009812 0.000043 0.000000 -0.002540 0.000000
# 2 -0.009812 0.025219 -0.005254 0.000000 0.014321 0.000000
# 3 0.000043 -0.005254 0.008899 0.000000 -0.007243 0.000000
# 4 0.000000 0.000000 0.000000 0.028809 0.000000 0.004683
# 5 -0.002540 0.014321 -0.007243 0.000000 0.049119 0.000000
# 6 0.000000 0.000000 0.000000 0.004683 0.000000 0.088933
#
#
# Mechanical properties :
#
#
# Convention : Reuss Voigt Hill
#
# Bulk Modulus (GPa) = 49.52534 52.49859 51.01196
# Shear Modulus (GPa) = 19.69492 28.22969 23.96231
#
# Velocity S-wave (km/s) = 3.08203 3.68989 3.39957
# Velocity P-wave (km/s) = 6.04578 6.59348 6.32556
#
# Compressibility (1/GPa) = 0.02019168
#
# Stress axis : x y z
#
# Youngs Moduli (GPa) = 62.04089 39.65245 112.37434
#
# Poissons Ratio (x) = 0.38905 -0.00485
# Poissons Ratio (y) = 0.60872 0.59040
# Poissons Ratio (z) = -0.00268 0.20833
#
# Static dielectric constant tensor:
#      x y z
#    x 1.714010 0.000000 -0.031620 
#    y 0.000000 1.756030 0.000000 
#    z -0.031620 0.000000 1.747280 
# 
# From -- ./inp_files/232615.got.cif
#   From: 2010.05.17/outbox.cif.g08.bks.cpg/sg15_117_cif.got.tgz:232615.got - 2010.06.03 18:47:42.
