data_PCOD9302836
_publ_section_title
;
Structure prediction by ZEFSAII (Michael W. Deem and Ramdas Pophale) SiO2 
 PCOD9302836
Probable space group: C 2/C
;
_chemical_formula_sum "Si O2"
_cell_formula_units_Z 40
_cell_length_a 11.712686
_cell_length_b 7.698515
_cell_length_c 19.117070
_cell_angle_alpha 90.000000
_cell_angle_beta 116.586629
_cell_angle_gamma 90.000000
_cell_volume 1541.515755
_symmetry_space_group_name_H-M "C 2/C"
_symmetry_group_IT_number 15
_symmetry_cell_setting 'monoclinic'
loop_
_space_group_symop_operation_xyz
x,y,z
-x,y,1/2-z
-x,-y,-z
x,-y,1/2+z
1/2+x,1/2+y,z
1/2-x,1/2+y,1/2-z
1/2-x,1/2-y,-z
1/2+x,1/2-y,1/2+z
loop_
_atom_site_type_symbol
_atom_site_label
_atom_site_fract_x
_atom_site_fract_y
_atom_site_fract_z
Si Si1 0.206514 0.373726 0.231816
Si Si2 0.708976 0.312697 0.064574
Si Si3 0.194644 0.349409 0.848849
Si Si4 0.540058 0.628286 0.331901
Si Si5 0.022591 0.801979 0.118386
O O1 0.174238 0.543372 0.270323
O O2 0.076016 0.263362 0.194891
O O3 0.341435 0.330217 0.306293
O O4 0.247507 0.335449 0.161421
O O5 0.718199 0.519351 0.081779
O O6 0.572459 0.247752 0.055751
O O7 0.827586 0.226709 0.139980
O O8 0.750000 0.250000 0.000000
O O9 0.072035 0.317810 0.863739
O O10 0.500000 0.527969 0.250000
O O11 0.540045 0.493006 0.394886
#
# Coordination Sequence:
#
# PCOD9302836 Si02
#       5
#     8   8   8   8   8
#     4  11  22  40  66 109 137 171 225 291 352 410
#     4  11  27  48  68  98 144 190 238 285 340 416
#     4  11  24  42  71  99 143 179 223 288 357 407
#     4  12  22  43  71 101 136 184 223 291 352 408
#     4  11  25  42  69 105 143 176 237 285 346 415
#
# _framework density 25.948485000000002
#
# number of rings (size 3 to 8) (size 9 to 14) (size 15 to 20)
#    0.000    0.800    8.000    1.800    5.600    1.600 
#    0.000    1.000    0.000    0.000    0.000    0.000 
#    0.000    0.000    0.000    0.000    0.000    0.000 
#
# Total GULP energy -111448.825629 kJ/mol
# GULP energy per Si atom -5572.441281 kJ/mol
# Density = 2.588943 g / cm^3
# Si number density = 25.948485 Si / 1000 Ang^3
#
#
#
# Elastic Constant Matrix: (Units=GPa)
#
#
# Indices 1 2 3 4 5 6 
#
# 1 212.1444 44.1053 40.7869 0.0000 -62.1420 0.0000
# 2 44.1053 72.1223 9.2896 0.0000 -8.2572 0.0000
# 3 40.7869 9.2896 44.9499 0.0000 -20.0681 0.0000
# 4 0.0000 0.0000 0.0000 13.8607 0.0000 -12.8348
# 5 -62.1420 -8.2572 -20.0681 0.0000 45.0993 0.0000
# 6 0.0000 0.0000 0.0000 -12.8348 0.0000 52.9646
#
#
#
# Elastic Compliance Matrix: (Units=1/GPa)
#
#
# Indices 1 2 3 4 5 6 
#
# 1 0.009239 -0.004065 -0.002736 0.000000 0.010769 0.000000
# 2 -0.004065 0.016128 -0.001032 0.000000 -0.003107 0.000000
# 3 -0.002736 -0.001032 0.028921 0.000000 0.008911 0.000000
# 4 0.000000 0.000000 0.000000 0.093019 0.000000 0.022541
# 5 0.010769 -0.003107 0.008911 0.000000 0.040409 0.000000
# 6 0.000000 0.000000 0.000000 0.022541 0.000000 0.024343
#
#
# Mechanical properties :
#
#
# Convention : Reuss Voigt Hill
#
# Bulk Modulus (GPa) = 25.89091 57.50889 41.69990
# Shear Modulus (GPa) = 20.78148 38.05390 29.41769
#
# Velocity S-wave (km/s) = 2.83304 3.83367 3.37069
# Velocity P-wave (km/s) = 4.54983 6.46582 5.59052
#
# Compressibility (1/GPa) = 0.03862359
#
# Stress axis : x y z
#
# Youngs Moduli (GPa) = 108.23176 62.00262 34.57724
#
# Poissons Ratio (x) = 0.25203 0.09459
# Poissons Ratio (y) = 0.43995 0.03568
# Poissons Ratio (z) = 0.29608 0.06399
#
# Static dielectric constant tensor:
#      x y z
#    x 2.055080 0.000000 -0.121680 
#    y 0.000000 2.173290 0.000000 
#    z -0.121680 0.000000 2.237050 
# 
# From -- ./inp_files/235886.got.cif
#   From: 2010.05.17/outbox.cif.g08.bks.cpg/sg15_118_cif.got.tgz:235886.got - 2010.06.03 18:47:42.
