data_PCOD9302270
_publ_section_title
;
Structure prediction by ZEFSAII (Michael W. Deem and Ramdas Pophale) SiO2 
 PCOD9302270
Probable space group: C 2/C
;
_chemical_formula_sum "Si O2"
_cell_formula_units_Z 64
_cell_length_a 14.887670
_cell_length_b 12.148376
_cell_length_c 28.653437
_cell_angle_alpha 90.000000
_cell_angle_beta 41.255383
_cell_angle_gamma 90.000000
_cell_volume 3417.287028
_symmetry_space_group_name_H-M "C 2/C"
_symmetry_group_IT_number 15
_symmetry_cell_setting 'monoclinic'
loop_
_space_group_symop_operation_xyz
x,y,z
-x,y,1/2-z
-x,-y,-z
x,-y,1/2+z
1/2+x,1/2+y,z
1/2-x,1/2+y,1/2-z
1/2-x,1/2-y,-z
1/2+x,1/2-y,1/2+z
loop_
_atom_site_type_symbol
_atom_site_label
_atom_site_fract_x
_atom_site_fract_y
_atom_site_fract_z
Si Si1 0.656140 0.460720 0.834610
Si Si2 0.208548 0.240338 0.695813
Si Si3 0.351054 0.348006 0.831176
Si Si4 0.139949 0.001711 0.582611
Si Si5 0.381547 0.965906 0.917266
Si Si6 0.079188 0.241954 0.645807
Si Si7 0.150060 0.586254 0.668965
Si Si8 0.306487 0.999047 0.677540
O O1 0.682949 0.332487 0.833787
O O2 0.496778 0.484532 0.894049
O O3 0.738042 0.531155 0.841040
O O4 0.723148 0.485943 0.758204
O O5 0.147697 0.266400 0.668878
O O6 0.267717 0.118335 0.672799
O O7 0.083049 0.246137 0.781319
O O8 0.500000 0.365815 0.750000
O O9 0.351014 0.409220 0.880845
O O10 0.328226 0.217395 0.843439
O O11 0.243086 0.406475 0.839262
O O12 0.121861 0.120670 0.613750
O O13 0.272050 0.002812 0.498757
O O14 0.350939 0.030061 0.881185
O O15 0.534334 0.992504 0.873829
O O16 0.378322 0.836022 0.906708
O O17 0.000000 0.567607 0.750000
#
# Coordination Sequence:
#
# PCOD9302270 Si02
#       8
#     8   8   8   8   8   8   8   8
#     4  12  24  41  70  99 128 175 227 267 325 389
#     4  11  22  40  73  98 127 169 231 277 313 381
#     4  11  24  44  68  99 133 171 224 276 320 390
#     4  12  27  45  66  99 139 176 214 271 338 393
#     4  12  27  45  66  99 139 176 214 271 338 393
#     4  11  21  44  68  97 134 170 217 283 324 377
#     4  11  24  44  68  99 133 171 224 276 320 390
#     4  12  24  41  70  99 128 175 227 267 325 389
#
# _framework density 18.728307000000001
#
# number of rings (size 3 to 8) (size 9 to 14) (size 15 to 20)
#    0.000    0.500    7.500    0.375    5.250    1.500 
#    0.000    0.000    0.000    0.000    0.000    0.000 
#    0.000    0.000    0.000    0.000    0.000    0.000 
#
# Total GULP energy -178997.319685 kJ/mol
# GULP energy per Si atom -5593.666240 kJ/mol
# Density = 1.868568 g / cm^3
# Si number density = 18.728307 Si / 1000 Ang^3
#
#
#
# Elastic Constant Matrix: (Units=GPa)
#
#
# Indices 1 2 3 4 5 6 
#
# 1 89.8888 9.3129 -3.2886 0.0000 -5.7530 0.0000
# 2 9.3129 73.0025 0.4207 0.0000 5.2853 0.0000
# 3 -3.2886 0.4207 39.5116 0.0000 -1.5126 0.0000
# 4 0.0000 0.0000 0.0000 11.3351 0.0000 5.9110
# 5 -5.7530 5.2853 -1.5126 0.0000 24.3619 0.0000
# 6 0.0000 0.0000 0.0000 5.9110 0.0000 23.1241
#
#
#
# Elastic Compliance Matrix: (Units=1/GPa)
#
#
# Indices 1 2 3 4 5 6 
#
# 1 0.011545 -0.001708 0.001100 0.000000 0.003165 0.000000
# 2 -0.001708 0.014172 -0.000427 0.000000 -0.003505 0.000000
# 3 0.001100 -0.000427 0.025479 0.000000 0.001934 0.000000
# 4 0.000000 0.000000 0.000000 0.101790 0.000000 -0.026020
# 5 0.003165 -0.003505 0.001934 0.000000 0.042676 0.000000
# 6 0.000000 0.000000 0.000000 -0.026020 0.000000 0.049896
#
#
# Mechanical properties :
#
#
# Convention : Reuss Voigt Hill
#
# Bulk Modulus (GPa) = 20.35597 23.92143 22.13870
# Shear Modulus (GPa) = 18.93915 24.82808 21.88361
#
# Velocity S-wave (km/s) = 3.18348 3.64496 3.42201
# Velocity P-wave (km/s) = 4.94018 5.52403 5.24025
#
# Compressibility (1/GPa) = 0.04912564
#
# Stress axis : x y z
#
# Youngs Moduli (GPa) = 86.62008 70.56034 39.24767
#
# Poissons Ratio (x) = 0.12053 -0.04318
# Poissons Ratio (y) = 0.14797 0.01677
# Poissons Ratio (z) = -0.09530 0.03015
#
# Static dielectric constant tensor:
#      x y z
#    x 1.639140 0.000000 0.003140 
#    y 0.000000 1.635650 0.000000 
#    z 0.003140 0.000000 1.610600 
# 
# From -- ./inp_files/296115.got.cif
#   From: 2010.05.17/outbox.cif.g08.bks.cpg/sg15_149_cif.got.tgz:296115.got - 2010.06.03 18:47:42.
