data_PCOD9302922
_publ_section_title
;
Structure prediction by ZEFSAII (Michael W. Deem and Ramdas Pophale) SiO2 
 PCOD9302922
Probable space group: C 2/C
;
_chemical_formula_sum "Si O2"
_cell_formula_units_Z 60
_cell_length_a 12.224151
_cell_length_b 16.963672
_cell_length_c 26.456209
_cell_angle_alpha 90.000000
_cell_angle_beta 150.065993
_cell_angle_gamma 90.000000
_cell_volume 2737.591428
_symmetry_space_group_name_H-M "C 2/C"
_symmetry_group_IT_number 15
_symmetry_cell_setting 'monoclinic'
loop_
_space_group_symop_operation_xyz
x,y,z
-x,y,1/2-z
-x,-y,-z
x,-y,1/2+z
1/2+x,1/2+y,z
1/2-x,1/2+y,1/2-z
1/2-x,1/2-y,-z
1/2+x,1/2-y,1/2+z
loop_
_atom_site_type_symbol
_atom_site_label
_atom_site_fract_x
_atom_site_fract_y
_atom_site_fract_z
Si Si1 0.735110 0.203181 0.569070
Si Si2 0.031191 0.273065 0.165590
Si Si3 0.176256 0.455362 0.909816
Si Si4 0.815464 0.447239 0.292201
Si Si5 0.460029 0.688363 0.029782
Si Si6 0.944963 0.690058 0.361940
Si Si7 0.376943 0.488852 0.887189
Si Si8 0.500000 0.410138 0.250000
O O1 0.628765 0.275510 0.557210
O O2 0.544828 0.169609 0.456591
O O3 0.843207 0.143870 0.652161
O O4 0.923758 0.234632 0.607359
O O5 0.156418 0.355609 0.208976
O O6 0.190159 0.213032 0.258960
O O7 0.997670 0.235521 0.096859
O O8 0.788049 0.294282 0.087956
O O9 0.206297 0.489303 0.865334
O O10 0.057434 0.518871 0.897857
O O11 0.025365 0.378950 0.856418
O O12 0.428773 0.447303 0.027639
O O13 0.727491 0.492978 0.208088
O O14 0.654239 0.458340 0.274226
O O15 0.513472 0.597526 0.063187
#
# Coordination Sequence:
#
# PCOD9302922 Si02
#       8
#     8   8   8   8   8   8   8   4
#     4  11  22  40  73  98 134 175 240 280 349 412
#     4  11  24  41  67  98 141 177 235 287 349 410
#     4  11  24  43  63 102 142 172 224 290 359 410
#     4  12  24  42  66  99 136 183 236 281 348 420
#     4  11  22  45  70  99 135 185 224 292 352 419
#     4  11  23  41  67 105 135 175 230 297 337 429
#     4  11  24  41  70 102 136 178 226 291 357 418
#     4  12  24  46  66  98 134 196 234 290 340 426
#
# _framework density 21.917076999999999
#
# number of rings (size 3 to 8) (size 9 to 14) (size 15 to 20)
#    0.000    0.800    5.333    2.000    1.867    0.533 
#    2.400    6.667    0.000    0.000    0.000    0.000 
#    0.000    0.000    0.000    0.000    0.000    0.000 
#
# Total GULP energy -167608.341757 kJ/mol
# GULP energy per Si atom -5586.944725 kJ/mol
# Density = 2.186719 g / cm^3
# Si number density = 21.917077 Si / 1000 Ang^3
#
#
#
# Elastic Constant Matrix: (Units=GPa)
#
#
# Indices 1 2 3 4 5 6 
#
# 1 93.5361 25.0403 37.9452 -0.0003 3.0883 0.0000
# 2 25.0403 64.6509 23.6228 -0.0001 13.9566 0.0000
# 3 37.9452 23.6228 122.2805 0.0007 1.0484 -0.0001
# 4 -0.0003 -0.0001 0.0007 33.1271 -0.0001 7.4289
# 5 3.0883 13.9566 1.0484 -0.0001 34.4465 0.0000
# 6 0.0000 0.0000 -0.0001 7.4289 0.0000 29.7712
#
#
#
# Elastic Compliance Matrix: (Units=1/GPa)
#
#
# Indices 1 2 3 4 5 6 
#
# 1 0.013074 -0.003977 -0.003293 0.000000 0.000539 0.000000
# 2 -0.003977 0.019527 -0.002474 0.000000 -0.007480 0.000000
# 3 -0.003293 -0.002474 0.009669 0.000000 0.001003 0.000000
# 4 0.000000 0.000000 0.000000 0.031976 0.000000 -0.007979
# 5 0.000539 -0.007480 0.001003 0.000000 0.031982 0.000000
# 6 0.000000 0.000000 0.000000 -0.007979 0.000000 0.035581
#
#
# Mechanical properties :
#
#
# Convention : Reuss Voigt Hill
#
# Bulk Modulus (GPa) = 43.89563 50.40937 47.15250
# Shear Modulus (GPa) = 29.60489 32.39289 30.99889
#
# Velocity S-wave (km/s) = 3.67927 3.84861 3.76489
# Velocity P-wave (km/s) = 6.17421 6.54210 6.36082
#
# Compressibility (1/GPa) = 0.02278131
#
# Stress axis : x y z
#
# Youngs Moduli (GPa) = 76.48826 51.21204 103.42063
#
# Poissons Ratio (x) = 0.20366 0.34060
# Poissons Ratio (y) = 0.30418 0.25587
# Poissons Ratio (z) = 0.25190 0.12670
#
# Static dielectric constant tensor:
#      x y z
#    x 1.774130 0.000000 0.004660 
#    y 0.000000 1.835590 0.000000 
#    z 0.004660 0.000000 1.843210 
# 
# From -- ./inp_files/293557.got.cif
#   From: 2010.05.17/outbox.cif.g08.bks.cpg/sg15_147_cif.got.tgz:293557.got - 2010.06.03 18:47:42.
