data_PCOD9302232
_publ_section_title
;
Structure prediction by ZEFSAII (Michael W. Deem and Ramdas Pophale) SiO2 
 PCOD9302232
Probable space group: C 2/C
;
_chemical_formula_sum "Si O2"
_cell_formula_units_Z 52
_cell_length_a 29.070792
_cell_length_b 14.564342
_cell_length_c 17.327509
_cell_angle_alpha 90.000000
_cell_angle_beta 17.107514
_cell_angle_gamma 90.000000
_cell_volume 2158.121305
_symmetry_space_group_name_H-M "C 2/C"
_symmetry_group_IT_number 15
_symmetry_cell_setting 'monoclinic'
loop_
_space_group_symop_operation_xyz
x,y,z
-x,y,1/2-z
-x,-y,-z
x,-y,1/2+z
1/2+x,1/2+y,z
1/2-x,1/2+y,1/2-z
1/2-x,1/2-y,-z
1/2+x,1/2-y,1/2+z
loop_
_atom_site_type_symbol
_atom_site_label
_atom_site_fract_x
_atom_site_fract_y
_atom_site_fract_z
Si Si1 0.536269 0.852597 0.602320
Si Si2 0.487475 0.404399 0.563625
Si Si3 0.500000 0.214708 0.750000
Si Si4 0.809132 0.971325 0.124760
Si Si5 0.223734 0.861696 0.471446
Si Si6 0.739725 0.328650 0.783177
Si Si7 0.067579 0.709082 0.377737
O O1 0.629243 0.944554 0.431433
O O2 0.646685 0.763306 0.411362
O O3 0.401103 0.831929 0.757258
O O4 0.500000 0.854416 0.750000
O O5 0.500000 0.500000 0.500000
O O6 0.597584 0.410075 0.463020
O O7 0.318634 0.386973 0.873169
O O8 0.538263 0.318048 0.431183
O O9 0.614035 0.277630 0.619819
O O10 0.615283 0.162494 0.507829
O O11 0.851273 0.076023 0.072613
O O12 0.824639 0.941823 0.011103
O O13 0.403938 0.836663 0.168999
O O14 0.801734 0.316084 0.770287
#
# Coordination Sequence:
#
# PCOD9302232 Si02
#       7
#     8   8   4   8   8   8   8
#     4  11  25  47  65  94 142 181 223 283 345 403
#     4  12  23  39  67 104 132 169 235 281 332 409
#     4  12  20  44  74  96 134 178 222 290 336 398
#     4  11  24  45  64  95 139 175 223 277 348 396
#     4  11  21  43  71  93 134 178 218 285 341 399
#     4  12  25  42  70 103 134 183 226 280 343 405
#     4  11  23  44  70  99 133 179 236 276 343 412
#
# _framework density 24.095030999999999
#
# number of rings (size 3 to 8) (size 9 to 14) (size 15 to 20)
#    0.000    0.615    7.692    1.385    1.077    5.538 
#    2.769    0.000    0.000    0.000    0.000    0.000 
#    0.000    0.000    0.000    0.000    0.000    0.000 
#
# Total GULP energy -145569.405788 kJ/mol
# GULP energy per Si atom -5598.823300 kJ/mol
# Density = 2.404019 g / cm^3
# Si number density = 24.095031 Si / 1000 Ang^3
#
#
#
# Elastic Constant Matrix: (Units=GPa)
#
#
# Indices 1 2 3 4 5 6 
#
# 1 107.5321 -0.1092 2.7875 -0.0028 23.5167 0.0002
# 2 -0.1092 81.4298 0.1250 -0.0075 10.0119 0.0022
# 3 2.7875 0.1250 26.4028 -0.0069 17.2981 0.0003
# 4 -0.0028 -0.0075 -0.0069 16.9605 0.0020 -1.4994
# 5 23.5167 10.0119 17.2981 0.0020 44.3910 -0.0001
# 6 0.0002 0.0022 0.0003 -1.4994 -0.0001 32.3130
#
#
#
# Elastic Compliance Matrix: (Units=1/GPa)
#
#
# Indices 1 2 3 4 5 6 
#
# 1 0.010817 0.000915 0.003684 0.000005 -0.007373 0.000000
# 2 0.000915 0.012825 0.002760 0.000007 -0.004453 -0.000001
# 3 0.003684 0.002760 0.052584 0.000026 -0.023065 0.000000
# 4 0.000005 0.000007 0.000026 0.059204 -0.000017 0.002747
# 5 -0.007373 -0.004453 -0.023065 -0.000017 0.036425 0.000000
# 6 0.000000 -0.000001 0.000000 0.002747 0.000000 0.031075
#
#
# Mechanical properties :
#
#
# Convention : Reuss Voigt Hill
#
# Bulk Modulus (GPa) = 10.99573 24.55238 17.77406
# Shear Modulus (GPa) = 22.88061 32.90365 27.89213
#
# Velocity S-wave (km/s) = 3.08490 3.69938 3.40603
# Velocity P-wave (km/s) = 4.15478 5.33471 4.78128
#
# Compressibility (1/GPa) = 0.09094438
#
# Stress axis : x y z
#
# Youngs Moduli (GPa) = 92.44430 77.97265 19.01729
#
# Poissons Ratio (x) = -0.07137 -0.07006
# Poissons Ratio (y) = -0.08462 -0.05249
# Poissons Ratio (z) = -0.34055 -0.21521
#
# Static dielectric constant tensor:
#      x y z
#    x 1.959680 0.000000 0.002380 
#    y 0.000000 1.867280 0.000000 
#    z 0.002380 0.000000 1.981500 
# 
# From -- ./inp_files/225468.got.cif
#   From: 2010.05.17/outbox.cif.g08.bks.cpg/sg15_113_cif.got.tgz:225468.got - 2010.06.03 18:47:42.
