data_PCOD9302822
_publ_section_title
;
Structure prediction by ZEFSAII (Michael W. Deem and Ramdas Pophale) SiO2 
 PCOD9302822
Probable space group: C 2/C
;
_chemical_formula_sum "Si O2"
_cell_formula_units_Z 64
_cell_length_a 19.314647
_cell_length_b 11.734773
_cell_length_c 19.918900
_cell_angle_alpha 90.000000
_cell_angle_beta 137.346495
_cell_angle_gamma 90.000000
_cell_volume 3058.979360
_symmetry_space_group_name_H-M "C 2/C"
_symmetry_group_IT_number 15
_symmetry_cell_setting 'monoclinic'
loop_
_space_group_symop_operation_xyz
x,y,z
-x,y,1/2-z
-x,-y,-z
x,-y,1/2+z
1/2+x,1/2+y,z
1/2-x,1/2+y,1/2-z
1/2-x,1/2-y,-z
1/2+x,1/2-y,1/2+z
loop_
_atom_site_type_symbol
_atom_site_label
_atom_site_fract_x
_atom_site_fract_y
_atom_site_fract_z
Si Si1 0.335838 0.424033 0.237487
Si Si2 0.129674 0.154647 0.177864
Si Si3 0.482465 0.817928 0.008826
Si Si4 0.292430 0.676883 0.840955
Si Si5 0.808635 0.946753 0.925167
Si Si6 0.040399 0.120217 0.848928
Si Si7 0.131103 0.542117 0.519055
Si Si8 0.889079 0.637716 0.141053
O O1 0.394199 0.539815 0.299277
O O2 0.271923 0.387776 0.256718
O O3 0.428472 0.337147 0.293432
O O4 0.250838 0.443588 0.121361
O O5 0.043116 0.248961 0.108702
O O6 0.219311 0.214852 0.283902
O O7 0.158143 0.114047 0.121675
O O8 0.563134 0.866876 0.012549
O O9 0.406061 0.726232 0.923131
O O10 0.415679 0.921578 0.990793
O O11 0.285591 0.579421 0.892133
O O12 0.705284 0.888775 0.877839
O O13 0.895080 0.936585 0.044912
O O14 0.107394 0.229190 0.876193
O O15 0.000000 0.060608 0.750000
O O16 0.120846 0.565114 0.433607
O O17 0.000000 0.611120 0.250000
#
# Coordination Sequence:
#
# PCOD9302822 Si02
#       8
#     8   8   8   8   8   8   8   8
#     4  11  22  40  65  98 130 166 217 271 331 386
#     4  11  23  39  67  96 129 171 212 276 326 390
#     4  11  23  39  66  95 132 171 221 266 329 383
#     4  11  23  39  66  97 128 172 215 272 328 389
#     4  11  25  43  64  97 134 168 222 273 327 396
#     4  11  24  41  68  94 131 173 211 273 328 389
#     4  11  23  39  65  96 131 171 220 273 323 399
#     4  11  26  40  64  95 130 173 215 269 331 389
#
# _framework density 20.922011000000001
#
# number of rings (size 3 to 8) (size 9 to 14) (size 15 to 20)
#    0.000    1.000    2.500    4.125    7.000    2.000 
#    0.000    0.625    2.750    0.000    0.000    0.000 
#    0.000    0.000    0.000    0.000    0.000    0.000 
#
# Total GULP energy -178597.856048 kJ/mol
# GULP energy per Si atom -5581.183002 kJ/mol
# Density = 2.087439 g / cm^3
# Si number density = 20.922011 Si / 1000 Ang^3
#
#
#
# Elastic Constant Matrix: (Units=GPa)
#
#
# Indices 1 2 3 4 5 6 
#
# 1 57.0460 22.0286 44.2904 0.0000 0.9851 0.0000
# 2 22.0286 76.3938 21.3506 0.0000 0.7450 0.0000
# 3 44.2904 21.3506 150.6118 0.0000 2.6024 0.0000
# 4 0.0000 0.0000 0.0000 34.9000 0.0000 4.9083
# 5 0.9851 0.7450 2.6024 0.0000 38.5544 0.0000
# 6 0.0000 0.0000 0.0000 4.9083 0.0000 3.8109
#
#
#
# Elastic Compliance Matrix: (Units=1/GPa)
#
#
# Indices 1 2 3 4 5 6 
#
# 1 0.024606 -0.005282 -0.006486 0.000000 -0.000089 0.000000
# 2 -0.005282 0.014765 -0.000538 0.000000 -0.000114 0.000000
# 3 -0.006486 -0.000538 0.008630 0.000000 -0.000406 0.000000
# 4 0.000000 0.000000 0.000000 0.034992 0.000000 -0.045068
# 5 -0.000089 -0.000114 -0.000406 0.000000 0.025969 0.000000
# 6 0.000000 0.000000 0.000000 -0.045068 0.000000 0.320449
#
#
# Mechanical properties :
#
#
# Convention : Reuss Voigt Hill
#
# Bulk Modulus (GPa) = 42.75291 51.04344 46.89817
# Shear Modulus (GPa) = 10.82677 28.54520 19.68599
#
# Velocity S-wave (km/s) = 2.27729 3.69773 3.07077
# Velocity P-wave (km/s) = 5.23388 6.53307 5.91923
#
# Compressibility (1/GPa) = 0.02339022
#
# Stress axis : x y z
#
# Youngs Moduli (GPa) = 40.63988 67.72984 115.87355
#
# Poissons Ratio (x) = 0.35774 0.75152
# Poissons Ratio (y) = 0.21466 0.06232
# Poissons Ratio (z) = 0.26358 0.03642
#
# Static dielectric constant tensor:
#      x y z
#    x 1.791750 0.000000 -0.014970 
#    y 0.000000 1.761710 0.000000 
#    z -0.014970 0.000000 1.794070 
# 
# From -- ./inp_files/252599.got.cif
#   From: 2010.05.17/outbox.cif.g08.bks.cpg/sg15_127_cif.got.tgz:252599.got - 2010.06.03 18:47:42.
