data_PCOD9302067
_publ_section_title
;
Structure prediction by ZEFSAII (Michael W. Deem and Ramdas Pophale) SiO2 
 PCOD9302067
Probable space group: C 2/C
;
_chemical_formula_sum "Si O2"
_cell_formula_units_Z 60
_cell_length_a 10.860847
_cell_length_b 14.642162
_cell_length_c 19.093366
_cell_angle_alpha 90.000000
_cell_angle_beta 112.375677
_cell_angle_gamma 90.000000
_cell_volume 2807.733506
_symmetry_space_group_name_H-M "C 2/C"
_symmetry_group_IT_number 15
_symmetry_cell_setting 'monoclinic'
loop_
_space_group_symop_operation_xyz
x,y,z
-x,y,1/2-z
-x,-y,-z
x,-y,1/2+z
1/2+x,1/2+y,z
1/2-x,1/2+y,1/2-z
1/2-x,1/2-y,-z
1/2+x,1/2-y,1/2+z
loop_
_atom_site_type_symbol
_atom_site_label
_atom_site_fract_x
_atom_site_fract_y
_atom_site_fract_z
Si Si1 0.856983 0.687387 0.902039
Si Si2 0.601926 0.396048 0.381588
Si Si3 0.216525 0.341610 0.698424
Si Si4 0.146181 0.659498 0.759141
Si Si5 0.349585 0.509858 0.318286
Si Si6 0.499215 0.093865 0.457200
Si Si7 0.000000 0.253783 0.750000
Si Si8 0.281581 0.380966 0.943150
O O1 0.754399 0.602777 0.889315
O O2 0.877609 0.693689 0.825058
O O3 0.789158 0.777764 0.917349
O O4 0.982846 0.668946 0.977864
O O5 0.501664 0.477716 0.345833
O O6 0.543505 0.312063 0.323368
O O7 0.619108 0.385367 0.468747
O O8 0.292330 0.249489 0.690887
O O9 0.314435 0.415720 0.752492
O O10 0.126114 0.384753 0.618254
O O11 0.117142 0.312992 0.741085
O O12 0.253044 0.578034 0.787221
O O13 0.000000 0.627932 0.750000
O O14 0.321881 0.552630 0.388841
O O15 0.632326 0.099182 0.438015
O O16 0.500000 0.000000 0.500000
#
# Coordination Sequence:
#
# PCOD9302067 Si02
#       8
#     8   8   8   8   8   8   4   8
#     4  11  22  48  73 101 133 181 235 297 346 416
#     4  11  21  41  70 109 132 167 231 296 346 405
#     4  12  24  47  69 106 136 190 232 292 347 419
#     4  12  28  47  66 100 145 185 232 292 359 417
#     4  12  25  41  72  99 145 181 235 286 356 421
#     4  11  25  42  73 105 138 183 239 283 346 421
#     4  12  20  42  78 100 128 186 244 288 342 406
#     4  11  24  43  72 105 140 180 230 293 354 423
#
# _framework density 21.36955
#
# number of rings (size 3 to 8) (size 9 to 14) (size 15 to 20)
#    0.000    0.533    4.000    5.200    4.667    1.067 
#    8.400    0.667    0.000    0.000    0.000    0.000 
#    0.000    0.000    0.000    0.000    0.000    0.000 
#
# Total GULP energy -167714.397845 kJ/mol
# GULP energy per Si atom -5590.479928 kJ/mol
# Density = 2.132091 g / cm^3
# Si number density = 21.369550 Si / 1000 Ang^3
#
#
#
# Elastic Constant Matrix: (Units=GPa)
#
#
# Indices 1 2 3 4 5 6 
#
# 1 26.1202 0.7275 14.3015 0.0000 12.4335 0.0000
# 2 0.7275 95.7257 40.3572 0.0000 10.9127 0.0000
# 3 14.3015 40.3572 146.0407 0.0000 16.8936 0.0000
# 4 0.0000 0.0000 0.0000 31.7372 0.0000 4.2343
# 5 12.4335 10.9127 16.8936 0.0000 27.3028 0.0000
# 6 0.0000 0.0000 0.0000 4.2343 0.0000 35.6957
#
#
#
# Elastic Compliance Matrix: (Units=1/GPa)
#
#
# Indices 1 2 3 4 5 6 
#
# 1 0.050711 0.003591 -0.003362 0.000000 -0.022449 0.000000
# 2 0.003591 0.012297 -0.003223 0.000000 -0.004556 0.000000
# 3 -0.003362 -0.003223 0.008338 0.000000 -0.002340 0.000000
# 4 0.000000 0.000000 0.000000 0.032015 0.000000 -0.003798
# 5 -0.022449 -0.004556 -0.002340 0.000000 0.050118 0.000000
# 6 0.000000 0.000000 0.000000 -0.003798 0.000000 0.028465
#
#
# Mechanical properties :
#
#
# Convention : Reuss Voigt Hill
#
# Bulk Modulus (GPa) = 15.30009 42.07324 28.68666
# Shear Modulus (GPa) = 23.84150 33.11381 28.47766
#
# Velocity S-wave (km/s) = 3.34380 3.94074 3.65448
# Velocity P-wave (km/s) = 4.69929 6.35901 5.59108
#
# Compressibility (1/GPa) = 0.06535911
#
# Stress axis : x y z
#
# Youngs Moduli (GPa) = 19.71968 81.31809 119.93408
#
# Poissons Ratio (x) = -0.29201 0.40316
# Poissons Ratio (y) = -0.07081 0.38653
# Poissons Ratio (z) = 0.06629 0.26208
#
# Static dielectric constant tensor:
#      x y z
#    x 1.783530 0.000000 0.026540 
#    y 0.000000 1.786790 0.000000 
#    z 0.026540 0.000000 1.814020 
# 
# From -- ./inp_files/198374.got.cif
#   From: 2010.05.17/outbox.cif.g08.bks.cpg/sg15_100_cif.got.tgz:198374.got - 2010.06.03 18:47:42.
