data_PCOD9302260
_publ_section_title
;
Structure prediction by ZEFSAII (Michael W. Deem and Ramdas Pophale) SiO2 
 PCOD9302260
Probable space group: C 2/C
;
_chemical_formula_sum "Si O2"
_cell_formula_units_Z 60
_cell_length_a 11.831749
_cell_length_b 7.585194
_cell_length_c 30.966448
_cell_angle_alpha 90.000000
_cell_angle_beta 118.257722
_cell_angle_gamma 90.000000
_cell_volume 2447.922261
_symmetry_space_group_name_H-M "C 2/C"
_symmetry_group_IT_number 15
_symmetry_cell_setting 'monoclinic'
loop_
_space_group_symop_operation_xyz
x,y,z
-x,y,1/2-z
-x,-y,-z
x,-y,1/2+z
1/2+x,1/2+y,z
1/2-x,1/2+y,1/2-z
1/2-x,1/2-y,-z
1/2+x,1/2-y,1/2+z
loop_
_atom_site_type_symbol
_atom_site_label
_atom_site_fract_x
_atom_site_fract_y
_atom_site_fract_z
Si Si1 0.149000 0.922300 0.069192
Si Si2 0.000000 0.210463 0.250000
Si Si3 0.908537 0.846776 0.348577
Si Si4 0.600486 0.818304 0.427797
Si Si5 0.045286 0.716201 0.518520
Si Si6 0.391367 0.731425 0.316505
Si Si7 0.255076 0.517416 0.169841
Si Si8 0.694558 0.450537 0.421525
O O1 0.172415 0.900302 0.123634
O O2 0.280638 0.930543 0.067153
O O3 0.073026 0.100170 0.047782
O O4 0.055685 0.765805 0.036444
O O5 0.929650 0.306235 0.276761
O O6 0.890546 0.096162 0.207557
O O7 0.852761 0.652250 0.330406
O O8 0.059748 0.849344 0.388895
O O9 0.887428 0.017199 0.314024
O O10 0.530830 0.888416 0.457822
O O11 0.499115 0.785419 0.371138
O O12 0.662313 0.623096 0.443801
O O13 0.186714 0.646914 0.535058
O O14 0.267179 0.826630 0.313132
O O15 0.256485 0.502923 0.117953
#
# Coordination Sequence:
#
# PCOD9302260 Si02
#       8
#     8   4   8   8   8   8   8   8
#     4  11  22  40  64  95 137 177 230 280 326 390
#     4  12  26  48  70 106 136 160 232 286 322 430
#     4  11  23  47  70 100 139 184 225 275 340 407
#     4  11  21  44  62  89 135 176 219 281 331 386
#     4  11  24  39  62  99 133 179 232 278 325 393
#     4  11  25  47  70  99 137 170 224 280 334 414
#     4  12  25  47  72  98 134 182 216 277 353 396
#     4  11  22  42  65  93 134 176 226 274 328 404
#
# _framework density 24.510580999999998
#
# number of rings (size 3 to 8) (size 9 to 14) (size 15 to 20)
#    0.000    0.800    8.000    0.400    3.733    1.067 
#    2.400    1.333    0.000    0.000    0.000    0.000 
#    0.000    0.000    0.000    0.000    0.000    0.000 
#
# Total GULP energy -167817.869334 kJ/mol
# GULP energy per Si atom -5593.928978 kJ/mol
# Density = 2.445479 g / cm^3
# Si number density = 24.510581 Si / 1000 Ang^3
#
#
#
# Elastic Constant Matrix: (Units=GPa)
#
#
# Indices 1 2 3 4 5 6 
#
# 1 112.6190 26.8856 -15.2102 0.0000 4.2172 0.0000
# 2 26.8856 64.0918 -2.1864 0.0000 3.4353 0.0000
# 3 -15.2102 -2.1864 29.9424 0.0000 0.1581 0.0000
# 4 0.0000 0.0000 0.0000 10.6821 0.0000 -0.4718
# 5 4.2172 3.4353 0.1581 0.0000 34.7583 0.0000
# 6 0.0000 0.0000 0.0000 -0.4718 0.0000 30.7230
#
#
#
# Elastic Compliance Matrix: (Units=1/GPa)
#
#
# Indices 1 2 3 4 5 6 
#
# 1 0.010609 -0.004229 0.005085 0.000000 -0.000892 0.000000
# 2 -0.004229 0.017412 -0.000871 0.000000 -0.001204 0.000000
# 3 0.005085 -0.000871 0.035921 0.000000 -0.000694 0.000000
# 4 0.000000 0.000000 0.000000 0.093678 0.000000 0.001439
# 5 -0.000892 -0.001204 -0.000694 0.000000 0.029000 0.000000
# 6 0.000000 0.000000 0.000000 0.001439 0.000000 0.032571
#
#
# Mechanical properties :
#
#
# Convention : Reuss Voigt Hill
#
# Bulk Modulus (GPa) = 15.64633 25.07012 20.35822
# Shear Modulus (GPa) = 20.78790 28.37696 24.58243
#
# Velocity S-wave (km/s) = 2.91541 3.40625 3.17034
# Velocity P-wave (km/s) = 4.21072 5.07155 4.66105
#
# Compressibility (1/GPa) = 0.06391275
#
# Stress axis : x y z
#
# Youngs Moduli (GPa) = 94.25639 57.43319 27.83901
#
# Poissons Ratio (x) = 0.24289 -0.14157
# Poissons Ratio (y) = 0.39863 0.02424
# Poissons Ratio (z) = -0.47932 0.05000
#
# Static dielectric constant tensor:
#      x y z
#    x 1.935880 0.000000 -0.002220 
#    y 0.000000 1.994840 0.000000 
#    z -0.002220 0.000000 1.923080 
# 
# From -- ./inp_files/310338.got.cif
#   From: 2010.05.17/outbox.cif.g08.bks.cpg/sg15_156_cif.got.tgz:310338.got - 2010.06.03 18:47:42.
