data_PCOD9302613
_publ_section_title
;
Structure prediction by ZEFSAII (Michael W. Deem and Ramdas Pophale) SiO2 
 PCOD9302613
Probable space group: C 2/C
;
_chemical_formula_sum "Si O2"
_cell_formula_units_Z 64
_cell_length_a 21.919330
_cell_length_b 18.616017
_cell_length_c 8.490013
_cell_angle_alpha 90.000000
_cell_angle_beta 67.894017
_cell_angle_gamma 90.000000
_cell_volume 3209.688038
_symmetry_space_group_name_H-M "C 2/C"
_symmetry_group_IT_number 15
_symmetry_cell_setting 'monoclinic'
loop_
_space_group_symop_operation_xyz
x,y,z
-x,y,1/2-z
-x,-y,-z
x,-y,1/2+z
1/2+x,1/2+y,z
1/2-x,1/2+y,1/2-z
1/2-x,1/2-y,-z
1/2+x,1/2-y,1/2+z
loop_
_atom_site_type_symbol
_atom_site_label
_atom_site_fract_x
_atom_site_fract_y
_atom_site_fract_z
Si Si1 0.658842 0.240001 0.896390
Si Si2 0.853920 0.473395 0.326286
Si Si3 0.958838 0.410737 0.630449
Si Si4 0.208688 0.167056 0.857562
Si Si5 0.556435 0.851764 0.297738
Si Si6 0.652072 0.798316 0.771306
Si Si7 0.781782 0.874131 0.783085
Si Si8 0.748225 0.035590 0.829859
O O1 0.724222 0.209603 0.748143
O O2 0.597769 0.200446 0.870589
O O3 0.664651 0.325218 0.858615
O O4 0.664553 0.221406 0.075577
O O5 0.903906 0.527798 0.194925
O O6 0.894478 0.404412 0.348581
O O7 0.803150 0.518352 0.481501
O O8 0.804439 0.440899 0.249395
O O9 0.917229 0.337954 0.660256
O O10 0.000000 0.415383 0.750000
O O11 0.013443 0.407768 0.442833
O O12 0.153772 0.227117 0.876337
O O13 0.203115 0.102571 0.734533
O O14 0.210778 0.142334 0.037215
O O15 0.500000 0.814197 0.250000
O O16 0.710695 0.849074 0.782186
O O17 0.783454 0.960039 0.760820
#
# Coordination Sequence:
#
# PCOD9302613 Si02
#       8
#     8   8   8   8   8   8   8   8
#     4  11  22  39  57  85 113 156 201 248 293 350
#     4  12  23  38  55  83 126 164 201 236 278 355
#     4  12  23  39  57  82 120 164 208 238 284 349
#     4  11  23  37  60  83 116 150 199 248 304 350
#     4  12  25  38  58  86 121 167 206 240 285 345
#     4  11  23  38  59  83 112 158 198 252 294 345
#     4  11  23  37  61  84 115 152 196 250 304 346
#     4  12  22  37  61  87 120 156 197 242 302 355
#
# _framework density 19.939632
#
# number of rings (size 3 to 8) (size 9 to 14) (size 15 to 20)
#    0.000    0.500    5.000    6.000    5.250    0.000 
#    0.000    0.000    0.000    0.000    0.000    1.750 
#    0.000    0.000    0.000    0.000    0.000    0.000 
#
# Total GULP energy -178606.016405 kJ/mol
# GULP energy per Si atom -5581.438013 kJ/mol
# Density = 1.989425 g / cm^3
# Si number density = 19.939632 Si / 1000 Ang^3
#
#
#
# Elastic Constant Matrix: (Units=GPa)
#
#
# Indices 1 2 3 4 5 6 
#
# 1 46.2876 24.1151 2.9873 0.0000 11.9334 0.0000
# 2 24.1151 102.2485 -16.7980 0.0000 -8.7673 0.0000
# 3 2.9873 -16.7980 48.8537 0.0000 -4.3409 0.0000
# 4 0.0000 0.0000 0.0000 31.2302 0.0000 -9.9731
# 5 11.9334 -8.7673 -4.3409 0.0000 25.5068 0.0000
# 6 0.0000 0.0000 0.0000 -9.9731 0.0000 64.3175
#
#
#
# Elastic Compliance Matrix: (Units=1/GPa)
#
#
# Indices 1 2 3 4 5 6 
#
# 1 0.032952 -0.010757 -0.007526 0.000000 -0.020395 0.000000
# 2 -0.010757 0.014348 0.006576 0.000000 0.011083 0.000000
# 3 -0.007526 0.006576 0.024068 0.000000 0.009877 0.000000
# 4 0.000000 0.000000 0.000000 0.033688 0.000000 0.005224
# 5 -0.020395 0.011083 0.009877 0.000000 0.054238 0.000000
# 6 0.000000 0.000000 0.000000 0.005224 0.000000 0.016358
#
#
# Mechanical properties :
#
#
# Convention : Reuss Voigt Hill
#
# Bulk Modulus (GPa) = 20.85305 24.22208 22.53757
# Shear Modulus (GPa) = 23.25043 36.68326 29.96685
#
# Velocity S-wave (km/s) = 3.41844 4.29384 3.88090
# Velocity P-wave (km/s) = 5.10507 6.06274 5.60440
#
# Compressibility (1/GPa) = 0.04795461
#
# Stress axis : x y z
#
# Youngs Moduli (GPa) = 30.34731 69.69734 41.54860
#
# Poissons Ratio (x) = 0.74972 0.31269
# Poissons Ratio (y) = 0.32644 -0.27322
# Poissons Ratio (z) = 0.22839 -0.45833
#
# Static dielectric constant tensor:
#      x y z
#    x 1.676240 0.000000 0.023450 
#    y 0.000000 1.768580 0.000000 
#    z 0.023450 0.000000 1.764540 
# 
# From -- ./inp_files/57505.got.cif
#   From: 2010.05.17/outbox.cif.g08.bks.cpg/sg15_29_cif.got.tgz:57505.got - 2010.06.03 18:47:42.
