data_PCOD9302166
_publ_section_title
;
Structure prediction by ZEFSAII (Michael W. Deem and Ramdas Pophale) SiO2 
 PCOD9302166
Probable space group: C 2/C
;
_chemical_formula_sum "Si O2"
_cell_formula_units_Z 56
_cell_length_a 8.820510
_cell_length_b 18.138935
_cell_length_c 25.266987
_cell_angle_alpha 90.000000
_cell_angle_beta 39.623348
_cell_angle_gamma 90.000000
_cell_volume 2578.108433
_symmetry_space_group_name_H-M "C 2/C"
_symmetry_group_IT_number 15
_symmetry_cell_setting 'monoclinic'
loop_
_space_group_symop_operation_xyz
x,y,z
-x,y,1/2-z
-x,-y,-z
x,-y,1/2+z
1/2+x,1/2+y,z
1/2-x,1/2+y,1/2-z
1/2-x,1/2-y,-z
1/2+x,1/2-y,1/2+z
loop_
_atom_site_type_symbol
_atom_site_label
_atom_site_fract_x
_atom_site_fract_y
_atom_site_fract_z
Si Si1 0.427844 0.152052 0.928290
Si Si2 0.717617 0.589409 0.337126
Si Si3 0.729696 0.745570 0.722012
Si Si4 0.480213 0.748882 0.508417
Si Si5 0.735556 0.988625 0.972877
Si Si6 0.272370 0.889791 0.944300
Si Si7 0.728883 0.182968 0.330835
O O1 0.591628 0.178966 0.836538
O O2 0.184583 0.194485 0.981455
O O3 0.542896 0.185869 0.951055
O O4 0.361172 0.068739 0.956896
O O5 0.690813 0.674150 0.323348
O O6 0.479100 0.545748 0.382101
O O7 0.701263 0.584195 0.405244
O O8 0.000000 0.570037 0.250000
O O9 0.500000 0.727502 0.750000
O O10 0.679025 0.759861 0.796734
O O11 0.686462 0.694904 0.472600
O O12 0.329873 0.782224 0.596848
O O13 0.500000 0.000000 0.000000
O O14 0.809919 0.061864 0.984540
O O15 0.556932 0.885911 0.869513
O O16 0.000000 0.162219 0.250000
#
# Coordination Sequence:
#
# PCOD9302166 Si02
#       7
#     8   8   8   8   8   8   8
#     4  11  21  42  70  97 139 177 230 292 354 405
#     4  11  22  45  72  96 130 188 235 287 350 423
#     4  11  21  42  71 102 136 179 228 295 360 405
#     4  11  22  40  70 100 130 177 229 294 341 413
#     4  12  28  44  68 102 141 188 235 291 356 429
#     4  12  24  43  70  97 139 186 234 272 353 442
#     4  12  24  38  68 108 135 167 235 295 346 407
#
# _framework density 21.721352
#
# number of rings (size 3 to 8) (size 9 to 14) (size 15 to 20)
#    0.000    0.571    7.143    2.571    2.000    1.143 
#    0.000    4.286    0.000    0.000    0.000    0.000 
#    0.000    0.000    0.000    0.000    0.000    0.000 
#
# Total GULP energy -156252.633091 kJ/mol
# GULP energy per Si atom -5580.451182 kJ/mol
# Density = 2.167191 g / cm^3
# Si number density = 21.721352 Si / 1000 Ang^3
#
#
#
# Elastic Constant Matrix: (Units=GPa)
#
#
# Indices 1 2 3 4 5 6 
#
# 1 78.3469 16.5650 16.6703 -0.0220 -8.5317 0.0044
# 2 16.5650 32.9404 13.3063 -0.0048 -7.5674 -0.0045
# 3 16.6703 13.3063 93.2493 -0.0380 -14.5247 -0.0009
# 4 -0.0220 -0.0048 -0.0380 31.9708 0.0213 -8.0918
# 5 -8.5317 -7.5674 -14.5247 0.0213 50.5777 -0.0024
# 6 0.0044 -0.0045 -0.0009 -8.0918 -0.0024 28.0884
#
#
#
# Elastic Compliance Matrix: (Units=1/GPa)
#
#
# Indices 1 2 3 4 5 6 
#
# 1 0.014570 -0.006472 -0.001517 0.000006 0.001054 -0.000002
# 2 -0.006472 0.035752 -0.003435 -0.000004 0.003271 0.000006
# 3 -0.001517 -0.003435 0.011898 0.000012 0.002647 0.000004
# 4 0.000006 -0.000004 0.000012 0.033739 -0.000010 0.009720
# 5 0.001054 0.003271 0.002647 -0.000010 0.021199 -0.000001
# 6 -0.000002 0.000006 0.000004 0.009720 -0.000001 0.038402
#
#
# Mechanical properties :
#
#
# Convention : Reuss Voigt Hill
#
# Bulk Modulus (GPa) = 25.39959 33.06888 29.23424
# Shear Modulus (GPa) = 26.10560 32.66037 29.38298
#
# Velocity S-wave (km/s) = 3.47052 3.88184 3.68193
# Velocity P-wave (km/s) = 5.27049 5.94549 5.61813
#
# Compressibility (1/GPa) = 0.03937071
#
# Stress axis : x y z
#
# Youngs Moduli (GPa) = 68.63587 27.97083 84.05060
#
# Poissons Ratio (x) = 0.18102 0.12750
# Poissons Ratio (y) = 0.44421 0.28872
# Poissons Ratio (z) = 0.10412 0.09608
#
# Static dielectric constant tensor:
#      x y z
#    x 1.920770 -0.000010 -0.050450 
#    y -0.000010 1.792140 0.000010 
#    z -0.050450 0.000010 1.822370 
# 
# From -- ./inp_files/289708.got.cif
#   From: 2010.05.17/outbox.cif.g08.bks.cpg/sg15_145_cif.got.tgz:289708.got - 2010.06.03 18:47:42.
