data_PCOD9302960
_publ_section_title
;
Structure prediction by ZEFSAII (Michael W. Deem and Ramdas Pophale) SiO2 
 PCOD9302960
Probable space group: C 2/C
;
_chemical_formula_sum "Si O2"
_cell_formula_units_Z 48
_cell_length_a 20.817619
_cell_length_b 14.354054
_cell_length_c 12.434388
_cell_angle_alpha 90.000000
_cell_angle_beta 37.984145
_cell_angle_gamma 90.000000
_cell_volume 2286.747218
_symmetry_space_group_name_H-M "C 2/C"
_symmetry_group_IT_number 15
_symmetry_cell_setting 'monoclinic'
loop_
_space_group_symop_operation_xyz
x,y,z
-x,y,1/2-z
-x,-y,-z
x,-y,1/2+z
1/2+x,1/2+y,z
1/2-x,1/2+y,1/2-z
1/2-x,1/2-y,-z
1/2+x,1/2-y,1/2+z
loop_
_atom_site_type_symbol
_atom_site_label
_atom_site_fract_x
_atom_site_fract_y
_atom_site_fract_z
Si Si1 0.950174 0.313614 0.144143
Si Si2 0.157197 0.727770 0.497552
Si Si3 0.512627 0.305056 0.117548
Si Si4 0.594166 0.490240 0.208707
Si Si5 0.740995 0.072691 0.662504
Si Si6 0.177599 0.080293 0.295348
O O1 0.878483 0.265625 0.331311
O O2 0.878928 0.402171 0.205609
O O3 0.975125 0.259570 0.001253
O O4 0.060629 0.315157 0.058386
O O5 0.197284 0.828953 0.407180
O O6 0.247222 0.653662 0.359039
O O7 0.500000 0.256806 0.250000
O O8 0.421674 0.382838 0.236661
O O9 0.617053 0.368496 0.971940
O O10 0.500000 0.514594 0.250000
O O11 0.592353 0.549332 0.320258
O O12 0.702162 0.517928 0.009451
O O13 0.760819 0.008171 0.739624
#
# Coordination Sequence:
#
# PCOD9302960 Si02
#       6
#     8   8   8   8   8   8
#     4  11  24  44  70  98 145 183 233 281 355 418
#     4  11  25  42  70 103 138 181 234 294 341 415
#     4  11  22  41  65 102 141 175 224 295 347 402
#     4  11  23  37  66 107 132 172 229 290 344 397
#     4  12  23  40  70 103 132 182 232 280 350 414
#     4  12  23  42  66 101 141 177 234 290 346 412
#
# _framework density 20.990514999999998
#
# number of rings (size 3 to 8) (size 9 to 14) (size 15 to 20)
#    0.000    0.667    6.667    3.000    4.667    0.667 
#    0.000    2.500    3.667    0.000    0.000    0.000 
#    0.000    0.000    0.000    0.000    0.000    0.000 
#
# Total GULP energy -133936.921438 kJ/mol
# GULP energy per Si atom -5580.705060 kJ/mol
# Density = 2.094274 g / cm^3
# Si number density = 20.990515 Si / 1000 Ang^3
#
#
#
# Elastic Constant Matrix: (Units=GPa)
#
#
# Indices 1 2 3 4 5 6 
#
# 1 115.9816 41.6058 60.8886 0.0000 10.8235 0.0000
# 2 41.6058 71.3961 51.1031 0.0000 8.2861 0.0000
# 3 60.8886 51.1031 125.7280 0.0000 19.4713 0.0000
# 4 0.0000 0.0000 0.0000 41.7383 0.0000 4.4020
# 5 10.8235 8.2861 19.4713 0.0000 36.7309 0.0000
# 6 0.0000 0.0000 0.0000 4.4020 0.0000 26.9291
#
#
#
# Elastic Compliance Matrix: (Units=1/GPa)
#
#
# Indices 1 2 3 4 5 6 
#
# 1 0.012371 -0.004116 -0.004246 0.000000 -0.000466 0.000000
# 2 -0.004116 0.021124 -0.006583 0.000000 -0.000063 0.000000
# 3 -0.004246 -0.006583 0.013359 0.000000 -0.004345 0.000000
# 4 0.000000 0.000000 0.000000 0.024379 0.000000 -0.003985
# 5 -0.000466 -0.000063 -0.004345 0.000000 0.029680 0.000000
# 6 0.000000 0.000000 0.000000 -0.003985 0.000000 0.037786
#
#
# Mechanical properties :
#
#
# Convention : Reuss Voigt Hill
#
# Bulk Modulus (GPa) = 58.94886 68.92231 63.93559
# Shear Modulus (GPa) = 28.69541 31.71353 30.20447
#
# Velocity S-wave (km/s) = 3.70140 3.89118 3.79748
# Velocity P-wave (km/s) = 6.81261 7.28661 7.05359
#
# Compressibility (1/GPa) = 0.01696386
#
# Stress axis : x y z
#
# Youngs Moduli (GPa) = 80.83303 47.33924 74.85771
#
# Poissons Ratio (x) = 0.19485 0.31785
# Poissons Ratio (y) = 0.33270 0.49279
# Poissons Ratio (z) = 0.34322 0.31164
#
# Static dielectric constant tensor:
#      x y z
#    x 1.841460 0.000000 -0.002200 
#    y 0.000000 1.766500 0.000000 
#    z -0.002200 0.000000 1.771040 
# 
# From -- ./inp_files/112934.got.cif
#   From: 2010.05.17/outbox.cif.g08.bks.cpg/sg15_57_cif.got.tgz:112934.got - 2010.06.03 18:47:42.
