data_PCOD9302953
_publ_section_title
;
Structure prediction by ZEFSAII (Michael W. Deem and Ramdas Pophale) SiO2 
 PCOD9302953
Probable space group: C 2/C
;
_chemical_formula_sum "Si O2"
_cell_formula_units_Z 32
_cell_length_a 8.866659
_cell_length_b 4.453084
_cell_length_c 30.249326
_cell_angle_alpha 90.000000
_cell_angle_beta 108.161740
_cell_angle_gamma 90.000000
_cell_volume 1134.860986
_symmetry_space_group_name_H-M "C 2/C"
_symmetry_group_IT_number 15
_symmetry_cell_setting 'monoclinic'
loop_
_space_group_symop_operation_xyz
x,y,z
-x,y,1/2-z
-x,-y,-z
x,-y,1/2+z
1/2+x,1/2+y,z
1/2-x,1/2+y,1/2-z
1/2-x,1/2-y,-z
1/2+x,1/2-y,1/2+z
loop_
_atom_site_type_symbol
_atom_site_label
_atom_site_fract_x
_atom_site_fract_y
_atom_site_fract_z
Si Si1 0.726015 0.901796 0.779621
Si Si2 0.691413 0.589914 0.339934
Si Si3 0.987729 0.579472 0.600599
Si Si4 0.893032 0.064700 0.532465
O O1 0.623630 0.664231 0.799920
O O2 0.670219 0.149919 0.737629
O O3 0.783280 0.151110 0.820213
O O4 0.320864 0.095864 0.880332
O O5 0.573861 0.783418 0.359220
O O6 0.968561 0.244012 0.580631
O O7 0.878126 0.747502 0.554680
O O8 0.750000 0.250000 0.500000
O O9 0.000000 0.000000 0.500000
#
# Coordination Sequence:
#
# PCOD9302953 Si02
#       4
#     8   8   8   8
#     4   9  20  41  66  95 132 172 218 274 340 412
#     4  11  22  41  64  95 130 172 223 276 340 414
#     4  12  24  41  65  93 128 172 221 279 339 410
#     4  12  24  41  62  91 127 170 220 277 341 408
#
# _framework density 28.197285000000001
#
# number of rings (size 3 to 8) (size 9 to 14) (size 15 to 20)
#    0.000    1.000    0.000    7.500    0.000    0.000 
#    0.000   18.750    0.000    0.000    0.000    0.000 
#    0.000    0.000    0.000    0.000    0.000    0.000 
#
# Total GULP energy -89128.030832 kJ/mol
# GULP energy per Si atom -5570.501927 kJ/mol
# Density = 2.813311 g / cm^3
# Si number density = 28.197285 Si / 1000 Ang^3
#
#
#
# Elastic Constant Matrix: (Units=GPa)
#
#
# Indices 1 2 3 4 5 6 
#
# 1 107.3857 22.8643 52.8640 0.0000 -8.7700 0.0000
# 2 22.8643 180.4359 68.5662 0.0000 -3.0254 0.0000
# 3 52.8640 68.5662 145.8286 0.0000 -3.2746 0.0000
# 4 0.0000 0.0000 0.0000 101.7021 0.0000 -2.2295
# 5 -8.7700 -3.0254 -3.2746 0.0000 47.6787 0.0000
# 6 0.0000 0.0000 0.0000 -2.2295 0.0000 46.6555
#
#
#
# Elastic Compliance Matrix: (Units=1/GPa)
#
#
# Indices 1 2 3 4 5 6 
#
# 1 0.011497 0.000173 -0.004208 0.000000 0.001837 0.000000
# 2 0.000173 0.006752 -0.003232 0.000000 0.000238 0.000000
# 3 -0.004208 -0.003232 0.009896 0.000000 -0.000299 0.000000
# 4 0.000000 0.000000 0.000000 0.009843 0.000000 0.000470
# 5 0.001837 0.000238 -0.000299 0.000000 0.021306 0.000000
# 6 0.000000 0.000000 0.000000 0.000470 0.000000 0.021456
#
#
# Mechanical properties :
#
#
# Convention : Reuss Voigt Hill
#
# Bulk Modulus (GPa) = 73.47063 80.24880 76.85972
# Shear Modulus (GPa) = 50.08951 58.49764 54.29358
#
# Velocity S-wave (km/s) = 4.21930 4.55970 4.39280
# Velocity P-wave (km/s) = 7.06039 7.49951 7.28326
#
# Compressibility (1/GPa) = 0.01361088
#
# Stress axis : x y z
#
# Youngs Moduli (GPa) = 86.98071 148.09384 101.05385
#
# Poissons Ratio (x) = -0.02561 0.42521
# Poissons Ratio (y) = -0.01504 0.32663
# Poissons Ratio (z) = 0.36599 0.47867
#
# Static dielectric constant tensor:
#      x y z
#    x 2.255120 0.000000 0.046090 
#    y 0.000000 2.291790 0.000000 
#    z 0.046090 0.000000 2.337550 
# 
# From -- ./inp_files/290402.got.cif
#   From: 2010.05.17/outbox.cif.g08.bks.cpg/sg15_146_cif.got.tgz:290402.got - 2010.06.03 18:47:42.
