data_PCOD9302469
_publ_section_title
;
Structure prediction by ZEFSAII (Michael W. Deem and Ramdas Pophale) SiO2 
 PCOD9302469
Probable space group: C 2/C
;
_chemical_formula_sum "Si O2"
_cell_formula_units_Z 60
_cell_length_a 17.563626
_cell_length_b 18.222103
_cell_length_c 9.902764
_cell_angle_alpha 90.000000
_cell_angle_beta 86.254006
_cell_angle_gamma 90.000000
_cell_volume 3162.570688
_symmetry_space_group_name_H-M "C 2/C"
_symmetry_group_IT_number 15
_symmetry_cell_setting 'monoclinic'
loop_
_space_group_symop_operation_xyz
x,y,z
-x,y,1/2-z
-x,-y,-z
x,-y,1/2+z
1/2+x,1/2+y,z
1/2-x,1/2+y,1/2-z
1/2-x,1/2-y,-z
1/2+x,1/2-y,1/2+z
loop_
_atom_site_type_symbol
_atom_site_label
_atom_site_fract_x
_atom_site_fract_y
_atom_site_fract_z
Si Si1 0.431177 0.767156 0.940115
Si Si2 0.594250 0.801231 0.870343
Si Si3 0.887936 0.535046 0.108550
Si Si4 0.250000 0.250000 0.000000
Si Si5 0.928815 0.383943 0.172766
Si Si6 0.215677 0.535429 0.117037
Si Si7 0.705753 0.673208 0.527389
Si Si8 0.257588 0.884773 0.307183
O O1 0.521689 0.754915 0.929740
O O2 0.408054 0.793248 0.791984
O O3 0.413997 0.832442 0.046603
O O4 0.381577 0.696470 0.984794
O O5 0.578040 0.885009 0.921708
O O6 0.673597 0.775475 0.921440
O O7 0.945312 0.468397 0.131360
O O8 0.838637 0.549916 0.249333
O O9 0.833397 0.499637 0.000485
O O10 0.254614 0.331549 0.067340
O O11 0.848907 0.385515 0.263485
O O12 0.000000 0.355187 0.250000
O O13 0.259952 0.608265 0.067783
O O14 0.267634 0.467392 0.158617
O O15 0.750000 0.750000 0.500000
O O16 0.718326 0.646864 0.678604
#
# Coordination Sequence:
#
# PCOD9302469 Si02
#       8
#     8   8   8   4   8   8   8   8
#     4  11  24  41  60  92 129 172 216 265 322 407
#     4  11  24  38  62  96 123 167 220 268 336 390
#     4  11  22  37  57  93 132 172 209 267 330 407
#     4  12  22  40  66  90 132 164 220 282 328 388
#     4  11  23  38  56  89 137 172 207 262 333 408
#     4  11  22  39  62  95 132 166 226 271 325 399
#     4  12  21  42  66  88 132 179 220 262 330 399
#     4  11  23  39  60  97 124 174 226 273 327 399
#
# _framework density 18.971907000000002
#
# number of rings (size 3 to 8) (size 9 to 14) (size 15 to 20)
#    0.000    0.800    6.667    2.400    3.733    0.533 
#    0.000    0.000    0.000    0.800    0.000    0.000 
#    0.000    0.000    0.000    0.000    0.000    0.000 
#
# Total GULP energy -167060.264763 kJ/mol
# GULP energy per Si atom -5568.675492 kJ/mol
# Density = 1.892873 g / cm^3
# Si number density = 18.971907 Si / 1000 Ang^3
#
#
#
# Elastic Constant Matrix: (Units=GPa)
#
#
# Indices 1 2 3 4 5 6 
#
# 1 65.3048 39.9952 39.6576 0.0000 16.3824 0.0000
# 2 39.9952 115.7949 41.8102 0.0000 -1.2396 0.0000
# 3 39.6576 41.8102 78.5121 0.0000 7.3670 0.0000
# 4 0.0000 0.0000 0.0000 33.3005 0.0000 -1.4304
# 5 16.3824 -1.2396 7.3670 0.0000 26.2943 0.0000
# 6 0.0000 0.0000 0.0000 -1.4304 0.0000 32.1859
#
#
#
# Elastic Compliance Matrix: (Units=1/GPa)
#
#
# Indices 1 2 3 4 5 6 
#
# 1 0.029371 -0.006805 -0.009720 0.000000 -0.015897 0.000000
# 2 -0.006805 0.012389 -0.003710 0.000000 0.005864 0.000000
# 3 -0.009720 -0.003710 0.019586 0.000000 0.000394 0.000000
# 4 0.000000 0.000000 0.000000 0.030087 0.000000 0.001337
# 5 -0.015897 0.005864 0.000394 0.000000 0.048102 0.000000
# 6 0.000000 0.000000 0.000000 0.001337 0.000000 0.031129
#
#
# Mechanical properties :
#
#
# Convention : Reuss Voigt Hill
#
# Bulk Modulus (GPa) = 47.90556 55.83753 51.87155
# Shear Modulus (GPa) = 22.92601 27.56605 25.24603
#
# Velocity S-wave (km/s) = 3.48000 3.81595 3.65184
# Velocity P-wave (km/s) = 6.43839 6.99363 6.72175
#
# Compressibility (1/GPa) = 0.02087440
#
# Stress axis : x y z
#
# Youngs Moduli (GPa) = 34.04685 80.71740 51.05793
#
# Poissons Ratio (x) = 0.54930 0.49629
# Poissons Ratio (y) = 0.23170 0.18944
# Poissons Ratio (z) = 0.33094 0.29948
#
# Static dielectric constant tensor:
#      x y z
#    x 1.688450 0.000000 -0.027100 
#    y 0.000000 1.670820 0.000000 
#    z -0.027100 0.000000 1.714320 
# 
# From -- ./inp_files/49084.got.cif
#   From: 2010.05.17/outbox.cif.g08.bks.cpg/sg15_25_cif.got.tgz:49084.got - 2010.06.03 18:47:42.
