data_PCOD9302748
_publ_section_title
;
Structure prediction by ZEFSAII (Michael W. Deem and Ramdas Pophale) SiO2 
 PCOD9302748
Probable space group: C 2/C
;
_chemical_formula_sum "Si O2"
_cell_formula_units_Z 64
_cell_length_a 24.455236
_cell_length_b 11.916314
_cell_length_c 11.667134
_cell_angle_alpha 90.000000
_cell_angle_beta 64.398134
_cell_angle_gamma 90.000000
_cell_volume 3066.176146
_symmetry_space_group_name_H-M "C 2/C"
_symmetry_group_IT_number 15
_symmetry_cell_setting 'monoclinic'
loop_
_space_group_symop_operation_xyz
x,y,z
-x,y,1/2-z
-x,-y,-z
x,-y,1/2+z
1/2+x,1/2+y,z
1/2-x,1/2+y,1/2-z
1/2-x,1/2-y,-z
1/2+x,1/2-y,1/2+z
loop_
_atom_site_type_symbol
_atom_site_label
_atom_site_fract_x
_atom_site_fract_y
_atom_site_fract_z
Si Si1 0.069603 0.178380 0.669791
Si Si2 0.568098 0.844940 0.234351
Si Si3 0.831752 0.030196 0.800997
Si Si4 0.245455 0.320927 0.220194
Si Si5 0.346923 0.850764 0.548899
Si Si6 0.888130 0.598578 0.256846
Si Si7 0.626948 0.306961 0.870137
Si Si8 0.721498 0.002350 0.549487
O O1 0.111226 0.104140 0.715168
O O2 0.078678 0.307400 0.699957
O O3 0.093720 0.164958 0.518593
O O4 0.000000 0.146928 0.750000
O O5 0.500000 0.837080 0.250000
O O6 0.611920 0.805965 0.091239
O O7 0.583467 0.769469 0.330230
O O8 0.584639 0.975192 0.245966
O O9 0.787090 0.099876 0.759524
O O10 0.852505 0.916551 0.720104
O O11 0.790636 0.011895 0.951367
O O12 0.189052 0.262971 0.334603
O O13 0.218762 0.394896 0.140907
O O14 0.290699 0.228690 0.127932
O O15 0.387175 0.872461 0.623843
O O16 0.316317 0.964496 0.529503
O O17 0.816684 0.596377 0.357859
#
# Coordination Sequence:
#
# PCOD9302748 Si02
#       8
#     8   8   8   8   8   8   8   8
#     4  12  30  50  68 101 143 192 243 292 352 427
#     4  11  27  44  72 105 140 197 241 290 344 428
#     4  12  26  43  73 105 139 191 231 294 360 426
#     4  12  22  42  69 105 143 176 232 290 366 420
#     4  11  22  40  69 101 143 184 224 287 358 416
#     4  11  24  44  70 106 141 189 230 297 358 421
#     4  12  27  47  75 105 141 188 236 300 356 425
#     4  11  22  39  69 109 140 178 229 290 356 425
#
# _framework density 20.872903000000001
#
# number of rings (size 3 to 8) (size 9 to 14) (size 15 to 20)
#    0.000    0.500    5.000    3.750    7.000    2.500 
#    0.000    0.000    0.000    0.000    0.000    0.000 
#    0.000    0.000    0.000    0.000    0.000    0.000 
#
# Total GULP energy -179040.385706 kJ/mol
# GULP energy per Si atom -5595.012053 kJ/mol
# Density = 2.082540 g / cm^3
# Si number density = 20.872903 Si / 1000 Ang^3
#
#
#
# Elastic Constant Matrix: (Units=GPa)
#
#
# Indices 1 2 3 4 5 6 
#
# 1 136.9318 39.6522 41.0558 0.0000 -12.8394 0.0000
# 2 39.6522 73.3830 13.9499 0.0000 3.3365 0.0000
# 3 41.0558 13.9499 85.7103 0.0000 -2.7143 0.0000
# 4 0.0000 0.0000 0.0000 15.0517 0.0000 -3.2047
# 5 -12.8394 3.3365 -2.7143 0.0000 28.6065 0.0000
# 6 0.0000 0.0000 0.0000 -3.2047 0.0000 18.9609
#
#
#
# Elastic Compliance Matrix: (Units=1/GPa)
#
#
# Indices 1 2 3 4 5 6 
#
# 1 0.010445 -0.005103 -0.004017 0.000000 0.004902 0.000000
# 2 -0.005103 0.016655 -0.000402 0.000000 -0.004271 0.000000
# 3 -0.004017 -0.000402 0.013642 0.000000 -0.000462 0.000000
# 4 0.000000 0.000000 0.000000 0.068918 0.000000 0.011648
# 5 0.004902 -0.004271 -0.000462 0.000000 0.037611 0.000000
# 6 0.000000 0.000000 0.000000 0.011648 0.000000 0.054709
#
#
# Mechanical properties :
#
#
# Convention : Reuss Voigt Hill
#
# Bulk Modulus (GPa) = 46.08669 53.92678 50.00673
# Shear Modulus (GPa) = 21.90517 25.94831 23.92674
#
# Velocity S-wave (km/s) = 3.24304 3.52967 3.38939
# Velocity P-wave (km/s) = 6.01255 6.51945 6.27112
#
# Compressibility (1/GPa) = 0.02169824
#
# Stress axis : x y z
#
# Youngs Moduli (GPa) = 95.74216 60.04195 73.30154
#
# Poissons Ratio (x) = 0.30639 0.29448
# Poissons Ratio (y) = 0.48857 0.02944
# Poissons Ratio (z) = 0.38463 0.02411
#
# Static dielectric constant tensor:
#      x y z
#    x 1.724540 0.000000 -0.013330 
#    y 0.000000 1.743130 0.000000 
#    z -0.013330 0.000000 1.774820 
# 
# From -- ./inp_files/117981.got.cif
#   From: 2010.05.17/outbox.cif.g08.bks.cpg/sg15_59_cif.got.tgz:117981.got - 2010.06.03 18:47:42.
