data_PCOD9302813
_publ_section_title
;
Structure prediction by ZEFSAII (Michael W. Deem and Ramdas Pophale) SiO2 
 PCOD9302813
Probable space group: C 2/C
;
_chemical_formula_sum "Si O2"
_cell_formula_units_Z 40
_cell_length_a 14.923383
_cell_length_b 14.383180
_cell_length_c 17.420576
_cell_angle_alpha 90.000000
_cell_angle_beta 149.096097
_cell_angle_gamma 90.000000
_cell_volume 1920.478611
_symmetry_space_group_name_H-M "C 2/C"
_symmetry_group_IT_number 15
_symmetry_cell_setting 'monoclinic'
loop_
_space_group_symop_operation_xyz
x,y,z
-x,y,1/2-z
-x,-y,-z
x,-y,1/2+z
1/2+x,1/2+y,z
1/2-x,1/2+y,1/2-z
1/2-x,1/2-y,-z
1/2+x,1/2-y,1/2+z
loop_
_atom_site_type_symbol
_atom_site_label
_atom_site_fract_x
_atom_site_fract_y
_atom_site_fract_z
Si Si1 0.639680 0.919600 0.587473
Si Si2 0.470454 0.280464 0.432584
Si Si3 0.303796 0.496718 0.573791
Si Si4 0.179219 0.196160 0.840639
Si Si5 0.480691 0.435684 0.558377
O O1 0.578491 0.824542 0.580988
O O2 0.830474 0.937620 0.762960
O O3 0.500000 0.000000 0.500000
O O4 0.675599 0.925629 0.522517
O O5 0.670415 0.273173 0.550632
O O6 0.364193 0.320671 0.281648
O O7 0.446588 0.336851 0.493512
O O8 0.500000 0.483061 0.750000
O O9 0.262537 0.602150 0.571665
O O10 0.331254 0.474146 0.504954
O O11 0.000000 0.226701 0.750000
O O12 0.500000 0.500000 0.500000
#
# Coordination Sequence:
#
# PCOD9302813 Si02
#       5
#     8   8   8   8   8
#     4  11  22  41  65  92 131 168 214 273 323 378
#     4  12  23  40  66  97 128 172 216 269 321 390
#     4   9  20  40  64  87 126 172 206 262 325 376
#     4  11  22  40  65  94 131 167 217 266 322 380
#     4  11  24  42  66  92 128 174 217 263 328 389
#
# _framework density 20.828142
#
# number of rings (size 3 to 8) (size 9 to 14) (size 15 to 20)
#    0.000    1.200    4.000    4.200    0.000    0.800 
#    0.000    1.000    0.000    0.000    0.000    0.000 
#    0.000    0.000    0.000    0.000    0.000    0.000 
#
# Total GULP energy -111566.895858 kJ/mol
# GULP energy per Si atom -5578.344793 kJ/mol
# Density = 2.078074 g / cm^3
# Si number density = 20.828142 Si / 1000 Ang^3
#
#
#
# Elastic Constant Matrix: (Units=GPa)
#
#
# Indices 1 2 3 4 5 6 
#
# 1 162.1266 53.3688 12.5649 0.0015 -22.9303 0.0005
# 2 53.3688 98.7126 15.1977 0.0011 -9.6372 0.0005
# 3 12.5649 15.1977 37.3348 0.0040 -21.2420 0.0017
# 4 0.0015 0.0011 0.0040 15.7033 0.0019 -5.1639
# 5 -22.9303 -9.6372 -21.2420 0.0019 23.6700 0.0006
# 6 0.0005 0.0005 0.0017 -5.1639 0.0006 42.5786
#
#
#
# Elastic Compliance Matrix: (Units=1/GPa)
#
#
# Indices 1 2 3 4 5 6 
#
# 1 0.008881 -0.004506 0.005510 -0.000004 0.011714 -0.000001
# 2 -0.004506 0.013104 -0.006673 0.000002 -0.005019 0.000000
# 3 0.005510 -0.006673 0.059538 -0.000024 0.056051 -0.000006
# 4 -0.000004 0.000002 -0.000024 0.066326 -0.000030 0.008044
# 5 0.011714 -0.005019 0.056051 -0.000030 0.101854 -0.000007
# 6 -0.000001 0.000000 -0.000006 0.008044 -0.000007 0.024462
#
#
# Mechanical properties :
#
#
# Convention : Reuss Voigt Hill
#
# Bulk Modulus (GPa) = 14.24822 51.15966 32.70394
# Shear Modulus (GPa) = 16.18657 30.85988 23.52323
#
# Velocity S-wave (km/s) = 2.79076 3.85339 3.36430
# Velocity P-wave (km/s) = 4.15213 6.66440 5.55222
#
# Compressibility (1/GPa) = 0.07018422
#
# Stress axis : x y z
#
# Youngs Moduli (GPa) = 112.59891 76.31177 16.79608
#
# Poissons Ratio (x) = 0.34388 -0.09255
# Poissons Ratio (y) = 0.50740 0.11208
# Poissons Ratio (z) = -0.62043 0.50924
#
# Static dielectric constant tensor:
#      x y z
#    x 1.758560 0.000000 -0.007820 
#    y 0.000000 2.045410 0.000000 
#    z -0.007820 0.000000 1.777610 
# 
# From -- ./inp_files/61388.got.cif
#   From: 2010.05.17/outbox.cif.g08.bks.cpg/sg15_31_cif.got.tgz:61388.got - 2010.06.03 18:47:42.
