data_PCOD9302012
_publ_section_title
;
Structure prediction by ZEFSAII (Michael W. Deem and Ramdas Pophale) SiO2 
 PCOD9302012
Probable space group: C 2/C
;
_chemical_formula_sum "Si O2"
_cell_formula_units_Z 48
_cell_length_a 16.679148
_cell_length_b 8.028000
_cell_length_c 16.455010
_cell_angle_alpha 90.000000
_cell_angle_beta 70.666552
_cell_angle_gamma 90.000000
_cell_volume 2079.078652
_symmetry_space_group_name_H-M "C 2/C"
_symmetry_group_IT_number 15
_symmetry_cell_setting 'monoclinic'
loop_
_space_group_symop_operation_xyz
x,y,z
-x,y,1/2-z
-x,-y,-z
x,-y,1/2+z
1/2+x,1/2+y,z
1/2-x,1/2+y,1/2-z
1/2-x,1/2-y,-z
1/2+x,1/2-y,1/2+z
loop_
_atom_site_type_symbol
_atom_site_label
_atom_site_fract_x
_atom_site_fract_y
_atom_site_fract_z
Si Si1 0.809731 0.596946 0.951521
Si Si2 0.768602 0.040709 0.793629
Si Si3 0.511134 0.276799 0.959405
Si Si4 0.598762 0.936184 0.910640
Si Si5 0.583225 0.346026 0.665874
Si Si6 0.803773 0.890153 0.616798
O O1 0.868296 0.669005 0.859531
O O2 0.752081 0.450808 0.938637
O O3 0.750000 0.750000 0.000000
O O4 0.863891 0.540923 0.010499
O O5 0.683076 0.927488 0.829410
O O6 0.845568 0.971504 0.823542
O O7 0.798345 0.023838 0.691301
O O8 0.734188 0.218174 0.835162
O O9 0.451470 0.367935 0.914234
O O10 0.599085 0.369041 0.941032
O O11 0.542705 0.098592 0.910006
O O12 0.460685 0.224087 0.057254
O O13 0.500000 0.344044 0.750000
#
# Coordination Sequence:
#
# PCOD9302012 Si02
#       6
#     8   8   8   8   8   8
#     4  11  23  42  69  97 132 178 223 271 334 396
#     4  11  22  40  68  95 134 171 226 269 339 397
#     4   9  20  38  66  94 129 171 222 270 326 385
#     4   9  20  40  66  94 129 176 218 273 328 397
#     4  11  21  41  66  92 134 172 216 277 330 388
#     4  11  24  41  69  99 130 180 218 277 328 398
#
# _framework density 23.087149
#
# number of rings (size 3 to 8) (size 9 to 14) (size 15 to 20)
#    0.000    1.667    3.333    1.000    2.333    2.667 
#    0.000    5.833    7.333    0.000    0.000    0.000 
#    0.000    0.000    0.000    0.000    0.000    0.000 
#
# Total GULP energy -134170.059466 kJ/mol
# GULP energy per Si atom -5590.419144 kJ/mol
# Density = 2.303460 g / cm^3
# Si number density = 23.087149 Si / 1000 Ang^3
#
#
#
# Elastic Constant Matrix: (Units=GPa)
#
#
# Indices 1 2 3 4 5 6 
#
# 1 133.4374 19.9169 19.4806 0.0000 -20.3839 0.0000
# 2 19.9169 53.9473 25.2060 0.0000 -7.0273 0.0000
# 3 19.4806 25.2060 52.2505 0.0000 -24.1386 0.0000
# 4 0.0000 0.0000 0.0000 30.2127 0.0000 -2.6836
# 5 -20.3839 -7.0273 -24.1386 0.0000 48.3971 0.0000
# 6 0.0000 0.0000 0.0000 -2.6836 0.0000 36.7655
#
#
#
# Elastic Compliance Matrix: (Units=1/GPa)
#
#
# Indices 1 2 3 4 5 6 
#
# 1 0.008386 -0.002428 -0.000632 0.000000 0.002864 0.000000
# 2 -0.002428 0.024966 -0.012911 0.000000 -0.003837 0.000000
# 3 -0.000632 -0.012911 0.031983 0.000000 0.013811 0.000000
# 4 0.000000 0.000000 0.000000 0.033315 0.000000 0.002432
# 5 0.002864 -0.003837 0.013811 0.000000 0.028200 0.000000
# 6 0.000000 0.000000 0.000000 0.002432 0.000000 0.027377
#
#
# Mechanical properties :
#
#
# Convention : Reuss Voigt Hill
#
# Bulk Modulus (GPa) = 29.94648 40.98247 35.46448
# Shear Modulus (GPa) = 25.34215 34.74383 30.04299
#
# Velocity S-wave (km/s) = 3.31671 3.88351 3.61125
# Velocity P-wave (km/s) = 5.25991 6.15619 5.72561
#
# Compressibility (1/GPa) = 0.03339290
#
# Stress axis : x y z
#
# Youngs Moduli (GPa) = 119.24113 40.05516 31.26650
#
# Poissons Ratio (x) = 0.09724 0.01977
# Poissons Ratio (y) = 0.28947 0.40369
# Poissons Ratio (z) = 0.07540 0.51716
#
# Static dielectric constant tensor:
#      x y z
#    x 1.864030 0.000000 -0.045730 
#    y 0.000000 1.921300 0.000000 
#    z -0.045730 0.000000 1.865780 
# 
# From -- ./inp_files/208573.got.cif
#   From: 2010.05.17/outbox.cif.g08.bks.cpg/sg15_105_cif.got.tgz:208573.got - 2010.06.03 18:47:42.
