data_PCOD9302191
_publ_section_title
;
Structure prediction by ZEFSAII (Michael W. Deem and Ramdas Pophale) SiO2 
 PCOD9302191
Probable space group: C 2/C
;
_chemical_formula_sum "Si O2"
_cell_formula_units_Z 56
_cell_length_a 19.329931
_cell_length_b 17.586247
_cell_length_c 16.459955
_cell_angle_alpha 90.000000
_cell_angle_beta 149.478231
_cell_angle_gamma 90.000000
_cell_volume 2841.718101
_symmetry_space_group_name_H-M "C 2/C"
_symmetry_group_IT_number 15
_symmetry_cell_setting 'monoclinic'
loop_
_space_group_symop_operation_xyz
x,y,z
-x,y,1/2-z
-x,-y,-z
x,-y,1/2+z
1/2+x,1/2+y,z
1/2-x,1/2+y,1/2-z
1/2-x,1/2-y,-z
1/2+x,1/2-y,1/2+z
loop_
_atom_site_type_symbol
_atom_site_label
_atom_site_fract_x
_atom_site_fract_y
_atom_site_fract_z
Si Si1 0.880363 0.666162 0.350277
Si Si2 0.068627 0.037548 0.244397
Si Si3 0.070554 0.451684 0.734269
Si Si4 0.722312 0.563951 0.620830
Si Si5 0.130080 0.206867 0.334456
Si Si6 0.686200 0.016432 0.121308
Si Si7 0.331945 0.220901 0.794297
O O1 0.873411 0.622693 0.256611
O O2 0.840919 0.603460 0.379256
O O3 0.776707 0.735873 0.258986
O O4 0.034910 0.692546 0.523415
O O5 0.129527 0.115982 0.342941
O O6 0.191995 0.004095 0.318876
O O7 0.000000 0.992961 0.250000
O O8 0.938477 0.056009 0.056342
O O9 0.188173 0.516539 0.854424
O O10 0.000000 0.438312 0.750000
O O11 0.952110 0.483655 0.555417
O O12 0.767482 0.524959 0.750362
O O13 0.764203 0.651024 0.676466
O O14 0.250000 0.250000 0.500000
O O15 0.121897 0.223117 0.230969
O O16 0.000000 0.236969 0.250000
#
# Coordination Sequence:
#
# PCOD9302191 Si02
#       7
#     8   8   8   8   8   8   8
#     4  11  23  41  63  95 121 166 212 255 315 387
#     4  11  22  37  55  91 127 161 198 248 310 360
#     4  11  23  44  68  91 123 168 219 267 314 376
#     4  11  22  39  64  92 122 164 212 257 314 376
#     4  11  23  36  53  90 131 161 199 243 304 378
#     4  11  21  43  64  89 123 165 214 258 305 390
#     4  12  21  39  62  88 128 164 205 251 315 378
#
# _framework density 19.706388
#
# number of rings (size 3 to 8) (size 9 to 14) (size 15 to 20)
#    0.000    0.857    4.286    5.571    0.000    0.571 
#    0.000    0.714    0.000    0.000    0.000    0.000 
#    0.000    0.000    0.000    0.000    0.000    0.000 
#
# Total GULP energy -156377.153353 kJ/mol
# GULP energy per Si atom -5584.898334 kJ/mol
# Density = 1.966153 g / cm^3
# Si number density = 19.706388 Si / 1000 Ang^3
#
#
#
# Elastic Constant Matrix: (Units=GPa)
#
#
# Indices 1 2 3 4 5 6 
#
# 1 118.6823 33.9743 16.5093 -0.0002 17.3191 -0.0001
# 2 33.9743 61.1547 21.2894 -0.0001 6.7407 -0.0001
# 3 16.5093 21.2894 96.4591 0.0001 17.9500 0.0001
# 4 -0.0002 -0.0001 0.0001 25.6650 -0.0001 6.7144
# 5 17.3191 6.7407 17.9500 -0.0001 36.0185 0.0000
# 6 -0.0001 -0.0001 0.0001 6.7144 0.0000 21.7759
#
#
#
# Elastic Compliance Matrix: (Units=1/GPa)
#
#
# Indices 1 2 3 4 5 6 
#
# 1 0.010575 -0.005477 0.000170 0.000000 -0.004145 0.000000
# 2 -0.005477 0.020624 -0.003733 0.000000 0.000634 0.000000
# 3 0.000170 -0.003733 0.012176 0.000000 -0.005451 0.000000
# 4 0.000000 0.000000 0.000000 0.042382 0.000000 -0.013068
# 5 -0.004145 0.000634 -0.005451 0.000000 0.032354 0.000000
# 6 0.000000 0.000000 0.000000 -0.013068 0.000000 0.049952
#
#
# Mechanical properties :
#
#
# Convention : Reuss Voigt Hill
#
# Bulk Modulus (GPa) = 39.53147 46.64913 43.09030
# Shear Modulus (GPa) = 25.69696 30.32676 28.01186
#
# Velocity S-wave (km/s) = 3.61500 3.92718 3.77432
# Velocity P-wave (km/s) = 6.12602 6.65485 6.39590
#
# Compressibility (1/GPa) = 0.02529630
#
# Stress axis : x y z
#
# Youngs Moduli (GPa) = 94.56316 48.48633 82.12743
#
# Poissons Ratio (x) = 0.26557 -0.01398
# Poissons Ratio (y) = 0.51795 0.30654
# Poissons Ratio (z) = -0.01610 0.18098
#
# Static dielectric constant tensor:
#      x y z
#    x 1.731710 0.000000 -0.016130 
#    y 0.000000 1.730160 0.000000 
#    z -0.016130 0.000000 1.670330 
# 
# From -- ./inp_files/49015.got.cif
#   From: 2010.05.17/outbox.cif.g08.bks.cpg/sg15_25_cif.got.tgz:49015.got - 2010.06.03 18:47:42.
