data_PCOD9302321
_publ_section_title
;
Structure prediction by ZEFSAII (Michael W. Deem and Ramdas Pophale) SiO2 
 PCOD9302321
Probable space group: C 2/C
;
_chemical_formula_sum "Si O2"
_cell_formula_units_Z 52
_cell_length_a 9.378026
_cell_length_b 25.273686
_cell_length_c 14.462552
_cell_angle_alpha 90.000000
_cell_angle_beta 48.346603
_cell_angle_gamma 90.000000
_cell_volume 2561.236126
_symmetry_space_group_name_H-M "C 2/C"
_symmetry_group_IT_number 15
_symmetry_cell_setting 'monoclinic'
loop_
_space_group_symop_operation_xyz
x,y,z
-x,y,1/2-z
-x,-y,-z
x,-y,1/2+z
1/2+x,1/2+y,z
1/2-x,1/2+y,1/2-z
1/2-x,1/2-y,-z
1/2+x,1/2-y,1/2+z
loop_
_atom_site_type_symbol
_atom_site_label
_atom_site_fract_x
_atom_site_fract_y
_atom_site_fract_z
Si Si1 0.895920 0.589189 0.038705
Si Si2 0.814620 0.538955 0.892182
Si Si3 0.592493 0.170052 0.815255
Si Si4 0.346439 0.919592 0.893832
Si Si5 0.046028 0.222446 0.071268
Si Si6 0.056483 0.867733 0.425460
Si Si7 0.000000 0.137173 0.250000
O O1 0.690275 0.602861 0.169193
O O2 0.039767 0.578158 0.059094
O O3 0.870900 0.543175 0.974979
O O4 0.963675 0.637796 0.943544
O O5 0.771124 0.477487 0.893628
O O6 0.656947 0.583801 0.939062
O O7 0.000000 0.551613 0.750000
O O8 0.500000 0.170683 0.750000
O O9 0.600937 0.230011 0.848181
O O10 0.796184 0.140923 0.721955
O O11 0.500000 0.901395 0.750000
O O12 0.161960 0.883788 0.990237
O O13 0.006670 0.176105 0.160464
O O14 0.250000 0.250000 0.000000
O O15 0.056371 0.190149 0.972474
#
# Coordination Sequence:
#
# PCOD9302321 Si02
#       7
#     8   8   8   8   8   8   4
#     4  12  23  42  66  99 132 173 221 273 328 394
#     4  11  21  45  72  98 129 174 225 272 323 397
#     4  12  21  39  69 102 126 168 223 276 325 379
#     4  11  28  44  64  96 142 176 215 274 338 392
#     4  12  20  36  68  99 125 169 224 275 318 383
#     4  12  22  44  68  95 138 174 217 272 340 387
#     4  12  20  34  66  90 132 162 218 270 320 380
#
# _framework density 20.302696999999998
#
# number of rings (size 3 to 8) (size 9 to 14) (size 15 to 20)
#    0.000    0.308    8.462    1.846    0.000    0.615 
#    0.000    0.769    3.385    0.000    0.000    0.000 
#    0.000    0.000    0.000    0.000    0.000    0.000 
#
# Total GULP energy -145138.736620 kJ/mol
# GULP energy per Si atom -5582.259101 kJ/mol
# Density = 2.025649 g / cm^3
# Si number density = 20.302697 Si / 1000 Ang^3
#
#
#
# Elastic Constant Matrix: (Units=GPa)
#
#
# Indices 1 2 3 4 5 6 
#
# 1 70.5361 27.9669 49.8094 0.0000 -26.7811 0.0000
# 2 27.9669 90.2489 32.5523 0.0000 -26.6367 0.0000
# 3 49.8094 32.5523 114.7604 0.0000 -24.9124 0.0000
# 4 0.0000 0.0000 0.0000 28.5801 0.0000 -5.3115
# 5 -26.7811 -26.6367 -24.9124 0.0000 31.1636 0.0000
# 6 0.0000 0.0000 0.0000 -5.3115 0.0000 13.7903
#
#
#
# Elastic Compliance Matrix: (Units=1/GPa)
#
#
# Indices 1 2 3 4 5 6 
#
# 1 0.025659 -0.000661 -0.007605 0.000000 0.015406 0.000000
# 2 -0.000661 0.015135 -0.001599 0.000000 0.011090 0.000000
# 3 -0.007605 -0.001599 0.013010 0.000000 0.002499 0.000000
# 4 0.000000 0.000000 0.000000 0.037687 0.000000 0.014515
# 5 0.015406 0.011090 0.002499 0.000000 0.056805 0.000000
# 6 0.000000 0.000000 0.000000 0.014515 0.000000 0.078105
#
#
# Mechanical properties :
#
#
# Convention : Reuss Voigt Hill
#
# Bulk Modulus (GPa) = 29.34691 55.13364 42.24027
# Shear Modulus (GPa) = 19.41824 25.72124 22.56974
#
# Velocity S-wave (km/s) = 3.09599 3.56320 3.33778
# Velocity P-wave (km/s) = 5.22171 6.64404 5.97535
#
# Compressibility (1/GPa) = 0.03407513
#
# Stress axis : x y z
#
# Youngs Moduli (GPa) = 38.97301 66.07053 76.86144
#
# Poissons Ratio (x) = 0.04369 0.58451
# Poissons Ratio (y) = 0.02577 0.12287
# Poissons Ratio (z) = 0.29638 0.10562
#
# Static dielectric constant tensor:
#      x y z
#    x 1.723330 0.000000 -0.004770 
#    y 0.000000 1.743600 0.000000 
#    z -0.004770 0.000000 1.753350 
# 
# From -- ./inp_files/138471.got.cif
#   From: 2010.05.17/outbox.cif.g08.bks.cpg/sg15_70_cif.got.tgz:138471.got - 2010.06.03 18:47:42.
