data_PCOD9302919
_publ_section_title
;
Structure prediction by ZEFSAII (Michael W. Deem and Ramdas Pophale) SiO2 
 PCOD9302919
Probable space group: C 2/C
;
_chemical_formula_sum "Si O2"
_cell_formula_units_Z 32
_cell_length_a 20.633835
_cell_length_b 15.746827
_cell_length_c 4.969149
_cell_angle_alpha 90.000000
_cell_angle_beta 66.861976
_cell_angle_gamma 90.000000
_cell_volume 1484.689155
_symmetry_space_group_name_H-M "C 2/C"
_symmetry_group_IT_number 15
_symmetry_cell_setting 'monoclinic'
loop_
_space_group_symop_operation_xyz
x,y,z
-x,y,1/2-z
-x,-y,-z
x,-y,1/2+z
1/2+x,1/2+y,z
1/2-x,1/2+y,1/2-z
1/2-x,1/2-y,-z
1/2+x,1/2-y,1/2+z
loop_
_atom_site_type_symbol
_atom_site_label
_atom_site_fract_x
_atom_site_fract_y
_atom_site_fract_z
Si Si1 0.300138 0.732130 0.669003
Si Si2 0.500000 0.063114 0.250000
Si Si3 0.887044 0.939596 0.086224
Si Si4 0.500000 0.652126 0.750000
Si Si5 0.431757 0.200157 0.673438
O O1 0.250000 0.750000 0.500000
O O2 0.332561 0.638601 0.666668
O O3 0.366766 0.791228 0.480513
O O4 0.250000 0.750000 0.000000
O O5 0.436381 0.126954 0.439469
O O6 0.500000 0.000000 0.500000
O O7 0.959934 0.899809 0.084080
O O8 0.879180 0.016663 0.310030
O O9 0.556776 0.712280 0.508591
O O10 0.500000 0.188043 0.750000
#
# Coordination Sequence:
#
# PCOD9302919 Si02
#       5
#     8   4   8   4   8
#     4  12  27  48  71 100 145 200 244 291 366 453
#     4  11  24  42  70 107 138 174 246 329 372 402
#     4  12  25  43  70 108 147 182 235 302 364 436
#     4  11  22  40  72 113 146 188 236 299 378 446
#     4  11  23  44  76 104 139 192 253 296 363 458
#
# _framework density 21.553332000000001
#
# number of rings (size 3 to 8) (size 9 to 14) (size 15 to 20)
#    0.000    0.500    3.750    5.250    3.500    0.000 
#    0.000    7.500    0.000    0.000    0.000    0.000 
#    0.000    0.000    0.000    0.000    0.000    0.000 
#
# Total GULP energy -89306.674282 kJ/mol
# GULP energy per Si atom -5581.667143 kJ/mol
# Density = 2.150428 g / cm^3
# Si number density = 21.553332 Si / 1000 Ang^3
#
#
#
# Elastic Constant Matrix: (Units=GPa)
#
#
# Indices 1 2 3 4 5 6 
#
# 1 118.9445 33.2357 41.2013 0.0000 -3.9687 0.0000
# 2 33.2357 137.1973 51.7883 0.0000 -16.9455 0.0000
# 3 41.2013 51.7883 180.3928 0.0000 -15.5503 0.0000
# 4 0.0000 0.0000 0.0000 39.4978 0.0000 17.6158
# 5 -3.9687 -16.9455 -15.5503 0.0000 43.2112 0.0000
# 6 0.0000 0.0000 0.0000 17.6158 0.0000 32.9562
#
#
#
# Elastic Compliance Matrix: (Units=1/GPa)
#
#
# Indices 1 2 3 4 5 6 
#
# 1 0.009460 -0.001697 -0.001709 0.000000 -0.000412 0.000000
# 2 -0.001697 0.008736 -0.001897 0.000000 0.002587 0.000000
# 3 -0.001709 -0.001897 0.006606 0.000000 0.001476 0.000000
# 4 0.000000 0.000000 0.000000 0.033243 0.000000 -0.017769
# 5 -0.000412 0.002587 0.001476 0.000000 0.024650 0.000000
# 6 0.000000 0.000000 0.000000 -0.017769 0.000000 0.039841
#
#
# Mechanical properties :
#
#
# Convention : Reuss Voigt Hill
#
# Bulk Modulus (GPa) = 70.45101 76.55390 73.50245
# Shear Modulus (GPa) = 36.26518 43.82032 40.04275
#
# Velocity S-wave (km/s) = 4.10637 4.51390 4.31495
# Velocity P-wave (km/s) = 7.43242 7.92228 7.68125
#
# Compressibility (1/GPa) = 0.01419426
#
# Stress axis : x y z
#
# Youngs Moduli (GPa) = 105.71103 114.47352 151.38567
#
# Poissons Ratio (x) = 0.19431 0.25868
# Poissons Ratio (y) = 0.17944 0.28721
# Poissons Ratio (z) = 0.18064 0.21718
#
# Static dielectric constant tensor:
#      x y z
#    x 1.725100 0.000000 0.072920 
#    y 0.000000 1.817770 0.000000 
#    z 0.072920 0.000000 1.785260 
# 
# From -- ./inp_files/12549.got.cif
#   From: 2010.05.17/outbox.cif.g08.bks.cpg/sg15_7_cif.got.tgz:12549.got - 2010.06.03 18:47:42.
