data_PCOD9302160
_publ_section_title
;
Structure prediction by ZEFSAII (Michael W. Deem and Ramdas Pophale) SiO2 
 PCOD9302160
Probable space group: C 2/C
;
_chemical_formula_sum "Si O2"
_cell_formula_units_Z 48
_cell_length_a 21.546800
_cell_length_b 10.390937
_cell_length_c 18.803192
_cell_angle_alpha 90.000000
_cell_angle_beta 155.665478
_cell_angle_gamma 90.000000
_cell_volume 1734.735000
_symmetry_space_group_name_H-M "C 2/C"
_symmetry_group_IT_number 15
_symmetry_cell_setting 'monoclinic'
loop_
_space_group_symop_operation_xyz
x,y,z
-x,y,1/2-z
-x,-y,-z
x,-y,1/2+z
1/2+x,1/2+y,z
1/2-x,1/2+y,1/2-z
1/2-x,1/2-y,-z
1/2+x,1/2-y,1/2+z
loop_
_atom_site_type_symbol
_atom_site_label
_atom_site_fract_x
_atom_site_fract_y
_atom_site_fract_z
Si Si1 0.247805 0.952740 0.474237
Si Si2 0.418855 0.104221 0.550220
Si Si3 0.868070 0.062136 0.908445
Si Si4 0.906224 0.834035 0.741950
Si Si5 0.074095 0.716553 0.248448
Si Si6 0.621180 0.839165 0.644457
O O1 0.148373 0.858230 0.322384
O O2 0.292945 0.884061 0.593124
O O3 0.390403 0.982924 0.571358
O O4 0.154621 0.082882 0.386987
O O5 0.542589 0.190482 0.717988
O O6 0.463487 0.107597 0.514537
O O7 0.246942 0.159369 0.371157
O O8 0.821598 0.195920 0.820108
O O9 0.746789 0.948482 0.789512
O O10 0.954487 0.105054 0.070361
O O11 0.000000 0.000000 0.000000
O O12 0.027233 0.684512 0.118890
O O13 0.000000 0.729360 0.250000
#
# Coordination Sequence:
#
# PCOD9302160 Si02
#       6
#     8   8   8   8   8   8
#     4   9  22  45  69 104 151 196 251 305 371 457
#     4   9  19  42  73 117 139 190 249 311 384 443
#     4  11  21  42  70 110 151 192 247 313 392 444
#     4   9  19  39  75 108 150 185 241 310 385 438
#     4  11  24  45  70 104 147 204 256 300 373 459
#     4  11  23  42  74 109 146 195 248 321 379 449
#
# _framework density 27.669934000000001
#
# number of rings (size 3 to 8) (size 9 to 14) (size 15 to 20)
#    1.000    1.000    1.667    2.000    0.000    5.333 
#    6.000    1.667    0.000   19.000    0.000    0.000 
#    0.000    0.000    0.000    0.000    0.000    0.000 
#
# Total GULP energy -134055.492321 kJ/mol
# GULP energy per Si atom -5585.645513 kJ/mol
# Density = 2.760696 g / cm^3
# Si number density = 27.669934 Si / 1000 Ang^3
#
#
#
# Elastic Constant Matrix: (Units=GPa)
#
#
# Indices 1 2 3 4 5 6 
#
# 1 176.3458 54.6961 35.6159 0.0000 -15.7666 0.0000
# 2 54.6961 127.7560 44.9935 0.0000 10.2428 0.0000
# 3 35.6159 44.9935 97.0344 0.0000 -5.7881 0.0000
# 4 0.0000 0.0000 0.0000 58.9539 0.0000 0.0671
# 5 -15.7666 10.2428 -5.7881 0.0000 31.8513 0.0000
# 6 0.0000 0.0000 0.0000 0.0671 0.0000 28.2722
#
#
#
# Elastic Compliance Matrix: (Units=1/GPa)
#
#
# Indices 1 2 3 4 5 6 
#
# 1 0.007220 -0.003111 -0.000945 0.000000 0.004403 0.000000
# 2 -0.003111 0.011184 -0.004398 0.000000 -0.005936 0.000000
# 3 -0.000945 -0.004398 0.012888 0.000000 0.003289 0.000000
# 4 0.000000 0.000000 0.000000 0.016962 0.000000 -0.000040
# 5 0.004403 -0.005936 0.003289 0.000000 0.036082 0.000000
# 6 0.000000 0.000000 0.000000 -0.000040 0.000000 0.035371
#
#
# Mechanical properties :
#
#
# Convention : Reuss Voigt Hill
#
# Bulk Modulus (GPa) = 69.52229 74.63856 72.08043
# Shear Modulus (GPa) = 35.35799 41.53752 38.44776
#
# Velocity S-wave (km/s) = 3.57858 3.87871 3.73166
# Velocity P-wave (km/s) = 6.50039 6.86239 6.68384
#
# Compressibility (1/GPa) = 0.01438388
#
# Stress axis : x y z
#
# Youngs Moduli (GPa) = 138.50030 89.41032 77.59214
#
# Poissons Ratio (x) = 0.27820 0.07331
# Poissons Ratio (y) = 0.43094 0.34126
# Poissons Ratio (z) = 0.13085 0.39324
#
# Static dielectric constant tensor:
#      x y z
#    x 2.192190 0.000000 0.075050 
#    y 0.000000 2.277950 0.000000 
#    z 0.075050 0.000000 2.198840 
# 
# From -- ./inp_files/252627.got.cif
#   From: 2010.05.17/outbox.cif.g08.bks.cpg/sg15_127_cif.got.tgz:252627.got - 2010.06.03 18:47:42.
