data_PCOD9302403
_publ_section_title
;
Structure prediction by ZEFSAII (Michael W. Deem and Ramdas Pophale) SiO2 
 PCOD9302403
Probable space group: C 2/C
;
_chemical_formula_sum "Si O2"
_cell_formula_units_Z 64
_cell_length_a 20.585132
_cell_length_b 16.989041
_cell_length_c 8.967940
_cell_angle_alpha 90.000000
_cell_angle_beta 75.091490
_cell_angle_gamma 90.000000
_cell_volume 3030.708852
_symmetry_space_group_name_H-M "C 2/C"
_symmetry_group_IT_number 15
_symmetry_cell_setting 'monoclinic'
loop_
_space_group_symop_operation_xyz
x,y,z
-x,y,1/2-z
-x,-y,-z
x,-y,1/2+z
1/2+x,1/2+y,z
1/2-x,1/2+y,1/2-z
1/2-x,1/2-y,-z
1/2+x,1/2-y,1/2+z
loop_
_atom_site_type_symbol
_atom_site_label
_atom_site_fract_x
_atom_site_fract_y
_atom_site_fract_z
Si Si1 0.310231 0.405473 0.486057
Si Si2 0.662465 0.895602 0.907781
Si Si3 0.674374 0.176677 0.952494
Si Si4 0.801007 0.822724 0.782084
Si Si5 0.186517 0.446460 0.224741
Si Si6 0.433788 0.619854 0.705979
Si Si7 0.568345 0.799559 0.779584
Si Si8 0.169545 0.920090 0.465966
O O1 0.244609 0.354429 0.482024
O O2 0.320379 0.391728 0.655361
O O3 0.374709 0.375904 0.361542
O O4 0.310003 0.499442 0.460416
O O5 0.722052 0.831194 0.864757
O O6 0.595551 0.853507 0.895098
O O7 0.681848 0.963849 0.778718
O O8 0.661039 0.931442 0.073449
O O9 0.684034 0.244851 0.822246
O O10 0.647828 0.103358 0.871828
O O11 0.874789 0.300434 0.884048
O O12 0.834760 0.846554 0.918626
O O13 0.263873 0.413884 0.177236
O O14 0.500000 0.587617 0.750000
O O15 0.446399 0.710867 0.656300
O O16 0.398656 0.574990 0.588856
O O17 0.500000 0.831004 0.750000
#
# Coordination Sequence:
#
# PCOD9302403 Si02
#       8
#     8   8   8   8   8   8   8   8
#     4  12  20  41  65  93 125 174 216 265 321 382
#     4  11  22  40  63  98 131 166 210 265 325 381
#     4  12  22  40  65  99 124 167 222 267 323 385
#     4  11  22  34  65  97 125 169 213 270 315 376
#     4  11  23  37  66 100 131 159 210 276 322 375
#     4  11  25  42  64  92 130 175 217 266 321 386
#     4  11  24  44  67  89 128 172 214 265 328 389
#     4  11  23  38  63  97 136 166 217 267 321 377
#
# _framework density 21.117173000000001
#
# number of rings (size 3 to 8) (size 9 to 14) (size 15 to 20)
#    0.000    0.750    5.000    4.125    1.750    1.500 
#    0.000    3.750    0.000    0.000    0.000    0.000 
#    0.000    0.000    0.000    0.000    0.000    0.000 
#
# Total GULP energy -178665.634613 kJ/mol
# GULP energy per Si atom -5583.301082 kJ/mol
# Density = 2.106911 g / cm^3
# Si number density = 21.117173 Si / 1000 Ang^3
#
#
#
# Elastic Constant Matrix: (Units=GPa)
#
#
# Indices 1 2 3 4 5 6 
#
# 1 101.4133 9.6130 12.6477 0.0000 26.4163 0.0000
# 2 9.6130 68.1583 -0.7521 0.0000 7.5225 0.0000
# 3 12.6477 -0.7521 33.4866 0.0000 10.3685 0.0000
# 4 0.0000 0.0000 0.0000 28.3611 0.0000 1.4905
# 5 26.4163 7.5225 10.3685 0.0000 26.8612 0.0000
# 6 0.0000 0.0000 0.0000 1.4905 0.0000 18.9797
#
#
#
# Elastic Compliance Matrix: (Units=1/GPa)
#
#
# Indices 1 2 3 4 5 6 
#
# 1 0.013310 -0.000511 -0.001170 0.000000 -0.012494 0.000000
# 2 -0.000511 0.015264 0.001935 0.000000 -0.004519 0.000000
# 3 -0.001170 0.001935 0.034254 0.000000 -0.012614 0.000000
# 4 0.000000 0.000000 0.000000 0.035406 0.000000 -0.002780
# 5 -0.012494 -0.004519 -0.012614 0.000000 0.055650 0.000000
# 6 0.000000 0.000000 0.000000 -0.002780 0.000000 0.052906
#
#
# Mechanical properties :
#
#
# Convention : Reuss Voigt Hill
#
# Bulk Modulus (GPa) = 15.78892 27.34170 21.56531
# Shear Modulus (GPa) = 21.98840 26.94370 24.46605
#
# Velocity S-wave (km/s) = 3.23035 3.57587 3.40749
# Velocity P-wave (km/s) = 4.62673 5.47949 5.07107
#
# Compressibility (1/GPa) = 0.06333554
#
# Stress axis : x y z
#
# Youngs Moduli (GPa) = 75.13406 65.51402 29.19406
#
# Poissons Ratio (x) = 0.03348 0.03415
# Poissons Ratio (y) = 0.03840 -0.05649
# Poissons Ratio (z) = 0.08789 -0.12678
#
# Static dielectric constant tensor:
#      x y z
#    x 1.751740 0.000000 0.022450 
#    y 0.000000 1.841690 0.000000 
#    z 0.022450 0.000000 1.802160 
# 
# From -- ./inp_files/56627.got.cif
#   From: 2010.05.17/outbox.cif.g08.bks.cpg/sg15_29_cif.got.tgz:56627.got - 2010.06.03 18:47:42.
