data_PCOD9302578
_publ_section_title
;
Structure prediction by ZEFSAII (Michael W. Deem and Ramdas Pophale) SiO2 
 PCOD9302578
Probable space group: C 2/C
;
_chemical_formula_sum "Si O2"
_cell_formula_units_Z 28
_cell_length_a 16.256595
_cell_length_b 14.801408
_cell_length_c 7.987375
_cell_angle_alpha 90.000000
_cell_angle_beta 130.181734
_cell_angle_gamma 90.000000
_cell_volume 1468.354950
_symmetry_space_group_name_H-M "C 2/C"
_symmetry_group_IT_number 15
_symmetry_cell_setting 'monoclinic'
loop_
_space_group_symop_operation_xyz
x,y,z
-x,y,1/2-z
-x,-y,-z
x,-y,1/2+z
1/2+x,1/2+y,z
1/2-x,1/2+y,1/2-z
1/2-x,1/2-y,-z
1/2+x,1/2-y,1/2+z
loop_
_atom_site_type_symbol
_atom_site_label
_atom_site_fract_x
_atom_site_fract_y
_atom_site_fract_z
Si Si1 0.000000 0.205828 0.750000
Si Si2 0.581453 0.222111 0.699668
Si Si3 0.216908 0.890622 0.989022
Si Si4 0.109806 0.056080 0.689249
O O1 0.971554 0.266290 0.551893
O O2 0.911734 0.134064 0.703196
O O3 0.500000 0.223502 0.750000
O O4 0.660441 0.136926 0.820065
O O5 0.658072 0.310259 0.812810
O O6 0.153136 0.898649 0.079069
O O7 0.195479 0.983894 0.867085
O O8 0.000000 0.000000 0.500000
#
# Coordination Sequence:
#
# PCOD9302578 Si02
#       4
#     4   8   8   8
#     4  12  22  38  70  88 124 162 208 254 306 362
#     4  11  23  42  60  92 132 163 199 262 311 373
#     4  11  22  38  65  95 125 160 210 258 315 355
#     4  12  19  37  66  95 118 157 210 263 295 363
#
# _framework density 19.068959
#
# number of rings (size 3 to 8) (size 9 to 14) (size 15 to 20)
#    0.000    0.571    8.571    0.000    0.000    1.143 
#    5.143    1.429    0.000    0.000    0.000    0.000 
#    0.000    0.000    0.000    0.000    0.000    0.000 
#
# Total GULP energy -78164.872518 kJ/mol
# GULP energy per Si atom -5583.205180 kJ/mol
# Density = 1.902556 g / cm^3
# Si number density = 19.068959 Si / 1000 Ang^3
#
#
#
# Elastic Constant Matrix: (Units=GPa)
#
#
# Indices 1 2 3 4 5 6 
#
# 1 56.3807 12.7095 53.7936 0.0000 -11.0782 0.0000
# 2 12.7095 55.9855 56.8204 0.0000 7.2297 0.0000
# 3 53.7936 56.8204 127.2618 0.0000 -14.6783 0.0000
# 4 0.0000 0.0000 0.0000 14.5964 0.0000 12.4496
# 5 -11.0782 7.2297 -14.6783 0.0000 33.5242 0.0000
# 6 0.0000 0.0000 0.0000 12.4496 0.0000 28.9932
#
#
#
# Elastic Compliance Matrix: (Units=1/GPa)
#
#
# Indices 1 2 3 4 5 6 
#
# 1 0.033941 0.012666 -0.020035 0.000000 -0.000288 0.000000
# 2 0.012666 0.045298 -0.027618 0.000000 -0.017676 0.000000
# 3 -0.020035 -0.027618 0.030101 0.000000 0.012515 0.000000
# 4 0.000000 0.000000 0.000000 0.108101 0.000000 -0.046419
# 5 -0.000288 -0.017676 0.012515 0.000000 0.039025 0.000000
# 6 0.000000 0.000000 0.000000 -0.046419 0.000000 0.054423
#
#
# Mechanical properties :
#
#
# Convention : Reuss Voigt Hill
#
# Bulk Modulus (GPa) = 25.40231 54.03056 39.71643
# Shear Modulus (GPa) = 12.69083 23.17639 17.93361
#
# Velocity S-wave (km/s) = 2.58257 3.49004 3.07002
# Velocity P-wave (km/s) = 4.71626 6.68104 5.78271
#
# Compressibility (1/GPa) = 0.03936650
#
# Stress axis : x y z
#
# Youngs Moduli (GPa) = 29.46332 22.07582 33.22155
#
# Poissons Ratio (x) = -0.27961 0.66560
# Poissons Ratio (y) = -0.37318 0.91750
# Poissons Ratio (z) = 0.59030 0.60968
#
# Static dielectric constant tensor:
#      x y z
#    x 1.648230 0.000000 -0.004080 
#    y 0.000000 1.657780 0.000000 
#    z -0.004080 0.000000 1.701520 
# 
# From -- ./inp_files/27312.got.cif
#   From: 2010.05.17/outbox.cif.g08.bks.cpg/sg15_14_cif.got.tgz:27312.got - 2010.06.03 18:47:42.
