data_PCOD9302344
_publ_section_title
;
Structure prediction by ZEFSAII (Michael W. Deem and Ramdas Pophale) SiO2 
 PCOD9302344
Probable space group: C 2/C
;
_chemical_formula_sum "Si O2"
_cell_formula_units_Z 56
_cell_length_a 14.565544
_cell_length_b 19.495830
_cell_length_c 16.041462
_cell_angle_alpha 90.000000
_cell_angle_beta 145.584484
_cell_angle_gamma 90.000000
_cell_volume 2574.584697
_symmetry_space_group_name_H-M "C 2/C"
_symmetry_group_IT_number 15
_symmetry_cell_setting 'monoclinic'
loop_
_space_group_symop_operation_xyz
x,y,z
-x,y,1/2-z
-x,-y,-z
x,-y,1/2+z
1/2+x,1/2+y,z
1/2-x,1/2+y,1/2-z
1/2-x,1/2-y,-z
1/2+x,1/2-y,1/2+z
loop_
_atom_site_type_symbol
_atom_site_label
_atom_site_fract_x
_atom_site_fract_y
_atom_site_fract_z
Si Si1 0.184285 0.170856 0.700575
Si Si2 0.943795 0.643227 0.025546
Si Si3 0.972436 0.493060 0.631988
Si Si4 0.331883 0.508448 0.824272
Si Si5 0.829052 0.249226 0.149308
Si Si6 0.434264 0.265318 0.116502
Si Si7 0.767184 0.599231 0.380126
O O1 0.185811 0.089427 0.699955
O O2 0.244637 0.208631 0.661576
O O3 0.002042 0.191579 0.590192
O O4 0.309587 0.184644 0.871116
O O5 0.886482 0.572315 0.023831
O O6 0.006888 0.690840 0.147685
O O7 0.087320 0.626028 0.069904
O O8 0.864591 0.559394 0.526484
O O9 0.000000 0.486422 0.750000
O O10 0.156258 0.492213 0.733845
O O11 0.334619 0.458149 0.746280
O O12 0.500000 0.500000 0.000000
O O13 0.833150 0.168238 0.176279
O O14 0.000000 0.280529 0.250000
O O15 0.750000 0.250000 0.000000
O O16 0.500000 0.298020 0.250000
O O17 0.250000 0.250000 0.000000
#
# Coordination Sequence:
#
# PCOD9302344 Si02
#       7
#     8   8   8   8   8   8   8
#     4  12  25  47  74 101 151 190 236 307 367 429
#     4  11  21  46  70 100 137 193 233 295 365 430
#     4  11  24  43  74 102 141 187 242 294 362 447
#     4  11  26  44  73 103 140 190 240 302 372 418
#     4  12  30  46  75 112 148 197 249 298 370 448
#     4  12  26  42  70 103 138 183 240 289 360 434
#     4  11  23  47  72 104 144 191 242 299 366 437
#
# _framework density 21.751080999999999
#
# number of rings (size 3 to 8) (size 9 to 14) (size 15 to 20)
#    0.000    0.571    5.714    2.143    4.000    3.429 
#    0.000    0.714    0.000    0.000    0.000    0.000 
#    0.000    0.000    0.000    0.000    0.000    0.000 
#
# Total GULP energy -156079.730604 kJ/mol
# GULP energy per Si atom -5574.276093 kJ/mol
# Density = 2.170157 g / cm^3
# Si number density = 21.751081 Si / 1000 Ang^3
#
#
#
# Elastic Constant Matrix: (Units=GPa)
#
#
# Indices 1 2 3 4 5 6 
#
# 1 136.8659 49.5783 32.9367 -0.0002 -8.4117 0.0000
# 2 49.5783 110.9562 -0.2856 -0.0004 -16.4557 0.0000
# 3 32.9367 -0.2856 99.4636 -0.0007 -11.3146 0.0000
# 4 -0.0002 -0.0004 -0.0007 33.8371 -0.0003 -7.3415
# 5 -8.4117 -16.4557 -11.3146 -0.0003 24.5742 0.0000
# 6 0.0000 0.0000 0.0000 -7.3415 0.0000 10.0004
#
#
#
# Elastic Compliance Matrix: (Units=1/GPa)
#
#
# Indices 1 2 3 4 5 6 
#
# 1 0.009674 -0.004518 -0.003360 0.000000 -0.001261 0.000000
# 2 -0.004518 0.012183 0.002410 0.000000 0.007721 0.000000
# 3 -0.003360 0.002410 0.011847 0.000000 0.005918 0.000000
# 4 0.000000 0.000000 0.000000 0.035152 0.000001 0.025806
# 5 -0.001261 0.007721 0.005918 0.000001 0.048156 0.000001
# 6 0.000000 0.000000 0.000000 0.025806 0.000001 0.118941
#
#
# Mechanical properties :
#
#
# Convention : Reuss Voigt Hill
#
# Bulk Modulus (GPa) = 43.92540 56.86049 50.39294
# Shear Modulus (GPa) = 19.64792 31.35276 25.50034
#
# Velocity S-wave (km/s) = 3.00877 3.80074 3.42771
# Velocity P-wave (km/s) = 5.68407 6.74233 6.23569
#
# Compressibility (1/GPa) = 0.02276587
#
# Stress axis : x y z
#
# Youngs Moduli (GPa) = 103.36728 82.08320 84.41173
#
# Poissons Ratio (x) = 0.37089 0.28362
# Poissons Ratio (y) = 0.46706 -0.20339
# Poissons Ratio (z) = 0.34732 -0.19778
#
# Static dielectric constant tensor:
#      x y z
#    x 1.862100 0.000000 -0.058120 
#    y 0.000000 1.851420 0.000010 
#    z -0.058120 0.000010 -1.658960 
# 
# From -- ./inp_files/206962.got.cif
#   From: 2010.05.17/outbox.cif.g08.bks.cpg/sg15_104_cif.got.tgz:206962.got - 2010.06.03 18:47:42.
