data_PCOD9302548
_publ_section_title
;
Structure prediction by ZEFSAII (Michael W. Deem and Ramdas Pophale) SiO2 
 PCOD9302548
Probable space group: C 2/C
;
_chemical_formula_sum "Si O2"
_cell_formula_units_Z 56
_cell_length_a 14.778311
_cell_length_b 25.978491
_cell_length_c 13.846344
_cell_angle_alpha 90.000000
_cell_angle_beta 30.097279
_cell_angle_gamma 90.000000
_cell_volume 2665.744326
_symmetry_space_group_name_H-M "C 2/C"
_symmetry_group_IT_number 15
_symmetry_cell_setting 'monoclinic'
loop_
_space_group_symop_operation_xyz
x,y,z
-x,y,1/2-z
-x,-y,-z
x,-y,1/2+z
1/2+x,1/2+y,z
1/2-x,1/2+y,1/2-z
1/2-x,1/2-y,-z
1/2+x,1/2-y,1/2+z
loop_
_atom_site_type_symbol
_atom_site_label
_atom_site_fract_x
_atom_site_fract_y
_atom_site_fract_z
Si Si1 0.054876 0.441477 0.462283
Si Si2 0.029998 0.636468 0.607932
Si Si3 0.395444 0.313379 0.746847
Si Si4 0.004275 0.187589 0.851276
Si Si5 0.772362 0.210702 0.681555
Si Si6 0.136567 0.631976 0.200565
Si Si7 0.335666 0.575883 0.852604
O O1 0.045024 0.416264 0.365980
O O2 0.947246 0.399350 0.631034
O O3 0.000000 0.500000 0.500000
O O4 0.242083 0.446521 0.346423
O O5 0.243603 0.643090 0.393102
O O6 0.000000 0.643918 0.750000
O O7 0.909676 0.677994 0.659967
O O8 0.500000 0.304388 0.750000
O O9 0.280234 0.263187 0.823018
O O10 0.562554 0.320026 0.520501
O O11 0.138045 0.218558 0.797109
O O12 0.098396 0.132074 0.745226
O O13 0.000000 0.212745 0.750000
O O14 0.803293 0.170248 0.071526
O O15 0.000000 0.659165 0.250000
O O16 0.209766 0.587889 0.060104
O O17 0.500000 0.546320 0.750000
#
# Coordination Sequence:
#
# PCOD9302548 Si02
#       7
#     8   8   8   8   8   8   8
#     4  11  22  38  61  93 124 161 205 259 328 384
#     4  12  25  42  65  92 131 169 214 271 316 372
#     4  12  24  41  66  94 125 173 221 257 324 388
#     4   9  18  36  61  89 119 160 205 253 312 369
#     4  12  22  39  66  94 127 168 216 269 318 380
#     4   8  16  33  60  85 113 158 205 244 300 383
#     4   8  16  34  60  83 112 155 203 244 301 374
#
# _framework density 21.007266000000001
#
# number of rings (size 3 to 8) (size 9 to 14) (size 15 to 20)
#    0.000    2.000    4.286    1.714    0.000    1.714 
#    0.000    4.286    0.000    0.000    0.000    0.000 
#    0.000    0.000    0.000    0.000    0.000    0.000 
#
# Total GULP energy -155909.290981 kJ/mol
# GULP energy per Si atom -5568.188964 kJ/mol
# Density = 2.095945 g / cm^3
# Si number density = 21.007266 Si / 1000 Ang^3
#
#
#
# Elastic Constant Matrix: (Units=GPa)
#
#
# Indices 1 2 3 4 5 6 
#
# 1 185.9525 28.9682 20.9191 0.0001 -36.1951 0.0072
# 2 28.9682 47.0950 -6.5584 -0.0018 -14.7085 0.0016
# 3 20.9191 -6.5584 73.8147 -0.0051 -18.1335 0.0129
# 4 0.0001 -0.0018 -0.0051 6.1124 0.0013 -4.2502
# 5 -36.1951 -14.7085 -18.1335 0.0013 37.0040 -0.0104
# 6 0.0072 0.0016 0.0129 -4.2502 -0.0104 12.3805
#
#
#
# Elastic Compliance Matrix: (Units=1/GPa)
#
#
# Indices 1 2 3 4 5 6 
#
# 1 0.006929 -0.002758 -0.000924 -0.000002 0.005228 0.000001
# 2 -0.002758 0.027187 0.005899 0.000015 0.011000 0.000006
# 3 -0.000924 0.005899 0.016698 0.000009 0.009623 -0.000006
# 4 -0.000002 0.000015 0.000009 0.214901 0.000021 0.073776
# 5 0.005228 0.011000 0.009623 0.000021 0.041226 0.000027
# 6 0.000001 0.000006 -0.000006 0.073776 0.000027 0.106100
#
#
# Mechanical properties :
#
#
# Convention : Reuss Voigt Hill
#
# Bulk Modulus (GPa) = 18.10022 43.72444 30.91233
# Shear Modulus (GPa) = 11.70899 28.66825 20.18862
#
# Velocity S-wave (km/s) = 2.36345 3.69817 3.10341
# Velocity P-wave (km/s) = 4.01033 6.25255 5.25248
#
# Compressibility (1/GPa) = 0.05524795
#
# Stress axis : x y z
#
# Youngs Moduli (GPa) = 144.32057 36.78239 59.88875
#
# Poissons Ratio (x) = 0.10144 0.05536
# Poissons Ratio (y) = 0.39801 -0.35330
# Poissons Ratio (z) = 0.13340 -0.21699
#
# Static dielectric constant tensor:
#      x y z
#    x 1.902470 -0.000020 0.020750 
#    y -0.000020 1.728450 0.000010 
#    z 0.020750 0.000010 1.872860 
# 
# From -- ./inp_files/157201.got.cif
#   From: 2010.05.17/outbox.cif.g08.bks.cpg/sg15_79_cif.got.tgz:157201.got - 2010.06.03 18:47:42.
