data_PCOD9302657
_publ_section_title
;
Structure prediction by ZEFSAII (Michael W. Deem and Ramdas Pophale) SiO2 
 PCOD9302657
Probable space group: C 2/C
;
_chemical_formula_sum "Si O2"
_cell_formula_units_Z 48
_cell_length_a 27.936199
_cell_length_b 9.099227
_cell_length_c 16.153048
_cell_angle_alpha 90.000000
_cell_angle_beta 143.636133
_cell_angle_gamma 90.000000
_cell_volume 2434.534490
_symmetry_space_group_name_H-M "C 2/C"
_symmetry_group_IT_number 15
_symmetry_cell_setting 'monoclinic'
loop_
_space_group_symop_operation_xyz
x,y,z
-x,y,1/2-z
-x,-y,-z
x,-y,1/2+z
1/2+x,1/2+y,z
1/2-x,1/2+y,1/2-z
1/2-x,1/2-y,-z
1/2+x,1/2-y,1/2+z
loop_
_atom_site_type_symbol
_atom_site_label
_atom_site_fract_x
_atom_site_fract_y
_atom_site_fract_z
Si Si1 0.087051 0.927082 0.130098
Si Si2 0.982671 0.626345 0.410617
Si Si3 0.340043 0.836717 0.399750
Si Si4 0.320848 0.545411 0.577905
Si Si5 0.197302 0.002830 0.127427
Si Si6 0.648436 0.895396 0.899552
O O1 0.071500 0.755020 0.125464
O O2 0.130804 0.995750 0.272034
O O3 0.141168 0.948612 0.124320
O O4 0.000000 0.000000 0.000000
O O5 0.933531 0.568357 0.262443
O O6 0.000000 0.500000 0.500000
O O7 0.069316 0.690504 0.504824
O O8 0.284427 0.929310 0.260741
O O9 0.298284 0.679410 0.357436
O O10 0.347816 0.922843 0.497508
O O11 0.337813 0.471580 0.513074
O O12 0.340546 0.718584 0.593191
O O13 0.225863 0.532874 0.464249
#
# Coordination Sequence:
#
# PCOD9302657 Si02
#       6
#     8   8   8   8   8   8
#     4  11  22  42  62  89 127 163 207 258 306 375
#     4  11  23  37  63  91 125 159 211 259 309 366
#     4  11  22  39  63  92 119 167 207 255 314 369
#     4   9  19  36  62  90 118 162 206 248 306 372
#     4  11  23  39  64  91 124 164 209 255 314 371
#     4   9  18  36  61  88 119 157 209 256 298 368
#
# _framework density 19.716294999999999
#
# number of rings (size 3 to 8) (size 9 to 14) (size 15 to 20)
#    0.000    1.667    3.333    1.500    4.667    0.667 
#    0.000    2.500    3.667    0.000    0.000    0.000 
#    0.000    0.000    0.000    0.000    0.000    0.000 
#
# Total GULP energy -133955.306978 kJ/mol
# GULP energy per Si atom -5581.471124 kJ/mol
# Density = 1.967142 g / cm^3
# Si number density = 19.716295 Si / 1000 Ang^3
#
#
#
# Elastic Constant Matrix: (Units=GPa)
#
#
# Indices 1 2 3 4 5 6 
#
# 1 90.3867 5.0700 64.9904 0.0000 -27.1398 0.0000
# 2 5.0700 32.6674 30.0877 0.0000 -9.9447 0.0000
# 3 64.9904 30.0877 148.3651 0.0000 -8.3338 0.0000
# 4 0.0000 0.0000 0.0000 29.1104 0.0000 1.4280
# 5 -27.1398 -9.9447 -8.3338 0.0000 37.7346 0.0000
# 6 0.0000 0.0000 0.0000 1.4280 0.0000 27.2947
#
#
#
# Elastic Compliance Matrix: (Units=1/GPa)
#
#
# Indices 1 2 3 4 5 6 
#
# 1 0.025032 0.013471 -0.012643 0.000000 0.018762 0.000000
# 2 0.013471 0.047674 -0.014499 0.000000 0.019051 0.000000
# 3 -0.012643 -0.014499 0.014675 0.000000 -0.009673 0.000000
# 4 0.000000 0.000000 0.000000 0.034440 0.000000 -0.001802
# 5 0.018762 0.019051 -0.009673 0.000000 0.042879 0.000000
# 6 0.000000 0.000000 0.000000 -0.001802 0.000000 0.036731
#
#
# Mechanical properties :
#
#
# Convention : Reuss Voigt Hill
#
# Bulk Modulus (GPa) = 16.65552 52.41283 34.53417
# Shear Modulus (GPa) = 20.09737 30.24601 25.17169
#
# Velocity S-wave (km/s) = 3.19616 3.92096 3.57696
# Velocity P-wave (km/s) = 4.69962 6.86584 5.88329
#
# Compressibility (1/GPa) = 0.06004017
#
# Stress axis : x y z
#
# Youngs Moduli (GPa) = 39.94837 20.97558 68.14107
#
# Poissons Ratio (x) = -0.28257 0.86153
# Poissons Ratio (y) = -0.53816 0.98798
# Poissons Ratio (z) = 0.50508 0.30413
#
# Static dielectric constant tensor:
#      x y z
#    x 1.713840 0.000000 -0.015260 
#    y 0.000000 1.689420 0.000000 
#    z -0.015260 0.000000 1.697780 
# 
# From -- ./inp_files/176951.got.cif
#   From: 2010.05.17/outbox.cif.g08.bks.cpg/sg15_89_cif.got.tgz:176951.got - 2010.06.03 18:47:42.
