data_PCOD9302910
_publ_section_title
;
Structure prediction by ZEFSAII (Michael W. Deem and Ramdas Pophale) SiO2 
 PCOD9302910
Probable space group: C 2/C
;
_chemical_formula_sum "Si O2"
_cell_formula_units_Z 64
_cell_length_a 21.288224
_cell_length_b 8.407789
_cell_length_c 19.503151
_cell_angle_alpha 90.000000
_cell_angle_beta 128.779050
_cell_angle_gamma 90.000000
_cell_volume 2721.319171
_symmetry_space_group_name_H-M "C 2/C"
_symmetry_group_IT_number 15
_symmetry_cell_setting 'monoclinic'
loop_
_space_group_symop_operation_xyz
x,y,z
-x,y,1/2-z
-x,-y,-z
x,-y,1/2+z
1/2+x,1/2+y,z
1/2-x,1/2+y,1/2-z
1/2-x,1/2-y,-z
1/2+x,1/2-y,1/2+z
loop_
_atom_site_type_symbol
_atom_site_label
_atom_site_fract_x
_atom_site_fract_y
_atom_site_fract_z
Si Si1 0.180896 0.852507 0.084837
Si Si2 0.695298 0.069618 0.400725
Si Si3 0.100194 0.386609 0.426905
Si Si4 0.582572 0.904325 0.040758
Si Si5 0.591509 0.554976 0.109729
Si Si6 0.252457 0.563551 0.193648
Si Si7 0.522924 0.577380 0.345198
Si Si8 0.177334 0.078760 0.894758
O O1 0.224214 0.744888 0.170455
O O2 0.238626 0.995761 0.103382
O O3 0.096526 0.918579 0.055393
O O4 0.163058 0.727796 0.010879
O O5 0.742096 0.084576 0.505035
O O6 0.660605 0.241017 0.359151
O O7 0.629205 0.937667 0.371950
O O8 0.089337 0.544831 0.465068
O O9 0.027499 0.264559 0.367036
O O10 0.576117 0.723075 0.061495
O O11 0.667072 0.968084 0.132260
O O12 0.500000 0.000000 0.000000
O O13 0.682455 0.551407 0.202198
O O14 0.535371 0.511899 0.135970
O O15 0.302647 0.522348 0.158676
O O16 0.500000 0.560398 0.250000
O O17 0.609684 0.490959 0.399261
#
# Coordination Sequence:
#
# PCOD9302910 Si02
#       8
#     8   8   8   8   8   8   8   8
#     4  11  23  40  70 103 131 182 236 286 354 415
#     4  11  22  40  71 101 130 174 235 297 342 410
#     4  11  23  44  69 104 136 181 239 296 343 428
#     4  11  23  44  70 105 140 185 240 299 351 419
#     4  12  26  43  70 102 148 189 231 294 364 427
#     4  11  23  46  69  99 146 185 234 291 358 427
#     4  12  25  45  71  97 142 188 232 289 363 424
#     4  11  22  41  70 101 132 179 234 288 346 414
#
# _framework density 23.518007000000001
#
# number of rings (size 3 to 8) (size 9 to 14) (size 15 to 20)
#    0.000    0.750    6.250    2.625    1.750    0.500 
#    4.500    0.625    0.000    0.000    0.000    0.000 
#    0.000    0.000    0.000    0.000    0.000    0.000 
#
# Total GULP energy -178614.722217 kJ/mol
# GULP energy per Si atom -5581.710069 kJ/mol
# Density = 2.346448 g / cm^3
# Si number density = 23.518007 Si / 1000 Ang^3
#
#
#
# Elastic Constant Matrix: (Units=GPa)
#
#
# Indices 1 2 3 4 5 6 
#
# 1 178.2203 63.8908 15.1709 0.0000 -16.3295 0.0000
# 2 63.8908 122.6950 8.2100 0.0000 -14.5780 0.0000
# 3 15.1709 8.2100 42.3048 0.0000 3.5830 0.0000
# 4 0.0000 0.0000 0.0000 20.0270 0.0000 -2.8405
# 5 -16.3295 -14.5780 3.5830 0.0000 30.3343 0.0000
# 6 0.0000 0.0000 0.0000 -2.8405 0.0000 38.9186
#
#
#
# Elastic Compliance Matrix: (Units=1/GPa)
#
#
# Indices 1 2 3 4 5 6 
#
# 1 0.007215 -0.003310 -0.002161 0.000000 0.002549 0.000000
# 2 -0.003310 0.010342 -0.001101 0.000000 0.003318 0.000000
# 3 -0.002161 -0.001101 0.025020 0.000000 -0.004648 0.000000
# 4 0.000000 0.000000 0.000000 0.050455 0.000000 0.003682
# 5 0.002549 0.003318 -0.004648 0.000000 0.036482 0.000000
# 6 0.000000 0.000000 0.000000 0.003682 0.000000 0.025963
#
#
# Mechanical properties :
#
#
# Convention : Reuss Voigt Hill
#
# Bulk Modulus (GPa) = 33.97497 57.52928 45.75212
# Shear Modulus (GPa) = 28.02199 34.91923 31.47061
#
# Velocity S-wave (km/s) = 3.45557 3.85747 3.66204
# Velocity P-wave (km/s) = 5.51353 6.65996 6.11368
#
# Compressibility (1/GPa) = 0.02943344
#
# Stress axis : x y z
#
# Youngs Moduli (GPa) = 138.60047 96.69619 39.96765
#
# Poissons Ratio (x) = 0.32003 0.08637
# Poissons Ratio (y) = 0.45872 0.04401
# Poissons Ratio (z) = 0.29951 0.10648
#
# Static dielectric constant tensor:
#      x y z
#    x 1.924240 0.000000 0.047290 
#    y 0.000000 1.940780 0.000000 
#    z 0.047290 0.000000 1.989690 
# 
# From -- ./inp_files/251913.got.cif
#   From: 2010.05.17/outbox.cif.g08.bks.cpg/sg15_126_cif.got.tgz:251913.got - 2010.06.03 18:47:42.
