data_PCOD9302457
_publ_section_title
;
Structure prediction by ZEFSAII (Michael W. Deem and Ramdas Pophale) SiO2 
 PCOD9302457
Probable space group: C 2/C
;
_chemical_formula_sum "Si O2"
_cell_formula_units_Z 32
_cell_length_a 11.803501
_cell_length_b 29.631927
_cell_length_c 10.124865
_cell_angle_alpha 90.000000
_cell_angle_beta 26.164933
_cell_angle_gamma 90.000000
_cell_volume 1561.549809
_symmetry_space_group_name_H-M "C 2/C"
_symmetry_group_IT_number 15
_symmetry_cell_setting 'monoclinic'
loop_
_space_group_symop_operation_xyz
x,y,z
-x,y,1/2-z
-x,-y,-z
x,-y,1/2+z
1/2+x,1/2+y,z
1/2-x,1/2+y,1/2-z
1/2-x,1/2-y,-z
1/2+x,1/2-y,1/2+z
loop_
_atom_site_type_symbol
_atom_site_label
_atom_site_fract_x
_atom_site_fract_y
_atom_site_fract_z
Si Si1 0.240941 0.384609 0.096602
Si Si2 0.720796 0.854735 0.411604
Si Si3 0.000000 0.218418 0.750000
Si Si4 0.000000 0.936744 0.250000
Si Si5 0.323322 0.988327 0.305247
O O1 0.168190 0.360658 0.311561
O O2 0.283626 0.437712 0.085384
O O3 0.000000 0.381399 0.250000
O O4 0.500000 0.368600 0.750000
O O5 0.949946 0.817871 0.185123
O O6 0.810009 0.903110 0.373874
O O7 0.500000 0.841247 0.750000
O O8 0.250000 0.250000 0.500000
O O9 0.879424 0.971453 0.478532
O O10 0.500000 0.991817 0.250000
O O11 0.500000 0.000000 0.000000
#
# Coordination Sequence:
#
# PCOD9302457 Si02
#       5
#     8   8   4   4   8
#     4  11  26  42  63  96 141 188 227 274 338 396
#     4  11  25  43  71 103 134 173 229 285 338 406
#     4  11  24  46  80 110 132 162 218 284 346 413
#     4  11  22  36  64  92 130 178 240 284 326 373
#     4  11  23  37  55  84 132 186 237 279 325 377
#
# _framework density 20.492462
#
# number of rings (size 3 to 8) (size 9 to 14) (size 15 to 20)
#    0.000    1.000    2.500    3.750   14.000    2.000 
#    0.000    0.000    0.000    4.500    0.000    0.000 
#    0.000    0.000    0.000    0.000    0.000    0.000 
#
# Total GULP energy -89262.946022 kJ/mol
# GULP energy per Si atom -5578.934126 kJ/mol
# Density = 2.044582 g / cm^3
# Si number density = 20.492462 Si / 1000 Ang^3
#
#
#
# Elastic Constant Matrix: (Units=GPa)
#
#
# Indices 1 2 3 4 5 6 
#
# 1 124.8672 41.7588 49.7594 0.0000 17.2934 -0.0002
# 2 41.7588 105.4739 30.3951 0.0000 -3.3695 0.0000
# 3 49.7594 30.3951 150.7841 0.0000 13.7364 -0.0003
# 4 0.0000 0.0000 0.0000 17.1373 0.0000 -22.7912
# 5 17.2934 -3.3695 13.7364 0.0000 40.9801 0.0002
# 6 -0.0002 0.0000 -0.0003 -22.7912 0.0002 -50.1240
#
#
#
# Elastic Compliance Matrix: (Units=1/GPa)
#
#
# Indices 1 2 3 4 5 6 
#
# 1 0.010775 -0.003690 -0.002445 0.000000 -0.004031 0.000000
# 2 -0.003690 0.011427 -0.001354 0.000000 0.002951 0.000000
# 3 -0.002445 -0.001354 0.007868 0.000000 -0.001717 0.000000
# 4 0.000000 0.000000 0.000000 0.036363 0.000000 -0.016534
# 5 -0.004031 0.002951 -0.001717 0.000000 0.026921 0.000000
# 6 0.000000 0.000000 0.000000 -0.016534 0.000000 -0.012432
#
#
# Mechanical properties :
#
#
# Convention : Reuss Voigt Hill
#
# Bulk Modulus (GPa) = 66.26401 69.43911 67.85156
# Shear Modulus (GPa) = 49.53866 18.87947 34.20907
#
# Velocity S-wave (km/s) = 4.92205 3.03857 4.09020
# Velocity P-wave (km/s) = 8.04413 6.80215 7.44907
#
# Compressibility (1/GPa) = 0.01509115
#
# Stress axis : x y z
#
# Youngs Moduli (GPa) = 92.80629 87.51478 127.09366
#
# Poissons Ratio (x) = 0.32296 0.31071
# Poissons Ratio (y) = 0.34248 0.17213
# Poissons Ratio (z) = 0.22689 0.11853
#
# Static dielectric constant tensor:
#      x y z
#    x 1.767690 0.000000 -0.057550 
#    y 0.000000 1.728760 0.000000 
#    z -0.057550 0.000000 1.765900 
# 
# From -- ./inp_files/2617.got.cif
#   From: 2010.05.17/outbox.cif.g08.bks.cpg/sg15_2_cif.got.tgz:2617.got - 2010.06.03 18:47:42.
