data_PCOD9302139
_publ_section_title
;
Structure prediction by ZEFSAII (Michael W. Deem and Ramdas Pophale) SiO2 
 PCOD9302139
Probable space group: C 2/C
;
_chemical_formula_sum "Si O2"
_cell_formula_units_Z 48
_cell_length_a 14.084443
_cell_length_b 15.260213
_cell_length_c 14.065659
_cell_angle_alpha 90.000000
_cell_angle_beta 38.969392
_cell_angle_gamma 90.000000
_cell_volume 1901.277470
_symmetry_space_group_name_H-M "C 2/C"
_symmetry_group_IT_number 15
_symmetry_cell_setting 'monoclinic'
loop_
_space_group_symop_operation_xyz
x,y,z
-x,y,1/2-z
-x,-y,-z
x,-y,1/2+z
1/2+x,1/2+y,z
1/2-x,1/2+y,1/2-z
1/2-x,1/2-y,-z
1/2+x,1/2-y,1/2+z
loop_
_atom_site_type_symbol
_atom_site_label
_atom_site_fract_x
_atom_site_fract_y
_atom_site_fract_z
Si Si1 0.320943 0.826798 0.773852
Si Si2 0.985733 0.898641 0.028025
Si Si3 0.931494 0.480726 0.893696
Si Si4 0.210169 0.141304 0.645588
Si Si5 0.594538 0.297071 0.590998
Si Si6 0.490123 0.149097 0.961908
O O1 0.436337 0.906631 0.702365
O O2 0.326155 0.744212 0.841481
O O3 0.378705 0.802440 0.623237
O O4 0.149981 0.855400 0.898672
O O5 0.924050 0.889015 0.183067
O O6 0.892757 0.860592 0.010081
O O7 0.000000 0.000000 0.000000
O O8 0.000000 0.531068 0.750000
O O9 0.926215 0.555208 0.978629
O O10 0.774316 0.425364 0.015960
O O11 0.353309 0.138353 0.605848
O O12 0.500000 0.341418 0.750000
O O13 0.750000 0.250000 0.500000
O O14 0.491858 0.215526 0.637561
#
# Coordination Sequence:
#
# PCOD9302139 Si02
#       6
#     8   8   8   8   8   8
#     4  11  21  42  68  92 128 177 232 271 333 421
#     4  12  23  40  63  97 135 178 226 278 347 425
#     4  11  25  42  66  98 132 176 230 285 335 400
#     4  11  21  42  68  92 127 180 229 273 331 417
#     4  12  24  39  66 101 139 171 219 292 357 396
#     4  11  21  43  66  94 131 178 227 272 337 421
#
# _framework density 25.246184
#
# number of rings (size 3 to 8) (size 9 to 14) (size 15 to 20)
#    0.000    0.667    3.333    7.500    0.000    2.000 
#    0.000    0.833    0.000    0.000    0.000    0.000 
#    0.000    0.000    0.000    0.000    0.000    0.000 
#
# Total GULP energy -134108.404379 kJ/mol
# GULP energy per Si atom -5587.850182 kJ/mol
# Density = 2.518872 g / cm^3
# Si number density = 25.246184 Si / 1000 Ang^3
#
#
#
# Elastic Constant Matrix: (Units=GPa)
#
#
# Indices 1 2 3 4 5 6 
#
# 1 46.7968 -0.1566 5.9559 -0.0001 -2.3456 0.0001
# 2 -0.1566 116.1197 -6.6717 -0.0002 10.5285 0.0001
# 3 5.9559 -6.6717 132.8754 -0.0002 9.9382 0.0001
# 4 -0.0001 -0.0002 -0.0002 28.9698 0.0002 2.8386
# 5 -2.3456 10.5285 9.9382 0.0002 45.7140 -0.0001
# 6 0.0001 0.0001 0.0001 2.8386 -0.0001 30.7093
#
#
#
# Elastic Compliance Matrix: (Units=1/GPa)
#
#
# Indices 1 2 3 4 5 6 
#
# 1 0.021575 -0.000158 -0.001078 0.000000 0.001378 0.000000
# 2 -0.000158 0.008844 0.000614 0.000000 -0.002179 0.000000
# 3 -0.001078 0.000614 0.007746 0.000000 -0.001881 0.000000
# 4 0.000000 0.000000 0.000000 0.034834 0.000000 -0.003220
# 5 0.001378 -0.002179 -0.001881 0.000000 0.022856 0.000000
# 6 0.000000 0.000000 0.000000 -0.003220 0.000000 0.032861
#
#
# Mechanical properties :
#
#
# Convention : Reuss Voigt Hill
#
# Bulk Modulus (GPa) = 27.08456 32.67191 29.87823
# Shear Modulus (GPa) = 35.14522 40.85625 38.00074
#
# Velocity S-wave (km/s) = 3.73513 4.02719 3.88391
# Velocity P-wave (km/s) = 5.41785 5.88165 5.65451
#
# Compressibility (1/GPa) = 0.03692141
#
# Stress axis : x y z
#
# Youngs Moduli (GPa) = 46.35060 113.06587 129.10460
#
# Poissons Ratio (x) = 0.01784 0.13918
# Poissons Ratio (y) = 0.00731 -0.07928
# Poissons Ratio (z) = 0.04997 -0.06943
#
# Static dielectric constant tensor:
#      x y z
#    x 2.140070 0.000000 0.138480 
#    y 0.000000 2.154410 0.000000 
#    z 0.138480 0.000000 2.063310 
# 
# From -- ./inp_files/211316.got.cif
#   From: 2010.05.17/outbox.cif.g08.bks.cpg/sg15_106_cif.got.tgz:211316.got - 2010.06.03 18:47:42.
