data_PCOD9302003
_publ_section_title
;
Structure prediction by ZEFSAII (Michael W. Deem and Ramdas Pophale) SiO2 
 PCOD9302003
Probable space group: C 2/C
;
_chemical_formula_sum "Si O2"
_cell_formula_units_Z 40
_cell_length_a 16.356923
_cell_length_b 16.266339
_cell_length_c 21.650151
_cell_angle_alpha 90.000000
_cell_angle_beta 17.290214
_cell_angle_gamma 90.000000
_cell_volume 1712.057726
_symmetry_space_group_name_H-M "C 2/C"
_symmetry_group_IT_number 15
_symmetry_cell_setting 'monoclinic'
loop_
_space_group_symop_operation_xyz
x,y,z
-x,y,1/2-z
-x,-y,-z
x,-y,1/2+z
1/2+x,1/2+y,z
1/2-x,1/2+y,1/2-z
1/2-x,1/2-y,-z
1/2+x,1/2-y,1/2+z
loop_
_atom_site_type_symbol
_atom_site_label
_atom_site_fract_x
_atom_site_fract_y
_atom_site_fract_z
Si Si1 0.819546 0.486273 0.533851
Si Si2 0.269258 0.104658 0.194390
Si Si3 0.404796 0.292392 0.120725
Si Si4 0.962379 0.795886 0.211431
Si Si5 0.691634 0.093863 0.665924
O O1 0.500000 0.496095 0.750000
O O2 0.813444 0.412978 0.589896
O O3 0.981749 0.560361 0.449724
O O4 0.996527 0.468756 0.344264
O O5 0.272852 0.201076 0.209670
O O6 0.978640 0.066409 0.427258
O O7 0.387366 0.336481 0.200128
O O8 0.284758 0.344291 0.152124
O O9 0.727577 0.273387 0.883251
O O10 0.000000 0.839524 0.250000
O O11 0.250000 0.750000 0.000000
O O12 0.500000 0.130078 0.750000
#
# Coordination Sequence:
#
# PCOD9302003 Si02
#       5
#     8   8   8   8   8
#     4  11  25  47  73 100 141 197 245 293 358 433
#     4  11  25  46  70 103 146 187 242 297 358 433
#     4  11  21  41  65 105 141 181 232 302 359 423
#     4   9  19  35  60  88 137 180 223 278 348 416
#     4  12  25  45  75 108 147 187 242 301 364 424
#
# _framework density 23.363699
#
# number of rings (size 3 to 8) (size 9 to 14) (size 15 to 20)
#    0.000    1.200    4.000    1.800    0.000    4.000 
#    0.000    3.000    0.000    0.000    0.000    0.000 
#    0.000    0.000    0.000    0.000    0.000    0.000 
#
# Total GULP energy -111613.040074 kJ/mol
# GULP energy per Si atom -5580.652004 kJ/mol
# Density = 2.331052 g / cm^3
# Si number density = 23.363699 Si / 1000 Ang^3
#
#
#
# Elastic Constant Matrix: (Units=GPa)
#
#
# Indices 1 2 3 4 5 6 
#
# 1 202.1235 16.5651 32.2089 -0.0103 -23.8403 0.0186
# 2 16.5651 27.2577 4.1366 -0.0539 -12.0748 0.0467
# 3 32.2089 4.1366 173.6770 0.1185 -21.4047 -0.0753
# 4 -0.0103 -0.0539 0.1185 7.9763 -0.0257 -7.4780
# 5 -23.8403 -12.0748 -21.4047 -0.0257 56.4692 0.0208
# 6 0.0186 0.0467 -0.0753 -7.4780 0.0208 26.1636
#
#
#
# Elastic Compliance Matrix: (Units=1/GPa)
#
#
# Indices 1 2 3 4 5 6 
#
# 1 0.005452 -0.002547 -0.000770 0.000005 0.001465 -0.000001
# 2 -0.002547 0.041719 0.000467 0.000307 0.008023 0.000010
# 3 -0.000770 0.000467 0.006149 -0.000092 0.002106 -0.000011
# 4 0.000005 0.000307 -0.000092 0.171266 0.000093 0.048950
# 5 0.001465 0.008023 0.002106 0.000093 0.020841 0.000001
# 6 -0.000001 0.000010 -0.000011 0.048950 0.000001 0.052212
#
#
# Mechanical properties :
#
#
# Convention : Reuss Voigt Hill
#
# Bulk Modulus (GPa) = 20.99970 56.54214 38.77092
# Shear Modulus (GPa) = 15.66361 41.46500 28.56431
#
# Velocity S-wave (km/s) = 2.59207 4.21736 3.50035
# Velocity P-wave (km/s) = 4.23864 6.92591 5.74170
#
# Compressibility (1/GPa) = 0.04761974
#
# Stress axis : x y z
#
# Youngs Moduli (GPa) = 183.42859 23.97017 162.62758
#
# Poissons Ratio (x) = 0.06106 0.12519
# Poissons Ratio (y) = 0.46724 -0.07599
# Poissons Ratio (z) = 0.14120 -0.01120
#
# Static dielectric constant tensor:
#      x y z
#    x 1.908110 -0.001030 0.095580 
#    y -0.001030 1.260600 -0.004690 
#    z 0.095580 -0.004690 1.939940 
# 
# From -- ./inp_files/245080.got.cif
#   From: 2010.05.17/outbox.cif.g08.bks.cpg/sg15_123_cif.got.tgz:245080.got - 2010.06.03 18:47:42.
