data_PCOD9302849
_publ_section_title
;
Structure prediction by ZEFSAII (Michael W. Deem and Ramdas Pophale) SiO2 
 PCOD9302849
Probable space group: C 2/C
;
_chemical_formula_sum "Si O2"
_cell_formula_units_Z 48
_cell_length_a 12.979533
_cell_length_b 15.562848
_cell_length_c 17.047053
_cell_angle_alpha 90.000000
_cell_angle_beta 148.145389
_cell_angle_gamma 90.000000
_cell_volume 1817.349908
_symmetry_space_group_name_H-M "C 2/C"
_symmetry_group_IT_number 15
_symmetry_cell_setting 'monoclinic'
loop_
_space_group_symop_operation_xyz
x,y,z
-x,y,1/2-z
-x,-y,-z
x,-y,1/2+z
1/2+x,1/2+y,z
1/2-x,1/2+y,1/2-z
1/2-x,1/2-y,-z
1/2+x,1/2-y,1/2+z
loop_
_atom_site_type_symbol
_atom_site_label
_atom_site_fract_x
_atom_site_fract_y
_atom_site_fract_z
Si Si1 0.052363 0.418199 0.440165
Si Si2 0.818397 0.297306 0.181985
Si Si3 0.500000 0.546500 0.250000
Si Si4 0.475534 0.441098 0.560861
Si Si5 0.300536 0.167495 0.199996
Si Si6 0.546326 0.181826 0.495186
Si Si7 0.000000 0.467791 0.750000
O O1 0.284085 0.411197 0.603722
O O2 0.956709 0.411227 0.465308
O O3 0.937352 0.334948 0.332051
O O4 0.015522 0.484051 0.344404
O O5 0.639000 0.238720 0.092480
O O6 0.000000 0.259191 0.250000
O O7 0.718122 0.380317 0.073385
O O8 0.497764 0.510979 0.338703
O O9 0.500000 0.500000 0.500000
O O10 0.648405 0.371770 0.664083
O O11 0.502730 0.173104 0.375969
O O12 0.318000 0.095828 0.144660
O O13 0.233077 0.259778 0.128887
#
# Coordination Sequence:
#
# PCOD9302849 Si02
#       7
#     8   8   4   8   8   8   4
#     4  12  23  44  68 111 144 192 246 308 377 454
#     4  11  22  40  67 100 147 188 234 308 380 440
#     4  12  22  38  71 107 142 194 248 304 384 458
#     4  11  23  42  67 102 153 193 245 311 378 452
#     4  11  25  48  73 107 147 200 252 317 377 453
#     4  11  25  43  73 110 145 194 250 313 374 458
#     4  12  28  52  75 103 156 204 248 318 390 452
#
# _framework density 26.412084
#
# number of rings (size 3 to 8) (size 9 to 14) (size 15 to 20)
#    0.000    0.667    5.833    2.000    1.167    2.000 
#    3.000    5.000    0.000    2.000    0.000    0.000 
#    0.000    0.000    0.000    0.000    0.000    0.000 
#
# Total GULP energy -133835.673368 kJ/mol
# GULP energy per Si atom -5576.486390 kJ/mol
# Density = 2.635197 g / cm^3
# Si number density = 26.412084 Si / 1000 Ang^3
#
#
#
# Elastic Constant Matrix: (Units=GPa)
#
#
# Indices 1 2 3 4 5 6 
#
# 1 99.0449 36.2634 58.9389 0.0008 -18.3849 0.0008
# 2 36.2634 117.7398 52.1681 0.0033 -21.6879 0.0016
# 3 58.9389 52.1681 148.4717 0.0041 -41.9718 0.0008
# 4 0.0008 0.0033 0.0041 23.9445 0.0020 8.1225
# 5 -18.3849 -21.6879 -41.9718 0.0020 45.7895 0.0003
# 6 0.0008 0.0016 0.0008 8.1225 0.0003 25.0151
#
#
#
# Elastic Compliance Matrix: (Units=1/GPa)
#
#
# Indices 1 2 3 4 5 6 
#
# 1 0.013661 -0.002119 -0.004605 0.000001 0.000260 0.000000
# 2 -0.002119 0.010534 -0.002281 -0.000001 0.002047 0.000000
# 3 -0.004605 -0.002281 0.011522 -0.000002 0.007632 0.000001
# 4 0.000001 -0.000001 -0.000002 0.046933 -0.000004 -0.015239
# 5 0.000260 0.002047 0.007632 -0.000004 0.029909 0.000001
# 6 0.000000 0.000000 0.000001 -0.015239 0.000001 0.044924
#
#
# Mechanical properties :
#
#
# Convention : Reuss Voigt Hill
#
# Bulk Modulus (GPa) = 56.47552 73.33302 64.90427
# Shear Modulus (GPa) = 27.56405 33.47557 30.51981
#
# Velocity S-wave (km/s) = 3.23401 3.56397 3.40299
# Velocity P-wave (km/s) = 5.94760 6.69037 6.32989
#
# Compressibility (1/GPa) = 0.01770679
#
# Stress axis : x y z
#
# Youngs Moduli (GPa) = 73.20208 94.93134 86.78774
#
# Poissons Ratio (x) = 0.20119 0.39963
# Poissons Ratio (y) = 0.15514 0.19798
# Poissons Ratio (z) = 0.33707 0.21656
#
# Static dielectric constant tensor:
#      x y z
#    x 2.172660 0.000000 -0.023990 
#    y 0.000000 2.159160 0.000000 
#    z -0.023990 0.000000 2.078040 
# 
# From -- ./inp_files/206537.got.cif
#   From: 2010.05.17/outbox.cif.g08.bks.cpg/sg15_104_cif.got.tgz:206537.got - 2010.06.03 18:47:42.
