data_PCOD9302268
_publ_section_title
;
Structure prediction by ZEFSAII (Michael W. Deem and Ramdas Pophale) SiO2 
 PCOD9302268
Probable space group: C 2/C
;
_chemical_formula_sum "Si O2"
_cell_formula_units_Z 60
_cell_length_a 23.373370
_cell_length_b 18.440351
_cell_length_c 8.987842
_cell_angle_alpha 90.000000
_cell_angle_beta 36.665342
_cell_angle_gamma 90.000000
_cell_volume 2313.247728
_symmetry_space_group_name_H-M "C 2/C"
_symmetry_group_IT_number 15
_symmetry_cell_setting 'monoclinic'
loop_
_space_group_symop_operation_xyz
x,y,z
-x,y,1/2-z
-x,-y,-z
x,-y,1/2+z
1/2+x,1/2+y,z
1/2-x,1/2+y,1/2-z
1/2-x,1/2-y,-z
1/2+x,1/2-y,1/2+z
loop_
_atom_site_type_symbol
_atom_site_label
_atom_site_fract_x
_atom_site_fract_y
_atom_site_fract_z
Si Si1 0.139280 0.737725 0.698090
Si Si2 0.598891 0.592789 0.240073
Si Si3 0.106652 0.368624 0.991368
Si Si4 0.110597 0.523573 0.046338
Si Si5 0.636486 0.744438 0.722911
Si Si6 0.389574 0.593867 0.626005
Si Si7 0.230039 0.498672 0.582393
Si Si8 0.000000 0.259934 0.750000
O O1 0.250000 0.750000 0.500000
O O2 0.104771 0.820392 0.743011
O O3 0.134385 0.684521 0.566077
O O4 0.069138 0.707709 0.975654
O O5 0.488114 0.574665 0.502169
O O6 0.614122 0.567626 0.036293
O O7 0.679668 0.551462 0.165543
O O8 0.157975 0.446867 0.876959
O O9 0.000000 0.395391 0.250000
O O10 0.103535 0.323053 0.848511
O O11 0.142037 0.513068 0.147050
O O12 0.000000 0.540537 0.250000
O O13 0.184594 0.564441 0.788532
O O14 0.750000 0.750000 0.500000
O O15 0.607297 0.681185 0.894866
O O16 0.584852 0.725706 0.675478
O O17 0.297724 0.573798 0.914946
#
# Coordination Sequence:
#
# PCOD9302268 Si02
#       8
#     8   8   8   8   8   8   8   4
#     4  12  24  44  71 104 147 185 234 290 359 436
#     4  11  23  44  71 100 138 189 230 290 358 421
#     4  11  21  44  68  92 139 186 220 287 368 420
#     4  11  26  46  73 100 135 186 237 304 359 420
#     4  12  24  44  71 104 147 185 234 290 359 436
#     4  11  23  44  71 100 138 189 230 290 358 421
#     4  12  24  48  70 102 138 184 254 288 358 434
#     4  12  26  42  68 118 142 182 242 294 348 436
#
# _framework density 25.937559
#
# number of rings (size 3 to 8) (size 9 to 14) (size 15 to 20)
#    0.000    0.533    5.333    3.200    0.000    1.067 
#    0.000    0.000    5.867    0.000    0.000    0.000 
#    0.000    0.000    0.000    0.000    0.000    0.000 
#
# Total GULP energy -167136.358353 kJ/mol
# GULP energy per Si atom -5571.211945 kJ/mol
# Density = 2.587852 g / cm^3
# Si number density = 25.937559 Si / 1000 Ang^3
#
#
#
# Elastic Constant Matrix: (Units=GPa)
#
#
# Indices 1 2 3 4 5 6 
#
# 1 144.5687 8.5309 49.3376 0.0000 -17.9102 0.0000
# 2 8.5309 100.2197 3.2459 0.0000 -0.6971 0.0000
# 3 49.3376 3.2459 136.4218 0.0000 -31.8193 0.0000
# 4 0.0000 0.0000 0.0000 24.4882 0.0000 -1.7360
# 5 -17.9102 -0.6971 -31.8193 0.0000 56.6769 0.0000
# 6 0.0000 0.0000 0.0000 -1.7360 0.0000 19.1297
#
#
#
# Elastic Compliance Matrix: (Units=1/GPa)
#
#
# Indices 1 2 3 4 5 6 
#
# 1 0.007978 -0.000587 -0.002629 0.000000 0.001038 0.000000
# 2 -0.000587 0.010029 -0.000047 0.000000 -0.000088 0.000000
# 3 -0.002629 -0.000047 0.009307 0.000000 0.004394 0.000000
# 4 0.000000 0.000000 0.000000 0.041100 0.000000 0.003730
# 5 0.001038 -0.000088 0.004394 0.000000 0.020437 0.000000
# 6 0.000000 0.000000 0.000000 0.003730 0.000000 0.052613
#
#
# Mechanical properties :
#
#
# Convention : Reuss Voigt Hill
#
# Bulk Modulus (GPa) = 48.10552 55.93768 52.02160
# Shear Modulus (GPa) = 32.27480 41.39866 36.83673
#
# Velocity S-wave (km/s) = 3.53133 3.99944 3.77265
# Velocity P-wave (km/s) = 5.93414 6.55290 6.25118
#
# Compressibility (1/GPa) = 0.02078763
#
# Stress axis : x y z
#
# Youngs Moduli (GPa) = 125.35164 99.71158 107.44649
#
# Poissons Ratio (x) = 0.05850 0.28249
# Poissons Ratio (y) = 0.07354 0.00506
# Poissons Ratio (z) = 0.32957 0.00469
#
# Static dielectric constant tensor:
#      x y z
#    x 2.085560 0.000000 -0.112360 
#    y 0.000000 2.241480 0.000000 
#    z -0.112360 0.000000 2.224760 
# 
# From -- ./inp_files/63502.got.cif
#   From: 2010.05.17/outbox.cif.g08.bks.cpg/sg15_32_cif.got.tgz:63502.got - 2010.06.03 18:47:42.
