data_PCOD9302416
_publ_section_title
;
Structure prediction by ZEFSAII (Michael W. Deem and Ramdas Pophale) SiO2 
 PCOD9302416
Probable space group: C 2/C
;
_chemical_formula_sum "Si O2"
_cell_formula_units_Z 64
_cell_length_a 20.178214
_cell_length_b 18.515129
_cell_length_c 20.077490
_cell_angle_alpha 90.000000
_cell_angle_beta 28.995771
_cell_angle_gamma 90.000000
_cell_volume 3636.070364
_symmetry_space_group_name_H-M "C 2/C"
_symmetry_group_IT_number 15
_symmetry_cell_setting 'monoclinic'
loop_
_space_group_symop_operation_xyz
x,y,z
-x,y,1/2-z
-x,-y,-z
x,-y,1/2+z
1/2+x,1/2+y,z
1/2-x,1/2+y,1/2-z
1/2-x,1/2-y,-z
1/2+x,1/2-y,1/2+z
loop_
_atom_site_type_symbol
_atom_site_label
_atom_site_fract_x
_atom_site_fract_y
_atom_site_fract_z
Si Si1 0.039674 0.917144 0.791981
Si Si2 0.612578 0.483819 0.344390
Si Si3 0.675282 0.165837 0.460059
Si Si4 0.787850 0.172358 0.569346
Si Si5 0.020734 0.311177 0.954723
Si Si6 0.709380 0.320491 0.273103
Si Si7 0.544775 0.934302 0.278152
Si Si8 0.399968 0.966374 0.644016
O O1 0.178988 0.871856 0.674307
O O2 0.000000 0.930627 0.750000
O O3 0.060627 0.987416 0.819161
O O4 0.923153 0.869525 0.929256
O O5 0.500000 0.500000 0.500000
O O6 0.655146 0.400053 0.302920
O O7 0.748213 0.527149 0.247682
O O8 0.700336 0.245899 0.466313
O O9 0.594715 0.175886 0.461182
O O10 0.580224 0.113309 0.585554
O O11 0.771736 0.177673 0.663429
O O12 0.662510 0.123159 0.657064
O O13 0.858082 0.304400 0.110408
O O14 0.096265 0.241036 0.858755
O O15 0.053611 0.384250 0.885841
O O16 0.500000 0.973708 0.250000
O O17 0.591101 0.986501 0.296879
O O18 0.500000 0.000000 0.500000
#
# Coordination Sequence:
#
# PCOD9302416 Si02
#       8
#     8   8   8   8   8   8   8   8
#     4  12  25  38  55  87 120 163 203 240 297 352
#     4  12  22  38  63  86 119 161 199 252 293 344
#     4  11  22  35  59  80 120 164 195 236 287 349
#     4  11  22  37  53  86 121 157 203 233 282 355
#     4  11  23  38  64  91 118 151 204 250 300 353
#     4  11  23  39  62  93 118 151 204 251 298 352
#     4  12  23  38  57  85 118 159 200 241 293 355
#     4  12  20  40  61  86 114 160 199 247 297 347
#
# _framework density 17.601419
#
# number of rings (size 3 to 8) (size 9 to 14) (size 15 to 20)
#    0.000    0.500    7.500    1.500    7.000    3.000 
#    0.000    0.000    0.000    0.750    0.000    1.750 
#    0.000    0.000    0.000    0.000    0.000    0.000 
#
# Total GULP energy -178761.031148 kJ/mol
# GULP energy per Si atom -5586.282223 kJ/mol
# Density = 1.756136 g / cm^3
# Si number density = 17.601419 Si / 1000 Ang^3
#
#
#
# Elastic Constant Matrix: (Units=GPa)
#
#
# Indices 1 2 3 4 5 6 
#
# 1 67.1435 30.8083 10.3238 0.0010 -1.9008 0.0000
# 2 30.8083 116.3328 47.3327 0.0026 -7.8290 -0.0005
# 3 10.3238 47.3327 152.9631 0.0061 -24.4684 -0.0010
# 4 0.0010 0.0026 0.0061 29.3135 -0.0008 -4.6708
# 5 -1.9008 -7.8290 -24.4684 -0.0008 12.8021 -0.0003
# 6 0.0000 -0.0005 -0.0010 -4.6708 -0.0003 6.4199
#
#
#
# Elastic Compliance Matrix: (Units=1/GPa)
#
#
# Indices 1 2 3 4 5 6 
#
# 1 0.016965 -0.004606 0.000335 0.000000 0.000342 -0.000001
# 2 -0.004606 0.011085 -0.003089 0.000000 0.000192 0.000000
# 3 0.000335 -0.003089 0.010337 -0.000001 0.017917 0.000001
# 4 0.000000 0.000000 -0.000001 0.038587 0.000001 0.028074
# 5 0.000342 0.000192 0.017917 0.000001 0.112526 0.000008
# 6 -0.000001 0.000000 0.000001 0.028074 0.000008 0.176191
#
#
# Mechanical properties :
#
#
# Convention : Reuss Voigt Hill
#
# Bulk Modulus (GPa) = 42.25128 57.04100 49.64614
# Shear Modulus (GPa) = 12.87664 26.23874 19.55769
#
# Velocity S-wave (km/s) = 2.70769 3.86517 3.33700
# Velocity P-wave (km/s) = 5.81653 7.23856 6.56616
#
# Compressibility (1/GPa) = 0.02366792
#
# Stress axis : x y z
#
# Youngs Moduli (GPa) = 58.94443 90.20800 96.74198
#
# Poissons Ratio (x) = 0.41551 -0.03242
# Poissons Ratio (y) = 0.27151 0.29880
# Poissons Ratio (z) = -0.01975 0.27862
#
# Static dielectric constant tensor:
#      x y z
#    x 1.615940 0.000000 0.002320 
#    y 0.000000 1.610530 0.000000 
#    z 0.002320 0.000000 1.596970 
# 
# From -- ./inp_files/211945.got.cif
#   From: 2010.05.17/outbox.cif.g08.bks.cpg/sg15_106_cif.got.tgz:211945.got - 2010.06.03 18:47:42.
