data_PCOD9302372
_publ_section_title
;
Structure prediction by ZEFSAII (Michael W. Deem and Ramdas Pophale) SiO2 
 PCOD9302372
Probable space group: C 2/C
;
_chemical_formula_sum "Si O2"
_cell_formula_units_Z 44
_cell_length_a 15.172877
_cell_length_b 11.041286
_cell_length_c 27.452820
_cell_angle_alpha 90.000000
_cell_angle_beta 156.531963
_cell_angle_gamma 90.000000
_cell_volume 1831.540897
_symmetry_space_group_name_H-M "C 2/C"
_symmetry_group_IT_number 15
_symmetry_cell_setting 'monoclinic'
loop_
_space_group_symop_operation_xyz
x,y,z
-x,y,1/2-z
-x,-y,-z
x,-y,1/2+z
1/2+x,1/2+y,z
1/2-x,1/2+y,1/2-z
1/2-x,1/2-y,-z
1/2+x,1/2-y,1/2+z
loop_
_atom_site_type_symbol
_atom_site_label
_atom_site_fract_x
_atom_site_fract_y
_atom_site_fract_z
Si Si1 0.704618 0.116600 0.415234
Si Si2 0.971677 0.335026 0.510460
Si Si3 0.834157 0.005730 0.583340
Si Si4 0.207047 0.206943 0.780096
Si Si5 0.500000 0.935713 0.250000
Si Si6 0.090504 0.228113 0.221381
O O1 0.884814 0.220584 0.498814
O O2 0.740244 0.046964 0.483569
O O3 0.471230 0.187861 0.298219
O O4 0.698281 0.022294 0.367802
O O5 0.838355 0.449834 0.463493
O O6 0.887415 0.305735 0.413906
O O7 0.227705 0.339803 0.652798
O O8 0.058371 0.085296 0.702971
O O9 0.889563 0.865021 0.613858
O O10 0.315745 0.239380 0.783969
O O11 0.543875 0.850582 0.226567
#
# Coordination Sequence:
#
# PCOD9302372 Si02
#       6
#     8   8   8   8   4   8
#     4  11  21  47  78 103 143 190 249 306 356 436
#     4  11  23  48  79 105 143 200 243 295 369 445
#     4  11  24  45  74 108 151 184 241 306 362 441
#     4  11  23  45  79 107 134 202 245 286 366 447
#     4  12  30  46  66 110 150 184 250 316 362 420
#     4  12  29  46  68 114 148 186 248 302 371 431
#
# _framework density 24.023485999999998
#
# number of rings (size 3 to 8) (size 9 to 14) (size 15 to 20)
#    0.000    0.727    5.455    2.727    7.636    2.182 
#    0.000    0.000    0.000    0.000    0.000    0.000 
#    0.000    0.000    0.000    0.000    0.000    0.000 
#
# Total GULP energy -123364.926646 kJ/mol
# GULP energy per Si atom -5607.496666 kJ/mol
# Density = 2.396881 g / cm^3
# Si number density = 24.023486 Si / 1000 Ang^3
#
#
#
# Elastic Constant Matrix: (Units=GPa)
#
#
# Indices 1 2 3 4 5 6 
#
# 1 53.5274 36.1292 20.1919 -0.0015 -26.3363 -0.0004
# 2 36.1292 100.3286 33.6510 -0.0010 0.5290 -0.0004
# 3 20.1919 33.6510 98.3327 0.0002 -30.6241 -0.0018
# 4 -0.0015 -0.0010 0.0002 32.4422 -0.0007 -23.1651
# 5 -26.3363 0.5290 -30.6241 -0.0007 42.4379 -0.0002
# 6 -0.0004 -0.0004 -0.0018 -23.1651 -0.0002 19.0047
#
#
#
# Elastic Compliance Matrix: (Units=1/GPa)
#
#
# Indices 1 2 3 4 5 6 
#
# 1 0.045450 -0.019182 0.007856 0.000026 0.034114 0.000033
# 2 -0.019182 0.019842 -0.008559 -0.000010 -0.018328 -0.000013
# 3 0.007856 -0.008559 0.016816 0.000012 0.017117 0.000017
# 4 0.000026 -0.000010 0.000012 0.237762 0.000030 0.289811
# 5 0.034114 -0.018328 0.017117 0.000030 0.057315 0.000040
# 6 0.000033 -0.000013 0.000017 0.289811 0.000040 0.405874
#
#
# Mechanical properties :
#
#
# Convention : Reuss Voigt Hill
#
# Bulk Modulus (GPa) = 23.61967 48.01476 35.81722
# Shear Modulus (GPa) = 5.97412 29.59139 17.78275
#
# Velocity S-wave (km/s) = 1.57866 3.51346 2.72366
# Velocity P-wave (km/s) = 3.62990 6.04063 4.98324
#
# Compressibility (1/GPa) = 0.04233759
#
# Stress axis : x y z
#
# Youngs Moduli (GPa) = 22.00212 50.39736 59.46576
#
# Poissons Ratio (x) = 0.96671 -0.46713
# Poissons Ratio (y) = 0.42204 0.50899
# Poissons Ratio (z) = -0.17284 0.43137
#
# Static dielectric constant tensor:
#      x y z
#    x 1.883380 0.000000 -0.002610 
#    y 0.000000 1.931200 0.000000 
#    z -0.002610 0.000000 1.893000 
# 
# From -- ./inp_files/151772.got.cif
#   From: 2010.05.17/outbox.cif.g08.bks.cpg/sg15_76_cif.got.tgz:151772.got - 2010.06.03 18:47:42.
