data_PCOD9302350
_publ_section_title
;
Structure prediction by ZEFSAII (Michael W. Deem and Ramdas Pophale) SiO2 
 PCOD9302350
Probable space group: C 2/C
;
_chemical_formula_sum "Si O2"
_cell_formula_units_Z 40
_cell_length_a 17.237440
_cell_length_b 24.054513
_cell_length_c 9.517791
_cell_angle_alpha 90.000000
_cell_angle_beta 28.477283
_cell_angle_gamma 90.000000
_cell_volume 1881.703158
_symmetry_space_group_name_H-M "C 2/C"
_symmetry_group_IT_number 15
_symmetry_cell_setting 'monoclinic'
loop_
_space_group_symop_operation_xyz
x,y,z
-x,y,1/2-z
-x,-y,-z
x,-y,1/2+z
1/2+x,1/2+y,z
1/2-x,1/2+y,1/2-z
1/2-x,1/2-y,-z
1/2+x,1/2-y,1/2+z
loop_
_atom_site_type_symbol
_atom_site_label
_atom_site_fract_x
_atom_site_fract_y
_atom_site_fract_z
Si Si1 0.689073 0.394179 0.397605
Si Si2 0.264319 0.712520 0.836533
Si Si3 0.814130 0.619551 0.004407
Si Si4 0.620010 0.482850 0.934045
Si Si5 0.623115 0.727064 0.311846
O O1 0.734106 0.354481 0.193709
O O2 0.795973 0.380778 0.364418
O O3 0.704749 0.459458 0.342504
O O4 0.500000 0.385991 0.750000
O O5 0.452658 0.725704 0.504919
O O6 0.136869 0.734950 0.926559
O O7 0.250000 0.750000 0.000000
O O8 0.000000 0.630539 0.750000
O O9 0.746743 0.562660 0.178402
O O10 0.688391 0.666923 0.254346
O O11 0.500000 0.463069 0.250000
O O12 0.500000 0.500000 0.000000
O O13 0.750000 0.750000 0.000000
#
# Coordination Sequence:
#
# PCOD9302350 Si02
#       5
#     8   8   8   8   8
#     4  11  21  46  71  94 144 190 222 277 357 419
#     4  12  25  42  68 102 134 174 228 288 339 403
#     4  12  25  43  72 105 136 186 236 286 346 414
#     4  11  22  43  74 102 136 188 233 282 348 414
#     4  12  23  44  69  94 134 184 227 271 347 419
#
# _framework density 21.257339000000002
#
# number of rings (size 3 to 8) (size 9 to 14) (size 15 to 20)
#    0.000    0.400    8.000    2.400    0.000    4.000 
#    0.000    2.000    0.000    0.000    0.000    0.000 
#    0.000    0.000    0.000    0.000    0.000    0.000 
#
# Total GULP energy -111597.067121 kJ/mol
# GULP energy per Si atom -5579.853356 kJ/mol
# Density = 2.120896 g / cm^3
# Si number density = 21.257339 Si / 1000 Ang^3
#
#
#
# Elastic Constant Matrix: (Units=GPa)
#
#
# Indices 1 2 3 4 5 6 
#
# 1 83.6559 -14.6168 6.3294 0.0028 -6.7408 -0.0012
# 2 -14.6168 117.6242 18.8337 0.0023 14.4941 -0.0009
# 3 6.3294 18.8337 57.7720 0.0047 10.6939 -0.0019
# 4 0.0028 0.0023 0.0047 35.9701 -0.0026 12.1781
# 5 -6.7408 14.4941 10.6939 -0.0026 39.2109 0.0011
# 6 -0.0012 -0.0009 -0.0019 12.1781 0.0011 32.8823
#
#
#
# Elastic Compliance Matrix: (Units=1/GPa)
#
#
# Indices 1 2 3 4 5 6 
#
# 1 0.012598 0.001669 -0.002329 -0.000001 0.002184 0.000001
# 2 0.001669 0.009461 -0.002815 -0.000001 -0.002442 0.000001
# 3 -0.002329 -0.002815 0.019340 -0.000003 -0.004634 0.000002
# 4 -0.000001 -0.000001 -0.000003 0.031786 0.000003 -0.011772
# 5 0.002184 -0.002442 -0.004634 0.000003 0.028045 -0.000003
# 6 0.000001 0.000001 0.000002 -0.011772 -0.000003 0.034771
#
#
# Mechanical properties :
#
#
# Convention : Reuss Voigt Hill
#
# Bulk Modulus (GPa) = 29.02779 31.12718 30.07748
# Shear Modulus (GPa) = 32.37644 38.17973 35.27809
#
# Velocity S-wave (km/s) = 3.90689 4.24261 4.07820
# Velocity P-wave (km/s) = 5.83410 6.21888 6.02956
#
# Compressibility (1/GPa) = 0.03444975
#
# Stress axis : x y z
#
# Youngs Moduli (GPa) = 79.38071 105.69957 51.70614
#
# Poissons Ratio (x) = -0.17644 0.12040
# Poissons Ratio (y) = -0.13250 0.14555
# Poissons Ratio (z) = 0.18484 0.29754
#
# Static dielectric constant tensor:
#      x y z
#    x 1.888490 -0.000010 0.064130 
#    y -0.000010 1.892800 -0.000010 
#    z 0.064130 -0.000010 1.835220 
# 
# From -- ./inp_files/51657.got.cif
#   From: 2010.05.17/outbox.cif.g08.bks.cpg/sg15_26_cif.got.tgz:51657.got - 2010.06.03 18:47:42.
