data_PCOD9302640
_publ_section_title
;
Structure prediction by ZEFSAII (Michael W. Deem and Ramdas Pophale) SiO2 
 PCOD9302640
Probable space group: C 2/C
;
_chemical_formula_sum "Si O2"
_cell_formula_units_Z 60
_cell_length_a 22.230648
_cell_length_b 14.913704
_cell_length_c 21.727109
_cell_angle_alpha 90.000000
_cell_angle_beta 154.059836
_cell_angle_gamma 90.000000
_cell_volume 3151.014477
_symmetry_space_group_name_H-M "C 2/C"
_symmetry_group_IT_number 15
_symmetry_cell_setting 'monoclinic'
loop_
_space_group_symop_operation_xyz
x,y,z
-x,y,1/2-z
-x,-y,-z
x,-y,1/2+z
1/2+x,1/2+y,z
1/2-x,1/2+y,1/2-z
1/2-x,1/2-y,-z
1/2+x,1/2-y,1/2+z
loop_
_atom_site_type_symbol
_atom_site_label
_atom_site_fract_x
_atom_site_fract_y
_atom_site_fract_z
Si Si1 0.306165 0.201391 0.784713
Si Si2 0.830423 0.897751 0.841736
Si Si3 0.933908 0.405182 0.945210
Si Si4 0.179873 0.373642 0.524774
Si Si5 0.722192 0.331945 0.068056
Si Si6 0.471930 0.459255 0.792876
Si Si7 0.407668 0.582632 0.842765
Si Si8 0.000000 0.619982 0.750000
O O1 0.332845 0.307500 0.803117
O O2 0.262735 0.163750 0.677795
O O3 0.193704 0.162169 0.729198
O O4 0.449762 0.167530 0.942664
O O5 0.669262 0.897308 0.706884
O O6 0.862179 0.992329 0.838236
O O7 0.940736 0.889635 0.996003
O O8 0.860889 0.402725 0.944416
O O9 0.000000 0.500000 0.000000
O O10 0.157548 0.266571 0.497717
O O11 0.341258 0.392928 0.666461
O O12 0.083200 0.421417 0.384927
O O13 0.864750 0.337412 0.160242
O O14 0.605859 0.406435 0.943786
O O15 0.500000 0.490055 0.750000
O O16 0.422455 0.542897 0.788501
#
# Coordination Sequence:
#
# PCOD9302640 Si02
#       8
#     8   8   8   8   8   8   8   4
#     4  12  23  40  65  93 127 170 208 264 325 372
#     4  11  22  39  62  90 129 161 210 257 324 377
#     4  12  23  38  58  86 124 165 206 265 313 363
#     4  12  24  38  54  86 126 167 211 254 301 383
#     4  12  24  36  59  89 126 168 210 253 303 383
#     4  12  25  41  61  85 124 173 210 256 318 376
#     4  11  24  41  63  94 127 164 213 267 313 389
#     4  12  24  36  52  84 124 166 210 244 300 374
#
# _framework density 19.041485999999999
#
# number of rings (size 3 to 8) (size 9 to 14) (size 15 to 20)
#    0.000    0.267    6.667    3.600    3.733    0.000 
#    0.000    0.000    0.000    0.800    0.000    0.000 
#    0.000    0.000    0.000    0.000    0.000    0.000 
#
# Total GULP energy -167129.234901 kJ/mol
# GULP energy per Si atom -5570.974497 kJ/mol
# Density = 1.899815 g / cm^3
# Si number density = 19.041486 Si / 1000 Ang^3
#
#
#
# Elastic Constant Matrix: (Units=GPa)
#
#
# Indices 1 2 3 4 5 6 
#
# 1 66.4071 11.6844 15.6261 0.0000 -4.1376 -0.0002
# 2 11.6844 49.8215 19.3144 0.0002 -4.4270 0.0002
# 3 15.6261 19.3144 128.2664 0.0000 3.8389 -0.0001
# 4 0.0000 0.0002 0.0000 31.1746 0.0002 2.8736
# 5 -4.1376 -4.4270 3.8389 0.0002 25.2576 0.0002
# 6 -0.0002 0.0002 -0.0001 2.8736 0.0002 10.6621
#
#
#
# Elastic Compliance Matrix: (Units=1/GPa)
#
#
# Indices 1 2 3 4 5 6 
#
# 1 0.016098 -0.002950 -0.001588 0.000000 0.002361 0.000000
# 2 -0.002950 0.022319 -0.003118 0.000000 0.003903 -0.000001
# 3 -0.001588 -0.003118 0.008522 0.000000 -0.002102 0.000000
# 4 0.000000 0.000000 0.000000 0.032895 0.000000 -0.008866
# 5 0.002361 0.003903 -0.002102 0.000000 0.040982 -0.000001
# 6 0.000000 -0.000001 0.000000 -0.008866 -0.000001 0.096180
#
#
# Mechanical properties :
#
#
# Convention : Reuss Voigt Hill
#
# Bulk Modulus (GPa) = 31.61791 37.52722 34.57256
# Shear Modulus (GPa) = 20.58876 26.61019 23.59947
#
# Velocity S-wave (km/s) = 3.29182 3.74235 3.52429
# Velocity P-wave (km/s) = 5.57574 6.19875 5.89548
#
# Compressibility (1/GPa) = 0.03162764
#
# Stress axis : x y z
#
# Youngs Moduli (GPa) = 62.11787 44.80455 117.34142
#
# Poissons Ratio (x) = 0.13218 0.18630
# Poissons Ratio (y) = 0.18326 0.36590
# Poissons Ratio (z) = 0.09862 0.13971
#
# Static dielectric constant tensor:
#      x y z
#    x 1.705060 0.000000 0.035150 
#    y 0.000000 1.711280 0.000000 
#    z 0.035150 0.000000 1.751600 
# 
# From -- ./inp_files/253046.got.cif
#   From: 2010.05.17/outbox.cif.g08.bks.cpg/sg15_127_cif.got.tgz:253046.got - 2010.06.03 18:47:42.
