data_PCOD9302058
_publ_section_title
;
Structure prediction by ZEFSAII (Michael W. Deem and Ramdas Pophale) SiO2 
 PCOD9302058
Probable space group: C 2/C
;
_chemical_formula_sum "Si O2"
_cell_formula_units_Z 60
_cell_length_a 12.406365
_cell_length_b 19.054776
_cell_length_c 20.707148
_cell_angle_alpha 90.000000
_cell_angle_beta 36.721399
_cell_angle_gamma 90.000000
_cell_volume 2926.948482
_symmetry_space_group_name_H-M "C 2/C"
_symmetry_group_IT_number 15
_symmetry_cell_setting 'monoclinic'
loop_
_space_group_symop_operation_xyz
x,y,z
-x,y,1/2-z
-x,-y,-z
x,-y,1/2+z
1/2+x,1/2+y,z
1/2-x,1/2+y,1/2-z
1/2-x,1/2-y,-z
1/2+x,1/2-y,1/2+z
loop_
_atom_site_type_symbol
_atom_site_label
_atom_site_fract_x
_atom_site_fract_y
_atom_site_fract_z
Si Si1 0.683869 0.539368 0.486650
Si Si2 0.229030 0.552005 0.431770
Si Si3 0.500000 0.665450 0.250000
Si Si4 0.821148 0.445664 0.156588
Si Si5 0.727846 0.320244 0.763808
Si Si6 0.706908 0.475131 0.830633
Si Si7 0.699790 0.305514 0.179723
Si Si8 0.846274 0.322772 0.971425
O O1 0.735074 0.484751 0.517641
O O2 0.470908 0.524208 0.582183
O O3 0.768734 0.529684 0.374901
O O4 0.745190 0.614890 0.482847
O O5 0.354744 0.617146 0.356454
O O6 0.261972 0.497184 0.357490
O O7 0.019752 0.571425 0.535444
O O8 0.386404 0.699527 0.245569
O O9 0.834094 0.488422 0.216927
O O10 0.702614 0.375826 0.221385
O O11 0.671557 0.396266 0.820027
O O12 0.715864 0.259626 0.823197
O O13 0.941264 0.324879 0.645043
O O14 0.500000 0.288114 0.250000
O O15 0.812247 0.328336 0.063543
O O16 0.750000 0.250000 0.000000
#
# Coordination Sequence:
#
# PCOD9302058 Si02
#       8
#     8   8   4   8   8   8   8   8
#     4  11  23  41  69 102 139 178 223 294 345 419
#     4  11  21  41  69  96 128 172 234 280 343 408
#     4  12  24  46  68  94 132 196 234 278 342 428
#     4  11  23  40  67 102 132 171 226 290 338 416
#     4  12  26  45  67 102 140 188 233 284 351 422
#     4  11  24  41  67 102 142 179 227 282 353 411
#     4  12  25  43  69 103 136 174 231 292 352 410
#     4  12  24  43  70 103 140 181 228 289 360 413
#
# _framework density 20.499165999999999
#
# number of rings (size 3 to 8) (size 9 to 14) (size 15 to 20)
#    0.000    0.533    5.333    3.200    0.933    1.600 
#    0.000    4.000    0.000    0.000    0.000    0.000 
#    0.000    0.000    0.000    0.000    0.000    0.000 
#
# Total GULP energy -167621.125365 kJ/mol
# GULP energy per Si atom -5587.370845 kJ/mol
# Density = 2.045251 g / cm^3
# Si number density = 20.499166 Si / 1000 Ang^3
#
#
#
# Elastic Constant Matrix: (Units=GPa)
#
#
# Indices 1 2 3 4 5 6 
#
# 1 123.4940 69.1400 43.3268 0.0041 21.8858 -0.0066
# 2 69.1400 86.1873 16.7946 0.0033 8.2154 -0.0121
# 3 43.3268 16.7946 77.8169 -0.0012 12.5052 -0.0140
# 4 0.0041 0.0033 -0.0012 10.5899 -0.0014 28.8057
# 5 21.8858 8.2154 12.5052 -0.0014 43.1096 0.0054
# 6 -0.0066 -0.0121 -0.0140 28.8057 0.0054 -28.4007
#
#
#
# Elastic Compliance Matrix: (Units=1/GPa)
#
#
# Indices 1 2 3 4 5 6 
#
# 1 0.018818 -0.013290 -0.006798 -0.000004 -0.005049 0.000000
# 2 -0.013290 0.021607 0.002427 0.000005 0.001925 -0.000002
# 3 -0.006798 0.002427 0.016396 0.000007 -0.001767 -0.000001
# 4 -0.000004 0.000005 0.000007 0.025122 -0.000003 0.025480
# 5 -0.005049 0.001925 -0.001767 -0.000003 0.025906 0.000003
# 6 0.000000 -0.000002 -0.000001 0.025480 0.000003 -0.009367
#
#
# Mechanical properties :
#
#
# Convention : Reuss Voigt Hill
#
# Bulk Modulus (GPa) = 46.51308 60.66902 53.59105
# Shear Modulus (GPa) = 35.46868 15.60888 25.53878
#
# Velocity S-wave (km/s) = 4.16414 2.76241 3.53348
# Velocity P-wave (km/s) = 6.77197 6.31147 6.54577
#
# Compressibility (1/GPa) = 0.02149933
#
# Stress axis : x y z
#
# Youngs Moduli (GPa) = 53.14112 46.28025 60.99118
#
# Poissons Ratio (x) = 0.61506 0.41460
# Poissons Ratio (y) = 0.70624 -0.14801
# Poissons Ratio (z) = 0.36124 -0.11231
#
# Static dielectric constant tensor:
#      x y z
#    x 1.780590 0.000000 0.011040 
#    y 0.000000 1.741170 0.000000 
#    z 0.011040 0.000000 1.753930 
# 
# From -- ./inp_files/239947.got.cif
#   From: 2010.05.17/outbox.cif.g08.bks.cpg/sg15_120_cif.got.tgz:239947.got - 2010.06.03 18:47:42.
