data_PCOD9302603
_publ_section_title
;
Structure prediction by ZEFSAII (Michael W. Deem and Ramdas Pophale) SiO2 
 PCOD9302603
Probable space group: C 2/C
;
_chemical_formula_sum "Si O2"
_cell_formula_units_Z 56
_cell_length_a 18.929357
_cell_length_b 13.757347
_cell_length_c 9.444376
_cell_angle_alpha 90.000000
_cell_angle_beta 97.200546
_cell_angle_gamma 90.000000
_cell_volume 2440.086289
_symmetry_space_group_name_H-M "C 2/C"
_symmetry_group_IT_number 15
_symmetry_cell_setting 'monoclinic'
loop_
_space_group_symop_operation_xyz
x,y,z
-x,y,1/2-z
-x,-y,-z
x,-y,1/2+z
1/2+x,1/2+y,z
1/2-x,1/2+y,1/2-z
1/2-x,1/2-y,-z
1/2+x,1/2-y,1/2+z
loop_
_atom_site_type_symbol
_atom_site_label
_atom_site_fract_x
_atom_site_fract_y
_atom_site_fract_z
Si Si1 0.000000 0.715601 0.750000
Si Si2 0.805782 0.508503 0.371898
Si Si3 0.965858 0.763281 0.051021
Si Si4 0.315781 0.215353 0.921526
Si Si5 0.572844 0.525502 0.939299
Si Si6 0.000000 0.610911 0.250000
Si Si7 0.657236 0.589189 0.228109
Si Si8 0.900320 0.460520 0.154300
O O1 0.933984 0.641675 0.707275
O O2 0.011810 0.774807 0.608220
O O3 0.796370 0.392132 0.368227
O O4 0.733244 0.555249 0.303717
O O5 0.869083 0.522153 0.277149
O O6 0.836821 0.545543 0.527341
O O7 0.023226 0.694492 0.141230
O O8 0.889437 0.708654 0.027654
O O9 0.945318 0.865367 0.117223
O O10 0.332904 0.297086 0.807485
O O11 0.250000 0.250000 0.000000
O O12 0.634198 0.539848 0.073540
O O13 0.500000 0.500000 0.000000
O O14 0.599781 0.449849 0.828369
O O15 0.036088 0.533524 0.366990
#
# Coordination Sequence:
#
# PCOD9302603 Si02
#       8
#     4   8   8   8   8   4   8   8
#     4  11  22  42  63 108 138 184 229 286 344 435
#     4  12  22  43  67  98 136 183 220 282 359 418
#     4  11  24  41  70  96 139 178 232 283 355 416
#     4  11  23  45  70  96 134 184 227 285 356 421
#     4  11  26  46  71  97 137 184 236 304 355 410
#     4  11  22  40  63 108 134 178 233 282 348 437
#     4  11  26  46  70 104 138 182 244 293 351 435
#     4  11  22  38  69 100 141 175 222 285 353 423
#
# _framework density 22.950006999999999
#
# number of rings (size 3 to 8) (size 9 to 14) (size 15 to 20)
#    0.000    0.857    2.857    4.714    6.000    2.286 
#    0.000    2.857    0.000    0.000    0.000    0.000 
#    0.000    0.000    0.000    0.000    0.000    0.000 
#
# Total GULP energy -156209.349396 kJ/mol
# GULP energy per Si atom -5578.905336 kJ/mol
# Density = 2.289777 g / cm^3
# Si number density = 22.950007 Si / 1000 Ang^3
#
#
#
# Elastic Constant Matrix: (Units=GPa)
#
#
# Indices 1 2 3 4 5 6 
#
# 1 93.0341 43.5234 25.6829 0.0000 12.9005 0.0000
# 2 43.5234 124.7855 40.5484 0.0000 12.4905 0.0000
# 3 25.6829 40.5484 90.8272 0.0000 7.8495 0.0000
# 4 0.0000 0.0000 0.0000 34.1679 0.0000 9.5487
# 5 12.9005 12.4905 7.8495 0.0000 49.3819 0.0000
# 6 0.0000 0.0000 0.0000 9.5487 0.0000 27.5098
#
#
#
# Elastic Compliance Matrix: (Units=1/GPa)
#
#
# Indices 1 2 3 4 5 6 
#
# 1 0.013367 -0.003829 -0.001878 0.000000 -0.002225 0.000000
# 2 -0.003829 0.010619 -0.003561 0.000000 -0.001119 0.000000
# 3 -0.001878 -0.003561 0.013192 0.000000 -0.000706 0.000000
# 4 0.000000 0.000000 0.000000 0.032411 0.000000 -0.011250
# 5 -0.002225 -0.001119 -0.000706 0.000000 0.021227 0.000000
# 6 0.000000 0.000000 0.000000 -0.011250 0.000000 0.040256
#
#
# Mechanical properties :
#
#
# Convention : Reuss Voigt Hill
#
# Bulk Modulus (GPa) = 53.64552 58.68401 56.16476
# Shear Modulus (GPa) = 32.08811 35.47139 33.77975
#
# Velocity S-wave (km/s) = 3.74327 3.93567 3.84068
# Velocity P-wave (km/s) = 6.48911 6.80283 6.64782
#
# Compressibility (1/GPa) = 0.01864089
#
# Stress axis : x y z
#
# Youngs Moduli (GPa) = 74.81042 94.17511 75.80560
#
# Poissons Ratio (x) = 0.36063 0.14236
# Poissons Ratio (y) = 0.28647 0.26994
# Poissons Ratio (z) = 0.14049 0.33535
#
# Static dielectric constant tensor:
#      x y z
#    x 2.188930 0.000000 -0.045820 
#    y 0.000000 1.884970 0.000000 
#    z -0.045820 0.000000 1.993150 
# 
# From -- ./inp_files/55687.got.cif
#   From: 2010.05.17/outbox.cif.g08.bks.cpg/sg15_28_cif.got.tgz:55687.got - 2010.06.03 18:47:42.
