data_PCOD9302325
_publ_section_title
;
Structure prediction by ZEFSAII (Michael W. Deem and Ramdas Pophale) SiO2 
 PCOD9302325
Probable space group: C 2/C
;
_chemical_formula_sum "Si O2"
_cell_formula_units_Z 28
_cell_length_a 7.521973
_cell_length_b 22.249805
_cell_length_c 10.576776
_cell_angle_alpha 90.000000
_cell_angle_beta 44.557618
_cell_angle_gamma 90.000000
_cell_volume 1241.987047
_symmetry_space_group_name_H-M "C 2/C"
_symmetry_group_IT_number 15
_symmetry_cell_setting 'monoclinic'
loop_
_space_group_symop_operation_xyz
x,y,z
-x,y,1/2-z
-x,-y,-z
x,-y,1/2+z
1/2+x,1/2+y,z
1/2-x,1/2+y,1/2-z
1/2-x,1/2-y,-z
1/2+x,1/2-y,1/2+z
loop_
_atom_site_type_symbol
_atom_site_label
_atom_site_fract_x
_atom_site_fract_y
_atom_site_fract_z
Si Si1 0.000000 0.880494 0.750000
Si Si2 0.710915 0.698263 0.361423
Si Si3 0.295004 0.172307 0.738739
Si Si4 0.538951 0.050378 0.584899
O O1 0.839196 0.836757 0.743068
O O2 0.181548 0.921832 0.574050
O O3 0.666629 0.769585 0.367329
O O4 0.491548 0.675769 0.565992
O O5 0.000000 0.687668 0.250000
O O6 0.500000 0.178465 0.750000
O O7 0.353540 0.106987 0.654100
O O8 0.500000 0.030224 0.750000
O O9 0.500000 0.000000 0.500000
#
# Coordination Sequence:
#
# PCOD9302325 Si02
#       4
#     4   8   8   8
#     4  12  24  50  78 108 164 200 254 334 398 458
#     4  12  24  42  77 122 155 198 258 323 400 473
#     4  11  21  45  74 110 158 205 249 326 399 459
#     4  11  26  50  79 108 151 217 267 318 389 467
#
# _framework density 22.544516999999999
#
# number of rings (size 3 to 8) (size 9 to 14) (size 15 to 20)
#    0.000    0.571    7.143    3.429    0.000    2.286 
#    7.714    0.000    0.000    0.000    0.000    0.000 
#    0.000    0.000    0.000    0.000    0.000    0.000 
#
# Total GULP energy -78433.562833 kJ/mol
# GULP energy per Si atom -5602.397345 kJ/mol
# Density = 2.249320 g / cm^3
# Si number density = 22.544517 Si / 1000 Ang^3
#
#
#
# Elastic Constant Matrix: (Units=GPa)
#
#
# Indices 1 2 3 4 5 6 
#
# 1 145.0372 93.9988 64.0528 0.0000 -14.5080 0.0000
# 2 93.9988 147.6020 80.6754 0.0000 3.2386 0.0000
# 3 64.0528 80.6754 172.8942 0.0000 -11.8213 0.0000
# 4 0.0000 0.0000 0.0000 41.6423 0.0000 18.4948
# 5 -14.5080 3.2386 -11.8213 0.0000 41.5383 0.0000
# 6 0.0000 0.0000 0.0000 18.4948 0.0000 7.5761
#
#
#
# Elastic Compliance Matrix: (Units=1/GPa)
#
#
# Indices 1 2 3 4 5 6 
#
# 1 0.012799 -0.007850 -0.000746 0.000000 0.004870 0.000000
# 2 -0.007850 0.014068 -0.003996 0.000000 -0.004976 0.000000
# 3 -0.000746 -0.003996 0.008086 0.000000 0.002352 0.000000
# 4 0.000000 0.000000 0.000000 -0.285132 0.000000 0.696065
# 5 0.004870 -0.004976 0.002352 0.000000 0.026832 0.000000
# 6 0.000000 0.000000 0.000000 0.696065 0.000000 -1.567239
#
#
# Mechanical properties :
#
#
# Convention : Reuss Voigt Hill
#
# Bulk Modulus (GPa) = 102.37231 104.77638 103.57435
# Shear Modulus (GPa) = -2.83745 33.27177 15.21716
#
# Velocity S-wave (km/s) = -1.12309 3.84581 2.60086
# Velocity P-wave (km/s) = 6.62010 8.14227 7.42032
#
# Compressibility (1/GPa) = 0.00976827
#
# Stress axis : x y z
#
# Youngs Moduli (GPa) = 78.13127 71.08509 123.67631
#
# Poissons Ratio (x) = 0.55803 0.09222
# Poissons Ratio (y) = 0.61335 0.49423
# Poissons Ratio (z) = 0.05826 0.28406
#
# Static dielectric constant tensor:
#      x y z
#    x 1.847830 0.000000 0.054900 
#    y 0.000000 1.809420 0.000000 
#    z 0.054900 0.000000 1.878980 
# 
# From -- ./inp_files/77501.got.cif
#   From: 2010.05.17/outbox.cif.g08.bks.cpg/sg15_39_cif.got.tgz:77501.got - 2010.06.03 18:47:42.
