data_PCOD9302983
_publ_section_title
;
Structure prediction by ZEFSAII (Michael W. Deem and Ramdas Pophale) SiO2 
 PCOD9302983
Probable space group: C 2/C
;
_chemical_formula_sum "Si O2"
_cell_formula_units_Z 48
_cell_length_a 10.623396
_cell_length_b 17.203933
_cell_length_c 25.207234
_cell_angle_alpha 90.000000
_cell_angle_beta 147.289522
_cell_angle_gamma 90.000000
_cell_volume 2489.585168
_symmetry_space_group_name_H-M "C 2/C"
_symmetry_group_IT_number 15
_symmetry_cell_setting 'monoclinic'
loop_
_space_group_symop_operation_xyz
x,y,z
-x,y,1/2-z
-x,-y,-z
x,-y,1/2+z
1/2+x,1/2+y,z
1/2-x,1/2+y,1/2-z
1/2-x,1/2-y,-z
1/2+x,1/2-y,1/2+z
loop_
_atom_site_type_symbol
_atom_site_label
_atom_site_fract_x
_atom_site_fract_y
_atom_site_fract_z
Si Si1 0.592804 0.103288 0.724360
Si Si2 0.754592 0.663239 0.062597
Si Si3 0.299098 0.512826 0.973384
Si Si4 0.886820 0.962273 0.817441
Si Si5 0.641366 0.257071 0.137496
Si Si6 0.000000 0.871779 0.750000
Si Si7 0.000000 0.376570 0.750000
O O1 0.500000 0.080535 0.750000
O O2 0.682105 0.190844 0.764678
O O3 0.387997 0.075272 0.613144
O O4 0.814594 0.052119 0.786523
O O5 0.794766 0.575462 0.055377
O O6 0.814447 0.665522 0.146129
O O7 0.940497 0.720457 0.102218
O O8 0.495200 0.689379 0.953456
O O9 0.500000 0.500000 0.000000
O O10 0.408540 0.540575 0.067040
O O11 0.662283 0.923756 0.766587
O O12 0.944729 0.922206 0.782513
O O13 0.783659 0.186134 0.163129
#
# Coordination Sequence:
#
# PCOD9302983 Si02
#       7
#     8   8   8   8   8   4   4
#     4  12  20  38  69  98 123 170 234 275 322 402
#     4  11  22  41  66  95 132 178 227 272 346 400
#     4  12  20  37  70 103 121 163 235 295 319 391
#     4  12  23  41  67  98 130 171 225 279 333 404
#     4  11  24  41  65  93 140 186 214 273 356 410
#     4  12  26  45  63  98 146 182 206 284 366 399
#     4  12  20  39  67  92 124 168 228 278 312 397
#
# _framework density 19.28032
#
# number of rings (size 3 to 8) (size 9 to 14) (size 15 to 20)
#    0.000    0.333   10.000    0.000    0.000    0.000 
#    3.000    5.833    0.000    0.000    0.000    0.000 
#    0.000    0.000    0.000    0.000    0.000    0.000 
#
# Total GULP energy -133897.604282 kJ/mol
# GULP energy per Si atom -5579.066845 kJ/mol
# Density = 1.923644 g / cm^3
# Si number density = 19.280320 Si / 1000 Ang^3
#
#
#
# Elastic Constant Matrix: (Units=GPa)
#
#
# Indices 1 2 3 4 5 6 
#
# 1 90.7533 46.7254 29.9454 0.0000 -13.2756 0.0000
# 2 46.7254 94.5753 37.1304 0.0000 -6.8637 0.0000
# 3 29.9454 37.1304 129.0872 0.0005 -16.9394 0.0000
# 4 0.0000 0.0000 0.0005 34.1047 0.0002 12.5727
# 5 -13.2756 -6.8637 -16.9394 0.0002 20.9608 -0.0001
# 6 0.0000 0.0000 0.0000 12.5727 -0.0001 33.8278
#
#
#
# Elastic Compliance Matrix: (Units=1/GPa)
#
#
# Indices 1 2 3 4 5 6 
#
# 1 0.015954 -0.007077 -0.000720 0.000000 0.007205 0.000000
# 2 -0.007077 0.015089 -0.002951 0.000000 -0.001926 0.000000
# 3 -0.000720 -0.002951 0.009593 0.000000 0.006330 0.000000
# 4 0.000000 0.000000 0.000000 0.033977 -0.000001 -0.012628
# 5 0.007205 -0.001926 0.006330 -0.000001 0.056757 0.000000
# 6 0.000000 0.000000 0.000000 -0.012628 0.000000 0.034255
#
#
# Mechanical properties :
#
#
# Convention : Reuss Voigt Hill
#
# Bulk Modulus (GPa) = 52.24536 60.22427 56.23481
# Shear Modulus (GPa) = 25.83977 31.15295 28.49636
#
# Velocity S-wave (km/s) = 3.66487 4.02405 3.84865
# Velocity P-wave (km/s) = 6.71304 7.27287 6.99855
#
# Compressibility (1/GPa) = 0.01914045
#
# Stress axis : x y z
#
# Youngs Moduli (GPa) = 62.68065 66.27504 104.23933
#
# Poissons Ratio (x) = 0.46900 0.07505
# Poissons Ratio (y) = 0.44356 0.30763
# Poissons Ratio (z) = 0.04513 0.19559
#
# Static dielectric constant tensor:
#      x y z
#    x 1.658680 0.000000 0.022770 
#    y 0.000000 1.726120 0.000000 
#    z 0.022770 0.000000 1.736300 
# 
# From -- ./inp_files/293406.got.cif
#   From: 2010.05.17/outbox.cif.g08.bks.cpg/sg15_147_cif.got.tgz:293406.got - 2010.06.03 18:47:42.
