data_PCOD9302644
_publ_section_title
;
Structure prediction by ZEFSAII (Michael W. Deem and Ramdas Pophale) SiO2 
 PCOD9302644
Probable space group: C 2/C
;
_chemical_formula_sum "Si O2"
_cell_formula_units_Z 40
_cell_length_a 8.138694
_cell_length_b 22.766676
_cell_length_c 16.985250
_cell_angle_alpha 90.000000
_cell_angle_beta 34.125664
_cell_angle_gamma 90.000000
_cell_volume 1765.618101
_symmetry_space_group_name_H-M "C 2/C"
_symmetry_group_IT_number 15
_symmetry_cell_setting 'monoclinic'
loop_
_space_group_symop_operation_xyz
x,y,z
-x,y,1/2-z
-x,-y,-z
x,-y,1/2+z
1/2+x,1/2+y,z
1/2-x,1/2+y,1/2-z
1/2-x,1/2-y,-z
1/2+x,1/2-y,1/2+z
loop_
_atom_site_type_symbol
_atom_site_label
_atom_site_fract_x
_atom_site_fract_y
_atom_site_fract_z
Si Si1 0.066965 0.377024 0.540472
Si Si2 0.902298 0.616873 0.922364
Si Si3 0.783779 0.827730 0.694167
Si Si4 0.402339 0.301750 0.197854
Si Si5 0.676559 0.013535 0.101245
O O1 0.299212 0.323176 0.463452
O O2 0.186583 0.437440 0.529322
O O3 0.984936 0.379123 0.482005
O O4 0.777644 0.367026 0.705861
O O5 0.929227 0.549212 0.888332
O O6 0.152913 0.651840 0.777081
O O7 0.587609 0.649482 0.036704
O O8 0.500000 0.833806 0.750000
O O9 0.756406 0.761421 0.738785
O O10 0.500000 0.307719 0.250000
O O11 0.500000 0.032044 0.250000
O O12 0.000000 0.000000 0.000000
#
# Coordination Sequence:
#
# PCOD9302644 Si02
#       5
#     8   8   8   8   8
#     4  11  22  41  64  91 124 163 207 256 308 367
#     4  11  23  41  64  91 123 164 208 254 308 369
#     4  11  22  39  62  92 127 163 203 253 307 367
#     4   9  21  39  62  91 124 160 204 253 307 367
#     4  12  25  42  63  91 125 164 208 258 312 368
#
# _framework density 22.654955999999999
#
# number of rings (size 3 to 8) (size 9 to 14) (size 15 to 20)
#    0.000    1.200    0.000    6.600    0.000    0.000 
#    0.000   14.000    0.000    0.000    0.000    0.000 
#    0.000    0.000    0.000    0.000    0.000    0.000 
#
# Total GULP energy -111660.863056 kJ/mol
# GULP energy per Si atom -5583.043153 kJ/mol
# Density = 2.260339 g / cm^3
# Si number density = 22.654956 Si / 1000 Ang^3
#
#
#
# Elastic Constant Matrix: (Units=GPa)
#
#
# Indices 1 2 3 4 5 6 
#
# 1 80.5401 11.4036 -0.7089 0.0006 -1.9154 -0.0012
# 2 11.4036 121.4945 -18.7191 -0.0001 -12.2362 -0.0004
# 3 -0.7089 -18.7191 75.7695 0.0003 -11.1816 -0.0017
# 4 0.0006 -0.0001 0.0003 29.8587 -0.0007 -11.5099
# 5 -1.9154 -12.2362 -11.1816 -0.0007 25.8622 0.0011
# 6 -0.0012 -0.0004 -0.0017 -11.5099 0.0011 3.5244
#
#
#
# Elastic Compliance Matrix: (Units=1/GPa)
#
#
# Indices 1 2 3 4 5 6 
#
# 1 0.012588 -0.001167 -0.000122 -0.000005 0.000327 -0.000012
# 2 -0.001167 0.009404 0.003158 -0.000002 0.005728 -0.000004
# 3 -0.000122 0.003158 0.015163 -0.000008 0.008041 -0.000021
# 4 -0.000005 -0.000002 -0.000008 -0.129369 0.000009 -0.422489
# 5 0.000327 0.005728 0.008041 0.000009 0.044877 0.000021
# 6 -0.000012 -0.000004 -0.000021 -0.422489 0.000021 -1.096012
#
#
# Mechanical properties :
#
#
# Convention : Reuss Voigt Hill
#
# Bulk Modulus (GPa) = 24.45526 29.08392 26.76959
# Shear Modulus (GPa) = -4.41130 30.90429 13.24650
#
# Velocity S-wave (km/s) = -1.39692 3.69742 2.42069
# Velocity P-wave (km/s) = 2.86640 5.57616 4.43338
#
# Compressibility (1/GPa) = 0.04089099
#
# Stress axis : x y z
#
# Youngs Moduli (GPa) = 79.43965 106.34009 65.94785
#
# Poissons Ratio (x) = 0.12415 0.00807
# Poissons Ratio (y) = 0.09274 -0.20824
# Poissons Ratio (z) = 0.00972 -0.33578
#
# Static dielectric constant tensor:
#      x y z
#    x 1.847720 0.000000 0.000410 
#    y 0.000000 2.177170 0.000000 
#    z 0.000410 0.000000 1.822510 
# 
# From -- ./inp_files/137099.got.cif
#   From: 2010.05.17/outbox.cif.g08.bks.cpg/sg15_69_cif.got.tgz:137099.got - 2010.06.03 18:47:42.
