data_PCOD9302577
_publ_section_title
;
Structure prediction by ZEFSAII (Michael W. Deem and Ramdas Pophale) SiO2 
 PCOD9302577
Probable space group: C 2/C
;
_chemical_formula_sum "Si O2"
_cell_formula_units_Z 60
_cell_length_a 19.752139
_cell_length_b 8.503484
_cell_length_c 17.678744
_cell_angle_alpha 90.000000
_cell_angle_beta 118.990605
_cell_angle_gamma 90.000000
_cell_volume 2597.294310
_symmetry_space_group_name_H-M "C 2/C"
_symmetry_group_IT_number 15
_symmetry_cell_setting 'monoclinic'
loop_
_space_group_symop_operation_xyz
x,y,z
-x,y,1/2-z
-x,-y,-z
x,-y,1/2+z
1/2+x,1/2+y,z
1/2-x,1/2+y,1/2-z
1/2-x,1/2-y,-z
1/2+x,1/2-y,1/2+z
loop_
_atom_site_type_symbol
_atom_site_label
_atom_site_fract_x
_atom_site_fract_y
_atom_site_fract_z
Si Si1 0.237794 0.183853 0.220008
Si Si2 0.371602 0.518489 0.941919
Si Si3 0.857608 0.684419 0.529652
Si Si4 0.822829 0.518497 0.873456
Si Si5 0.473467 0.953294 0.374745
Si Si6 0.500000 0.507421 0.250000
Si Si7 0.875581 0.725277 0.704844
Si Si8 0.501399 0.321047 0.407053
O O1 0.240063 0.345698 0.174685
O O2 0.184020 0.225382 0.262764
O O3 0.196308 0.056773 0.144405
O O4 0.311764 0.109082 0.300004
O O5 0.429919 0.612869 0.918042
O O6 0.343981 0.642888 0.989223
O O7 0.421601 0.382830 0.009264
O O8 0.817830 0.562048 0.451475
O O9 0.838331 0.666922 0.607036
O O10 0.950138 0.651210 0.574216
O O11 0.909175 0.581819 0.904180
O O12 0.496237 0.134803 0.392908
O O13 0.432109 0.901942 0.274448
O O14 0.573574 0.623061 0.288549
O O15 0.498955 0.404152 0.324462
#
# Coordination Sequence:
#
# PCOD9302577 Si02
#       8
#     8   8   8   8   8   4   8   8
#     4  11  25  46  64  92 127 178 219 266 322 395
#     4  11  22  38  65  94 131 162 220 269 318 393
#     4  12  22  41  66  98 129 167 213 276 329 388
#     4  11  25  41  68  88 126 172 222 267 318 387
#     4  11  23  40  63  97 132 163 215 269 328 386
#     4  12  20  38  58  98 130 170 202 262 342 380
#     4  11  23  41  64  91 136 172 208 266 337 392
#     4  11  23  34  63  99 127 167 205 270 330 375
#
# _framework density 23.100961999999999
#
# number of rings (size 3 to 8) (size 9 to 14) (size 15 to 20)
#    0.000    0.800    5.333    2.000    7.467    0.533 
#    0.000    0.000    0.000    4.000    0.000    0.000 
#    0.000    0.000    0.000    0.000    0.000    0.000 
#
# Total GULP energy -168103.745436 kJ/mol
# GULP energy per Si atom -5603.458181 kJ/mol
# Density = 2.304838 g / cm^3
# Si number density = 23.100962 Si / 1000 Ang^3
#
#
#
# Elastic Constant Matrix: (Units=GPa)
#
#
# Indices 1 2 3 4 5 6 
#
# 1 33.8736 18.4390 27.5123 0.0000 8.5577 0.0000
# 2 18.4390 124.1180 78.5465 0.0000 -6.1272 0.0000
# 3 27.5123 78.5465 196.5389 0.0000 -15.2607 0.0000
# 4 0.0000 0.0000 0.0000 49.7704 0.0000 0.9420
# 5 8.5577 -6.1272 -15.2607 0.0000 29.3831 0.0000
# 6 0.0000 0.0000 0.0000 0.9420 0.0000 22.8286
#
#
#
# Elastic Compliance Matrix: (Units=1/GPa)
#
#
# Indices 1 2 3 4 5 6 
#
# 1 0.039421 -0.003169 -0.005413 0.000000 -0.014953 0.000000
# 2 -0.003169 0.011039 -0.003874 0.000000 0.001213 0.000000
# 3 -0.005413 -0.003874 0.007767 0.000000 0.004803 0.000000
# 4 0.000000 0.000000 0.000000 0.020108 0.000000 -0.000830
# 5 -0.014953 0.001213 0.004803 0.000000 0.041135 0.000000
# 6 0.000000 0.000000 0.000000 -0.000830 0.000000 0.043839
#
#
# Mechanical properties :
#
#
# Convention : Reuss Voigt Hill
#
# Bulk Modulus (GPa) = 30.01657 67.05847 48.53752
# Shear Modulus (GPa) = 25.08457 35.73193 30.40825
#
# Velocity S-wave (km/s) = 3.29882 3.93717 3.63205
# Velocity P-wave (km/s) = 5.24705 7.05407 6.21656
#
# Compressibility (1/GPa) = 0.03331494
#
# Stress axis : x y z
#
# Youngs Moduli (GPa) = 25.36740 90.58700 128.75163
#
# Poissons Ratio (x) = 0.28708 0.69691
# Poissons Ratio (y) = 0.08039 0.49878
# Poissons Ratio (z) = 0.13731 0.35093
#
# Static dielectric constant tensor:
#      x y z
#    x 1.871870 0.000000 0.036200 
#    y 0.000000 1.866920 0.000000 
#    z 0.036200 0.000000 1.869730 
# 
# From -- ./inp_files/218619.got.cif
#   From: 2010.05.17/outbox.cif.g08.bks.cpg/sg15_110_cif.got.tgz:218619.got - 2010.06.03 18:47:42.
