data_PCOD9302575
_publ_section_title
;
Structure prediction by ZEFSAII (Michael W. Deem and Ramdas Pophale) SiO2 
 PCOD9302575
Probable space group: C 2/C
;
_chemical_formula_sum "Si O2"
_cell_formula_units_Z 32
_cell_length_a 4.766060
_cell_length_b 17.892878
_cell_length_c 16.143269
_cell_angle_alpha 90.000000
_cell_angle_beta 89.760795
_cell_angle_gamma 90.000000
_cell_volume 1376.662254
_symmetry_space_group_name_H-M "C 2/C"
_symmetry_group_IT_number 15
_symmetry_cell_setting 'monoclinic'
loop_
_space_group_symop_operation_xyz
x,y,z
-x,y,1/2-z
-x,-y,-z
x,-y,1/2+z
1/2+x,1/2+y,z
1/2-x,1/2+y,1/2-z
1/2-x,1/2-y,-z
1/2+x,1/2-y,1/2+z
loop_
_atom_site_type_symbol
_atom_site_label
_atom_site_fract_x
_atom_site_fract_y
_atom_site_fract_z
Si Si1 0.404853 0.343999 0.159521
Si Si2 0.845835 0.982048 0.665266
Si Si3 0.632550 0.939326 0.937347
Si Si4 0.925409 0.689086 0.550344
O O1 0.500000 0.317910 0.250000
O O2 0.288827 0.428719 0.167339
O O3 0.681362 0.351439 0.102803
O O4 0.168930 0.292616 0.116815
O O5 0.557928 0.941678 0.644485
O O6 0.000000 0.962631 0.750000
O O7 0.056832 0.960048 0.590786
O O8 0.590883 0.862264 0.985043
O O9 0.500000 0.000000 0.000000
O O10 0.750000 0.750000 0.500000
#
# Coordination Sequence:
#
# PCOD9302575 Si02
#       4
#     8   8   8   8
#     4  11  22  41  66  94 126 166 221 273 325 392
#     4  11  22  38  64  98 127 165 217 276 334 383
#     4  12  21  39  64  93 130 164 214 271 330 384
#     4  12  25  41  63  96 130 174 218 263 324 399
#
# _framework density 23.244627999999999
#
# number of rings (size 3 to 8) (size 9 to 14) (size 15 to 20)
#    0.000    0.500    5.000    4.500    0.000    4.000 
#    0.000    5.000    0.000    0.000    0.000    0.000 
#    0.000    0.000    0.000    0.000    0.000    0.000 
#
# Total GULP energy -89543.648866 kJ/mol
# GULP energy per Si atom -5596.478054 kJ/mol
# Density = 2.319172 g / cm^3
# Si number density = 23.244628 Si / 1000 Ang^3
#
#
#
# Elastic Constant Matrix: (Units=GPa)
#
#
# Indices 1 2 3 4 5 6 
#
# 1 130.5235 12.6796 41.3976 0.0000 25.7195 0.0000
# 2 12.6796 45.7189 37.6057 0.0000 12.3141 0.0000
# 3 41.3976 37.6057 129.8873 0.0000 39.4487 0.0000
# 4 0.0000 0.0000 0.0000 19.5701 0.0000 5.0636
# 5 25.7195 12.3141 39.4487 0.0000 59.0748 0.0000
# 6 0.0000 0.0000 0.0000 5.0636 0.0000 34.1370
#
#
#
# Elastic Compliance Matrix: (Units=1/GPa)
#
#
# Indices 1 2 3 4 5 6 
#
# 1 0.008799 -0.000112 -0.002026 0.000000 -0.002454 0.000000
# 2 -0.000112 0.028725 -0.008125 0.000000 -0.000513 0.000000
# 3 -0.002026 -0.008125 0.012437 0.000000 -0.005729 0.000000
# 4 0.000000 0.000000 0.000000 0.053138 0.000000 -0.007882
# 5 -0.002454 -0.000513 -0.005729 0.000000 0.021929 0.000000
# 6 0.000000 0.000000 0.000000 -0.007882 0.000000 0.030463
#
#
# Mechanical properties :
#
#
# Convention : Reuss Voigt Hill
#
# Bulk Modulus (GPa) = 33.97472 54.38839 44.18155
# Shear Modulus (GPa) = 26.90630 36.85284 31.87957
#
# Velocity S-wave (km/s) = 3.40594 3.98607 3.70737
# Velocity P-wave (km/s) = 5.48772 6.68087 6.11348
#
# Compressibility (1/GPa) = 0.02943365
#
# Stress axis : x y z
#
# Youngs Moduli (GPa) = 113.65369 34.81241 80.40275
#
# Poissons Ratio (x) = 0.00391 0.16293
# Poissons Ratio (y) = 0.01277 0.65328
# Poissons Ratio (z) = 0.23031 0.28285
#
# Static dielectric constant tensor:
#      x y z
#    x 2.124420 0.000000 0.001790 
#    y 0.000000 1.889080 0.000000 
#    z 0.001790 0.000000 1.929130 
# 
# From -- ./inp_files/128275.got.cif
#   From: 2010.05.17/outbox.cif.g08.bks.cpg/sg15_65_cif.got.tgz:128275.got - 2010.06.03 18:47:42.
