data_PCOD9302999
_publ_section_title
;
Structure prediction by ZEFSAII (Michael W. Deem and Ramdas Pophale) SiO2 
 PCOD9302999
Probable space group: C 2/C
;
_chemical_formula_sum "Si O2"
_cell_formula_units_Z 56
_cell_length_a 8.258408
_cell_length_b 11.611480
_cell_length_c 25.007332
_cell_angle_alpha 90.000000
_cell_angle_beta 85.402190
_cell_angle_gamma 90.000000
_cell_volume 2390.294628
_symmetry_space_group_name_H-M "C 2/C"
_symmetry_group_IT_number 15
_symmetry_cell_setting 'monoclinic'
loop_
_space_group_symop_operation_xyz
x,y,z
-x,y,1/2-z
-x,-y,-z
x,-y,1/2+z
1/2+x,1/2+y,z
1/2-x,1/2+y,1/2-z
1/2-x,1/2-y,-z
1/2+x,1/2-y,1/2+z
loop_
_atom_site_type_symbol
_atom_site_label
_atom_site_fract_x
_atom_site_fract_y
_atom_site_fract_z
Si Si1 0.365089 0.056199 0.348033
Si Si2 0.073583 0.792423 0.486174
Si Si3 0.532882 0.707021 0.809409
Si Si4 0.097149 0.688942 0.693655
Si Si5 0.116532 0.219578 0.399384
Si Si6 0.114725 0.082097 0.590405
Si Si7 0.073125 0.551608 0.443121
O O1 0.438441 0.173254 0.321743
O O2 0.196031 0.101690 0.376276
O O3 0.472146 0.011028 0.394961
O O4 0.370031 0.948939 0.308338
O O5 0.250000 0.750000 0.500000
O O6 0.032400 0.685861 0.448351
O O7 0.973568 0.798427 0.542791
O O8 0.022778 0.899837 0.451125
O O9 0.500000 0.669382 0.750000
O O10 0.721143 0.737342 0.813084
O O11 0.471981 0.606161 0.850707
O O12 0.000000 0.719206 0.750000
O O13 0.996024 0.732126 0.645179
O O14 0.252791 0.313778 0.411301
O O15 0.236951 0.977254 0.572557
O O16 0.000000 0.500000 0.500000
#
# Coordination Sequence:
#
# PCOD9302999 Si02
#       7
#     8   8   8   8   8   8   8
#     4  11  24  44  70  97 136 181 227 280 349 411
#     4  12  24  39  64 100 138 175 222 281 340 408
#     4  11  25  47  68  99 139 177 232 292 342 408
#     4  12  25  45  71  99 133 179 233 287 347 408
#     4  11  22  41  68  99 134 179 226 278 344 409
#     4  11  22  41  67  93 136 179 224 282 341 407
#     4  12  22  39  69  97 132 180 224 271 343 414
#
# _framework density 23.428075
#
# number of rings (size 3 to 8) (size 9 to 14) (size 15 to 20)
#    0.000    0.571    5.714    4.286    0.000    1.714 
#    0.000    0.714    0.000    0.000    0.000    0.000 
#    0.000    0.000    0.000    0.000    0.000    0.000 
#
# Total GULP energy -156550.108777 kJ/mol
# GULP energy per Si atom -5591.075313 kJ/mol
# Density = 2.337475 g / cm^3
# Si number density = 23.428075 Si / 1000 Ang^3
#
#
#
# Elastic Constant Matrix: (Units=GPa)
#
#
# Indices 1 2 3 4 5 6 
#
# 1 115.4805 20.5327 46.4928 0.0000 -4.1540 0.0000
# 2 20.5327 73.8393 24.3189 0.0000 -6.0021 0.0000
# 3 46.4928 24.3189 170.0634 0.0000 -13.4529 0.0000
# 4 0.0000 0.0000 0.0000 11.0827 0.0000 3.4725
# 5 -4.1540 -6.0021 -13.4529 0.0000 40.1209 0.0000
# 6 0.0000 0.0000 0.0000 3.4725 0.0000 38.6844
#
#
#
# Elastic Compliance Matrix: (Units=1/GPa)
#
#
# Indices 1 2 3 4 5 6 
#
# 1 0.009997 -0.001978 -0.002457 0.000000 -0.000085 0.000000
# 2 -0.001978 0.014690 -0.001441 0.000000 0.001510 0.000000
# 3 -0.002457 -0.001441 0.006904 0.000000 0.001845 0.000000
# 4 0.000000 0.000000 0.000000 0.092842 0.000000 -0.008334
# 5 -0.000085 0.001510 0.001845 0.000000 0.025760 0.000000
# 6 0.000000 0.000000 0.000000 -0.008334 0.000000 0.026598
#
#
# Mechanical properties :
#
#
# Convention : Reuss Voigt Hill
#
# Bulk Modulus (GPa) = 50.40147 60.23024 55.31585
# Shear Modulus (GPa) = 25.62056 35.84685 30.73370
#
# Velocity S-wave (km/s) = 3.31053 3.91587 3.62585
# Velocity P-wave (km/s) = 6.01438 6.79778 6.41804
#
# Compressibility (1/GPa) = 0.01984069
#
# Stress axis : x y z
#
# Youngs Moduli (GPa) = 100.02756 68.07340 144.84748
#
# Poissons Ratio (x) = 0.13462 0.35589
# Poissons Ratio (y) = 0.19782 0.20866
# Poissons Ratio (z) = 0.24577 0.09806
#
# Static dielectric constant tensor:
#      x y z
#    x 1.974740 0.000000 0.015040 
#    y 0.000000 1.957720 0.000000 
#    z 0.015040 0.000000 1.864060 
# 
# From -- ./inp_files/287947.got.cif
#   From: 2010.05.17/outbox.cif.g08.bks.cpg/sg15_144_cif.got.tgz:287947.got - 2010.06.03 18:47:42.
