data_PCOD9302102
_publ_section_title
;
Structure prediction by ZEFSAII (Michael W. Deem and Ramdas Pophale) SiO2 
 PCOD9302102
Probable space group: C 2/C
;
_chemical_formula_sum "Si O2"
_cell_formula_units_Z 64
_cell_length_a 20.619714
_cell_length_b 12.907848
_cell_length_c 13.560099
_cell_angle_alpha 90.000000
_cell_angle_beta 49.331916
_cell_angle_gamma 90.000000
_cell_volume 2737.495870
_symmetry_space_group_name_H-M "C 2/C"
_symmetry_group_IT_number 15
_symmetry_cell_setting 'monoclinic'
loop_
_space_group_symop_operation_xyz
x,y,z
-x,y,1/2-z
-x,-y,-z
x,-y,1/2+z
1/2+x,1/2+y,z
1/2-x,1/2+y,1/2-z
1/2-x,1/2-y,-z
1/2+x,1/2-y,1/2+z
loop_
_atom_site_type_symbol
_atom_site_label
_atom_site_fract_x
_atom_site_fract_y
_atom_site_fract_z
Si Si1 0.376282 0.861267 0.893425
Si Si2 0.265062 0.353836 0.807361
Si Si3 0.955664 0.182349 0.069926
Si Si4 0.213200 0.510426 0.186478
Si Si5 0.850162 0.150949 0.588602
Si Si6 0.580255 0.369725 0.119492
Si Si7 0.214174 0.923277 0.136884
Si Si8 0.434182 0.915834 0.034448
O O1 0.411722 0.747196 0.841881
O O2 0.346154 0.936991 0.837326
O O3 0.291286 0.843639 0.044393
O O4 0.434391 0.917207 0.915791
O O5 0.366283 0.328961 0.717944
O O6 0.250623 0.392863 0.710116
O O7 0.196835 0.261103 0.887542
O O8 0.251634 0.459693 0.882125
O O9 0.964081 0.303338 0.037847
O O10 0.937172 0.132403 0.979864
O O11 0.046753 0.148740 0.026625
O O12 0.290640 0.430940 0.090242
O O13 0.152786 0.445256 0.322114
O O14 0.837437 0.114980 0.716153
O O15 0.500000 0.422888 0.250000
O O16 0.662197 0.419635 0.087713
O O17 0.500000 0.000000 0.000000
#
# Coordination Sequence:
#
# PCOD9302102 Si02
#       8
#     8   8   8   8   8   8   8   8
#     4  11  23  40  66  99 127 177 215 281 340 385
#     4  11  22  41  66  94 132 179 222 272 336 402
#     4  11  23  40  70  92 137 175 217 285 341 391
#     4  11  23  40  69  93 135 174 225 272 334 413
#     4  11  21  42  63  96 131 179 221 265 341 399
#     4  11  22  38  62 101 130 160 220 288 338 394
#     4  11  22  41  63  94 135 167 221 276 328 405
#     4  11  23  41  67 101 132 173 227 286 335 397
#
# _framework density 23.37903
#
# number of rings (size 3 to 8) (size 9 to 14) (size 15 to 20)
#    0.000    1.000    5.000    3.375    3.500    2.000 
#    2.250    0.625    0.000    0.000    0.000    0.000 
#    0.000    0.000    0.000    0.000    0.000    0.000 
#
# Total GULP energy -178634.574940 kJ/mol
# GULP energy per Si atom -5582.330467 kJ/mol
# Density = 2.332582 g / cm^3
# Si number density = 23.379030 Si / 1000 Ang^3
#
#
#
# Elastic Constant Matrix: (Units=GPa)
#
#
# Indices 1 2 3 4 5 6 
#
# 1 118.0603 63.2314 10.3374 0.0000 -14.9017 0.0000
# 2 63.2314 98.4480 13.7410 0.0000 -0.8017 0.0000
# 3 10.3374 13.7410 36.3855 0.0000 -12.4438 0.0000
# 4 0.0000 0.0000 0.0000 21.0428 0.0000 -2.3302
# 5 -14.9017 -0.8017 -12.4438 0.0000 32.8294 0.0000
# 6 0.0000 0.0000 0.0000 -2.3302 0.0000 39.9985
#
#
#
# Elastic Compliance Matrix: (Units=1/GPa)
#
#
# Indices 1 2 3 4 5 6 
#
# 1 0.014158 -0.009295 0.001848 0.000000 0.006900 0.000000
# 2 -0.009295 0.016887 -0.005789 0.000000 -0.006001 0.000000
# 3 0.001848 -0.005789 0.033760 0.000000 0.013494 0.000000
# 4 0.000000 0.000000 0.000000 0.047831 0.000000 0.002786
# 5 0.006900 -0.006001 0.013494 0.000000 0.038561 0.000000
# 6 0.000000 0.000000 0.000000 0.002786 0.000000 0.025163
#
#
# Mechanical properties :
#
#
# Convention : Reuss Voigt Hill
#
# Bulk Modulus (GPa) = 26.08809 47.50148 36.79478
# Shear Modulus (GPa) = 23.19028 29.81307 26.50168
#
# Velocity S-wave (km/s) = 3.15290 3.57488 3.37050
# Velocity P-wave (km/s) = 4.94342 6.11570 5.56054
#
# Compressibility (1/GPa) = 0.03833167
#
# Stress axis : x y z
#
# Youngs Moduli (GPa) = 70.63381 59.21833 29.62123
#
# Poissons Ratio (x) = 0.55042 -0.05473
# Poissons Ratio (y) = 0.65653 0.17147
# Poissons Ratio (z) = -0.13050 0.34281
#
# Static dielectric constant tensor:
#      x y z
#    x 1.922690 0.000000 -0.038460 
#    y 0.000000 1.919400 0.000000 
#    z -0.038460 0.000000 1.983710 
# 
# From -- ./inp_files/215043.got.cif
#   From: 2010.05.17/outbox.cif.g08.bks.cpg/sg15_108_cif.got.tgz:215043.got - 2010.06.03 18:47:42.
