data_PCOD9302942
_publ_section_title
;
Structure prediction by ZEFSAII (Michael W. Deem and Ramdas Pophale) SiO2 
 PCOD9302942
Probable space group: C 2/C
;
_chemical_formula_sum "Si O2"
_cell_formula_units_Z 64
_cell_length_a 10.056804
_cell_length_b 28.270488
_cell_length_c 14.364905
_cell_angle_alpha 90.000000
_cell_angle_beta 133.268226
_cell_angle_gamma 90.000000
_cell_volume 2973.847384
_symmetry_space_group_name_H-M "C 2/C"
_symmetry_group_IT_number 15
_symmetry_cell_setting 'monoclinic'
loop_
_space_group_symop_operation_xyz
x,y,z
-x,y,1/2-z
-x,-y,-z
x,-y,1/2+z
1/2+x,1/2+y,z
1/2-x,1/2+y,1/2-z
1/2-x,1/2-y,-z
1/2+x,1/2-y,1/2+z
loop_
_atom_site_type_symbol
_atom_site_label
_atom_site_fract_x
_atom_site_fract_y
_atom_site_fract_z
Si Si1 0.032704 0.250859 0.372506
Si Si2 0.784017 0.988479 0.626612
Si Si3 0.704704 0.082424 0.920484
Si Si4 0.188261 0.902771 0.397108
Si Si5 0.843271 0.847267 0.742834
Si Si6 0.499892 0.154443 0.556971
Si Si7 0.891660 0.905072 0.933004
Si Si8 0.679993 0.008586 0.286957
O O1 0.250000 0.250000 0.500000
O O2 0.943666 0.292758 0.388479
O O3 0.000000 0.264276 0.250000
O O4 0.934433 0.199850 0.330587
O O5 0.763815 0.041632 0.579943
O O6 0.000000 0.980936 0.750000
O O7 0.717710 0.951421 0.517943
O O8 0.682154 0.987059 0.676933
O O9 0.684697 0.045753 0.824234
O O10 0.566019 0.123341 0.885566
O O11 0.899703 0.105387 0.992356
O O12 0.343764 0.873791 0.420449
O O13 0.158527 0.887964 0.489276
O O14 0.000000 0.898248 0.250000
O O15 0.673637 0.839127 0.594110
O O16 0.782984 0.881252 0.796668
O O17 0.000000 0.868197 0.750000
O O18 0.850538 0.960944 0.905180
O O19 0.500000 0.029163 0.250000
#
# Coordination Sequence:
#
# PCOD9302942 Si02
#       8
#     8   8   8   8   8   8   8   8
#     4  11  22  45  77 112 144 178 234 317 373 427
#     4  11  22  41  63  89 141 189 238 298 340 415
#     4  12  23  41  66 100 132 188 246 287 344 431
#     4  11  27  46  64  99 150 190 235 294 363 428
#     4  11  23  45  73 108 138 173 242 301 355 430
#     4  12  26  44  77 107 139 184 241 304 370 431
#     4  12  24  42  68  96 140 192 235 288 358 426
#     4  12  26  37  59  95 138 187 239 284 352 417
#
# _framework density 21.520944
#
# number of rings (size 3 to 8) (size 9 to 14) (size 15 to 20)
#    0.000    0.500    6.250    3.375    3.500    4.500 
#    0.000    0.625    0.000    0.000    0.000    0.000 
#    0.000    0.000    0.000    0.000    0.000    0.000 
#
# Total GULP energy -179056.144972 kJ/mol
# GULP energy per Si atom -5595.504530 kJ/mol
# Density = 2.147196 g / cm^3
# Si number density = 21.520944 Si / 1000 Ang^3
#
#
#
# Elastic Constant Matrix: (Units=GPa)
#
#
# Indices 1 2 3 4 5 6 
#
# 1 140.2174 32.2943 26.0117 0.0000 -16.7840 0.0000
# 2 32.2943 111.6412 21.9623 0.0000 -1.2506 0.0000
# 3 26.0117 21.9623 75.7147 0.0000 -7.6945 0.0000
# 4 0.0000 0.0000 0.0000 31.0387 0.0000 -0.7308
# 5 -16.7840 -1.2506 -7.6945 0.0000 34.8217 0.0000
# 6 0.0000 0.0000 0.0000 -0.7308 0.0000 20.5174
#
#
#
# Elastic Compliance Matrix: (Units=1/GPa)
#
#
# Indices 1 2 3 4 5 6 
#
# 1 0.008376 -0.002002 -0.001937 0.000000 0.003537 0.000000
# 2 -0.002002 0.009980 -0.002321 0.000000 -0.001119 0.000000
# 3 -0.001937 -0.002321 0.014775 0.000000 0.002248 0.000000
# 4 0.000000 0.000000 0.000000 0.032245 0.000000 0.001148
# 5 0.003537 -0.001119 0.002248 0.000000 0.030879 0.000000
# 6 0.000000 0.000000 0.000000 0.001148 0.000000 0.048780
#
#
# Mechanical properties :
#
#
# Convention : Reuss Voigt Hill
#
# Bulk Modulus (GPa) = 48.51965 54.23442 51.37703
# Shear Modulus (GPa) = 30.40891 33.76255 32.08573
#
# Velocity S-wave (km/s) = 3.76306 3.96513 3.86542
# Velocity P-wave (km/s) = 6.44011 6.79842 6.62169
#
# Compressibility (1/GPa) = 0.02061021
#
# Stress axis : x y z
#
# Youngs Moduli (GPa) = 119.39348 100.19592 67.68349
#
# Poissons Ratio (x) = 0.20060 0.13112
# Poissons Ratio (y) = 0.23904 0.15709
# Poissons Ratio (z) = 0.23129 0.23255
#
# Static dielectric constant tensor:
#      x y z
#    x 1.654940 0.000000 0.061810 
#    y 0.000000 1.796250 0.000000 
#    z 0.061810 0.000000 1.867030 
# 
# From -- ./inp_files/139846.got.cif
#   From: 2010.05.17/outbox.cif.g08.bks.cpg/sg15_70_cif.got.tgz:139846.got - 2010.06.03 18:47:42.
