data_PCOD9302637
_publ_section_title
;
Structure prediction by ZEFSAII (Michael W. Deem and Ramdas Pophale) SiO2 
 PCOD9302637
Probable space group: C 2/C
;
_chemical_formula_sum "Si O2"
_cell_formula_units_Z 48
_cell_length_a 12.023893
_cell_length_b 4.871959
_cell_length_c 27.626665
_cell_angle_alpha 90.000000
_cell_angle_beta 95.802800
_cell_angle_gamma 90.000000
_cell_volume 1610.074762
_symmetry_space_group_name_H-M "C 2/C"
_symmetry_group_IT_number 15
_symmetry_cell_setting 'monoclinic'
loop_
_space_group_symop_operation_xyz
x,y,z
-x,y,1/2-z
-x,-y,-z
x,-y,1/2+z
1/2+x,1/2+y,z
1/2-x,1/2+y,1/2-z
1/2-x,1/2-y,-z
1/2+x,1/2-y,1/2+z
loop_
_atom_site_type_symbol
_atom_site_label
_atom_site_fract_x
_atom_site_fract_y
_atom_site_fract_z
Si Si1 0.960717 0.466313 0.696405
Si Si2 0.328618 0.586271 0.251232
Si Si3 0.186469 0.512282 0.527324
Si Si4 0.584470 0.618074 0.143592
Si Si5 0.682842 0.243814 0.390124
Si Si6 0.054412 0.719196 0.944279
O O1 0.894426 0.742552 0.712620
O O2 0.886386 0.261719 0.662341
O O3 0.000000 0.360697 0.750000
O O4 0.052133 0.577921 0.662360
O O5 0.253564 0.329194 0.234083
O O6 0.394262 0.487980 0.302746
O O7 0.250000 0.750000 0.500000
O O8 0.265664 0.494810 0.578584
O O9 0.066817 0.634432 0.539954
O O10 0.361130 0.248036 0.505849
O O11 0.700546 0.598007 0.120894
O O12 0.486157 0.567351 0.099504
O O13 0.613127 0.039073 0.421198
#
# Coordination Sequence:
#
# PCOD9302637 Si02
#       6
#     8   8   8   8   8   8
#     4   9  18  32  51  78 113 154 207 262 320 390
#     4  11  22  39  62  87 121 165 213 265 327 393
#     4   8  13  21  38  73 116 161 208 265 324 391
#     4   9  17  31  52  78 114 158 206 263 323 390
#     4   9  14  26  47  71 113 158 209 258 328 386
#     4   8  14  23  42  74 117 157 211 263 324 390
#
# _framework density 29.812279
#
# number of rings (size 3 to 8) (size 9 to 14) (size 15 to 20)
#    0.000    3.000    1.667    0.000    0.000    0.000 
#    0.000    7.500    0.000    0.000    0.000    1.167 
#    0.000   46.667    0.000    5.333    0.000   14.333 
#
# Total GULP energy -134062.796526 kJ/mol
# GULP energy per Si atom -5585.949855 kJ/mol
# Density = 2.974442 g / cm^3
# Si number density = 29.812279 Si / 1000 Ang^3
#
#
#
# Elastic Constant Matrix: (Units=GPa)
#
#
# Indices 1 2 3 4 5 6 
#
# 1 184.2614 43.6947 97.6580 0.0000 7.8819 0.0000
# 2 43.6947 135.3284 61.9651 0.0000 -22.0664 0.0000
# 3 97.6580 61.9651 163.4042 0.0000 44.3395 0.0000
# 4 0.0000 0.0000 0.0000 56.3932 0.0000 -11.0868
# 5 7.8819 -22.0664 44.3395 0.0000 96.5956 0.0000
# 6 0.0000 0.0000 0.0000 -11.0868 0.0000 31.7015
#
#
#
# Elastic Compliance Matrix: (Units=1/GPa)
#
#
# Indices 1 2 3 4 5 6 
#
# 1 0.008213 0.000166 -0.005483 0.000000 0.001884 0.000000
# 2 0.000166 0.010647 -0.005475 0.000000 0.004932 0.000000
# 3 -0.005483 -0.005475 0.013354 0.000000 -0.006933 0.000000
# 4 0.000000 0.000000 0.000000 0.019042 0.000000 0.006659
# 5 0.001884 0.004932 -0.006933 0.000000 0.014508 0.000000
# 6 0.000000 0.000000 0.000000 0.006659 0.000000 0.033873
#
#
# Mechanical properties :
#
#
# Convention : Reuss Voigt Hill
#
# Bulk Modulus (GPa) = 94.06857 98.84775 96.45816
# Shear Modulus (GPa) = 40.07594 55.58314 47.82954
#
# Velocity S-wave (km/s) = 3.67042 4.32260 4.00979
# Velocity P-wave (km/s) = 7.04164 7.62508 7.33916
#
# Compressibility (1/GPa) = 0.01063054
#
# Stress axis : x y z
#
# Youngs Moduli (GPa) = 121.75918 93.92454 74.88439
#
# Poissons Ratio (x) = -0.01559 0.41057
# Poissons Ratio (y) = -0.02021 0.40998
# Poissons Ratio (z) = 0.66757 0.51422
#
# Static dielectric constant tensor:
#      x y z
#    x 2.501560 0.000000 -0.025640 
#    y 0.000000 2.194350 0.000000 
#    z -0.025640 0.000000 2.409590 
# 
# From -- ./inp_files/312150.got.cif
#   From: 2010.05.17/outbox.cif.g08.bks.cpg/sg15_157_cif.got.tgz:312150.got - 2010.06.03 18:47:42.
