data_PCOD9302848
_publ_section_title
;
Structure prediction by ZEFSAII (Michael W. Deem and Ramdas Pophale) SiO2 
 PCOD9302848
Probable space group: C 2/C
;
_chemical_formula_sum "Si O2"
_cell_formula_units_Z 52
_cell_length_a 17.678989
_cell_length_b 7.574383
_cell_length_c 20.312229
_cell_angle_alpha 90.000000
_cell_angle_beta 130.581249
_cell_angle_gamma 90.000000
_cell_volume 2065.765592
_symmetry_space_group_name_H-M "C 2/C"
_symmetry_group_IT_number 15
_symmetry_cell_setting 'monoclinic'
loop_
_space_group_symop_operation_xyz
x,y,z
-x,y,1/2-z
-x,-y,-z
x,-y,1/2+z
1/2+x,1/2+y,z
1/2-x,1/2+y,1/2-z
1/2-x,1/2-y,-z
1/2+x,1/2-y,1/2+z
loop_
_atom_site_type_symbol
_atom_site_label
_atom_site_fract_x
_atom_site_fract_y
_atom_site_fract_z
Si Si1 0.000000 0.090442 0.250000
Si Si2 0.115007 0.713574 0.053983
Si Si3 0.068298 0.323188 0.971382
Si Si4 0.238903 0.183474 0.156193
Si Si5 0.095904 0.560598 0.345046
Si Si6 0.133781 0.188096 0.426624
Si Si7 0.812251 0.923565 0.726589
O O1 0.915085 0.358394 0.137516
O O2 0.906230 0.038494 0.145818
O O3 0.227882 0.689963 0.140988
O O4 0.043645 0.737959 0.076196
O O5 0.082250 0.525780 0.003628
O O6 0.101911 0.840600 0.983996
O O7 0.102091 0.328768 0.915378
O O8 0.140507 0.216228 0.058845
O O9 0.312617 0.074140 0.152180
O O10 0.209185 0.101795 0.208681
O O11 0.290992 0.372275 0.198341
O O12 0.000000 0.618019 0.250000
O O13 0.250000 0.250000 0.500000
O O14 0.078780 0.134060 0.235116
#
# Coordination Sequence:
#
# PCOD9302848 Si02
#       7
#     4   8   8   8   8   8   8
#     4  12  24  42  68 100 144 186 228 292 370 410
#     4   9  18  37  62  93 128 176 224 282 342 412
#     4   9  19  38  63  94 133 174 229 290 344 410
#     4  11  25  43  68 101 142 188 243 295 361 419
#     4  11  23  40  69 102 136 189 245 289 354 438
#     4  11  22  40  67 100 139 182 236 287 349 434
#     4  11  25  42  68  97 142 186 236 294 355 426
#
# _framework density 25.172267000000002
#
# number of rings (size 3 to 8) (size 9 to 14) (size 15 to 20)
#    0.000    1.538    2.308    2.308    3.231    2.462 
#    0.000    0.000    0.000    4.615    0.000    0.000 
#    0.000    0.000    0.000    0.000    0.000    0.000 
#
# Total GULP energy -145231.187543 kJ/mol
# GULP energy per Si atom -5585.814905 kJ/mol
# Density = 2.511497 g / cm^3
# Si number density = 25.172267 Si / 1000 Ang^3
#
#
#
# Elastic Constant Matrix: (Units=GPa)
#
#
# Indices 1 2 3 4 5 6 
#
# 1 204.2209 30.1004 56.9774 0.0000 -19.3688 0.0000
# 2 30.1004 83.2265 38.3308 0.0000 -14.6961 0.0000
# 3 56.9774 38.3308 122.9377 0.0000 -20.2811 0.0000
# 4 0.0000 0.0000 0.0000 -96.4570 0.0000 15.4104
# 5 -19.3688 -14.6961 -20.2811 0.0000 62.3251 0.0000
# 6 0.0000 0.0000 0.0000 15.4104 0.0000 14.4412
#
#
#
# Elastic Compliance Matrix: (Units=1/GPa)
#
#
# Indices 1 2 3 4 5 6 
#
# 1 0.005733 -0.000893 -0.002240 0.000000 0.000842 0.000000
# 2 -0.000893 0.014407 -0.003766 0.000000 0.001894 0.000000
# 3 -0.002240 -0.003766 0.010657 0.000000 0.001884 0.000000
# 4 0.000000 0.000000 0.000000 -0.008857 0.000000 0.009452
# 5 0.000842 0.001894 0.001884 0.000000 0.017366 0.000000
# 6 0.000000 0.000000 0.000000 0.009452 0.000000 0.059160
#
#
# Mechanical properties :
#
#
# Convention : Reuss Voigt Hill
#
# Bulk Modulus (GPa) = 58.82189 73.46693 66.14441
# Shear Modulus (GPa) = 42.39794 15.06031 28.72912
#
# Velocity S-wave (km/s) = 4.10849 2.44865 3.38198
# Velocity P-wave (km/s) = 6.77678 6.10275 6.44858
#
# Compressibility (1/GPa) = 0.01700047
#
# Stress axis : x y z
#
# Youngs Moduli (GPa) = 174.42727 69.40967 93.83465
#
# Poissons Ratio (x) = 0.06200 0.21015
# Poissons Ratio (y) = 0.15581 0.35334
# Poissons Ratio (z) = 0.39065 0.26136
#
# Static dielectric constant tensor:
#      x y z
#    x 2.333270 0.000000 0.058110 
#    y 0.000000 2.216430 0.000000 
#    z 0.058110 0.000000 2.004710 
# 
# From -- ./inp_files/209717.got.cif
#   From: 2010.05.17/outbox.cif.g08.bks.cpg/sg15_105_cif.got.tgz:209717.got - 2010.06.03 18:47:42.
