data_PCOD9302516
_publ_section_title
;
Structure prediction by ZEFSAII (Michael W. Deem and Ramdas Pophale) SiO2 
 PCOD9302516
Probable space group: C 2/C
;
_chemical_formula_sum "Si O2"
_cell_formula_units_Z 48
_cell_length_a 5.387679
_cell_length_b 18.928671
_cell_length_c 22.844205
_cell_angle_alpha 90.000000
_cell_angle_beta 64.268441
_cell_angle_gamma 90.000000
_cell_volume 2098.672115
_symmetry_space_group_name_H-M "C 2/C"
_symmetry_group_IT_number 15
_symmetry_cell_setting 'monoclinic'
loop_
_space_group_symop_operation_xyz
x,y,z
-x,y,1/2-z
-x,-y,-z
x,-y,1/2+z
1/2+x,1/2+y,z
1/2-x,1/2+y,1/2-z
1/2-x,1/2-y,-z
1/2+x,1/2-y,1/2+z
loop_
_atom_site_type_symbol
_atom_site_label
_atom_site_fract_x
_atom_site_fract_y
_atom_site_fract_z
Si Si1 0.813471 0.974541 0.211306
Si Si2 0.507733 0.648547 0.610738
Si Si3 0.188959 0.706858 0.358369
Si Si4 0.956391 0.313296 0.495936
Si Si5 0.731811 0.626841 0.343650
Si Si6 0.948909 0.919373 0.990284
O O1 0.500000 0.946798 0.250000
O O2 0.000000 0.978237 0.250000
O O3 0.973704 0.921682 0.151656
O O4 0.772961 0.053073 0.190040
O O5 0.302080 0.709407 0.652971
O O6 0.473418 0.625433 0.546947
O O7 0.805183 0.685840 0.576859
O O8 0.015497 0.699834 0.437576
O O9 0.487786 0.674436 0.341456
O O10 0.022194 0.666580 0.324087
O O11 0.750000 0.250000 0.500000
O O12 0.845783 0.393972 0.503620
O O13 0.645483 0.604591 0.418210
O O14 0.000000 0.000000 0.000000
#
# Coordination Sequence:
#
# PCOD9302516 Si02
#       6
#     8   8   8   8   8   8
#     4  12  30  52  73  97 139 195 251 306 354 409
#     4  12  24  43  71 106 150 182 236 295 364 444
#     4  11  23  40  72 110 141 182 220 283 370 433
#     4  11  22  37  65 107 159 183 217 285 376 445
#     4  11  24  45  70 103 139 181 234 288 356 432
#     4  11  22  37  65 107 142 178 226 283 364 438
#
# _framework density 22.871603
#
# number of rings (size 3 to 8) (size 9 to 14) (size 15 to 20)
#    0.000    0.667    5.000    3.500    2.333    2.000 
#    0.000    5.000    0.000    0.000    0.000    0.000 
#    0.000    0.000    0.000    0.000    0.000    0.000 
#
# Total GULP energy -134050.912554 kJ/mol
# GULP energy per Si atom -5585.454690 kJ/mol
# Density = 2.281955 g / cm^3
# Si number density = 22.871603 Si / 1000 Ang^3
#
#
#
# Elastic Constant Matrix: (Units=GPa)
#
#
# Indices 1 2 3 4 5 6 
#
# 1 91.2872 54.8136 37.6637 0.0000 11.4403 0.0000
# 2 54.8136 158.6026 22.0318 0.0000 5.8516 0.0000
# 3 37.6637 22.0318 69.4859 0.0000 10.3552 0.0000
# 4 0.0000 0.0000 0.0000 12.5226 0.0000 -6.1333
# 5 11.4403 5.8516 10.3552 0.0000 32.2431 0.0000
# 6 0.0000 0.0000 0.0000 -6.1333 0.0000 21.9836
#
#
#
# Elastic Compliance Matrix: (Units=1/GPa)
#
#
# Indices 1 2 3 4 5 6 
#
# 1 0.017271 -0.004835 -0.007400 0.000000 -0.002874 0.000000
# 2 -0.004835 0.007958 0.000060 0.000000 0.000252 0.000000
# 3 -0.007400 0.000060 0.018898 0.000000 -0.003455 0.000000
# 4 0.000000 0.000000 0.000000 0.092494 0.000000 0.025805
# 5 -0.002874 0.000252 -0.003455 0.000000 0.033098 0.000000
# 6 0.000000 0.000000 0.000000 0.025805 0.000000 0.052688
#
#
# Mechanical properties :
#
#
# Convention : Reuss Voigt Hill
#
# Bulk Modulus (GPa) = 50.56330 60.93267 55.74798
# Shear Modulus (GPa) = 19.73550 27.00765 23.37157
#
# Velocity S-wave (km/s) = 2.94067 3.44006 3.20012
# Velocity P-wave (km/s) = 5.80392 6.51749 6.17103
#
# Compressibility (1/GPa) = 0.01977719
#
# Stress axis : x y z
#
# Youngs Moduli (GPa) = 57.90083 125.65306 52.91447
#
# Poissons Ratio (x) = 0.60752 0.39157
# Poissons Ratio (y) = 0.27994 -0.00316
# Poissons Ratio (z) = 0.42847 -0.00751
#
# Static dielectric constant tensor:
#      x y z
#    x 2.108400 0.000000 -0.046640 
#    y 0.000000 1.834970 0.000000 
#    z -0.046640 0.000000 1.848170 
# 
# From -- ./inp_files/260674.got.cif
#   From: 2010.05.17/outbox.cif.g08.bks.cpg/sg15_131_cif.got.tgz:260674.got - 2010.06.03 18:47:42.
