data_PCOD9302419
_publ_section_title
;
Structure prediction by ZEFSAII (Michael W. Deem and Ramdas Pophale) SiO2 
 PCOD9302419
Probable space group: C 2/C
;
_chemical_formula_sum "Si O2"
_cell_formula_units_Z 36
_cell_length_a 21.187094
_cell_length_b 13.467952
_cell_length_c 4.865195
_cell_angle_alpha 90.000000
_cell_angle_beta 111.555548
_cell_angle_gamma 90.000000
_cell_volume 1291.174727
_symmetry_space_group_name_H-M "C 2/C"
_symmetry_group_IT_number 15
_symmetry_cell_setting 'monoclinic'
loop_
_space_group_symop_operation_xyz
x,y,z
-x,y,1/2-z
-x,-y,-z
x,-y,1/2+z
1/2+x,1/2+y,z
1/2-x,1/2+y,1/2-z
1/2-x,1/2-y,-z
1/2+x,1/2-y,1/2+z
loop_
_atom_site_type_symbol
_atom_site_label
_atom_site_fract_x
_atom_site_fract_y
_atom_site_fract_z
Si Si1 0.787032 0.174332 0.772155
Si Si2 0.060692 0.598807 0.189596
Si Si3 0.500000 0.723785 0.250000
Si Si4 0.655670 0.139319 0.852727
Si Si5 0.410980 0.561086 0.791226
O O1 0.750000 0.250000 0.500000
O O2 0.732402 0.118916 0.877884
O O3 0.833522 0.096293 0.694027
O O4 0.835362 0.247677 0.026401
O O5 0.111210 0.634895 0.509673
O O6 0.000000 0.536117 0.250000
O O7 0.016920 0.689019 0.000776
O O8 0.115723 0.577937 0.025970
O O9 0.545921 0.644172 0.490364
O O10 0.423072 0.536864 0.494658
#
# Coordination Sequence:
#
# PCOD9302419 Si02
#       5
#     8   8   4   8   8
#     4  11  23  42  67  84 122 166 231 273 327 366
#     4  12  21  35  59  91 126 160 215 263 311 371
#     4  12  24  40  62  80 142 184 222 236 314 366
#     4  11  22  35  62  89 113 164 217 270 324 360
#     4  12  29  41  60  92 133 178 225 260 310 381
#
# _framework density 27.881585999999999
#
# number of rings (size 3 to 8) (size 9 to 14) (size 15 to 20)
#    0.000    0.444    6.667    0.667   12.444    0.000 
#    0.000    0.000    0.000    0.000    0.000    0.000 
#    0.000   17.778    0.000    0.667    0.000    0.000 
#
# Total GULP energy -100428.010415 kJ/mol
# GULP energy per Si atom -5579.333912 kJ/mol
# Density = 2.781813 g / cm^3
# Si number density = 27.881586 Si / 1000 Ang^3
#
#
#
# Elastic Constant Matrix: (Units=GPa)
#
#
# Indices 1 2 3 4 5 6 
#
# 1 183.5895 76.0529 34.1716 0.0000 -21.5102 0.0000
# 2 76.0529 79.3903 32.6462 0.0000 -0.0453 0.0000
# 3 34.1716 32.6462 186.9926 0.0000 -32.9933 0.0000
# 4 0.0000 0.0000 0.0000 -1.6471 0.0000 1.5158
# 5 -21.5102 -0.0453 -32.9933 0.0000 39.8842 0.0000
# 6 0.0000 0.0000 0.0000 1.5158 0.0000 44.0447
#
#
#
# Elastic Compliance Matrix: (Units=1/GPa)
#
#
# Indices 1 2 3 4 5 6 
#
# 1 0.010238 -0.010232 0.001039 0.000000 0.006370 0.000000
# 2 -0.010232 0.023974 -0.003846 0.000000 -0.008672 0.000000
# 3 0.001039 -0.003846 0.006940 0.000000 0.006297 0.000000
# 4 0.000000 0.000000 0.000000 -0.588475 0.000000 0.020253
# 5 0.006370 -0.008672 0.006297 0.000000 0.033707 0.000000
# 6 0.000000 0.000000 0.000000 0.020253 0.000000 0.022007
#
#
# Mechanical properties :
#
#
# Convention : Reuss Voigt Hill
#
# Bulk Modulus (GPa) = 66.32992 81.74598 74.03795
# Shear Modulus (GPa) = -10.85762 36.92979 13.03608
#
# Velocity S-wave (km/s) = -1.97551 3.64335 2.16464
# Velocity P-wave (km/s) = 4.31717 6.86158 5.73233
#
# Compressibility (1/GPa) = 0.01507615
#
# Stress axis : x y z
#
# Youngs Moduli (GPa) = 97.67241 41.71184 144.08258
#
# Poissons Ratio (x) = 0.42678 -0.14973
# Poissons Ratio (y) = 0.99935 0.55413
# Poissons Ratio (z) = -0.10150 0.16042
#
# Static dielectric constant tensor:
#      x y z
#    x 2.311450 0.000000 -0.029780 
#    y 0.000000 2.190970 0.000000 
#    z -0.029780 0.000000 2.168020 
# 
# From -- ./inp_files/15067.got.cif
#   From: 2010.05.17/outbox.cif.g08.bks.cpg/sg15_8_cif.got.tgz:15067.got - 2010.06.03 18:47:42.
