data_PCOD9302369
_publ_section_title
;
Structure prediction by ZEFSAII (Michael W. Deem and Ramdas Pophale) SiO2 
 PCOD9302369
Probable space group: C 2/C
;
_chemical_formula_sum "Si O2"
_cell_formula_units_Z 64
_cell_length_a 9.028164
_cell_length_b 15.325227
_cell_length_c 30.496097
_cell_angle_alpha 90.000000
_cell_angle_beta 35.480217
_cell_angle_gamma 90.000000
_cell_volume 2449.031381
_symmetry_space_group_name_H-M "C 2/C"
_symmetry_group_IT_number 15
_symmetry_cell_setting 'monoclinic'
loop_
_space_group_symop_operation_xyz
x,y,z
-x,y,1/2-z
-x,-y,-z
x,-y,1/2+z
1/2+x,1/2+y,z
1/2-x,1/2+y,1/2-z
1/2-x,1/2-y,-z
1/2+x,1/2-y,1/2+z
loop_
_atom_site_type_symbol
_atom_site_label
_atom_site_fract_x
_atom_site_fract_y
_atom_site_fract_z
Si Si1 0.254098 0.159687 0.576764
Si Si2 0.177157 0.184361 0.750443
Si Si3 0.414929 0.956509 0.895959
Si Si4 0.183553 0.423624 0.152896
Si Si5 0.871661 0.860660 0.736489
Si Si6 0.304552 0.880827 0.475983
Si Si7 0.457435 0.313261 0.480782
Si Si8 0.548630 0.525755 0.117538
O O1 0.469384 0.178254 0.561263
O O2 0.354198 0.216403 0.512211
O O3 0.000152 0.184718 0.663871
O O4 0.235729 0.057284 0.571366
O O5 0.409573 0.116562 0.704750
O O6 0.289585 0.282415 0.724075
O O7 0.000000 0.165877 0.750000
O O8 0.644021 0.918709 0.811724
O O9 0.272747 0.877961 0.952977
O O10 0.238820 0.006994 0.903323
O O11 0.448754 0.033015 0.922682
O O12 0.272220 0.479995 0.173605
O O13 0.378961 0.342536 0.100705
O O14 0.000000 0.823962 0.750000
O O15 0.039799 0.925454 0.666120
O O16 0.154383 0.835320 0.473079
O O17 0.133943 0.908600 0.558720
#
# Coordination Sequence:
#
# PCOD9302369 Si02
#       8
#     8   8   8   8   8   8   8   8
#     4  12  27  43  69 110 158 190 254 322 386 449
#     4  12  29  49  76 114 154 206 258 324 393 461
#     4  11  21  47  75 101 153 194 255 313 390 445
#     4  11  25  47  80 112 152 204 261 313 388 472
#     4  12  30  49  76 110 159 210 260 320 391 463
#     4  11  23  47  78 108 143 204 260 311 383 477
#     4  11  22  45  73 107 146 197 249 319 387 446
#     4  12  27  48  79 113 152 206 260 320 384 467
#
# _framework density 26.132781999999999
#
# number of rings (size 3 to 8) (size 9 to 14) (size 15 to 20)
#    0.000    0.500    3.750    4.500    7.000    2.500 
#    0.000    0.000    0.000    0.000    0.000    0.000 
#    0.000    0.000    0.000    0.000    0.000    0.000 
#
# Total GULP energy -179039.902062 kJ/mol
# GULP energy per Si atom -5594.996939 kJ/mol
# Density = 2.607330 g / cm^3
# Si number density = 26.132782 Si / 1000 Ang^3
#
#
#
# Elastic Constant Matrix: (Units=GPa)
#
#
# Indices 1 2 3 4 5 6 
#
# 1 76.4995 19.6613 22.6441 0.0007 19.9080 0.0031
# 2 19.6613 90.7139 32.0519 -0.0042 -1.5550 0.0064
# 3 22.6441 32.0519 109.3758 0.0256 10.4074 0.0003
# 4 0.0007 -0.0042 0.0256 47.7067 -0.0051 6.6468
# 5 19.9080 -1.5550 10.4074 -0.0051 39.1299 -0.0022
# 6 0.0031 0.0064 0.0003 6.6468 -0.0022 43.7842
#
#
#
# Elastic Compliance Matrix: (Units=1/GPa)
#
#
# Indices 1 2 3 4 5 6 
#
# 1 0.016475 -0.003094 -0.001739 0.000000 -0.008042 -0.000001
# 2 -0.003094 0.012963 -0.003444 0.000004 0.003005 -0.000002
# 3 -0.001739 -0.003444 0.010712 -0.000006 -0.002101 0.000001
# 4 0.000000 0.000004 -0.000006 0.021414 0.000005 -0.003251
# 5 -0.008042 0.003005 -0.002101 0.000005 0.030326 0.000001
# 6 -0.000001 -0.000002 0.000001 -0.003251 0.000001 0.023333
#
#
# Mechanical properties :
#
#
# Convention : Reuss Voigt Hill
#
# Bulk Modulus (GPa) = 42.38111 47.25599 44.81855
# Shear Modulus (GPa) = 35.80588 39.60628 37.70608
#
# Velocity S-wave (km/s) = 3.70557 3.89727 3.80263
# Velocity P-wave (km/s) = 5.87887 6.19466 6.03883
#
# Compressibility (1/GPa) = 0.02359542
#
# Stress axis : x y z
#
# Youngs Moduli (GPa) = 60.69860 77.14432 93.35357
#
# Poissons Ratio (x) = 0.23870 0.16232
# Poissons Ratio (y) = 0.18782 0.32151
# Poissons Ratio (z) = 0.10554 0.26569
#
# Static dielectric constant tensor:
#      x y z
#    x 2.183480 0.000000 0.000560 
#    y 0.000000 2.034390 0.000010 
#    z 0.000560 0.000010 2.051610 
# 
# From -- ./inp_files/308779.got.cif
#   From: 2010.05.17/outbox.cif.g08.bks.cpg/sg15_155_cif.got.tgz:308779.got - 2010.06.03 18:47:42.
