data_PCOD9302273
_publ_section_title
;
Structure prediction by ZEFSAII (Michael W. Deem and Ramdas Pophale) SiO2 
 PCOD9302273
Probable space group: C 2/C
;
_chemical_formula_sum "Si O2"
_cell_formula_units_Z 64
_cell_length_a 23.809927
_cell_length_b 19.275540
_cell_length_c 17.118560
_cell_angle_alpha 90.000000
_cell_angle_beta 159.392852
_cell_angle_gamma 90.000000
_cell_volume 2765.178759
_symmetry_space_group_name_H-M "C 2/C"
_symmetry_group_IT_number 15
_symmetry_cell_setting 'monoclinic'
loop_
_space_group_symop_operation_xyz
x,y,z
-x,y,1/2-z
-x,-y,-z
x,-y,1/2+z
1/2+x,1/2+y,z
1/2-x,1/2+y,1/2-z
1/2-x,1/2-y,-z
1/2+x,1/2-y,1/2+z
loop_
_atom_site_type_symbol
_atom_site_label
_atom_site_fract_x
_atom_site_fract_y
_atom_site_fract_z
Si Si1 0.316908 0.668321 0.012409
Si Si2 0.282256 0.939495 0.230945
Si Si3 0.497649 0.711852 0.652254
Si Si4 0.886108 0.937445 0.172054
Si Si5 0.883517 0.414911 0.791991
Si Si6 0.559287 0.553041 0.141167
Si Si7 0.332197 0.696478 0.214120
Si Si8 0.646166 0.764729 0.693104
O O1 0.500000 0.646897 0.250000
O O2 0.290943 0.680443 0.070046
O O3 0.208853 0.609518 0.833430
O O4 0.287834 0.739853 0.926616
O O5 0.429055 0.924384 0.479485
O O6 0.109228 0.923329 0.040506
O O7 0.311696 0.018185 0.242451
O O8 0.500000 0.721661 0.750000
O O9 0.519009 0.628494 0.669026
O O10 0.623254 0.743199 0.754617
O O11 0.329045 0.745155 0.406291
O O12 0.000000 0.962342 0.250000
O O13 0.724613 0.907192 0.925198
O O14 0.853488 0.003289 0.183322
O O15 0.870793 0.347389 0.828476
O O16 0.500000 0.500000 0.000000
O O17 0.659181 0.618617 0.240792
O O18 0.506406 0.728175 0.462157
#
# Coordination Sequence:
#
# PCOD9302273 Si02
#       8
#     8   8   8   8   8   8   8   8
#     4  11  23  45  71  99 135 183 243 280 357 439
#     4  11  23  44  69 100 131 184 230 288 346 432
#     4  11  24  41  69  98 137 186 231 288 360 426
#     4  11  21  44  69  96 128 187 236 278 346 432
#     4  11  23  40  71  99 130 175 240 283 341 421
#     4  12  25  45  68 102 142 183 233 289 364 423
#     4  11  26  40  67 105 135 182 227 301 353 419
#     4  12  24  43  64 103 143 174 231 297 357 427
#
# _framework density 23.144977999999998
#
# number of rings (size 3 to 8) (size 9 to 14) (size 15 to 20)
#    0.000    0.750    6.250    1.875    3.500    0.000 
#    0.000    0.625    0.000    0.000    0.000    0.000 
#    0.000    0.000    0.000    0.000    0.000    0.000 
#
# Total GULP energy -178634.960664 kJ/mol
# GULP energy per Si atom -5582.342521 kJ/mol
# Density = 2.309230 g / cm^3
# Si number density = 23.144978 Si / 1000 Ang^3
#
#
#
# Elastic Constant Matrix: (Units=GPa)
#
#
# Indices 1 2 3 4 5 6 
#
# 1 39.3575 22.4087 7.3735 0.0000 -8.7773 0.0000
# 2 22.4087 149.1632 30.4925 0.0000 -16.8326 0.0000
# 3 7.3735 30.4925 119.7796 0.0000 -12.7169 0.0000
# 4 0.0000 0.0000 0.0000 40.2870 0.0000 -5.6003
# 5 -8.7773 -16.8326 -12.7169 0.0000 28.9474 0.0000
# 6 0.0000 0.0000 0.0000 -5.6003 0.0000 15.7603
#
#
#
# Elastic Compliance Matrix: (Units=1/GPa)
#
#
# Indices 1 2 3 4 5 6 
#
# 1 0.028949 -0.003566 -0.000170 0.000000 0.006629 0.000000
# 2 -0.003566 0.007863 -0.001481 0.000000 0.002841 0.000000
# 3 -0.000170 -0.001481 0.009062 0.000000 0.003068 0.000000
# 4 0.000000 0.000000 0.000000 0.026112 0.000000 0.009279
# 5 0.006629 0.002841 0.003068 0.000000 0.039555 0.000000
# 6 0.000000 0.000000 0.000000 0.009279 0.000000 0.066748
#
#
# Mechanical properties :
#
#
# Convention : Reuss Voigt Hill
#
# Bulk Modulus (GPa) = 28.21706 47.64998 37.93352
# Shear Modulus (GPa) = 24.93325 33.53398 29.23362
#
# Velocity S-wave (km/s) = 3.28573 3.81053 3.55782
# Velocity P-wave (km/s) = 5.15874 6.32396 5.77083
#
# Compressibility (1/GPa) = 0.03543955
#
# Stress axis : x y z
#
# Youngs Moduli (GPa) = 34.54370 127.17795 110.35291
#
# Poissons Ratio (x) = 0.45352 0.01881
# Poissons Ratio (y) = 0.12318 0.16339
# Poissons Ratio (z) = 0.00589 0.18830
#
# Static dielectric constant tensor:
#      x y z
#    x 1.942550 0.000000 -0.031770 
#    y 0.000000 1.917840 0.000000 
#    z -0.031770 0.000000 1.917500 
# 
# From -- ./inp_files/223172.got.cif
#   From: 2010.05.17/outbox.cif.g08.bks.cpg/sg15_112_cif.got.tgz:223172.got - 2010.06.03 18:47:42.
