data_PCOD9302126
_publ_section_title
;
Structure prediction by ZEFSAII (Michael W. Deem and Ramdas Pophale) SiO2 
 PCOD9302126
Probable space group: C 2/C
;
_chemical_formula_sum "Si O2"
_cell_formula_units_Z 56
_cell_length_a 14.707344
_cell_length_b 16.614271
_cell_length_c 19.023769
_cell_angle_alpha 90.000000
_cell_angle_beta 32.391380
_cell_angle_gamma 90.000000
_cell_volume 2490.196153
_symmetry_space_group_name_H-M "C 2/C"
_symmetry_group_IT_number 15
_symmetry_cell_setting 'monoclinic'
loop_
_space_group_symop_operation_xyz
x,y,z
-x,y,1/2-z
-x,-y,-z
x,-y,1/2+z
1/2+x,1/2+y,z
1/2-x,1/2+y,1/2-z
1/2-x,1/2-y,-z
1/2+x,1/2-y,1/2+z
loop_
_atom_site_type_symbol
_atom_site_label
_atom_site_fract_x
_atom_site_fract_y
_atom_site_fract_z
Si Si1 0.872033 0.786172 0.609328
Si Si2 0.358805 0.006675 0.033131
Si Si3 0.731571 0.934490 0.047627
Si Si4 0.555598 0.437405 0.027330
Si Si5 0.750783 0.269407 0.416384
Si Si6 0.646234 0.363905 0.210675
Si Si7 0.608431 0.368704 0.765756
O O1 0.746384 0.713407 0.675051
O O2 0.813571 0.844979 0.710289
O O3 0.904287 0.848433 0.525980
O O4 0.058479 0.757380 0.513838
O O5 0.394119 0.047571 0.934646
O O6 0.215950 0.064495 0.157684
O O7 0.276268 0.919085 0.081572
O O8 0.500000 0.000000 0.000000
O O9 0.917951 0.902170 0.898733
O O10 0.691706 0.862199 0.126531
O O11 0.777798 0.018378 0.052593
O O12 0.426038 0.418487 0.176802
O O13 0.500000 0.500000 0.000000
O O14 0.750000 0.250000 0.500000
O O15 0.866315 0.212291 0.294663
O O16 0.500000 0.342224 0.250000
#
# Coordination Sequence:
#
# PCOD9302126 Si02
#       7
#     8   8   8   8   8   8   8
#     4  11  26  41  66 100 135 183 227 279 339 404
#     4  12  23  41  68 100 137 176 234 283 348 409
#     4  11  23  42  71  98 133 182 225 277 344 415
#     4  12  22  47  74  97 133 182 235 278 339 412
#     4  11  22  36  67 104 137 167 222 290 347 401
#     4  12  25  45  69 102 138 188 234 281 348 419
#     4  11  21  42  67  96 135 176 223 277 347 414
#
# _framework density 22.488188999999998
#
# number of rings (size 3 to 8) (size 9 to 14) (size 15 to 20)
#    0.000    0.571    7.143    2.143    2.000    0.571 
#    2.571    0.000    0.000    0.000    0.000    0.000 
#    0.000    0.000    0.000    0.000    0.000    0.000 
#
# Total GULP energy -156375.846221 kJ/mol
# GULP energy per Si atom -5584.851651 kJ/mol
# Density = 2.243701 g / cm^3
# Si number density = 22.488189 Si / 1000 Ang^3
#
#
#
# Elastic Constant Matrix: (Units=GPa)
#
#
# Indices 1 2 3 4 5 6 
#
# 1 144.3871 44.8493 13.5888 0.0016 -17.0158 0.0003
# 2 44.8493 103.3789 8.0358 -0.0039 -4.5704 0.0006
# 3 13.5888 8.0358 32.8293 -0.0036 3.9053 0.0013
# 4 0.0016 -0.0039 -0.0036 43.5145 0.0022 9.1249
# 5 -17.0158 -4.5704 3.9053 0.0022 35.5174 -0.0002
# 6 0.0003 0.0006 0.0013 9.1249 -0.0002 46.5647
#
#
#
# Elastic Compliance Matrix: (Units=1/GPa)
#
#
# Indices 1 2 3 4 5 6 
#
# 1 0.008768 -0.003365 -0.003297 -0.000001 0.004130 0.000000
# 2 -0.003365 0.011238 -0.001356 0.000001 -0.000017 0.000000
# 3 -0.003297 -0.001356 0.032795 0.000003 -0.005360 -0.000002
# 4 -0.000001 0.000001 0.000003 0.023966 -0.000002 -0.004696
# 5 0.004130 -0.000017 -0.005360 -0.000002 0.030721 0.000001
# 6 0.000000 0.000000 -0.000002 -0.004696 0.000001 0.022396
#
#
# Mechanical properties :
#
#
# Convention : Reuss Voigt Hill
#
# Bulk Modulus (GPa) = 27.19986 45.94924 36.57455
# Shear Modulus (GPa) = 31.61084 39.39407 35.50246
#
# Velocity S-wave (km/s) = 3.75329 4.18995 3.97762
# Velocity P-wave (km/s) = 5.55916 6.62454 6.11510
#
# Compressibility (1/GPa) = 0.03676490
#
# Stress axis : x y z
#
# Youngs Moduli (GPa) = 114.05002 88.98648 30.49269
#
# Poissons Ratio (x) = 0.29944 0.10053
# Poissons Ratio (y) = 0.38378 0.04134
# Poissons Ratio (z) = 0.37602 0.12065
#
# Static dielectric constant tensor:
#      x y z
#    x 1.900890 0.000000 0.026390 
#    y 0.000000 1.877140 0.000000 
#    z 0.026390 0.000000 1.876330 
# 
# From -- ./inp_files/244522.got.cif
#   From: 2010.05.17/outbox.cif.g08.bks.cpg/sg15_123_cif.got.tgz:244522.got - 2010.06.03 18:47:42.
