data_PCOD9302997
_publ_section_title
;
Structure prediction by ZEFSAII (Michael W. Deem and Ramdas Pophale) SiO2 
 PCOD9302997
Probable space group: C 2/C
;
_chemical_formula_sum "Si O2"
_cell_formula_units_Z 44
_cell_length_a 6.681300
_cell_length_b 18.006253
_cell_length_c 19.144434
_cell_angle_alpha 90.000000
_cell_angle_beta 98.998933
_cell_angle_gamma 90.000000
_cell_volume 2274.825352
_symmetry_space_group_name_H-M "C 2/C"
_symmetry_group_IT_number 15
_symmetry_cell_setting 'monoclinic'
loop_
_space_group_symop_operation_xyz
x,y,z
-x,y,1/2-z
-x,-y,-z
x,-y,1/2+z
1/2+x,1/2+y,z
1/2-x,1/2+y,1/2-z
1/2-x,1/2-y,-z
1/2+x,1/2-y,1/2+z
loop_
_atom_site_type_symbol
_atom_site_label
_atom_site_fract_x
_atom_site_fract_y
_atom_site_fract_z
Si Si1 0.183284 0.514918 0.809594
Si Si2 0.992091 0.584905 0.567795
Si Si3 0.116029 0.707511 0.680792
Si Si4 0.833389 0.028185 0.047351
Si Si5 0.083293 0.878620 0.676126
Si Si6 0.500000 0.616648 0.750000
O O1 0.123098 0.532169 0.884233
O O2 0.216575 0.427763 0.807233
O O3 0.377446 0.562149 0.795365
O O4 0.000000 0.538094 0.750000
O O5 0.841281 0.582228 0.494068
O O6 0.015203 0.660396 0.612734
O O7 0.206222 0.544878 0.564001
O O8 0.333801 0.669225 0.704947
O O9 0.000000 0.703484 0.750000
O O10 0.120284 0.793465 0.659069
O O11 0.942848 0.074341 0.115014
O O12 0.000000 0.000000 0.000000
O O13 0.000000 0.879132 0.750000
#
# Coordination Sequence:
#
# PCOD9302997 Si02
#       6
#     8   8   8   8   8   4
#     4  12  21  37  67  95 124 169 219 263 309 383
#     4  11  22  41  67  92 127 168 219 262 317 387
#     4  11  24  41  62 100 133 167 213 266 325 383
#     4  11  24  43  69  93 125 171 223 266 316 381
#     4  11  24  42  65  97 132 167 212 270 325 379
#     4  12  20  38  64  96 126 174 214 258 318 378
#
# _framework density 19.342141999999999
#
# number of rings (size 3 to 8) (size 9 to 14) (size 15 to 20)
#    0.000    0.727    6.364    2.182    1.273    0.727 
#    0.000    0.909    0.000    0.000    0.000    0.000 
#    0.000    0.000    0.000    0.000    0.000    0.000 
#
# Total GULP energy -122742.947133 kJ/mol
# GULP energy per Si atom -5579.224870 kJ/mol
# Density = 1.929812 g / cm^3
# Si number density = 19.342142 Si / 1000 Ang^3
#
#
#
# Elastic Constant Matrix: (Units=GPa)
#
#
# Indices 1 2 3 4 5 6 
#
# 1 107.6475 48.1606 34.9959 0.0000 -5.7707 0.0000
# 2 48.1606 159.0207 40.6954 0.0000 1.3739 0.0000
# 3 34.9959 40.6954 85.5232 0.0000 11.9735 0.0000
# 4 0.0000 0.0000 0.0000 -24.7980 0.0000 -27.8894
# 5 -5.7707 1.3739 11.9735 0.0000 43.2366 0.0000
# 6 0.0000 0.0000 0.0000 -27.8894 0.0000 8.3008
#
#
#
# Elastic Compliance Matrix: (Units=1/GPa)
#
#
# Indices 1 2 3 4 5 6 
#
# 1 0.011912 -0.002601 -0.004027 0.000000 0.002788 0.000000
# 2 -0.002601 0.007752 -0.002644 0.000000 0.000139 0.000000
# 3 -0.004027 -0.002644 0.015253 0.000000 -0.004678 0.000000
# 4 0.000000 0.000000 0.000000 -0.008439 0.000000 -0.028353
# 5 0.002788 0.000139 -0.004678 0.000000 0.024792 0.000000
# 6 0.000000 0.000000 0.000000 -0.028353 0.000000 0.025210
#
#
# Mechanical properties :
#
#
# Convention : Reuss Voigt Hill
#
# Bulk Modulus (GPa) = 61.07373 66.65500 63.86437
# Shear Modulus (GPa) = 49.76093 20.57052 35.16573
#
# Velocity S-wave (km/s) = 5.07765 3.26468 4.26853
# Velocity P-wave (km/s) = 8.12532 6.98189 7.57521
#
# Compressibility (1/GPa) = 0.01637365
#
# Stress axis : x y z
#
# Youngs Moduli (GPa) = 83.94988 129.00585 65.55974
#
# Poissons Ratio (x) = 0.33557 0.26400
# Poissons Ratio (y) = 0.21837 0.17331
# Poissons Ratio (z) = 0.33805 0.34103
#
# Static dielectric constant tensor:
#      x y z
#    x 1.760610 0.000000 0.088830 
#    y 0.000000 1.673080 0.000000 
#    z 0.088830 0.000000 1.824950 
# 
# From -- ./inp_files/227004.got.cif
#   From: 2010.05.17/outbox.cif.g08.bks.cpg/sg15_114_cif.got.tgz:227004.got - 2010.06.03 18:47:42.
