data_PCOD9302589
_publ_section_title
;
Structure prediction by ZEFSAII (Michael W. Deem and Ramdas Pophale) SiO2 
 PCOD9302589
Probable space group: C 2/C
;
_chemical_formula_sum "Si O2"
_cell_formula_units_Z 48
_cell_length_a 13.338432
_cell_length_b 7.403699
_cell_length_c 22.508173
_cell_angle_alpha 90.000000
_cell_angle_beta 62.973562
_cell_angle_gamma 90.000000
_cell_volume 1980.033309
_symmetry_space_group_name_H-M "C 2/C"
_symmetry_group_IT_number 15
_symmetry_cell_setting 'monoclinic'
loop_
_space_group_symop_operation_xyz
x,y,z
-x,y,1/2-z
-x,-y,-z
x,-y,1/2+z
1/2+x,1/2+y,z
1/2-x,1/2+y,1/2-z
1/2-x,1/2-y,-z
1/2+x,1/2-y,1/2+z
loop_
_atom_site_type_symbol
_atom_site_label
_atom_site_fract_x
_atom_site_fract_y
_atom_site_fract_z
Si Si1 0.881610 0.052785 0.508450
Si Si2 0.798669 0.722439 0.869199
Si Si3 0.049041 0.581393 0.576981
Si Si4 0.379464 0.551638 0.247328
Si Si5 0.228254 0.401667 0.452742
Si Si6 0.188207 0.712822 0.840495
O O1 0.811689 0.117259 0.583750
O O2 0.907211 0.230840 0.462800
O O3 0.815135 0.909340 0.484918
O O4 0.000000 0.000000 0.500000
O O5 0.895685 0.600823 0.873095
O O6 0.830335 0.773355 0.794823
O O7 0.775035 0.918412 0.905646
O O8 0.107568 0.440940 0.516510
O O9 0.916337 0.573773 0.621124
O O10 0.500000 0.519939 0.250000
O O11 0.295224 0.383129 0.280472
O O12 0.368064 0.623487 0.182330
O O13 0.224914 0.260730 0.399447
#
# Coordination Sequence:
#
# PCOD9302589 Si02
#       6
#     8   8   8   8   8   8
#     4   9  17  31  59  91 124 156 192 253 322 375
#     4   8  16  34  56  84 112 156 206 238 296 376
#     4   9  16  33  61  86 115 154 204 250 304 379
#     4  11  23  42  64  86 123 169 218 255 307 372
#     4   8  17  33  58  88 113 150 201 248 307 366
#     4  11  22  38  66  89 118 168 212 256 314 367
#
# _framework density 24.242014000000001
#
# number of rings (size 3 to 8) (size 9 to 14) (size 15 to 20)
#    0.000    2.667    1.667    2.500    0.000    1.333 
#    0.000    1.667   14.667    0.000    0.000    0.000 
#    0.000    0.000    0.000    0.000    0.000    0.000 
#
# Total GULP energy -133786.387889 kJ/mol
# GULP energy per Si atom -5574.432829 kJ/mol
# Density = 2.418684 g / cm^3
# Si number density = 24.242014 Si / 1000 Ang^3
#
#
#
# Elastic Constant Matrix: (Units=GPa)
#
#
# Indices 1 2 3 4 5 6 
#
# 1 150.9079 22.8123 45.2880 0.0000 -5.7206 0.0000
# 2 22.8123 39.4466 9.7018 0.0000 4.0376 0.0000
# 3 45.2880 9.7018 83.0037 0.0000 19.9738 0.0000
# 4 0.0000 0.0000 0.0000 25.9512 0.0000 5.7731
# 5 -5.7206 4.0376 19.9738 0.0000 46.3163 0.0000
# 6 0.0000 0.0000 0.0000 5.7731 0.0000 20.3127
#
#
#
# Elastic Compliance Matrix: (Units=1/GPa)
#
#
# Indices 1 2 3 4 5 6 
#
# 1 0.009019 -0.004292 -0.005330 0.000000 0.003787 0.000000
# 2 -0.004292 0.028191 -0.000261 0.000000 -0.002875 0.000000
# 3 -0.005330 -0.000261 0.016892 0.000000 -0.007920 0.000000
# 4 0.000000 0.000000 0.000000 0.041135 0.000000 -0.011691
# 5 0.003787 -0.002875 -0.007920 0.000000 0.025725 0.000000
# 6 0.000000 0.000000 0.000000 -0.011691 0.000000 0.052553
#
#
# Mechanical properties :
#
#
# Convention : Reuss Voigt Hill
#
# Bulk Modulus (GPa) = 29.12495 47.66250 38.39373
# Shear Modulus (GPa) = 24.42272 31.55309 27.98791
#
# Velocity S-wave (km/s) = 3.17749 3.61167 3.40151
# Velocity P-wave (km/s) = 5.04997 6.09065 5.59456
#
# Compressibility (1/GPa) = 0.03433482
#
# Stress axis : x y z
#
# Youngs Moduli (GPa) = 110.88262 35.47172 59.19830
#
# Poissons Ratio (x) = 0.15225 0.31554
# Poissons Ratio (y) = 0.47592 0.01548
# Poissons Ratio (z) = 0.59102 0.00927
#
# Static dielectric constant tensor:
#      x y z
#    x 1.967710 0.000000 -0.019450 
#    y 0.000000 2.032300 0.000000 
#    z -0.019450 0.000000 1.882090 
# 
# From -- ./inp_files/268005.got.cif
#   From: 2010.05.17/outbox.cif.g08.bks.cpg/sg15_135_cif.got.tgz:268005.got - 2010.06.03 18:47:42.
