data_PCOD9302704
_publ_section_title
;
Structure prediction by ZEFSAII (Michael W. Deem and Ramdas Pophale) SiO2 
 PCOD9302704
Probable space group: C 2/C
;
_chemical_formula_sum "Si O2"
_cell_formula_units_Z 40
_cell_length_a 12.815040
_cell_length_b 27.048582
_cell_length_c 8.022549
_cell_angle_alpha 90.000000
_cell_angle_beta 131.628499
_cell_angle_gamma 90.000000
_cell_volume 2078.592291
_symmetry_space_group_name_H-M "C 2/C"
_symmetry_group_IT_number 15
_symmetry_cell_setting 'monoclinic'
loop_
_space_group_symop_operation_xyz
x,y,z
-x,y,1/2-z
-x,-y,-z
x,-y,1/2+z
1/2+x,1/2+y,z
1/2-x,1/2+y,1/2-z
1/2-x,1/2-y,-z
1/2+x,1/2-y,1/2+z
loop_
_atom_site_type_symbol
_atom_site_label
_atom_site_fract_x
_atom_site_fract_y
_atom_site_fract_z
Si Si1 0.000000 0.630543 0.750000
Si Si2 0.817295 0.280050 0.911630
Si Si3 0.000000 0.869591 0.750000
Si Si4 0.481793 0.299409 0.038533
Si Si5 0.751896 0.063691 0.923853
Si Si6 0.610237 0.526858 0.742307
O O1 0.897182 0.669632 0.548134
O O2 0.894438 0.591830 0.725367
O O3 0.681937 0.290535 0.659598
O O4 0.927672 0.247790 0.924502
O O5 0.750000 0.250000 0.000000
O O6 0.865469 0.902626 0.636798
O O7 0.975318 0.838394 0.557944
O O8 0.500000 0.312608 0.250000
O O9 0.797864 0.059614 0.780969
O O10 0.785415 0.010597 0.047722
O O11 0.500000 0.552234 0.750000
O O12 0.500000 0.500000 0.500000
#
# Coordination Sequence:
#
# PCOD9302704 Si02
#       6
#     4   8   4   8   8   8
#     4  12  23  38  70  98 138 178 220 278 339 396
#     4  12  21  44  70  91 136 186 216 269 339 398
#     4  12  21  40  66  98 128 172 230 274 321 394
#     4  12  25  41  67  97 134 173 222 273 335 391
#     4  11  22  39  66  95 130 174 223 275 337 396
#     4   9  18  38  65  89 120 172 218 269 332 399
#
# _framework density 19.243791999999999
#
# number of rings (size 3 to 8) (size 9 to 14) (size 15 to 20)
#    0.000    0.800    9.000    0.600    0.000    1.600 
#    0.000    0.000    0.000    0.000    0.000    0.000 
#    0.000    0.000    0.000    0.000    0.000    0.000 
#
# Total GULP energy -111371.585174 kJ/mol
# GULP energy per Si atom -5568.579259 kJ/mol
# Density = 1.919999 g / cm^3
# Si number density = 19.243792 Si / 1000 Ang^3
#
#
#
# Elastic Constant Matrix: (Units=GPa)
#
#
# Indices 1 2 3 4 5 6 
#
# 1 134.9647 53.0324 43.7299 0.0000 3.7071 0.0000
# 2 53.0324 71.6967 23.3587 0.0000 2.5857 0.0000
# 3 43.7299 23.3587 104.4083 0.0000 2.1587 0.0000
# 4 0.0000 0.0000 0.0000 26.2399 0.0000 13.6124
# 5 3.7071 2.5857 2.1587 0.0000 45.9705 0.0000
# 6 0.0000 0.0000 0.0000 13.6124 0.0000 25.4519
#
#
#
# Elastic Compliance Matrix: (Units=1/GPa)
#
#
# Indices 1 2 3 4 5 6 
#
# 1 0.011304 -0.007344 -0.003084 0.000000 -0.000354 0.000000
# 2 -0.007344 0.019837 -0.001353 0.000000 -0.000460 0.000000
# 3 -0.003084 -0.001353 0.011176 0.000000 -0.000200 0.000000
# 4 0.000000 0.000000 0.000000 0.052743 0.000000 -0.028209
# 5 -0.000354 -0.000460 -0.000200 0.000000 0.021817 0.000000
# 6 0.000000 0.000000 0.000000 -0.028209 0.000000 0.054376
#
#
# Mechanical properties :
#
#
# Convention : Reuss Voigt Hill
#
# Bulk Modulus (GPa) = 53.31633 61.25685 57.28659
# Shear Modulus (GPa) = 24.86730 32.26238 28.56484
#
# Velocity S-wave (km/s) = 3.59865 4.09896 3.85693
# Velocity P-wave (km/s) = 6.71066 7.36906 7.04755
#
# Compressibility (1/GPa) = 0.01875598
#
# Stress axis : x y z
#
# Youngs Moduli (GPa) = 88.46444 50.41105 89.47482
#
# Poissons Ratio (x) = 0.37020 0.27596
# Poissons Ratio (y) = 0.64966 0.12103
# Poissons Ratio (z) = 0.27284 0.06819
#
# Static dielectric constant tensor:
#      x y z
#    x 1.729190 0.000000 -0.057620 
#    y 0.000000 1.735170 0.000000 
#    z -0.057620 0.000000 1.722510 
# 
# From -- ./inp_files/34901.got.cif
#   From: 2010.05.17/outbox.cif.g08.bks.cpg/sg15_18_cif.got.tgz:34901.got - 2010.06.03 18:47:42.
