data_PCOD9302083
_publ_section_title
;
Structure prediction by ZEFSAII (Michael W. Deem and Ramdas Pophale) SiO2 
 PCOD9302083
Probable space group: C 2/C
;
_chemical_formula_sum "Si O2"
_cell_formula_units_Z 36
_cell_length_a 8.825274
_cell_length_b 13.979211
_cell_length_c 11.323702
_cell_angle_alpha 90.000000
_cell_angle_beta 81.005803
_cell_angle_gamma 90.000000
_cell_volume 1379.831900
_symmetry_space_group_name_H-M "C 2/C"
_symmetry_group_IT_number 15
_symmetry_cell_setting 'monoclinic'
loop_
_space_group_symop_operation_xyz
x,y,z
-x,y,1/2-z
-x,-y,-z
x,-y,1/2+z
1/2+x,1/2+y,z
1/2-x,1/2+y,1/2-z
1/2-x,1/2-y,-z
1/2+x,1/2-y,1/2+z
loop_
_atom_site_type_symbol
_atom_site_label
_atom_site_fract_x
_atom_site_fract_y
_atom_site_fract_z
Si Si1 0.165047 0.231528 0.289382
Si Si2 0.750000 0.750000 0.500000
Si Si3 0.418632 0.537273 0.129531
Si Si4 0.434893 0.150770 0.091526
Si Si5 0.100802 0.450151 0.137050
O O1 0.213491 0.310584 0.377132
O O2 0.145406 0.145630 0.392567
O O3 0.296582 0.192853 0.186675
O O4 0.000000 0.227960 0.250000
O O5 0.576315 0.778299 0.571542
O O6 0.500000 0.536305 0.250000
O O7 0.266042 0.477297 0.163639
O O8 0.500000 0.500000 0.000000
O O9 0.507824 0.047632 0.118704
O O10 0.371969 0.124581 0.970528
O O11 0.000000 0.404944 0.250000
#
# Coordination Sequence:
#
# PCOD9302083 Si02
#       5
#     8   4   8   8   8
#     4  11  24  46  70 100 147 195 236 304 376 439
#     4  12  24  44  70  98 142 204 246 282 368 450
#     4  11  23  41  69 107 143 185 237 305 367 436
#     4  11  24  44  72 102 147 195 237 309 373 436
#     4  11  21  41  73 107 141 186 244 299 373 438
#
# _framework density 26.090136999999999
#
# number of rings (size 3 to 8) (size 9 to 14) (size 15 to 20)
#    0.000    0.889    4.444    3.333    3.111    1.778 
#    0.000    8.889    0.000    0.000    0.000    0.000 
#    0.000    0.000    0.000    0.000    0.000    0.000 
#
# Total GULP energy -100216.257011 kJ/mol
# GULP energy per Si atom -5567.569834 kJ/mol
# Density = 2.603075 g / cm^3
# Si number density = 26.090137 Si / 1000 Ang^3
#
#
#
# Elastic Constant Matrix: (Units=GPa)
#
#
# Indices 1 2 3 4 5 6 
#
# 1 192.0015 29.7112 73.7612 0.0000 -17.4842 0.0000
# 2 29.7112 41.1117 26.5212 0.0000 -13.7590 0.0000
# 3 73.7612 26.5212 180.9691 0.0000 -27.0540 0.0000
# 4 0.0000 0.0000 0.0000 31.4741 0.0000 2.2667
# 5 -17.4842 -13.7590 -27.0540 0.0000 67.4231 0.0000
# 6 0.0000 0.0000 0.0000 2.2667 0.0000 13.9470
#
#
#
# Elastic Compliance Matrix: (Units=1/GPa)
#
#
# Indices 1 2 3 4 5 6 
#
# 1 0.006566 -0.003292 -0.002170 0.000000 0.000160 0.000000
# 2 -0.003292 0.029652 -0.002369 0.000000 0.004247 0.000000
# 3 -0.002170 -0.002369 0.007022 0.000000 0.001772 0.000000
# 4 0.000000 0.000000 0.000000 0.032148 0.000000 -0.005225
# 5 0.000160 0.004247 0.001772 0.000000 0.016451 0.000000
# 6 0.000000 0.000000 0.000000 -0.005225 0.000000 0.072549
#
#
# Mechanical properties :
#
#
# Convention : Reuss Voigt Hill
#
# Bulk Modulus (GPa) = 36.25889 74.89662 55.57775
# Shear Modulus (GPa) = 26.42100 41.50808 33.96454
#
# Velocity S-wave (km/s) = 3.18572 3.99300 3.61198
# Velocity P-wave (km/s) = 5.24018 7.07304 6.22444
#
# Compressibility (1/GPa) = 0.02757944
#
# Stress axis : x y z
#
# Youngs Moduli (GPa) = 152.30352 33.72401 142.40499
#
# Poissons Ratio (x) = 0.11101 0.30899
# Poissons Ratio (y) = 0.50134 0.33736
# Poissons Ratio (z) = 0.33047 0.07989
#
# Static dielectric constant tensor:
#      x y z
#    x 1.957530 0.000000 0.040330 
#    y 0.000000 1.966610 0.000000 
#    z 0.040330 0.000000 2.062040 
# 
# From -- ./inp_files/76389.got.cif
#   From: 2010.05.17/outbox.cif.g08.bks.cpg/sg15_39_cif.got.tgz:76389.got - 2010.06.03 18:47:42.
