data_PCOD9302239
_publ_section_title
;
Structure prediction by ZEFSAII (Michael W. Deem and Ramdas Pophale) SiO2 
 PCOD9302239
Probable space group: C 2/C
;
_chemical_formula_sum "Si O2"
_cell_formula_units_Z 56
_cell_length_a 20.509448
_cell_length_b 10.761691
_cell_length_c 12.224024
_cell_angle_alpha 90.000000
_cell_angle_beta 78.718045
_cell_angle_gamma 90.000000
_cell_volume 2645.905769
_symmetry_space_group_name_H-M "C 2/C"
_symmetry_group_IT_number 15
_symmetry_cell_setting 'monoclinic'
loop_
_space_group_symop_operation_xyz
x,y,z
-x,y,1/2-z
-x,-y,-z
x,-y,1/2+z
1/2+x,1/2+y,z
1/2-x,1/2+y,1/2-z
1/2-x,1/2-y,-z
1/2+x,1/2-y,1/2+z
loop_
_atom_site_type_symbol
_atom_site_label
_atom_site_fract_x
_atom_site_fract_y
_atom_site_fract_z
Si Si1 0.298212 0.547321 0.029836
Si Si2 0.875342 0.630306 0.711632
Si Si3 0.243555 0.207969 0.872938
Si Si4 0.500000 0.284391 0.250000
Si Si5 0.680329 0.827626 0.484743
Si Si6 0.000000 0.218746 0.250000
Si Si7 0.635971 0.159985 0.248802
Si Si8 0.948641 0.001233 0.417634
O O1 0.239958 0.571157 0.959823
O O2 0.370922 0.506335 0.969154
O O3 0.276120 0.438307 0.117241
O O4 0.302468 0.690373 0.066828
O O5 0.814586 0.707066 0.788065
O O6 0.874392 0.627316 0.580314
O O7 0.943035 0.694579 0.722196
O O8 0.866827 0.488315 0.748648
O O9 0.187370 0.282272 0.821331
O O10 0.250000 0.250000 0.000000
O O11 0.560326 0.209174 0.285537
O O12 0.465055 0.377489 0.345459
O O13 0.659130 0.809380 0.616900
O O14 0.034536 0.125329 0.153657
O O15 0.000000 0.000000 0.500000
#
# Coordination Sequence:
#
# PCOD9302239 Si02
#       8
#     8   8   8   4   8   4   8   8
#     4  11  21  43  72 102 140 181 237 299 361 420
#     4  12  27  47  71 103 148 195 246 299 370 434
#     4  12  26  44  72 110 145 185 244 308 363 431
#     4  11  25  44  70 106 141 191 236 288 358 437
#     4  11  24  47  72 105 141 194 243 298 364 433
#     4  11  27  46  68 104 145 195 242 294 362 447
#     4  12  26  48  72 108 147 193 247 296 368 439
#     4  11  23  43  70 104 144 185 239 297 365 430
#
# _framework density 21.164774000000001
#
# number of rings (size 3 to 8) (size 9 to 14) (size 15 to 20)
#    0.000    0.571    2.857    5.571    0.000    1.143 
#    0.000    1.429    0.000    0.000    0.000    0.000 
#    0.000    0.000    0.000    0.000    0.000    0.000 
#
# Total GULP energy -156273.302735 kJ/mol
# GULP energy per Si atom -5581.189383 kJ/mol
# Density = 2.111660 g / cm^3
# Si number density = 21.164774 Si / 1000 Ang^3
#
#
#
# Elastic Constant Matrix: (Units=GPa)
#
#
# Indices 1 2 3 4 5 6 
#
# 1 208.1079 66.4614 60.5471 0.0000 8.0375 0.0000
# 2 66.4614 106.4202 27.5748 0.0000 13.9612 0.0000
# 3 60.5471 27.5748 95.5008 0.0000 16.3399 0.0000
# 4 0.0000 0.0000 0.0000 50.2149 0.0000 -17.6382
# 5 8.0375 13.9612 16.3399 0.0000 35.6946 0.0000
# 6 0.0000 0.0000 0.0000 -17.6382 0.0000 57.3160
#
#
#
# Elastic Compliance Matrix: (Units=1/GPa)
#
#
# Indices 1 2 3 4 5 6 
#
# 1 0.006951 -0.003599 -0.003625 0.000000 0.001502 0.000000
# 2 -0.003599 0.012295 -0.000634 0.000000 -0.003708 0.000000
# 3 -0.003625 -0.000634 0.013855 0.000000 -0.005278 0.000000
# 4 0.000000 0.000000 0.000000 0.022328 0.000000 0.006871
# 5 0.001502 -0.003708 -0.005278 0.000000 0.031544 0.000000
# 6 0.000000 0.000000 0.000000 0.006871 0.000000 0.019562
#
#
# Mechanical properties :
#
#
# Convention : Reuss Voigt Hill
#
# Bulk Modulus (GPa) = 57.51616 79.91062 68.71339
# Shear Modulus (GPa) = 39.04855 45.67481 42.36168
#
# Velocity S-wave (km/s) = 4.29998 4.65053 4.47869
# Velocity P-wave (km/s) = 7.20330 8.16547 7.69943
#
# Compressibility (1/GPa) = 0.01738642
#
# Stress axis : x y z
#
# Youngs Moduli (GPa) = 143.86108 81.33358 72.17419
#
# Poissons Ratio (x) = 0.29271 0.26162
# Poissons Ratio (y) = 0.51774 0.04575
# Poissons Ratio (z) = 0.52147 0.05155
#
# Static dielectric constant tensor:
#      x y z
#    x 1.730670 0.000000 0.038580 
#    y 0.000000 1.756540 0.000000 
#    z 0.038580 0.000000 1.753960 
# 
# From -- ./inp_files/111018.got.cif
#   From: 2010.05.17/outbox.cif.g08.bks.cpg/sg15_56_cif.got.tgz:111018.got - 2010.06.03 18:47:42.
