data_PCOD9302520
_publ_section_title
;
Structure prediction by ZEFSAII (Michael W. Deem and Ramdas Pophale) SiO2 
 PCOD9302520
Probable space group: C 2/C
;
_chemical_formula_sum "Si O2"
_cell_formula_units_Z 56
_cell_length_a 28.393570
_cell_length_b 10.876619
_cell_length_c 9.112414
_cell_angle_alpha 90.000000
_cell_angle_beta 112.692945
_cell_angle_gamma 90.000000
_cell_volume 2596.294965
_symmetry_space_group_name_H-M "C 2/C"
_symmetry_group_IT_number 15
_symmetry_cell_setting 'monoclinic'
loop_
_space_group_symop_operation_xyz
x,y,z
-x,y,1/2-z
-x,-y,-z
x,-y,1/2+z
1/2+x,1/2+y,z
1/2-x,1/2+y,1/2-z
1/2-x,1/2-y,-z
1/2+x,1/2-y,1/2+z
loop_
_atom_site_type_symbol
_atom_site_label
_atom_site_fract_x
_atom_site_fract_y
_atom_site_fract_z
Si Si1 0.637415 0.931251 0.459285
Si Si2 0.702209 0.354933 0.537698
Si Si3 0.198582 0.757797 0.844363
Si Si4 0.624396 0.544192 0.378090
Si Si5 0.316154 0.129369 0.167080
Si Si6 0.469204 0.597087 0.862630
Si Si7 0.449659 0.757415 0.091404
O O1 0.662619 0.850932 0.358849
O O2 0.665283 0.899737 0.646459
O O3 0.580128 0.883527 0.415236
O O4 0.647356 0.066814 0.410238
O O5 0.708957 0.263700 0.684156
O O6 0.657266 0.450400 0.514331
O O7 0.687491 0.273268 0.378640
O O8 0.757515 0.416326 0.580578
O O9 0.167629 0.881097 0.844448
O O10 0.250000 0.750000 0.000000
O O11 0.585266 0.463345 0.237176
O O12 0.589502 0.647202 0.413555
O O13 0.500000 0.611487 0.750000
O O14 0.500000 0.500000 0.000000
O O15 0.463923 0.724890 0.942337
O O16 0.500000 0.747754 0.250000
#
# Coordination Sequence:
#
# PCOD9302520 Si02
#       7
#     8   8   8   8   8   8   8
#     4  11  24  44  68  91 136 177 222 278 330 390
#     4  11  24  39  65  97 132 178 230 266 329 391
#     4  11  22  40  62  96 136 177 217 269 330 396
#     4  11  22  37  67  97 137 171 216 267 343 393
#     4  11  24  44  63  93 133 180 228 272 318 395
#     4  12  21  38  62  98 139 165 210 275 342 398
#     4  11  23  43  67 100 131 169 220 275 341 400
#
# _framework density 21.569196999999999
#
# number of rings (size 3 to 8) (size 9 to 14) (size 15 to 20)
#    0.000    0.857    4.286    3.429    0.000    1.143 
#    0.000    2.143    0.000    1.714    0.000    0.000 
#    0.000    0.000    0.000    0.000    0.000    0.000 
#
# Total GULP energy -156497.915291 kJ/mol
# GULP energy per Si atom -5589.211260 kJ/mol
# Density = 2.152010 g / cm^3
# Si number density = 21.569197 Si / 1000 Ang^3
#
#
#
# Elastic Constant Matrix: (Units=GPa)
#
#
# Indices 1 2 3 4 5 6 
#
# 1 125.6705 35.8204 51.0182 0.0000 9.4628 0.0000
# 2 35.8204 44.0275 24.9479 0.0000 5.9129 0.0000
# 3 51.0182 24.9479 87.7110 0.0000 -7.7991 0.0000
# 4 0.0000 0.0000 0.0000 17.6814 0.0000 -2.8323
# 5 9.4628 5.9129 -7.7991 0.0000 38.9683 0.0000
# 6 0.0000 0.0000 0.0000 -2.8323 0.0000 38.3338
#
#
#
# Elastic Compliance Matrix: (Units=1/GPa)
#
#
# Indices 1 2 3 4 5 6 
#
# 1 0.012296 -0.006404 -0.005610 0.000000 -0.003137 0.000000
# 2 -0.006404 0.031741 -0.005695 0.000000 -0.004401 0.000000
# 3 -0.005610 -0.005695 0.016780 0.000000 0.005585 0.000000
# 4 0.000000 0.000000 0.000000 0.057234 0.000000 0.004229
# 5 -0.003137 -0.004401 0.005585 0.000000 0.028209 0.000000
# 6 0.000000 0.000000 0.000000 0.004229 0.000000 0.026399
#
#
# Mechanical properties :
#
#
# Convention : Reuss Voigt Hill
#
# Bulk Modulus (GPa) = 39.36832 53.44246 46.40539
# Shear Modulus (GPa) = 23.09002 28.70486 25.89744
#
# Velocity S-wave (km/s) = 3.27541 3.65201 3.46882
# Velocity P-wave (km/s) = 5.70931 6.52793 6.13229
#
# Compressibility (1/GPa) = 0.02540114
#
# Stress axis : x y z
#
# Youngs Moduli (GPa) = 81.32550 31.50475 59.59369
#
# Poissons Ratio (x) = 0.20176 0.33430
# Poissons Ratio (y) = 0.52082 0.33936
# Poissons Ratio (z) = 0.45621 0.17940
#
# Static dielectric constant tensor:
#      x y z
#    x 1.787340 0.000000 -0.021570 
#    y 0.000000 1.829260 0.000000 
#    z -0.021570 0.000000 1.779250 
# 
# From -- ./inp_files/65520.got.cif
#   From: 2010.05.17/outbox.cif.g08.bks.cpg/sg15_33_cif.got.tgz:65520.got - 2010.06.03 18:47:42.
