data_PCOD9302170
_publ_section_title
;
Structure prediction by ZEFSAII (Michael W. Deem and Ramdas Pophale) SiO2 
 PCOD9302170
Probable space group: C 2/C
;
_chemical_formula_sum "Si O2"
_cell_formula_units_Z 56
_cell_length_a 8.559681
_cell_length_b 14.019887
_cell_length_c 22.679867
_cell_angle_alpha 90.000000
_cell_angle_beta 64.722648
_cell_angle_gamma 90.000000
_cell_volume 2461.114330
_symmetry_space_group_name_H-M "C 2/C"
_symmetry_group_IT_number 15
_symmetry_cell_setting 'monoclinic'
loop_
_space_group_symop_operation_xyz
x,y,z
-x,y,1/2-z
-x,-y,-z
x,-y,1/2+z
1/2+x,1/2+y,z
1/2-x,1/2+y,1/2-z
1/2-x,1/2-y,-z
1/2+x,1/2-y,1/2+z
loop_
_atom_site_type_symbol
_atom_site_label
_atom_site_fract_x
_atom_site_fract_y
_atom_site_fract_z
Si Si1 0.162301 0.075742 0.673281
Si Si2 0.835343 0.708731 0.743151
Si Si3 0.557173 0.306205 0.380425
Si Si4 0.851642 0.001981 0.073222
Si Si5 0.492507 0.966001 0.434617
Si Si6 0.860931 0.311232 0.526142
Si Si7 0.017991 0.112908 0.147374
O O1 0.215170 0.139137 0.721978
O O2 0.342080 0.025150 0.630633
O O3 0.098306 0.151138 0.633629
O O4 0.034936 0.984042 0.684325
O O5 0.698198 0.741987 0.814693
O O6 0.000000 0.659876 0.750000
O O7 0.928540 0.797065 0.694299
O O8 0.645658 0.400053 0.394593
O O9 0.525523 0.238423 0.441518
O O10 0.670900 0.010852 0.070063
O O11 0.895674 0.082599 0.112896
O O12 0.000000 0.000000 0.000000
O O13 0.475138 0.856827 0.455620
O O14 0.500000 0.000000 0.500000
O O15 0.750000 0.250000 0.500000
O O16 0.706772 0.366293 0.587159
#
# Coordination Sequence:
#
# PCOD9302170 Si02
#       7
#     8   8   8   8   8   8   8
#     4  11  26  47  70 104 145 191 244 312 369 449
#     4  12  25  46  74 101 141 196 251 306 373 445
#     4  11  24  44  69 101 143 188 247 304 371 447
#     4  11  21  42  71 107 143 191 243 303 379 449
#     4  12  22  38  67 104 146 179 239 301 373 445
#     4  12  21  40  71 102 140 185 233 302 371 449
#     4  11  24  45  72 103 143 192 244 306 377 449
#
# _framework density 22.753921999999999
#
# number of rings (size 3 to 8) (size 9 to 14) (size 15 to 20)
#    0.000    0.571    5.714    3.000    0.000    4.000 
#    0.000    0.000    0.000    0.000    0.000    0.000 
#    0.000    0.000    0.000    0.000    0.000    0.000 
#
# Total GULP energy -155966.918106 kJ/mol
# GULP energy per Si atom -5570.247075 kJ/mol
# Density = 2.270213 g / cm^3
# Si number density = 22.753922 Si / 1000 Ang^3
#
#
#
# Elastic Constant Matrix: (Units=GPa)
#
#
# Indices 1 2 3 4 5 6 
#
# 1 139.0589 17.0688 33.4486 0.0000 30.8360 0.0000
# 2 17.0688 66.1735 24.4026 0.0000 13.4404 0.0000
# 3 33.4486 24.4026 80.2838 0.0000 15.7577 0.0000
# 4 0.0000 0.0000 0.0000 39.3325 0.0000 5.2074
# 5 30.8360 13.4404 15.7577 0.0000 46.7637 0.0000
# 6 0.0000 0.0000 0.0000 5.2074 0.0000 36.6782
#
#
#
# Elastic Compliance Matrix: (Units=1/GPa)
#
#
# Indices 1 2 3 4 5 6 
#
# 1 0.008964 -0.000329 -0.002670 0.000000 -0.004917 0.000000
# 2 -0.000329 0.017543 -0.004549 0.000000 -0.003292 0.000000
# 3 -0.002670 -0.004549 0.015365 0.000000 -0.002110 0.000000
# 4 0.000000 0.000000 0.000000 0.025911 0.000000 -0.003679
# 5 -0.004917 -0.003292 -0.002110 0.000000 0.026283 0.000000
# 6 0.000000 0.000000 0.000000 -0.003679 0.000000 0.027786
#
#
# Mechanical properties :
#
#
# Convention : Reuss Voigt Hill
#
# Bulk Modulus (GPa) = 37.34637 48.37291 42.85964
# Shear Modulus (GPa) = 34.27631 38.59464 36.43547
#
# Velocity S-wave (km/s) = 3.88544 4.12293 4.00594
# Velocity P-wave (km/s) = 6.04794 6.63099 6.34617
#
# Compressibility (1/GPa) = 0.02677636
#
# Stress axis : x y z
#
# Youngs Moduli (GPa) = 111.55732 57.00329 65.08388
#
# Poissons Ratio (x) = 0.01876 0.17375
# Poissons Ratio (y) = 0.03671 0.29606
# Poissons Ratio (z) = 0.29781 0.25930
#
# Static dielectric constant tensor:
#      x y z
#    x 1.887570 0.000000 -0.074170 
#    y 0.000000 1.896180 0.000000 
#    z -0.074170 0.000000 1.971630 
# 
# From -- ./inp_files/264213.got.cif
#   From: 2010.05.17/outbox.cif.g08.bks.cpg/sg15_133_cif.got.tgz:264213.got - 2010.06.03 18:47:42.
