data_PCOD9302483
_publ_section_title
;
Structure prediction by ZEFSAII (Michael W. Deem and Ramdas Pophale) SiO2 
 PCOD9302483
Probable space group: C 2/C
;
_chemical_formula_sum "Si O2"
_cell_formula_units_Z 56
_cell_length_a 12.566434
_cell_length_b 27.100933
_cell_length_c 8.850108
_cell_angle_alpha 90.000000
_cell_angle_beta 115.613527
_cell_angle_gamma 90.000000
_cell_volume 2717.825833
_symmetry_space_group_name_H-M "C 2/C"
_symmetry_group_IT_number 15
_symmetry_cell_setting 'monoclinic'
loop_
_space_group_symop_operation_xyz
x,y,z
-x,y,1/2-z
-x,-y,-z
x,-y,1/2+z
1/2+x,1/2+y,z
1/2-x,1/2+y,1/2-z
1/2-x,1/2-y,-z
1/2+x,1/2-y,1/2+z
loop_
_atom_site_type_symbol
_atom_site_label
_atom_site_fract_x
_atom_site_fract_y
_atom_site_fract_z
Si Si1 0.782500 0.086037 0.998673
Si Si2 0.856214 0.239879 0.197513
Si Si3 0.588976 0.990061 0.421996
Si Si4 0.523971 0.446566 0.088842
Si Si5 0.625745 0.897102 0.899897
Si Si6 0.381367 0.154112 0.778495
Si Si7 0.649551 0.631845 0.161162
O O1 0.845179 0.063830 0.890928
O O2 0.714049 0.132808 0.895001
O O3 0.694660 0.046137 0.015275
O O4 0.859866 0.103267 0.185052
O O5 0.849058 0.289370 0.293143
O O6 0.843386 0.189069 0.282999
O O7 0.000000 0.238273 0.250000
O O8 0.750000 0.250000 0.000000
O O9 0.500000 0.964969 0.250000
O O10 0.634900 0.043317 0.399348
O O11 0.500000 0.000000 0.500000
O O12 0.500000 0.452316 0.250000
O O13 0.500000 0.500000 0.000000
O O14 0.451848 0.397184 0.994481
O O15 0.500000 0.883980 0.750000
O O16 0.732288 0.877162 0.864089
O O17 0.620907 0.877482 0.069060
O O18 0.500000 0.152716 0.750000
#
# Coordination Sequence:
#
# PCOD9302483 Si02
#       7
#     8   8   8   8   8   8   8
#     4  12  22  40  70  94 137 185 237 294 379 443
#     4  11  25  47  77 108 142 194 257 317 395 465
#     4  11  22  37  60  96 137 178 226 285 356 442
#     4  12  27  46  68 102 143 194 251 306 380 465
#     4  11  24  40  63 100 143 181 236 302 375 450
#     4  11  23  42  69  99 132 183 243 303 373 451
#     4  12  25  45  69 102 142 187 243 316 378 463
#
# _framework density 20.604704000000002
#
# number of rings (size 3 to 8) (size 9 to 14) (size 15 to 20)
#    0.000    0.571    1.429    8.571    2.000    2.857 
#    0.000    0.714    0.000    0.000    0.000    0.000 
#    0.000    0.000    0.000    0.000    0.000    0.000 
#
# Total GULP energy -156027.041018 kJ/mol
# GULP energy per Si atom -5572.394322 kJ/mol
# Density = 2.055781 g / cm^3
# Si number density = 20.604704 Si / 1000 Ang^3
#
#
#
# Elastic Constant Matrix: (Units=GPa)
#
#
# Indices 1 2 3 4 5 6 
#
# 1 103.6405 43.6054 12.9434 0.0000 -11.5563 0.0000
# 2 43.6054 145.0908 23.4866 0.0000 1.0789 0.0000
# 3 12.9434 23.4866 87.7391 0.0000 -13.0934 0.0000
# 4 0.0000 0.0000 0.0000 25.4292 0.0000 -7.6030
# 5 -11.5563 1.0789 -13.0934 0.0000 33.6988 0.0000
# 6 0.0000 0.0000 0.0000 -7.6030 0.0000 31.5204
#
#
#
# Elastic Compliance Matrix: (Units=1/GPa)
#
#
# Indices 1 2 3 4 5 6 
#
# 1 0.011584 -0.003483 -0.000177 0.000000 0.004015 0.000000
# 2 -0.003483 0.008286 -0.002040 0.000000 -0.002252 0.000000
# 3 -0.000177 -0.002040 0.012707 0.000000 0.004942 0.000000
# 4 0.000000 0.000000 0.000000 0.042381 0.000000 0.010223
# 5 0.004015 -0.002252 0.004942 0.000000 0.033044 0.000000
# 6 0.000000 0.000000 0.000000 0.010223 0.000000 0.034191
#
#
# Mechanical properties :
#
#
# Convention : Reuss Voigt Hill
#
# Bulk Modulus (GPa) = 47.22283 55.17125 51.19704
# Shear Modulus (GPa) = 31.12302 35.22534 33.17418
#
# Velocity S-wave (km/s) = 3.89071 4.13919 4.01687
# Velocity P-wave (km/s) = 6.56900 7.04826 6.81285
#
# Compressibility (1/GPa) = 0.02117620
#
# Stress axis : x y z
#
# Youngs Moduli (GPa) = 86.32740 120.68695 78.69513
#
# Poissons Ratio (x) = 0.42029 0.01397
# Poissons Ratio (y) = 0.30064 0.16057
# Poissons Ratio (z) = 0.01532 0.24625
#
# Static dielectric constant tensor:
#      x y z
#    x 1.698870 0.000000 0.034860 
#    y 0.000000 1.792160 0.000000 
#    z 0.034860 0.000000 1.783440 
# 
# From -- ./inp_files/34345.got.cif
#   From: 2010.05.17/outbox.cif.g08.bks.cpg/sg15_18_cif.got.tgz:34345.got - 2010.06.03 18:47:42.
