data_PCOD9302081
_publ_section_title
;
Structure prediction by ZEFSAII (Michael W. Deem and Ramdas Pophale) SiO2 
 PCOD9302081
Probable space group: C 2/C
;
_chemical_formula_sum "Si O2"
_cell_formula_units_Z 44
_cell_length_a 16.832678
_cell_length_b 14.315590
_cell_length_c 11.664467
_cell_angle_alpha 90.000000
_cell_angle_beta 48.504323
_cell_angle_gamma 90.000000
_cell_volume 2105.292759
_symmetry_space_group_name_H-M "C 2/C"
_symmetry_group_IT_number 15
_symmetry_cell_setting 'monoclinic'
loop_
_space_group_symop_operation_xyz
x,y,z
-x,y,1/2-z
-x,-y,-z
x,-y,1/2+z
1/2+x,1/2+y,z
1/2-x,1/2+y,1/2-z
1/2-x,1/2-y,-z
1/2+x,1/2-y,1/2+z
loop_
_atom_site_type_symbol
_atom_site_label
_atom_site_fract_x
_atom_site_fract_y
_atom_site_fract_z
Si Si1 0.612341 0.557734 0.142006
Si Si2 0.000000 0.588091 0.250000
Si Si3 0.403944 0.190496 0.128117
Si Si4 0.425759 0.241377 0.718097
Si Si5 0.228777 0.858940 0.324571
Si Si6 0.822770 0.489844 0.568977
O O1 0.500000 0.504212 0.250000
O O2 0.592063 0.649651 0.239259
O O3 0.717407 0.512288 0.091982
O O4 0.641040 0.592109 0.987234
O O5 0.066294 0.650841 0.276254
O O6 0.921506 0.524559 0.399996
O O7 0.326305 0.279570 0.199610
O O8 0.350299 0.107735 0.104375
O O9 0.511117 0.221118 0.958811
O O10 0.500000 0.206143 0.750000
O O11 0.312825 0.191946 0.826625
O O12 0.295335 0.934410 0.191752
#
# Coordination Sequence:
#
# PCOD9302081 Si02
#       6
#     8   4   8   8   8   8
#     4  11  23  43  70 108 134 182 238 290 348 414
#     4  12  28  46  66 108 144 186 236 282 358 410
#     4  12  25  46  73 101 143 184 232 295 341 421
#     4  11  21  41  73 102 129 177 236 289 340 402
#     4  12  24  45  70 104 139 185 236 285 356 411
#     4  12  27  44  72 105 143 185 235 293 345 417
#
# _framework density 20.899705999999998
#
# number of rings (size 3 to 8) (size 9 to 14) (size 15 to 20)
#    0.000    0.364    7.273    3.273    3.818    1.455 
#    1.636    0.000    0.000    0.000    0.000    0.000 
#    0.000    0.000    0.000    0.000    0.000    0.000 
#
# Total GULP energy -123068.054199 kJ/mol
# GULP energy per Si atom -5594.002464 kJ/mol
# Density = 2.085214 g / cm^3
# Si number density = 20.899706 Si / 1000 Ang^3
#
#
#
# Elastic Constant Matrix: (Units=GPa)
#
#
# Indices 1 2 3 4 5 6 
#
# 1 88.7243 -7.3336 -4.2668 0.0000 -9.3477 0.0000
# 2 -7.3336 35.8343 13.7142 0.0000 0.3838 0.0000
# 3 -4.2668 13.7142 83.9101 0.0000 -15.0929 0.0000
# 4 0.0000 0.0000 0.0000 -13.1504 0.0000 -18.0264
# 5 -9.3477 0.3838 -15.0929 0.0000 36.9413 0.0000
# 6 0.0000 0.0000 0.0000 -18.0264 0.0000 33.0743
#
#
#
# Elastic Compliance Matrix: (Units=1/GPa)
#
#
# Indices 1 2 3 4 5 6 
#
# 1 0.011833 0.002055 0.000864 0.000000 0.003326 0.000000
# 2 0.002055 0.030337 -0.005199 0.000000 -0.001919 0.000000
# 3 0.000864 -0.005199 0.013880 0.000000 0.005944 0.000000
# 4 0.000000 0.000000 0.000000 -0.043525 0.000000 -0.023722
# 5 0.003326 -0.001919 0.005944 0.000000 0.030360 0.000000
# 6 0.000000 0.000000 0.000000 -0.023722 0.000000 0.017306
#
#
# Mechanical properties :
#
#
# Convention : Reuss Voigt Hill
#
# Bulk Modulus (GPa) = 19.42100 23.63292 21.52696
# Shear Modulus (GPa) = 61.04015 25.13004 43.08510
#
# Velocity S-wave (km/s) = 5.41014 3.47134 4.54532
# Velocity P-wave (km/s) = 6.95261 5.23443 6.15378
#
# Compressibility (1/GPa) = 0.05149067
#
# Stress axis : x y z
#
# Youngs Moduli (GPa) = 84.51155 32.96295 72.04484
#
# Poissons Ratio (x) = -0.06775 -0.06225
# Poissons Ratio (y) = -0.17370 0.37456
# Poissons Ratio (z) = -0.07302 0.17137
#
# Static dielectric constant tensor:
#      x y z
#    x 1.777390 0.000000 -0.009430 
#    y 0.000000 1.743520 0.000000 
#    z -0.009430 0.000000 1.725710 
# 
# From -- ./inp_files/105185.got.cif
#   From: 2010.05.17/outbox.cif.g08.bks.cpg/sg15_53_cif.got.tgz:105185.got - 2010.06.03 18:47:42.
