data_PCOD9302844
_publ_section_title
;
Structure prediction by ZEFSAII (Michael W. Deem and Ramdas Pophale) SiO2 
 PCOD9302844
Probable space group: C 2/C
;
_chemical_formula_sum "Si O2"
_cell_formula_units_Z 36
_cell_length_a 28.875163
_cell_length_b 11.883426
_cell_length_c 4.873017
_cell_angle_alpha 90.000000
_cell_angle_beta 119.741756
_cell_angle_gamma 90.000000
_cell_volume 1451.840592
_symmetry_space_group_name_H-M "C 2/C"
_symmetry_group_IT_number 15
_symmetry_cell_setting 'monoclinic'
loop_
_space_group_symop_operation_xyz
x,y,z
-x,y,1/2-z
-x,-y,-z
x,-y,1/2+z
1/2+x,1/2+y,z
1/2-x,1/2+y,1/2-z
1/2-x,1/2-y,-z
1/2+x,1/2-y,1/2+z
loop_
_atom_site_type_symbol
_atom_site_label
_atom_site_fract_x
_atom_site_fract_y
_atom_site_fract_z
Si Si1 0.500000 0.586665 0.250000
Si Si2 0.312792 0.569149 0.089006
Si Si3 0.601666 0.290338 0.847140
Si Si4 0.120524 0.422257 0.033787
Si Si5 0.799874 0.268183 0.448988
O O1 0.500000 0.500000 0.500000
O O2 0.449868 0.669908 0.143377
O O3 0.297793 0.467611 0.242600
O O4 0.375435 0.599737 0.245200
O O5 0.293662 0.678990 0.186523
O O6 0.596295 0.189183 0.609609
O O7 0.648236 0.255878 0.202010
O O8 0.107028 0.523472 0.201904
O O9 0.182290 0.383648 0.153688
O O10 0.750000 0.250000 0.500000
#
# Coordination Sequence:
#
# PCOD9302844 Si02
#       5
#     4   8   8   8   8
#     4  12  30  46  82 112 148 192 236 304 380 446
#     4  11  22  40  66  97 139 183 231 291 359 432
#     4  11  25  48  70 106 147 184 249 297 367 438
#     4  11  24  46  72  98 141 190 240 299 359 427
#     4  11  26  44  70 105 146 191 246 305 361 436
#
# _framework density 24.796112999999998
#
# number of rings (size 3 to 8) (size 9 to 14) (size 15 to 20)
#    0.000    0.889    4.444    1.333    6.222    5.333 
#    0.000    1.111    0.000    0.000    0.000    0.000 
#    0.000    0.000    0.000    0.000    0.000    0.000 
#
# Total GULP energy -100457.533431 kJ/mol
# GULP energy per Si atom -5580.974079 kJ/mol
# Density = 2.473968 g / cm^3
# Si number density = 24.796113 Si / 1000 Ang^3
#
#
#
# Elastic Constant Matrix: (Units=GPa)
#
#
# Indices 1 2 3 4 5 6 
#
# 1 212.2739 50.8212 62.6836 0.0000 -6.6849 0.0000
# 2 50.8212 98.7966 32.0727 0.0000 -9.6982 0.0000
# 3 62.6836 32.0727 83.6365 0.0000 -28.5959 0.0000
# 4 0.0000 0.0000 0.0000 38.8821 0.0000 -21.7190
# 5 -6.6849 -9.6982 -28.5959 0.0000 45.6446 0.0000
# 6 0.0000 0.0000 0.0000 -21.7190 0.0000 62.3539
#
#
#
# Elastic Compliance Matrix: (Units=1/GPa)
#
#
# Indices 1 2 3 4 5 6 
#
# 1 0.006611 -0.002008 -0.005090 0.000000 -0.002647 0.000000
# 2 -0.002008 0.012177 -0.003029 0.000000 0.000395 0.000000
# 3 -0.005090 -0.003029 0.020944 0.000000 0.011732 0.000000
# 4 0.000000 0.000000 0.000000 0.031932 0.000000 0.011122
# 5 -0.002647 0.000395 0.011732 0.000000 0.028955 0.000000
# 6 0.000000 0.000000 0.000000 0.011122 0.000000 0.019912
#
#
# Mechanical properties :
#
#
# Convention : Reuss Voigt Hill
#
# Bulk Modulus (GPa) = 51.34110 76.20688 63.77399
# Shear Modulus (GPa) = 33.94918 45.98476 39.96697
#
# Velocity S-wave (km/s) = 3.70419 4.31108 4.01911
# Velocity P-wave (km/s) = 6.24860 7.45524 6.87843
#
# Compressibility (1/GPa) = 0.01947757
#
# Stress axis : x y z
#
# Youngs Moduli (GPa) = 151.25288 82.12111 47.74546
#
# Poissons Ratio (x) = 0.16493 0.24303
# Poissons Ratio (y) = 0.30378 0.14463
# Poissons Ratio (z) = 0.76989 0.24876
#
# Static dielectric constant tensor:
#      x y z
#    x 1.973400 0.000000 0.064700 
#    y 0.000000 2.081560 0.000000 
#    z 0.064700 0.000000 2.026250 
# 
# From -- ./inp_files/18013.got.cif
#   From: 2010.05.17/outbox.cif.g08.bks.cpg/sg15_10_cif.got.tgz:18013.got - 2010.06.03 18:47:42.
