data_PCOD9302728
_publ_section_title
;
Structure prediction by ZEFSAII (Michael W. Deem and Ramdas Pophale) SiO2 
 PCOD9302728
Probable space group: C 2/C
;
_chemical_formula_sum "Si O2"
_cell_formula_units_Z 64
_cell_length_a 14.143552
_cell_length_b 14.638910
_cell_length_c 25.874053
_cell_angle_alpha 90.000000
_cell_angle_beta 146.193150
_cell_angle_gamma 90.000000
_cell_volume 2980.676771
_symmetry_space_group_name_H-M "C 2/C"
_symmetry_group_IT_number 15
_symmetry_cell_setting 'monoclinic'
loop_
_space_group_symop_operation_xyz
x,y,z
-x,y,1/2-z
-x,-y,-z
x,-y,1/2+z
1/2+x,1/2+y,z
1/2-x,1/2+y,1/2-z
1/2-x,1/2-y,-z
1/2+x,1/2-y,1/2+z
loop_
_atom_site_type_symbol
_atom_site_label
_atom_site_fract_x
_atom_site_fract_y
_atom_site_fract_z
Si Si1 0.295434 0.524820 0.214569
Si Si2 0.656995 0.315227 0.696154
Si Si3 0.721100 0.357289 0.996841
Si Si4 0.345959 0.695638 0.587192
Si Si5 0.209611 0.994948 0.904612
Si Si6 0.783969 0.864276 0.286691
Si Si7 0.299667 0.054259 0.643128
Si Si8 0.308760 0.849758 0.655868
O O1 0.250938 0.620887 0.220366
O O2 0.229055 0.515502 0.126359
O O3 0.502720 0.517431 0.306976
O O4 0.236610 0.447329 0.227474
O O5 0.481723 0.363049 0.601586
O O6 0.646861 0.215842 0.716730
O O7 0.747761 0.312629 0.682779
O O8 0.785559 0.421950 0.979397
O O9 0.750000 0.250000 0.000000
O O10 0.773429 0.393638 0.076917
O O11 0.250000 0.750000 0.500000
O O12 0.266844 0.597290 0.564216
O O13 0.537744 0.675826 0.654263
O O14 0.320943 0.763791 0.623705
O O15 0.793756 0.899261 0.349947
O O16 0.500000 0.060878 0.750000
O O17 0.231065 0.949009 0.605697
O O18 0.500000 0.879497 0.750000
#
# Coordination Sequence:
#
# PCOD9302728 Si02
#       8
#     8   8   8   8   8   8   8   8
#     4   9  19  38  62  93 124 172 222 261 336 398
#     4  11  22  39  67  94 130 170 224 278 333 404
#     4  11  25  43  63  96 129 177 228 275 335 398
#     4  11  23  38  64  96 131 170 219 275 338 401
#     4   9  20  39  63  89 129 170 217 278 319 399
#     4  11  22  40  64  97 130 177 222 274 341 409
#     4  11  25  43  67  92 137 177 221 278 343 406
#     4  11  22  41  65  99 132 171 213 280 340 395
#
# _framework density 21.471633000000001
#
# number of rings (size 3 to 8) (size 9 to 14) (size 15 to 20)
#    0.000    1.500    2.500    2.250    5.250    0.500 
#    0.000    0.000    0.000    3.000    0.000    0.000 
#    0.000    0.000    0.000    0.000    0.000    0.000 
#
# Total GULP energy -178546.191010 kJ/mol
# GULP energy per Si atom -5579.568469 kJ/mol
# Density = 2.142276 g / cm^3
# Si number density = 21.471633 Si / 1000 Ang^3
#
#
#
# Elastic Constant Matrix: (Units=GPa)
#
#
# Indices 1 2 3 4 5 6 
#
# 1 89.2796 56.9554 40.1881 0.0000 -48.2474 0.0000
# 2 56.9554 177.9170 55.3857 0.0000 -53.0891 0.0000
# 3 40.1881 55.3857 79.2265 0.0000 -45.3389 0.0000
# 4 0.0000 0.0000 0.0000 30.3461 0.0000 -16.0810
# 5 -48.2474 -53.0891 -45.3389 0.0000 44.8475 0.0000
# 6 0.0000 0.0000 0.0000 -16.0810 0.0000 40.2607
#
#
#
# Elastic Compliance Matrix: (Units=1/GPa)
#
#
# Indices 1 2 3 4 5 6 
#
# 1 0.028437 -0.000070 0.007318 0.000000 0.037908 0.000000
# 2 -0.000070 0.008697 -0.000465 0.000000 0.009750 0.000000
# 3 0.007318 -0.000465 0.031854 0.000000 0.039526 0.000000
# 4 0.000000 0.000000 0.000000 0.041801 0.000000 0.016696
# 5 0.037908 0.009750 0.039526 0.000000 0.114581 0.000000
# 6 0.000000 0.000000 0.000000 0.016696 0.000000 0.031507
#
#
# Mechanical properties :
#
#
# Convention : Reuss Voigt Hill
#
# Bulk Modulus (GPa) = 12.11316 72.38684 42.25000
# Shear Modulus (GPa) = 18.46178 36.01709 27.23943
#
# Velocity S-wave (km/s) = 2.93545 4.10008 3.56564
# Velocity P-wave (km/s) = 4.14040 7.49668 6.05570
#
# Compressibility (1/GPa) = 0.08255483
#
# Stress axis : x y z
#
# Youngs Moduli (GPa) = 35.16503 114.98141 31.39289
#
# Poissons Ratio (x) = 0.00804 -0.22972
# Poissons Ratio (y) = 0.00246 0.01459
# Poissons Ratio (z) = -0.25732 0.05343
#
# Static dielectric constant tensor:
#      x y z
#    x 1.726620 0.000000 0.155230 
#    y 0.000000 1.777690 0.000000 
#    z 0.155230 0.000000 1.700190 
# 
# From -- ./inp_files/274350.got.cif
#   From: 2010.05.17/outbox.cif.g08.bks.cpg/sg15_138_cif.got.tgz:274350.got - 2010.06.03 18:47:42.
