data_PCOD9302818
_publ_section_title
;
Structure prediction by ZEFSAII (Michael W. Deem and Ramdas Pophale) SiO2 
 PCOD9302818
Probable space group: C 2/C
;
_chemical_formula_sum "Si O2"
_cell_formula_units_Z 40
_cell_length_a 12.908979
_cell_length_b 8.508011
_cell_length_c 18.396274
_cell_angle_alpha 90.000000
_cell_angle_beta 75.604228
_cell_angle_gamma 90.000000
_cell_volume 1957.018577
_symmetry_space_group_name_H-M "C 2/C"
_symmetry_group_IT_number 15
_symmetry_cell_setting 'monoclinic'
loop_
_space_group_symop_operation_xyz
x,y,z
-x,y,1/2-z
-x,-y,-z
x,-y,1/2+z
1/2+x,1/2+y,z
1/2-x,1/2+y,1/2-z
1/2-x,1/2-y,-z
1/2+x,1/2-y,1/2+z
loop_
_atom_site_type_symbol
_atom_site_label
_atom_site_fract_x
_atom_site_fract_y
_atom_site_fract_z
Si Si1 0.016178 0.815313 0.834787
Si Si2 0.422094 0.990260 0.081712
Si Si3 0.773829 0.181750 0.416438
Si Si4 0.299521 0.429468 0.196210
Si Si5 0.397829 0.139679 0.223114
O O1 0.054145 0.661455 0.873032
O O2 0.000000 0.792612 0.750000
O O3 0.898094 0.856061 0.884175
O O4 0.106314 0.946262 0.834992
O O5 0.300321 0.027431 0.080264
O O6 0.440757 0.135007 0.133347
O O7 0.500000 0.000000 0.000000
O O8 0.750000 0.250000 0.500000
O O9 0.742470 0.317705 0.362369
O O10 0.349931 0.310240 0.245920
O O11 0.198602 0.520770 0.246068
O O12 0.500000 0.096358 0.250000
#
# Coordination Sequence:
#
# PCOD9302818 Si02
#       5
#     8   8   8   8   8
#     4  12  24  43  71  97 133 178 224 276 335 389
#     4  11  22  40  65  96 132 173 217 267 330 400
#     4  11  24  44  66  97 140 176 217 273 338 388
#     4  11  25  42  69 100 128 173 226 276 322 407
#     4  11  23  41  67  95 130 170 222 271 332 389
#
# _framework density 20.439254999999999
#
# number of rings (size 3 to 8) (size 9 to 14) (size 15 to 20)
#    0.000    0.800    2.000    7.200    0.000    2.400 
#    0.000    1.000    0.000    0.000    0.000    0.000 
#    0.000    0.000    0.000    0.000    0.000    0.000 
#
# Total GULP energy -111603.392546 kJ/mol
# GULP energy per Si atom -5580.169627 kJ/mol
# Density = 2.039273 g / cm^3
# Si number density = 20.439255 Si / 1000 Ang^3
#
#
#
# Elastic Constant Matrix: (Units=GPa)
#
#
# Indices 1 2 3 4 5 6 
#
# 1 186.3095 61.7654 58.1771 0.0000 -38.5591 0.0000
# 2 61.7654 97.3486 20.0225 0.0000 -20.3419 0.0000
# 3 58.1771 20.0225 104.4328 0.0000 -26.9924 0.0000
# 4 0.0000 0.0000 0.0000 19.4236 0.0000 2.0669
# 5 -38.5591 -20.3419 -26.9924 0.0000 31.9946 0.0000
# 6 0.0000 0.0000 0.0000 2.0669 0.0000 43.2829
#
#
#
# Elastic Compliance Matrix: (Units=1/GPa)
#
#
# Indices 1 2 3 4 5 6 
#
# 1 0.008612 -0.003713 -0.002575 0.000000 0.005846 0.000000
# 2 -0.003713 0.013461 0.000695 0.000000 0.004669 0.000000
# 3 -0.002575 0.000695 0.013030 0.000000 0.008332 0.000000
# 4 0.000000 0.000000 0.000000 0.051747 0.000000 -0.002471
# 5 0.005846 0.004669 0.008332 0.000000 0.048299 0.000000
# 6 0.000000 0.000000 0.000000 -0.002471 0.000000 0.023222
#
#
# Mechanical properties :
#
#
# Convention : Reuss Voigt Hill
#
# Bulk Modulus (GPa) = 41.81123 74.22455 58.01789
# Shear Modulus (GPa) = 28.16421 35.48193 31.82307
#
# Velocity S-wave (km/s) = 3.71610 4.17102 3.95011
# Velocity P-wave (km/s) = 6.23805 7.71946 7.01795
#
# Compressibility (1/GPa) = 0.02391702
#
# Stress axis : x y z
#
# Youngs Moduli (GPa) = 116.11202 74.28803 76.74519
#
# Poissons Ratio (x) = 0.27584 0.19760
# Poissons Ratio (y) = 0.43114 -0.05330
# Poissons Ratio (z) = 0.29896 -0.05160
#
# Static dielectric constant tensor:
#      x y z
#    x 1.600090 0.000000 -0.008750 
#    y 0.000000 1.771340 0.000000 
#    z -0.008750 0.000000 1.724350 
# 
# From -- ./inp_files/195075.got.cif
#   From: 2010.05.17/outbox.cif.g08.bks.cpg/sg15_98_cif.got.tgz:195075.got - 2010.06.03 18:47:42.
