data_PCOD9302274
_publ_section_title
;
Structure prediction by ZEFSAII (Michael W. Deem and Ramdas Pophale) SiO2 
 PCOD9302274
Probable space group: C 2/C
;
_chemical_formula_sum "Si O2"
_cell_formula_units_Z 56
_cell_length_a 20.149393
_cell_length_b 7.938307
_cell_length_c 18.816372
_cell_angle_alpha 90.000000
_cell_angle_beta 124.031374
_cell_angle_gamma 90.000000
_cell_volume 2494.247019
_symmetry_space_group_name_H-M "C 2/C"
_symmetry_group_IT_number 15
_symmetry_cell_setting 'monoclinic'
loop_
_space_group_symop_operation_xyz
x,y,z
-x,y,1/2-z
-x,-y,-z
x,-y,1/2+z
1/2+x,1/2+y,z
1/2-x,1/2+y,1/2-z
1/2-x,1/2-y,-z
1/2+x,1/2-y,1/2+z
loop_
_atom_site_type_symbol
_atom_site_label
_atom_site_fract_x
_atom_site_fract_y
_atom_site_fract_z
Si Si1 0.783931 0.088721 0.325298
Si Si2 0.547561 0.543375 0.843571
Si Si3 0.998940 0.589339 0.165980
Si Si4 0.723633 0.658384 0.910892
Si Si5 0.924782 0.900632 0.488962
Si Si6 0.375882 0.973110 0.979129
Si Si7 0.137640 0.615497 0.675728
O O1 0.740035 0.218291 0.353588
O O2 0.839074 0.190673 0.302324
O O3 0.843862 0.980380 0.409017
O O4 0.718528 0.984537 0.243166
O O5 0.500000 0.461775 0.750000
O O6 0.497943 0.707810 0.841053
O O7 0.631331 0.612735 0.863405
O O8 0.566412 0.428373 0.921556
O O9 0.069886 0.477009 0.178327
O O10 0.000000 0.561666 0.250000
O O11 0.920655 0.530308 0.076710
O O12 0.780977 0.494558 0.936055
O O13 0.750000 0.750000 0.000000
O O14 0.912030 0.701282 0.472543
O O15 0.000000 0.000000 0.500000
O O16 0.389602 0.102225 0.922731
#
# Coordination Sequence:
#
# PCOD9302274 Si02
#       7
#     8   8   8   8   8   8   8
#     4  11  23  42  67  93 128 174 222 279 343 408
#     4  11  23  41  67  95 129 177 222 277 341 407
#     4  11  22  40  68  95 127 172 222 275 343 414
#     4  11  21  44  69  96 131 172 230 281 340 415
#     4  12  25  42  64  93 136 176 222 278 339 413
#     4  11  24  40  65  98 133 178 221 282 349 408
#     4  11  23  41  66  95 129 169 225 279 339 419
#
# _framework density 22.451665999999999
#
# number of rings (size 3 to 8) (size 9 to 14) (size 15 to 20)
#    0.000    0.857    2.857    5.571    0.000    3.429 
#    0.000    4.286    0.000    0.000    0.000    0.000 
#    0.000    0.000    0.000    0.000    0.000    0.000 
#
# Total GULP energy -156566.661403 kJ/mol
# GULP energy per Si atom -5591.666479 kJ/mol
# Density = 2.240057 g / cm^3
# Si number density = 22.451666 Si / 1000 Ang^3
#
#
#
# Elastic Constant Matrix: (Units=GPa)
#
#
# Indices 1 2 3 4 5 6 
#
# 1 35.0219 -8.6862 16.5477 0.0000 11.8080 0.0000
# 2 -8.6862 40.4585 13.2815 0.0000 7.9961 0.0000
# 3 16.5477 13.2815 130.5945 0.0000 19.8338 0.0000
# 4 0.0000 0.0000 0.0000 -9.1909 0.0000 -6.9127
# 5 11.8080 7.9961 19.8338 0.0000 32.9772 0.0000
# 6 0.0000 0.0000 0.0000 -6.9127 0.0000 28.9693
#
#
#
# Elastic Compliance Matrix: (Units=1/GPa)
#
#
# Indices 1 2 3 4 5 6 
#
# 1 0.038313 0.012352 -0.003932 0.000000 -0.014349 0.000000
# 2 0.012352 0.030357 -0.003151 0.000000 -0.009889 0.000000
# 3 -0.003932 -0.003151 0.008965 0.000000 -0.003220 0.000000
# 4 0.000000 0.000000 0.000000 -0.092247 0.000000 -0.022012
# 5 -0.014349 -0.009889 -0.003220 0.000000 0.039796 0.000000
# 6 0.000000 0.000000 0.000000 -0.022012 0.000000 0.029267
#
#
# Mechanical properties :
#
#
# Convention : Reuss Voigt Hill
#
# Bulk Modulus (GPa) = 11.34117 27.59567 19.46842
# Shear Modulus (GPa) = 68.21073 22.87993 45.54533
#
# Velocity S-wave (km/s) = 5.51789 3.19576 4.50888
# Velocity P-wave (km/s) = 6.75711 5.09264 5.98304
#
# Compressibility (1/GPa) = 0.08817429
#
# Stress axis : x y z
#
# Youngs Moduli (GPa) = 26.10101 32.94111 111.54554
#
# Poissons Ratio (x) = -0.40689 0.43856
# Poissons Ratio (y) = -0.32240 0.35144
# Poissons Ratio (z) = 0.10262 0.10379
#
# Static dielectric constant tensor:
#      x y z
#    x 1.868160 0.000000 -0.005120 
#    y 0.000000 1.840330 0.000000 
#    z -0.005120 0.000000 1.781920 
# 
# From -- ./inp_files/214000.got.cif
#   From: 2010.05.17/outbox.cif.g08.bks.cpg/sg15_107_cif.got.tgz:214000.got - 2010.06.03 18:47:42.
