data_PCOD9302812
_publ_section_title
;
Structure prediction by ZEFSAII (Michael W. Deem and Ramdas Pophale) SiO2 
 PCOD9302812
Probable space group: C 2/C
;
_chemical_formula_sum "Si O2"
_cell_formula_units_Z 60
_cell_length_a 12.011743
_cell_length_b 18.416382
_cell_length_c 27.106089
_cell_angle_alpha 90.000000
_cell_angle_beta 150.232718
_cell_angle_gamma 90.000000
_cell_volume 2976.991020
_symmetry_space_group_name_H-M "C 2/C"
_symmetry_group_IT_number 15
_symmetry_cell_setting 'monoclinic'
loop_
_space_group_symop_operation_xyz
x,y,z
-x,y,1/2-z
-x,-y,-z
x,-y,1/2+z
1/2+x,1/2+y,z
1/2-x,1/2+y,1/2-z
1/2-x,1/2-y,-z
1/2+x,1/2-y,1/2+z
loop_
_atom_site_type_symbol
_atom_site_label
_atom_site_fract_x
_atom_site_fract_y
_atom_site_fract_z
Si Si1 0.500000 0.718759 0.250000
Si Si2 0.267615 0.540371 0.901023
Si Si3 0.672365 0.639382 0.221805
Si Si4 0.595760 0.693776 0.554659
Si Si5 0.103788 0.149093 0.737096
Si Si6 0.496295 0.752430 0.418317
Si Si7 0.729885 0.978823 0.268560
Si Si8 0.363493 0.214698 0.091146
O O1 0.521038 0.670943 0.208364
O O2 0.723330 0.769213 0.339613
O O3 0.282966 0.624932 0.921855
O O4 0.249506 0.537414 0.834427
O O5 0.041344 0.512994 0.840423
O O6 0.500000 0.500000 0.000000
O O7 0.616527 0.681277 0.149359
O O8 0.662109 0.554486 0.207188
O O9 0.922977 0.663739 0.333102
O O10 0.516856 0.752783 0.484730
O O11 0.349303 0.666357 0.474609
O O12 0.348421 0.182415 0.841851
O O13 0.149963 0.085363 0.715831
O O14 0.000000 0.125972 0.750000
O O15 0.955451 0.216882 0.659081
O O16 0.750000 0.750000 0.500000
O O17 0.250000 0.250000 0.000000
#
# Coordination Sequence:
#
# PCOD9302812 Si02
#       8
#     4   8   8   8   8   8   8   8
#     4  12  24  40  64  98 122 172 222 260 324 380
#     4  11  24  43  69  97 129 168 221 271 337 389
#     4  11  25  40  66  92 130 172 215 263 323 388
#     4  12  22  40  69  95 126 165 213 275 316 377
#     4  11  24  42  63 100 133 175 217 268 335 399
#     4  11  22  40  65  94 127 163 219 270 317 378
#     4  11  25  43  65  94 138 172 212 271 330 395
#     4  11  22  40  65  94 127 163 219 270 317 378
#
# _framework density 20.154578999999998
#
# number of rings (size 3 to 8) (size 9 to 14) (size 15 to 20)
#    0.000    0.800    4.000    4.000    4.667    1.067 
#    0.000    0.000    0.000    4.000    0.000    0.000 
#    0.000    0.000    0.000    0.000    0.000    0.000 
#
# Total GULP energy -167198.312644 kJ/mol
# GULP energy per Si atom -5573.277088 kJ/mol
# Density = 2.010871 g / cm^3
# Si number density = 20.154579 Si / 1000 Ang^3
#
#
#
# Elastic Constant Matrix: (Units=GPa)
#
#
# Indices 1 2 3 4 5 6 
#
# 1 58.9901 14.3083 14.3701 0.0000 11.1549 0.0001
# 2 14.3083 94.3886 15.7066 -0.0004 3.7627 0.0000
# 3 14.3701 15.7066 108.1070 -0.0025 10.5994 0.0002
# 4 0.0000 -0.0004 -0.0025 20.5819 -0.0003 3.1380
# 5 11.1549 3.7627 10.5994 -0.0003 37.1135 0.0001
# 6 0.0001 0.0000 0.0002 3.1380 0.0001 29.1929
#
#
#
# Elastic Compliance Matrix: (Units=1/GPa)
#
#
# Indices 1 2 3 4 5 6 
#
# 1 0.018875 -0.002385 -0.001677 0.000000 -0.004953 0.000000
# 2 -0.002385 0.011174 -0.001302 0.000000 -0.000044 0.000000
# 3 -0.001677 -0.001302 0.009876 0.000001 -0.002185 0.000000
# 4 0.000000 0.000000 0.000001 0.049396 0.000000 -0.005310
# 5 -0.004953 -0.000044 -0.002185 0.000000 0.029061 0.000000
# 6 0.000000 0.000000 0.000000 -0.005310 0.000000 0.034826
#
#
# Mechanical properties :
#
#
# Convention : Reuss Voigt Hill
#
# Bulk Modulus (GPa) = 34.24845 38.91728 36.58287
# Shear Modulus (GPa) = 28.79023 31.85103 30.32063
#
# Velocity S-wave (km/s) = 3.78361 3.97966 3.88287
# Velocity P-wave (km/s) = 6.00978 6.36146 6.18812
#
# Compressibility (1/GPa) = 0.02919840
#
# Stress axis : x y z
#
# Youngs Moduli (GPa) = 52.97884 89.48973 101.25167
#
# Poissons Ratio (x) = 0.21342 0.16979
# Poissons Ratio (y) = 0.12635 0.13185
# Poissons Ratio (z) = 0.08884 0.11653
#
# Static dielectric constant tensor:
#      x y z
#    x 2.044540 -0.000350 0.091740 
#    y -0.000350 111.622680 0.001250 
#    z 0.091740 0.001250 1.743920 
# 
# From -- ./inp_files/293567.got.cif
#   From: 2010.05.17/outbox.cif.g08.bks.cpg/sg15_147_cif.got.tgz:293567.got - 2010.06.03 18:47:42.
