data_PCOD9302053
_publ_section_title
;
Structure prediction by ZEFSAII (Michael W. Deem and Ramdas Pophale) SiO2 
 PCOD9302053
Probable space group: C 2/C
;
_chemical_formula_sum "Si O2"
_cell_formula_units_Z 60
_cell_length_a 12.703283
_cell_length_b 14.476281
_cell_length_c 15.509262
_cell_angle_alpha 90.000000
_cell_angle_beta 108.202557
_cell_angle_gamma 90.000000
_cell_volume 2709.371550
_symmetry_space_group_name_H-M "C 2/C"
_symmetry_group_IT_number 15
_symmetry_cell_setting 'monoclinic'
loop_
_space_group_symop_operation_xyz
x,y,z
-x,y,1/2-z
-x,-y,-z
x,-y,1/2+z
1/2+x,1/2+y,z
1/2-x,1/2+y,1/2-z
1/2-x,1/2-y,-z
1/2+x,1/2-y,1/2+z
loop_
_atom_site_type_symbol
_atom_site_label
_atom_site_fract_x
_atom_site_fract_y
_atom_site_fract_z
Si Si1 0.012178 0.480591 0.857144
Si Si2 0.832731 0.119564 0.847409
Si Si3 0.182439 0.131360 0.927341
Si Si4 0.099419 0.342139 0.209909
Si Si5 0.614899 0.262592 0.564177
Si Si6 0.897015 0.314250 0.929107
Si Si7 0.000000 0.119855 0.750000
Si Si8 0.757696 0.549781 0.504112
O O1 0.136597 0.498213 0.923607
O O2 0.000000 0.470505 0.750000
O O3 0.946879 0.575382 0.862577
O O4 0.955276 0.394436 0.888511
O O5 0.708705 0.115442 0.779277
O O6 0.856798 0.229155 0.860890
O O7 0.825831 0.078846 0.941475
O O8 0.921548 0.075633 0.804224
O O9 0.295408 0.187333 0.945270
O O10 0.092928 0.167757 0.834969
O O11 0.140002 0.148770 0.013543
O O12 0.203630 0.023072 0.924765
O O13 0.127121 0.247054 0.168972
O O14 0.000000 0.325733 0.250000
O O15 0.491405 0.231474 0.511872
O O16 0.804371 0.361980 0.964859
#
# Coordination Sequence:
#
# PCOD9302053 Si02
#       8
#     8   8   8   8   8   8   4   8
#     4  11  22  38  72 107 135 174 238 296 342 404
#     4  12  26  44  70 100 145 185 228 289 358 423
#     4  11  25  42  72  97 138 192 230 289 340 425
#     4  11  21  42  70 101 143 182 224 297 350 407
#     4  11  21  41  69 104 135 177 236 280 352 407
#     4  12  24  40  72 106 131 179 235 293 348 415
#     4  12  26  46  66  92 144 192 228 280 364 418
#     4  12  24  44  72 100 138 182 241 288 353 415
#
# _framework density 22.145356
#
# number of rings (size 3 to 8) (size 9 to 14) (size 15 to 20)
#    0.000    0.533    8.000    1.600    0.933    1.600 
#    0.000    0.000    2.933    0.000    0.000    0.000 
#    0.000    0.000    0.000    0.000    0.000    0.000 
#
# Total GULP energy -167424.287108 kJ/mol
# GULP energy per Si atom -5580.809570 kJ/mol
# Density = 2.209495 g / cm^3
# Si number density = 22.145356 Si / 1000 Ang^3
#
#
#
# Elastic Constant Matrix: (Units=GPa)
#
#
# Indices 1 2 3 4 5 6 
#
# 1 106.6220 25.3166 14.3279 0.0000 -20.3997 0.0000
# 2 25.3166 54.9278 7.0279 0.0000 -1.1595 0.0000
# 3 14.3279 7.0279 47.4643 0.0000 -1.2276 0.0000
# 4 0.0000 0.0000 0.0000 12.3467 0.0000 -0.5139
# 5 -20.3997 -1.1595 -1.2276 0.0000 39.9753 0.0000
# 6 0.0000 0.0000 0.0000 -0.5139 0.0000 25.4758
#
#
#
# Elastic Compliance Matrix: (Units=1/GPa)
#
#
# Indices 1 2 3 4 5 6 
#
# 1 0.012094 -0.005098 -0.002742 0.000000 0.005940 0.000000
# 2 -0.005098 0.020715 -0.001581 0.000000 -0.002049 0.000000
# 3 -0.002742 -0.001581 0.022111 0.000000 -0.000766 0.000000
# 4 0.000000 0.000000 0.000000 0.081062 0.000000 0.001635
# 5 0.005940 -0.002049 -0.000766 0.000000 0.027964 0.000000
# 6 0.000000 0.000000 0.000000 0.001635 0.000000 0.039286
#
#
# Mechanical properties :
#
#
# Convention : Reuss Voigt Hill
#
# Bulk Modulus (GPa) = 27.71917 33.59544 30.65730
# Shear Modulus (GPa) = 21.35843 26.38232 23.87037
#
# Velocity S-wave (km/s) = 3.10895 3.45530 3.28669
# Velocity P-wave (km/s) = 5.04297 5.57872 5.31760
#
# Compressibility (1/GPa) = 0.03607612
#
# Stress axis : x y z
#
# Youngs Moduli (GPa) = 82.68286 48.27529 45.22710
#
# Poissons Ratio (x) = 0.24611 0.12403
# Poissons Ratio (y) = 0.42153 0.07151
# Poissons Ratio (z) = 0.22675 0.07633
#
# Static dielectric constant tensor:
#      x y z
#    x 1.858370 0.000000 0.010020 
#    y 0.000000 1.804010 0.000000 
#    z 0.010020 0.000000 1.918040 
# 
# From -- ./inp_files/198378.got.cif
#   From: 2010.05.17/outbox.cif.g08.bks.cpg/sg15_100_cif.got.tgz:198378.got - 2010.06.03 18:47:42.
