data_PCOD9302705
_publ_section_title
;
Structure prediction by ZEFSAII (Michael W. Deem and Ramdas Pophale) SiO2 
 PCOD9302705
Probable space group: C 2/C
;
_chemical_formula_sum "Si O2"
_cell_formula_units_Z 44
_cell_length_a 5.243882
_cell_length_b 28.828223
_cell_length_c 13.626943
_cell_angle_alpha 90.000000
_cell_angle_beta 68.547099
_cell_angle_gamma 90.000000
_cell_volume 1917.289010
_symmetry_space_group_name_H-M "C 2/C"
_symmetry_group_IT_number 15
_symmetry_cell_setting 'monoclinic'
loop_
_space_group_symop_operation_xyz
x,y,z
-x,y,1/2-z
-x,-y,-z
x,-y,1/2+z
1/2+x,1/2+y,z
1/2-x,1/2+y,1/2-z
1/2-x,1/2-y,-z
1/2+x,1/2-y,1/2+z
loop_
_atom_site_type_symbol
_atom_site_label
_atom_site_fract_x
_atom_site_fract_y
_atom_site_fract_z
Si Si1 0.500000 0.194488 0.250000
Si Si2 0.872148 0.853698 0.538796
Si Si3 0.973848 0.331903 0.418625
Si Si4 0.500000 0.754345 0.250000
Si Si5 0.726124 0.460083 0.971835
Si Si6 0.000000 0.409541 0.250000
Si Si7 0.276830 0.009768 0.681787
O O1 0.324021 0.163653 0.348307
O O2 0.278523 0.225056 0.221278
O O3 0.725824 0.837152 0.458068
O O4 0.884598 0.909348 0.534936
O O5 0.174863 0.832962 0.509779
O O6 0.967560 0.376129 0.346322
O O7 0.996834 0.287181 0.346325
O O8 0.971624 0.474218 0.864132
O O9 0.500000 0.500000 0.000000
O O10 0.815317 0.463509 0.072884
O O11 0.768650 0.447945 0.261808
O O12 0.000000 0.983425 0.750000
#
# Coordination Sequence:
#
# PCOD9302705 Si02
#       7
#     4   8   8   4   8   4   8
#     4  12  28  47  72 105 152 183 244 279 376 460
#     4  12  26  47  71 108 141 198 229 303 352 438
#     4  11  25  45  79 101 143 176 247 305 366 414
#     4  11  26  50  74 115 134 185 232 308 370 455
#     4  11  25  43  64 100 145 191 242 291 356 424
#     4  11  22  41  66 106 130 184 244 301 352 419
#     4  11  22  39  66  95 137 184 242 297 345 416
#
# _framework density 22.949069000000001
#
# number of rings (size 3 to 8) (size 9 to 14) (size 15 to 20)
#    0.000    0.727    1.818    5.455    2.545    8.000 
#    1.636    0.000    0.000    0.000    0.000    0.000 
#    0.000    0.000    0.000    0.000    0.000    0.000 
#
# Total GULP energy -123012.204156 kJ/mol
# GULP energy per Si atom -5591.463825 kJ/mol
# Density = 2.289684 g / cm^3
# Si number density = 22.949069 Si / 1000 Ang^3
#
#
#
# Elastic Constant Matrix: (Units=GPa)
#
#
# Indices 1 2 3 4 5 6 
#
# 1 80.1881 20.7252 -6.2500 0.0000 -17.3163 0.0000
# 2 20.7252 99.2910 17.6212 0.0000 -3.0675 0.0000
# 3 -6.2500 17.6212 73.6306 0.0000 -18.6127 0.0000
# 4 0.0000 0.0000 0.0000 23.2148 0.0000 0.4915
# 5 -17.3163 -3.0675 -18.6127 0.0000 52.0595 0.0000
# 6 0.0000 0.0000 0.0000 0.4915 0.0000 30.3240
#
#
#
# Elastic Compliance Matrix: (Units=1/GPa)
#
#
# Indices 1 2 3 4 5 6 
#
# 1 0.015002 -0.003595 0.003674 0.000000 0.006091 0.000000
# 2 -0.003595 0.011384 -0.003477 0.000000 -0.001768 0.000000
# 3 0.003674 -0.003477 0.016471 0.000000 0.006906 0.000000
# 4 0.000000 0.000000 0.000000 0.043091 0.000000 -0.000698
# 5 0.006091 -0.001768 0.006906 0.000000 0.023600 0.000000
# 6 0.000000 0.000000 0.000000 -0.000698 0.000000 0.032989
#
#
# Mechanical properties :
#
#
# Convention : Reuss Voigt Hill
#
# Bulk Modulus (GPa) = 27.73110 35.25584 31.49347
# Shear Modulus (GPa) = 30.98816 35.85388 33.42102
#
# Velocity S-wave (km/s) = 3.67863 3.95691 3.82031
# Velocity P-wave (km/s) = 5.49118 6.02264 5.76304
#
# Compressibility (1/GPa) = 0.03606060
#
# Stress axis : x y z
#
# Youngs Moduli (GPa) = 66.65952 87.84130 60.71337
#
# Poissons Ratio (x) = 0.31580 -0.22304
# Poissons Ratio (y) = 0.23965 0.21107
# Poissons Ratio (z) = -0.24488 0.30538
#
# Static dielectric constant tensor:
#      x y z
#    x 2.280930 0.000000 0.320130 
#    y 0.000000 1.797770 0.000000 
#    z 0.320130 0.000000 2.253950 
# 
# From -- ./inp_files/130005.got.cif
#   From: 2010.05.17/outbox.cif.g08.bks.cpg/sg15_66_cif.got.tgz:130005.got - 2010.06.03 18:47:42.
