data_PCOD9302148
_publ_section_title
;
Structure prediction by ZEFSAII (Michael W. Deem and Ramdas Pophale) SiO2 
 PCOD9302148
Probable space group: C 2/C
;
_chemical_formula_sum "Si O2"
_cell_formula_units_Z 56
_cell_length_a 10.879525
_cell_length_b 11.934545
_cell_length_c 18.524137
_cell_angle_alpha 90.000000
_cell_angle_beta 107.077040
_cell_angle_gamma 90.000000
_cell_volume 2299.170291
_symmetry_space_group_name_H-M "C 2/C"
_symmetry_group_IT_number 15
_symmetry_cell_setting 'monoclinic'
loop_
_space_group_symop_operation_xyz
x,y,z
-x,y,1/2-z
-x,-y,-z
x,-y,1/2+z
1/2+x,1/2+y,z
1/2-x,1/2+y,1/2-z
1/2-x,1/2-y,-z
1/2+x,1/2-y,1/2+z
loop_
_atom_site_type_symbol
_atom_site_label
_atom_site_fract_x
_atom_site_fract_y
_atom_site_fract_z
Si Si1 0.262034 0.375000 0.774068
Si Si2 0.679947 0.132101 0.509086
Si Si3 0.579138 0.382101 0.009085
Si Si4 0.934899 0.874999 0.119798
Si Si5 0.000000 0.039116 0.250000
Si Si6 0.664189 0.963773 0.382685
Si Si7 0.531504 0.786227 0.117315
Si Si8 0.500000 0.210883 0.250000
O O1 0.361507 0.402194 0.727035
O O2 0.230675 0.475274 0.825932
O O3 0.345257 0.274725 0.825932
O O4 0.115529 0.347807 0.727035
O O5 0.750000 0.250000 0.500000
O O6 0.803351 0.073546 0.567635
O O7 0.579084 0.147826 0.554848
O O8 0.630227 0.065122 0.431633
O O9 0.514283 0.323545 0.067635
O O10 0.725763 0.397826 0.054848
O O11 0.500000 0.500000 0.000000
O O12 0.551406 0.315123 0.931633
O O13 0.919591 0.781873 0.178325
O O14 0.008734 0.968125 0.178325
O O15 0.549973 0.875000 0.349946
#
# Coordination Sequence:
#
# PCOD9302148 Si02
#       8
#     8   8   8   8   4   8   8   4
#     4  12  25  50  69 100 146 187 244 304 356 423
#     4  12  20  42  72 101 140 181 222 295 373 429
#     4  12  20  42  72 101 140 181 222 295 373 429
#     4  11  21  42  69  90 132 188 230 268 360 428
#     4  11  26  44  71  94 136 198 239 286 351 424
#     4  12  25  42  73 107 140 179 235 300 365 437
#     4  12  25  42  73 107 140 179 235 300 365 437
#     4  11  26  44  71  94 136 198 239 286 351 424
#
# _framework density 24.356611999999998
#
# number of rings (size 3 to 8) (size 9 to 14) (size 15 to 20)
#    0.000    0.286    8.571    0.857    0.000    2.286 
#    2.571    0.000    0.000    0.000    0.000    0.000 
#    0.000    0.000    0.000    0.000    0.000    0.000 
#
# Total GULP energy -156277.898755 kJ/mol
# GULP energy per Si atom -5581.353527 kJ/mol
# Density = 2.430118 g / cm^3
# Si number density = 24.356612 Si / 1000 Ang^3
#
#
#
# Elastic Constant Matrix: (Units=GPa)
#
#
# Indices 1 2 3 4 5 6 
#
# 1 145.7874 48.4974 16.4069 0.0000 2.0989 0.0000
# 2 48.4974 78.0235 19.5826 0.0000 0.8721 0.0000
# 3 16.4069 19.5826 59.5009 0.0000 0.5028 0.0000
# 4 0.0000 0.0000 0.0000 1.3674 0.0000 1.4336
# 5 2.0989 0.8721 0.5028 0.0000 29.9318 0.0000
# 6 0.0000 0.0000 0.0000 1.4336 0.0000 48.9185
#
#
#
# Elastic Compliance Matrix: (Units=1/GPa)
#
#
# Indices 1 2 3 4 5 6 
#
# 1 0.008678 -0.005221 -0.000671 0.000000 -0.000445 0.000000
# 2 -0.005221 0.017115 -0.004193 0.000000 -0.000062 0.000000
# 3 -0.000671 -0.004193 0.018372 0.000000 -0.000139 0.000000
# 4 0.000000 0.000000 0.000000 0.754492 0.000000 -0.022111
# 5 -0.000445 -0.000062 -0.000139 0.000000 0.033445 0.000000
# 6 0.000000 0.000000 0.000000 -0.022111 0.000000 0.021090
#
#
# Mechanical properties :
#
#
# Convention : Reuss Voigt Hill
#
# Bulk Modulus (GPa) = 41.67232 50.25397 45.96315
# Shear Modulus (GPa) = 5.67305 29.29854 17.48580
#
# Velocity S-wave (km/s) = 1.52782 3.47205 2.68229
# Velocity P-wave (km/s) = 4.50096 6.06225 5.33898
#
# Compressibility (1/GPa) = 0.02399674
#
# Stress axis : x y z
#
# Youngs Moduli (GPa) = 115.23534 58.42962 54.42922
#
# Poissons Ratio (x) = 0.30504 0.03652
# Poissons Ratio (y) = 0.60160 0.22820
# Poissons Ratio (z) = 0.07731 0.24497
#
# Static dielectric constant tensor:
#      x y z
#    x 2.035790 0.000000 0.003030 
#    y 0.000000 2.176220 0.000000 
#    z 0.003030 0.000000 1.935280 
# 
# From -- ./inp_files/237670.got.cif
#   From: 2010.05.17/outbox.cif.g08.bks.cpg/sg15_119_cif.got.tgz:237670.got - 2010.06.03 18:47:42.
