data_PCOD9302401
_publ_section_title
;
Structure prediction by ZEFSAII (Michael W. Deem and Ramdas Pophale) SiO2 
 PCOD9302401
Probable space group: C 2/C
;
_chemical_formula_sum "Si O2"
_cell_formula_units_Z 56
_cell_length_a 13.910695
_cell_length_b 20.413298
_cell_length_c 14.315252
_cell_angle_alpha 90.000000
_cell_angle_beta 137.714082
_cell_angle_gamma 90.000000
_cell_volume 2735.059676
_symmetry_space_group_name_H-M "C 2/C"
_symmetry_group_IT_number 15
_symmetry_cell_setting 'monoclinic'
loop_
_space_group_symop_operation_xyz
x,y,z
-x,y,1/2-z
-x,-y,-z
x,-y,1/2+z
1/2+x,1/2+y,z
1/2-x,1/2+y,1/2-z
1/2-x,1/2-y,-z
1/2+x,1/2-y,1/2+z
loop_
_atom_site_type_symbol
_atom_site_label
_atom_site_fract_x
_atom_site_fract_y
_atom_site_fract_z
Si Si1 0.859966 0.392234 0.706407
Si Si2 0.541324 0.456928 0.618690
Si Si3 0.152197 0.665863 0.891334
Si Si4 0.344102 0.235770 0.421973
Si Si5 0.123607 0.187431 0.109955
Si Si6 0.232025 0.529563 0.952379
Si Si7 0.641613 0.042525 0.098185
O O1 0.729419 0.340912 0.606442
O O2 0.813766 0.462480 0.629465
O O3 0.883815 0.404183 0.835538
O O4 0.000000 0.371576 0.750000
O O5 0.500000 0.500000 0.500000
O O6 0.559573 0.379834 0.608263
O O7 0.403345 0.465436 0.584686
O O8 0.697999 0.481439 0.759867
O O9 0.281196 0.707967 0.943736
O O10 0.174348 0.594765 0.860120
O O11 0.000000 0.693500 0.750000
O O12 0.149089 0.674414 0.001745
O O13 0.227755 0.222004 0.259382
O O14 0.495641 0.262759 0.494573
O O15 0.162419 0.542652 0.001803
O O16 0.500000 0.000000 0.000000
#
# Coordination Sequence:
#
# PCOD9302401 Si02
#       7
#     8   8   8   8   8   8   8
#     4  11  23  44  68  98 137 176 227 286 350 398
#     4  11  22  41  66 100 141 179 218 274 350 413
#     4  11  22  34  61  98 137 173 215 275 339 406
#     4  11  23  41  61  96 133 176 230 267 331 403
#     4  11  23  44  67  93 133 181 226 281 332 406
#     4  12  22  40  67 100 143 175 216 279 353 415
#     4  11  23  37  61  97 137 176 216 266 339 415
#
# _framework density 20.474872000000001
#
# number of rings (size 3 to 8) (size 9 to 14) (size 15 to 20)
#    0.000    0.857    7.143    2.571    0.000    0.000 
#    2.571    0.714    0.000    0.000    0.000    0.000 
#    0.000    0.000    0.000    0.000    0.000    0.000 
#
# Total GULP energy -155878.169462 kJ/mol
# GULP energy per Si atom -5567.077481 kJ/mol
# Density = 2.042827 g / cm^3
# Si number density = 20.474872 Si / 1000 Ang^3
#
#
#
# Elastic Constant Matrix: (Units=GPa)
#
#
# Indices 1 2 3 4 5 6 
#
# 1 155.2463 29.0519 2.6181 0.0000 26.4124 0.0000
# 2 29.0519 75.8650 11.7783 0.0000 9.2567 0.0000
# 3 2.6181 11.7783 31.7554 0.0000 13.8482 0.0000
# 4 0.0000 0.0000 0.0000 18.7525 0.0000 10.0948
# 5 26.4124 9.2567 13.8482 0.0000 44.1763 0.0000
# 6 0.0000 0.0000 0.0000 10.0948 0.0000 19.6440
#
#
#
# Elastic Compliance Matrix: (Units=1/GPa)
#
#
# Indices 1 2 3 4 5 6 
#
# 1 0.007738 -0.002761 0.002492 0.000000 -0.004829 0.000000
# 2 -0.002761 0.015059 -0.005446 0.000000 0.000202 0.000000
# 3 0.002492 -0.005446 0.038755 0.000000 -0.012497 0.000000
# 4 0.000000 0.000000 0.000000 0.073720 0.000000 -0.037884
# 5 -0.004829 0.000202 -0.012497 0.000000 0.029399 0.000000
# 6 0.000000 0.000000 0.000000 -0.037884 0.000000 0.070374
#
#
# Mechanical properties :
#
#
# Convention : Reuss Voigt Hill
#
# Bulk Modulus (GPa) = 19.95133 38.86260 29.40696
# Shear Modulus (GPa) = 18.99820 31.14245 25.07032
#
# Velocity S-wave (km/s) = 3.04941 3.90424 3.50300
# Velocity P-wave (km/s) = 4.70787 6.27264 5.54572
#
# Compressibility (1/GPa) = 0.05012198
#
# Stress axis : x y z
#
# Youngs Moduli (GPa) = 129.24044 66.40388 25.80288
#
# Poissons Ratio (x) = 0.18332 -0.06430
# Poissons Ratio (y) = 0.35679 0.14053
# Poissons Ratio (z) = -0.32205 0.36165
#
# Static dielectric constant tensor:
#      x y z
#    x 1.767270 0.000000 -0.005040 
#    y 0.000000 1.790380 0.000000 
#    z -0.005040 0.000000 1.740880 
# 
# From -- ./inp_files/156240.got.cif
#   From: 2010.05.17/outbox.cif.g08.bks.cpg/sg15_79_cif.got.tgz:156240.got - 2010.06.03 18:47:42.
