data_PCOD9302617
_publ_section_title
;
Structure prediction by ZEFSAII (Michael W. Deem and Ramdas Pophale) SiO2 
 PCOD9302617
Probable space group: C 2/C
;
_chemical_formula_sum "Si O2"
_cell_formula_units_Z 48
_cell_length_a 27.548314
_cell_length_b 10.394006
_cell_length_c 9.711702
_cell_angle_alpha 90.000000
_cell_angle_beta 77.960125
_cell_angle_gamma 90.000000
_cell_volume 2719.652241
_symmetry_space_group_name_H-M "C 2/C"
_symmetry_group_IT_number 15
_symmetry_cell_setting 'monoclinic'
loop_
_space_group_symop_operation_xyz
x,y,z
-x,y,1/2-z
-x,-y,-z
x,-y,1/2+z
1/2+x,1/2+y,z
1/2-x,1/2+y,1/2-z
1/2-x,1/2-y,-z
1/2+x,1/2-y,1/2+z
loop_
_atom_site_type_symbol
_atom_site_label
_atom_site_fract_x
_atom_site_fract_y
_atom_site_fract_z
Si Si1 0.654600 0.254709 0.343243
Si Si2 0.780976 0.998410 0.642090
Si Si3 0.941255 0.873234 0.440934
Si Si4 0.662756 0.250274 0.008429
Si Si5 0.447121 0.366868 0.111788
Si Si6 0.787406 0.480448 0.564652
O O1 0.679635 0.386497 0.380830
O O2 0.665651 0.245656 0.173161
O O3 0.595627 0.265719 0.397029
O O4 0.678040 0.135519 0.408297
O O5 0.804501 0.868049 0.568359
O O6 0.760300 0.979671 0.807266
O O7 0.733989 0.034638 0.575618
O O8 0.894279 0.782238 0.497110
O O9 0.940580 0.900695 0.277365
O O10 0.996346 0.820425 0.441056
O O11 0.938033 0.005649 0.527285
O O12 0.684185 0.116056 0.941680
#
# Coordination Sequence:
#
# PCOD9302617 Si02
#       6
#     8   8   8   8   8   8
#     4  11  22  39  59  86 115 150 191 231 285 336
#     4  12  22  39  60  82 112 156 194 232 279 328
#     4   9  18  35  60  84 111 142 183 233 284 330
#     4  11  22  40  58  85 118 149 187 237 285 330
#     4   9  18  35  59  86 110 141 184 234 280 335
#     4  12  24  39  56  82 118 156 190 233 276 335
#
# _framework density 17.649315999999999
#
# number of rings (size 3 to 8) (size 9 to 14) (size 15 to 20)
#    0.000    1.333    5.000    2.000    0.000    0.000 
#    3.000    0.833    0.000    0.000    0.000    0.000 
#    0.000    0.000    0.000    0.000    0.000    0.000 
#
# Total GULP energy -133982.294559 kJ/mol
# GULP energy per Si atom -5582.595607 kJ/mol
# Density = 1.760915 g / cm^3
# Si number density = 17.649316 Si / 1000 Ang^3
#
#
#
# Elastic Constant Matrix: (Units=GPa)
#
#
# Indices 1 2 3 4 5 6 
#
# 1 89.7477 22.3213 -2.4280 0.0000 1.1605 0.0000
# 2 22.3213 55.4148 -3.5264 0.0000 3.2865 0.0000
# 3 -2.4280 -3.5264 12.5144 0.0000 -2.5692 0.0000
# 4 0.0000 0.0000 0.0000 21.7907 0.0000 -0.2875
# 5 1.1605 3.2865 -2.5692 0.0000 24.3512 0.0000
# 6 0.0000 0.0000 0.0000 -0.2875 0.0000 2.8332
#
#
#
# Elastic Compliance Matrix: (Units=1/GPa)
#
#
# Indices 1 2 3 4 5 6 
#
# 1 0.012396 -0.004937 0.001052 0.000000 0.000187 0.000000
# 2 -0.004937 0.020435 0.004377 0.000000 -0.002061 0.000000
# 3 0.001052 0.004377 0.083012 0.000000 0.008117 0.000000
# 4 0.000000 0.000000 0.000000 0.045953 0.000000 0.004663
# 5 0.000187 -0.002061 0.008117 0.000000 0.042191 0.000000
# 6 0.000000 0.000000 0.000000 0.004663 0.000000 0.353427
#
#
# Mechanical properties :
#
#
# Convention : Reuss Voigt Hill
#
# Bulk Modulus (GPa) = 8.55961 21.15676 14.85819
# Shear Modulus (GPa) = 8.39810 19.21569 13.80689
#
# Velocity S-wave (km/s) = 2.18372 3.30320 2.79998
# Velocity P-wave (km/s) = 3.34941 5.15379 4.34627
#
# Compressibility (1/GPa) = 0.11682775
#
# Stress axis : x y z
#
# Youngs Moduli (GPa) = 80.66864 48.93484 12.04644
#
# Poissons Ratio (x) = 0.24161 -0.01267
# Poissons Ratio (y) = 0.39830 -0.05273
# Poissons Ratio (z) = -0.08487 -0.21420
#
# Static dielectric constant tensor:
#      x y z
#    x 1.628050 0.000000 -0.002240 
#    y 0.000000 1.558410 0.000000 
#    z -0.002240 0.000000 1.591250 
# 
# From -- ./inp_files/68572.got.cif
#   From: 2010.05.17/outbox.cif.g08.bks.cpg/sg15_35_cif.got.tgz:68572.got - 2010.06.03 18:47:42.
