data_PCOD9302341
_publ_section_title
;
Structure prediction by ZEFSAII (Michael W. Deem and Ramdas Pophale) SiO2 
 PCOD9302341
Probable space group: C 2/C
;
_chemical_formula_sum "Si O2"
_cell_formula_units_Z 48
_cell_length_a 28.000542
_cell_length_b 9.368292
_cell_length_c 17.106290
_cell_angle_alpha 90.000000
_cell_angle_beta 29.412416
_cell_angle_gamma 90.000000
_cell_volume 2203.667257
_symmetry_space_group_name_H-M "C 2/C"
_symmetry_group_IT_number 15
_symmetry_cell_setting 'monoclinic'
loop_
_space_group_symop_operation_xyz
x,y,z
-x,y,1/2-z
-x,-y,-z
x,-y,1/2+z
1/2+x,1/2+y,z
1/2-x,1/2+y,1/2-z
1/2-x,1/2-y,-z
1/2+x,1/2-y,1/2+z
loop_
_atom_site_type_symbol
_atom_site_label
_atom_site_fract_x
_atom_site_fract_y
_atom_site_fract_z
Si Si1 0.193619 0.014039 0.390024
Si Si2 0.139369 0.703520 0.879460
Si Si3 0.770170 0.169065 0.389845
Si Si4 0.978249 0.508732 0.123154
Si Si5 0.754816 0.417300 0.976151
Si Si6 0.424500 0.252201 0.925028
O O1 0.181309 0.167019 0.369495
O O2 0.200819 0.036905 0.473176
O O3 0.291219 0.934903 0.222268
O O4 0.109769 0.900487 0.487725
O O5 0.143439 0.762527 0.784359
O O6 0.038906 0.650513 0.058683
O O7 0.750000 0.250000 0.500000
O O8 0.673726 0.189930 0.474843
O O9 0.785883 0.006848 0.392645
O O10 0.866622 0.533072 0.304092
O O11 0.024415 0.369396 0.096973
O O12 0.000000 0.500000 0.000000
O O13 0.750000 0.250000 0.000000
O O14 0.500000 0.289567 0.750000
#
# Coordination Sequence:
#
# PCOD9302341 Si02
#       6
#     8   8   8   8   8   8
#     4  11  25  44  69 101 138 184 231 288 351 423
#     4  11  24  42  72  98 138 179 238 280 349 414
#     4  11  21  46  68  97 134 188 223 283 354 417
#     4  12  25  46  70 103 138 184 236 287 342 419
#     4  12  27  44  71 101 144 181 234 289 355 419
#     4  11  24  41  73  98 140 183 233 282 352 414
#
# _framework density 21.781873999999998
#
# number of rings (size 3 to 8) (size 9 to 14) (size 15 to 20)
#    0.000    0.667    6.667    2.000    4.667    1.333 
#    0.000    1.667    0.000    0.000    0.000    0.000 
#    0.000    0.000    0.000    0.000    0.000    0.000 
#
# Total GULP energy -134206.465003 kJ/mol
# GULP energy per Si atom -5591.936042 kJ/mol
# Density = 2.173230 g / cm^3
# Si number density = 21.781874 Si / 1000 Ang^3
#
#
#
# Elastic Constant Matrix: (Units=GPa)
#
#
# Indices 1 2 3 4 5 6 
#
# 1 65.3220 32.1357 7.6026 0.0000 -7.3816 0.0000
# 2 32.1357 135.2879 8.4203 0.0001 -13.5054 0.0000
# 3 7.6026 8.4203 68.6410 0.0000 -5.9509 0.0000
# 4 0.0000 0.0001 0.0000 38.7768 0.0000 3.8938
# 5 -7.3816 -13.5054 -5.9509 0.0000 12.6326 0.0000
# 6 0.0000 0.0000 0.0000 3.8938 0.0000 46.0170
#
#
#
# Elastic Compliance Matrix: (Units=1/GPa)
#
#
# Indices 1 2 3 4 5 6 
#
# 1 0.017878 -0.003569 -0.001009 0.000000 0.006155 0.000000
# 2 -0.003569 0.008992 -0.000057 0.000000 0.007500 0.000000
# 3 -0.001009 -0.000057 0.015254 0.000000 0.006535 0.000000
# 4 0.000000 0.000000 0.000000 0.026010 0.000000 -0.002201
# 5 0.006155 0.007500 0.006535 0.000000 0.093854 0.000000
# 6 0.000000 0.000000 0.000000 -0.002201 0.000000 0.021917
#
#
# Mechanical properties :
#
#
# Convention : Reuss Voigt Hill
#
# Bulk Modulus (GPa) = 30.43900 40.61866 35.52883
# Shear Modulus (GPa) = 24.49465 34.22476 29.35971
#
# Velocity S-wave (km/s) = 3.35706 3.96820 3.67535
# Velocity P-wave (km/s) = 5.38807 6.29951 5.86153
#
# Compressibility (1/GPa) = 0.03285260
#
# Stress axis : x y z
#
# Youngs Moduli (GPa) = 55.93556 111.21234 65.55713
#
# Poissons Ratio (x) = 0.39695 0.06612
# Poissons Ratio (y) = 0.19965 0.00377
# Poissons Ratio (z) = 0.05642 0.00639
#
# Static dielectric constant tensor:
#      x y z
#    x 1.852650 0.000000 -0.036040 
#    y 0.000000 1.828290 0.000000 
#    z -0.036040 0.000000 1.815350 
# 
# From -- ./inp_files/224530.got.cif
#   From: 2010.05.17/outbox.cif.g08.bks.cpg/sg15_113_cif.got.tgz:224530.got - 2010.06.03 18:47:42.
