data_PCOD9302153
_publ_section_title
;
Structure prediction by ZEFSAII (Michael W. Deem and Ramdas Pophale) SiO2 
 PCOD9302153
Probable space group: C 2/C
;
_chemical_formula_sum "Si O2"
_cell_formula_units_Z 48
_cell_length_a 21.553868
_cell_length_b 13.810729
_cell_length_c 11.270884
_cell_angle_alpha 90.000000
_cell_angle_beta 147.096469
_cell_angle_gamma 90.000000
_cell_volume 1822.554418
_symmetry_space_group_name_H-M "C 2/C"
_symmetry_group_IT_number 15
_symmetry_cell_setting 'monoclinic'
loop_
_space_group_symop_operation_xyz
x,y,z
-x,y,1/2-z
-x,-y,-z
x,-y,1/2+z
1/2+x,1/2+y,z
1/2-x,1/2+y,1/2-z
1/2-x,1/2-y,-z
1/2+x,1/2-y,1/2+z
loop_
_atom_site_type_symbol
_atom_site_label
_atom_site_fract_x
_atom_site_fract_y
_atom_site_fract_z
Si Si1 0.579125 0.830485 0.441802
Si Si2 0.647514 0.506167 0.871488
Si Si3 0.398432 0.062795 0.786680
Si Si4 0.841664 0.907656 0.860770
Si Si5 0.611578 0.811554 0.005615
Si Si6 0.671919 0.692173 0.784436
O O1 0.452892 0.887133 0.259837
O O2 0.703142 0.886526 0.636257
O O3 0.602019 0.771273 0.601452
O O4 0.500000 0.744335 0.250000
O O5 0.622565 0.433642 0.718497
O O6 0.609588 0.608407 0.755275
O O7 0.785668 0.498419 0.091615
O O8 0.625796 0.515269 0.980794
O O9 0.380459 0.146922 0.850804
O O10 0.500000 0.000000 0.000000
O O11 0.885580 0.803652 0.976636
O O12 0.500000 0.841357 0.750000
O O13 0.729614 0.851814 0.141039
O O14 0.750000 0.750000 0.000000
#
# Coordination Sequence:
#
# PCOD9302153 Si02
#       6
#     8   8   8   8   8   8
#     4  11  22  41  65 103 143 179 233 300 365 425
#     4  12  23  43  68 102 140 182 241 294 361 425
#     4  12  23  37  70 107 133 174 238 307 353 418
#     4  11  25  44  68 100 146 188 237 299 362 434
#     4  11  24  42  66  99 142 188 236 290 364 435
#     4  11  21  42  69  95 141 189 228 289 371 436
#
# _framework density 26.336662
#
# number of rings (size 3 to 8) (size 9 to 14) (size 15 to 20)
#    0.000    0.667    6.667    3.000    0.000    1.333 
#    3.000    1.667    0.000    0.000    0.000    0.000 
#    0.000    0.000    0.000    0.000    0.000    0.000 
#
# Total GULP energy -133663.638070 kJ/mol
# GULP energy per Si atom -5569.318253 kJ/mol
# Density = 2.627672 g / cm^3
# Si number density = 26.336662 Si / 1000 Ang^3
#
#
#
# Elastic Constant Matrix: (Units=GPa)
#
#
# Indices 1 2 3 4 5 6 
#
# 1 91.5965 -3.8806 21.9747 0.0000 -36.5934 0.0000
# 2 -3.8806 51.7569 22.2576 0.0000 -14.7721 0.0000
# 3 21.9747 22.2576 192.3869 0.0000 -2.8060 0.0000
# 4 0.0000 0.0000 0.0000 35.5998 0.0000 -24.8633
# 5 -36.5934 -14.7721 -2.8060 0.0000 59.5256 0.0000
# 6 0.0000 0.0000 0.0000 -24.8633 0.0000 89.4451
#
#
#
# Elastic Compliance Matrix: (Units=1/GPa)
#
#
# Indices 1 2 3 4 5 6 
#
# 1 0.016158 0.005389 -0.002306 0.000000 0.011162 0.000000
# 2 0.005389 0.023692 -0.003225 0.000000 0.009040 0.000000
# 3 -0.002306 -0.003225 0.005806 0.000000 -0.001944 0.000000
# 4 0.000000 0.000000 0.000000 0.034857 0.000000 0.009689
# 5 0.011162 0.009040 -0.001944 0.000000 0.025813 0.000000
# 6 0.000000 0.000000 0.000000 0.009689 0.000000 0.013873
#
#
# Mechanical properties :
#
#
# Convention : Reuss Voigt Hill
#
# Bulk Modulus (GPa) = 22.03966 46.27152 34.15559
# Shear Modulus (GPa) = 36.87086 56.60664 46.73875
#
# Velocity S-wave (km/s) = 3.74569 4.64114 4.21725
# Velocity P-wave (km/s) = 5.20515 6.80644 6.05892
#
# Compressibility (1/GPa) = 0.04537276
#
# Stress axis : x y z
#
# Youngs Moduli (GPa) = 61.88749 42.20801 172.23565
#
# Poissons Ratio (x) = -0.22746 0.39723
# Poissons Ratio (y) = -0.33352 0.55540
# Poissons Ratio (z) = 0.14273 0.13611
#
# Static dielectric constant tensor:
#      x y z
#    x 2.342920 0.000000 0.085550 
#    y 0.000000 2.122330 0.000000 
#    z 0.085550 0.000000 1.905470 
# 
# From -- ./inp_files/123574.got.cif
#   From: 2010.05.17/outbox.cif.g08.bks.cpg/sg15_62_cif.got.tgz:123574.got - 2010.06.03 18:47:42.
