data_PCOD9302466
_publ_section_title
;
Structure prediction by ZEFSAII (Michael W. Deem and Ramdas Pophale) SiO2 
 PCOD9302466
Probable space group: C 2/C
;
_chemical_formula_sum "Si O2"
_cell_formula_units_Z 32
_cell_length_a 7.144404
_cell_length_b 37.275542
_cell_length_c 5.193247
_cell_angle_alpha 90.000000
_cell_angle_beta 77.211586
_cell_angle_gamma 90.000000
_cell_volume 1348.714515
_symmetry_space_group_name_H-M "C 2/C"
_symmetry_group_IT_number 15
_symmetry_cell_setting 'monoclinic'
loop_
_space_group_symop_operation_xyz
x,y,z
-x,y,1/2-z
-x,-y,-z
x,-y,1/2+z
1/2+x,1/2+y,z
1/2-x,1/2+y,1/2-z
1/2-x,1/2-y,-z
1/2+x,1/2-y,1/2+z
loop_
_atom_site_type_symbol
_atom_site_label
_atom_site_fract_x
_atom_site_fract_y
_atom_site_fract_z
Si Si1 0.266603 0.021155 0.304429
Si Si2 0.129682 0.715454 0.959058
Si Si3 0.733499 0.103066 0.198423
Si Si4 0.767421 0.643529 0.796910
O O1 0.500000 0.021239 0.250000
O O2 0.210973 0.062113 0.269416
O O3 0.205410 0.004787 0.593671
O O4 0.262083 0.682957 0.813643
O O5 0.000000 0.724599 0.750000
O O6 0.250000 0.750000 0.000000
O O7 0.000000 0.704558 0.250000
O O8 0.500000 0.103923 0.250000
O O9 0.796107 0.130186 0.404654
O O10 0.797793 0.116069 0.900497
O O11 0.000000 0.642380 0.750000
#
# Coordination Sequence:
#
# PCOD9302466 Si02
#       4
#     8   8   8   8
#     4   9  15  21  29  45  71 105 147 192 232 273
#     4  11  22  37  56  79 106 136 174 217 262 311
#     4   9  15  23  36  53  77 111 153 198 237 277
#     4   9  16  27  42  61  84 115 157 201 239 286
#
# _framework density 23.726296999999999
#
# number of rings (size 3 to 8) (size 9 to 14) (size 15 to 20)
#    0.000    2.500    0.000    6.000    0.000    6.000 
#    0.000    0.000    0.000    0.000    0.000    0.000 
#    0.000    0.000    0.000    0.000    0.000   87.500 
#
# Total GULP energy -89451.060737 kJ/mol
# GULP energy per Si atom -5590.691296 kJ/mol
# Density = 2.367230 g / cm^3
# Si number density = 23.726297 Si / 1000 Ang^3
#
#
#
# Elastic Constant Matrix: (Units=GPa)
#
#
# Indices 1 2 3 4 5 6 
#
# 1 96.7224 27.1542 46.7485 0.0000 -7.8045 0.0000
# 2 27.1542 149.5690 57.4989 0.0000 -3.5597 0.0000
# 3 46.7485 57.4989 162.5628 0.0000 17.4573 0.0000
# 4 0.0000 0.0000 0.0000 44.6044 0.0000 6.4494
# 5 -7.8045 -3.5597 17.4573 0.0000 17.7953 0.0000
# 6 0.0000 0.0000 0.0000 6.4494 0.0000 -39.7600
#
#
#
# Elastic Compliance Matrix: (Units=1/GPa)
#
#
# Indices 1 2 3 4 5 6 
#
# 1 0.013720 -0.000309 -0.005003 0.000000 0.010863 0.000000
# 2 -0.000309 0.008119 -0.003289 0.000000 0.004715 0.000000
# 3 -0.005003 -0.003289 0.010127 0.000000 -0.012786 0.000000
# 4 0.000000 0.000000 0.000000 0.021906 0.000000 0.003553
# 5 0.010863 0.004715 -0.012786 0.000000 0.074445 0.000000
# 6 0.000000 0.000000 0.000000 0.003553 0.000000 -0.024575
#
#
# Mechanical properties :
#
#
# Convention : Reuss Voigt Hill
#
# Bulk Modulus (GPa) = 67.73463 74.62860 71.18161
# Shear Modulus (GPa) = 39.72518 23.02476 31.37497
#
# Velocity S-wave (km/s) = 4.09627 3.11856 3.64039
# Velocity P-wave (km/s) = 7.14023 6.67004 6.90914
#
# Compressibility (1/GPa) = 0.01476350
#
# Stress axis : x y z
#
# Youngs Moduli (GPa) = 72.88542 123.17370 98.75043
#
# Poissons Ratio (x) = 0.03808 0.49403
# Poissons Ratio (y) = 0.02253 0.32479
# Poissons Ratio (z) = 0.36463 0.40512
#
# Static dielectric constant tensor:
#      x y z
#    x 2.028000 0.000000 -0.007000 
#    y 0.000000 1.877780 0.000000 
#    z -0.007000 0.000000 1.836130 
# 
# From -- ./inp_files/2659.got.cif
#   From: 2010.05.17/outbox.cif.g08.bks.cpg/sg15_2_cif.got.tgz:2659.got - 2010.06.03 18:47:42.
