data_PCOD9302140
_publ_section_title
;
Structure prediction by ZEFSAII (Michael W. Deem and Ramdas Pophale) SiO2 
 PCOD9302140
Probable space group: C 2/C
;
_chemical_formula_sum "Si O2"
_cell_formula_units_Z 48
_cell_length_a 12.515965
_cell_length_b 16.259803
_cell_length_c 13.882217
_cell_angle_alpha 90.000000
_cell_angle_beta 43.178864
_cell_angle_gamma 90.000000
_cell_volume 1933.174775
_symmetry_space_group_name_H-M "C 2/C"
_symmetry_group_IT_number 15
_symmetry_cell_setting 'monoclinic'
loop_
_space_group_symop_operation_xyz
x,y,z
-x,y,1/2-z
-x,-y,-z
x,-y,1/2+z
1/2+x,1/2+y,z
1/2-x,1/2+y,1/2-z
1/2-x,1/2-y,-z
1/2+x,1/2-y,1/2+z
loop_
_atom_site_type_symbol
_atom_site_label
_atom_site_fract_x
_atom_site_fract_y
_atom_site_fract_z
Si Si1 0.633820 0.152459 0.786535
Si Si2 0.902146 0.196384 0.908145
Si Si3 0.757254 0.068655 0.886625
Si Si4 0.575029 0.285664 0.499038
Si Si5 0.567131 0.962740 0.804271
Si Si6 0.406662 0.446355 0.643030
O O1 0.731943 0.137937 0.820862
O O2 0.479836 0.202946 0.913428
O O3 0.605835 0.059873 0.769007
O O4 0.743481 0.202963 0.642507
O O5 0.844621 0.103610 0.922287
O O6 0.000000 0.219330 0.750000
O O7 0.750000 0.250000 0.000000
O O8 0.986838 0.209781 0.953175
O O9 0.857581 0.999442 0.767918
O O10 0.580161 0.043902 0.027729
O O11 0.509756 0.366527 0.595346
O O12 0.500000 0.928238 0.750000
O O13 0.731591 0.921298 0.722089
O O14 0.500000 0.500000 0.500000
#
# Coordination Sequence:
#
# PCOD9302140 Si02
#       6
#     8   8   8   8   8   8
#     4  11  24  42  63  96 129 173 222 269 327 404
#     4  12  22  39  61 101 138 166 214 272 330 398
#     4  11  23  41  64  98 134 173 219 270 330 402
#     4  12  23  40  67  93 133 173 217 270 336 393
#     4  11  25  45  67  93 134 176 228 273 329 392
#     4  11  21  42  68  93 129 176 218 270 335 394
#
# _framework density 24.829622000000001
#
# number of rings (size 3 to 8) (size 9 to 14) (size 15 to 20)
#    0.000    0.667    6.667    3.000    4.667    2.000 
#    0.000    0.833    0.000    0.000    0.000    0.000 
#    0.000    0.000    0.000    0.000    0.000    0.000 
#
# Total GULP energy -134382.829568 kJ/mol
# GULP energy per Si atom -5599.284565 kJ/mol
# Density = 2.477311 g / cm^3
# Si number density = 24.829622 Si / 1000 Ang^3
#
#
#
# Elastic Constant Matrix: (Units=GPa)
#
#
# Indices 1 2 3 4 5 6 
#
# 1 74.2372 -18.0755 4.0010 -0.0001 -4.5229 0.0001
# 2 -18.0755 28.7582 4.8301 -0.0001 5.3616 0.0001
# 3 4.0010 4.8301 172.2664 -0.0001 -7.9545 0.0001
# 4 -0.0001 -0.0001 -0.0001 58.3454 0.0001 -6.9091
# 5 -4.5229 5.3616 -7.9545 0.0001 21.2305 -0.0001
# 6 0.0001 0.0001 0.0001 -6.9091 -0.0001 7.8754
#
#
#
# Elastic Compliance Matrix: (Units=1/GPa)
#
#
# Indices 1 2 3 4 5 6 
#
# 1 0.015986 0.010033 -0.000623 0.000000 0.000638 0.000000
# 2 0.010033 0.043160 -0.001880 0.000000 -0.009467 0.000000
# 3 -0.000623 -0.001880 0.005992 0.000000 0.002587 0.000000
# 4 0.000000 0.000000 0.000000 0.019126 0.000000 0.016780
# 5 0.000638 -0.009467 0.002587 0.000000 0.050598 0.000000
# 6 0.000000 0.000000 0.000000 0.016780 0.000000 0.141699
#
#
# Mechanical properties :
#
#
# Convention : Reuss Voigt Hill
#
# Bulk Modulus (GPa) = 12.46936 28.53033 20.49985
# Shear Modulus (GPa) = 17.34709 36.45732 26.90221
#
# Velocity S-wave (km/s) = 2.64606 3.83600 3.29518
# Velocity P-wave (km/s) = 3.79056 5.57989 4.76988
#
# Compressibility (1/GPa) = 0.08019656
#
# Stress axis : x y z
#
# Youngs Moduli (GPa) = 62.55581 23.16980 166.89995
#
# Poissons Ratio (x) = -0.23247 0.10400
# Poissons Ratio (y) = -0.62764 0.31382
# Poissons Ratio (z) = 0.03898 0.04357
#
# Static dielectric constant tensor:
#      x y z
#    x 2.032580 0.000000 0.002930 
#    y 0.000000 1.992680 0.000000 
#    z 0.002930 0.000000 1.975280 
# 
# From -- ./inp_files/206394.got.cif
#   From: 2010.05.17/outbox.cif.g08.bks.cpg/sg15_104_cif.got.tgz:206394.got - 2010.06.03 18:47:42.
