data_PCOD9302681
_publ_section_title
;
Structure prediction by ZEFSAII (Michael W. Deem and Ramdas Pophale) SiO2 
 PCOD9302681
Probable space group: C 2/C
;
_chemical_formula_sum "Si O2"
_cell_formula_units_Z 28
_cell_length_a 10.428774
_cell_length_b 11.877620
_cell_length_c 9.782554
_cell_angle_alpha 90.000000
_cell_angle_beta 110.829239
_cell_angle_gamma 90.000000
_cell_volume 1132.560253
_symmetry_space_group_name_H-M "C 2/C"
_symmetry_group_IT_number 15
_symmetry_cell_setting 'monoclinic'
loop_
_space_group_symop_operation_xyz
x,y,z
-x,y,1/2-z
-x,-y,-z
x,-y,1/2+z
1/2+x,1/2+y,z
1/2-x,1/2+y,1/2-z
1/2-x,1/2-y,-z
1/2+x,1/2-y,1/2+z
loop_
_atom_site_type_symbol
_atom_site_label
_atom_site_fract_x
_atom_site_fract_y
_atom_site_fract_z
Si Si1 0.597492 0.488135 0.666351
Si Si2 0.871463 0.474669 0.120799
Si Si3 0.780457 0.314373 0.871057
Si Si4 0.500000 0.804995 0.750000
O O1 0.500000 0.532912 0.750000
O O2 0.500000 0.500000 0.500000
O O3 0.739000 0.541166 0.665616
O O4 0.650356 0.363912 0.738894
O O5 0.000000 0.422252 0.250000
O O6 0.902313 0.607937 0.129360
O O7 0.849111 0.426984 0.962381
O O8 0.893235 0.254986 0.817604
O O9 0.750000 0.250000 0.000000
#
# Coordination Sequence:
#
# PCOD9302681 Si02
#       4
#     8   8   8   4
#     4  11  22  40  68 103 137 182 235 290 355 421
#     4   9  20  38  68  95 129 183 247 275 338 435
#     4  11  22  39  65 102 142 179 228 302 359 411
#     4   8  20  38  66  90 126 182 240 266 338 434
#
# _framework density 24.722746000000001
#
# number of rings (size 3 to 8) (size 9 to 14) (size 15 to 20)
#    0.857    1.143    2.857    0.857    0.000    1.143 
#    2.571    0.000    0.000    6.857    0.000    0.000 
#    0.000    0.000    0.000    0.000    0.000    0.000 
#
# Total GULP energy -78025.992045 kJ/mol
# GULP energy per Si atom -5573.285146 kJ/mol
# Density = 2.466648 g / cm^3
# Si number density = 24.722746 Si / 1000 Ang^3
#
#
#
# Elastic Constant Matrix: (Units=GPa)
#
#
# Indices 1 2 3 4 5 6 
#
# 1 265.4268 39.7867 88.2661 0.0000 -35.1777 0.0000
# 2 39.7867 47.9932 27.9573 0.0000 -10.5357 0.0000
# 3 88.2661 27.9573 179.3205 0.0000 -6.0684 0.0000
# 4 0.0000 0.0000 0.0000 38.6079 0.0000 -22.2479
# 5 -35.1777 -10.5357 -6.0684 0.0000 63.9484 0.0000
# 6 0.0000 0.0000 0.0000 -22.2479 0.0000 30.1288
#
#
#
# Elastic Compliance Matrix: (Units=1/GPa)
#
#
# Indices 1 2 3 4 5 6 
#
# 1 0.005126 -0.002573 -0.002047 0.000000 0.002201 0.000000
# 2 -0.002573 0.024993 -0.002547 0.000000 0.002460 0.000000
# 3 -0.002047 -0.002547 0.006951 0.000000 -0.000886 0.000000
# 4 0.000000 0.000000 0.000000 0.045087 0.000000 0.033293
# 5 0.002201 0.002460 -0.000886 0.000000 0.017170 0.000000
# 6 0.000000 0.000000 0.000000 0.033293 0.000000 0.057775
#
#
# Mechanical properties :
#
#
# Convention : Reuss Voigt Hill
#
# Bulk Modulus (GPa) = 43.98377 89.41786 66.70081
# Shear Modulus (GPa) = 27.93048 48.98572 38.45810
#
# Velocity S-wave (km/s) = 3.36482 4.45612 3.94836
# Velocity P-wave (km/s) = 5.73807 7.91977 6.91550
#
# Compressibility (1/GPa) = 0.02273566
#
# Stress axis : x y z
#
# Youngs Moduli (GPa) = 195.08866 40.01072 143.85547
#
# Poissons Ratio (x) = 0.10297 0.29452
# Poissons Ratio (y) = 0.50205 0.36635
# Poissons Ratio (z) = 0.39942 0.10189
#
# Static dielectric constant tensor:
#      x y z
#    x 2.132220 0.000000 -0.126640 
#    y 0.000000 2.166200 0.000000 
#    z -0.126640 0.000000 2.020590 
# 
# From -- ./inp_files/27745.got.cif
#   From: 2010.05.17/outbox.cif.g08.bks.cpg/sg15_14_cif.got.tgz:27745.got - 2010.06.03 18:47:42.
