data_PCOD9302345
_publ_section_title
;
Structure prediction by ZEFSAII (Michael W. Deem and Ramdas Pophale) SiO2 
 PCOD9302345
Probable space group: C 2/C
;
_chemical_formula_sum "Si O2"
_cell_formula_units_Z 48
_cell_length_a 15.049112
_cell_length_b 9.597138
_cell_length_c 17.424505
_cell_angle_alpha 90.000000
_cell_angle_beta 91.468820
_cell_angle_gamma 90.000000
_cell_volume 2515.766562
_symmetry_space_group_name_H-M "C 2/C"
_symmetry_group_IT_number 15
_symmetry_cell_setting 'monoclinic'
loop_
_space_group_symop_operation_xyz
x,y,z
-x,y,1/2-z
-x,-y,-z
x,-y,1/2+z
1/2+x,1/2+y,z
1/2-x,1/2+y,1/2-z
1/2-x,1/2-y,-z
1/2+x,1/2-y,1/2+z
loop_
_atom_site_type_symbol
_atom_site_label
_atom_site_fract_x
_atom_site_fract_y
_atom_site_fract_z
Si Si1 0.501021 0.332336 0.505731
Si Si2 0.684210 0.754504 0.570712
Si Si3 0.181557 0.256185 0.928581
Si Si4 0.059721 0.777396 0.827362
Si Si5 0.203764 0.461904 0.334881
Si Si6 0.727050 0.485653 0.833109
O O1 0.500000 0.500000 0.500000
O O2 0.586488 0.728118 0.537346
O O3 0.586158 0.274890 0.463444
O O4 0.496359 0.291646 0.595495
O O5 0.750000 0.750000 0.500000
O O6 0.717550 0.631568 0.627074
O O7 0.703142 0.899565 0.613552
O O8 0.186865 0.403965 0.886621
O O9 0.207002 0.134981 0.869233
O O10 0.250000 0.250000 0.000000
O O11 0.116372 0.634834 0.829801
O O12 0.000000 0.787109 0.750000
O O13 0.135428 0.897458 0.830370
O O14 0.233769 0.503463 0.250744
#
# Coordination Sequence:
#
# PCOD9302345 Si02
#       6
#     8   8   8   8   8   8
#     4  12  24  44  71 100 130 177 231 279 331 403
#     4  11  21  46  70  94 135 176 224 274 331 398
#     4  12  26  42  70 104 132 174 229 276 333 403
#     4  11  26  45  66  98 137 178 222 277 344 397
#     4  11  25  44  66 100 138 175 218 278 341 394
#     4  11  24  45  69  98 137 181 219 276 339 402
#
# _framework density 19.079671000000001
#
# number of rings (size 3 to 8) (size 9 to 14) (size 15 to 20)
#    0.000    0.667    5.000    4.000    7.000    2.000 
#    0.000    2.500    0.000    0.000    0.000    0.000 
#    0.000    0.000    0.000    0.000    0.000    0.000 
#
# Total GULP energy -134284.939219 kJ/mol
# GULP energy per Si atom -5595.205801 kJ/mol
# Density = 1.903624 g / cm^3
# Si number density = 19.079671 Si / 1000 Ang^3
#
#
#
# Elastic Constant Matrix: (Units=GPa)
#
#
# Indices 1 2 3 4 5 6 
#
# 1 90.5502 -8.5189 12.0290 0.0000 9.5418 0.0000
# 2 -8.5189 51.2881 -15.3147 0.0000 4.2958 0.0000
# 3 12.0290 -15.3147 97.2898 0.0000 -3.5918 0.0000
# 4 0.0000 0.0000 0.0000 41.8987 0.0000 3.9349
# 5 9.5418 4.2958 -3.5918 0.0000 48.7907 0.0000
# 6 0.0000 0.0000 0.0000 3.9349 0.0000 15.2892
#
#
#
# Elastic Compliance Matrix: (Units=1/GPa)
#
#
# Indices 1 2 3 4 5 6 
#
# 1 0.011643 0.001771 -0.001254 0.000000 -0.002525 0.000000
# 2 0.001771 0.020849 0.002991 0.000000 -0.001962 0.000000
# 3 -0.001254 0.002991 0.010933 0.000000 0.000787 0.000000
# 4 0.000000 0.000000 0.000000 0.024458 0.000000 -0.006295
# 5 -0.002525 -0.001962 0.000787 0.000000 0.021220 0.000000
# 6 0.000000 0.000000 0.000000 -0.006295 0.000000 0.067026
#
#
# Mechanical properties :
#
#
# Convention : Reuss Voigt Hill
#
# Bulk Modulus (GPa) = 19.82541 23.94658 21.88600
# Shear Modulus (GPa) = 30.13356 37.92458 34.02907
#
# Velocity S-wave (km/s) = 3.97842 4.46319 4.22776
# Velocity P-wave (km/s) = 5.61402 6.25606 5.94371
#
# Compressibility (1/GPa) = 0.05044032
#
# Stress axis : x y z
#
# Youngs Moduli (GPa) = 85.88940 47.96364 91.46280
#
# Poissons Ratio (x) = -0.08494 0.11469
# Poissons Ratio (y) = -0.15210 -0.27352
# Poissons Ratio (z) = 0.10771 -0.14344
#
# Static dielectric constant tensor:
#      x y z
#    x 1.623890 0.000000 -0.005610 
#    y 0.000000 1.642630 0.000000 
#    z -0.005610 0.000000 1.633830 
# 
# From -- ./inp_files/202992.got.cif
#   From: 2010.05.17/outbox.cif.g08.bks.cpg/sg15_102_cif.got.tgz:202992.got - 2010.06.03 18:47:42.
