data_PCOD9302225
_publ_section_title
;
Structure prediction by ZEFSAII (Michael W. Deem and Ramdas Pophale) SiO2 
 PCOD9302225
Probable space group: C 2/C
;
_chemical_formula_sum "Si O2"
_cell_formula_units_Z 48
_cell_length_a 9.584555
_cell_length_b 14.560463
_cell_length_c 26.453549
_cell_angle_alpha 90.000000
_cell_angle_beta 139.480766
_cell_angle_gamma 90.000000
_cell_volume 2398.535450
_symmetry_space_group_name_H-M "C 2/C"
_symmetry_group_IT_number 15
_symmetry_cell_setting 'monoclinic'
loop_
_space_group_symop_operation_xyz
x,y,z
-x,y,1/2-z
-x,-y,-z
x,-y,1/2+z
1/2+x,1/2+y,z
1/2-x,1/2+y,1/2-z
1/2-x,1/2-y,-z
1/2+x,1/2-y,1/2+z
loop_
_atom_site_type_symbol
_atom_site_label
_atom_site_fract_x
_atom_site_fract_y
_atom_site_fract_z
Si Si1 0.742198 0.311167 0.181999
Si Si2 0.947471 0.765140 0.013864
Si Si3 0.130681 0.010101 0.170345
Si Si4 0.849050 0.399837 0.826807
Si Si5 0.812750 0.937402 0.924559
Si Si6 0.827550 0.573622 0.435293
O O1 0.634231 0.315128 0.097083
O O2 0.648268 0.400588 0.183721
O O3 0.669644 0.211146 0.182231
O O4 0.000000 0.314597 0.250000
O O5 0.052948 0.670678 0.025029
O O6 0.750000 0.750000 0.000000
O O7 0.881411 0.831193 0.950231
O O8 0.233911 0.058688 0.246771
O O9 0.240488 0.033026 0.147068
O O10 0.891429 0.049386 0.096766
O O11 0.761372 0.426934 0.857694
O O12 0.091307 0.438107 0.894424
O O13 0.000000 0.000000 0.000000
O O14 0.000000 0.500000 0.500000
#
# Coordination Sequence:
#
# PCOD9302225 Si02
#       6
#     8   8   8   8   8   8
#     4  11  22  42  69  91 129 179 216 256 332 393
#     4  11  21  43  70  94 126 178 216 263 325 395
#     4  12  25  42  64 102 130 165 221 275 323 383
#     4  11  24  45  66  92 133 178 216 266 327 401
#     4  12  23  40  69  98 129 169 222 269 324 385
#     4  11  23  42  68  94 130 171 220 264 329 388
#
# _framework density 20.012212000000002
#
# number of rings (size 3 to 8) (size 9 to 14) (size 15 to 20)
#    0.000    0.667    5.000    6.000    0.000    0.667 
#    3.000    1.667    0.000    0.000    0.000    0.000 
#    0.000    0.000    0.000    0.000    0.000    0.000 
#
# Total GULP energy -133946.818694 kJ/mol
# GULP energy per Si atom -5581.117446 kJ/mol
# Density = 1.996666 g / cm^3
# Si number density = 20.012212 Si / 1000 Ang^3
#
#
#
# Elastic Constant Matrix: (Units=GPa)
#
#
# Indices 1 2 3 4 5 6 
#
# 1 53.8230 26.5960 -5.8497 0.0000 14.7532 0.0000
# 2 26.5960 132.6678 28.3866 0.0000 -7.6370 0.0000
# 3 -5.8497 28.3866 74.6459 0.0000 4.8856 0.0000
# 4 0.0000 0.0000 0.0000 39.3642 0.0000 -2.5791
# 5 14.7532 -7.6370 4.8856 0.0000 52.0053 0.0000
# 6 0.0000 0.0000 0.0000 -2.5791 0.0000 32.9021
#
#
#
# Elastic Compliance Matrix: (Units=1/GPa)
#
#
# Indices 1 2 3 4 5 6 
#
# 1 0.024619 -0.006476 0.004942 0.000000 -0.008399 0.000000
# 2 -0.006476 0.010028 -0.004566 0.000000 0.003739 0.000000
# 3 0.004942 -0.004566 0.015753 0.000000 -0.003552 0.000000
# 4 0.000000 0.000000 0.000000 0.025535 0.000000 0.002002
# 5 -0.008399 0.003739 -0.003552 0.000000 0.022494 0.000000
# 6 0.000000 0.000000 0.000000 0.002002 0.000000 0.030550
#
#
# Mechanical properties :
#
#
# Convention : Reuss Voigt Hill
#
# Bulk Modulus (GPa) = 26.17842 39.93360 33.05601
# Shear Modulus (GPa) = 32.48598 38.98792 35.73695
#
# Velocity S-wave (km/s) = 4.03340 4.41864 4.23041
# Velocity P-wave (km/s) = 5.89921 6.78457 6.35732
#
# Compressibility (1/GPa) = 0.03819940
#
# Stress axis : x y z
#
# Youngs Moduli (GPa) = 40.61900 99.72013 63.48146
#
# Poissons Ratio (x) = 0.64582 -0.31372
# Poissons Ratio (y) = 0.26306 0.28984
# Poissons Ratio (z) = -0.20073 0.45530
#
# Static dielectric constant tensor:
#      x y z
#    x 1.716380 0.000000 0.035540 
#    y 0.000000 1.763810 0.000000 
#    z 0.035540 0.000000 1.714420 
# 
# From -- ./inp_files/289069.got.cif
#   From: 2010.05.17/outbox.cif.g08.bks.cpg/sg15_145_cif.got.tgz:289069.got - 2010.06.03 18:47:42.
