data_PCOD9302492
_publ_section_title
;
Structure prediction by ZEFSAII (Michael W. Deem and Ramdas Pophale) SiO2 
 PCOD9302492
Probable space group: C 2/C
;
_chemical_formula_sum "Si O2"
_cell_formula_units_Z 48
_cell_length_a 17.562010
_cell_length_b 7.257195
_cell_length_c 18.380206
_cell_angle_alpha 90.000000
_cell_angle_beta 49.177632
_cell_angle_gamma 90.000000
_cell_volume 1772.719508
_symmetry_space_group_name_H-M "C 2/C"
_symmetry_group_IT_number 15
_symmetry_cell_setting 'monoclinic'
loop_
_space_group_symop_operation_xyz
x,y,z
-x,y,1/2-z
-x,-y,-z
x,-y,1/2+z
1/2+x,1/2+y,z
1/2-x,1/2+y,1/2-z
1/2-x,1/2-y,-z
1/2+x,1/2-y,1/2+z
loop_
_atom_site_type_symbol
_atom_site_label
_atom_site_fract_x
_atom_site_fract_y
_atom_site_fract_z
Si Si1 0.250598 0.103738 0.847789
Si Si2 0.174582 0.112391 0.586643
Si Si3 0.994596 0.809889 0.104944
Si Si4 0.966050 0.231676 0.469791
Si Si5 0.770859 0.786480 0.294836
Si Si6 0.910098 0.269615 0.358052
O O1 0.283765 0.156855 0.745048
O O2 0.339369 0.112214 0.850510
O O3 0.219974 0.892630 0.859061
O O4 0.150330 0.211868 0.931774
O O5 0.250000 0.250000 0.500000
O O6 0.068799 0.200870 0.627065
O O7 0.209382 0.085801 0.648205
O O8 0.159067 0.901424 0.572708
O O9 0.885178 0.747613 0.198418
O O10 0.993191 0.030086 0.083229
O O11 0.020830 0.714961 0.010855
O O12 0.959273 0.351156 0.400385
O O13 0.000000 0.198898 0.250000
#
# Coordination Sequence:
#
# PCOD9302492 Si02
#       6
#     8   8   8   8   8   8
#     4  11  24  41  65  93 126 165 213 267 318 379
#     4  11  22  37  62  91 126 167 207 252 308 375
#     4   9  19  36  61  89 121 162 204 253 309 369
#     4   9  19  39  64  89 121 164 208 253 311 374
#     4  11  22  39  62  89 123 163 210 261 315 375
#     4  11  23  40  64  95 130 168 209 259 316 376
#
# _framework density 27.07704
#
# number of rings (size 3 to 8) (size 9 to 14) (size 15 to 20)
#    0.000    1.667    0.000    6.000    0.000    6.667 
#    0.000    0.000    0.000   11.000    0.000    0.000 
#    0.000    0.000    0.000    0.000    0.000    0.000 
#
# Total GULP energy -134173.563974 kJ/mol
# GULP energy per Si atom -5590.565166 kJ/mol
# Density = 2.701541 g / cm^3
# Si number density = 27.077040 Si / 1000 Ang^3
#
#
#
# Elastic Constant Matrix: (Units=GPa)
#
#
# Indices 1 2 3 4 5 6 
#
# 1 159.4021 27.7749 59.9118 0.0001 34.0680 -0.0001
# 2 27.7749 41.0910 14.8812 0.0001 3.5564 -0.0004
# 3 59.9118 14.8812 108.0380 0.0000 27.4021 -0.0001
# 4 0.0001 0.0001 0.0000 29.6274 0.0000 14.1965
# 5 34.0680 3.5564 27.4021 0.0000 60.9586 0.0001
# 6 -0.0001 -0.0004 -0.0001 14.1965 0.0001 37.2994
#
#
#
# Elastic Compliance Matrix: (Units=1/GPa)
#
#
# Indices 1 2 3 4 5 6 
#
# 1 0.009112 -0.004574 -0.003611 0.000000 -0.003203 0.000000
# 2 -0.004574 0.027911 -0.001742 0.000000 0.001711 0.000000
# 3 -0.003611 -0.001742 0.012371 0.000000 -0.003442 0.000000
# 4 0.000000 0.000000 0.000000 0.041281 0.000000 -0.015712
# 5 -0.003203 0.001711 -0.003442 0.000000 0.019642 0.000000
# 6 0.000000 0.000000 0.000000 -0.015712 0.000000 0.032790
#
#
# Mechanical properties :
#
#
# Convention : Reuss Voigt Hill
#
# Bulk Modulus (GPa) = 33.85197 57.07412 45.46304
# Shear Modulus (GPa) = 28.93392 39.30796 34.12094
#
# Velocity S-wave (km/s) = 3.27246 3.81426 3.55370
# Velocity P-wave (km/s) = 5.17763 6.36571 5.80216
#
# Compressibility (1/GPa) = 0.02954038
#
# Stress axis : x y z
#
# Youngs Moduli (GPa) = 109.74478 35.82833 80.83362
#
# Poissons Ratio (x) = 0.16389 0.29187
# Poissons Ratio (y) = 0.50201 0.14079
# Poissons Ratio (z) = 0.39625 0.06240
#
# Static dielectric constant tensor:
#      x y z
#    x 2.239700 0.000000 0.077160 
#    y 0.000000 2.171400 0.000000 
#    z 0.077160 0.000000 2.181300 
# 
# From -- ./inp_files/213744.got.cif
#   From: 2010.05.17/outbox.cif.g08.bks.cpg/sg15_107_cif.got.tgz:213744.got - 2010.06.03 18:47:42.
