data_PCOD9302263
_publ_section_title
;
Structure prediction by ZEFSAII (Michael W. Deem and Ramdas Pophale) SiO2 
 PCOD9302263
Probable space group: C 2/C
;
_chemical_formula_sum "Si O2"
_cell_formula_units_Z 48
_cell_length_a 13.986674
_cell_length_b 14.710089
_cell_length_c 18.421667
_cell_angle_alpha 90.000000
_cell_angle_beta 28.504288
_cell_angle_gamma 90.000000
_cell_volume 1808.762055
_symmetry_space_group_name_H-M "C 2/C"
_symmetry_group_IT_number 15
_symmetry_cell_setting 'monoclinic'
loop_
_space_group_symop_operation_xyz
x,y,z
-x,y,1/2-z
-x,-y,-z
x,-y,1/2+z
1/2+x,1/2+y,z
1/2-x,1/2+y,1/2-z
1/2-x,1/2-y,-z
1/2+x,1/2-y,1/2+z
loop_
_atom_site_type_symbol
_atom_site_label
_atom_site_fract_x
_atom_site_fract_y
_atom_site_fract_z
Si Si1 0.186304 0.331273 0.945795
Si Si2 0.342547 0.134327 0.191960
Si Si3 0.271512 0.069222 0.711254
Si Si4 0.283695 0.622571 0.907696
Si Si5 0.449365 0.354857 0.011540
Si Si6 0.716749 0.037645 0.561733
O O1 0.177399 0.222566 0.946454
O O2 0.245543 0.386866 0.977687
O O3 0.962389 0.366157 0.084487
O O4 0.271821 0.351522 0.808728
O O5 0.182234 0.168340 0.355876
O O6 0.348798 0.025065 0.193279
O O7 0.566930 0.172343 0.048608
O O8 0.216843 0.057621 0.663781
O O9 0.120596 0.124526 0.861396
O O10 0.500000 0.670092 0.750000
O O11 0.257783 0.558493 0.995237
O O12 0.389244 0.443917 0.005714
O O13 0.500000 0.043435 0.750000
#
# Coordination Sequence:
#
# PCOD9302263 Si02
#       6
#     8   8   8   8   8   8
#     4  11  22  42  63  98 145 185 214 278 338 415
#     4  11  22  41  68  89 134 185 232 273 334 398
#     4  11  21  44  64  92 139 182 233 277 326 411
#     4  11  23  42  68  95 130 183 231 285 332 386
#     4  12  25  38  68 104 137 181 228 275 349 407
#     4  12  23  40  63 102 148 177 221 266 333 425
#
# _framework density 26.537488
#
# number of rings (size 3 to 8) (size 9 to 14) (size 15 to 20)
#    0.000    0.667    5.000    4.000    0.000    1.333 
#    0.000    0.000    0.000   16.000    0.000    0.000 
#    0.000    0.000    0.000    0.000    0.000    0.000 
#
# Total GULP energy -134019.833928 kJ/mol
# GULP energy per Si atom -5584.159747 kJ/mol
# Density = 2.647709 g / cm^3
# Si number density = 26.537488 Si / 1000 Ang^3
#
#
#
# Elastic Constant Matrix: (Units=GPa)
#
#
# Indices 1 2 3 4 5 6 
#
# 1 78.2248 -1.7047 27.0497 0.0154 1.0256 -0.0019
# 2 -1.7047 35.2423 -12.3288 0.0235 14.1432 -0.0155
# 3 27.0497 -12.3288 161.7149 0.0913 -16.7264 -0.0283
# 4 0.0154 0.0235 0.0913 11.0137 -0.0116 11.6803
# 5 1.0256 14.1432 -16.7264 -0.0116 47.0780 0.0024
# 6 -0.0019 -0.0155 -0.0283 11.6803 0.0024 28.6806
#
#
#
# Elastic Compliance Matrix: (Units=1/GPa)
#
#
# Indices 1 2 3 4 5 6 
#
# 1 0.013631 0.000324 -0.002384 0.000000 -0.001241 -0.000001
# 2 0.000324 0.032633 0.001473 -0.000199 -0.009287 0.000101
# 3 -0.002384 0.001473 0.006908 -0.000110 0.002064 0.000052
# 4 0.000000 -0.000199 -0.000110 0.159828 0.000063 -0.065091
# 5 -0.001241 -0.009287 0.002064 0.000063 0.024792 -0.000031
# 6 -0.000001 0.000101 0.000052 -0.065091 -0.000031 0.061376
#
#
# Mechanical properties :
#
#
# Convention : Reuss Voigt Hill
#
# Bulk Modulus (GPa) = 19.23114 33.46826 26.34970
# Shear Modulus (GPa) = 15.73933 34.83220 25.28577
#
# Velocity S-wave (km/s) = 2.43800 3.62687 3.09015
# Velocity P-wave (km/s) = 3.89713 5.49345 4.76265
#
# Compressibility (1/GPa) = 0.05199899
#
# Stress axis : x y z
#
# Youngs Moduli (GPa) = 73.36063 30.64354 144.75345
#
# Poissons Ratio (x) = -0.00991 0.34506
# Poissons Ratio (y) = -0.02373 -0.21327
# Poissons Ratio (z) = 0.17488 -0.04515
#
# Static dielectric constant tensor:
#      x y z
#    x 2.140410 0.000000 0.010130 
#    y 0.000000 2.080310 0.000010 
#    z 0.010130 0.000010 2.166180 
# 
# From -- ./inp_files/206373.got.cif
#   From: 2010.05.17/outbox.cif.g08.bks.cpg/sg15_104_cif.got.tgz:206373.got - 2010.06.03 18:47:42.
