data_PCOD9302920
_publ_section_title
;
Structure prediction by ZEFSAII (Michael W. Deem and Ramdas Pophale) SiO2 
 PCOD9302920
Probable space group: C 2/C
;
_chemical_formula_sum "Si O2"
_cell_formula_units_Z 60
_cell_length_a 12.195884
_cell_length_b 15.189784
_cell_length_c 19.645556
_cell_angle_alpha 90.000000
_cell_angle_beta 119.310052
_cell_angle_gamma 90.000000
_cell_volume 3173.492131
_symmetry_space_group_name_H-M "C 2/C"
_symmetry_group_IT_number 15
_symmetry_cell_setting 'monoclinic'
loop_
_space_group_symop_operation_xyz
x,y,z
-x,y,1/2-z
-x,-y,-z
x,-y,1/2+z
1/2+x,1/2+y,z
1/2-x,1/2+y,1/2-z
1/2-x,1/2-y,-z
1/2+x,1/2-y,1/2+z
loop_
_atom_site_type_symbol
_atom_site_label
_atom_site_fract_x
_atom_site_fract_y
_atom_site_fract_z
Si Si1 0.332441 0.840806 0.297741
Si Si2 0.669185 0.479524 0.167324
Si Si3 0.189431 0.079987 0.314074
Si Si4 0.802825 0.570677 0.081116
Si Si5 0.500000 0.733929 0.250000
Si Si6 0.890556 0.067625 0.601521
Si Si7 0.052124 0.494911 0.591698
Si Si8 0.869961 0.748534 0.173256
O O1 0.249692 0.896859 0.219086
O O2 0.446659 0.793261 0.294558
O O3 0.239888 0.772361 0.306548
O O4 0.384186 0.913211 0.366614
O O5 0.667298 0.548080 0.229973
O O6 0.734369 0.521443 0.122041
O O7 0.526291 0.451693 0.110749
O O8 0.339083 0.078762 0.370204
O O9 0.115103 0.169486 0.304822
O O10 0.136323 0.005374 0.348810
O O11 0.937310 0.527341 0.106234
O O12 0.825773 0.670683 0.111048
O O13 0.717330 0.565455 0.987906
O O14 0.894030 0.161774 0.639246
O O15 0.000000 0.500000 0.500000
O O16 0.000000 0.723557 0.250000
#
# Coordination Sequence:
#
# PCOD9302920 Si02
#       8
#     8   8   8   8   4   8   8   8
#     4  11  24  42  66  92 135 167 221 273 323 387
#     4  11  22  43  68  97 127 177 217 271 326 397
#     4  11  22  40  72  87 128 180 224 245 333 410
#     4  12  27  38  69 103 133 160 225 285 322 379
#     4  12  24  40  64 102 124 166 228 282 310 382
#     4  12  21  46  65  97 132 178 212 270 333 396
#     4  11  23  45  67  93 133 181 210 262 344 400
#     4  12  24  42  65  97 128 174 222 269 323 389
#
# _framework density 18.906616
#
# number of rings (size 3 to 8) (size 9 to 14) (size 15 to 20)
#    0.000    0.533    6.667    2.400    5.600    0.000 
#    0.000    0.667    0.000    0.000    0.000    0.000 
#    0.000    0.000    0.000    0.000    0.000    0.000 
#
# Total GULP energy -167779.922843 kJ/mol
# GULP energy per Si atom -5592.664095 kJ/mol
# Density = 1.886358 g / cm^3
# Si number density = 18.906616 Si / 1000 Ang^3
#
#
#
# Elastic Constant Matrix: (Units=GPa)
#
#
# Indices 1 2 3 4 5 6 
#
# 1 143.5638 25.5000 25.4444 0.0000 5.9449 0.0000
# 2 25.5000 49.1325 3.8115 0.0000 -4.1822 0.0000
# 3 25.4444 3.8115 67.4154 0.0000 9.9116 0.0000
# 4 0.0000 0.0000 0.0000 23.4906 0.0000 6.2607
# 5 5.9449 -4.1822 9.9116 0.0000 35.8402 0.0000
# 6 0.0000 0.0000 0.0000 6.2607 0.0000 41.2758
#
#
#
# Elastic Compliance Matrix: (Units=1/GPa)
#
#
# Indices 1 2 3 4 5 6 
#
# 1 0.008229 -0.004155 -0.002709 0.000000 -0.001101 0.000000
# 2 -0.004155 0.022817 -0.000224 0.000000 0.003414 0.000000
# 3 -0.002709 -0.000224 0.016476 0.000000 -0.004133 0.000000
# 4 0.000000 0.000000 0.000000 0.044364 0.000000 -0.006729
# 5 -0.001101 0.003414 -0.004133 0.000000 0.029626 0.000000
# 6 0.000000 0.000000 0.000000 -0.006729 0.000000 0.025248
#
#
# Mechanical properties :
#
#
# Convention : Reuss Voigt Hill
#
# Bulk Modulus (GPa) = 29.98723 41.06926 35.52825
# Shear Modulus (GPa) = 29.06114 33.81172 31.43643
#
# Velocity S-wave (km/s) = 3.92483 4.23348 4.08207
# Velocity P-wave (km/s) = 6.03607 6.75765 6.40703
#
# Compressibility (1/GPa) = 0.03334753
#
# Stress axis : x y z
#
# Youngs Moduli (GPa) = 121.51829 43.82649 60.69331
#
# Poissons Ratio (x) = 0.18208 0.16443
# Poissons Ratio (y) = 0.50485 0.01359
# Poissons Ratio (z) = 0.32922 0.00981
#
# Static dielectric constant tensor:
#      x y z
#    x 1.665540 0.000000 0.011120 
#    y 0.000000 1.638740 0.000000 
#    z 0.011120 0.000000 1.625980 
# 
# From -- ./inp_files/238814.got.cif
#   From: 2010.05.17/outbox.cif.g08.bks.cpg/sg15_120_cif.got.tgz:238814.got - 2010.06.03 18:47:42.
