data_PCOD9302333
_publ_section_title
;
Structure prediction by ZEFSAII (Michael W. Deem and Ramdas Pophale) SiO2 
 PCOD9302333
Probable space group: C 2/C
;
_chemical_formula_sum "Si O2"
_cell_formula_units_Z 48
_cell_length_a 30.064390
_cell_length_b 8.922459
_cell_length_c 18.205666
_cell_angle_alpha 90.000000
_cell_angle_beta 149.974213
_cell_angle_gamma 90.000000
_cell_volume 2443.722611
_symmetry_space_group_name_H-M "C 2/C"
_symmetry_group_IT_number 15
_symmetry_cell_setting 'monoclinic'
loop_
_space_group_symop_operation_xyz
x,y,z
-x,y,1/2-z
-x,-y,-z
x,-y,1/2+z
1/2+x,1/2+y,z
1/2-x,1/2+y,1/2-z
1/2-x,1/2-y,-z
1/2+x,1/2-y,1/2+z
loop_
_atom_site_type_symbol
_atom_site_label
_atom_site_fract_x
_atom_site_fract_y
_atom_site_fract_z
Si Si1 0.105154 0.061076 0.889231
Si Si2 0.256453 0.417804 0.314358
Si Si3 0.341850 0.671001 0.160210
Si Si4 0.415647 0.962411 0.328842
Si Si5 0.768614 0.572658 0.372411
Si Si6 0.592729 0.893967 0.838670
O O1 0.133113 0.228866 0.907468
O O2 0.000000 0.061094 0.750000
O O3 0.127717 0.939853 0.859442
O O4 0.158763 0.011295 0.037580
O O5 0.173287 0.462243 0.248031
O O6 0.235409 0.460150 0.201120
O O7 0.276492 0.242157 0.353987
O O8 0.411368 0.798437 0.284010
O O9 0.316978 0.577746 0.197371
O O10 0.250000 0.750000 0.000000
O O11 0.500000 0.000000 0.500000
O O12 0.414952 0.073998 0.258675
O O13 0.847643 0.520784 0.538245
O O14 0.500000 0.896689 0.750000
#
# Coordination Sequence:
#
# PCOD9302333 Si02
#       6
#     8   8   8   8   8   8
#     4  11  24  41  65  94 133 171 219 274 333 403
#     4  11  23  40  61  98 128 170 221 273 333 393
#     4  11  21  46  65  93 131 176 220 271 337 402
#     4  11  23  41  66  94 131 171 223 278 330 400
#     4  11  22  40  67  91 131 172 220 271 331 401
#     4  11  23  40  62  95 128 173 223 270 334 400
#
# _framework density 19.642164000000001
#
# number of rings (size 3 to 8) (size 9 to 14) (size 15 to 20)
#    0.000    1.000    5.000    2.000    0.000   12.000 
#    0.000    1.667    0.000    0.000    0.000    0.000 
#    0.000    0.000    0.000    0.000    0.000    0.000 
#
# Total GULP energy -134081.728513 kJ/mol
# GULP energy per Si atom -5586.738688 kJ/mol
# Density = 1.959746 g / cm^3
# Si number density = 19.642164 Si / 1000 Ang^3
#
#
#
# Elastic Constant Matrix: (Units=GPa)
#
#
# Indices 1 2 3 4 5 6 
#
# 1 69.9843 31.3580 18.4433 0.0000 -22.5477 0.0000
# 2 31.3580 87.8840 43.4450 0.0000 -0.8054 0.0000
# 3 18.4433 43.4450 117.9594 0.0000 -20.4075 0.0000
# 4 0.0000 0.0000 0.0000 34.7934 0.0000 -3.5414
# 5 -22.5477 -0.8054 -20.4075 0.0000 36.6389 0.0000
# 6 0.0000 0.0000 0.0000 -3.5414 0.0000 31.1000
#
#
#
# Elastic Compliance Matrix: (Units=1/GPa)
#
#
# Indices 1 2 3 4 5 6 
#
# 1 0.022586 -0.009124 0.002433 0.000000 0.015054 0.000000
# 2 -0.009124 0.017866 -0.006703 0.000000 -0.008956 0.000000
# 3 0.002433 -0.006703 0.011951 0.000000 0.008007 0.000000
# 4 0.000000 0.000000 0.000000 0.029078 0.000000 0.003311
# 5 0.015054 -0.008956 0.008007 0.000000 0.040821 0.000000
# 6 0.000000 0.000000 0.000000 0.003311 0.000000 0.032531
#
#
# Mechanical properties :
#
#
# Convention : Reuss Voigt Hill
#
# Bulk Modulus (GPa) = 39.03812 51.36891 45.20351
# Shear Modulus (GPa) = 26.29395 32.67855 29.48625
#
# Velocity S-wave (km/s) = 3.66272 4.08327 3.87870
# Velocity P-wave (km/s) = 6.14859 6.95988 6.56678
#
# Compressibility (1/GPa) = 0.02561599
#
# Stress axis : x y z
#
# Youngs Moduli (GPa) = 44.27519 55.97359 83.67584
#
# Poissons Ratio (x) = 0.51070 -0.20362
# Poissons Ratio (y) = 0.40396 0.56086
# Poissons Ratio (z) = -0.10774 0.37518
#
# Static dielectric constant tensor:
#      x y z
#    x 1.683990 0.000000 0.008550 
#    y 0.000000 1.700340 0.000000 
#    z 0.008550 0.000000 1.698160 
# 
# From -- ./inp_files/177000.got.cif
#   From: 2010.05.17/outbox.cif.g08.bks.cpg/sg15_89_cif.got.tgz:177000.got - 2010.06.03 18:47:42.
