data_PCOD9302043
_publ_section_title
;
Structure prediction by ZEFSAII (Michael W. Deem and Ramdas Pophale) SiO2 
 PCOD9302043
Probable space group: C 2/C
;
_chemical_formula_sum "Si O2"
_cell_formula_units_Z 52
_cell_length_a 20.341266
_cell_length_b 11.911465
_cell_length_c 9.472202
_cell_angle_alpha 90.000000
_cell_angle_beta 118.002275
_cell_angle_gamma 90.000000
_cell_volume 2026.375223
_symmetry_space_group_name_H-M "C 2/C"
_symmetry_group_IT_number 15
_symmetry_cell_setting 'monoclinic'
loop_
_space_group_symop_operation_xyz
x,y,z
-x,y,1/2-z
-x,-y,-z
x,-y,1/2+z
1/2+x,1/2+y,z
1/2-x,1/2+y,1/2-z
1/2-x,1/2-y,-z
1/2+x,1/2-y,1/2+z
loop_
_atom_site_type_symbol
_atom_site_label
_atom_site_fract_x
_atom_site_fract_y
_atom_site_fract_z
Si Si1 0.809086 0.689849 0.160380
Si Si2 0.490750 0.842327 0.053241
Si Si3 0.000000 0.859979 0.750000
Si Si4 0.727787 0.624600 0.701758
Si Si5 0.070814 0.201528 0.893128
Si Si6 0.146279 0.995803 0.879187
Si Si7 0.123113 0.521417 0.689488
O O1 0.789596 0.744285 0.290009
O O2 0.888725 0.730623 0.188649
O O3 0.819536 0.558138 0.168377
O O4 0.750000 0.750000 0.000000
O O5 0.466924 0.726905 0.102070
O O6 0.558382 0.908631 0.201066
O O7 0.539298 0.791685 0.970904
O O8 0.426362 0.932060 0.951329
O O9 0.930228 0.930881 0.736462
O O10 0.684095 0.554478 0.781239
O O11 0.697510 0.588525 0.519215
O O12 0.815766 0.604058 0.815953
O O13 0.000000 0.145649 0.750000
O O14 0.125474 0.096260 0.971132
#
# Coordination Sequence:
#
# PCOD9302043 Si02
#       7
#     8   8   4   8   8   8   8
#     4  11  23  42  69  97 132 180 232 282 333 414
#     4  11  26  42  67 100 136 185 220 283 342 407
#     4  12  26  42  66 104 146 172 222 284 360 408
#     4  11  25  44  69 102 133 182 230 285 345 409
#     4  11  21  41  68  97 125 176 235 270 321 407
#     4  11  25  43  71 101 139 180 228 289 345 402
#     4  11  24  46  67  98 139 177 231 280 341 412
#
# _framework density 25.661584999999999
#
# number of rings (size 3 to 8) (size 9 to 14) (size 15 to 20)
#    0.000    0.923    2.308    4.615    2.154    7.385 
#    0.000    2.308    0.000    0.000    0.000    0.000 
#    0.000    0.000    0.000    0.000    0.000    0.000 
#
# Total GULP energy -145090.989829 kJ/mol
# GULP energy per Si atom -5580.422686 kJ/mol
# Density = 2.560318 g / cm^3
# Si number density = 25.661585 Si / 1000 Ang^3
#
#
#
# Elastic Constant Matrix: (Units=GPa)
#
#
# Indices 1 2 3 4 5 6 
#
# 1 114.0191 17.7760 1.4613 0.0000 24.1086 0.0000
# 2 17.7760 68.5314 -11.1035 0.0000 12.6364 0.0000
# 3 1.4613 -11.1035 45.6499 0.0000 17.7655 0.0000
# 4 0.0000 0.0000 0.0000 40.5636 0.0000 14.5539
# 5 24.1086 12.6364 17.7655 0.0000 34.1558 0.0000
# 6 0.0000 0.0000 0.0000 14.5539 0.0000 32.8651
#
#
#
# Elastic Compliance Matrix: (Units=1/GPa)
#
#
# Indices 1 2 3 4 5 6 
#
# 1 0.010705 -0.000674 0.002930 0.000000 -0.008831 0.000000
# 2 -0.000674 0.018134 0.008599 0.000000 -0.010706 0.000000
# 3 0.002930 0.008599 0.032531 0.000000 -0.022170 0.000000
# 4 0.000000 0.000000 0.000000 0.029310 0.000000 -0.012979
# 5 -0.008831 -0.010706 -0.022170 0.000000 0.051003 0.000000
# 6 0.000000 0.000000 0.000000 -0.012979 0.000000 0.036175
#
#
# Mechanical properties :
#
#
# Convention : Reuss Voigt Hill
#
# Bulk Modulus (GPa) = 12.03649 27.16311 19.59980
# Shear Modulus (GPa) = 27.19736 36.18800 31.69268
#
# Velocity S-wave (km/s) = 3.25906 3.75934 3.51810
# Velocity P-wave (km/s) = 4.34311 5.42693 4.91499
#
# Compressibility (1/GPa) = 0.08308069
#
# Stress axis : x y z
#
# Youngs Moduli (GPa) = 93.41246 55.14580 30.73952
#
# Poissons Ratio (x) = 0.03715 -0.09007
# Poissons Ratio (y) = 0.06293 -0.26432
# Poissons Ratio (z) = -0.27372 -0.47418
#
# Static dielectric constant tensor:
#      x y z
#    x 2.095710 0.000000 -0.003460 
#    y 0.000000 2.108770 0.000000 
#    z -0.003460 0.000000 2.113280 
# 
# From -- ./inp_files/111741.got.cif
#   From: 2010.05.17/outbox.cif.g08.bks.cpg/sg15_56_cif.got.tgz:111741.got - 2010.06.03 18:47:42.
