data_PCOD9302807
_publ_section_title
;
Structure prediction by ZEFSAII (Michael W. Deem and Ramdas Pophale) SiO2 
 PCOD9302807
Probable space group: C 2/C
;
_chemical_formula_sum "Si O2"
_cell_formula_units_Z 40
_cell_length_a 16.464184
_cell_length_b 5.227357
_cell_length_c 21.235602
_cell_angle_alpha 90.000000
_cell_angle_beta 48.696774
_cell_angle_gamma 90.000000
_cell_volume 1372.960748
_symmetry_space_group_name_H-M "C 2/C"
_symmetry_group_IT_number 15
_symmetry_cell_setting 'monoclinic'
loop_
_space_group_symop_operation_xyz
x,y,z
-x,y,1/2-z
-x,-y,-z
x,-y,1/2+z
1/2+x,1/2+y,z
1/2-x,1/2+y,1/2-z
1/2-x,1/2-y,-z
1/2+x,1/2-y,1/2+z
loop_
_atom_site_type_symbol
_atom_site_label
_atom_site_fract_x
_atom_site_fract_y
_atom_site_fract_z
Si Si1 0.834810 0.923365 0.496675
Si Si2 0.556761 0.095923 0.532158
Si Si3 0.296161 0.149893 0.831585
Si Si4 0.502528 0.509611 0.309300
Si Si5 0.638057 0.864217 0.816757
O O1 0.910786 0.115606 0.496511
O O2 0.727506 0.019098 0.588607
O O3 0.882304 0.011522 0.403907
O O4 0.854515 0.620591 0.494051
O O5 0.458912 0.072704 0.631503
O O6 0.500000 0.000000 0.500000
O O7 0.410483 0.295258 0.769325
O O8 0.207590 0.343511 0.844906
O O9 0.290517 0.934991 0.779887
O O10 0.500000 0.315650 0.250000
O O11 0.572347 0.385138 0.330193
#
# Coordination Sequence:
#
# PCOD9302807 Si02
#       5
#     8   8   8   8   8
#     4  11  26  42  69 104 141 186 236 293 350 424
#     4  11  22  40  65 104 144 176 230 297 359 398
#     4  12  24  41  75 103 136 183 245 290 350 418
#     4  11  27  49  68 100 147 188 231 293 363 421
#     4  11  24  40  70 103 141 183 236 293 350 417
#
# _framework density 29.134117
#
# number of rings (size 3 to 8) (size 9 to 14) (size 15 to 20)
#    0.000    0.800    6.000    0.600    8.400    1.600 
#    0.000    1.000    0.000    0.000    0.000    0.000 
#    0.000    0.000    0.000    0.000    0.000    0.000 
#
# Total GULP energy -111407.932694 kJ/mol
# GULP energy per Si atom -5570.396635 kJ/mol
# Density = 2.906781 g / cm^3
# Si number density = 29.134117 Si / 1000 Ang^3
#
#
#
# Elastic Constant Matrix: (Units=GPa)
#
#
# Indices 1 2 3 4 5 6 
#
# 1 104.0569 36.2279 55.4887 0.0015 -27.5895 0.0078
# 2 36.2279 87.7302 11.6783 0.0392 -25.3050 0.0265
# 3 55.4887 11.6783 188.5606 -0.0052 -2.0158 -0.0034
# 4 0.0015 0.0392 -0.0052 46.6009 -0.0007 -2.7350
# 5 -27.5895 -25.3050 -2.0158 -0.0007 42.4080 -0.0015
# 6 0.0078 0.0265 -0.0034 -2.7350 -0.0015 37.3018
#
#
#
# Elastic Compliance Matrix: (Units=1/GPa)
#
#
# Indices 1 2 3 4 5 6 
#
# 1 0.015006 -0.003490 -0.004120 0.000002 0.007485 -0.000001
# 2 -0.003490 0.014691 0.000187 -0.000013 0.006505 -0.000010
# 3 -0.004120 0.000187 0.006480 0.000001 -0.002261 0.000001
# 4 0.000002 -0.000013 0.000001 0.021552 -0.000006 0.001580
# 5 0.007485 0.006505 -0.002261 -0.000006 0.032224 -0.000006
# 6 -0.000001 -0.000010 0.000001 0.001580 -0.000006 0.026924
#
#
# Mechanical properties :
#
#
# Convention : Reuss Voigt Hill
#
# Bulk Modulus (GPa) = 46.87858 65.23749 56.05803
# Shear Modulus (GPa) = 36.01439 43.72567 39.87003
#
# Velocity S-wave (km/s) = 3.51972 3.87827 3.70334
# Velocity P-wave (km/s) = 5.71344 6.51885 6.12939
#
# Compressibility (1/GPa) = 0.02133171
#
# Stress axis : x y z
#
# Youngs Moduli (GPa) = 66.63794 68.06880 154.32121
#
# Poissons Ratio (x) = 0.23753 0.63579
# Poissons Ratio (y) = 0.23254 -0.02879
# Poissons Ratio (z) = 0.27454 -0.01270
#
# Static dielectric constant tensor:
#      x y z
#    x 2.514250 -0.000010 -0.000180 
#    y -0.000010 2.373290 -0.000020 
#    z -0.000180 -0.000020 2.548630 
# 
# From -- ./inp_files/250983.got.cif
#   From: 2010.05.17/outbox.cif.g08.bks.cpg/sg15_126_cif.got.tgz:250983.got - 2010.06.03 18:47:42.
