data_PCOD9302361
_publ_section_title
;
Structure prediction by ZEFSAII (Michael W. Deem and Ramdas Pophale) SiO2 
 PCOD9302361
Probable space group: C 2/C
;
_chemical_formula_sum "Si O2"
_cell_formula_units_Z 44
_cell_length_a 16.002453
_cell_length_b 14.743939
_cell_length_c 9.394321
_cell_angle_alpha 90.000000
_cell_angle_beta 57.966536
_cell_angle_gamma 90.000000
_cell_volume 1879.002518
_symmetry_space_group_name_H-M "C 2/C"
_symmetry_group_IT_number 15
_symmetry_cell_setting 'monoclinic'
loop_
_space_group_symop_operation_xyz
x,y,z
-x,y,1/2-z
-x,-y,-z
x,-y,1/2+z
1/2+x,1/2+y,z
1/2-x,1/2+y,1/2-z
1/2-x,1/2-y,-z
1/2+x,1/2-y,1/2+z
loop_
_atom_site_type_symbol
_atom_site_label
_atom_site_fract_x
_atom_site_fract_y
_atom_site_fract_z
Si Si1 0.000000 0.750411 0.750000
Si Si2 0.871212 0.770823 0.117787
Si Si3 0.144006 0.257151 0.378071
Si Si4 0.418734 0.452878 0.174667
Si Si5 0.893874 0.617415 0.315889
Si Si6 0.816513 0.948318 0.552792
O O1 0.933078 0.715919 0.676506
O O2 0.086678 0.792710 0.576027
O O3 0.754415 0.780454 0.229916
O O4 0.925106 0.844991 0.166490
O O5 0.893661 0.672953 0.166983
O O6 0.121020 0.309672 0.544333
O O7 0.150590 0.149557 0.411567
O O8 0.392548 0.476909 0.359302
O O9 0.321419 0.480340 0.174556
O O10 0.500000 0.500000 0.000000
O O11 0.794378 0.559223 0.404371
O O12 0.000000 0.572547 0.250000
#
# Coordination Sequence:
#
# PCOD9302361 Si02
#       6
#     4   8   8   8   8   8
#     4  12  24  34  64 108 132 166 220 290 338 386
#     4  11  23  41  66  98 137 177 221 281 337 396
#     4  11  22  45  68  94 135 178 237 278 320 394
#     4  12  25  40  64  99 142 178 210 265 352 415
#     4  11  21  46  77  92 123 184 247 278 317 395
#     4  11  25  44  65  99 136 181 222 277 336 404
#
# _framework density 23.416681000000001
#
# number of rings (size 3 to 8) (size 9 to 14) (size 15 to 20)
#    0.000    0.727    5.455    3.273    5.091    0.000 
#    0.000    0.909    2.000    0.000    0.000    0.000 
#    0.000    0.000    0.000    0.000    0.000    0.000 
#
# Total GULP energy -122672.506386 kJ/mol
# GULP energy per Si atom -5576.023018 kJ/mol
# Density = 2.336338 g / cm^3
# Si number density = 23.416681 Si / 1000 Ang^3
#
#
#
# Elastic Constant Matrix: (Units=GPa)
#
#
# Indices 1 2 3 4 5 6 
#
# 1 141.8464 13.6172 45.6789 0.0000 -17.2604 0.0000
# 2 13.6172 26.0519 19.7524 0.0000 -4.8835 0.0000
# 3 45.6789 19.7524 168.7108 0.0000 -0.2353 0.0000
# 4 0.0000 0.0000 0.0000 9.5670 0.0000 3.1399
# 5 -17.2604 -4.8835 -0.2353 0.0000 56.5670 0.0000
# 6 0.0000 0.0000 0.0000 3.1399 0.0000 23.4890
#
#
#
# Elastic Compliance Matrix: (Units=1/GPa)
#
#
# Indices 1 2 3 4 5 6 
#
# 1 0.008178 -0.002382 -0.001932 0.000000 0.002282 0.000000
# 2 -0.002382 0.043571 -0.004452 0.000000 0.003016 0.000000
# 3 -0.001932 -0.004452 0.006970 0.000000 -0.000945 0.000000
# 4 0.000000 0.000000 0.000000 0.109322 0.000000 -0.014614
# 5 0.002282 0.003016 -0.000945 0.000000 0.018631 0.000000
# 6 0.000000 0.000000 0.000000 -0.014614 0.000000 0.044527
#
#
# Mechanical properties :
#
#
# Convention : Reuss Voigt Hill
#
# Bulk Modulus (GPa) = 24.27951 54.96737 39.62344
# Shear Modulus (GPa) = 19.05045 35.09533 27.07289
#
# Velocity S-wave (km/s) = 2.85536 3.87555 3.40389
# Velocity P-wave (km/s) = 4.61105 6.59932 5.69266
#
# Compressibility (1/GPa) = 0.04118699
#
# Stress axis : x y z
#
# Youngs Moduli (GPa) = 122.27230 22.95106 143.46394
#
# Poissons Ratio (x) = 0.05467 0.27721
# Poissons Ratio (y) = 0.29126 0.63871
# Poissons Ratio (z) = 0.23626 0.10218
#
# Static dielectric constant tensor:
#      x y z
#    x 1.980730 0.000000 -0.043810 
#    y 0.000000 1.922210 0.000000 
#    z -0.043810 0.000000 1.869840 
# 
# From -- ./inp_files/39727.got.cif
#   From: 2010.05.17/outbox.cif.g08.bks.cpg/sg15_20_cif.got.tgz:39727.got - 2010.06.03 18:47:42.
