data_PCOD9302947
_publ_section_title
;
Structure prediction by ZEFSAII (Michael W. Deem and Ramdas Pophale) SiO2 
 PCOD9302947
Probable space group: C 2/C
;
_chemical_formula_sum "Si O2"
_cell_formula_units_Z 44
_cell_length_a 22.586940
_cell_length_b 18.994036
_cell_length_c 14.477339
_cell_angle_alpha 90.000000
_cell_angle_beta 18.007995
_cell_angle_gamma 90.000000
_cell_volume 1920.137059
_symmetry_space_group_name_H-M "C 2/C"
_symmetry_group_IT_number 15
_symmetry_cell_setting 'monoclinic'
loop_
_space_group_symop_operation_xyz
x,y,z
-x,y,1/2-z
-x,-y,-z
x,-y,1/2+z
1/2+x,1/2+y,z
1/2-x,1/2+y,1/2-z
1/2-x,1/2-y,-z
1/2+x,1/2-y,1/2+z
loop_
_atom_site_type_symbol
_atom_site_label
_atom_site_fract_x
_atom_site_fract_y
_atom_site_fract_z
Si Si1 0.645377 0.990688 0.170996
Si Si2 0.908445 0.386113 0.614802
Si Si3 0.955899 0.761420 0.500717
Si Si4 0.330487 0.328301 0.156346
Si Si5 0.500000 0.911816 0.750000
Si Si6 0.500000 0.666763 0.750000
Si Si7 0.000000 0.929286 0.750000
O O1 0.516795 0.920097 0.366860
O O2 0.547737 0.054200 0.373851
O O3 0.652923 0.031498 0.064038
O O4 0.843845 0.973195 0.925331
O O5 0.981063 0.312382 0.546751
O O6 0.680252 0.378215 0.948190
O O7 0.010328 0.815572 0.501000
O O8 0.056272 0.787063 0.256497
O O9 0.739599 0.744751 0.787956
O O10 0.140783 0.359395 0.486275
O O11 0.398963 0.380023 0.975331
#
# Coordination Sequence:
#
# PCOD9302947 Si02
#       7
#     8   8   8   8   4   4   4
#     4  11  24  43  68  93 147 186 234 287 361 419
#     4  11  22  41  64 100 136 186 226 292 354 424
#     4  12  24  42  70 104 141 185 233 302 364 419
#     4  12  27  46  73 104 146 187 243 301 364 423
#     4  12  25  46  74 106 140 185 242 310 358 427
#     4  12  24  38  76 110 139 181 250 298 366 427
#     4  12  27  50  68 102 147 202 240 290 356 440
#
# _framework density 22.915030999999999
#
# number of rings (size 3 to 8) (size 9 to 14) (size 15 to 20)
#    0.000    0.364    5.455    3.818    0.000    2.909 
#    0.000    0.000    0.000    0.000    0.000    0.000 
#    0.000    0.000    0.000    0.000    0.000    0.000 
#
# Total GULP energy -122689.581451 kJ/mol
# GULP energy per Si atom -5576.799157 kJ/mol
# Density = 2.286288 g / cm^3
# Si number density = 22.915031 Si / 1000 Ang^3
#
#
#
# Elastic Constant Matrix: (Units=GPa)
#
#
# Indices 1 2 3 4 5 6 
#
# 1 105.4279 25.1599 11.7621 0.0204 -24.2312 -0.0812
# 2 25.1599 81.1145 21.3610 -0.0100 -3.1997 0.0118
# 3 11.7621 21.3610 56.5553 -0.0263 -6.1242 0.0556
# 4 0.0204 -0.0100 -0.0263 -0.5483 0.0089 48.3840
# 5 -24.2312 -3.1997 -6.1242 0.0089 27.5366 -0.0287
# 6 -0.0812 0.0118 0.0556 48.3840 -0.0287 -180.5951
#
#
#
# Elastic Compliance Matrix: (Units=1/GPa)
#
#
# Indices 1 2 3 4 5 6 
#
# 1 0.012835 -0.003508 -0.000169 -0.000002 0.010849 -0.000008
# 2 -0.003508 0.014654 -0.005078 0.000003 -0.002514 0.000002
# 3 -0.000169 -0.005078 0.020037 0.000015 0.003717 0.000009
# 4 -0.000002 0.000003 0.000015 0.080551 -0.000001 0.021581
# 5 0.010849 -0.002514 0.003717 -0.000001 0.046396 -0.000012
# 6 -0.000008 0.000002 0.000009 0.021581 -0.000012 0.000245
#
#
# Mechanical properties :
#
#
# Convention : Reuss Voigt Hill
#
# Bulk Modulus (GPa) = 33.31580 39.96263 36.63921
# Shear Modulus (GPa) = 24.72370 -18.40039 3.16166
#
# Velocity S-wave (km/s) = 3.28827 -2.83677 1.17589
# Velocity P-wave (km/s) = 5.38399 2.59762 4.22700
#
# Compressibility (1/GPa) = 0.03001579
#
# Stress axis : x y z
#
# Youngs Moduli (GPa) = 77.91333 68.23847 49.90675
#
# Poissons Ratio (x) = 0.23941 0.00845
# Poissons Ratio (y) = 0.27336 0.25340
# Poissons Ratio (z) = 0.01320 0.34648
#
# Static dielectric constant tensor:
#      x y z
#    x 2.082490 0.000000 0.050860 
#    y 0.000000 1.909340 0.000010 
#    z 0.050860 0.000010 1.899380 
# 
# From -- ./inp_files/174200.got.cif
#   From: 2010.05.17/outbox.cif.g08.bks.cpg/sg15_88_cif.got.tgz:174200.got - 2010.06.03 18:47:42.
