data_PCOD9302679
_publ_section_title
;
Structure prediction by ZEFSAII (Michael W. Deem and Ramdas Pophale) SiO2 
 PCOD9302679
Probable space group: C 2/C
;
_chemical_formula_sum "Si O2"
_cell_formula_units_Z 36
_cell_length_a 20.205191
_cell_length_b 18.737736
_cell_length_c 8.292896
_cell_angle_alpha 90.000000
_cell_angle_beta 148.341447
_cell_angle_gamma 90.000000
_cell_volume 1647.883485
_symmetry_space_group_name_H-M "C 2/C"
_symmetry_group_IT_number 15
_symmetry_cell_setting 'monoclinic'
loop_
_space_group_symop_operation_xyz
x,y,z
-x,y,1/2-z
-x,-y,-z
x,-y,1/2+z
1/2+x,1/2+y,z
1/2-x,1/2+y,1/2-z
1/2-x,1/2-y,-z
1/2+x,1/2-y,1/2+z
loop_
_atom_site_type_symbol
_atom_site_label
_atom_site_fract_x
_atom_site_fract_y
_atom_site_fract_z
Si Si1 0.641848 0.733446 0.150313
Si Si2 0.886665 0.278592 0.735070
Si Si3 0.734303 0.582672 0.310749
Si Si4 0.092943 0.960457 0.817529
Si Si5 0.000000 0.379266 0.250000
O O1 0.750000 0.750000 0.500000
O O2 0.679667 0.659375 0.144179
O O3 0.508654 0.727054 0.965532
O O4 0.634344 0.795337 0.999085
O O5 0.750000 0.250000 0.500000
O O6 0.936362 0.333552 0.972575
O O7 0.692480 0.579107 0.410829
O O8 0.883033 0.579658 0.587439
O O9 0.667083 0.520040 0.073095
O O10 0.000000 0.920047 0.750000
O O11 0.000000 0.000000 0.500000
#
# Coordination Sequence:
#
# PCOD9302679 Si02
#       5
#     8   8   8   8   4
#     4  11  23  42  67  99 138 178 227 286 352 421
#     4  11  22  39  65 101 138 176 221 279 359 418
#     4  11  23  45  66  95 140 176 236 289 338 421
#     4   9  22  43  67  95 125 178 237 285 340 398
#     4  12  24  44  68 102 144 180 228 288 352 432
#
# _framework density 21.846205000000001
#
# number of rings (size 3 to 8) (size 9 to 14) (size 15 to 20)
#    0.000    1.333    4.444    0.000    9.333    0.889 
#   14.000    0.000    0.000    0.000    0.000    0.000 
#    0.000    0.000    0.000    0.000    0.000    0.000 
#
# Total GULP energy -100281.957694 kJ/mol
# GULP energy per Si atom -5571.219872 kJ/mol
# Density = 2.179648 g / cm^3
# Si number density = 21.846205 Si / 1000 Ang^3
#
#
#
# Elastic Constant Matrix: (Units=GPa)
#
#
# Indices 1 2 3 4 5 6 
#
# 1 195.7341 31.6159 77.7331 0.0000 31.7696 0.0000
# 2 31.6159 33.5044 24.4931 0.0000 -0.7801 0.0000
# 3 77.7331 24.4931 174.7231 0.0000 17.8987 0.0000
# 4 0.0000 0.0000 0.0000 27.7961 0.0000 2.7951
# 5 31.7696 -0.7801 17.8987 0.0000 63.6008 0.0000
# 6 0.0000 0.0000 0.0000 2.7951 0.0000 37.8313
#
#
#
# Elastic Compliance Matrix: (Units=1/GPa)
#
#
# Indices 1 2 3 4 5 6 
#
# 1 0.007363 -0.005415 -0.002197 0.000000 -0.003126 0.000000
# 2 -0.005415 0.037432 -0.003256 0.000000 0.004081 0.000000
# 3 -0.002197 -0.003256 0.007258 0.000000 -0.000985 0.000000
# 4 0.000000 0.000000 0.000000 0.036246 0.000000 -0.002678
# 5 -0.003126 0.004081 -0.000985 0.000000 0.017612 0.000000
# 6 0.000000 0.000000 0.000000 -0.002678 0.000000 0.026631
#
#
# Mechanical properties :
#
#
# Convention : Reuss Voigt Hill
#
# Bulk Modulus (GPa) = 32.98410 74.62732 53.80571
# Shear Modulus (GPa) = 30.41651 43.85361 37.13506
#
# Velocity S-wave (km/s) = 3.73540 4.48524 4.12738
# Velocity P-wave (km/s) = 5.80822 7.81394 6.88451
#
# Compressibility (1/GPa) = 0.03031763
#
# Stress axis : x y z
#
# Youngs Moduli (GPa) = 135.80533 26.71486 137.78019
#
# Poissons Ratio (x) = 0.14467 0.30264
# Poissons Ratio (y) = 0.73545 0.44862
# Poissons Ratio (z) = 0.29830 0.08699
#
# Static dielectric constant tensor:
#      x y z
#    x 1.911350 0.000000 -0.031380 
#    y 0.000000 1.782260 0.000000 
#    z -0.031380 0.000000 1.834640 
# 
# From -- ./inp_files/58044.got.cif
#   From: 2010.05.17/outbox.cif.g08.bks.cpg/sg15_30_cif.got.tgz:58044.got - 2010.06.03 18:47:42.
