data_PCOD9302832
_publ_section_title
;
Structure prediction by ZEFSAII (Michael W. Deem and Ramdas Pophale) SiO2 
 PCOD9302832
Probable space group: C 2/C
;
_chemical_formula_sum "Si O2"
_cell_formula_units_Z 56
_cell_length_a 12.603680
_cell_length_b 15.711697
_cell_length_c 30.944931
_cell_angle_alpha 90.000000
_cell_angle_beta 24.458812
_cell_angle_gamma 90.000000
_cell_volume 2537.179700
_symmetry_space_group_name_H-M "C 2/C"
_symmetry_group_IT_number 15
_symmetry_cell_setting 'monoclinic'
loop_
_space_group_symop_operation_xyz
x,y,z
-x,y,1/2-z
-x,-y,-z
x,-y,1/2+z
1/2+x,1/2+y,z
1/2-x,1/2+y,1/2-z
1/2-x,1/2-y,-z
1/2+x,1/2-y,1/2+z
loop_
_atom_site_type_symbol
_atom_site_label
_atom_site_fract_x
_atom_site_fract_y
_atom_site_fract_z
Si Si1 0.590016 0.786103 0.099537
Si Si2 0.361691 0.538861 0.197168
Si Si3 0.395518 0.746115 0.990808
Si Si4 0.353097 0.028605 0.893838
Si Si5 0.172473 0.853147 0.642854
Si Si6 0.618532 0.570344 0.895877
Si Si7 0.076767 0.710852 0.271061
O O1 0.703603 0.878366 0.067154
O O2 0.618175 0.726713 0.131088
O O3 0.287399 0.784552 0.201206
O O4 0.750000 0.750000 0.000000
O O5 0.594942 0.567127 0.141172
O O6 0.402950 0.472367 0.143063
O O7 0.232235 0.624880 0.225735
O O8 0.126529 0.498724 0.310533
O O9 0.538213 0.833754 0.949788
O O10 0.606058 0.672024 0.903729
O O11 0.250000 0.750000 0.000000
O O12 0.181542 0.722772 0.105632
O O13 0.337653 0.037192 0.847462
O O14 0.143069 0.960953 0.984653
O O15 0.000000 0.854006 0.750000
O O16 0.000000 0.707002 0.250000
#
# Coordination Sequence:
#
# PCOD9302832 Si02
#       7
#     8   8   8   8   8   8   8
#     4  11  23  41  71 102 138 185 242 292 357 434
#     4  11  24  42  68 101 138 181 231 298 360 419
#     4  12  25  44  70 101 138 187 241 290 355 437
#     4  11  22  40  66 102 134 169 237 294 353 411
#     4  11  25  45  70  97 142 194 233 289 363 436
#     4  11  24  39  70 100 134 177 231 299 350 419
#     4  11  23  41  66  99 140 182 229 291 355 426
#
# _framework density 22.071752
#
# number of rings (size 3 to 8) (size 9 to 14) (size 15 to 20)
#    0.000    0.857    2.857    5.571    6.000    0.000 
#    0.000    1.429    3.143    0.000    0.000    0.000 
#    0.000    0.000    0.000    0.000    0.000    0.000 
#
# Total GULP energy -156390.149635 kJ/mol
# GULP energy per Si atom -5585.362487 kJ/mol
# Density = 2.202152 g / cm^3
# Si number density = 22.071752 Si / 1000 Ang^3
#
#
#
# Elastic Constant Matrix: (Units=GPa)
#
#
# Indices 1 2 3 4 5 6 
#
# 1 130.6657 23.7578 43.4934 0.0058 7.6368 -0.0031
# 2 23.7578 54.5079 10.5476 -0.0132 1.1071 0.0044
# 3 43.4934 10.5476 82.3861 0.0111 9.6639 -0.0034
# 4 0.0058 -0.0132 0.0111 20.6951 -0.0024 -3.9347
# 5 7.6368 1.1071 9.6639 -0.0024 39.6445 0.0101
# 6 -0.0031 0.0044 -0.0034 -3.9347 0.0101 39.3909
#
#
#
# Elastic Compliance Matrix: (Units=1/GPa)
#
#
# Indices 1 2 3 4 5 6 
#
# 1 0.009871 -0.003379 -0.004701 -0.000002 -0.000661 0.000001
# 2 -0.003379 0.019969 -0.000807 0.000014 0.000290 -0.000001
# 3 -0.004701 -0.000807 0.015044 -0.000007 -0.002739 0.000001
# 4 -0.000002 0.000014 -0.000007 0.049256 0.000004 0.004920
# 5 -0.000661 0.000290 -0.002739 0.000004 0.026011 -0.000007
# 6 0.000001 -0.000001 0.000001 0.004920 -0.000007 0.025878
#
#
# Mechanical properties :
#
#
# Convention : Reuss Voigt Hill
#
# Bulk Modulus (GPa) = 36.88575 47.01750 41.95163
# Shear Modulus (GPa) = 28.92850 32.59682 30.76266
#
# Velocity S-wave (km/s) = 3.62423 3.84716 3.73736
# Velocity P-wave (km/s) = 5.85332 6.40957 6.13775
#
# Compressibility (1/GPa) = 0.02711074
#
# Stress axis : x y z
#
# Youngs Moduli (GPa) = 101.30767 50.07747 66.47061
#
# Poissons Ratio (x) = 0.16923 0.31247
# Poissons Ratio (y) = 0.34235 0.05361
# Poissons Ratio (z) = 0.47624 0.04039
#
# Static dielectric constant tensor:
#      x y z
#    x 1.819610 0.000030 -0.037460 
#    y 0.000030 1.856930 0.000030 
#    z -0.037460 0.000030 1.795820 
# 
# From -- ./inp_files/311312.got.cif
#   From: 2010.05.17/outbox.cif.g08.bks.cpg/sg15_156_cif.got.tgz:311312.got - 2010.06.03 18:47:42.
