data_PCOD9302486
_publ_section_title
;
Structure prediction by ZEFSAII (Michael W. Deem and Ramdas Pophale) SiO2 
 PCOD9302486
Probable space group: C 2/C
;
_chemical_formula_sum "Si O2"
_cell_formula_units_Z 36
_cell_length_a 6.987149
_cell_length_b 17.880488
_cell_length_c 14.392452
_cell_angle_alpha 90.000000
_cell_angle_beta 98.004137
_cell_angle_gamma 90.000000
_cell_volume 1780.584256
_symmetry_space_group_name_H-M "C 2/C"
_symmetry_group_IT_number 15
_symmetry_cell_setting 'monoclinic'
loop_
_space_group_symop_operation_xyz
x,y,z
-x,y,1/2-z
-x,-y,-z
x,-y,1/2+z
1/2+x,1/2+y,z
1/2-x,1/2+y,1/2-z
1/2-x,1/2-y,-z
1/2+x,1/2-y,1/2+z
loop_
_atom_site_type_symbol
_atom_site_label
_atom_site_fract_x
_atom_site_fract_y
_atom_site_fract_z
Si Si1 0.755606 0.001724 0.923725
Si Si2 0.208111 0.497400 0.132244
Si Si3 0.500000 0.242983 0.750000
Si Si4 0.317826 0.628398 0.789266
Si Si5 0.230178 0.373913 0.778310
O O1 0.522689 0.008731 0.895770
O O2 0.849003 0.072562 0.877626
O O3 0.786633 0.925332 0.869601
O O4 0.795705 0.998005 0.035422
O O5 0.254560 0.428725 0.203163
O O6 0.268534 0.572396 0.191571
O O7 0.652886 0.186673 0.807299
O O8 0.357804 0.299821 0.793051
O O9 0.500000 0.666402 0.750000
O O10 0.000000 0.358758 0.750000
#
# Coordination Sequence:
#
# PCOD9302486 Si02
#       5
#     8   8   4   8   8
#     4   9  18  38  66  90 113 148 200 245 281 345
#     4   9  18  38  66  90 113 148 200 245 281 345
#     4  12  22  40  56  82 124 160 182 248 284 350
#     4  11  22  37  61  87 116 157 194 236 293 342
#     4   9  20  37  61  87 114 153 192 236 295 342
#
# _framework density 20.218083
#
# number of rings (size 3 to 8) (size 9 to 14) (size 15 to 20)
#    0.000    2.222    2.222    2.000    6.222    0.889 
#    0.000    2.222    0.000    0.000    0.000    0.000 
#    0.000    0.000    0.000    0.000    0.000    0.000 
#
# Total GULP energy -100312.594973 kJ/mol
# GULP energy per Si atom -5572.921943 kJ/mol
# Density = 2.017207 g / cm^3
# Si number density = 20.218083 Si / 1000 Ang^3
#
#
#
# Elastic Constant Matrix: (Units=GPa)
#
#
# Indices 1 2 3 4 5 6 
#
# 1 98.2414 43.0881 24.3946 0.0000 -9.4226 0.0000
# 2 43.0881 116.9347 42.1343 0.0000 -6.6981 0.0000
# 3 24.3946 42.1343 139.3043 0.0000 -10.5348 0.0000
# 4 0.0000 0.0000 0.0000 0.5605 0.0000 -17.4529
# 5 -9.4226 -6.6981 -10.5348 0.0000 23.2790 0.0000
# 6 0.0000 0.0000 0.0000 -17.4529 0.0000 41.6921
#
#
#
# Elastic Compliance Matrix: (Units=1/GPa)
#
#
# Indices 1 2 3 4 5 6 
#
# 1 0.012513 -0.004169 -0.000661 0.000000 0.003567 0.000000
# 2 -0.004169 0.011037 -0.002584 0.000000 0.000319 0.000000
# 3 -0.000661 -0.002584 0.008283 0.000000 0.002737 0.000000
# 4 0.000000 0.000000 0.000000 -0.148247 0.000000 -0.062058
# 5 0.003567 0.000319 0.002737 0.000000 0.045731 0.000000
# 6 0.000000 0.000000 0.000000 -0.062058 0.000000 -0.001993
#
#
# Mechanical properties :
#
#
# Convention : Reuss Voigt Hill
#
# Bulk Modulus (GPa) = 58.80123 63.74604 61.27364
# Shear Modulus (GPa) = -95.82303 29.43057 -33.19623
#
# Velocity S-wave (km/s) = -6.89185 3.81944 -4.05644
# Velocity P-wave (km/s) = 5.84667 7.14483 2.90388
#
# Compressibility (1/GPa) = 0.01700645
#
# Stress axis : x y z
#
# Youngs Moduli (GPa) = 79.91387 90.60231 120.73084
#
# Poissons Ratio (x) = 0.37768 0.07977
# Poissons Ratio (y) = 0.33313 0.31200
# Poissons Ratio (z) = 0.05280 0.23414
#
# Static dielectric constant tensor:
#      x y z
#    x 1.860500 0.000000 -0.029190 
#    y 0.000000 1.692340 0.000000 
#    z -0.029190 0.000000 1.676210 
# 
# From -- ./inp_files/133536.got.cif
#   From: 2010.05.17/outbox.cif.g08.bks.cpg/sg15_67_cif.got.tgz:133536.got - 2010.06.03 18:47:42.
