data_PCOD9302547
_publ_section_title
;
Structure prediction by ZEFSAII (Michael W. Deem and Ramdas Pophale) SiO2 
 PCOD9302547
Probable space group: C 2/C
;
_chemical_formula_sum "Si O2"
_cell_formula_units_Z 48
_cell_length_a 12.048365
_cell_length_b 15.168406
_cell_length_c 14.588696
_cell_angle_alpha 90.000000
_cell_angle_beta 67.257789
_cell_angle_gamma 90.000000
_cell_volume 2458.866007
_symmetry_space_group_name_H-M "C 2/C"
_symmetry_group_IT_number 15
_symmetry_cell_setting 'monoclinic'
loop_
_space_group_symop_operation_xyz
x,y,z
-x,y,1/2-z
-x,-y,-z
x,-y,1/2+z
1/2+x,1/2+y,z
1/2-x,1/2+y,1/2-z
1/2-x,1/2-y,-z
1/2+x,1/2-y,1/2+z
loop_
_atom_site_type_symbol
_atom_site_label
_atom_site_fract_x
_atom_site_fract_y
_atom_site_fract_z
Si Si1 0.182564 0.049329 0.829235
Si Si2 0.938153 0.534745 0.670145
Si Si3 0.711003 0.537312 0.517425
Si Si4 0.970285 0.382565 0.976845
Si Si5 0.004473 0.822640 0.040742
Si Si6 0.523671 0.407244 0.646518
O O1 0.298922 0.058628 0.729859
O O2 0.113100 0.140312 0.870160
O O3 0.081285 0.981253 0.826459
O O4 0.222469 0.007539 0.913817
O O5 0.999958 0.597504 0.573999
O O6 0.000000 0.536751 0.750000
O O7 0.948947 0.438682 0.619273
O O8 0.837245 0.576483 0.507072
O O9 0.615649 0.617231 0.538851
O O10 0.648133 0.461856 0.598928
O O11 0.974391 0.280022 0.954235
O O12 0.987004 0.846684 0.939171
O O13 0.500000 0.360014 0.750000
#
# Coordination Sequence:
#
# PCOD9302547 Si02
#       6
#     8   8   8   8   8   8
#     4   9  18  38  58  82 118 159 195 237 292 357
#     4  11  23  40  59  78 118 166 201 233 296 365
#     4   9  17  35  63  84 117 153 190 243 298 358
#     4  11  22  38  61  88 117 154 200 244 297 350
#     4   9  20  36  58  92 120 144 192 260 296 337
#     4   9  17  32  60  88 118 160 197 231 298 364
#
# _framework density 19.521194000000001
#
# number of rings (size 3 to 8) (size 9 to 14) (size 15 to 20)
#    0.000    2.333    1.667    3.500    0.000    0.667 
#    6.000    4.167    0.000    0.000    0.000    0.000 
#    0.000    0.000    0.000    0.000    0.000    0.000 
#
# Total GULP energy -133924.161199 kJ/mol
# GULP energy per Si atom -5580.173383 kJ/mol
# Density = 1.947676 g / cm^3
# Si number density = 19.521194 Si / 1000 Ang^3
#
#
#
# Elastic Constant Matrix: (Units=GPa)
#
#
# Indices 1 2 3 4 5 6 
#
# 1 69.1750 16.6924 32.9401 0.0000 -10.1598 0.0000
# 2 16.6924 63.2949 -0.5354 0.0000 -13.8690 0.0000
# 3 32.9401 -0.5354 90.7542 0.0000 -9.6284 0.0000
# 4 0.0000 0.0000 0.0000 11.2399 0.0000 -3.5290
# 5 -10.1598 -13.8690 -9.6284 0.0000 28.5830 0.0000
# 6 0.0000 0.0000 0.0000 -3.5290 0.0000 15.8817
#
#
#
# Elastic Compliance Matrix: (Units=1/GPa)
#
#
# Indices 1 2 3 4 5 6 
#
# 1 0.019099 -0.004590 -0.006715 0.000000 0.002300 0.000000
# 2 -0.004590 0.018879 0.002672 0.000000 0.008429 0.000000
# 3 -0.006715 0.002672 0.013851 0.000000 0.003575 0.000000
# 4 0.000000 0.000000 0.000000 0.095641 0.000000 0.021252
# 5 0.002300 0.008429 0.003575 0.000000 0.041097 0.000000
# 6 0.000000 0.000000 0.000000 0.021252 0.000000 0.067688
#
#
# Mechanical properties :
#
#
# Convention : Reuss Voigt Hill
#
# Bulk Modulus (GPa) = 28.93337 35.71314 32.32325
# Shear Modulus (GPa) = 17.54120 22.74941 20.14531
#
# Velocity S-wave (km/s) = 3.00087 3.41745 3.21592
# Velocity P-wave (km/s) = 5.18273 5.82291 5.51212
#
# Compressibility (1/GPa) = 0.03456217
#
# Stress axis : x y z
#
# Youngs Moduli (GPa) = 52.35842 52.96887 72.19574
#
# Poissons Ratio (x) = 0.24312 0.48482
# Poissons Ratio (y) = 0.24032 -0.19287
# Poissons Ratio (z) = 0.35160 -0.14151
#
# Static dielectric constant tensor:
#      x y z
#    x 1.726790 0.000000 0.029760 
#    y 0.000000 1.636880 0.000000 
#    z 0.029760 0.000000 1.709110 
# 
# From -- ./inp_files/143442.got.cif
#   From: 2010.05.17/outbox.cif.g08.bks.cpg/sg15_72_cif.got.tgz:143442.got - 2010.06.03 18:47:42.
