data_PCOD9302723
_publ_section_title
;
Structure prediction by ZEFSAII (Michael W. Deem and Ramdas Pophale) SiO2 
 PCOD9302723
Probable space group: C 2/C
;
_chemical_formula_sum "Si O2"
_cell_formula_units_Z 48
_cell_length_a 11.839037
_cell_length_b 18.445804
_cell_length_c 11.938167
_cell_angle_alpha 90.000000
_cell_angle_beta 79.725375
_cell_angle_gamma 90.000000
_cell_volume 2565.257013
_symmetry_space_group_name_H-M "C 2/C"
_symmetry_group_IT_number 15
_symmetry_cell_setting 'monoclinic'
loop_
_space_group_symop_operation_xyz
x,y,z
-x,y,1/2-z
-x,-y,-z
x,-y,1/2+z
1/2+x,1/2+y,z
1/2-x,1/2+y,1/2-z
1/2-x,1/2-y,-z
1/2+x,1/2-y,1/2+z
loop_
_atom_site_type_symbol
_atom_site_label
_atom_site_fract_x
_atom_site_fract_y
_atom_site_fract_z
Si Si1 0.814337 0.936332 0.249810
Si Si2 0.314248 0.917316 0.776014
Si Si3 0.001490 0.424845 0.935894
Si Si4 0.326178 0.297775 0.576700
Si Si5 0.086412 0.342335 0.336466
Si Si6 0.026582 0.926028 0.064483
O O1 0.704126 0.885900 0.291278
O O2 0.883632 0.945741 0.353050
O O3 0.905962 0.905147 0.144812
O O4 0.770234 0.014439 0.216447
O O5 0.408749 0.932026 0.854236
O O6 0.378693 0.909526 0.646413
O O7 0.255221 0.845227 0.830080
O O8 0.965645 0.368191 0.036164
O O9 0.000000 0.500000 0.000000
O O10 0.250000 0.250000 0.500000
O O11 0.388720 0.241353 0.646304
O O12 0.413404 0.356928 0.506545
O O13 0.000000 0.356302 0.250000
O O14 0.000000 0.000000 0.000000
#
# Coordination Sequence:
#
# PCOD9302723 Si02
#       6
#     8   8   8   8   8   8
#     4  11  23  41  68 105 135 180 238 289 352 430
#     4  11  23  40  70 101 137 185 237 288 358 436
#     4  11  22  39  67 103 134 180 234 291 352 427
#     4  12  24  47  69  98 145 192 236 296 368 427
#     4  12  26  45  69 101 141 185 236 304 362 426
#     4  11  24  42  71 100 139 187 235 288 354 438
#
# _framework density 18.711575
#
# number of rings (size 3 to 8) (size 9 to 14) (size 15 to 20)
#    0.000    0.667    6.667    1.000    0.000    4.000 
#    0.000    1.667    0.000    0.000    0.000    0.000 
#    0.000    0.000    0.000    0.000    0.000    0.000 
#
# Total GULP energy -133975.956833 kJ/mol
# GULP energy per Si atom -5582.331535 kJ/mol
# Density = 1.866899 g / cm^3
# Si number density = 18.711575 Si / 1000 Ang^3
#
#
#
# Elastic Constant Matrix: (Units=GPa)
#
#
# Indices 1 2 3 4 5 6 
#
# 1 116.1117 52.5071 68.8571 0.0000 -16.0164 0.0000
# 2 52.5071 128.5790 58.2094 0.0000 -19.3728 0.0000
# 3 68.8571 58.2094 125.7428 0.0000 -23.7764 0.0000
# 4 0.0000 0.0000 0.0000 43.5617 0.0000 -6.9821
# 5 -16.0164 -19.3728 -23.7764 0.0000 34.9686 0.0000
# 6 0.0000 0.0000 0.0000 -6.9821 0.0000 103.9302
#
#
#
# Elastic Compliance Matrix: (Units=1/GPa)
#
#
# Indices 1 2 3 4 5 6 
#
# 1 0.013484 -0.002689 -0.006028 0.000000 0.000588 0.000000
# 2 -0.002689 0.010603 -0.002936 0.000000 0.002647 0.000000
# 3 -0.006028 -0.002936 0.013522 0.000000 0.004806 0.000000
# 4 0.000000 0.000000 0.000000 0.023206 0.000000 0.001559
# 5 0.000588 0.002647 0.004806 0.000000 0.033601 0.000000
# 6 0.000000 0.000000 0.000000 0.001559 0.000000 0.009727
#
#
# Mechanical properties :
#
#
# Convention : Reuss Voigt Hill
#
# Bulk Modulus (GPa) = 69.91192 81.06453 75.48822
# Shear Modulus (GPa) = 37.81723 49.21611 43.51667
#
# Velocity S-wave (km/s) = 4.50050 5.13416 4.82774
# Velocity P-wave (km/s) = 8.02808 8.86360 8.45616
#
# Compressibility (1/GPa) = 0.01430371
#
# Stress axis : x y z
#
# Youngs Moduli (GPa) = 74.16057 94.31204 73.95615
#
# Poissons Ratio (x) = 0.25360 0.44582
# Poissons Ratio (y) = 0.19941 0.21710
# Poissons Ratio (z) = 0.44705 0.27686
#
# Static dielectric constant tensor:
#      x y z
#    x 1.600260 0.000000 -0.418180 
#    y 0.000000 1.649430 0.000000 
#    z -0.418180 0.000000 -3.271670 
# 
# From -- ./inp_files/87289.got.cif
#   From: 2010.05.17/outbox.cif.g08.bks.cpg/sg15_44_cif.got.tgz:87289.got - 2010.06.03 18:47:42.
