data_PCOD9302829
_publ_section_title
;
Structure prediction by ZEFSAII (Michael W. Deem and Ramdas Pophale) SiO2 
 PCOD9302829
Probable space group: C 2/C
;
_chemical_formula_sum "Si O2"
_cell_formula_units_Z 40
_cell_length_a 16.717372
_cell_length_b 9.347780
_cell_length_c 10.851821
_cell_angle_alpha 90.000000
_cell_angle_beta 92.408182
_cell_angle_gamma 90.000000
_cell_volume 1694.319815
_symmetry_space_group_name_H-M "C 2/C"
_symmetry_group_IT_number 15
_symmetry_cell_setting 'monoclinic'
loop_
_space_group_symop_operation_xyz
x,y,z
-x,y,1/2-z
-x,-y,-z
x,-y,1/2+z
1/2+x,1/2+y,z
1/2-x,1/2+y,1/2-z
1/2-x,1/2-y,-z
1/2+x,1/2-y,1/2+z
loop_
_atom_site_type_symbol
_atom_site_label
_atom_site_fract_x
_atom_site_fract_y
_atom_site_fract_z
Si Si1 0.144541 0.451295 0.378548
Si Si2 0.383858 0.693317 0.244748
Si Si3 0.653013 0.242606 0.487514
Si Si4 0.589590 0.367145 0.258824
Si Si5 0.795612 0.629564 0.348156
O O1 0.085292 0.320566 0.342094
O O2 0.114034 0.605814 0.418302
O O3 0.188232 0.502231 0.252585
O O4 0.193164 0.412028 0.507751
O O5 0.379595 0.754869 0.379809
O O6 0.414823 0.534539 0.271380
O O7 0.294269 0.676788 0.185235
O O8 0.750000 0.250000 0.500000
O O9 0.625644 0.370033 0.398790
O O10 0.500000 0.308742 0.250000
O O11 0.646916 0.264513 0.181790
#
# Coordination Sequence:
#
# PCOD9302829 Si02
#       5
#     8   8   8   8   8
#     4  11  22  40  66 101 132 180 240 293 338 408
#     4  12  23  40  71  99 137 190 240 282 348 427
#     4  11  22  42  70 101 140 183 243 291 342 428
#     4  11  27  45  68 106 147 180 227 300 364 413
#     4  11  23  42  71 102 138 186 240 288 346 427
#
# _framework density 23.608294999999998
#
# number of rings (size 3 to 8) (size 9 to 14) (size 15 to 20)
#    0.000    0.800    6.000    3.000    2.800    0.800 
#    0.000    8.000    0.000    0.000    0.000    0.000 
#    0.000    0.000    0.000    0.000    0.000    0.000 
#
# Total GULP energy -111484.421963 kJ/mol
# GULP energy per Si atom -5574.221098 kJ/mol
# Density = 2.355456 g / cm^3
# Si number density = 23.608295 Si / 1000 Ang^3
#
#
#
# Elastic Constant Matrix: (Units=GPa)
#
#
# Indices 1 2 3 4 5 6 
#
# 1 89.5298 13.1107 3.8647 0.0000 9.0237 0.0000
# 2 13.1107 118.9236 27.5603 0.0000 -13.9967 0.0000
# 3 3.8647 27.5603 149.5440 0.0000 -4.0420 0.0000
# 4 0.0000 0.0000 0.0000 26.1197 0.0000 -1.4701
# 5 9.0237 -13.9967 -4.0420 0.0000 11.6925 0.0000
# 6 0.0000 0.0000 0.0000 -1.4701 0.0000 4.9510
#
#
#
# Elastic Compliance Matrix: (Units=1/GPa)
#
#
# Indices 1 2 3 4 5 6 
#
# 1 0.012995 -0.003008 -0.000151 0.000000 -0.013682 0.000000
# 2 -0.003008 0.010830 -0.001519 0.000000 0.014760 0.000000
# 3 -0.000151 -0.001519 0.006990 0.000000 0.000715 0.000000
# 4 0.000000 0.000000 0.000000 0.038936 0.000000 0.011562
# 5 -0.013682 0.014760 0.000715 0.000000 0.113999 0.000000
# 6 0.000000 0.000000 0.000000 0.011562 0.000000 0.205411
#
#
# Mechanical properties :
#
#
# Convention : Reuss Voigt Hill
#
# Bulk Modulus (GPa) = 46.60167 49.67430 48.13799
# Shear Modulus (GPa) = 12.32526 29.45011 20.88768
#
# Velocity S-wave (km/s) = 2.28737 3.53575 2.97772
# Velocity P-wave (km/s) = 5.17286 6.14455 5.67952
#
# Compressibility (1/GPa) = 0.02145846
#
# Stress axis : x y z
#
# Youngs Moduli (GPa) = 76.94976 92.33950 143.05748
#
# Poissons Ratio (x) = 0.27775 0.02165
# Poissons Ratio (y) = 0.23146 0.21733
# Poissons Ratio (z) = 0.01164 0.14028
#
# Static dielectric constant tensor:
#      x y z
#    x 1.903160 0.000000 -0.047640 
#    y 0.000000 2.070280 0.000000 
#    z -0.047640 0.000000 1.860830 
# 
# From -- ./inp_files/102839.got.cif
#   From: 2010.05.17/outbox.cif.g08.bks.cpg/sg15_52_cif.got.tgz:102839.got - 2010.06.03 18:47:42.
