data_PCOD9302016
_publ_section_title
;
Structure prediction by ZEFSAII (Michael W. Deem and Ramdas Pophale) SiO2 
 PCOD9302016
Probable space group: C 2/C
;
_chemical_formula_sum "Si O2"
_cell_formula_units_Z 60
_cell_length_a 12.276665
_cell_length_b 7.402141
_cell_length_c 28.366791
_cell_angle_alpha 90.000000
_cell_angle_beta 70.312134
_cell_angle_gamma 90.000000
_cell_volume 2427.099748
_symmetry_space_group_name_H-M "C 2/C"
_symmetry_group_IT_number 15
_symmetry_cell_setting 'monoclinic'
loop_
_space_group_symop_operation_xyz
x,y,z
-x,y,1/2-z
-x,-y,-z
x,-y,1/2+z
1/2+x,1/2+y,z
1/2-x,1/2+y,1/2-z
1/2-x,1/2-y,-z
1/2+x,1/2-y,1/2+z
loop_
_atom_site_type_symbol
_atom_site_label
_atom_site_fract_x
_atom_site_fract_y
_atom_site_fract_z
Si Si1 0.836743 0.326308 0.697084
Si Si2 0.500000 0.089911 0.250000
Si Si3 0.558476 0.140710 0.955802
Si Si4 0.839404 0.605165 0.931036
Si Si5 0.619130 0.548128 0.508835
Si Si6 0.306882 0.933193 0.333433
Si Si7 0.764290 0.339776 0.151748
Si Si8 0.935091 0.788658 0.385734
O O1 0.894539 0.310526 0.739816
O O2 0.798707 0.529669 0.689417
O O3 0.933019 0.245753 0.647110
O O4 0.730216 0.197121 0.702948
O O5 0.439082 0.984790 0.301684
O O6 0.648243 0.093197 0.901928
O O7 0.444363 0.203364 0.942652
O O8 0.637163 0.262211 0.978760
O O9 0.500000 0.000000 0.000000
O O10 0.800982 0.669081 0.884548
O O11 0.887487 0.406349 0.909587
O O12 0.727258 0.574773 0.979522
O O13 0.500000 0.500000 0.500000
O O14 0.591417 0.583408 0.566803
O O15 0.230619 0.119377 0.344774
O O16 0.635391 0.359507 0.149270
#
# Coordination Sequence:
#
# PCOD9302016 Si02
#       8
#     8   4   8   8   8   8   8   8
#     4  12  26  49  75 103 139 179 230 291 361 420
#     4  12  26  52  72 108 142 170 230 304 352 428
#     4  12  21  36  67  93 135 193 230 277 351 390
#     4  11  21  42  63  92 138 178 230 289 338 400
#     4  12  24  36  60  97 136 182 235 280 328 410
#     4  11  26  48  73 103 141 181 233 293 353 428
#     4  11  23  46  72 101 141 186 229 289 350 414
#     4  11  21  41  66  98 137 182 228 281 341 405
#
# _framework density 24.720865
#
# number of rings (size 3 to 8) (size 9 to 14) (size 15 to 20)
#    0.000    0.533    8.000    2.000    1.867    1.600 
#    2.400    1.333    0.000    0.000    0.000    0.000 
#    0.000    0.000    0.000    0.000    0.000    0.000 
#
# Total GULP energy -167641.983574 kJ/mol
# GULP energy per Si atom -5588.066119 kJ/mol
# Density = 2.466460 g / cm^3
# Si number density = 24.720865 Si / 1000 Ang^3
#
#
#
# Elastic Constant Matrix: (Units=GPa)
#
#
# Indices 1 2 3 4 5 6 
#
# 1 122.5840 28.5491 18.2198 0.0000 21.5340 0.0000
# 2 28.5491 72.4836 19.2093 0.0000 19.0879 0.0000
# 3 18.2198 19.2093 92.3814 0.0000 14.5417 0.0000
# 4 0.0000 0.0000 0.0000 8.3015 0.0000 11.0603
# 5 21.5340 19.0879 14.5417 0.0000 67.1774 0.0000
# 6 0.0000 0.0000 0.0000 11.0603 0.0000 45.9207
#
#
#
# Elastic Compliance Matrix: (Units=1/GPa)
#
#
# Indices 1 2 3 4 5 6 
#
# 1 0.009317 -0.002909 -0.000924 0.000000 -0.001960 0.000000
# 2 -0.002909 0.016409 -0.002331 0.000000 -0.003226 0.000000
# 3 -0.000924 -0.002331 0.011741 0.000000 -0.001583 0.000000
# 4 0.000000 0.000000 0.000000 0.177383 0.000000 -0.042724
# 5 -0.001960 -0.003226 -0.001583 0.000000 0.016773 0.000000
# 6 0.000000 0.000000 0.000000 -0.042724 0.000000 0.032067
#
#
# Mechanical properties :
#
#
# Convention : Reuss Voigt Hill
#
# Bulk Modulus (GPa) = 39.77757 46.60061 43.18909
# Shear Modulus (GPa) = 17.58113 39.04463 28.31288
#
# Velocity S-wave (km/s) = 2.66970 3.97850 3.38790
# Velocity P-wave (km/s) = 5.06248 6.32426 5.72822
#
# Compressibility (1/GPa) = 0.02513980
#
# Stress axis : x y z
#
# Youngs Moduli (GPa) = 107.33394 60.94258 85.17344
#
# Poissons Ratio (x) = 0.17725 0.07871
# Poissons Ratio (y) = 0.31218 0.19851
# Poissons Ratio (z) = 0.09919 0.14203
#
# Static dielectric constant tensor:
#      x y z
#    x 1.970610 0.000000 0.026260 
#    y 0.000000 2.243830 0.000000 
#    z 0.026260 0.000000 2.022870 
# 
# From -- ./inp_files/310267.got.cif
#   From: 2010.05.17/outbox.cif.g08.bks.cpg/sg15_156_cif.got.tgz:310267.got - 2010.06.03 18:47:42.
