data_PCOD9302722
_publ_section_title
;
Structure prediction by ZEFSAII (Michael W. Deem and Ramdas Pophale) SiO2 
 PCOD9302722
Probable space group: C 2/C
;
_chemical_formula_sum "Si O2"
_cell_formula_units_Z 60
_cell_length_a 19.125632
_cell_length_b 12.362613
_cell_length_c 17.404100
_cell_angle_alpha 90.000000
_cell_angle_beta 134.986935
_cell_angle_gamma 90.000000
_cell_volume 2910.460101
_symmetry_space_group_name_H-M "C 2/C"
_symmetry_group_IT_number 15
_symmetry_cell_setting 'monoclinic'
loop_
_space_group_symop_operation_xyz
x,y,z
-x,y,1/2-z
-x,-y,-z
x,-y,1/2+z
1/2+x,1/2+y,z
1/2-x,1/2+y,1/2-z
1/2-x,1/2-y,-z
1/2+x,1/2-y,1/2+z
loop_
_atom_site_type_symbol
_atom_site_label
_atom_site_fract_x
_atom_site_fract_y
_atom_site_fract_z
Si Si1 0.511451 0.096970 0.450234
Si Si2 0.715732 0.995433 0.076643
Si Si3 0.500000 0.356007 0.750000
Si Si4 0.104471 0.033410 0.185784
Si Si5 0.032063 0.843804 0.479125
Si Si6 0.285871 0.635857 0.496307
Si Si7 0.650971 0.817923 0.417524
Si Si8 0.398300 0.016537 0.218183
O O1 0.627400 0.090067 0.516999
O O2 0.495566 0.220955 0.460379
O O3 0.433237 0.058337 0.326599
O O4 0.500000 0.000000 0.500000
O O5 0.779969 0.021588 0.201632
O O6 0.791862 0.946616 0.072873
O O7 0.659886 0.097832 0.994824
O O8 0.446128 0.424612 0.774537
O O9 0.431090 0.273618 0.648779
O O10 0.078843 0.113973 0.095569
O O11 0.056392 0.921333 0.118787
O O12 0.116581 0.853873 0.479097
O O13 0.250000 0.750000 0.500000
O O14 0.194725 0.587221 0.378105
O O15 0.750000 0.750000 0.500000
O O16 0.634032 0.893777 0.328911
O O17 0.500000 0.033117 0.250000
#
# Coordination Sequence:
#
# PCOD9302722 Si02
#       8
#     8   8   4   8   8   8   8   8
#     4  12  27  44  69 101 136 185 227 287 349 404
#     4  11  23  46  66 101 132 178 238 277 343 420
#     4  12  22  44  74  98 136 188 224 280 344 418
#     4  11  27  46  69 102 141 180 231 282 354 410
#     4  11  27  48  66 104 142 181 231 291 346 415
#     4  11  22  43  71  99 135 178 230 280 345 412
#     4  11  22  39  67 102 132 174 232 285 331 401
#     4  11  22  42  66 101 135 176 234 285 339 407
#
# _framework density 20.615297000000002
#
# number of rings (size 3 to 8) (size 9 to 14) (size 15 to 20)
#    0.000    0.800    6.000    0.800    9.333    0.000 
#    1.200    0.000    0.000    0.000    0.000    0.000 
#    0.000    0.000    0.000    0.000    0.000    0.000 
#
# Total GULP energy -167358.887378 kJ/mol
# GULP energy per Si atom -5578.629579 kJ/mol
# Density = 2.056838 g / cm^3
# Si number density = 20.615297 Si / 1000 Ang^3
#
#
#
# Elastic Constant Matrix: (Units=GPa)
#
#
# Indices 1 2 3 4 5 6 
#
# 1 41.4645 17.8111 3.6783 0.0000 -6.7744 0.0000
# 2 17.8111 136.8706 70.8285 0.0000 -12.3698 0.0000
# 3 3.6783 70.8285 149.5272 0.0000 -2.4332 0.0000
# 4 0.0000 0.0000 0.0000 17.1496 0.0000 5.9730
# 5 -6.7744 -12.3698 -2.4332 0.0000 30.3826 0.0000
# 6 0.0000 0.0000 0.0000 5.9730 0.0000 33.4183
#
#
#
# Elastic Compliance Matrix: (Units=1/GPa)
#
#
# Indices 1 2 3 4 5 6 
#
# 1 0.026297 -0.003603 0.001133 0.000000 0.004487 0.000000
# 2 -0.003603 0.010577 -0.004871 0.000000 0.003113 0.000000
# 3 0.001133 -0.004871 0.008951 0.000000 -0.001014 0.000000
# 4 0.000000 0.000000 0.000000 0.062181 0.000000 -0.011114
# 5 0.004487 0.003113 -0.001014 0.000000 0.035100 0.000000
# 6 0.000000 0.000000 0.000000 -0.011114 0.000000 0.031910
#
#
# Mechanical properties :
#
#
# Convention : Reuss Voigt Hill
#
# Bulk Modulus (GPa) = 32.10988 56.94421 44.52704
# Shear Modulus (GPa) = 24.99014 31.89308 28.44161
#
# Velocity S-wave (km/s) = 3.48546 3.93753 3.71837
# Velocity P-wave (km/s) = 5.63981 6.95374 6.33096
#
# Compressibility (1/GPa) = 0.03114307
#
# Stress axis : x y z
#
# Youngs Moduli (GPa) = 38.02688 94.54577 111.72419
#
# Poissons Ratio (x) = 0.34061 -0.12654
# Poissons Ratio (y) = 0.13700 0.54419
# Poissons Ratio (z) = -0.04307 0.46051
#
# Static dielectric constant tensor:
#      x y z
#    x 1.812730 0.000000 -0.039010 
#    y 0.000000 1.643370 0.000000 
#    z -0.039010 0.000000 1.585360 
# 
# From -- ./inp_files/215222.got.cif
#   From: 2010.05.17/outbox.cif.g08.bks.cpg/sg15_108_cif.got.tgz:215222.got - 2010.06.03 18:47:42.
