data_PCOD9302685
_publ_section_title
;
Structure prediction by ZEFSAII (Michael W. Deem and Ramdas Pophale) SiO2 
 PCOD9302685
Probable space group: C 2/C
;
_chemical_formula_sum "Si O2"
_cell_formula_units_Z 40
_cell_length_a 7.704239
_cell_length_b 16.879986
_cell_length_c 20.690423
_cell_angle_alpha 90.000000
_cell_angle_beta 41.850648
_cell_angle_gamma 90.000000
_cell_volume 1795.235810
_symmetry_space_group_name_H-M "C 2/C"
_symmetry_group_IT_number 15
_symmetry_cell_setting 'monoclinic'
loop_
_space_group_symop_operation_xyz
x,y,z
-x,y,1/2-z
-x,-y,-z
x,-y,1/2+z
1/2+x,1/2+y,z
1/2-x,1/2+y,1/2-z
1/2-x,1/2-y,-z
1/2+x,1/2-y,1/2+z
loop_
_atom_site_type_symbol
_atom_site_label
_atom_site_fract_x
_atom_site_fract_y
_atom_site_fract_z
Si Si1 0.000000 0.731911 0.250000
Si Si2 0.191013 0.781206 0.335890
Si Si3 0.500000 0.486519 0.750000
Si Si4 0.488588 0.115059 0.073957
Si Si5 0.259598 0.082118 0.358302
Si Si6 0.974434 0.056940 0.887384
O O1 0.070333 0.775097 0.296703
O O2 0.242383 0.670851 0.170572
O O3 0.500000 0.770187 0.250000
O O4 0.064507 0.708780 0.410809
O O5 0.118789 0.868629 0.379636
O O6 0.280150 0.430572 0.841531
O O7 0.588476 0.540154 0.784823
O O8 0.650153 0.093457 0.093918
O O9 0.673261 0.083056 0.966545
O O10 0.500000 0.045446 0.250000
O O11 0.020731 0.024439 0.413297
#
# Coordination Sequence:
#
# PCOD9302685 Si02
#       6
#     4   8   4   8   8   8
#     4   8  19  40  61  86 124 174 196 246 317 364
#     4  11  22  39  65  90 128 168 201 254 314 364
#     4  12  23  42  61  90 130 156 198 262 313 362
#     4  11  23  41  64  88 122 167 203 249 311 376
#     4   9  18  39  64  82 120 159 202 250 304 356
#     4  12  23  38  64  95 119 157 212 256 304 364
#
# _framework density 22.281193999999999
#
# number of rings (size 3 to 8) (size 9 to 14) (size 15 to 20)
#    0.600    0.800    3.000    3.000    0.000    0.000 
#    0.000    0.000    0.000    4.800    0.000    0.000 
#    0.000    0.000    0.000    0.000    0.000    0.000 
#
# Total GULP energy -111598.567207 kJ/mol
# GULP energy per Si atom -5579.928360 kJ/mol
# Density = 2.223048 g / cm^3
# Si number density = 22.281194 Si / 1000 Ang^3
#
#
#
# Elastic Constant Matrix: (Units=GPa)
#
#
# Indices 1 2 3 4 5 6 
#
# 1 43.1372 18.5508 0.8701 -0.0009 -3.5187 -0.0009
# 2 18.5508 103.0723 5.9629 -0.0015 -6.8696 0.0002
# 3 0.8701 5.9629 48.6621 -0.0087 -13.8372 0.0064
# 4 -0.0009 -0.0015 -0.0087 19.4980 0.0065 -4.1793
# 5 -3.5187 -6.8696 -13.8372 0.0065 28.4102 -0.0033
# 6 -0.0009 0.0002 0.0064 -4.1793 -0.0033 17.4146
#
#
#
# Elastic Compliance Matrix: (Units=1/GPa)
#
#
# Indices 1 2 3 4 5 6 
#
# 1 0.025271 -0.004431 0.000785 0.000001 0.002441 0.000002
# 2 -0.004431 0.010654 -0.000754 0.000000 0.001660 0.000000
# 3 0.000785 -0.000754 0.023916 0.000006 0.011563 -0.000005
# 4 0.000001 0.000000 0.000006 0.054069 -0.000008 0.012976
# 5 0.002441 0.001660 0.011563 -0.000008 0.041534 0.000002
# 6 0.000002 0.000000 -0.000005 0.012976 0.000002 0.060537
#
#
# Mechanical properties :
#
#
# Convention : Reuss Voigt Hill
#
# Bulk Modulus (GPa) = 19.59224 27.29326 23.44275
# Shear Modulus (GPa) = 20.67875 24.36374 22.52124
#
# Velocity S-wave (km/s) = 3.04975 3.31035 3.18272
# Velocity P-wave (km/s) = 4.60582 5.18529 4.90412
#
# Compressibility (1/GPa) = 0.05104061
#
# Stress axis : x y z
#
# Youngs Moduli (GPa) = 39.57163 93.86448 41.81250
#
# Poissons Ratio (x) = 0.41591 -0.03283
# Poissons Ratio (y) = 0.17534 0.03154
# Poissons Ratio (z) = -0.03107 0.07080
#
# Static dielectric constant tensor:
#      x y z
#    x 1.826480 0.000000 0.002350 
#    y 0.000000 1.835930 0.000000 
#    z 0.002350 0.000000 1.895780 
# 
# From -- ./inp_files/264125.got.cif
#   From: 2010.05.17/outbox.cif.g08.bks.cpg/sg15_133_cif.got.tgz:264125.got - 2010.06.03 18:47:42.
