data_PCOD9302391
_publ_section_title
;
Structure prediction by ZEFSAII (Michael W. Deem and Ramdas Pophale) SiO2 
 PCOD9302391
Probable space group: C 2/C
;
_chemical_formula_sum "Si O2"
_cell_formula_units_Z 48
_cell_length_a 13.275544
_cell_length_b 12.333224
_cell_length_c 16.810295
_cell_angle_alpha 90.000000
_cell_angle_beta 64.349029
_cell_angle_gamma 90.000000
_cell_volume 2481.103348
_symmetry_space_group_name_H-M "C 2/C"
_symmetry_group_IT_number 15
_symmetry_cell_setting 'monoclinic'
loop_
_space_group_symop_operation_xyz
x,y,z
-x,y,1/2-z
-x,-y,-z
x,-y,1/2+z
1/2+x,1/2+y,z
1/2-x,1/2+y,1/2-z
1/2-x,1/2-y,-z
1/2+x,1/2-y,1/2+z
loop_
_atom_site_type_symbol
_atom_site_label
_atom_site_fract_x
_atom_site_fract_y
_atom_site_fract_z
Si Si1 0.166645 0.047005 0.032241
Si Si2 0.650426 0.146304 0.652215
Si Si3 0.623738 0.082607 0.232501
Si Si4 0.522390 0.247951 0.560252
Si Si5 0.205166 0.351032 0.876196
Si Si6 0.806049 0.819612 0.550139
O O1 0.062642 0.128742 0.063476
O O2 0.225471 0.058683 0.098155
O O3 0.258264 0.099845 0.941783
O O4 0.142825 0.926773 0.010106
O O5 0.545691 0.184019 0.634193
O O6 0.708194 0.252546 0.668763
O O7 0.629385 0.046325 0.716447
O O8 0.500000 0.119361 0.250000
O O9 0.652769 0.108657 0.312932
O O10 0.713343 0.138580 0.143767
O O11 0.607337 0.195418 0.466791
O O12 0.400275 0.253220 0.565095
O O13 0.750000 0.750000 0.500000
#
# Coordination Sequence:
#
# PCOD9302391 Si02
#       6
#     8   8   8   8   8   8
#     4   8  17  35  57  78 102 135 177 221 269 317
#     4   8  18  35  56  78 101 139 181 213 264 330
#     4  11  23  36  50  77 114 144 174 223 275 317
#     4   9  17  36  61  78 101 143 186 219 260 326
#     4   9  18  36  58  78 104 141 180 222 269 314
#     4  11  22  34  53  83 111 142 183 224 265 318
#
# _framework density 19.346232000000001
#
# number of rings (size 3 to 8) (size 9 to 14) (size 15 to 20)
#    0.000    2.667    0.000    3.500    0.000    4.000 
#    0.000    7.500    0.000    0.000    0.000    0.000 
#    0.000    0.000    0.000    0.000    0.000    0.000 
#
# Total GULP energy -133943.986944 kJ/mol
# GULP energy per Si atom -5580.999456 kJ/mol
# Density = 1.930220 g / cm^3
# Si number density = 19.346232 Si / 1000 Ang^3
#
#
#
# Elastic Constant Matrix: (Units=GPa)
#
#
# Indices 1 2 3 4 5 6 
#
# 1 154.3746 39.1346 46.4902 0.0000 29.9263 0.0000
# 2 39.1346 75.8510 36.6505 0.0000 20.8100 0.0000
# 3 46.4902 36.6505 71.3076 0.0000 24.7560 0.0000
# 4 0.0000 0.0000 0.0000 21.7165 0.0000 1.2343
# 5 29.9263 20.8100 24.7560 0.0000 41.2551 0.0000
# 6 0.0000 0.0000 0.0000 1.2343 0.0000 21.1274
#
#
#
# Elastic Compliance Matrix: (Units=1/GPa)
#
#
# Indices 1 2 3 4 5 6 
#
# 1 0.008643 -0.001858 -0.003573 0.000000 -0.003188 0.000000
# 2 -0.001858 0.018577 -0.007012 0.000000 -0.003815 0.000000
# 3 -0.003573 -0.007012 0.022521 0.000000 -0.007385 0.000000
# 4 0.000000 0.000000 0.000000 0.046201 0.000000 -0.002699
# 5 -0.003188 -0.003815 -0.007385 0.000000 0.032908 0.000000
# 6 0.000000 0.000000 0.000000 -0.002699 0.000000 0.047490
#
#
# Mechanical properties :
#
#
# Convention : Reuss Voigt Hill
#
# Bulk Modulus (GPa) = 40.23389 60.67595 50.45492
# Shear Modulus (GPa) = 23.86485 28.77031 26.31758
#
# Velocity S-wave (km/s) = 3.51603 3.86051 3.69229
# Velocity P-wave (km/s) = 6.10943 7.16259 6.65687
#
# Compressibility (1/GPa) = 0.02485467
#
# Stress axis : x y z
#
# Youngs Moduli (GPa) = 115.70276 53.82873 44.40202
#
# Poissons Ratio (x) = 0.10002 0.15865
# Poissons Ratio (y) = 0.21498 0.31137
# Poissons Ratio (z) = 0.41341 0.37747
#
# Static dielectric constant tensor:
#      x y z
#    x 1.662450 0.000000 -0.027350 
#    y 0.000000 1.664280 0.000000 
#    z -0.027350 0.000000 1.684730 
# 
# From -- ./inp_files/177892.got.cif
#   From: 2010.05.17/outbox.cif.g08.bks.cpg/sg15_89_cif.got.tgz:177892.got - 2010.06.03 18:47:42.
