data_PCOD9302523
_publ_section_title
;
Structure prediction by ZEFSAII (Michael W. Deem and Ramdas Pophale) SiO2 
 PCOD9302523
Probable space group: C 2/C
;
_chemical_formula_sum "Si O2"
_cell_formula_units_Z 36
_cell_length_a 17.884212
_cell_length_b 9.179839
_cell_length_c 18.800299
_cell_angle_alpha 90.000000
_cell_angle_beta 32.354153
_cell_angle_gamma 90.000000
_cell_volume 1651.756324
_symmetry_space_group_name_H-M "C 2/C"
_symmetry_group_IT_number 15
_symmetry_cell_setting 'monoclinic'
loop_
_space_group_symop_operation_xyz
x,y,z
-x,y,1/2-z
-x,-y,-z
x,-y,1/2+z
1/2+x,1/2+y,z
1/2-x,1/2+y,1/2-z
1/2-x,1/2-y,-z
1/2+x,1/2-y,1/2+z
loop_
_atom_site_type_symbol
_atom_site_label
_atom_site_fract_x
_atom_site_fract_y
_atom_site_fract_z
Si Si1 0.500000 0.165430 0.250000
Si Si2 0.497623 0.393299 0.435540
Si Si3 0.767024 0.817251 0.346095
Si Si4 0.582131 0.365844 0.610586
Si Si5 0.639799 0.057712 0.534655
O O1 0.370033 0.261403 0.326828
O O2 0.458963 0.060096 0.348182
O O3 0.500000 0.500000 0.500000
O O4 0.367917 0.285093 0.547457
O O5 0.642744 0.315125 0.298594
O O6 0.474226 0.497407 0.386526
O O7 0.711968 0.977871 0.410734
O O8 0.500000 0.343206 0.750000
O O9 0.572680 0.214929 0.574454
O O10 0.740937 0.404940 0.503154
#
# Coordination Sequence:
#
# PCOD9302523 Si02
#       5
#     4   8   8   8   8
#     4  12  20  38  74 108 132 170 240 284 342 400
#     4  12  28  48  68  99 141 186 230 280 345 420
#     4  12  24  45  71 100 136 185 232 285 342 411
#     4  11  22  41  67 101 137 172 224 288 340 396
#     4  11  22  37  70 105 135 173 224 289 341 396
#
# _framework density 21.794983999999999
#
# number of rings (size 3 to 8) (size 9 to 14) (size 15 to 20)
#    0.000    0.444    7.778    2.000    0.000    1.778 
#    4.000    2.222    0.000    0.000    0.000    0.000 
#    0.000    0.000    0.000    0.000    0.000    0.000 
#
# Total GULP energy -100671.897941 kJ/mol
# GULP energy per Si atom -5592.883219 kJ/mol
# Density = 2.174538 g / cm^3
# Si number density = 21.794984 Si / 1000 Ang^3
#
#
#
# Elastic Constant Matrix: (Units=GPa)
#
#
# Indices 1 2 3 4 5 6 
#
# 1 18.8459 17.3262 22.3950 0.0000 4.5015 0.0000
# 2 17.3262 123.6404 63.0682 0.0000 -3.0888 0.0000
# 3 22.3950 63.0682 160.6687 0.0000 2.2207 0.0000
# 4 0.0000 0.0000 0.0000 44.8124 0.0000 6.6312
# 5 4.5015 -3.0888 2.2207 0.0000 12.3200 0.0000
# 6 0.0000 0.0000 0.0000 6.6312 0.0000 21.0282
#
#
#
# Elastic Compliance Matrix: (Units=1/GPa)
#
#
# Indices 1 2 3 4 5 6 
#
# 1 0.075227 -0.007620 -0.007106 0.000000 -0.028116 0.000000
# 2 -0.007620 0.011017 -0.003347 0.000000 0.006149 0.000000
# 3 -0.007106 -0.003347 0.008525 0.000000 0.000220 0.000000
# 4 0.000000 0.000000 0.000000 0.023408 0.000000 -0.007382
# 5 -0.028116 0.006149 0.000220 0.000000 0.092944 0.000000
# 6 0.000000 0.000000 0.000000 -0.007382 0.000000 0.049883
#
#
# Mechanical properties :
#
#
# Convention : Reuss Voigt Hill
#
# Bulk Modulus (GPa) = 17.05801 56.52600 36.79200
# Shear Modulus (GPa) = 15.78825 28.98983 22.38904
#
# Velocity S-wave (km/s) = 2.69438 3.65103 3.20856
# Velocity P-wave (km/s) = 4.18607 6.61551 5.53571
#
# Compressibility (1/GPa) = 0.05862349
#
# Stress axis : x y z
#
# Youngs Moduli (GPa) = 13.29303 90.76990 117.29610
#
# Poissons Ratio (x) = 0.69162 0.83352
# Poissons Ratio (y) = 0.10129 0.39264
# Poissons Ratio (z) = 0.09446 0.30385
#
# Static dielectric constant tensor:
#      x y z
#    x 1.760850 0.000000 -0.004310 
#    y 0.000000 1.836090 0.000000 
#    z -0.004310 0.000000 1.845100 
# 
# From -- ./inp_files/102448.got.cif
#   From: 2010.05.17/outbox.cif.g08.bks.cpg/sg15_52_cif.got.tgz:102448.got - 2010.06.03 18:47:42.
