data_PCOD9302971
_publ_section_title
;
Structure prediction by ZEFSAII (Michael W. Deem and Ramdas Pophale) SiO2 
 PCOD9302971
Probable space group: C 2/C
;
_chemical_formula_sum "Si O2"
_cell_formula_units_Z 60
_cell_length_a 20.287363
_cell_length_b 16.643465
_cell_length_c 11.114072
_cell_angle_alpha 90.000000
_cell_angle_beta 134.888866
_cell_angle_gamma 90.000000
_cell_volume 2658.693688
_symmetry_space_group_name_H-M "C 2/C"
_symmetry_group_IT_number 15
_symmetry_cell_setting 'monoclinic'
loop_
_space_group_symop_operation_xyz
x,y,z
-x,y,1/2-z
-x,-y,-z
x,-y,1/2+z
1/2+x,1/2+y,z
1/2-x,1/2+y,1/2-z
1/2-x,1/2-y,-z
1/2+x,1/2-y,1/2+z
loop_
_atom_site_type_symbol
_atom_site_label
_atom_site_fract_x
_atom_site_fract_y
_atom_site_fract_z
Si Si1 0.855690 0.832728 0.303427
Si Si2 0.550666 0.394067 0.636189
Si Si3 0.500000 0.530838 0.750000
Si Si4 0.826562 0.111986 0.422191
Si Si5 0.313050 0.316962 0.517487
Si Si6 0.609449 0.239691 0.386600
Si Si7 0.329194 0.066726 0.958501
Si Si8 0.808769 0.478383 0.168658
O O1 0.834654 0.796280 0.407498
O O2 0.851073 0.769005 0.190223
O O3 0.780383 0.904770 0.188142
O O4 0.962743 0.861533 0.449510
O O5 0.514117 0.471970 0.656642
O O6 0.637771 0.411924 0.662723
O O7 0.592366 0.331969 0.786652
O O8 0.408285 0.581972 0.615674
O O9 0.833943 0.207235 0.443287
O O10 0.738810 0.062145 0.350602
O O11 0.250000 0.250000 0.500000
O O12 0.262427 0.404366 0.445658
O O13 0.500000 0.257029 0.250000
O O14 0.622295 0.147378 0.433235
O O15 0.359276 0.046563 0.859559
O O16 0.347185 0.999948 0.084961
#
# Coordination Sequence:
#
# PCOD9302971 Si02
#       8
#     8   8   4   8   8   8   8   8
#     4  11  22  41  65  98 134 175 218 271 340 405
#     4  12  22  38  62  95 141 178 213 273 339 415
#     4  12  20  36  54  98 138 170 206 264 336 428
#     4  12  23  35  66  99 135 169 213 263 349 402
#     4  11  25  40  63  97 139 180 224 277 336 403
#     4  12  25  44  69 102 132 177 226 280 330 403
#     4  11  26  45  68  99 137 176 234 277 335 406
#     4  11  24  44  67  98 135 183 224 277 336 403
#
# _framework density 22.567473
#
# number of rings (size 3 to 8) (size 9 to 14) (size 15 to 20)
#    0.000    0.533    6.000    2.400    3.733    1.067 
#    0.000    0.667    0.000    1.600    0.000    0.000 
#    0.000    0.000    0.000    0.000    0.000    0.000 
#
# Total GULP energy -167738.925635 kJ/mol
# GULP energy per Si atom -5591.297521 kJ/mol
# Density = 2.251611 g / cm^3
# Si number density = 22.567473 Si / 1000 Ang^3
#
#
#
# Elastic Constant Matrix: (Units=GPa)
#
#
# Indices 1 2 3 4 5 6 
#
# 1 61.8345 16.2893 21.6959 0.0000 -22.7850 0.0000
# 2 16.2893 79.3869 34.7659 0.0000 -3.6866 0.0000
# 3 21.6959 34.7659 96.2733 0.0000 -32.2337 0.0000
# 4 0.0000 0.0000 0.0000 36.4365 0.0000 -5.9489
# 5 -22.7850 -3.6866 -32.2337 0.0000 39.2161 0.0000
# 6 0.0000 0.0000 0.0000 -5.9489 0.0000 33.1374
#
#
#
# Elastic Compliance Matrix: (Units=1/GPa)
#
#
# Indices 1 2 3 4 5 6 
#
# 1 0.021770 -0.004312 0.001035 0.000000 0.013094 0.000000
# 2 -0.004312 0.016332 -0.007245 0.000000 -0.006925 0.000000
# 3 0.001035 -0.007245 0.017582 0.000000 0.014372 0.000000
# 4 0.000000 0.000000 0.000000 0.028274 0.000000 0.005076
# 5 0.013094 -0.006925 0.014372 0.000000 0.044270 0.000000
# 6 0.000000 0.000000 0.000000 0.005076 0.000000 0.031089
#
#
# Mechanical properties :
#
#
# Convention : Reuss Voigt Hill
#
# Bulk Modulus (GPa) = 28.86748 42.55522 35.71135
# Shear Modulus (GPa) = 26.05438 32.74092 29.39765
#
# Velocity S-wave (km/s) = 3.40149 3.81307 3.61315
# Velocity P-wave (km/s) = 5.31472 6.18739 5.76759
#
# Compressibility (1/GPa) = 0.03464105
#
# Stress axis : x y z
#
# Youngs Moduli (GPa) = 45.93493 61.22788 56.87682
#
# Poissons Ratio (x) = 0.26403 -0.05889
# Poissons Ratio (y) = 0.19808 0.41205
# Poissons Ratio (z) = -0.04756 0.44357
#
# Static dielectric constant tensor:
#      x y z
#    x 1.875410 0.000000 -0.030610 
#    y 0.000000 1.846830 0.000000 
#    z -0.030610 0.000000 1.880110 
# 
# From -- ./inp_files/118794.got.cif
#   From: 2010.05.17/outbox.cif.g08.bks.cpg/sg15_60_cif.got.tgz:118794.got - 2010.06.03 18:47:42.
