data_PCOD9302196
_publ_section_title
;
Structure prediction by ZEFSAII (Michael W. Deem and Ramdas Pophale) SiO2 
 PCOD9302196
Probable space group: C 2/C
;
_chemical_formula_sum "Si O2"
_cell_formula_units_Z 48
_cell_length_a 13.235779
_cell_length_b 10.516718
_cell_length_c 21.011743
_cell_angle_alpha 90.000000
_cell_angle_beta 52.300956
_cell_angle_gamma 90.000000
_cell_volume 2314.177210
_symmetry_space_group_name_H-M "C 2/C"
_symmetry_group_IT_number 15
_symmetry_cell_setting 'monoclinic'
loop_
_space_group_symop_operation_xyz
x,y,z
-x,y,1/2-z
-x,-y,-z
x,-y,1/2+z
1/2+x,1/2+y,z
1/2-x,1/2+y,1/2-z
1/2-x,1/2-y,-z
1/2+x,1/2-y,1/2+z
loop_
_atom_site_type_symbol
_atom_site_label
_atom_site_fract_x
_atom_site_fract_y
_atom_site_fract_z
Si Si1 0.595507 0.070710 0.047307
Si Si2 0.775470 0.435183 0.237441
Si Si3 0.814721 0.690158 0.169122
Si Si4 0.869313 0.731184 0.587285
Si Si5 0.636747 0.079339 0.178731
Si Si6 0.152778 0.288587 0.982870
O O1 0.454604 0.128107 0.111273
O O2 0.642330 0.050332 0.101551
O O3 0.655331 0.168305 0.972701
O O4 0.611488 0.935267 0.007469
O O5 0.730607 0.573752 0.229630
O O6 0.681793 0.320883 0.293115
O O7 0.854429 0.371918 0.149474
O O8 0.852204 0.467673 0.272821
O O9 0.778853 0.723644 0.111111
O O10 0.759984 0.833328 0.641142
O O11 0.015149 0.781781 0.533935
O O12 0.500000 0.141393 0.250000
O O13 0.250000 0.250000 0.000000
#
# Coordination Sequence:
#
# PCOD9302196 Si02
#       6
#     8   8   8   8   8   8
#     4  11  21  43  66  96 132 180 224 271 346 395
#     4  12  21  40  68  95 133 173 221 270 341 394
#     4  11  22  40  71  96 134 176 221 283 333 401
#     4  11  22  41  68  92 137 176 221 275 336 402
#     4  12  23  40  67 100 130 173 223 275 339 405
#     4  11  22  42  67  99 130 179 231 275 336 400
#
# _framework density 20.741712
#
# number of rings (size 3 to 8) (size 9 to 14) (size 15 to 20)
#    0.000    0.667    6.667    2.500    0.000    0.000 
#    0.000   10.833    0.000    0.000    0.000    0.000 
#    0.000    0.000    0.000    0.000    0.000    0.000 
#
# Total GULP energy -133711.317799 kJ/mol
# GULP energy per Si atom -5571.304908 kJ/mol
# Density = 2.069450 g / cm^3
# Si number density = 20.741712 Si / 1000 Ang^3
#
#
#
# Elastic Constant Matrix: (Units=GPa)
#
#
# Indices 1 2 3 4 5 6 
#
# 1 76.5920 19.2707 37.5346 0.0000 18.2589 0.0000
# 2 19.2707 70.4408 45.3485 0.0000 -12.3168 0.0000
# 3 37.5346 45.3485 127.0446 0.0000 29.6969 0.0000
# 4 0.0000 0.0000 0.0000 38.6130 0.0000 4.3390
# 5 18.2589 -12.3168 29.6969 0.0000 48.1580 0.0000
# 6 0.0000 0.0000 0.0000 4.3390 0.0000 24.3750
#
#
#
# Elastic Compliance Matrix: (Units=1/GPa)
#
#
# Indices 1 2 3 4 5 6 
#
# 1 0.016576 -0.004451 -0.001838 0.000000 -0.006290 0.000000
# 2 -0.004451 0.025285 -0.011236 0.000000 0.015083 0.000000
# 3 -0.001838 -0.011236 0.015112 0.000000 -0.011496 0.000000
# 4 0.000000 0.000000 0.000000 0.026427 0.000000 -0.004704
# 5 -0.006290 0.015083 -0.011496 0.000000 0.034096 0.000000
# 6 0.000000 0.000000 0.000000 -0.004704 0.000000 0.041863
#
#
# Mechanical properties :
#
#
# Convention : Reuss Voigt Hill
#
# Bulk Modulus (GPa) = 45.61538 53.15390 49.38464
# Shear Modulus (GPa) = 24.78696 33.69076 29.23886
#
# Velocity S-wave (km/s) = 3.46067 4.03463 3.75862
# Velocity P-wave (km/s) = 6.16508 6.88379 6.53432
#
# Compressibility (1/GPa) = 0.02192243
#
# Stress axis : x y z
#
# Youngs Moduli (GPa) = 60.32662 39.54897 66.17108
#
# Poissons Ratio (x) = 0.17604 0.12165
# Poissons Ratio (y) = 0.26852 0.74351
# Poissons Ratio (z) = 0.11090 0.44438
#
# Static dielectric constant tensor:
#      x y z
#    x 1.788290 0.000000 0.033350 
#    y 0.000000 1.771160 0.000000 
#    z 0.033350 0.000000 1.808200 
# 
# From -- ./inp_files/243267.got.cif
#   From: 2010.05.17/outbox.cif.g08.bks.cpg/sg15_122_cif.got.tgz:243267.got - 2010.06.03 18:47:42.
