data_PCOD9302305
_publ_section_title
;
Structure prediction by ZEFSAII (Michael W. Deem and Ramdas Pophale) SiO2 
 PCOD9302305
Probable space group: C 2/C
;
_chemical_formula_sum "Si O2"
_cell_formula_units_Z 48
_cell_length_a 17.507708
_cell_length_b 15.037628
_cell_length_c 17.823626
_cell_angle_alpha 90.000000
_cell_angle_beta 32.392285
_cell_angle_gamma 90.000000
_cell_volume 2513.836099
_symmetry_space_group_name_H-M "C 2/C"
_symmetry_group_IT_number 15
_symmetry_cell_setting 'monoclinic'
loop_
_space_group_symop_operation_xyz
x,y,z
-x,y,1/2-z
-x,-y,-z
x,-y,1/2+z
1/2+x,1/2+y,z
1/2-x,1/2+y,1/2-z
1/2-x,1/2-y,-z
1/2+x,1/2-y,1/2+z
loop_
_atom_site_type_symbol
_atom_site_label
_atom_site_fract_x
_atom_site_fract_y
_atom_site_fract_z
Si Si1 0.365431 0.331602 0.224436
Si Si2 0.773188 0.158559 0.630806
Si Si3 0.144847 0.989297 0.676741
Si Si4 0.461977 0.305660 0.693621
Si Si5 0.202131 0.801110 0.964149
Si Si6 0.331170 0.996291 0.880174
O O1 0.337930 0.347030 0.159792
O O2 0.327676 0.422855 0.298647
O O3 0.268183 0.253916 0.340260
O O4 0.531271 0.308177 0.101133
O O5 0.642995 0.227137 0.740800
O O6 0.895262 0.193508 0.473356
O O7 0.717365 0.066102 0.642629
O O8 0.264394 0.973270 0.515062
O O9 0.000000 0.005755 0.750000
O O10 0.115299 0.901492 0.749818
O O11 0.500000 0.297154 0.750000
O O12 0.266882 0.899835 0.914793
O O13 0.250000 0.750000 0.000000
O O14 0.500000 0.991937 0.750000
#
# Coordination Sequence:
#
# PCOD9302305 Si02
#       6
#     8   8   8   8   8   8
#     4  12  25  42  67 100 136 167 215 279 331 384
#     4  12  26  42  65 101 135 170 214 274 336 379
#     4  11  21  45  68  93 124 173 227 260 321 396
#     4  11  23  43  68  93 127 180 221 261 318 404
#     4  12  23  44  71  96 130 175 222 266 322 393
#     4  12  25  43  70  99 126 174 226 269 320 395
#
# _framework density 19.094324
#
# number of rings (size 3 to 8) (size 9 to 14) (size 15 to 20)
#    0.000    0.333    6.667    3.500    2.333    4.000 
#    0.000    0.833    0.000    0.000    0.000    0.000 
#    0.000    0.000    0.000    0.000    0.000    0.000 
#
# Total GULP energy -134280.842225 kJ/mol
# GULP energy per Si atom -5595.035093 kJ/mol
# Density = 1.905086 g / cm^3
# Si number density = 19.094324 Si / 1000 Ang^3
#
#
#
# Elastic Constant Matrix: (Units=GPa)
#
#
# Indices 1 2 3 4 5 6 
#
# 1 75.4196 35.1675 8.5056 0.0002 15.7554 -0.0011
# 2 35.1675 116.1605 5.8228 0.0003 -7.9452 -0.0006
# 3 8.5056 5.8228 66.9795 0.0007 -2.4348 -0.0016
# 4 0.0002 0.0003 0.0007 21.0502 -0.0003 -10.5499
# 5 15.7554 -7.9452 -2.4348 -0.0003 26.7634 0.0008
# 6 -0.0011 -0.0006 -0.0016 -10.5499 0.0008 0.7659
#
#
#
# Elastic Compliance Matrix: (Units=1/GPa)
#
#
# Indices 1 2 3 4 5 6 
#
# 1 0.019533 -0.006732 -0.002394 -0.000003 -0.013715 -0.000005
# 2 -0.006732 0.011137 0.000151 0.000001 0.007283 0.000001
# 3 -0.002394 0.000151 0.015324 -0.000002 0.002848 -0.000003
# 4 -0.000003 0.000001 -0.000002 -0.008047 0.000005 -0.110844
# 5 -0.013715 0.007283 0.002848 0.000005 0.047860 0.000008
# 6 -0.000005 0.000001 -0.000003 -0.110844 0.000008 -0.221167
#
#
# Mechanical properties :
#
#
# Convention : Reuss Voigt Hill
#
# Bulk Modulus (GPa) = 35.65510 39.72793 37.69151
# Shear Modulus (GPa) = -46.26957 23.65347 -11.30805
#
# Velocity S-wave (km/s) = -4.92795 3.52343 -2.43620
# Velocity P-wave (km/s) = 3.69675 6.11589 3.44515
#
# Compressibility (1/GPa) = 0.02804648
#
# Stress axis : x y z
#
# Youngs Moduli (GPa) = 51.19468 89.78770 65.25580
#
# Poissons Ratio (x) = 0.60443 0.15621
# Poissons Ratio (y) = 0.34463 -0.00988
# Poissons Ratio (z) = 0.12255 -0.01359
#
# Static dielectric constant tensor:
#      x y z
#    x 1.644320 0.000000 0.003710 
#    y 0.000000 1.662460 0.000000 
#    z 0.003710 0.000000 1.679050 
# 
# From -- ./inp_files/66493.got.cif
#   From: 2010.05.17/outbox.cif.g08.bks.cpg/sg15_34_cif.got.tgz:66493.got - 2010.06.03 18:47:42.
