data_PCOD9302726
_publ_section_title
;
Structure prediction by ZEFSAII (Michael W. Deem and Ramdas Pophale) SiO2 
 PCOD9302726
Probable space group: C 2/C
;
_chemical_formula_sum "Si O2"
_cell_formula_units_Z 52
_cell_length_a 13.496424
_cell_length_b 13.415577
_cell_length_c 17.806286
_cell_angle_alpha 90.000000
_cell_angle_beta 53.039616
_cell_angle_gamma 90.000000
_cell_volume 2576.179669
_symmetry_space_group_name_H-M "C 2/C"
_symmetry_group_IT_number 15
_symmetry_cell_setting 'monoclinic'
loop_
_space_group_symop_operation_xyz
x,y,z
-x,y,1/2-z
-x,-y,-z
x,-y,1/2+z
1/2+x,1/2+y,z
1/2-x,1/2+y,1/2-z
1/2-x,1/2-y,-z
1/2+x,1/2-y,1/2+z
loop_
_atom_site_type_symbol
_atom_site_label
_atom_site_fract_x
_atom_site_fract_y
_atom_site_fract_z
Si Si1 0.417069 0.077174 0.490519
Si Si2 0.078075 0.579846 0.637694
Si Si3 0.500000 0.241645 0.250000
Si Si4 0.699709 0.596382 0.871416
Si Si5 0.235648 0.137628 0.374478
Si Si6 0.035454 0.200594 0.570695
Si Si7 0.848627 0.673902 0.662744
O O1 0.481100 0.181628 0.439275
O O2 0.320339 0.115380 0.597626
O O3 0.500000 0.000000 0.500000
O O4 0.388136 0.016799 0.427915
O O5 0.205888 0.629933 0.605938
O O6 0.000000 0.556487 0.750000
O O7 0.985723 0.646387 0.629820
O O8 0.377408 0.173022 0.304258
O O9 0.489022 0.307368 0.329973
O O10 0.712686 0.477099 0.866986
O O11 0.560987 0.636956 0.934672
O O12 0.757081 0.638116 0.768534
O O13 0.165768 0.210299 0.347933
O O14 0.171957 0.166366 0.482895
#
# Coordination Sequence:
#
# PCOD9302726 Si02
#       7
#     8   8   4   8   8   8   8
#     4   9  19  35  60  91 127 160 214 261 304 374
#     4   9  19  34  62  91 119 167 218 255 307 385
#     4  12  24  40  70  92 124 174 222 266 316 382
#     4  11  22  39  67  91 128 169 213 260 330 382
#     4  11  24  41  64  94 128 164 215 266 322 386
#     4  11  24  41  62  98 134 166 208 276 329 378
#     4   9  20  38  58  92 127 157 209 271 312 373
#
# _framework density 20.184926999999998
#
# number of rings (size 3 to 8) (size 9 to 14) (size 15 to 20)
#    0.000    1.846    1.538    1.846   10.769    1.231 
#    0.000    6.923    5.077    1.846    0.000    0.000 
#    0.000    0.000    0.000    0.000    0.000    0.000 
#
# Total GULP energy -145038.369158 kJ/mol
# GULP energy per Si atom -5578.398814 kJ/mol
# Density = 2.013899 g / cm^3
# Si number density = 20.184927 Si / 1000 Ang^3
#
#
#
# Elastic Constant Matrix: (Units=GPa)
#
#
# Indices 1 2 3 4 5 6 
#
# 1 99.1773 41.1575 45.1812 0.0000 -4.7910 0.0000
# 2 41.1575 69.5466 10.9789 0.0000 -3.7098 0.0000
# 3 45.1812 10.9789 95.6652 0.0000 5.4185 0.0000
# 4 0.0000 0.0000 0.0000 14.3274 0.0000 0.4594
# 5 -4.7910 -3.7098 5.4185 0.0000 37.5477 0.0000
# 6 0.0000 0.0000 0.0000 0.4594 0.0000 34.9473
#
#
#
# Elastic Compliance Matrix: (Units=1/GPa)
#
#
# Indices 1 2 3 4 5 6 
#
# 1 0.017184 -0.008903 -0.007227 0.000000 0.002356 0.000000
# 2 -0.008903 0.019365 0.001954 0.000000 0.000495 0.000000
# 3 -0.007227 0.001954 0.013796 0.000000 -0.002720 0.000000
# 4 0.000000 0.000000 0.000000 0.069826 0.000000 -0.000918
# 5 0.002356 0.000495 -0.002720 0.000000 0.027375 0.000000
# 6 0.000000 0.000000 0.000000 -0.000918 0.000000 0.028627
#
#
# Mechanical properties :
#
#
# Convention : Reuss Voigt Hill
#
# Bulk Modulus (GPa) = 45.46792 51.00271 48.23531
# Shear Modulus (GPa) = 23.60097 28.50258 26.05178
#
# Velocity S-wave (km/s) = 3.42312 3.76183 3.59647
# Velocity P-wave (km/s) = 6.18047 6.64764 6.41831
#
# Compressibility (1/GPa) = 0.02199353
#
# Stress axis : x y z
#
# Youngs Moduli (GPa) = 58.19435 51.63846 72.48320
#
# Poissons Ratio (x) = 0.45972 0.52386
# Poissons Ratio (y) = 0.51809 -0.14164
# Poissons Ratio (z) = 0.42059 -0.10091
#
# Static dielectric constant tensor:
#      x y z
#    x 1.765820 0.000000 0.011740 
#    y 0.000000 1.701310 0.000000 
#    z 0.011740 0.000000 1.761270 
# 
# From -- ./inp_files/204982.got.cif
#   From: 2010.05.17/outbox.cif.g08.bks.cpg/sg15_103_cif.got.tgz:204982.got - 2010.06.03 18:47:42.
