data_PCOD9302861
_publ_section_title
;
Structure prediction by ZEFSAII (Michael W. Deem and Ramdas Pophale) SiO2 
 PCOD9302861
Probable space group: C 2/C
;
_chemical_formula_sum "Si O2"
_cell_formula_units_Z 40
_cell_length_a 11.924655
_cell_length_b 12.986543
_cell_length_c 27.135635
_cell_angle_alpha 90.000000
_cell_angle_beta 150.281991
_cell_angle_gamma 90.000000
_cell_volume 2083.176338
_symmetry_space_group_name_H-M "C 2/C"
_symmetry_group_IT_number 15
_symmetry_cell_setting 'monoclinic'
loop_
_space_group_symop_operation_xyz
x,y,z
-x,y,1/2-z
-x,-y,-z
x,-y,1/2+z
1/2+x,1/2+y,z
1/2-x,1/2+y,1/2-z
1/2-x,1/2-y,-z
1/2+x,1/2-y,1/2+z
loop_
_atom_site_type_symbol
_atom_site_label
_atom_site_fract_x
_atom_site_fract_y
_atom_site_fract_z
Si Si1 0.324570 0.406078 0.445804
Si Si2 0.088014 0.938072 0.910907
Si Si3 0.551683 0.942624 0.715139
Si Si4 0.730911 0.310274 0.868821
Si Si5 0.862438 0.360995 0.542767
O O1 0.500000 0.500000 0.500000
O O2 0.345833 0.385187 0.511984
O O3 0.346787 0.299205 0.426082
O O4 0.076271 0.448205 0.337358
O O5 0.174835 0.874874 0.896876
O O6 0.817260 0.947586 0.807218
O O7 0.196505 0.051199 0.958504
O O8 0.500000 0.900652 0.750000
O O9 0.433288 0.881510 0.626075
O O10 0.500000 0.295470 0.750000
O O11 0.911750 0.367148 0.903625
O O12 0.750000 0.250000 0.500000
#
# Coordination Sequence:
#
# PCOD9302861 Si02
#       5
#     8   8   8   8   8
#     4  11  23  40  68  95 129 172 224 278 323 391
#     4  11  24  43  65  94 135 172 216 277 336 390
#     4  11  22  40  67  95 128 167 225 273 322 389
#     4  12  24  43  67  98 134 173 219 270 341 402
#     4  11  26  44  67  97 132 177 222 270 333 402
#
# _framework density 19.201446000000001
#
# number of rings (size 3 to 8) (size 9 to 14) (size 15 to 20)
#    0.000    0.800    4.000    4.200    2.800    0.000 
#    0.000    1.000    0.000    0.000    0.000    0.000 
#    0.000    0.000    0.000    0.000    0.000    0.000 
#
# Total GULP energy -111709.625477 kJ/mol
# GULP energy per Si atom -5585.481274 kJ/mol
# Density = 1.915774 g / cm^3
# Si number density = 19.201446 Si / 1000 Ang^3
#
#
#
# Elastic Constant Matrix: (Units=GPa)
#
#
# Indices 1 2 3 4 5 6 
#
# 1 148.6082 45.2729 66.0520 -0.0001 -11.6148 -0.0001
# 2 45.2729 99.3705 60.8780 -0.0002 -9.3566 0.0000
# 3 66.0520 60.8780 110.5802 -0.0006 -4.0047 -0.0004
# 4 -0.0001 -0.0002 -0.0006 11.2239 -0.0001 6.3693
# 5 -11.6148 -9.3566 -4.0047 -0.0001 47.9618 -0.0001
# 6 -0.0001 0.0000 -0.0004 6.3693 -0.0001 27.5416
#
#
#
# Elastic Compliance Matrix: (Units=1/GPa)
#
#
# Indices 1 2 3 4 5 6 
#
# 1 0.009390 -0.001091 -0.004948 0.000000 0.001648 0.000000
# 2 -0.001091 0.015562 -0.007839 0.000000 0.002117 0.000000
# 3 -0.004948 -0.007839 0.016265 0.000001 -0.001369 0.000000
# 4 0.000000 0.000000 0.000001 0.102554 0.000000 -0.023717
# 5 0.001648 0.002117 -0.001369 0.000000 0.021548 0.000000
# 6 0.000000 0.000000 0.000000 -0.023717 0.000000 0.041793
#
#
# Mechanical properties :
#
#
# Convention : Reuss Voigt Hill
#
# Bulk Modulus (GPa) = 74.29484 78.10718 76.20101
# Shear Modulus (GPa) = 20.88939 29.76920 25.32929
#
# Velocity S-wave (km/s) = 3.30192 3.94174 3.63593
# Velocity P-wave (km/s) = 7.30159 7.84107 7.57614
#
# Compressibility (1/GPa) = 0.01345989
#
# Stress axis : x y z
#
# Youngs Moduli (GPa) = 106.49990 64.25746 61.48205
#
# Poissons Ratio (x) = 0.07013 0.30422
# Poissons Ratio (y) = 0.11623 0.48196
# Poissons Ratio (z) = 0.52698 0.50372
#
# Static dielectric constant tensor:
#      x y z
#    x 1.689280 0.000000 0.001030 
#    y 0.000000 1.657540 0.000000 
#    z 0.001030 0.000000 1.658500 
# 
# From -- ./inp_files/225042.got.cif
#   From: 2010.05.17/outbox.cif.g08.bks.cpg/sg15_113_cif.got.tgz:225042.got - 2010.06.03 18:47:42.
