data_PCOD9302448
_publ_section_title
;
Structure prediction by ZEFSAII (Michael W. Deem and Ramdas Pophale) SiO2 
 PCOD9302448
Probable space group: C 2/C
;
_chemical_formula_sum "Si O2"
_cell_formula_units_Z 48
_cell_length_a 14.137525
_cell_length_b 27.699826
_cell_length_c 13.857676
_cell_angle_alpha 90.000000
_cell_angle_beta 159.063925
_cell_angle_gamma 90.000000
_cell_volume 1939.124105
_symmetry_space_group_name_H-M "C 2/C"
_symmetry_group_IT_number 15
_symmetry_cell_setting 'monoclinic'
loop_
_space_group_symop_operation_xyz
x,y,z
-x,y,1/2-z
-x,-y,-z
x,-y,1/2+z
1/2+x,1/2+y,z
1/2-x,1/2+y,1/2-z
1/2-x,1/2-y,-z
1/2+x,1/2-y,1/2+z
loop_
_atom_site_type_symbol
_atom_site_label
_atom_site_fract_x
_atom_site_fract_y
_atom_site_fract_z
Si Si1 0.737419 0.357018 0.745414
Si Si2 0.602751 0.578328 0.455205
Si Si3 0.895257 0.407434 0.548394
Si Si4 0.413135 0.778705 0.371842
Si Si5 0.601426 0.984876 0.492440
Si Si6 0.927612 0.815301 0.287993
O O1 0.481406 0.378422 0.553879
O O2 0.938152 0.329170 0.007713
O O3 0.655415 0.318559 0.585142
O O4 0.897873 0.397646 0.840407
O O5 0.500000 0.592247 0.250000
O O6 0.889800 0.553411 0.744874
O O7 0.390080 0.537260 0.277860
O O8 0.652180 0.372220 0.295053
O O9 0.000000 0.388339 0.750000
O O10 0.854192 0.464236 0.519315
O O11 0.140728 0.760522 0.066334
O O12 0.311387 0.787657 0.386320
O O13 0.500000 0.000000 0.500000
O O14 0.000000 0.798285 0.250000
#
# Coordination Sequence:
#
# PCOD9302448 Si02
#       6
#     8   8   8   8   8   8
#     4  11  24  43  67  92 132 175 218 275 336 398
#     4  12  27  46  68 101 136 182 233 283 339 393
#     4  11  22  36  60  92 132 179 223 267 317 389
#     4  11  24  44  66  97 130 171 217 273 344 416
#     4  12  25  44  67  97 138 181 229 283 331 387
#     4  11  23  39  63  97 136 176 225 267 335 406
#
# _framework density 24.753444999999999
#
# number of rings (size 3 to 8) (size 9 to 14) (size 15 to 20)
#    0.000    0.667    5.000    3.000    4.667    1.333 
#    0.000    0.000    0.000    1.000    0.000    0.000 
#    0.000    0.000    0.000    0.000    0.000    0.000 
#
# Total GULP energy -134025.535052 kJ/mol
# GULP energy per Si atom -5584.397294 kJ/mol
# Density = 2.469711 g / cm^3
# Si number density = 24.753445 Si / 1000 Ang^3
#
#
#
# Elastic Constant Matrix: (Units=GPa)
#
#
# Indices 1 2 3 4 5 6 
#
# 1 55.4595 -12.1490 -15.0608 -0.0006 -5.4288 0.0002
# 2 -12.1490 96.8682 14.5776 0.0008 10.5258 0.0002
# 3 -15.0608 14.5776 103.4204 -0.0034 14.6243 -0.0017
# 4 -0.0006 0.0008 -0.0034 36.4289 -0.0014 8.8688
# 5 -5.4288 10.5258 14.6243 -0.0014 31.4267 -0.0007
# 6 0.0002 0.0002 -0.0017 8.8688 -0.0007 12.9230
#
#
#
# Elastic Compliance Matrix: (Units=1/GPa)
#
#
# Indices 1 2 3 4 5 6 
#
# 1 0.019229 0.001889 0.002305 0.000001 0.001616 0.000000
# 2 0.001889 0.011011 -0.000858 0.000000 -0.002962 0.000000
# 3 0.002305 -0.000858 0.010735 0.000001 -0.004310 0.000001
# 4 0.000001 0.000000 0.000001 0.032957 0.000001 -0.022618
# 5 0.001616 -0.002962 -0.004310 0.000001 0.035097 0.000001
# 6 0.000000 0.000000 0.000001 -0.022618 0.000001 0.092904
#
#
# Mechanical properties :
#
#
# Convention : Reuss Voigt Hill
#
# Bulk Modulus (GPa) = 20.98677 25.60930 23.29803
# Shear Modulus (GPa) = 23.68052 34.04773 28.86412
#
# Velocity S-wave (km/s) = 3.09634 3.71276 3.41847
# Velocity P-wave (km/s) = 4.61301 5.36169 5.00138
#
# Compressibility (1/GPa) = 0.04764907
#
# Stress axis : x y z
#
# Youngs Moduli (GPa) = 52.00396 90.81612 93.14952
#
# Poissons Ratio (x) = -0.17156 -0.21475
# Poissons Ratio (y) = -0.09824 0.07993
# Poissons Ratio (z) = -0.11989 0.07793
#
# Static dielectric constant tensor:
#      x y z
#    x 1.996220 0.000000 -0.056130 
#    y 0.000000 2.083090 0.000000 
#    z -0.056130 0.000000 1.993060 
# 
# From -- ./inp_files/157709.got.cif
#   From: 2010.05.17/outbox.cif.g08.bks.cpg/sg15_79_cif.got.tgz:157709.got - 2010.06.03 18:47:42.
