data_PCOD9302882
_publ_section_title
;
Structure prediction by ZEFSAII (Michael W. Deem and Ramdas Pophale) SiO2 
 PCOD9302882
Probable space group: C 2/C
;
_chemical_formula_sum "Si O2"
_cell_formula_units_Z 36
_cell_length_a 9.771151
_cell_length_b 14.819974
_cell_length_c 18.482520
_cell_angle_alpha 90.000000
_cell_angle_beta 146.674775
_cell_angle_gamma 90.000000
_cell_volume 1470.400643
_symmetry_space_group_name_H-M "C 2/C"
_symmetry_group_IT_number 15
_symmetry_cell_setting 'monoclinic'
loop_
_space_group_symop_operation_xyz
x,y,z
-x,y,1/2-z
-x,-y,-z
x,-y,1/2+z
1/2+x,1/2+y,z
1/2-x,1/2+y,1/2-z
1/2-x,1/2-y,-z
1/2+x,1/2-y,1/2+z
loop_
_atom_site_type_symbol
_atom_site_label
_atom_site_fract_x
_atom_site_fract_y
_atom_site_fract_z
Si Si1 0.289354 0.157725 0.105253
Si Si2 0.809876 0.342714 0.841268
Si Si3 0.733386 0.864257 0.307603
Si Si4 0.000000 0.009567 0.250000
Si Si5 0.661759 0.141847 0.608994
O O1 0.500000 0.112469 0.250000
O O2 0.442424 0.162710 0.098031
O O3 0.247123 0.257002 0.124040
O O4 0.009548 0.121390 0.964800
O O5 0.699687 0.244331 0.787675
O O6 0.628799 0.425527 0.747563
O O7 0.883901 0.359423 0.957456
O O8 0.500000 0.900583 0.250000
O O9 0.705588 0.885291 0.210746
O O10 0.197629 0.938901 0.369962
#
# Coordination Sequence:
#
# PCOD9302882 Si02
#       5
#     8   8   8   4   8
#     4  11  22  40  68  98 127 171 217 269 320 381
#     4  11  23  38  65 101 127 167 221 268 320 386
#     4  11  23  41  67  99 126 170 223 269 313 384
#     4  12  22  40  62  98 132 170 214 266 328 390
#     4  11  22  41  67  91 130 173 213 264 326 382
#
# _framework density 24.483122999999999
#
# number of rings (size 3 to 8) (size 9 to 14) (size 15 to 20)
#    0.000    0.889    4.444    4.667    0.000    5.333 
#    0.000    1.111    0.000    5.333    0.000    0.000 
#    0.000    0.000    0.000    0.000    0.000    0.000 
#
# Total GULP energy -100314.626967 kJ/mol
# GULP energy per Si atom -5573.034832 kJ/mol
# Density = 2.442740 g / cm^3
# Si number density = 24.483123 Si / 1000 Ang^3
#
#
#
# Elastic Constant Matrix: (Units=GPa)
#
#
# Indices 1 2 3 4 5 6 
#
# 1 142.9943 14.7633 77.2772 0.0001 23.0451 0.0002
# 2 14.7633 83.9872 19.5519 -0.0011 8.3252 0.0008
# 3 77.2772 19.5519 135.2593 -0.0037 -5.4102 0.0028
# 4 0.0001 -0.0011 -0.0037 14.9319 0.0000 9.2150
# 5 23.0451 8.3252 -5.4102 0.0000 42.1933 0.0002
# 6 0.0002 0.0008 0.0028 9.2150 0.0002 -10.2463
#
#
#
# Elastic Compliance Matrix: (Units=1/GPa)
#
#
# Indices 1 2 3 4 5 6 
#
# 1 0.012119 0.000318 -0.007274 0.000000 -0.007615 -0.000002
# 2 0.000318 0.012637 -0.002126 0.000000 -0.002940 0.000000
# 3 -0.007274 -0.002126 0.012094 0.000001 0.005943 0.000004
# 4 0.000000 0.000000 0.000001 0.043067 0.000000 0.038733
# 5 -0.007615 -0.002940 0.005943 0.000000 0.029201 0.000002
# 6 -0.000002 0.000000 0.000004 0.038733 0.000002 -0.062762
#
#
# Mechanical properties :
#
#
# Convention : Reuss Voigt Hill
#
# Bulk Modulus (GPa) = 53.51753 65.04728 59.28240
# Shear Modulus (GPa) = 70.67131 26.08567 48.37849
#
# Velocity S-wave (km/s) = 5.37847 3.26767 4.45004
# Velocity P-wave (km/s) = 7.77670 6.39240 7.11828
#
# Compressibility (1/GPa) = 0.01868547
#
# Stress axis : x y z
#
# Youngs Moduli (GPa) = 82.51622 79.13276 82.68392
#
# Poissons Ratio (x) = -0.02516 0.60147
# Poissons Ratio (y) = -0.02624 0.17578
# Poissons Ratio (z) = 0.60025 0.16823
#
# Static dielectric constant tensor:
#      x y z
#    x 2.066620 0.000000 0.035180 
#    y 0.000000 1.920460 0.000000 
#    z 0.035180 0.000000 2.026160 
# 
# From -- ./inp_files/239693.got.cif
#   From: 2010.05.17/outbox.cif.g08.bks.cpg/sg15_120_cif.got.tgz:239693.got - 2010.06.03 18:47:42.
