data_PCOD9302307
_publ_section_title
;
Structure prediction by ZEFSAII (Michael W. Deem and Ramdas Pophale) SiO2 
 PCOD9302307
Probable space group: C 2/C
;
_chemical_formula_sum "Si O2"
_cell_formula_units_Z 52
_cell_length_a 7.934535
_cell_length_b 21.829357
_cell_length_c 15.898336
_cell_angle_alpha 90.000000
_cell_angle_beta 93.781263
_cell_angle_gamma 90.000000
_cell_volume 2747.689432
_symmetry_space_group_name_H-M "C 2/C"
_symmetry_group_IT_number 15
_symmetry_cell_setting 'monoclinic'
loop_
_space_group_symop_operation_xyz
x,y,z
-x,y,1/2-z
-x,-y,-z
x,-y,1/2+z
1/2+x,1/2+y,z
1/2-x,1/2+y,1/2-z
1/2-x,1/2-y,-z
1/2+x,1/2-y,1/2+z
loop_
_atom_site_type_symbol
_atom_site_label
_atom_site_fract_x
_atom_site_fract_y
_atom_site_fract_z
Si Si1 0.058806 0.748185 0.019451
Si Si2 0.853637 0.040330 0.815077
Si Si3 0.178368 0.678126 0.614551
Si Si4 0.000000 0.397391 0.250000
Si Si5 0.617831 0.793542 0.831482
Si Si6 0.600891 0.601880 0.165233
Si Si7 0.966049 0.886436 0.031525
O O1 0.030475 0.817699 0.044546
O O2 0.006616 0.704437 0.093314
O O3 0.250000 0.750000 0.000000
O O4 0.929257 0.725803 0.944420
O O5 0.671262 0.066844 0.782251
O O6 0.928358 0.068593 0.904461
O O7 0.000000 0.053562 0.750000
O O8 0.833617 0.967225 0.820912
O O9 0.055938 0.644287 0.674053
O O10 0.303529 0.724838 0.667389
O O11 0.275982 0.626256 0.562172
O O12 0.500000 0.804634 0.750000
O O13 0.761417 0.844709 0.839290
O O14 0.500000 0.614897 0.250000
O O15 0.518710 0.599905 0.067979
#
# Coordination Sequence:
#
# PCOD9302307 Si02
#       7
#     8   8   8   4   8   8   8
#     4  11  23  40  65  98 133 169 216 274 336 407
#     4  11  25  46  69  98 133 179 231 278 328 402
#     4  11  23  41  67  95 131 170 217 276 336 405
#     4  12  26  42  72  96 132 178 224 276 336 408
#     4  11  25  39  64  98 131 169 214 277 335 396
#     4  11  25  45  69  92 133 180 225 275 333 400
#     4  11  21  45  68  95 135 171 222 279 337 389
#
# _framework density 18.924990999999999
#
# number of rings (size 3 to 8) (size 9 to 14) (size 15 to 20)
#    0.000    0.923    4.615    2.308   10.769    0.000 
#    0.000    0.769    0.000    0.000    0.000    0.000 
#    0.000    0.000    0.000    0.000    0.000    0.000 
#
# Total GULP energy -144847.289602 kJ/mol
# GULP energy per Si atom -5571.049600 kJ/mol
# Density = 1.888192 g / cm^3
# Si number density = 18.924991 Si / 1000 Ang^3
#
#
#
# Elastic Constant Matrix: (Units=GPa)
#
#
# Indices 1 2 3 4 5 6 
#
# 1 107.3135 41.6583 46.9354 0.0000 -17.0675 0.0000
# 2 41.6583 86.1620 39.3731 0.0000 -9.5696 0.0000
# 3 46.9354 39.3731 121.0372 0.0000 -10.5454 0.0000
# 4 0.0000 0.0000 0.0000 36.0774 0.0000 -6.8882
# 5 -17.0675 -9.5696 -10.5454 0.0000 38.1183 0.0000
# 6 0.0000 0.0000 0.0000 -6.8882 0.0000 11.2457
#
#
#
# Elastic Compliance Matrix: (Units=1/GPa)
#
#
# Indices 1 2 3 4 5 6 
#
# 1 0.013079 -0.004384 -0.003311 0.000000 0.003840 0.000000
# 2 -0.004384 0.015293 -0.003188 0.000000 0.000994 0.000000
# 3 -0.003311 -0.003188 0.010641 0.000000 0.000661 0.000000
# 4 0.000000 0.000000 0.000000 0.031389 0.000000 0.019226
# 5 0.003840 0.000994 0.000661 0.000000 0.028386 0.000000
# 6 0.000000 0.000000 0.000000 0.019226 0.000000 0.100700
#
#
# Mechanical properties :
#
#
# Convention : Reuss Voigt Hill
#
# Bulk Modulus (GPa) = 57.98422 63.38290 60.68356
# Shear Modulus (GPa) = 22.02617 29.52467 25.77542
#
# Velocity S-wave (km/s) = 3.41525 3.95408 3.69450
# Velocity P-wave (km/s) = 6.80128 7.37636 7.09465
#
# Compressibility (1/GPa) = 0.01724607
#
# Stress axis : x y z
#
# Youngs Moduli (GPa) = 76.45721 65.38943 93.98012
#
# Poissons Ratio (x) = 0.28667 0.31118
# Poissons Ratio (y) = 0.33520 0.29962
# Poissons Ratio (z) = 0.25316 0.20847
#
# Static dielectric constant tensor:
#      x y z
#    x 1.823800 0.000000 -0.039050 
#    y 0.000000 1.627640 0.000000 
#    z -0.039050 0.000000 1.798760 
# 
# From -- ./inp_files/136112.got.cif
#   From: 2010.05.17/outbox.cif.g08.bks.cpg/sg15_69_cif.got.tgz:136112.got - 2010.06.03 18:47:42.
