data_PCOD9302936
_publ_section_title
;
Structure prediction by ZEFSAII (Michael W. Deem and Ramdas Pophale) SiO2 
 PCOD9302936
Probable space group: C 2/C
;
_chemical_formula_sum "Si O2"
_cell_formula_units_Z 32
_cell_length_a 16.217462
_cell_length_b 14.659346
_cell_length_c 10.992490
_cell_angle_alpha 90.000000
_cell_angle_beta 36.325573
_cell_angle_gamma 90.000000
_cell_volume 1548.063233
_symmetry_space_group_name_H-M "C 2/C"
_symmetry_group_IT_number 15
_symmetry_cell_setting 'monoclinic'
loop_
_space_group_symop_operation_xyz
x,y,z
-x,y,1/2-z
-x,-y,-z
x,-y,1/2+z
1/2+x,1/2+y,z
1/2-x,1/2+y,1/2-z
1/2-x,1/2-y,-z
1/2+x,1/2-y,1/2+z
loop_
_atom_site_type_symbol
_atom_site_label
_atom_site_fract_x
_atom_site_fract_y
_atom_site_fract_z
Si Si1 0.902855 0.062594 0.474597
Si Si2 0.672014 0.793834 0.210969
Si Si3 0.854162 0.110356 0.136877
Si Si4 0.951789 0.442355 0.438165
O O1 0.766502 0.122295 0.639287
O O2 0.000000 0.092400 0.250000
O O3 0.999899 0.088202 0.472225
O O4 0.864613 0.955579 0.507914
O O5 0.661754 0.718031 0.328584
O O6 0.524070 0.841799 0.360138
O O7 0.750000 0.750000 0.000000
O O8 0.715059 0.069742 0.365899
O O9 0.000000 0.481603 0.250000
O O10 0.000000 0.500000 0.500000
#
# Coordination Sequence:
#
# PCOD9302936 Si02
#       4
#     8   8   8   8
#     4  11  22  41  62  91 133 170 216 278 334 395
#     4  12  22  40  69  98 126 175 230 279 324 405
#     4  11  24  37  63  96 129 170 222 274 333 392
#     4  12  24  43  68 102 138 173 222 283 340 400
#
# _framework density 20.67099
#
# number of rings (size 3 to 8) (size 9 to 14) (size 15 to 20)
#    0.000    0.500    7.500    1.500    0.000    0.000 
#    0.000    1.250    0.000    6.000    0.000    0.000 
#    0.000    0.000    0.000    0.000    0.000    0.000 
#
# Total GULP energy -89111.539732 kJ/mol
# GULP energy per Si atom -5569.471233 kJ/mol
# Density = 2.062394 g / cm^3
# Si number density = 20.670990 Si / 1000 Ang^3
#
#
#
# Elastic Constant Matrix: (Units=GPa)
#
#
# Indices 1 2 3 4 5 6 
#
# 1 52.4155 22.1099 3.9577 0.0000 -2.3279 0.0000
# 2 22.1099 120.6170 5.6802 0.0000 8.4888 0.0000
# 3 3.9577 5.6802 55.2119 0.0000 -16.5668 0.0000
# 4 0.0000 0.0000 0.0000 39.0641 0.0000 -8.6156
# 5 -2.3279 8.4888 -16.5668 0.0000 25.5161 0.0000
# 6 0.0000 0.0000 0.0000 -8.6156 0.0000 126.3892
#
#
#
# Elastic Compliance Matrix: (Units=1/GPa)
#
#
# Indices 1 2 3 4 5 6 
#
# 1 0.020940 -0.004056 -0.000131 0.000000 0.003174 0.000000
# 2 -0.004056 0.009483 -0.002164 0.000000 -0.004930 0.000000
# 3 -0.000131 -0.002164 0.023046 0.000000 0.015671 0.000000
# 4 0.000000 0.000000 0.000000 0.025990 0.000000 0.001772
# 5 0.003174 -0.004930 0.015671 0.000000 0.051295 0.000000
# 6 0.000000 0.000000 0.000000 0.001772 0.000000 0.008033
#
#
# Mechanical properties :
#
#
# Convention : Reuss Voigt Hill
#
# Bulk Modulus (GPa) = 24.52955 32.41558 28.47256
# Shear Modulus (GPa) = 30.28859 51.29368 40.79114
#
# Velocity S-wave (km/s) = 3.83204 4.98680 4.44706
# Velocity P-wave (km/s) = 5.60997 6.99095 6.33818
#
# Compressibility (1/GPa) = 0.04076716
#
# Stress axis : x y z
#
# Youngs Moduli (GPa) = 47.75554 105.45170 43.39073
#
# Poissons Ratio (x) = 0.42768 0.00570
# Poissons Ratio (y) = 0.19368 0.09390
# Poissons Ratio (z) = 0.00627 0.22822
#
# Static dielectric constant tensor:
#      x y z
#    x 1.727170 0.000000 0.098160 
#    y 0.000000 1.818170 0.000000 
#    z 0.098160 0.000000 1.650910 
# 
# From -- ./inp_files/27901.got.cif
#   From: 2010.05.17/outbox.cif.g08.bks.cpg/sg15_14_cif.got.tgz:27901.got - 2010.06.03 18:47:42.
