data_PCOD9302204
_publ_section_title
;
Structure prediction by ZEFSAII (Michael W. Deem and Ramdas Pophale) SiO2 
 PCOD9302204
Probable space group: C 2/C
;
_chemical_formula_sum "Si O2"
_cell_formula_units_Z 40
_cell_length_a 10.745533
_cell_length_b 29.300142
_cell_length_c 8.454837
_cell_angle_alpha 90.000000
_cell_angle_beta 44.277734
_cell_angle_gamma 90.000000
_cell_volume 1858.419042
_symmetry_space_group_name_H-M "C 2/C"
_symmetry_group_IT_number 15
_symmetry_cell_setting 'monoclinic'
loop_
_space_group_symop_operation_xyz
x,y,z
-x,y,1/2-z
-x,-y,-z
x,-y,1/2+z
1/2+x,1/2+y,z
1/2-x,1/2+y,1/2-z
1/2-x,1/2-y,-z
1/2+x,1/2-y,1/2+z
loop_
_atom_site_type_symbol
_atom_site_label
_atom_site_fract_x
_atom_site_fract_y
_atom_site_fract_z
Si Si1 0.295230 0.940770 0.395342
Si Si2 0.128451 0.977736 0.253381
Si Si3 0.072476 0.696281 0.463241
Si Si4 0.064107 0.794513 0.011723
Si Si5 0.742582 0.659101 0.904555
O O1 0.500000 0.938726 0.250000
O O2 0.265499 0.950438 0.236088
O O3 0.216144 0.890961 0.500090
O O4 0.214321 0.981390 0.574543
O O5 0.000000 0.950450 0.250000
O O6 0.000000 0.000000 0.500000
O O7 0.969004 0.743331 0.524175
O O8 0.189442 0.692963 0.518559
O O9 0.914541 0.659564 0.630066
O O10 0.228270 0.692074 0.191859
O O11 0.933402 0.824987 0.023715
O O12 0.000000 0.796135 0.250000
#
# Coordination Sequence:
#
# PCOD9302204 Si02
#       5
#     8   8   8   8   8
#     4  11  21  43  67  98 129 171 220 268 331 398
#     4   9  21  39  68  95 129 166 207 270 335 397
#     4  11  23  41  64  92 130 177 226 266 329 387
#     4  12  25  40  68  93 133 180 221 279 335 386
#     4  11  25  41  66 100 129 175 229 271 319 400
#
# _framework density 21.523669999999999
#
# number of rings (size 3 to 8) (size 9 to 14) (size 15 to 20)
#    0.000    1.200    4.000    2.400    2.800    5.600 
#    0.000    2.000    8.800    0.000    0.000    0.000 
#    0.000    0.000    0.000    0.000    0.000    0.000 
#
# Total GULP energy -111666.661587 kJ/mol
# GULP energy per Si atom -5583.333079 kJ/mol
# Density = 2.147468 g / cm^3
# Si number density = 21.523670 Si / 1000 Ang^3
#
#
#
# Elastic Constant Matrix: (Units=GPa)
#
#
# Indices 1 2 3 4 5 6 
#
# 1 96.0111 15.3021 2.9469 0.0000 -1.0926 0.0000
# 2 15.3021 36.3210 16.7980 0.0000 -3.9879 0.0000
# 3 2.9469 16.7980 92.1690 0.0000 -7.5576 0.0000
# 4 0.0000 0.0000 0.0000 -9.5936 0.0000 34.8158
# 5 -1.0926 -3.9879 -7.5576 0.0000 38.7941 0.0000
# 6 0.0000 0.0000 0.0000 34.8158 0.0000 -48.2209
#
#
#
# Elastic Compliance Matrix: (Units=1/GPa)
#
#
# Indices 1 2 3 4 5 6 
#
# 1 0.011191 -0.004975 0.000541 0.000000 -0.000091 0.000000
# 2 -0.004975 0.032441 -0.005581 0.000000 0.002108 0.000000
# 3 0.000541 -0.005581 0.011995 0.000000 0.001778 0.000000
# 4 0.000000 0.000000 0.000000 0.064335 0.000000 0.046450
# 5 -0.000091 0.002108 0.001778 0.000000 0.026338 0.000000
# 6 0.000000 0.000000 0.000000 0.046450 0.000000 0.012800
#
#
# Mechanical properties :
#
#
# Convention : Reuss Voigt Hill
#
# Bulk Modulus (GPa) = 28.09120 32.73280 30.41200
# Shear Modulus (GPa) = 26.17897 8.82619 17.50258
#
# Velocity S-wave (km/s) = 3.49132 2.02721 2.85472
# Velocity P-wave (km/s) = 5.41590 4.55195 5.00261
#
# Compressibility (1/GPa) = 0.03559833
#
# Stress axis : x y z
#
# Youngs Moduli (GPa) = 89.35971 30.82559 83.36663
#
# Poissons Ratio (x) = 0.15336 -0.04514
# Poissons Ratio (y) = 0.44457 0.46523
# Poissons Ratio (z) = -0.04839 0.17202
#
# Static dielectric constant tensor:
#      x y z
#    x 1.803230 0.000000 -0.003240 
#    y 0.000000 1.337030 0.000000 
#    z -0.003240 0.000000 1.843840 
# 
# From -- ./inp_files/34986.got.cif
#   From: 2010.05.17/outbox.cif.g08.bks.cpg/sg15_18_cif.got.tgz:34986.got - 2010.06.03 18:47:42.
