data_PCOD9302314
_publ_section_title
;
Structure prediction by ZEFSAII (Michael W. Deem and Ramdas Pophale) SiO2 
 PCOD9302314
Probable space group: C 2/C
;
_chemical_formula_sum "Si O2"
_cell_formula_units_Z 40
_cell_length_a 15.514166
_cell_length_b 9.858113
_cell_length_c 10.433389
_cell_angle_alpha 90.000000
_cell_angle_beta 65.816539
_cell_angle_gamma 90.000000
_cell_volume 1455.646695
_symmetry_space_group_name_H-M "C 2/C"
_symmetry_group_IT_number 15
_symmetry_cell_setting 'monoclinic'
loop_
_space_group_symop_operation_xyz
x,y,z
-x,y,1/2-z
-x,-y,-z
x,-y,1/2+z
1/2+x,1/2+y,z
1/2-x,1/2+y,1/2-z
1/2-x,1/2-y,-z
1/2+x,1/2-y,1/2+z
loop_
_atom_site_type_symbol
_atom_site_label
_atom_site_fract_x
_atom_site_fract_y
_atom_site_fract_z
Si Si1 0.291736 0.539102 0.860600
Si Si2 0.952652 0.247783 0.504386
Si Si3 0.000000 0.329397 0.750000
Si Si4 0.241711 0.767854 0.734660
Si Si5 0.000000 0.956874 0.750000
Si Si6 0.632755 0.064996 0.634624
O O1 0.248333 0.685031 0.860660
O O2 0.273611 0.428015 0.758242
O O3 0.403382 0.540858 0.806120
O O4 0.231306 0.470610 0.007812
O O5 0.007830 0.260904 0.604542
O O6 0.841833 0.229122 0.607700
O O7 0.943914 0.384055 0.423988
O O8 0.990053 0.132723 0.385666
O O9 0.910156 0.428351 0.783354
O O10 0.157361 0.693146 0.708713
#
# Coordination Sequence:
#
# PCOD9302314 Si02
#       6
#     8   8   4   8   4   8
#     4  11  25  43  77 103 152 199 253 302 376 451
#     4  11  24  45  72 112 151 193 252 311 378 447
#     4  12  27  41  78 118 150 186 266 326 358 432
#     4  11  23  47  69 110 146 197 253 305 367 453
#     4  12  23  47  78 104 150 214 238 298 396 466
#     4  11  21  45  71 107 142 206 247 305 371 454
#
# _framework density 27.479196000000002
#
# number of rings (size 3 to 8) (size 9 to 14) (size 15 to 20)
#    0.000    0.800    4.000    4.800    2.800    1.600 
#    3.600    2.000    0.000    0.000    0.000    0.000 
#    0.000    0.000    0.000    0.000    0.000    0.000 
#
# Total GULP energy -112110.875829 kJ/mol
# GULP energy per Si atom -5605.543791 kJ/mol
# Density = 2.741665 g / cm^3
# Si number density = 27.479196 Si / 1000 Ang^3
#
#
#
# Elastic Constant Matrix: (Units=GPa)
#
#
# Indices 1 2 3 4 5 6 
#
# 1 153.1058 32.8546 52.2943 0.0000 1.2799 0.0000
# 2 32.8546 90.6776 36.1217 0.0000 27.8224 0.0000
# 3 52.2943 36.1217 77.8955 0.0000 34.2728 0.0000
# 4 0.0000 0.0000 0.0000 33.9904 0.0000 11.6527
# 5 1.2799 27.8224 34.2728 0.0000 49.4936 0.0000
# 6 0.0000 0.0000 0.0000 11.6527 0.0000 44.3762
#
#
#
# Elastic Compliance Matrix: (Units=1/GPa)
#
#
# Indices 1 2 3 4 5 6 
#
# 1 0.009945 -0.002300 -0.008724 0.000000 0.007077 0.000000
# 2 -0.002300 0.014860 -0.002442 0.000000 -0.006603 0.000000
# 3 -0.008724 -0.002442 0.027503 0.000000 -0.017447 0.000000
# 4 0.000000 0.000000 0.000000 0.032331 0.000000 -0.008490
# 5 0.007077 -0.006603 -0.017447 0.000000 0.035815 0.000000
# 6 0.000000 0.000000 0.000000 -0.008490 0.000000 0.024764
#
#
# Mechanical properties :
#
#
# Convention : Reuss Voigt Hill
#
# Bulk Modulus (GPa) = 39.40469 62.69113 51.04791
# Shear Modulus (GPa) = 27.68427 38.93258 33.30842
#
# Velocity S-wave (km/s) = 3.17750 3.76813 3.48535
# Velocity P-wave (km/s) = 5.27569 6.46493 5.90035
#
# Compressibility (1/GPa) = 0.02537769
#
# Stress axis : x y z
#
# Youngs Moduli (GPa) = 100.54822 67.29485 36.35945
#
# Poissons Ratio (x) = 0.15475 0.31720
# Poissons Ratio (y) = 0.23121 0.08879
# Poissons Ratio (z) = 0.87719 0.16433
#
# Static dielectric constant tensor:
#      x y z
#    x 2.134800 0.000000 0.052160 
#    y 0.000000 2.175780 0.000000 
#    z 0.052160 0.000000 2.175500 
# 
# From -- ./inp_files/94925.got.cif
#   From: 2010.05.17/outbox.cif.g08.bks.cpg/sg15_48_cif.got.tgz:94925.got - 2010.06.03 18:47:42.
