data_PCOD9302831
_publ_section_title
;
Structure prediction by ZEFSAII (Michael W. Deem and Ramdas Pophale) SiO2 
 PCOD9302831
Probable space group: C 2/C
;
_chemical_formula_sum "Si O2"
_cell_formula_units_Z 32
_cell_length_a 17.220722
_cell_length_b 9.847440
_cell_length_c 8.767048
_cell_angle_alpha 90.000000
_cell_angle_beta 102.060856
_cell_angle_gamma 90.000000
_cell_volume 1453.898784
_symmetry_space_group_name_H-M "C 2/C"
_symmetry_group_IT_number 15
_symmetry_cell_setting 'monoclinic'
loop_
_space_group_symop_operation_xyz
x,y,z
-x,y,1/2-z
-x,-y,-z
x,-y,1/2+z
1/2+x,1/2+y,z
1/2-x,1/2+y,1/2-z
1/2-x,1/2-y,-z
1/2+x,1/2-y,1/2+z
loop_
_atom_site_type_symbol
_atom_site_label
_atom_site_fract_x
_atom_site_fract_y
_atom_site_fract_z
Si Si1 0.337550 0.817714 0.044542
Si Si2 0.417114 0.431190 0.426612
Si Si3 0.349574 0.349289 0.088796
Si Si4 0.329513 0.894594 0.387074
O O1 0.353045 0.863095 0.224214
O O2 0.250000 0.750000 0.000000
O O3 0.399367 0.705000 0.013215
O O4 0.338947 0.949659 0.937545
O O5 0.500000 0.500000 0.500000
O O6 0.593039 0.398082 0.254253
O O7 0.351447 0.541434 0.453218
O O8 0.262826 0.351528 0.129254
O O9 0.371676 0.205276 0.025342
#
# Coordination Sequence:
#
# PCOD9302831 Si02
#       4
#     8   8   8   8
#     4  12  23  41  68 103 142 179 240 302 353 416
#     4  12  25  42  66 100 143 191 230 282 363 438
#     4  11  22  40  66 101 141 183 239 297 352 418
#     4  11  23  39  70 105 137 182 243 305 353 403
#
# _framework density 22.009785999999998
#
# number of rings (size 3 to 8) (size 9 to 14) (size 15 to 20)
#    0.000    0.500    5.000    3.750    3.500    0.000 
#    0.000    1.250    0.000    3.000    0.000    0.000 
#    0.000    0.000    0.000    0.000    0.000    0.000 
#
# Total GULP energy -89590.372842 kJ/mol
# GULP energy per Si atom -5599.398303 kJ/mol
# Density = 2.195969 g / cm^3
# Si number density = 22.009786 Si / 1000 Ang^3
#
#
#
# Elastic Constant Matrix: (Units=GPa)
#
#
# Indices 1 2 3 4 5 6 
#
# 1 45.2010 28.2388 44.5389 0.0000 7.1218 0.0000
# 2 28.2388 189.1070 71.0464 0.0000 -2.9798 0.0000
# 3 44.5389 71.0464 138.7763 0.0000 4.0459 0.0000
# 4 0.0000 0.0000 0.0000 51.3645 0.0000 -3.1977
# 5 7.1218 -2.9798 4.0459 0.0000 28.8928 0.0000
# 6 0.0000 0.0000 0.0000 -3.1977 0.0000 31.1463
#
#
#
# Elastic Compliance Matrix: (Units=1/GPa)
#
#
# Indices 1 2 3 4 5 6 
#
# 1 0.033952 -0.001444 -0.009949 0.000000 -0.007124 0.000000
# 2 -0.001444 0.006647 -0.002982 0.000000 0.001459 0.000000
# 3 -0.009949 -0.002982 0.011912 0.000000 0.000477 0.000000
# 4 0.000000 0.000000 0.000000 0.019594 0.000000 0.002012
# 5 -0.007124 0.001459 0.000477 0.000000 0.036450 0.000000
# 6 0.000000 0.000000 0.000000 0.002012 0.000000 0.032313
#
#
# Mechanical properties :
#
#
# Convention : Reuss Voigt Hill
#
# Bulk Modulus (GPa) = 42.08875 73.41470 57.75173
# Shear Modulus (GPa) = 28.16285 37.56476 32.86381
#
# Velocity S-wave (km/s) = 3.58098 4.13574 3.86832
# Velocity P-wave (km/s) = 6.02180 7.49891 6.80058
#
# Compressibility (1/GPa) = 0.02375932
#
# Stress axis : x y z
#
# Youngs Moduli (GPa) = 29.45349 150.44474 83.95115
#
# Poissons Ratio (x) = 0.21728 0.83526
# Poissons Ratio (y) = 0.04254 0.25034
# Poissons Ratio (z) = 0.29304 0.44861
#
# Static dielectric constant tensor:
#      x y z
#    x 1.859070 0.000000 -0.004190 
#    y 0.000000 1.806030 0.000000 
#    z -0.004190 0.000000 1.799470 
# 
# From -- ./inp_files/102208.got.cif
#   From: 2010.05.17/outbox.cif.g08.bks.cpg/sg15_52_cif.got.tgz:102208.got - 2010.06.03 18:47:42.
