data_PCOD9302266
_publ_section_title
;
Structure prediction by ZEFSAII (Michael W. Deem and Ramdas Pophale) SiO2 
 PCOD9302266
Probable space group: C 2/C
;
_chemical_formula_sum "Si O2"
_cell_formula_units_Z 48
_cell_length_a 28.779099
_cell_length_b 9.441647
_cell_length_c 17.808114
_cell_angle_alpha 90.000000
_cell_angle_beta 28.468694
_cell_angle_gamma 90.000000
_cell_volume 2306.579631
_symmetry_space_group_name_H-M "C 2/C"
_symmetry_group_IT_number 15
_symmetry_cell_setting 'monoclinic'
loop_
_space_group_symop_operation_xyz
x,y,z
-x,y,1/2-z
-x,-y,-z
x,-y,1/2+z
1/2+x,1/2+y,z
1/2-x,1/2+y,1/2-z
1/2-x,1/2-y,-z
1/2+x,1/2-y,1/2+z
loop_
_atom_site_type_symbol
_atom_site_label
_atom_site_fract_x
_atom_site_fract_y
_atom_site_fract_z
Si Si1 0.905400 0.911849 0.425958
Si Si2 0.689981 0.156845 0.861450
Si Si3 0.607996 0.280104 0.508051
Si Si4 0.614942 0.021828 0.602489
Si Si5 0.415400 0.914873 0.582513
Si Si6 0.216803 0.616314 0.095448
O O1 0.932349 0.065586 0.419042
O O2 0.000000 0.851780 0.250000
O O3 0.870471 0.800904 0.538628
O O4 0.815151 0.937073 0.496917
O O5 0.791726 0.200391 0.680457
O O6 0.648974 0.036150 0.865169
O O7 0.681199 0.077367 0.954040
O O8 0.546117 0.187646 0.537327
O O9 0.623623 0.182753 0.559286
O O10 0.500000 0.985599 0.750000
O O11 0.656496 0.988885 0.626185
O O12 0.354091 0.841165 0.735387
O O13 0.500000 0.000000 0.500000
O O14 0.250000 0.750000 0.000000
#
# Coordination Sequence:
#
# PCOD9302266 Si02
#       6
#     8   8   8   8   8   8
#     4  12  25  41  65  97 135 170 210 271 335 377
#     4  11  21  44  67  91 126 173 213 265 324 386
#     4  11  22  45  64  92 133 168 211 272 330 380
#     4  11  23  41  69  93 125 171 219 266 324 392
#     4  11  24  42  71  95 125 173 230 262 318 402
#     4  12  23  40  67  99 128 167 223 270 318 394
#
# _framework density 20.810034000000002
#
# number of rings (size 3 to 8) (size 9 to 14) (size 15 to 20)
#    0.000    0.667    5.000    4.000    2.333    0.667 
#    3.000    0.833    0.000    0.000    0.000    0.000 
#    0.000    0.000    0.000    0.000    0.000    0.000 
#
# Total GULP energy -133988.500704 kJ/mol
# GULP energy per Si atom -5582.854196 kJ/mol
# Density = 2.076267 g / cm^3
# Si number density = 20.810034 Si / 1000 Ang^3
#
#
#
# Elastic Constant Matrix: (Units=GPa)
#
#
# Indices 1 2 3 4 5 6 
#
# 1 65.9172 -4.3168 3.1061 -0.0001 15.7292 0.0000
# 2 -4.3168 103.1401 -1.0600 -0.0001 20.2416 -0.0001
# 3 3.1061 -1.0600 86.5779 0.0000 7.2674 -0.0001
# 4 -0.0001 -0.0001 0.0000 40.5891 0.0000 8.5051
# 5 15.7292 20.2416 7.2674 0.0000 30.5098 0.0000
# 6 0.0000 -0.0001 -0.0001 8.5051 0.0000 -0.2330
#
#
#
# Elastic Compliance Matrix: (Units=1/GPa)
#
#
# Indices 1 2 3 4 5 6 
#
# 1 0.018066 0.002993 0.000344 0.000000 -0.011382 0.000000
# 2 0.002993 0.011694 0.000833 0.000000 -0.009500 -0.000001
# 3 0.000344 0.000833 0.011846 0.000000 -0.003552 -0.000001
# 4 0.000000 0.000000 0.000000 0.002849 0.000000 0.103982
# 5 -0.011382 -0.009500 -0.003552 0.000000 0.045793 0.000001
# 6 0.000000 -0.000001 -0.000001 0.103982 0.000001 -0.496238
#
#
# Mechanical properties :
#
#
# Convention : Reuss Voigt Hill
#
# Bulk Modulus (GPa) = 20.02102 27.89931 23.96016
# Shear Modulus (GPa) = -12.57287 31.36691 9.39702
#
# Velocity S-wave (km/s) = -2.46066 3.88660 2.12730
# Velocity P-wave (km/s) = 1.25244 5.79454 4.19197
#
# Compressibility (1/GPa) = 0.04994750
#
# Stress axis : x y z
#
# Youngs Moduli (GPa) = 55.35160 85.51546 84.41450
#
# Poissons Ratio (x) = -0.25598 -0.02903
# Poissons Ratio (y) = -0.16569 -0.07034
# Poissons Ratio (z) = -0.01904 -0.07125
#
# Static dielectric constant tensor:
#      x y z
#    x 1.134350 -0.000010 -0.313450 
#    y -0.000010 1.679650 0.000000 
#    z -0.313450 0.000000 1.651120 
# 
# From -- ./inp_files/208936.got.cif
#   From: 2010.05.17/outbox.cif.g08.bks.cpg/sg15_105_cif.got.tgz:208936.got - 2010.06.03 18:47:42.
