data_PCOD9302903
_publ_section_title
;
Structure prediction by ZEFSAII (Michael W. Deem and Ramdas Pophale) SiO2 
 PCOD9302903
Probable space group: C 2/C
;
_chemical_formula_sum "Si O2"
_cell_formula_units_Z 64
_cell_length_a 16.340883
_cell_length_b 13.471646
_cell_length_c 23.109375
_cell_angle_alpha 90.000000
_cell_angle_beta 31.530154
_cell_angle_gamma 90.000000
_cell_volume 2660.371249
_symmetry_space_group_name_H-M "C 2/C"
_symmetry_group_IT_number 15
_symmetry_cell_setting 'monoclinic'
loop_
_space_group_symop_operation_xyz
x,y,z
-x,y,1/2-z
-x,-y,-z
x,-y,1/2+z
1/2+x,1/2+y,z
1/2-x,1/2+y,1/2-z
1/2-x,1/2-y,-z
1/2+x,1/2-y,1/2+z
loop_
_atom_site_type_symbol
_atom_site_label
_atom_site_fract_x
_atom_site_fract_y
_atom_site_fract_z
Si Si1 0.306021 0.312158 0.095092
Si Si2 0.333089 0.603324 0.319976
Si Si3 0.894474 0.464882 0.979169
Si Si4 0.866826 0.680415 0.294690
Si Si5 0.871074 0.477599 0.244948
Si Si6 0.080954 0.729634 0.353472
Si Si7 0.157803 0.115749 0.525948
Si Si8 0.935569 0.932131 0.630587
O O1 0.237205 0.207722 0.115098
O O2 0.169495 0.394110 0.184439
O O3 0.359662 0.292631 0.128948
O O4 0.449922 0.357523 0.972562
O O5 0.500000 0.582963 0.250000
O O6 0.207586 0.516962 0.409736
O O7 0.365093 0.612741 0.232137
O O8 0.010591 0.372542 0.921934
O O9 0.006535 0.545933 0.879796
O O10 0.768840 0.418387 0.010526
O O11 0.945638 0.577374 0.226228
O O12 0.738858 0.646187 0.416997
O O13 0.000000 0.738551 0.250000
O O14 0.803368 0.721227 0.271674
O O15 0.705128 0.518088 0.320795
O O16 0.942261 0.785961 0.403316
O O17 0.044494 0.023660 0.583454
#
# Coordination Sequence:
#
# PCOD9302903 Si02
#       8
#     8   8   8   8   8   8   8   8
#     4  12  27  46  75 109 148 202 250 308 370 454
#     4  12  29  50  74 110 149 198 255 318 377 449
#     4  11  26  48  73 108 153 189 245 320 388 434
#     4  11  22  40  70 106 144 183 242 300 367 441
#     4  11  23  46  74 104 145 196 245 309 370 450
#     4  11  25  44  72 114 148 190 244 304 377 453
#     4  12  22  46  76 107 142 194 247 306 378 449
#     4  12  26  49  77 103 152 198 251 309 381 444
#
# _framework density 24.056792999999999
#
# number of rings (size 3 to 8) (size 9 to 14) (size 15 to 20)
#    0.000    0.500    6.250    3.000    1.750    5.000 
#    0.000    0.000    0.000    0.000    0.000    0.000 
#    0.000    0.000    0.000    0.000    0.000    0.000 
#
# Total GULP energy -178829.066565 kJ/mol
# GULP energy per Si atom -5588.408330 kJ/mol
# Density = 2.400204 g / cm^3
# Si number density = 24.056793 Si / 1000 Ang^3
#
#
#
# Elastic Constant Matrix: (Units=GPa)
#
#
# Indices 1 2 3 4 5 6 
#
# 1 71.3977 -4.0639 17.0813 0.0013 8.0635 -0.0002
# 2 -4.0639 69.6532 39.8741 0.0005 7.8294 0.0001
# 3 17.0813 39.8741 126.6788 0.0036 18.0567 0.0004
# 4 0.0013 0.0005 0.0036 -96.9878 -0.0001 -1.9884
# 5 8.0635 7.8294 18.0567 -0.0001 42.3155 0.0002
# 6 -0.0002 0.0001 0.0004 -1.9884 0.0002 30.4683
#
#
#
# Elastic Compliance Matrix: (Units=1/GPa)
#
#
# Indices 1 2 3 4 5 6 
#
# 1 0.015008 0.002566 -0.002509 0.000000 -0.002264 0.000000
# 2 0.002566 0.017987 -0.005817 0.000000 -0.001335 0.000000
# 3 -0.002509 -0.005817 0.010479 0.000000 -0.002917 0.000000
# 4 0.000000 0.000000 0.000000 -0.010297 0.000000 -0.000672
# 5 -0.002264 -0.001335 -0.002917 0.000000 0.025555 0.000000
# 6 0.000000 0.000000 0.000000 -0.000672 0.000000 0.032777
#
#
# Mechanical properties :
#
#
# Convention : Reuss Voigt Hill
#
# Bulk Modulus (GPa) = 31.29460 41.50142 36.39801
# Shear Modulus (GPa) = 43.98278 9.48176 26.73227
#
# Velocity S-wave (km/s) = 4.28049 1.98745 3.33711
# Velocity P-wave (km/s) = 6.12103 4.74926 5.47825
#
# Compressibility (1/GPa) = 0.03195439
#
# Stress axis : x y z
#
# Youngs Moduli (GPa) = 66.63103 55.59604 95.42704
#
# Poissons Ratio (x) = -0.14268 0.23940
# Poissons Ratio (y) = -0.17100 0.55514
# Poissons Ratio (z) = 0.16716 0.32343
#
# Static dielectric constant tensor:
#      x y z
#    x 1.976540 0.000000 0.047460 
#    y 0.000000 1.944050 0.000000 
#    z 0.047460 0.000000 2.029990 
# 
# From -- ./inp_files/277639.got.cif
#   From: 2010.05.17/outbox.cif.g08.bks.cpg/sg15_139_cif.got.tgz:277639.got - 2010.06.03 18:47:42.
