data_PCOD9302005
_publ_section_title
;
Structure prediction by ZEFSAII (Michael W. Deem and Ramdas Pophale) SiO2 
 PCOD9302005
Probable space group: C 2/C
;
_chemical_formula_sum "Si O2"
_cell_formula_units_Z 48
_cell_length_a 34.550943
_cell_length_b 15.297385
_cell_length_c 16.275325
_cell_angle_alpha 90.000000
_cell_angle_beta 16.437931
_cell_angle_gamma 90.000000
_cell_volume 2434.204792
_symmetry_space_group_name_H-M "C 2/C"
_symmetry_group_IT_number 15
_symmetry_cell_setting 'monoclinic'
loop_
_space_group_symop_operation_xyz
x,y,z
-x,y,1/2-z
-x,-y,-z
x,-y,1/2+z
1/2+x,1/2+y,z
1/2-x,1/2+y,1/2-z
1/2-x,1/2-y,-z
1/2+x,1/2-y,1/2+z
loop_
_atom_site_type_symbol
_atom_site_label
_atom_site_fract_x
_atom_site_fract_y
_atom_site_fract_z
Si Si1 0.045610 0.364734 0.747619
Si Si2 0.961836 0.729978 0.732463
Si Si3 0.924670 0.458340 0.234623
Si Si4 0.269836 0.813747 0.381768
Si Si5 0.796852 0.174439 0.845369
Si Si6 0.836508 0.986904 0.826330
O O1 0.000000 0.339347 0.750000
O O2 0.045998 0.469580 0.756309
O O3 0.191412 0.335590 0.484868
O O4 0.929885 0.325622 0.042385
O O5 0.974338 0.636551 0.661155
O O6 0.000000 0.722269 0.750000
O O7 0.058471 0.799211 0.488304
O O8 0.809002 0.766572 0.031500
O O9 0.760332 0.452972 0.552337
O O10 0.000000 0.500000 0.000000
O O11 0.250000 0.750000 0.500000
O O12 0.208095 0.911812 0.518714
O O13 0.792202 0.087959 0.911383
O O14 0.750000 0.250000 0.000000
O O15 0.000000 0.000000 0.500000
#
# Coordination Sequence:
#
# PCOD9302005 Si02
#       6
#     8   8   8   8   8   8
#     4  11  24  41  62  93 130 167 210 276 328 374
#     4  12  24  40  63  97 132 170 211 278 337 379
#     4  11  21  41  65  91 121 171 225 260 315 395
#     4  12  22  42  68  91 126 173 222 261 317 398
#     4  11  24  40  65  92 127 165 223 263 310 393
#     4  11  22  38  64  93 117 160 218 265 307 373
#
# _framework density 19.718966000000002
#
# number of rings (size 3 to 8) (size 9 to 14) (size 15 to 20)
#    0.000    0.667    5.000    4.500    0.000    0.000 
#    0.000    0.000    0.000    2.000    0.000    0.000 
#    0.000    0.000    0.000    0.000    0.000    0.000 
#
# Total GULP energy -133705.625903 kJ/mol
# GULP energy per Si atom -5571.067746 kJ/mol
# Density = 1.967408 g / cm^3
# Si number density = 19.718966 Si / 1000 Ang^3
#
#
#
# Elastic Constant Matrix: (Units=GPa)
#
#
# Indices 1 2 3 4 5 6 
#
# 1 86.1222 33.9939 -0.3088 0.0000 -15.9187 0.0000
# 2 33.9939 122.9047 6.0144 0.0000 -5.3908 0.0000
# 3 -0.3088 6.0144 70.7174 0.0000 -20.0961 0.0000
# 4 0.0000 0.0000 0.0000 24.5717 0.0000 -6.1293
# 5 -15.9187 -5.3908 -20.0961 0.0000 31.1302 0.0000
# 6 0.0000 0.0000 0.0000 -6.1293 0.0000 28.7046
#
#
#
# Elastic Compliance Matrix: (Units=1/GPa)
#
#
# Indices 1 2 3 4 5 6 
#
# 1 0.014750 -0.003837 0.002872 0.000000 0.008732 0.000000
# 2 -0.003837 0.009204 -0.001107 0.000000 -0.001083 0.000000
# 3 0.002872 -0.001107 0.017893 0.000000 0.012828 0.000000
# 4 0.000000 0.000000 0.000000 0.042987 0.000000 0.009179
# 5 0.008732 -0.001083 0.012828 0.000000 0.044682 0.000000
# 6 0.000000 0.000000 0.000000 0.009179 0.000000 0.036798
#
#
# Mechanical properties :
#
#
# Convention : Reuss Voigt Hill
#
# Bulk Modulus (GPa) = 26.52314 39.90482 33.21398
# Shear Modulus (GPa) = 27.31841 32.88428 30.10135
#
# Velocity S-wave (km/s) = 3.72612 4.08811 3.91131
# Velocity P-wave (km/s) = 5.65612 6.52413 6.10557
#
# Compressibility (1/GPa) = 0.03770293
#
# Stress axis : x y z
#
# Youngs Moduli (GPa) = 67.79450 108.64339 55.88826
#
# Poissons Ratio (x) = 0.41690 -0.16053
# Poissons Ratio (y) = 0.26015 0.06189
# Poissons Ratio (z) = -0.19473 0.12031
#
# Static dielectric constant tensor:
#      x y z
#    x 1.723840 0.000000 -0.021070 
#    y 0.000000 1.720150 0.000000 
#    z -0.021070 0.000000 1.767920 
# 
# From -- ./inp_files/182416.got.cif
#   From: 2010.05.17/outbox.cif.g08.bks.cpg/sg15_92_cif.got.tgz:182416.got - 2010.06.03 18:47:42.
