data_PCOD9302499
_publ_section_title
;
Structure prediction by ZEFSAII (Michael W. Deem and Ramdas Pophale) SiO2 
 PCOD9302499
Probable space group: C 2/C
;
_chemical_formula_sum "Si O2"
_cell_formula_units_Z 60
_cell_length_a 25.337703
_cell_length_b 12.733180
_cell_length_c 12.056335
_cell_angle_alpha 90.000000
_cell_angle_beta 131.664371
_cell_angle_gamma 90.000000
_cell_volume 2905.829236
_symmetry_space_group_name_H-M "C 2/C"
_symmetry_group_IT_number 15
_symmetry_cell_setting 'monoclinic'
loop_
_space_group_symop_operation_xyz
x,y,z
-x,y,1/2-z
-x,-y,-z
x,-y,1/2+z
1/2+x,1/2+y,z
1/2-x,1/2+y,1/2-z
1/2-x,1/2-y,-z
1/2+x,1/2-y,1/2+z
loop_
_atom_site_type_symbol
_atom_site_label
_atom_site_fract_x
_atom_site_fract_y
_atom_site_fract_z
Si Si1 0.785919 0.684006 0.150065
Si Si2 0.110863 0.979465 0.117624
Si Si3 0.366805 0.365823 0.673573
Si Si4 0.740911 0.457935 0.143956
Si Si5 0.183278 0.732639 0.682649
Si Si6 0.046227 0.182129 0.922291
Si Si7 0.562507 0.240370 0.059591
Si Si8 0.000000 0.750283 0.750000
O O1 0.763285 0.562817 0.112312
O O2 0.754123 0.728164 0.221704
O O3 0.870130 0.693046 0.283140
O O4 0.750000 0.750000 0.000000
O O5 0.115654 0.020173 0.249889
O O6 0.188103 0.987249 0.170234
O O7 0.083529 0.862405 0.067558
O O8 0.061798 0.065038 0.988720
O O9 0.305591 0.382558 0.499350
O O10 0.338210 0.294726 0.735375
O O11 0.437374 0.317714 0.719606
O O12 0.806169 0.389347 0.277562
O O13 0.121384 0.762571 0.510969
O O14 0.000000 0.176050 0.750000
O O15 0.004720 0.250377 0.954912
O O16 0.538689 0.193166 0.907675
#
# Coordination Sequence:
#
# PCOD9302499 Si02
#       8
#     8   8   8   8   8   8   8   4
#     4  12  25  44  67 101 137 178 228 286 337 407
#     4  11  22  37  62  99 134 164 214 276 347 403
#     4  11  23  40  64 100 136 175 224 281 343 403
#     4  12  24  41  70  97 130 179 224 275 336 406
#     4  11  23  46  64  97 139 176 226 272 339 413
#     4  11  24  40  64  94 135 174 221 278 340 399
#     4  12  24  39  62  96 135 173 223 277 340 402
#     4  12  22  40  64  96 136 176 218 282 348 400
#
# _framework density 20.648150000000001
#
# number of rings (size 3 to 8) (size 9 to 14) (size 15 to 20)
#    0.000    0.533    8.000    2.400    2.800    0.000 
#    0.000    0.667    1.467    0.000    0.000    0.000 
#    0.000    0.000    0.000    0.000    0.000    0.000 
#
# Total GULP energy -167649.072987 kJ/mol
# GULP energy per Si atom -5588.302433 kJ/mol
# Density = 2.060115 g / cm^3
# Si number density = 20.648150 Si / 1000 Ang^3
#
#
#
# Elastic Constant Matrix: (Units=GPa)
#
#
# Indices 1 2 3 4 5 6 
#
# 1 65.9137 5.4563 -9.6349 0.0000 1.2439 0.0000
# 2 5.4563 48.4090 4.4149 0.0000 10.5315 0.0000
# 3 -9.6349 4.4149 87.4643 0.0000 6.2385 0.0000
# 4 0.0000 0.0000 0.0000 23.9667 0.0000 9.9779
# 5 1.2439 10.5315 6.2385 0.0000 31.6492 0.0000
# 6 0.0000 0.0000 0.0000 9.9779 0.0000 22.3584
#
#
#
# Elastic Compliance Matrix: (Units=1/GPa)
#
#
# Indices 1 2 3 4 5 6 
#
# 1 0.015600 -0.001847 0.001837 0.000000 -0.000361 0.000000
# 2 -0.001847 0.022520 -0.000822 0.000000 -0.007259 0.000000
# 3 0.001837 -0.000822 0.011829 0.000000 -0.002130 0.000000
# 4 0.000000 0.000000 0.000000 0.051246 0.000000 -0.022870
# 5 -0.000361 -0.007259 -0.002130 0.000000 0.034446 0.000000
# 6 0.000000 0.000000 0.000000 -0.022870 0.000000 0.054932
#
#
# Mechanical properties :
#
#
# Convention : Reuss Voigt Hill
#
# Bulk Modulus (GPa) = 20.71100 22.47328 21.59214
# Shear Modulus (GPa) = 24.00016 29.03156 26.51586
#
# Velocity S-wave (km/s) = 3.41301 3.75375 3.58743
# Velocity P-wave (km/s) = 5.05804 5.44932 5.25732
#
# Compressibility (1/GPa) = 0.04828353
#
# Stress axis : x y z
#
# Youngs Moduli (GPa) = 64.10396 44.40545 84.53729
#
# Poissons Ratio (x) = 0.08203 -0.15533
# Poissons Ratio (y) = 0.11843 0.06953
# Poissons Ratio (z) = -0.11778 0.03652
#
# Static dielectric constant tensor:
#      x y z
#    x 1.748630 0.000000 -0.018160 
#    y 0.000000 1.721800 0.000000 
#    z -0.018160 0.000000 1.783640 
# 
# From -- ./inp_files/118788.got.cif
#   From: 2010.05.17/outbox.cif.g08.bks.cpg/sg15_60_cif.got.tgz:118788.got - 2010.06.03 18:47:42.
