data_PCOD9302509
_publ_section_title
;
Structure prediction by ZEFSAII (Michael W. Deem and Ramdas Pophale) SiO2 
 PCOD9302509
Probable space group: C 2/C
;
_chemical_formula_sum "Si O2"
_cell_formula_units_Z 48
_cell_length_a 5.908550
_cell_length_b 14.514822
_cell_length_c 25.985533
_cell_angle_alpha 90.000000
_cell_angle_beta 117.010190
_cell_angle_gamma 90.000000
_cell_volume 1985.481198
_symmetry_space_group_name_H-M "C 2/C"
_symmetry_group_IT_number 15
_symmetry_cell_setting 'monoclinic'
loop_
_space_group_symop_operation_xyz
x,y,z
-x,y,1/2-z
-x,-y,-z
x,-y,1/2+z
1/2+x,1/2+y,z
1/2-x,1/2+y,1/2-z
1/2-x,1/2-y,-z
1/2+x,1/2-y,1/2+z
loop_
_atom_site_type_symbol
_atom_site_label
_atom_site_fract_x
_atom_site_fract_y
_atom_site_fract_z
Si Si1 0.295523 0.687120 0.642571
Si Si2 0.303610 0.183859 0.278512
Si Si3 0.941515 0.839564 0.602099
Si Si4 0.717052 0.990503 0.658280
Si Si5 0.434435 0.823861 0.493899
Si Si6 0.740441 0.542006 0.052672
O O1 0.551578 0.748096 0.666393
O O2 0.345883 0.589965 0.675595
O O3 0.170493 0.665903 0.574149
O O4 0.081734 0.755145 0.644350
O O5 0.500000 0.193915 0.250000
O O6 0.315041 0.075955 0.296217
O O7 0.000000 0.204768 0.250000
O O8 0.855024 0.920513 0.631925
O O9 0.717905 0.802281 0.542381
O O10 0.140940 0.881922 0.582294
O O11 0.437623 0.014808 0.606893
O O12 0.250000 0.750000 0.500000
O O13 0.391527 0.917340 0.520528
O O14 0.500000 0.500000 0.000000
#
# Coordination Sequence:
#
# PCOD9302509 Si02
#       6
#     8   8   8   8   8   8
#     4  12  24  48  79 110 144 206 256 313 392 461
#     4  12  29  59  82 108 153 200 269 352 402 456
#     4  11  22  44  66 109 165 197 236 309 367 464
#     4  11  26  48  75 110 149 200 255 314 394 469
#     4  11  22  37  64 109 157 199 247 290 372 465
#     4  11  22  39  67 108 157 200 235 297 371 468
#
# _framework density 24.175502000000002
#
# number of rings (size 3 to 8) (size 9 to 14) (size 15 to 20)
#    0.000    0.667    3.333    4.500    2.333    3.333 
#    6.000    5.000    0.000    0.000    0.000    0.000 
#    0.000    0.000    0.000    0.000    0.000    0.000 
#
# Total GULP energy -133928.438914 kJ/mol
# GULP energy per Si atom -5580.351621 kJ/mol
# Density = 2.412048 g / cm^3
# Si number density = 24.175502 Si / 1000 Ang^3
#
#
#
# Elastic Constant Matrix: (Units=GPa)
#
#
# Indices 1 2 3 4 5 6 
#
# 1 105.5687 35.9746 56.2885 0.0000 14.1987 0.0000
# 2 35.9746 100.9161 11.7795 0.0000 16.1168 0.0000
# 3 56.2885 11.7795 92.7758 0.0000 20.2946 0.0000
# 4 0.0000 0.0000 0.0000 24.7755 0.0000 2.3997
# 5 14.1987 16.1168 20.2946 0.0000 51.8207 0.0000
# 6 0.0000 0.0000 0.0000 2.3997 0.0000 46.5134
#
#
#
# Elastic Compliance Matrix: (Units=1/GPa)
#
#
# Indices 1 2 3 4 5 6 
#
# 1 0.015881 -0.004702 -0.009194 0.000000 0.000712 0.000000
# 2 -0.004702 0.011858 0.002047 0.000000 -0.003201 0.000000
# 3 -0.009194 0.002047 0.017155 0.000000 -0.004836 0.000000
# 4 0.000000 0.000000 0.000000 0.040565 0.000000 -0.002093
# 5 0.000712 -0.003201 -0.004836 0.000000 0.021992 0.000000
# 6 0.000000 0.000000 0.000000 -0.002093 0.000000 0.021607
#
#
# Mechanical properties :
#
#
# Convention : Reuss Voigt Hill
#
# Bulk Modulus (GPa) = 47.17711 56.37175 51.77443
# Shear Modulus (GPa) = 31.28511 37.63645 34.46078
#
# Velocity S-wave (km/s) = 3.60124 3.94991 3.77960
# Velocity P-wave (km/s) = 6.07031 6.64611 6.36472
#
# Compressibility (1/GPa) = 0.02119672
#
# Stress axis : x y z
#
# Youngs Moduli (GPa) = 62.96731 84.33391 58.29282
#
# Poissons Ratio (x) = 0.39652 0.53595
# Poissons Ratio (y) = 0.29606 -0.11935
# Poissons Ratio (z) = 0.57893 -0.17267
#
# Static dielectric constant tensor:
#      x y z
#    x 2.007030 0.000000 0.039100 
#    y 0.000000 1.993090 0.000000 
#    z 0.039100 0.000000 2.127150 
# 
# From -- ./inp_files/305498.got.cif
#   From: 2010.05.17/outbox.cif.g08.bks.cpg/sg15_153_cif.got.tgz:305498.got - 2010.06.03 18:47:42.
