data_PCOD9302909
_publ_section_title
;
Structure prediction by ZEFSAII (Michael W. Deem and Ramdas Pophale) SiO2 
 PCOD9302909
Probable space group: C 2/C
;
_chemical_formula_sum "Si O2"
_cell_formula_units_Z 52
_cell_length_a 17.275075
_cell_length_b 13.641900
_cell_length_c 10.757628
_cell_angle_alpha 90.000000
_cell_angle_beta 117.142766
_cell_angle_gamma 90.000000
_cell_volume 2256.000171
_symmetry_space_group_name_H-M "C 2/C"
_symmetry_group_IT_number 15
_symmetry_cell_setting 'monoclinic'
loop_
_space_group_symop_operation_xyz
x,y,z
-x,y,1/2-z
-x,-y,-z
x,-y,1/2+z
1/2+x,1/2+y,z
1/2-x,1/2+y,1/2-z
1/2-x,1/2-y,-z
1/2+x,1/2-y,1/2+z
loop_
_atom_site_type_symbol
_atom_site_label
_atom_site_fract_x
_atom_site_fract_y
_atom_site_fract_z
Si Si1 0.715808 0.684707 0.255714
Si Si2 0.822631 0.376420 0.422015
Si Si3 0.410338 0.546253 0.485221
Si Si4 0.611297 0.159456 0.256593
Si Si5 0.576539 0.942802 0.224070
Si Si6 0.500000 0.326574 0.250000
Si Si7 0.742138 0.439462 0.995583
O O1 0.716059 0.792451 0.195170
O O2 0.807505 0.645556 0.273177
O O3 0.716819 0.657359 0.400865
O O4 0.635333 0.623610 0.140254
O O5 0.850783 0.332818 0.575332
O O6 0.905996 0.408551 0.402594
O O7 0.761474 0.468913 0.413928
O O8 0.500000 0.500000 0.500000
O O9 0.435021 0.605716 0.626915
O O10 0.335704 0.469517 0.469677
O O11 0.552352 0.254432 0.196208
O O12 0.560796 0.058609 0.205753
O O13 0.500000 0.896338 0.250000
O O14 0.667310 0.929687 0.364773
#
# Coordination Sequence:
#
# PCOD9302909 Si02
#       7
#     8   8   8   8   8   4   8
#     4  12  23  44  70  98 136 187 223 287 346 407
#     4  11  22  43  68  96 138 175 232 282 338 410
#     4  12  25  45  68 102 142 181 229 287 343 411
#     4  11  22  40  70  98 130 175 237 279 337 404
#     4  11  24  43  69  99 139 177 225 287 347 400
#     4  12  24  40  68 108 126 182 240 278 334 416
#     4  11  24  45  72  99 139 186 226 285 352 408
#
# _framework density 23.049644000000001
#
# number of rings (size 3 to 8) (size 9 to 14) (size 15 to 20)
#    0.000    0.615    6.923    2.308    0.000    5.538 
#    2.769    0.000    0.000    0.000    0.000    0.000 
#    0.000    0.000    0.000    0.000    0.000    0.000 
#
# Total GULP energy -145356.686306 kJ/mol
# GULP energy per Si atom -5590.641781 kJ/mol
# Density = 2.299718 g / cm^3
# Si number density = 23.049644 Si / 1000 Ang^3
#
#
#
# Elastic Constant Matrix: (Units=GPa)
#
#
# Indices 1 2 3 4 5 6 
#
# 1 140.6511 -3.6713 -2.7217 0.0000 1.8263 0.0000
# 2 -3.6713 26.4188 13.8809 0.0000 -7.0385 0.0000
# 3 -2.7217 13.8809 74.7420 0.0000 12.7004 0.0000
# 4 0.0000 0.0000 0.0000 51.2101 0.0000 -8.0241
# 5 1.8263 -7.0385 12.7004 0.0000 31.3272 0.0000
# 6 0.0000 0.0000 0.0000 -8.0241 0.0000 32.1284
#
#
#
# Elastic Compliance Matrix: (Units=1/GPa)
#
#
# Indices 1 2 3 4 5 6 
#
# 1 0.007138 0.000833 0.000155 0.000000 -0.000292 0.000000
# 2 0.000833 0.048143 -0.011535 0.000000 0.015445 0.000000
# 3 0.000155 -0.011535 0.017151 0.000000 -0.009554 0.000000
# 4 0.000000 0.000000 0.000000 0.020323 0.000000 0.005076
# 5 -0.000292 0.015445 -0.009554 0.000000 0.039281 0.000000
# 6 0.000000 0.000000 0.000000 0.005076 0.000000 0.032393
#
#
# Mechanical properties :
#
#
# Convention : Reuss Voigt Hill
#
# Bulk Modulus (GPa) = 19.47900 28.53199 24.00549
# Shear Modulus (GPa) = 24.67477 38.55475 31.61476
#
# Velocity S-wave (km/s) = 3.27541 4.09428 3.70752
# Velocity P-wave (km/s) = 4.77217 5.89544 5.36329
#
# Compressibility (1/GPa) = 0.05133734
#
# Stress axis : x y z
#
# Youngs Moduli (GPa) = 140.08906 20.77140 58.30671
#
# Poissons Ratio (x) = -0.01730 -0.00903
# Poissons Ratio (y) = -0.11668 0.67257
# Poissons Ratio (z) = -0.02169 0.23960
#
# Static dielectric constant tensor:
#      x y z
#    x 1.955350 0.000000 -0.024530 
#    y 0.000000 1.926370 0.000000 
#    z -0.024530 0.000000 1.859820 
# 
# From -- ./inp_files/97104.got.cif
#   From: 2010.05.17/outbox.cif.g08.bks.cpg/sg15_49_cif.got.tgz:97104.got - 2010.06.03 18:47:42.
