data_PCOD9302075
_publ_section_title
;
Structure prediction by ZEFSAII (Michael W. Deem and Ramdas Pophale) SiO2 
 PCOD9302075
Probable space group: C 2/C
;
_chemical_formula_sum "Si O2"
_cell_formula_units_Z 60
_cell_length_a 12.183262
_cell_length_b 15.097813
_cell_length_c 16.815822
_cell_angle_alpha 90.000000
_cell_angle_beta 98.984210
_cell_angle_gamma 90.000000
_cell_volume 3055.164464
_symmetry_space_group_name_H-M "C 2/C"
_symmetry_group_IT_number 15
_symmetry_cell_setting 'monoclinic'
loop_
_space_group_symop_operation_xyz
x,y,z
-x,y,1/2-z
-x,-y,-z
x,-y,1/2+z
1/2+x,1/2+y,z
1/2-x,1/2+y,1/2-z
1/2-x,1/2-y,-z
1/2+x,1/2-y,1/2+z
loop_
_atom_site_type_symbol
_atom_site_label
_atom_site_fract_x
_atom_site_fract_y
_atom_site_fract_z
Si Si1 0.376166 0.473544 0.013758
Si Si2 0.900105 0.252999 0.957433
Si Si3 0.815287 0.146007 0.099686
Si Si4 0.626593 0.831084 0.787468
Si Si5 0.687827 0.472452 0.673576
Si Si6 0.500000 0.376818 0.750000
Si Si7 0.889612 0.155831 0.793123
Si Si8 0.129274 0.767398 0.454308
O O1 0.332035 0.544747 0.072516
O O2 0.376050 0.374512 0.048496
O O3 0.500000 0.500000 0.000000
O O4 0.310731 0.475999 0.922203
O O5 0.816025 0.327495 0.913931
O O6 0.914014 0.182110 0.887123
O O7 0.027581 0.273123 0.993284
O O8 0.854273 0.205887 0.030067
O O9 0.899246 0.164205 0.183636
O O10 0.500000 0.853265 0.750000
O O11 0.710284 0.911572 0.788604
O O12 0.667211 0.744596 0.744614
O O13 0.620478 0.789468 0.873769
O O14 0.572463 0.430320 0.692773
O O15 0.685373 0.569428 0.711822
O O16 0.000000 0.142679 0.750000
O O17 0.250000 0.750000 0.500000
#
# Coordination Sequence:
#
# PCOD9302075 Si02
#       8
#     8   8   8   8   8   4   8   8
#     4  12  22  42  66  96 128 171 225 274 328 396
#     4  11  22  45  65  97 134 177 224 270 351 399
#     4  11  25  39  70  98 137 174 217 290 336 399
#     4  11  25  42  66  93 134 178 217 275 340 400
#     4  12  23  40  68  98 130 166 226 279 328 395
#     4  12  24  36  62 110 126 162 226 284 334 380
#     4  11  21  41  71  96 126 174 231 273 330 400
#     4  12  23  41  68  95 126 171 225 277 330 406
#
# _framework density 19.638877999999998
#
# number of rings (size 3 to 8) (size 9 to 14) (size 15 to 20)
#    0.000    0.533    8.667    0.800    1.867    0.000 
#    0.000    0.667    8.800    0.000    0.000    0.000 
#    0.000    0.000    0.000    0.000    0.000    0.000 
#
# Total GULP energy -167122.997606 kJ/mol
# GULP energy per Si atom -5570.766587 kJ/mol
# Density = 1.959418 g / cm^3
# Si number density = 19.638878 Si / 1000 Ang^3
#
#
#
# Elastic Constant Matrix: (Units=GPa)
#
#
# Indices 1 2 3 4 5 6 
#
# 1 138.5708 75.5910 31.9523 0.0000 26.9388 0.0000
# 2 75.5910 132.4816 23.7169 0.0000 16.9123 0.0000
# 3 31.9523 23.7169 78.7116 0.0000 11.6991 0.0000
# 4 0.0000 0.0000 0.0000 25.0673 0.0000 -0.5099
# 5 26.9388 16.9123 11.6991 0.0000 34.6222 0.0000
# 6 0.0000 0.0000 0.0000 -0.5099 0.0000 34.4905
#
#
#
# Elastic Compliance Matrix: (Units=1/GPa)
#
#
# Indices 1 2 3 4 5 6 
#
# 1 0.011963 -0.005681 -0.002288 0.000000 -0.005760 0.000000
# 2 -0.005681 0.011039 -0.000922 0.000000 -0.000661 0.000000
# 3 -0.002288 -0.000922 0.014298 0.000000 -0.002600 0.000000
# 4 0.000000 0.000000 0.000000 0.039905 0.000000 0.000590
# 5 -0.005760 -0.000661 -0.002600 0.000000 0.034566 0.000000
# 6 0.000000 0.000000 0.000000 0.000590 0.000000 0.029002
#
#
# Mechanical properties :
#
#
# Convention : Reuss Voigt Hill
#
# Bulk Modulus (GPa) = 51.23636 68.03159 59.63398
# Shear Modulus (GPa) = 30.29192 33.40293 31.84742
#
# Velocity S-wave (km/s) = 3.93166 4.12862 4.03134
# Velocity P-wave (km/s) = 6.83787 7.57917 7.21804
#
# Compressibility (1/GPa) = 0.01951739
#
# Stress axis : x y z
#
# Youngs Moduli (GPa) = 83.59243 90.58862 69.94054
#
# Poissons Ratio (x) = 0.51461 0.16005
# Poissons Ratio (y) = 0.47487 0.06448
# Poissons Ratio (z) = 0.19129 0.08352
#
# Static dielectric constant tensor:
#      x y z
#    x 1.759150 0.000000 0.010840 
#    y 0.000000 1.693590 0.000000 
#    z 0.010840 0.000000 1.786300 
# 
# From -- ./inp_files/197903.got.cif
#   From: 2010.05.17/outbox.cif.g08.bks.cpg/sg15_99_cif.got.tgz:197903.got - 2010.06.03 18:47:42.
