data_PCOD9302174
_publ_section_title
;
Structure prediction by ZEFSAII (Michael W. Deem and Ramdas Pophale) SiO2 
 PCOD9302174
Probable space group: C 2/C
;
_chemical_formula_sum "Si O2"
_cell_formula_units_Z 40
_cell_length_a 16.248921
_cell_length_b 22.106563
_cell_length_c 9.376766
_cell_angle_alpha 90.000000
_cell_angle_beta 146.960426
_cell_angle_gamma 90.000000
_cell_volume 1836.407907
_symmetry_space_group_name_H-M "C 2/C"
_symmetry_group_IT_number 15
_symmetry_cell_setting 'monoclinic'
loop_
_space_group_symop_operation_xyz
x,y,z
-x,y,1/2-z
-x,-y,-z
x,-y,1/2+z
1/2+x,1/2+y,z
1/2-x,1/2+y,1/2-z
1/2-x,1/2-y,-z
1/2+x,1/2-y,1/2+z
loop_
_atom_site_type_symbol
_atom_site_label
_atom_site_fract_x
_atom_site_fract_y
_atom_site_fract_z
Si Si1 0.639638 0.045829 0.862816
Si Si2 0.650989 0.434376 0.323479
Si Si3 0.373055 0.885628 0.441902
Si Si4 0.814031 0.122525 0.340359
Si Si5 0.328983 0.248389 0.958444
O O1 0.500000 0.017107 0.750000
O O2 0.582689 0.080399 0.638991
O O3 0.706527 0.094262 0.068616
O O4 0.778826 0.999757 0.034235
O O5 0.725911 0.421076 0.282038
O O6 0.723019 0.391637 0.548872
O O7 0.476167 0.413341 0.061596
O O8 0.321311 0.815395 0.364863
O O9 0.500000 0.887142 0.750000
O O10 0.798825 0.194610 0.312997
O O11 0.500000 0.258322 0.250000
O O12 0.250000 0.250000 0.000000
#
# Coordination Sequence:
#
# PCOD9302174 Si02
#       5
#     8   8   8   8   8
#     4  12  27  42  64 103 142 174 230 293 338 404
#     4  11  22  44  66  97 135 184 224 275 348 416
#     4  11  24  41  70  99 134 188 226 277 350 409
#     4  11  23  43  70 100 134 181 229 283 342 406
#     4  11  21  42  72 101 134 181 232 276 340 421
#
# _framework density 21.781654
#
# number of rings (size 3 to 8) (size 9 to 14) (size 15 to 20)
#    0.000    0.800    4.000    3.600    2.800    5.600 
#    0.000    0.000    0.000    0.000    0.000    0.000 
#    0.000    0.000    0.000    0.000    0.000    0.000 
#
# Total GULP energy -111481.708599 kJ/mol
# GULP energy per Si atom -5574.085430 kJ/mol
# Density = 2.173208 g / cm^3
# Si number density = 21.781654 Si / 1000 Ang^3
#
#
#
# Elastic Constant Matrix: (Units=GPa)
#
#
# Indices 1 2 3 4 5 6 
#
# 1 111.4753 23.1166 27.4506 0.0000 15.0777 0.0000
# 2 23.1166 157.2227 30.2932 0.0000 -6.2443 0.0000
# 3 27.4506 30.2932 78.5077 0.0000 -2.9119 0.0000
# 4 0.0000 0.0000 0.0000 61.1286 0.0000 -43.1675
# 5 15.0777 -6.2443 -2.9119 0.0000 31.3089 0.0000
# 6 0.0000 0.0000 0.0000 -43.1675 0.0000 50.9766
#
#
#
# Elastic Compliance Matrix: (Units=1/GPa)
#
#
# Indices 1 2 3 4 5 6 
#
# 1 0.010871 -0.001139 -0.003577 0.000000 -0.005795 0.000000
# 2 -0.001139 0.007031 -0.002250 0.000000 0.001742 0.000000
# 3 -0.003577 -0.002250 0.014955 0.000000 0.002665 0.000000
# 4 0.000000 0.000000 0.000000 0.040693 0.000000 0.034460
# 5 -0.005795 0.001742 0.002665 0.000000 0.035326 0.000000
# 6 0.000000 0.000000 0.000000 0.034460 0.000000 0.048798
#
#
# Mechanical properties :
#
#
# Convention : Reuss Voigt Hill
#
# Bulk Modulus (GPa) = 52.83876 56.54739 54.69308
# Shear Modulus (GPa) = 28.10344 46.43918 37.27131
#
# Velocity S-wave (km/s) = 3.59588 4.62240 4.14107
# Velocity P-wave (km/s) = 6.44605 7.38283 6.93028
#
# Compressibility (1/GPa) = 0.01892550
#
# Stress axis : x y z
#
# Youngs Moduli (GPa) = 91.98390 142.23522 66.86681
#
# Poissons Ratio (x) = 0.16208 0.23915
# Poissons Ratio (y) = 0.10482 0.15044
# Poissons Ratio (z) = 0.32898 0.32000
#
# Static dielectric constant tensor:
#      x y z
#    x 1.886670 0.000000 0.079340 
#    y 0.000000 1.985870 0.000000 
#    z 0.079340 0.000000 1.762730 
# 
# From -- ./inp_files/42422.got.cif
#   From: 2010.05.17/outbox.cif.g08.bks.cpg/sg15_22_cif.got.tgz:42422.got - 2010.06.03 18:47:42.
