data_PCOD9302047
_publ_section_title
;
Structure prediction by ZEFSAII (Michael W. Deem and Ramdas Pophale) SiO2 
 PCOD9302047
Probable space group: C 2/C
;
_chemical_formula_sum "Si O2"
_cell_formula_units_Z 44
_cell_length_a 17.122256
_cell_length_b 17.256580
_cell_length_c 11.380173
_cell_angle_alpha 90.000000
_cell_angle_beta 139.784795
_cell_angle_gamma 90.000000
_cell_volume 2171.044387
_symmetry_space_group_name_H-M "C 2/C"
_symmetry_group_IT_number 15
_symmetry_cell_setting 'monoclinic'
loop_
_space_group_symop_operation_xyz
x,y,z
-x,y,1/2-z
-x,-y,-z
x,-y,1/2+z
1/2+x,1/2+y,z
1/2-x,1/2+y,1/2-z
1/2-x,1/2-y,-z
1/2+x,1/2-y,1/2+z
loop_
_atom_site_type_symbol
_atom_site_label
_atom_site_fract_x
_atom_site_fract_y
_atom_site_fract_z
Si Si1 0.577875 0.423488 0.132580
Si Si2 0.873379 0.208469 0.179462
Si Si3 0.893893 0.207410 0.479982
Si Si4 0.740115 0.089887 0.446327
Si Si5 0.000000 0.345730 0.750000
Si Si6 0.372003 0.444533 0.557323
O O1 0.691735 0.427697 0.350797
O O2 0.500000 0.500000 0.000000
O O3 0.495241 0.359737 0.099382
O O4 0.616928 0.394755 0.048549
O O5 0.881804 0.222757 0.327871
O O6 0.846492 0.116975 0.129128
O O7 0.000000 0.224838 0.250000
O O8 0.750000 0.250000 0.000000
O O9 0.787044 0.165878 0.430646
O O10 0.931396 0.286753 0.584339
O O11 0.599698 0.101792 0.303261
O O12 0.779325 0.012457 0.423326
O O13 0.500000 0.480307 0.750000
#
# Coordination Sequence:
#
# PCOD9302047 Si02
#       6
#     8   8   8   8   4   8
#     4  12  20  39  70  98 119 164 232 284 323 387
#     4  11  26  44  68 102 137 179 232 289 354 418
#     4  12  23  42  70  97 133 177 233 282 343 412
#     4  12  25  43  66 100 138 178 232 281 345 420
#     4  12  30  42  62 102 148 186 216 284 368 418
#     4  11  21  41  68  98 125 172 228 288 333 395
#
# _framework density 20.266743999999999
#
# number of rings (size 3 to 8) (size 9 to 14) (size 15 to 20)
#    0.000    0.364    9.091    0.545    5.091    0.000 
#    1.636    0.909    0.000    0.000    0.000    0.000 
#    0.000    0.000    0.000    0.000    0.000    0.000 
#
# Total GULP energy -122599.712443 kJ/mol
# GULP energy per Si atom -5572.714202 kJ/mol
# Density = 2.022062 g / cm^3
# Si number density = 20.266744 Si / 1000 Ang^3
#
#
#
# Elastic Constant Matrix: (Units=GPa)
#
#
# Indices 1 2 3 4 5 6 
#
# 1 111.4262 22.3912 46.6254 0.0000 12.6949 0.0000
# 2 22.3912 66.2429 11.8868 0.0000 26.1993 0.0000
# 3 46.6254 11.8868 50.8081 0.0000 -1.1477 0.0000
# 4 0.0000 0.0000 0.0000 7.6957 0.0000 5.5500
# 5 12.6949 26.1993 -1.1477 0.0000 53.2365 0.0000
# 6 0.0000 0.0000 0.0000 5.5500 0.0000 22.8251
#
#
#
# Elastic Compliance Matrix: (Units=1/GPa)
#
#
# Indices 1 2 3 4 5 6 
#
# 1 0.015466 -0.001428 -0.013933 0.000000 -0.003286 0.000000
# 2 -0.001428 0.020014 -0.003588 0.000000 -0.009586 0.000000
# 3 -0.013933 -0.003588 0.033438 0.000000 0.005809 0.000000
# 4 0.000000 0.000000 0.000000 0.157574 0.000000 -0.038315
# 5 -0.003286 -0.009586 0.005809 0.000000 0.024411 0.000000
# 6 0.000000 0.000000 0.000000 -0.038315 0.000000 0.053128
#
#
# Mechanical properties :
#
#
# Convention : Reuss Voigt Hill
#
# Bulk Modulus (GPa) = 32.23747 43.36489 37.80118
# Shear Modulus (GPa) = 14.19368 26.58974 20.39171
#
# Velocity S-wave (km/s) = 2.64927 3.62607 3.17545
# Velocity P-wave (km/s) = 5.02984 6.24297 5.66895
#
# Compressibility (1/GPa) = 0.03101980
#
# Stress axis : x y z
#
# Youngs Moduli (GPa) = 64.65820 49.96501 29.90572
#
# Poissons Ratio (x) = 0.07136 0.41667
# Poissons Ratio (y) = 0.09234 0.10731
# Poissons Ratio (z) = 0.90087 0.17929
#
# Static dielectric constant tensor:
#      x y z
#    x 1.832330 0.000000 -0.029710 
#    y 0.000000 1.739240 0.000000 
#    z -0.029710 0.000000 1.753560 
# 
# From -- ./inp_files/106783.got.cif
#   From: 2010.05.17/outbox.cif.g08.bks.cpg/sg15_54_cif.got.tgz:106783.got - 2010.06.03 18:47:42.
