data_PCOD9302571
_publ_section_title
;
Structure prediction by ZEFSAII (Michael W. Deem and Ramdas Pophale) SiO2 
 PCOD9302571
Probable space group: C 2/C
;
_chemical_formula_sum "Si O2"
_cell_formula_units_Z 52
_cell_length_a 22.919712
_cell_length_b 14.250832
_cell_length_c 7.949799
_cell_angle_alpha 90.000000
_cell_angle_beta 89.957195
_cell_angle_gamma 90.000000
_cell_volume 2596.602097
_symmetry_space_group_name_H-M "C 2/C"
_symmetry_group_IT_number 15
_symmetry_cell_setting 'monoclinic'
loop_
_space_group_symop_operation_xyz
x,y,z
-x,y,1/2-z
-x,-y,-z
x,-y,1/2+z
1/2+x,1/2+y,z
1/2-x,1/2+y,1/2-z
1/2-x,1/2-y,-z
1/2+x,1/2-y,1/2+z
loop_
_atom_site_type_symbol
_atom_site_label
_atom_site_fract_x
_atom_site_fract_y
_atom_site_fract_z
Si Si1 0.051693 0.922852 0.000705
Si Si2 0.793658 0.363806 0.376235
Si Si3 0.245550 0.537732 0.295211
Si Si4 0.122649 0.924530 0.672081
Si Si5 0.280890 0.773207 0.825228
Si Si6 0.000000 0.770627 0.250000
Si Si7 0.617786 0.250248 0.413532
O O1 0.029353 0.836570 0.108789
O O2 0.102992 0.977052 0.095070
O O3 0.076521 0.898113 0.817807
O O4 0.000000 0.000000 0.000000
O O5 0.785616 0.437688 0.224317
O O6 0.758994 0.423052 0.515927
O O7 0.763817 0.268321 0.313451
O O8 0.852429 0.329706 0.468560
O O9 0.313579 0.553579 0.252802
O O10 0.212279 0.615457 0.186158
O O11 0.119096 0.844752 0.527438
O O12 0.341681 0.733745 0.752482
O O13 0.250000 0.750000 0.000000
O O14 0.053893 0.722718 0.346629
#
# Coordination Sequence:
#
# PCOD9302571 Si02
#       7
#     8   8   8   8   8   4   8
#     4  12  23  36  56  90 135 181 225 256 321 407
#     4  11  22  42  62  97 130 169 217 274 339 401
#     4  11  22  38  64  91 129 173 205 272 349 396
#     4  12  21  38  60  91 134 178 210 271 330 413
#     4  11  23  41  63  97 130 168 219 275 344 411
#     4  12  26  40  60  92 132 194 224 274 330 386
#     4  11  24  42  61  89 137 171 228 275 324 405
#
# _framework density 20.026173
#
# number of rings (size 3 to 8) (size 9 to 14) (size 15 to 20)
#    0.000    0.615    6.154    2.769    4.308    0.000 
#    0.000    0.000    0.000    3.692    0.000    0.000 
#    0.000    0.000    0.000    0.000    0.000    0.000 
#
# Total GULP energy -144973.372569 kJ/mol
# GULP energy per Si atom -5575.898945 kJ/mol
# Density = 1.998059 g / cm^3
# Si number density = 20.026173 Si / 1000 Ang^3
#
#
#
# Elastic Constant Matrix: (Units=GPa)
#
#
# Indices 1 2 3 4 5 6 
#
# 1 126.0132 27.7140 40.7827 0.0000 10.8996 0.0000
# 2 27.7140 69.7201 16.9210 0.0000 6.2485 0.0000
# 3 40.7827 16.9210 107.7871 0.0000 -20.8197 0.0000
# 4 0.0000 0.0000 0.0000 29.0348 0.0000 4.3312
# 5 10.8996 6.2485 -20.8197 0.0000 36.3844 0.0000
# 6 0.0000 0.0000 0.0000 4.3312 0.0000 30.3429
#
#
#
# Elastic Compliance Matrix: (Units=1/GPa)
#
#
# Indices 1 2 3 4 5 6 
#
# 1 0.010437 -0.002565 -0.004571 0.000000 -0.005302 0.000000
# 2 -0.002565 0.016191 -0.002204 0.000000 -0.003273 0.000000
# 3 -0.004571 -0.002204 0.013143 0.000000 0.009268 0.000000
# 4 0.000000 0.000000 0.000000 0.035191 0.000000 -0.005023
# 5 -0.005302 -0.003273 0.009268 0.000000 0.034938 0.000000
# 6 0.000000 0.000000 0.000000 -0.005023 0.000000 0.033674
#
#
# Mechanical properties :
#
#
# Convention : Reuss Voigt Hill
#
# Bulk Modulus (GPa) = 47.40751 52.70619 50.05685
# Shear Modulus (GPa) = 29.53645 33.69260 31.61453
#
# Velocity S-wave (km/s) = 3.84460 4.10619 3.97755
# Velocity P-wave (km/s) = 6.59030 6.98977 6.79297
#
# Compressibility (1/GPa) = 0.02109370
#
# Stress axis : x y z
#
# Youngs Moduli (GPa) = 95.80847 61.76409 76.08576
#
# Poissons Ratio (x) = 0.15839 0.34776
# Poissons Ratio (y) = 0.24570 0.16766
# Poissons Ratio (z) = 0.43790 0.13610
#
# Static dielectric constant tensor:
#      x y z
#    x 1.773860 0.000000 0.005520 
#    y 0.000000 1.722470 0.000000 
#    z 0.005520 0.000000 1.811360 
# 
# From -- ./inp_files/55338.got.cif
#   From: 2010.05.17/outbox.cif.g08.bks.cpg/sg15_28_cif.got.tgz:55338.got - 2010.06.03 18:47:42.
