data_PCOD9302583
_publ_section_title
;
Structure prediction by ZEFSAII (Michael W. Deem and Ramdas Pophale) SiO2 
 PCOD9302583
Probable space group: C 2/C
;
_chemical_formula_sum "Si O2"
_cell_formula_units_Z 64
_cell_length_a 30.428174
_cell_length_b 12.669511
_cell_length_c 18.171117
_cell_angle_alpha 90.000000
_cell_angle_beta 151.531843
_cell_angle_gamma 90.000000
_cell_volume 3339.146204
_symmetry_space_group_name_H-M "C 2/C"
_symmetry_group_IT_number 15
_symmetry_cell_setting 'monoclinic'
loop_
_space_group_symop_operation_xyz
x,y,z
-x,y,1/2-z
-x,-y,-z
x,-y,1/2+z
1/2+x,1/2+y,z
1/2-x,1/2+y,1/2-z
1/2-x,1/2-y,-z
1/2+x,1/2-y,1/2+z
loop_
_atom_site_type_symbol
_atom_site_label
_atom_site_fract_x
_atom_site_fract_y
_atom_site_fract_z
Si Si1 0.508381 0.675799 0.351579
Si Si2 0.516886 0.436916 0.186549
Si Si3 0.355025 0.277030 0.937525
Si Si4 0.664724 0.163014 0.081397
Si Si5 0.166040 0.683331 0.907234
Si Si6 0.127850 0.486439 0.755137
Si Si7 0.921270 0.552454 0.979970
Si Si8 0.794462 0.831849 0.009470
O O1 0.500000 0.670956 0.250000
O O2 0.499413 0.555939 0.365864
O O3 0.601308 0.736541 0.510085
O O4 0.424934 0.752136 0.250171
O O5 0.500000 0.441658 0.250000
O O6 0.621379 0.397270 0.330424
O O7 0.442198 0.352628 0.048445
O O8 0.264863 0.322516 0.764223
O O9 0.376319 0.157793 0.945565
O O10 0.335989 0.280372 0.996947
O O11 0.615438 0.054433 0.034634
O O12 0.669742 0.168769 0.000358
O O13 0.163851 0.570693 0.866099
O O14 0.250000 0.750000 0.000000
O O15 0.104223 0.541865 0.643344
O O16 0.209726 0.405548 0.861125
O O17 0.032387 0.439968 0.646219
O O18 0.750000 0.750000 0.000000
#
# Coordination Sequence:
#
# PCOD9302583 Si02
#       8
#     8   8   8   8   8   8   8   8
#     4   9  19  38  61  88 124 161 206 256 314 383
#     4   9  20  39  62  88 122 166 212 258 317 384
#     4  11  24  41  64  91 126 171 216 261 326 386
#     4  11  23  41  64  95 126 167 212 262 329 383
#     4  11  22  38  65  99 125 162 208 266 323 383
#     4  11  23  42  67  93 132 168 219 268 325 382
#     4  11  24  42  65  94 131 173 214 271 322 389
#     4  11  23  41  63  93 127 172 220 266 319 383
#
# _framework density 19.166575999999999
#
# number of rings (size 3 to 8) (size 9 to 14) (size 15 to 20)
#    0.000    1.500    2.500    2.250    3.500    2.000 
#    0.000    0.000    0.000    3.000    0.000    0.000 
#    0.000    0.000    0.000    0.000    0.000    0.000 
#
# Total GULP energy -178718.489899 kJ/mol
# GULP energy per Si atom -5584.952809 kJ/mol
# Density = 1.912295 g / cm^3
# Si number density = 19.166576 Si / 1000 Ang^3
#
#
#
# Elastic Constant Matrix: (Units=GPa)
#
#
# Indices 1 2 3 4 5 6 
#
# 1 68.8470 21.9667 6.6891 0.0000 7.0049 0.0000
# 2 21.9667 94.3883 12.1411 0.0000 4.3159 0.0000
# 3 6.6891 12.1411 80.5017 0.0000 12.9391 0.0000
# 4 0.0000 0.0000 0.0000 22.8384 0.0000 8.6063
# 5 7.0049 4.3159 12.9391 0.0000 26.4667 0.0000
# 6 0.0000 0.0000 0.0000 8.6063 0.0000 33.6067
#
#
#
# Elastic Compliance Matrix: (Units=1/GPa)
#
#
# Indices 1 2 3 4 5 6 
#
# 1 0.016039 -0.003541 -0.000227 0.000000 -0.003557 0.000000
# 2 -0.003541 0.011613 -0.001415 0.000000 -0.000265 0.000000
# 3 -0.000227 -0.001415 0.013683 0.000000 -0.006398 0.000000
# 4 0.000000 0.000000 0.000000 0.048463 0.000000 -0.012411
# 5 -0.003557 -0.000265 -0.006398 0.000000 0.041896 0.000000
# 6 0.000000 0.000000 0.000000 -0.012411 0.000000 0.032934
#
#
# Mechanical properties :
#
#
# Convention : Reuss Voigt Hill
#
# Bulk Modulus (GPa) = 32.29020 36.14789 34.21905
# Shear Modulus (GPa) = 26.98111 30.11170 28.54641
#
# Velocity S-wave (km/s) = 3.75603 3.96795 3.86344
# Velocity P-wave (km/s) = 5.97445 6.31614 6.14767
#
# Compressibility (1/GPa) = 0.03096914
#
# Stress axis : x y z
#
# Youngs Moduli (GPa) = 62.34950 86.11306 73.08478
#
# Poissons Ratio (x) = 0.30491 0.01659
# Poissons Ratio (y) = 0.22077 0.10339
# Poissons Ratio (z) = 0.01416 0.12182
#
# Static dielectric constant tensor:
#      x y z
#    x 1.652380 0.000000 0.011990 
#    y 0.000000 1.650540 0.000000 
#    z 0.011990 0.000000 1.684890 
# 
# From -- ./inp_files/225212.got.cif
#   From: 2010.05.17/outbox.cif.g08.bks.cpg/sg15_113_cif.got.tgz:225212.got - 2010.06.03 18:47:42.
