data_PCOD9302409
_publ_section_title
;
Structure prediction by ZEFSAII (Michael W. Deem and Ramdas Pophale) SiO2 
 PCOD9302409
Probable space group: C 2/C
;
_chemical_formula_sum "Si O2"
_cell_formula_units_Z 64
_cell_length_a 13.306885
_cell_length_b 23.604213
_cell_length_c 10.901956
_cell_angle_alpha 90.000000
_cell_angle_beta 79.669064
_cell_angle_gamma 90.000000
_cell_volume 3368.775192
_symmetry_space_group_name_H-M "C 2/C"
_symmetry_group_IT_number 15
_symmetry_cell_setting 'monoclinic'
loop_
_space_group_symop_operation_xyz
x,y,z
-x,y,1/2-z
-x,-y,-z
x,-y,1/2+z
1/2+x,1/2+y,z
1/2-x,1/2+y,1/2-z
1/2-x,1/2-y,-z
1/2+x,1/2-y,1/2+z
loop_
_atom_site_type_symbol
_atom_site_label
_atom_site_fract_x
_atom_site_fract_y
_atom_site_fract_z
Si Si1 0.172553 0.340282 0.636287
Si Si2 0.628831 0.759252 0.034946
Si Si3 0.047234 0.234607 0.575958
Si Si4 0.099761 0.449156 0.793405
Si Si5 0.836477 0.234367 0.210149
Si Si6 0.660472 0.070668 0.776814
Si Si7 0.211321 0.839793 0.149081
Si Si8 0.446528 0.110346 0.940165
O O1 0.083531 0.294255 0.627957
O O2 0.137553 0.400443 0.693390
O O3 0.250014 0.313562 0.718116
O O4 0.234600 0.344071 0.496063
O O5 0.606035 0.733323 0.174043
O O6 0.585724 0.823659 0.046831
O O7 0.750000 0.750000 0.000000
O O8 0.571232 0.731870 0.931379
O O9 0.097823 0.231933 0.428716
O O10 0.100321 0.185713 0.644166
O O11 0.168273 0.504027 0.800512
O O12 0.000000 0.474614 0.750000
O O13 0.070999 0.418882 0.925909
O O14 0.775605 0.293381 0.210912
O O15 0.764939 0.101941 0.789072
O O16 0.564223 0.098915 0.873181
O O17 0.627114 0.082303 0.644755
#
# Coordination Sequence:
#
# PCOD9302409 Si02
#       8
#     8   8   8   8   8   8   8   8
#     4   9  19  33  54  80 111 146 179 236 277 325
#     4  12  22  33  53  85 119 143 177 236 297 340
#     4   9  19  34  57  79 108 153 188 222 280 342
#     4  12  22  33  50  81 121 147 184 233 287 335
#     4   9  17  33  55  78 107 150 189 220 272 344
#     4  11  22  35  56  76 107 161 192 223 266 344
#     4   9  17  35  55  75 105 146 197 219 259 341
#     4  11  23  36  51  80 115 151 186 228 284 337
#
# _framework density 18.998003000000001
#
# number of rings (size 3 to 8) (size 9 to 14) (size 15 to 20)
#    0.000    1.750    2.500    6.000    3.500    0.000 
#    0.000    1.875    0.000    0.000    0.000    3.500 
#    7.500    0.000    0.000    0.000    0.000    0.000 
#
# Total GULP energy -178663.385071 kJ/mol
# GULP energy per Si atom -5583.230783 kJ/mol
# Density = 1.895476 g / cm^3
# Si number density = 18.998003 Si / 1000 Ang^3
#
#
#
# Elastic Constant Matrix: (Units=GPa)
#
#
# Indices 1 2 3 4 5 6 
#
# 1 107.0135 42.8924 29.7855 0.0000 19.2556 0.0000
# 2 42.8924 97.9948 13.5438 0.0000 13.2770 0.0000
# 3 29.7855 13.5438 75.4169 0.0000 11.5960 0.0000
# 4 0.0000 0.0000 0.0000 12.4792 0.0000 -1.1938
# 5 19.2556 13.2770 11.5960 0.0000 32.7851 0.0000
# 6 0.0000 0.0000 0.0000 -1.1938 0.0000 16.3375
#
#
#
# Elastic Compliance Matrix: (Units=1/GPa)
#
#
# Indices 1 2 3 4 5 6 
#
# 1 0.012997 -0.004579 -0.003619 0.000000 -0.004499 0.000000
# 2 -0.004579 0.012540 -0.000081 0.000000 -0.002360 0.000000
# 3 -0.003619 -0.000081 0.015198 0.000000 -0.003217 0.000000
# 4 0.000000 0.000000 0.000000 0.080697 0.000000 0.005896
# 5 -0.004499 -0.002360 -0.003217 0.000000 0.035238 0.000000
# 6 0.000000 0.000000 0.000000 0.005896 0.000000 0.061640
#
#
# Mechanical properties :
#
#
# Convention : Reuss Voigt Hill
#
# Bulk Modulus (GPa) = 41.36053 50.31872 45.83963
# Shear Modulus (GPa) = 20.58246 25.26727 22.92487
#
# Velocity S-wave (km/s) = 3.29508 3.65087 3.47753
# Velocity P-wave (km/s) = 6.02453 6.65700 6.34864
#
# Compressibility (1/GPa) = 0.02417764
#
# Stress axis : x y z
#
# Youngs Moduli (GPa) = 76.94255 79.74624 65.79784
#
# Poissons Ratio (x) = 0.36515 0.23812
# Poissons Ratio (y) = 0.35232 0.00530
# Poissons Ratio (z) = 0.27845 0.00643
#
# Static dielectric constant tensor:
#      x y z
#    x 1.704560 0.000000 -0.024280 
#    y 0.000000 1.669010 0.000000 
#    z -0.024280 0.000000 1.712870 
# 
# From -- ./inp_files/90799.got.cif
#   From: 2010.05.17/outbox.cif.g08.bks.cpg/sg15_46_cif.got.tgz:90799.got - 2010.06.03 18:47:42.
