data_PCOD9302100
_publ_section_title
;
Structure prediction by ZEFSAII (Michael W. Deem and Ramdas Pophale) SiO2 
 PCOD9302100
Probable space group: C 2/C
;
_chemical_formula_sum "Si O2"
_cell_formula_units_Z 60
_cell_length_a 22.695315
_cell_length_b 15.200435
_cell_length_c 16.931199
_cell_angle_alpha 90.000000
_cell_angle_beta 151.626980
_cell_angle_gamma 90.000000
_cell_volume 2775.654849
_symmetry_space_group_name_H-M "C 2/C"
_symmetry_group_IT_number 15
_symmetry_cell_setting 'monoclinic'
loop_
_space_group_symop_operation_xyz
x,y,z
-x,y,1/2-z
-x,-y,-z
x,-y,1/2+z
1/2+x,1/2+y,z
1/2-x,1/2+y,1/2-z
1/2-x,1/2-y,-z
1/2+x,1/2-y,1/2+z
loop_
_atom_site_type_symbol
_atom_site_label
_atom_site_fract_x
_atom_site_fract_y
_atom_site_fract_z
Si Si1 0.402189 0.637110 0.545043
Si Si2 0.000000 0.286958 0.750000
Si Si3 0.308780 0.919366 0.578670
Si Si4 0.506780 0.916762 0.563949
Si Si5 0.303092 0.180024 0.318343
Si Si6 0.971745 0.055891 0.127769
Si Si7 0.792454 0.041688 0.177839
Si Si8 0.278495 0.612984 0.785755
O O1 0.486461 0.721073 0.661110
O O2 0.302527 0.618477 0.498301
O O3 0.324579 0.654047 0.375619
O O4 0.482248 0.549582 0.636349
O O5 0.874964 0.342929 0.606426
O O6 0.421360 0.942342 0.771459
O O7 0.265519 0.996715 0.469351
O O8 0.589614 0.848085 0.614768
O O9 0.366881 0.885391 0.404608
O O10 0.500000 0.000000 0.500000
O O11 0.297121 0.114496 0.387051
O O12 0.314730 0.284841 0.336319
O O13 0.000000 0.085185 0.250000
O O14 0.079118 0.088590 0.196011
O O15 0.833946 0.074964 0.933336
O O16 0.821815 0.960360 0.272484
#
# Coordination Sequence:
#
# PCOD9302100 Si02
#       8
#     8   4   8   8   8   8   8   8
#     4  11  21  42  62  97 137 179 220 277 359 408
#     4  12  22  34  66 106 136 170 222 292 344 426
#     4  11  23  39  64 102 136 175 228 280 353 412
#     4  11  23  46  69  97 147 185 225 290 352 415
#     4  11  26  42  71 104 137 187 229 287 350 413
#     4  12  25  47  72  95 140 187 230 287 343 411
#     4  12  24  44  71 104 138 182 233 287 346 419
#     4  12  26  46  71 106 139 182 237 285 350 419
#
# _framework density 21.616520000000001
#
# number of rings (size 3 to 8) (size 9 to 14) (size 15 to 20)
#    0.000    0.533    4.667    4.000    1.867    3.200 
#    0.000    2.000    0.000    0.000    0.000    0.000 
#    0.000    0.000    0.000    0.000    0.000    0.000 
#
# Total GULP energy -167508.598456 kJ/mol
# GULP energy per Si atom -5583.619949 kJ/mol
# Density = 2.156732 g / cm^3
# Si number density = 21.616520 Si / 1000 Ang^3
#
#
#
# Elastic Constant Matrix: (Units=GPa)
#
#
# Indices 1 2 3 4 5 6 
#
# 1 73.2961 17.3474 19.6105 0.0000 -7.1475 0.0000
# 2 17.3474 97.8449 10.7324 0.0000 -16.0950 0.0000
# 3 19.6105 10.7324 116.7816 0.0000 -18.2759 0.0000
# 4 0.0000 0.0000 0.0000 31.1684 0.0000 -5.0239
# 5 -7.1475 -16.0950 -18.2759 0.0000 31.4263 0.0000
# 6 0.0000 0.0000 0.0000 -5.0239 0.0000 20.8826
#
#
#
# Elastic Compliance Matrix: (Units=1/GPa)
#
#
# Indices 1 2 3 4 5 6 
#
# 1 0.014839 -0.002234 -0.002131 0.000000 0.000991 0.000000
# 2 -0.002234 0.011499 0.000177 0.000000 0.005484 0.000000
# 3 -0.002131 0.000177 0.009728 0.000000 0.005263 0.000000
# 4 0.000000 0.000000 0.000000 0.033378 0.000000 0.008030
# 5 0.000991 0.005484 0.005263 0.000000 0.037915 0.000000
# 6 0.000000 0.000000 0.000000 0.008030 0.000000 0.049819
#
#
# Mechanical properties :
#
#
# Convention : Reuss Voigt Hill
#
# Bulk Modulus (GPa) = 36.11589 42.58923 39.35256
# Shear Modulus (GPa) = 28.60647 32.71095 30.65871
#
# Velocity S-wave (km/s) = 3.64175 3.89426 3.77012
# Velocity P-wave (km/s) = 5.86745 6.32181 6.09886
#
# Compressibility (1/GPa) = 0.02768865
#
# Stress axis : x y z
#
# Youngs Moduli (GPa) = 67.39020 86.96393 102.79241
#
# Poissons Ratio (x) = 0.19428 0.21909
# Poissons Ratio (y) = 0.15055 -0.01815
# Poissons Ratio (z) = 0.14363 -0.01536
#
# Static dielectric constant tensor:
#      x y z
#    x 1.824290 0.000000 -0.017790 
#    y 0.000000 1.875460 0.000000 
#    z -0.017790 0.000000 1.790770 
# 
# From -- ./inp_files/219613.got.cif
#   From: 2010.05.17/outbox.cif.g08.bks.cpg/sg15_110_cif.got.tgz:219613.got - 2010.06.03 18:47:42.
