data_PCOD9302264
_publ_section_title
;
Structure prediction by ZEFSAII (Michael W. Deem and Ramdas Pophale) SiO2 
 PCOD9302264
Probable space group: C 2/C
;
_chemical_formula_sum "Si O2"
_cell_formula_units_Z 48
_cell_length_a 24.077708
_cell_length_b 8.245068
_cell_length_c 19.019682
_cell_angle_alpha 90.000000
_cell_angle_beta 145.812371
_cell_angle_gamma 90.000000
_cell_volume 2121.657943
_symmetry_space_group_name_H-M "C 2/C"
_symmetry_group_IT_number 15
_symmetry_cell_setting 'monoclinic'
loop_
_space_group_symop_operation_xyz
x,y,z
-x,y,1/2-z
-x,-y,-z
x,-y,1/2+z
1/2+x,1/2+y,z
1/2-x,1/2+y,1/2-z
1/2-x,1/2-y,-z
1/2+x,1/2-y,1/2+z
loop_
_atom_site_type_symbol
_atom_site_label
_atom_site_fract_x
_atom_site_fract_y
_atom_site_fract_z
Si Si1 0.511897 0.264307 0.555564
Si Si2 0.039351 0.401450 0.637781
Si Si3 0.817125 0.838699 0.415602
Si Si4 0.177524 0.649284 0.524216
Si Si5 0.791216 0.030322 0.254337
Si Si6 0.224892 0.539607 0.427555
O O1 0.459573 0.226915 0.425586
O O2 0.434832 0.332844 0.531651
O O3 0.601327 0.389621 0.641818
O O4 0.546373 0.084967 0.614708
O O5 0.931746 0.377501 0.560374
O O6 0.125540 0.396055 0.785446
O O7 0.782849 0.670005 0.347257
O O8 0.780679 0.977234 0.323523
O O9 0.766121 0.877346 0.435383
O O10 0.256086 0.617575 0.668541
O O11 0.203495 0.529243 0.487361
O O12 0.192798 0.825032 0.505293
#
# Coordination Sequence:
#
# PCOD9302264 Si02
#       6
#     8   8   8   8   8   8
#     4  11  23  38  65  99 129 167 218 266 328 379
#     4  11  21  44  65  95 129 171 215 268 326 390
#     4  12  23  40  65  98 132 169 216 274 324 385
#     4  11  25  44  67  94 131 176 219 269 329 395
#     4  12  23  40  65  98 132 169 216 274 324 385
#     4  11  25  44  67  94 131 176 219 269 329 395
#
# _framework density 22.623816000000001
#
# number of rings (size 3 to 8) (size 9 to 14) (size 15 to 20)
#    0.000    0.667    3.333    6.000    0.000    2.000 
#    0.000    2.500    0.000    0.000    0.000    0.000 
#    0.000    0.000    0.000    0.000    0.000    0.000 
#
# Total GULP energy -134295.934489 kJ/mol
# GULP energy per Si atom -5595.663937 kJ/mol
# Density = 2.257232 g / cm^3
# Si number density = 22.623816 Si / 1000 Ang^3
#
#
#
# Elastic Constant Matrix: (Units=GPa)
#
#
# Indices 1 2 3 4 5 6 
#
# 1 81.1516 -1.4880 32.7700 0.0000 9.8193 0.0000
# 2 -1.4880 53.8392 -10.9010 0.0000 8.8509 0.0000
# 3 32.7700 -10.9010 57.4231 0.0000 11.1450 0.0000
# 4 0.0000 0.0000 0.0000 31.4714 0.0000 1.7513
# 5 9.8193 8.8509 11.1450 0.0000 33.2195 0.0000
# 6 0.0000 0.0000 0.0000 1.7513 0.0000 29.2259
#
#
#
# Elastic Compliance Matrix: (Units=1/GPa)
#
#
# Indices 1 2 3 4 5 6 
#
# 1 0.016179 -0.001186 -0.009190 0.000000 -0.001383 0.000000
# 2 -0.001186 0.020965 0.006068 0.000000 -0.007271 0.000000
# 3 -0.009190 0.006068 0.025241 0.000000 -0.007369 0.000000
# 4 0.000000 0.000000 0.000000 0.031881 0.000000 -0.001910
# 5 -0.001383 -0.007271 -0.007369 0.000000 0.034921 0.000000
# 6 0.000000 0.000000 0.000000 -0.001910 0.000000 0.034331
#
#
# Mechanical properties :
#
#
# Convention : Reuss Voigt Hill
#
# Bulk Modulus (GPa) = 18.59794 25.90845 22.25320
# Shear Modulus (GPa) = 26.30788 30.25222 28.28005
#
# Velocity S-wave (km/s) = 3.41374 3.66072 3.53939
# Velocity P-wave (km/s) = 4.87612 5.41706 5.15369
#
# Compressibility (1/GPa) = 0.05376939
#
# Stress axis : x y z
#
# Youngs Moduli (GPa) = 61.80783 47.69862 39.61797
#
# Poissons Ratio (x) = 0.05658 0.36408
# Poissons Ratio (y) = 0.07331 -0.24040
# Poissons Ratio (z) = 0.56800 -0.28944
#
# Static dielectric constant tensor:
#      x y z
#    x 1.819950 0.000000 0.009090 
#    y 0.000000 1.891910 0.000000 
#    z 0.009090 0.000000 1.833180 
# 
# From -- ./inp_files/257254.got.cif
#   From: 2010.05.17/outbox.cif.g08.bks.cpg/sg15_129_cif.got.tgz:257254.got - 2010.06.03 18:47:42.
