data_PCOD9302513
_publ_section_title
;
Structure prediction by ZEFSAII (Michael W. Deem and Ramdas Pophale) SiO2 
 PCOD9302513
Probable space group: C 2/C
;
_chemical_formula_sum "Si O2"
_cell_formula_units_Z 56
_cell_length_a 14.019690
_cell_length_b 13.926169
_cell_length_c 11.858413
_cell_angle_alpha 90.000000
_cell_angle_beta 90.920722
_cell_angle_gamma 90.000000
_cell_volume 2314.944411
_symmetry_space_group_name_H-M "C 2/C"
_symmetry_group_IT_number 15
_symmetry_cell_setting 'monoclinic'
loop_
_space_group_symop_operation_xyz
x,y,z
-x,y,1/2-z
-x,-y,-z
x,-y,1/2+z
1/2+x,1/2+y,z
1/2-x,1/2+y,1/2-z
1/2-x,1/2-y,-z
1/2+x,1/2-y,1/2+z
loop_
_atom_site_type_symbol
_atom_site_label
_atom_site_fract_x
_atom_site_fract_y
_atom_site_fract_z
Si Si1 0.374373 0.187503 0.585809
Si Si2 0.308806 0.595165 0.553483
Si Si3 0.834909 0.878465 0.492142
Si Si4 0.893807 0.793961 0.258646
Si Si5 0.849564 0.458997 0.282753
Si Si6 0.498475 0.087554 0.414787
Si Si7 0.711478 0.129607 0.335686
O O1 0.276354 0.144900 0.532887
O O2 0.367334 0.302584 0.588723
O O3 0.388748 0.122761 0.698453
O O4 0.450832 0.169394 0.488931
O O5 0.344287 0.488223 0.526984
O O6 0.376204 0.645929 0.644782
O O7 0.206251 0.586545 0.614484
O O8 0.287625 0.648401 0.434973
O O9 0.883763 0.853473 0.373060
O O10 0.808786 0.715388 0.251479
O O11 0.000000 0.750110 0.250000
O O12 0.925985 0.539123 0.323306
O O13 0.770524 0.525892 0.219104
O O14 0.606182 0.114357 0.387680
O O15 0.500000 0.000000 0.500000
#
# Coordination Sequence:
#
# PCOD9302513 Si02
#       7
#     8   8   8   8   8   8   8
#     4  11  22  37  64  96 136 179 213 265 333 409
#     4  12  24  44  69  96 133 173 230 277 322 397
#     4  11  23  45  64  95 131 178 225 270 329 401
#     4  12  27  46  70  93 129 179 226 277 340 391
#     4  12  20  37  63 100 136 176 212 261 340 393
#     4  12  21  37  63  98 146 171 209 274 341 396
#     4  12  24  40  65 106 133 170 217 277 336 407
#
# _framework density 24.190646000000001
#
# number of rings (size 3 to 8) (size 9 to 14) (size 15 to 20)
#    0.000    0.286    7.143    3.429    2.000    0.571 
#    0.000    0.000    3.143    0.000    0.000    0.000 
#    0.000    0.000    0.000    0.000    0.000    0.000 
#
# Total GULP energy -156547.681524 kJ/mol
# GULP energy per Si atom -5590.988626 kJ/mol
# Density = 2.413559 g / cm^3
# Si number density = 24.190646 Si / 1000 Ang^3
#
#
#
# Elastic Constant Matrix: (Units=GPa)
#
#
# Indices 1 2 3 4 5 6 
#
# 1 35.3224 5.4766 15.2946 0.0000 -2.2656 0.0000
# 2 5.4766 114.1628 42.6298 0.0000 31.5773 0.0000
# 3 15.2946 42.6298 122.1827 0.0000 13.9585 0.0000
# 4 0.0000 0.0000 0.0000 30.9989 0.0000 4.3175
# 5 -2.2656 31.5773 13.9585 0.0000 30.8894 0.0000
# 6 0.0000 0.0000 0.0000 4.3175 0.0000 25.8281
#
#
#
# Elastic Compliance Matrix: (Units=1/GPa)
#
#
# Indices 1 2 3 4 5 6 
#
# 1 0.030613 -0.001552 -0.003931 0.000000 0.005608 0.000000
# 2 -0.001552 0.013422 -0.003067 0.000000 -0.012449 0.000000
# 3 -0.003931 -0.003067 0.009934 0.000000 -0.001643 0.000000
# 4 0.000000 0.000000 0.000000 0.033028 0.000000 -0.005521
# 5 0.005608 -0.012449 -0.001643 0.000000 0.046254 0.000000
# 6 0.000000 0.000000 0.000000 -0.005521 0.000000 0.039641
#
#
# Mechanical properties :
#
#
# Convention : Reuss Voigt Hill
#
# Bulk Modulus (GPa) = 27.12205 44.27444 35.69825
# Shear Modulus (GPa) = 24.71794 31.42773 28.07284
#
# Velocity S-wave (km/s) = 3.20002 3.60831 3.41028
# Velocity P-wave (km/s) = 4.98896 5.97511 5.50416
#
# Compressibility (1/GPa) = 0.03687037
#
# Stress axis : x y z
#
# Youngs Moduli (GPa) = 32.66558 74.50183 100.66237
#
# Poissons Ratio (x) = 0.11561 0.39574
# Poissons Ratio (y) = 0.05069 0.30869
# Poissons Ratio (z) = 0.12842 0.22847
#
# Static dielectric constant tensor:
#      x y z
#    x 1.884630 0.000000 0.103170 
#    y 0.000000 2.007990 0.000000 
#    z 0.103170 0.000000 2.005120 
# 
# From -- ./inp_files/97056.got.cif
#   From: 2010.05.17/outbox.cif.g08.bks.cpg/sg15_49_cif.got.tgz:97056.got - 2010.06.03 18:47:42.
