data_PCOD9302336
_publ_section_title
;
Structure prediction by ZEFSAII (Michael W. Deem and Ramdas Pophale) SiO2 
 PCOD9302336
Probable space group: C 2/C
;
_chemical_formula_sum "Si O2"
_cell_formula_units_Z 40
_cell_length_a 35.163356
_cell_length_b 4.933207
_cell_length_c 13.397731
_cell_angle_alpha 90.000000
_cell_angle_beta 41.510006
_cell_angle_gamma 90.000000
_cell_volume 1540.285380
_symmetry_space_group_name_H-M "C 2/C"
_symmetry_group_IT_number 15
_symmetry_cell_setting 'monoclinic'
loop_
_space_group_symop_operation_xyz
x,y,z
-x,y,1/2-z
-x,-y,-z
x,-y,1/2+z
1/2+x,1/2+y,z
1/2-x,1/2+y,1/2-z
1/2-x,1/2-y,-z
1/2+x,1/2-y,1/2+z
loop_
_atom_site_type_symbol
_atom_site_label
_atom_site_fract_x
_atom_site_fract_y
_atom_site_fract_z
Si Si1 0.602751 0.066128 0.446658
Si Si2 0.796298 0.249363 0.496161
Si Si3 0.085548 0.095120 0.346909
Si Si4 0.175465 0.245075 0.436718
Si Si5 0.054916 0.971043 0.699859
O O1 0.603554 0.321657 0.369470
O O2 0.575488 0.204241 0.598589
O O3 0.569155 0.829852 0.456051
O O4 0.662715 0.914663 0.359768
O O5 0.750000 0.250000 0.500000
O O6 0.856820 0.193304 0.323480
O O7 0.797906 0.544893 0.539700
O O8 0.793374 0.038356 0.596343
O O9 0.041623 0.075145 0.341541
O O10 0.109132 0.169221 0.590188
O O11 0.000000 0.073349 0.750000
#
# Coordination Sequence:
#
# PCOD9302336 Si02
#       5
#     8   8   8   8   8
#     4  12  23  45  69 101 142 180 231 283 346 410
#     4  11  23  44  76 100 134 184 233 282 355 412
#     4  11  24  43  71  97 140 183 225 291 347 402
#     4  11  21  46  66  97 145 173 224 292 333 401
#     4  11  26  46  72 101 141 185 230 287 345 410
#
# _framework density 25.969214999999998
#
# number of rings (size 3 to 8) (size 9 to 14) (size 15 to 20)
#    0.000    0.800    6.000    3.000    0.000    2.400 
#    0.000    4.000    4.400    0.000    0.000    0.000 
#    0.000    0.000    0.000    0.000    0.000    0.000 
#
# Total GULP energy -111827.489456 kJ/mol
# GULP energy per Si atom -5591.374473 kJ/mol
# Density = 2.591011 g / cm^3
# Si number density = 25.969215 Si / 1000 Ang^3
#
#
#
# Elastic Constant Matrix: (Units=GPa)
#
#
# Indices 1 2 3 4 5 6 
#
# 1 159.4281 19.5243 21.0714 0.0076 29.5541 0.0269
# 2 19.5243 141.5813 14.2125 -0.0121 21.7057 -0.0296
# 3 21.0714 14.2125 79.6767 -0.0017 23.9232 0.0007
# 4 0.0076 -0.0121 -0.0017 -3.2398 -0.0010 2.1244
# 5 29.5541 21.7057 23.9232 -0.0010 41.4658 -0.0058
# 6 0.0269 -0.0296 0.0007 2.1244 -0.0058 48.1394
#
#
#
# Elastic Compliance Matrix: (Units=1/GPa)
#
#
# Indices 1 2 3 4 5 6 
#
# 1 0.007246 -0.000220 -0.000437 0.000016 -0.004798 -0.000005
# 2 -0.000220 0.007689 -0.000184 -0.000024 -0.003762 0.000005
# 3 -0.000437 -0.000184 0.015212 -0.000006 -0.008369 -0.000001
# 4 0.000016 -0.000024 -0.000006 -0.299980 0.000000 0.013238
# 5 -0.004798 -0.003762 -0.008369 0.000000 0.034333 0.000005
# 6 -0.000005 0.000005 -0.000001 0.013238 0.000005 0.020189
#
#
# Mechanical properties :
#
#
# Convention : Reuss Voigt Hill
#
# Bulk Modulus (GPa) = 35.12952 54.47806 44.80379
# Shear Modulus (GPa) = -24.49282 38.99827 7.25272
#
# Velocity S-wave (km/s) = -3.07440 3.87940 1.67299
# Velocity P-wave (km/s) = 0.97679 6.41013 4.58497
#
# Compressibility (1/GPa) = 0.02846609
#
# Stress axis : x y z
#
# Youngs Moduli (GPa) = 137.99858 130.06287 65.73874
#
# Poissons Ratio (x) = 0.02860 0.02870
# Poissons Ratio (y) = 0.03035 0.01208
# Poissons Ratio (z) = 0.06025 0.02390
#
# Static dielectric constant tensor:
#      x y z
#    x 2.096520 0.000000 0.055740 
#    y 0.000000 2.004850 0.000000 
#    z 0.055740 0.000000 2.140720 
# 
# From -- ./inp_files/179592.got.cif
#   From: 2010.05.17/outbox.cif.g08.bks.cpg/sg15_90_cif.got.tgz:179592.got - 2010.06.03 18:47:42.
