data_PCOD9302186
_publ_section_title
;
Structure prediction by ZEFSAII (Michael W. Deem and Ramdas Pophale) SiO2 
 PCOD9302186
Probable space group: C 2/C
;
_chemical_formula_sum "Si O2"
_cell_formula_units_Z 52
_cell_length_a 15.936530
_cell_length_b 6.607847
_cell_length_c 29.650596
_cell_angle_alpha 90.000000
_cell_angle_beta 120.101151
_cell_angle_gamma 90.000000
_cell_volume 2701.308832
_symmetry_space_group_name_H-M "C 2/C"
_symmetry_group_IT_number 15
_symmetry_cell_setting 'monoclinic'
loop_
_space_group_symop_operation_xyz
x,y,z
-x,y,1/2-z
-x,-y,-z
x,-y,1/2+z
1/2+x,1/2+y,z
1/2-x,1/2+y,1/2-z
1/2-x,1/2-y,-z
1/2+x,1/2-y,1/2+z
loop_
_atom_site_type_symbol
_atom_site_label
_atom_site_fract_x
_atom_site_fract_y
_atom_site_fract_z
Si Si1 0.324417 0.411748 0.997821
Si Si2 0.546681 0.429881 0.703285
Si Si3 0.629990 0.181439 0.802759
Si Si4 0.685922 0.300861 0.085504
Si Si5 0.521900 0.449046 0.592255
Si Si6 0.086137 0.607153 0.548960
Si Si7 0.000000 0.694561 0.250000
O O1 0.289159 0.601958 0.957026
O O2 0.374663 0.277141 0.973296
O O3 0.250000 0.250000 0.000000
O O4 0.409216 0.490584 0.054166
O O5 0.626241 0.303761 0.754014
O O6 0.447741 0.307004 0.688137
O O7 0.556495 0.451450 0.652918
O O8 0.533444 0.653213 0.720030
O O9 0.729529 0.164757 0.855831
O O10 0.586674 0.957746 0.785139
O O11 0.587979 0.400967 0.079678
O O12 0.666822 0.061921 0.078303
O O13 0.543069 0.223090 0.580132
O O14 0.000000 0.500000 0.500000
#
# Coordination Sequence:
#
# PCOD9302186 Si02
#       7
#     8   8   8   8   8   8   4
#     4  11  25  38  61  96 119 154 212 251 303 373
#     4   9  21  39  61  89 118 156 203 250 296 362
#     4   9  21  40  60  91 116 158 208 242 303 361
#     4  11  23  41  62  87 124 164 197 253 310 361
#     4  11  23  40  60  90 123 160 202 250 309 368
#     4  11  21  43  60  81 129 162 191 245 307 367
#     4   8  18  40  64  80 128 152 194 264 304 348
#
# _framework density 19.249928000000001
#
# number of rings (size 3 to 8) (size 9 to 14) (size 15 to 20)
#    0.000    2.154    3.077    0.923    4.308    8.000 
#    5.538    0.000    0.000    0.000    0.000    0.000 
#    0.000    0.000    0.000    0.000    0.000    0.000 
#
# Total GULP energy -144899.177494 kJ/mol
# GULP energy per Si atom -5573.045288 kJ/mol
# Density = 1.920611 g / cm^3
# Si number density = 19.249928 Si / 1000 Ang^3
#
#
#
# Elastic Constant Matrix: (Units=GPa)
#
#
# Indices 1 2 3 4 5 6 
#
# 1 37.3138 7.3041 25.1397 0.0000 7.7335 0.0000
# 2 7.3041 114.3520 28.4048 0.0000 6.8974 0.0000
# 3 25.1397 28.4048 110.6066 0.0000 12.2723 0.0000
# 4 0.0000 0.0000 0.0000 9.9625 0.0000 -0.5341
# 5 7.7335 6.8974 12.2723 0.0000 39.1943 0.0000
# 6 0.0000 0.0000 0.0000 -0.5341 0.0000 19.6626
#
#
#
# Elastic Compliance Matrix: (Units=1/GPa)
#
#
# Indices 1 2 3 4 5 6 
#
# 1 0.032308 -0.000109 -0.006848 0.000000 -0.004211 0.000000
# 2 -0.000109 0.009374 -0.002281 0.000000 -0.000914 0.000000
# 3 -0.006848 -0.002281 0.011384 0.000000 -0.001812 0.000000
# 4 0.000000 0.000000 0.000000 0.100522 0.000000 0.002730
# 5 -0.004211 -0.000914 -0.001812 0.000000 0.027073 0.000000
# 6 0.000000 0.000000 0.000000 0.002730 0.000000 0.050932
#
#
# Mechanical properties :
#
#
# Convention : Reuss Voigt Hill
#
# Bulk Modulus (GPa) = 28.90998 42.66329 35.78664
# Shear Modulus (GPa) = 19.11324 27.19213 23.15269
#
# Velocity S-wave (km/s) = 3.15445 3.76251 3.47182
# Velocity P-wave (km/s) = 5.32149 6.40986 5.89086
#
# Compressibility (1/GPa) = 0.03459013
#
# Stress axis : x y z
#
# Youngs Moduli (GPa) = 30.95246 106.68242 87.83946
#
# Poissons Ratio (x) = 0.01158 0.60153
# Poissons Ratio (y) = 0.00336 0.20038
# Poissons Ratio (z) = 0.21196 0.24336
#
# Static dielectric constant tensor:
#      x y z
#    x 1.695920 0.000000 -0.010480 
#    y 0.000000 1.740520 0.000000 
#    z -0.010480 0.000000 1.679650 
# 
# From -- ./inp_files/314930.got.cif
#   From: 2010.05.17/outbox.cif.g08.bks.cpg/sg15_158_cif.got.tgz:314930.got - 2010.06.03 18:47:42.
