data_PCOD9302463
_publ_section_title
;
Structure prediction by ZEFSAII (Michael W. Deem and Ramdas Pophale) SiO2 
 PCOD9302463
Probable space group: C 2/C
;
_chemical_formula_sum "Si O2"
_cell_formula_units_Z 48
_cell_length_a 29.446915
_cell_length_b 8.986900
_cell_length_c 15.978687
_cell_angle_alpha 90.000000
_cell_angle_beta 143.909999
_cell_angle_gamma 90.000000
_cell_volume 2490.846130
_symmetry_space_group_name_H-M "C 2/C"
_symmetry_group_IT_number 15
_symmetry_cell_setting 'monoclinic'
loop_
_space_group_symop_operation_xyz
x,y,z
-x,y,1/2-z
-x,-y,-z
x,-y,1/2+z
1/2+x,1/2+y,z
1/2-x,1/2+y,1/2-z
1/2-x,1/2-y,-z
1/2+x,1/2-y,1/2+z
loop_
_atom_site_type_symbol
_atom_site_label
_atom_site_fract_x
_atom_site_fract_y
_atom_site_fract_z
Si Si1 0.923345 0.092063 0.601501
Si Si2 0.301720 0.398417 0.155928
Si Si3 0.131943 0.654264 0.790898
Si Si4 0.926906 0.098873 0.416060
Si Si5 0.799627 0.893054 0.490431
Si Si6 0.633267 0.156737 0.361076
O O1 0.933285 0.145162 0.521706
O O2 0.913541 0.230119 0.650834
O O3 0.000000 0.010567 0.750000
O O4 0.850998 0.978795 0.499544
O O5 0.351751 0.492102 0.294993
O O6 0.306523 0.498363 0.080057
O O7 0.339618 0.244419 0.182442
O O8 0.210888 0.375047 0.031420
O O9 0.079754 0.764284 0.658623
O O10 0.163510 0.740968 0.920269
O O11 0.099928 0.498497 0.777767
O O12 0.208036 0.627619 0.845552
O O13 0.000000 0.000000 0.500000
#
# Coordination Sequence:
#
# PCOD9302463 Si02
#       6
#     8   8   8   8   8   8
#     4  11  22  37  55  79 113 151 188 230 283 339
#     4   8  16  33  56  79 106 146 181 219 281 340
#     4   9  17  34  59  83 107 141 185 231 278 333
#     4  11  22  37  57  80 113 153 191 228 278 344
#     4   8  16  33  57  80 106 143 185 222 270 339
#     4   9  17  34  58  81 110 142 181 233 284 330
#
# _framework density 19.27056
#
# number of rings (size 3 to 8) (size 9 to 14) (size 15 to 20)
#    0.000    2.667    0.000    5.000    0.000    1.333 
#    0.000    7.500    0.000    0.000    0.000    0.000 
#    0.000    0.000    0.000    0.000    0.000    0.000 
#
# Total GULP energy -133610.754744 kJ/mol
# GULP energy per Si atom -5567.114781 kJ/mol
# Density = 1.922670 g / cm^3
# Si number density = 19.270560 Si / 1000 Ang^3
#
#
#
# Elastic Constant Matrix: (Units=GPa)
#
#
# Indices 1 2 3 4 5 6 
#
# 1 66.4525 22.4291 22.5951 0.0000 -2.1153 0.0000
# 2 22.4291 110.6879 19.8640 0.0000 1.2550 0.0000
# 3 22.5951 19.8640 70.1374 0.0000 -4.9916 0.0000
# 4 0.0000 0.0000 0.0000 33.1296 0.0000 2.8210
# 5 -2.1153 1.2550 -4.9916 0.0000 14.9362 0.0000
# 6 0.0000 0.0000 0.0000 2.8210 0.0000 18.8915
#
#
#
# Elastic Compliance Matrix: (Units=1/GPa)
#
#
# Indices 1 2 3 4 5 6 
#
# 1 0.017646 -0.002721 -0.004835 0.000000 0.001112 0.000000
# 2 -0.002721 0.009982 -0.002087 0.000000 -0.001922 0.000000
# 3 -0.004835 -0.002087 0.016769 0.000000 0.005095 0.000000
# 4 0.000000 0.000000 0.000000 0.030573 0.000000 -0.004565
# 5 0.001112 -0.001922 0.005095 0.000000 0.068973 0.000000
# 6 0.000000 0.000000 0.000000 -0.004565 0.000000 0.053616
#
#
# Mechanical properties :
#
#
# Convention : Reuss Voigt Hill
#
# Bulk Modulus (GPa) = 39.82305 41.89491 40.85898
# Shear Modulus (GPa) = 22.20093 25.55076 23.87584
#
# Velocity S-wave (km/s) = 3.39789 3.64524 3.52373
# Velocity P-wave (km/s) = 6.00869 6.28527 6.14853
#
# Compressibility (1/GPa) = 0.02511108
#
# Stress axis : x y z
#
# Youngs Moduli (GPa) = 56.66999 100.17955 59.63326
#
# Poissons Ratio (x) = 0.27255 0.28833
# Poissons Ratio (y) = 0.15417 0.12448
# Poissons Ratio (z) = 0.27401 0.20911
#
# Static dielectric constant tensor:
#      x y z
#    x 1.718250 0.000000 0.064930 
#    y 0.000000 1.731170 0.000000 
#    z 0.064930 0.000000 1.736420 
# 
# From -- ./inp_files/180905.got.cif
#   From: 2010.05.17/outbox.cif.g08.bks.cpg/sg15_91_cif.got.tgz:180905.got - 2010.06.03 18:47:42.
