data_PCOD9302868
_publ_section_title
;
Structure prediction by ZEFSAII (Michael W. Deem and Ramdas Pophale) SiO2 
 PCOD9302868
Probable space group: C 2/C
;
_chemical_formula_sum "Si O2"
_cell_formula_units_Z 48
_cell_length_a 8.389948
_cell_length_b 21.269982
_cell_length_c 18.678404
_cell_angle_alpha 90.000000
_cell_angle_beta 136.888316
_cell_angle_gamma 90.000000
_cell_volume 2278.009489
_symmetry_space_group_name_H-M "C 2/C"
_symmetry_group_IT_number 15
_symmetry_cell_setting 'monoclinic'
loop_
_space_group_symop_operation_xyz
x,y,z
-x,y,1/2-z
-x,-y,-z
x,-y,1/2+z
1/2+x,1/2+y,z
1/2-x,1/2+y,1/2-z
1/2-x,1/2-y,-z
1/2+x,1/2-y,1/2+z
loop_
_atom_site_type_symbol
_atom_site_label
_atom_site_fract_x
_atom_site_fract_y
_atom_site_fract_z
Si Si1 0.113111 0.529253 0.863820
Si Si2 0.897323 0.087926 0.438064
Si Si3 0.751106 0.049180 0.629879
Si Si4 0.441334 0.166423 0.006435
Si Si5 0.879865 0.089800 0.135251
Si Si6 0.842721 0.713572 0.127724
O O1 0.183833 0.455770 0.892429
O O2 0.000000 0.540532 0.750000
O O3 0.942129 0.550528 0.870753
O O4 0.361193 0.564080 0.949884
O O5 0.853550 0.160152 0.437233
O O6 0.929534 0.081403 0.363459
O O7 0.703758 0.101803 0.554254
O O8 0.000000 0.059737 0.750000
O O9 0.757672 0.978485 0.601212
O O10 0.286823 0.219731 0.917696
O O11 0.693580 0.144853 0.059602
O O12 0.475047 0.194841 0.097362
O O13 0.000000 0.102083 0.250000
O O14 0.000000 0.708191 0.250000
#
# Coordination Sequence:
#
# PCOD9302868 Si02
#       6
#     8   8   8   8   8   8
#     4  11  23  40  63 102 132 172 215 272 336 385
#     4  11  24  40  66  95 135 171 215 272 331 395
#     4  11  23  40  68  98 135 171 217 269 324 395
#     4  11  24  43  68  92 127 173 225 267 320 395
#     4  11  22  40  67  99 129 172 212 274 335 384
#     4  11  25  45  65  92 129 178 221 268 326 391
#
# _framework density 21.071028999999999
#
# number of rings (size 3 to 8) (size 9 to 14) (size 15 to 20)
#    0.000    1.000    1.667    5.500    7.000    0.667 
#    0.000    0.833    0.000    0.000    0.000    0.000 
#    0.000    0.000    0.000    0.000    0.000    0.000 
#
# Total GULP energy -134134.457078 kJ/mol
# GULP energy per Si atom -5588.935712 kJ/mol
# Density = 2.102307 g / cm^3
# Si number density = 21.071029 Si / 1000 Ang^3
#
#
#
# Elastic Constant Matrix: (Units=GPa)
#
#
# Indices 1 2 3 4 5 6 
#
# 1 55.2228 34.8663 36.4988 0.0000 -5.9379 0.0000
# 2 34.8663 115.5321 19.7463 0.0000 6.5753 0.0000
# 3 36.4988 19.7463 98.9250 -0.0002 -6.0537 0.0000
# 4 0.0000 0.0000 -0.0002 -119.5630 -0.0001 7.5298
# 5 -5.9379 6.5753 -6.0537 -0.0001 30.1965 0.0000
# 6 0.0000 0.0000 0.0000 7.5298 0.0000 20.9766
#
#
#
# Elastic Compliance Matrix: (Units=1/GPa)
#
#
# Indices 1 2 3 4 5 6 
#
# 1 0.029535 -0.007696 -0.009014 0.000000 0.005677 0.000000
# 2 -0.007696 0.011133 0.000381 0.000000 -0.003861 0.000000
# 3 -0.009014 0.000381 0.013409 0.000000 0.000833 0.000000
# 4 0.000000 0.000000 0.000000 -0.008179 0.000000 0.002936
# 5 0.005677 -0.003861 0.000833 0.000000 0.035240 0.000000
# 6 0.000000 0.000000 0.000000 0.002936 0.000000 0.046618
#
#
# Mechanical properties :
#
#
# Convention : Reuss Voigt Hill
#
# Bulk Modulus (GPa) = 46.68506 50.21140 48.44823
# Shear Modulus (GPa) = 29.84106 -1.77343 14.03381
#
# Velocity S-wave (km/s) = 3.76734 -0.91841 2.58354
# Velocity P-wave (km/s) = 6.41311 4.77040 5.65175
#
# Compressibility (1/GPa) = 0.02142013
#
# Stress axis : x y z
#
# Youngs Moduli (GPa) = 33.85779 89.82483 74.57568
#
# Poissons Ratio (x) = 0.69128 0.67220
# Poissons Ratio (y) = 0.26057 -0.02841
# Poissons Ratio (z) = 0.30518 -0.03422
#
# Static dielectric constant tensor:
#      x y z
#    x 1.806270 0.000000 -0.004310 
#    y 0.000000 1.731720 0.000000 
#    z -0.004310 0.000000 1.779370 
# 
# From -- ./inp_files/233975.got.cif
#   From: 2010.05.17/outbox.cif.g08.bks.cpg/sg15_117_cif.got.tgz:233975.got - 2010.06.03 18:47:42.
