data_PCOD9302734
_publ_section_title
;
Structure prediction by ZEFSAII (Michael W. Deem and Ramdas Pophale) SiO2 
 PCOD9302734
Probable space group: C 2/C
;
_chemical_formula_sum "Si O2"
_cell_formula_units_Z 60
_cell_length_a 9.012728
_cell_length_b 19.546287
_cell_length_c 18.817570
_cell_angle_alpha 90.000000
_cell_angle_beta 55.741889
_cell_angle_gamma 90.000000
_cell_volume 2739.884303
_symmetry_space_group_name_H-M "C 2/C"
_symmetry_group_IT_number 15
_symmetry_cell_setting 'monoclinic'
loop_
_space_group_symop_operation_xyz
x,y,z
-x,y,1/2-z
-x,-y,-z
x,-y,1/2+z
1/2+x,1/2+y,z
1/2-x,1/2+y,1/2-z
1/2-x,1/2-y,-z
1/2+x,1/2-y,1/2+z
loop_
_atom_site_type_symbol
_atom_site_label
_atom_site_fract_x
_atom_site_fract_y
_atom_site_fract_z
Si Si1 0.904468 0.335175 0.008226
Si Si2 0.296398 0.847921 0.771660
Si Si3 0.000000 0.158192 0.250000
Si Si4 0.681456 0.006049 0.742301
Si Si5 0.872026 0.184324 0.036698
Si Si6 0.882966 0.064733 0.554188
Si Si7 0.808729 0.066447 0.842282
Si Si8 0.758017 0.077365 0.429407
O O1 0.953900 0.259661 0.021342
O O2 0.752084 0.366259 0.100670
O O3 0.813513 0.319582 0.957090
O O4 0.066450 0.388804 0.961255
O O5 0.500000 0.832501 0.750000
O O6 0.177577 0.808374 0.742472
O O7 0.175208 0.843995 0.874036
O O8 0.287456 0.926614 0.747239
O O9 0.904142 0.116418 0.340433
O O10 0.500000 0.004240 0.750000
O O11 0.807352 0.040461 0.649907
O O12 0.673035 0.050122 0.815003
O O13 0.004822 0.132781 0.962795
O O14 0.773443 0.081600 0.511108
O O15 0.000000 0.000000 0.500000
O O16 0.000000 0.067411 0.750000
O O17 0.786187 0.001891 0.900772
#
# Coordination Sequence:
#
# PCOD9302734 Si02
#       8
#     8   8   4   8   8   8   8   8
#     4  11  27  43  67  98 138 188 230 285 351 433
#     4  11  22  39  67  99 138 177 229 295 349 418
#     4  12  20  42  64 106 130 172 232 290 354 408
#     4  11  23  37  62 100 129 163 222 285 348 405
#     4  11  24  45  65  97 136 186 232 276 353 430
#     4  12  22  41  70  94 130 178 225 287 354 413
#     4  12  23  42  68  98 136 170 229 295 353 417
#     4  12  23  41  69 100 132 176 232 290 357 412
#
# _framework density 21.898736
#
# number of rings (size 3 to 8) (size 9 to 14) (size 15 to 20)
#    0.000    0.533    4.667    4.400    1.867    1.067 
#    0.000    1.333    2.933    0.000    0.000    0.000 
#    0.000    0.000    0.000    0.000    0.000    0.000 
#
# Total GULP energy -167255.991149 kJ/mol
# GULP energy per Si atom -5575.199705 kJ/mol
# Density = 2.184889 g / cm^3
# Si number density = 21.898736 Si / 1000 Ang^3
#
#
#
# Elastic Constant Matrix: (Units=GPa)
#
#
# Indices 1 2 3 4 5 6 
#
# 1 108.5466 4.7021 24.8190 0.0000 6.3774 0.0000
# 2 4.7021 80.5433 8.7615 0.0000 -20.5675 0.0000
# 3 24.8190 8.7615 49.7932 0.0000 8.5072 0.0000
# 4 0.0000 0.0000 0.0000 -2.3007 0.0000 -4.7960
# 5 6.3774 -20.5675 8.5072 0.0000 43.6337 0.0000
# 6 0.0000 0.0000 0.0000 -4.7960 0.0000 10.3298
#
#
#
# Elastic Compliance Matrix: (Units=1/GPa)
#
#
# Indices 1 2 3 4 5 6 
#
# 1 0.010413 -0.000224 -0.005041 0.000000 -0.000645 0.000000
# 2 -0.000224 0.014828 -0.003825 0.000000 0.007768 0.000000
# 3 -0.005041 -0.003825 0.024259 0.000000 -0.005796 0.000000
# 4 0.000000 0.000000 0.000000 -0.220877 0.000000 -0.102551
# 5 -0.000645 0.007768 -0.005796 0.000000 0.027804 0.000000
# 6 0.000000 0.000000 0.000000 -0.102551 0.000000 0.049194
#
#
# Mechanical properties :
#
#
# Convention : Reuss Voigt Hill
#
# Bulk Modulus (GPa) = 31.92733 35.04982 33.48858
# Shear Modulus (GPa) = -76.03348 23.70594 -26.16377
#
# Velocity S-wave (km/s) = -5.89880 3.29375 -3.46028
# Velocity P-wave (km/s) = 5.63767 5.52315 0.79942
#
# Compressibility (1/GPa) = 0.03132113
#
# Stress axis : x y z
#
# Youngs Moduli (GPa) = 96.03624 67.43781 41.22247
#
# Poissons Ratio (x) = 0.01512 0.20778
# Poissons Ratio (y) = 0.02154 0.15766
# Poissons Ratio (z) = 0.48407 0.25792
#
# Static dielectric constant tensor:
#      x y z
#    x 1.919720 0.000000 -0.009530 
#    y 0.000000 1.783740 0.000000 
#    z -0.009530 0.000000 1.755350 
# 
# From -- ./inp_files/192541.got.cif
#   From: 2010.05.17/outbox.cif.g08.bks.cpg/sg15_97_cif.got.tgz:192541.got - 2010.06.03 18:47:42.
