data_PCOD9302200
_publ_section_title
;
Structure prediction by ZEFSAII (Michael W. Deem and Ramdas Pophale) SiO2 
 PCOD9302200
Probable space group: C 2/C
;
_chemical_formula_sum "Si O2"
_cell_formula_units_Z 48
_cell_length_a 21.910954
_cell_length_b 12.359450
_cell_length_c 10.884927
_cell_angle_alpha 90.000000
_cell_angle_beta 52.636539
_cell_angle_gamma 90.000000
_cell_volume 2342.851672
_symmetry_space_group_name_H-M "C 2/C"
_symmetry_group_IT_number 15
_symmetry_cell_setting 'monoclinic'
loop_
_space_group_symop_operation_xyz
x,y,z
-x,y,1/2-z
-x,-y,-z
x,-y,1/2+z
1/2+x,1/2+y,z
1/2-x,1/2+y,1/2-z
1/2-x,1/2-y,-z
1/2+x,1/2-y,1/2+z
loop_
_atom_site_type_symbol
_atom_site_label
_atom_site_fract_x
_atom_site_fract_y
_atom_site_fract_z
Si Si1 0.745925 0.837075 0.112700
Si Si2 0.247853 0.589315 0.066249
Si Si3 0.043085 0.549197 0.566946
Si Si4 0.082807 0.836678 0.169391
Si Si5 0.133759 0.258172 0.860529
Si Si6 0.349964 0.145231 0.542005
O O1 0.822616 0.819782 0.099050
O O2 0.677781 0.814556 0.292556
O O3 0.734577 0.960778 0.085143
O O4 0.750000 0.750000 0.000000
O O5 0.195756 0.655163 0.227662
O O6 0.338770 0.606685 0.971383
O O7 0.219809 0.638950 0.970248
O O8 0.069433 0.669968 0.504858
O O9 0.117587 0.474368 0.489211
O O10 0.000000 0.542685 0.750000
O O11 0.000000 0.500000 0.500000
O O12 0.097089 0.807425 0.293417
O O13 0.000000 0.889384 0.250000
O O14 0.085529 0.723074 0.092275
#
# Coordination Sequence:
#
# PCOD9302200 Si02
#       6
#     8   8   8   8   8   8
#     4  12  25  38  70 102 126 168 231 272 322 387
#     4  11  22  43  70  92 131 178 224 268 335 399
#     4  12  25  40  66 102 139 170 212 283 355 395
#     4  11  22  42  68  93 127 179 223 269 337 397
#     4  11  22  43  66  97 133 172 225 276 323 412
#     4  11  21  43  67  96 131 172 220 275 328 411
#
# _framework density 20.487853999999999
#
# number of rings (size 3 to 8) (size 9 to 14) (size 15 to 20)
#    0.000    0.667    5.000    5.500    2.333    0.000 
#    0.000    1.667    0.000    0.000    0.000    0.000 
#    0.000    0.000    0.000    0.000    0.000    0.000 
#
# Total GULP energy -134097.922423 kJ/mol
# GULP energy per Si atom -5587.413434 kJ/mol
# Density = 2.044122 g / cm^3
# Si number density = 20.487854 Si / 1000 Ang^3
#
#
#
# Elastic Constant Matrix: (Units=GPa)
#
#
# Indices 1 2 3 4 5 6 
#
# 1 88.5765 7.2175 48.8308 0.0000 -5.6191 0.0000
# 2 7.2175 52.4368 13.9261 0.0000 12.8336 0.0000
# 3 48.8308 13.9261 118.0303 0.0000 16.2081 0.0000
# 4 0.0000 0.0000 0.0000 30.7521 0.0000 -1.1316
# 5 -5.6191 12.8336 16.2081 0.0000 34.3594 0.0000
# 6 0.0000 0.0000 0.0000 -1.1316 0.0000 31.4205
#
#
#
# Elastic Compliance Matrix: (Units=1/GPa)
#
#
# Indices 1 2 3 4 5 6 
#
# 1 0.015880 -0.001904 -0.007271 0.000000 0.006738 0.000000
# 2 -0.001904 0.021468 -0.000643 0.000000 -0.008026 0.000000
# 3 -0.007271 -0.000643 0.012496 0.000000 -0.006843 0.000000
# 4 0.000000 0.000000 0.000000 0.032561 0.000000 0.001173
# 5 0.006738 -0.008026 -0.006843 0.000000 0.036432 0.000000
# 6 0.000000 0.000000 0.000000 0.001173 0.000000 0.031869
#
#
# Mechanical properties :
#
#
# Convention : Reuss Voigt Hill
#
# Bulk Modulus (GPa) = 33.10260 44.33249 38.71754
# Shear Modulus (GPa) = 27.71449 31.91102 29.81275
#
# Velocity S-wave (km/s) = 3.68193 3.95087 3.81877
# Velocity P-wave (km/s) = 5.85387 6.51904 6.19539
#
# Compressibility (1/GPa) = 0.03020911
#
# Stress axis : x y z
#
# Youngs Moduli (GPa) = 62.97067 46.58128 80.02587
#
# Poissons Ratio (x) = 0.08869 0.58183
# Poissons Ratio (y) = 0.11989 0.05146
# Poissons Ratio (z) = 0.45783 0.02995
#
# Static dielectric constant tensor:
#      x y z
#    x 1.757310 0.000000 -0.002960 
#    y 0.000000 1.715600 0.000000 
#    z -0.002960 0.000000 1.781460 
# 
# From -- ./inp_files/117429.got.cif
#   From: 2010.05.17/outbox.cif.g08.bks.cpg/sg15_59_cif.got.tgz:117429.got - 2010.06.03 18:47:42.
