data_PCOD9302883
_publ_section_title
;
Structure prediction by ZEFSAII (Michael W. Deem and Ramdas Pophale) SiO2 
 PCOD9302883
Probable space group: C 2/C
;
_chemical_formula_sum "Si O2"
_cell_formula_units_Z 60
_cell_length_a 22.796539
_cell_length_b 15.152453
_cell_length_c 15.217993
_cell_angle_alpha 90.000000
_cell_angle_beta 150.254731
_cell_angle_gamma 90.000000
_cell_volume 2608.060720
_symmetry_space_group_name_H-M "C 2/C"
_symmetry_group_IT_number 15
_symmetry_cell_setting 'monoclinic'
loop_
_space_group_symop_operation_xyz
x,y,z
-x,y,1/2-z
-x,-y,-z
x,-y,1/2+z
1/2+x,1/2+y,z
1/2-x,1/2+y,1/2-z
1/2-x,1/2-y,-z
1/2+x,1/2-y,1/2+z
loop_
_atom_site_type_symbol
_atom_site_label
_atom_site_fract_x
_atom_site_fract_y
_atom_site_fract_z
Si Si1 0.763844 0.091460 0.141412
Si Si2 0.423714 0.681057 0.476382
Si Si3 0.529792 0.495800 0.186112
Si Si4 0.711460 0.215253 0.583964
Si Si5 0.401509 0.185154 0.235668
Si Si6 0.500000 0.906793 0.250000
Si Si7 0.215541 0.063689 0.689994
Si Si8 0.599827 0.006064 0.703482
O O1 0.853472 0.165194 0.295659
O O2 0.841858 0.037259 0.170158
O O3 0.751842 0.020260 0.205411
O O4 0.633530 0.129256 0.948607
O O5 0.505927 0.597572 0.605888
O O6 0.327019 0.690162 0.427670
O O7 0.478880 0.778240 0.564080
O O8 0.500000 0.483855 0.250000
O O9 0.423814 0.557254 0.011186
O O10 0.615774 0.178508 0.391233
O O11 0.820255 0.235418 0.662719
O O12 0.752521 0.149270 0.712470
O O13 0.364601 0.092632 0.226072
O O14 0.460529 0.957123 0.286922
O O15 0.291626 0.057574 0.699879
O O16 0.500000 0.000000 0.500000
#
# Coordination Sequence:
#
# PCOD9302883 Si02
#       8
#     8   8   8   8   8   4   8   8
#     4  11  23  42  66  98 135 183 235 292 347 427
#     4  11  23  39  64  99 134 175 221 286 363 413
#     4  11  22  40  68  98 133 177 238 290 349 421
#     4  11  23  39  67 101 142 172 220 289 359 423
#     4  11  23  39  64 104 142 175 218 289 360 421
#     4  12  26  44  70 100 142 186 254 292 342 432
#     4  11  22  42  67 101 139 186 232 286 353 424
#     4  12  25  41  68 103 142 190 234 284 350 425
#
# _framework density 23.005600000000001
#
# number of rings (size 3 to 8) (size 9 to 14) (size 15 to 20)
#    0.000    0.800    1.333    8.400    1.867    3.200 
#    0.000    0.000    1.467    4.000    0.000    0.000 
#    0.000    0.000    0.000    0.000    0.000    0.133 
#
# Total GULP energy -167306.313488 kJ/mol
# GULP energy per Si atom -5576.877116 kJ/mol
# Density = 2.295324 g / cm^3
# Si number density = 23.005600 Si / 1000 Ang^3
#
#
#
# Elastic Constant Matrix: (Units=GPa)
#
#
# Indices 1 2 3 4 5 6 
#
# 1 118.9394 27.7325 38.1991 0.0000 -3.5619 0.0000
# 2 27.7325 57.1990 30.3026 0.0000 -8.3483 0.0000
# 3 38.1991 30.3026 112.1961 0.0000 0.8861 0.0000
# 4 0.0000 0.0000 0.0000 8.8796 0.0000 1.1489
# 5 -3.5619 -8.3483 0.8861 0.0000 42.4691 0.0000
# 6 0.0000 0.0000 0.0000 1.1489 0.0000 28.7878
#
#
#
# Elastic Compliance Matrix: (Units=1/GPa)
#
#
# Indices 1 2 3 4 5 6 
#
# 1 0.010027 -0.003528 -0.002463 0.000000 0.000199 0.000000
# 2 -0.003528 0.022393 -0.004880 0.000000 0.004208 0.000000
# 3 -0.002463 -0.004880 0.011080 0.000000 -0.001397 0.000000
# 4 0.000000 0.000000 0.000000 0.113202 0.000000 -0.004518
# 5 0.000199 0.004208 -0.001397 0.000000 0.024419 0.000000
# 6 0.000000 0.000000 0.000000 -0.004518 0.000000 0.034917
#
#
# Mechanical properties :
#
#
# Convention : Reuss Voigt Hill
#
# Bulk Modulus (GPa) = 45.95769 53.42255 49.69012
# Shear Modulus (GPa) = 20.40540 28.83398 24.61969
#
# Velocity S-wave (km/s) = 2.98144 3.54410 3.27488
# Velocity P-wave (km/s) = 5.64554 6.32610 5.99548
#
# Compressibility (1/GPa) = 0.02175914
#
# Stress axis : x y z
#
# Youngs Moduli (GPa) = 99.72978 44.65729 90.24883
#
# Poissons Ratio (x) = 0.15755 0.22225
# Poissons Ratio (y) = 0.35184 0.44042
# Poissons Ratio (z) = 0.24560 0.21793
#
# Static dielectric constant tensor:
#      x y z
#    x 2.506320 0.000000 0.161700 
#    y 0.000000 1.847280 0.000000 
#    z 0.161700 0.000000 2.024900 
# 
# From -- ./inp_files/174130.got.cif
#   From: 2010.05.17/outbox.cif.g08.bks.cpg/sg15_88_cif.got.tgz:174130.got - 2010.06.03 18:47:42.
