data_PCOD9302254
_publ_section_title
;
Structure prediction by ZEFSAII (Michael W. Deem and Ramdas Pophale) SiO2 
 PCOD9302254
Probable space group: C 2/C
;
_chemical_formula_sum "Si O2"
_cell_formula_units_Z 52
_cell_length_a 9.356102
_cell_length_b 11.141029
_cell_length_c 31.075058
_cell_angle_alpha 90.000000
_cell_angle_beta 122.743172
_cell_angle_gamma 90.000000
_cell_volume 2724.467477
_symmetry_space_group_name_H-M "C 2/C"
_symmetry_group_IT_number 15
_symmetry_cell_setting 'monoclinic'
loop_
_space_group_symop_operation_xyz
x,y,z
-x,y,1/2-z
-x,-y,-z
x,-y,1/2+z
1/2+x,1/2+y,z
1/2-x,1/2+y,1/2-z
1/2-x,1/2-y,-z
1/2+x,1/2-y,1/2+z
loop_
_atom_site_type_symbol
_atom_site_label
_atom_site_fract_x
_atom_site_fract_y
_atom_site_fract_z
Si Si1 0.261123 0.176378 0.046679
Si Si2 0.591017 0.440683 0.878620
Si Si3 0.509633 0.301128 0.156466
Si Si4 0.000000 0.911068 0.250000
Si Si5 0.941674 0.781588 0.544136
Si Si6 0.478860 0.013911 0.945149
Si Si7 0.352226 0.348023 0.700654
O O1 0.359506 0.240298 0.102969
O O2 0.372201 0.059915 0.053477
O O3 0.065633 0.161859 0.028713
O O4 0.250000 0.250000 0.000000
O O5 0.485371 0.563112 0.860791
O O6 0.649864 0.486503 0.780712
O O7 0.791049 0.467817 0.905674
O O8 0.563505 0.361199 0.832385
O O9 0.495268 0.329536 0.205878
O O10 0.675320 0.220279 0.174768
O O11 0.750000 0.750000 0.500000
O O12 0.938983 0.870089 0.583219
O O13 0.015872 0.651567 0.567105
O O14 0.500000 0.000000 0.000000
O O15 0.500000 0.279442 0.750000
#
# Coordination Sequence:
#
# PCOD9302254 Si02
#       7
#     8   8   8   4   8   8   8
#     4  12  24  41  69 102 136 184 225 268 346 409
#     4  11  22  43  67  97 133 173 223 272 336 387
#     4  11  21  43  74  94 137 175 223 282 334 410
#     4   8  22  42  68  94 130 176 216 282 344 388
#     4  12  26  40  64  98 134 181 223 271 324 402
#     4  12  22  44  65  91 139 181 218 276 328 397
#     4   9  21  42  67  96 127 171 218 277 340 398
#
# _framework density 19.086299
#
# number of rings (size 3 to 8) (size 9 to 14) (size 15 to 20)
#    0.462    0.615    6.154    0.000    0.000    3.077 
#    0.000    1.538    0.000    0.000    0.000    0.000 
#    0.000    0.000    0.000    0.000    0.000    0.000 
#
# Total GULP energy -144757.607860 kJ/mol
# GULP energy per Si atom -5567.600302 kJ/mol
# Density = 1.904286 g / cm^3
# Si number density = 19.086299 Si / 1000 Ang^3
#
#
#
# Elastic Constant Matrix: (Units=GPa)
#
#
# Indices 1 2 3 4 5 6 
#
# 1 122.4701 47.7969 36.8223 0.0000 -1.3040 0.0000
# 2 47.7969 75.3010 13.7625 0.0000 -11.4286 0.0000
# 3 36.8223 13.7625 99.5605 0.0000 -9.6950 0.0000
# 4 0.0000 0.0000 0.0000 38.1358 0.0000 -0.3951
# 5 -1.3040 -11.4286 -9.6950 0.0000 33.5550 0.0000
# 6 0.0000 0.0000 0.0000 -0.3951 0.0000 37.5001
#
#
#
# Elastic Compliance Matrix: (Units=1/GPa)
#
#
# Indices 1 2 3 4 5 6 
#
# 1 0.012214 -0.007545 -0.003785 0.000000 -0.003189 0.000000
# 2 -0.007545 0.018890 0.000800 0.000000 0.006372 0.000000
# 3 -0.003785 0.000800 0.011674 0.000000 0.003498 0.000000
# 4 0.000000 0.000000 0.000000 0.026225 0.000000 0.000276
# 5 -0.003189 0.006372 0.003498 0.000000 0.032859 0.000000
# 6 0.000000 0.000000 0.000000 0.000276 0.000000 0.026669
#
#
# Mechanical properties :
#
#
# Convention : Reuss Voigt Hill
#
# Bulk Modulus (GPa) = 46.04495 54.89946 50.47220
# Shear Modulus (GPa) = 31.88157 35.10151 33.49154
#
# Velocity S-wave (km/s) = 4.09147 4.29312 4.19351
# Velocity P-wave (km/s) = 6.81889 7.30758 7.06746
#
# Compressibility (1/GPa) = 0.02171791
#
# Stress axis : x y z
#
# Youngs Moduli (GPa) = 81.87434 52.93809 85.65991
#
# Poissons Ratio (x) = 0.39941 0.32421
# Poissons Ratio (y) = 0.61773 -0.06850
# Poissons Ratio (z) = 0.30988 -0.04234
#
# Static dielectric constant tensor:
#      x y z
#    x 1.662180 0.000000 -0.044290 
#    y 0.000000 1.670280 0.000000 
#    z -0.044290 0.000000 2.423010 
# 
# From -- ./inp_files/288504.got.cif
#   From: 2010.05.17/outbox.cif.g08.bks.cpg/sg15_145_cif.got.tgz:288504.got - 2010.06.03 18:47:42.
