data_PCOD9302188
_publ_section_title
;
Structure prediction by ZEFSAII (Michael W. Deem and Ramdas Pophale) SiO2 
 PCOD9302188
Probable space group: C 2/C
;
_chemical_formula_sum "Si O2"
_cell_formula_units_Z 56
_cell_length_a 18.875092
_cell_length_b 17.864341
_cell_length_c 22.427537
_cell_angle_alpha 90.000000
_cell_angle_beta 157.217912
_cell_angle_gamma 90.000000
_cell_volume 2928.354884
_symmetry_space_group_name_H-M "C 2/C"
_symmetry_group_IT_number 15
_symmetry_cell_setting 'monoclinic'
loop_
_space_group_symop_operation_xyz
x,y,z
-x,y,1/2-z
-x,-y,-z
x,-y,1/2+z
1/2+x,1/2+y,z
1/2-x,1/2+y,1/2-z
1/2-x,1/2-y,-z
1/2+x,1/2-y,1/2+z
loop_
_atom_site_type_symbol
_atom_site_label
_atom_site_fract_x
_atom_site_fract_y
_atom_site_fract_z
Si Si1 0.692918 0.960880 0.802572
Si Si2 0.487853 0.483907 0.866134
Si Si3 0.000000 0.454718 0.250000
Si Si4 0.096508 0.846963 0.610939
Si Si5 0.166907 0.670155 0.953171
Si Si6 0.000000 0.085824 0.250000
Si Si7 0.311452 0.193320 0.755928
Si Si8 0.851245 0.551489 0.853052
O O1 0.758483 0.882139 0.824407
O O2 0.522373 0.989755 0.710431
O O3 0.691096 0.015896 0.744547
O O4 0.847726 0.981040 0.969978
O O5 0.432869 0.410688 0.861742
O O6 0.519609 0.463426 0.823375
O O7 0.325521 0.543079 0.743909
O O8 0.150009 0.392309 0.387641
O O9 0.176351 0.775384 0.706771
O O10 0.894795 0.828175 0.425969
O O11 0.964932 0.683035 0.823447
O O12 0.250000 0.750000 0.000000
O O13 0.316926 0.635744 0.114526
O O14 0.384297 0.137159 0.863959
O O15 0.000000 0.500000 0.000000
#
# Coordination Sequence:
#
# PCOD9302188 Si02
#       8
#     8   8   4   8   8   4   8   8
#     4  11  22  45  66  90 127 177 223 275 336 386
#     4  11  21  43  62  87 130 172 218 273 328 387
#     4  12  23  44  70  91 128 188 220 262 348 413
#     4  11  25  42  66  92 129 177 223 281 326 399
#     4  12  26  37  58  93 140 173 208 264 335 411
#     4  12  25  38  58  95 128 174 214 268 330 391
#     4  12  25  41  62  95 130 174 223 263 342 393
#     4  11  22  38  65  93 124 167 229 276 315 398
#
# _framework density 19.123363999999999
#
# number of rings (size 3 to 8) (size 9 to 14) (size 15 to 20)
#    0.000    0.571    5.714    3.000   10.000    0.000 
#    0.000    0.000    0.000    1.714    0.000    0.000 
#    0.000    0.000    0.000    0.000    0.000    0.000 
#
# Total GULP energy -156044.473276 kJ/mol
# GULP energy per Si atom -5573.016903 kJ/mol
# Density = 1.907984 g / cm^3
# Si number density = 19.123364 Si / 1000 Ang^3
#
#
#
# Elastic Constant Matrix: (Units=GPa)
#
#
# Indices 1 2 3 4 5 6 
#
# 1 105.3864 43.5686 12.7416 0.0041 -4.7827 0.0080
# 2 43.5686 73.8616 -3.1020 0.0274 1.7423 0.0250
# 3 12.7416 -3.1020 47.5005 0.0089 -7.4604 -0.0019
# 4 0.0041 0.0274 0.0089 31.3357 -0.0028 23.2790
# 5 -4.7827 1.7423 -7.4604 -0.0028 25.1000 0.0033
# 6 0.0080 0.0250 -0.0019 23.2790 0.0033 99.4359
#
#
#
# Elastic Compliance Matrix: (Units=1/GPa)
#
#
# Indices 1 2 3 4 5 6 
#
# 1 0.013390 -0.008105 -0.003810 0.000007 0.001982 -0.000001
# 2 -0.008105 0.018494 0.003082 -0.000016 -0.001912 0.000000
# 3 -0.003810 0.003082 0.023212 -0.000010 0.005959 0.000002
# 4 0.000007 -0.000016 -0.000010 0.038631 0.000005 -0.009044
# 5 0.001982 -0.001912 0.005959 0.000005 0.042122 -0.000002
# 6 -0.000001 0.000000 0.000002 -0.009044 -0.000002 0.012174
#
#
# Mechanical properties :
#
#
# Convention : Reuss Voigt Hill
#
# Bulk Modulus (GPa) = 26.71717 37.01834 31.86776
# Shear Modulus (GPa) = 28.06349 42.74366 35.40358
#
# Velocity S-wave (km/s) = 3.83495 4.73287 4.30737
# Velocity P-wave (km/s) = 5.79745 7.01900 6.43727
#
# Compressibility (1/GPa) = 0.03742911
#
# Stress axis : x y z
#
# Youngs Moduli (GPa) = 74.68071 54.07033 43.08198
#
# Poissons Ratio (x) = 0.43826 0.16414
# Poissons Ratio (y) = 0.60531 -0.13276
# Poissons Ratio (z) = 0.28453 -0.16662
#
# Static dielectric constant tensor:
#      x y z
#    x 1.712400 -0.000040 0.048650 
#    y -0.000040 1.513230 -0.000040 
#    z 0.048650 -0.000040 1.727680 
# 
# From -- ./inp_files/66915.got.cif
#   From: 2010.05.17/outbox.cif.g08.bks.cpg/sg15_34_cif.got.tgz:66915.got - 2010.06.03 18:47:42.
