data_PCOD9302907
_publ_section_title
;
Structure prediction by ZEFSAII (Michael W. Deem and Ramdas Pophale) SiO2 
 PCOD9302907
Probable space group: C 2/C
;
_chemical_formula_sum "Si O2"
_cell_formula_units_Z 60
_cell_length_a 18.543138
_cell_length_b 17.234248
_cell_length_c 9.639797
_cell_angle_alpha 90.000000
_cell_angle_beta 117.154938
_cell_angle_gamma 90.000000
_cell_volume 2741.094116
_symmetry_space_group_name_H-M "C 2/C"
_symmetry_group_IT_number 15
_symmetry_cell_setting 'monoclinic'
loop_
_space_group_symop_operation_xyz
x,y,z
-x,y,1/2-z
-x,-y,-z
x,-y,1/2+z
1/2+x,1/2+y,z
1/2-x,1/2+y,1/2-z
1/2-x,1/2-y,-z
1/2+x,1/2-y,1/2+z
loop_
_atom_site_type_symbol
_atom_site_label
_atom_site_fract_x
_atom_site_fract_y
_atom_site_fract_z
Si Si1 0.867376 0.853410 0.633024
Si Si2 0.874703 0.485038 0.212947
Si Si3 0.419047 0.106188 0.479927
Si Si4 0.500000 0.780492 0.250000
Si Si5 0.758552 0.364327 0.227411
Si Si6 0.719057 0.580347 0.981148
Si Si7 0.553746 0.507818 0.909858
Si Si8 0.749847 0.815321 0.761413
O O1 0.921831 0.776000 0.687087
O O2 0.797093 0.856291 0.456516
O O3 0.922638 0.925208 0.637074
O O4 0.818269 0.859448 0.732202
O O5 0.922805 0.548229 0.349225
O O6 0.912762 0.450386 0.107424
O O7 0.840359 0.412772 0.272604
O O8 0.792090 0.524011 0.085113
O O9 0.485522 0.167238 0.598139
O O10 0.336731 0.156362 0.377970
O O11 0.712042 0.408540 0.310867
O O12 0.770026 0.274758 0.272463
O O13 0.639023 0.550448 0.985737
O O14 0.745354 0.659622 0.075934
O O15 0.500000 0.552393 0.750000
O O16 0.500000 0.500000 0.000000
#
# Coordination Sequence:
#
# PCOD9302907 Si02
#       8
#     8   8   8   4   8   8   8   8
#     4  12  23  41  68  95 129 173 224 269 327 401
#     4  11  22  40  70  97 127 169 224 279 332 386
#     4  11  23  43  67  99 131 173 220 276 334 397
#     4  12  26  42  66  96 136 174 224 270 330 408
#     4  12  21  40  67  98 127 167 221 280 331 392
#     4  11  24  39  63  97 134 166 216 283 339 395
#     4  12  24  39  60  91 134 176 214 263 336 406
#     4  11  23  41  68  97 129 174 222 276 335 397
#
# _framework density 21.88907
#
# number of rings (size 3 to 8) (size 9 to 14) (size 15 to 20)
#    0.000    0.533    6.000    3.200    1.867    0.533 
#    0.000    0.000    0.000    1.600    0.000    0.000 
#    0.000    0.000    0.000    0.000    0.000    0.000 
#
# Total GULP energy -167443.300148 kJ/mol
# GULP energy per Si atom -5581.443338 kJ/mol
# Density = 2.183925 g / cm^3
# Si number density = 21.889070 Si / 1000 Ang^3
#
#
#
# Elastic Constant Matrix: (Units=GPa)
#
#
# Indices 1 2 3 4 5 6 
#
# 1 62.9893 9.6594 24.9925 0.0000 -3.1665 0.0000
# 2 9.6594 110.4853 30.7578 0.0000 6.7759 0.0000
# 3 24.9925 30.7578 97.3532 0.0000 -6.2179 0.0000
# 4 0.0000 0.0000 0.0000 30.9922 0.0000 -0.6188
# 5 -3.1665 6.7759 -6.2179 0.0000 28.0771 0.0000
# 6 0.0000 0.0000 0.0000 -0.6188 0.0000 6.9044
#
#
#
# Elastic Compliance Matrix: (Units=1/GPa)
#
#
# Indices 1 2 3 4 5 6 
#
# 1 0.017720 -0.000408 -0.004348 0.000000 0.001134 0.000000
# 2 -0.000408 0.010213 -0.003329 0.000000 -0.003248 0.000000
# 3 -0.004348 -0.003329 0.012639 0.000000 0.003112 0.000000
# 4 0.000000 0.000000 0.000000 0.032324 0.000000 0.002897
# 5 0.001134 -0.003248 0.003112 0.000000 0.037217 0.000000
# 6 0.000000 0.000000 0.000000 0.002897 0.000000 0.145095
#
#
# Mechanical properties :
#
#
# Convention : Reuss Voigt Hill
#
# Bulk Modulus (GPa) = 40.98187 44.62747 42.80467
# Shear Modulus (GPa) = 17.88831 26.88928 22.38879
#
# Velocity S-wave (km/s) = 2.86182 3.50870 3.20164
# Velocity P-wave (km/s) = 5.44823 6.07017 5.76759
#
# Compressibility (1/GPa) = 0.02440104
#
# Stress axis : x y z
#
# Youngs Moduli (GPa) = 56.43202 97.91740 79.12269
#
# Poissons Ratio (x) = 0.04000 0.34400
# Poissons Ratio (y) = 0.02305 0.26341
# Poissons Ratio (z) = 0.24535 0.32599
#
# Static dielectric constant tensor:
#      x y z
#    x 1.831890 0.000000 0.025580 
#    y 0.000000 1.933680 0.000000 
#    z 0.025580 0.000000 1.792110 
# 
# From -- ./inp_files/57039.got.cif
#   From: 2010.05.17/outbox.cif.g08.bks.cpg/sg15_29_cif.got.tgz:57039.got - 2010.06.03 18:47:42.
