data_PCOD9302747
_publ_section_title
;
Structure prediction by ZEFSAII (Michael W. Deem and Ramdas Pophale) SiO2 
 PCOD9302747
Probable space group: C 2/C
;
_chemical_formula_sum "Si O2"
_cell_formula_units_Z 44
_cell_length_a 13.912341
_cell_length_b 17.242361
_cell_length_c 8.989242
_cell_angle_alpha 90.000000
_cell_angle_beta 58.449101
_cell_angle_gamma 90.000000
_cell_volume 1837.592236
_symmetry_space_group_name_H-M "C 2/C"
_symmetry_group_IT_number 15
_symmetry_cell_setting 'monoclinic'
loop_
_space_group_symop_operation_xyz
x,y,z
-x,y,1/2-z
-x,-y,-z
x,-y,1/2+z
1/2+x,1/2+y,z
1/2-x,1/2+y,1/2-z
1/2-x,1/2-y,-z
1/2+x,1/2-y,1/2+z
loop_
_atom_site_type_symbol
_atom_site_label
_atom_site_fract_x
_atom_site_fract_y
_atom_site_fract_z
Si Si1 0.326841 0.533817 0.205825
Si Si2 0.906405 0.332483 0.055435
Si Si3 0.000000 0.597405 0.750000
Si Si4 0.827756 0.465764 0.914107
Si Si5 0.500000 0.366177 0.750000
Si Si6 0.500000 0.709837 0.750000
Si Si7 0.655971 0.357481 0.370917
O O1 0.253137 0.506616 0.403220
O O2 0.246034 0.575702 0.152567
O O3 0.427444 0.583847 0.189936
O O4 0.352814 0.451132 0.108056
O O5 0.784369 0.329340 0.237598
O O6 0.001445 0.350137 0.102114
O O7 0.899918 0.405135 0.948610
O O8 0.935096 0.260933 0.926272
O O9 0.900454 0.536825 0.794315
O O10 0.593013 0.324962 0.568961
O O11 0.411898 0.661370 0.724558
#
# Coordination Sequence:
#
# PCOD9302747 Si02
#       7
#     8   8   4   8   4   4   8
#     4  11  22  40  68 108 140 168 222 285 349 414
#     4  11  26  45  69 103 136 184 229 282 334 413
#     4  12  21  43  68 101 141 172 230 286 354 392
#     4  11  22  39  69 106 140 170 220 288 350 409
#     4  12  23  41  72 107 135 184 216 288 362 386
#     4  12  28  48  70  92 138 194 232 276 340 400
#     4  11  25  46  67 101 137 179 230 276 336 414
#
# _framework density 23.944376999999999
#
# number of rings (size 3 to 8) (size 9 to 14) (size 15 to 20)
#    0.000    0.727    5.455    2.727    7.636    0.727 
#    0.000    1.818    0.000    0.000    0.000    0.000 
#    0.000    0.000    0.000    0.000    0.000    0.000 
#
# Total GULP energy -122980.576765 kJ/mol
# GULP energy per Si atom -5590.026217 kJ/mol
# Density = 2.388988 g / cm^3
# Si number density = 23.944377 Si / 1000 Ang^3
#
#
#
# Elastic Constant Matrix: (Units=GPa)
#
#
# Indices 1 2 3 4 5 6 
#
# 1 126.8111 23.4106 26.3415 0.0000 37.1400 0.0000
# 2 23.4106 50.3576 11.9771 0.0000 11.3661 0.0000
# 3 26.3415 11.9771 104.1960 0.0000 3.7110 0.0000
# 4 0.0000 0.0000 0.0000 14.3703 0.0000 6.1024
# 5 37.1400 11.3661 3.7110 0.0000 54.2108 0.0000
# 6 0.0000 0.0000 0.0000 6.1024 0.0000 17.5896
#
#
#
# Elastic Compliance Matrix: (Units=1/GPa)
#
#
# Indices 1 2 3 4 5 6 
#
# 1 0.010838 -0.003026 -0.002155 0.000000 -0.006643 0.000000
# 2 -0.003026 0.022227 -0.001702 0.000000 -0.002470 0.000000
# 3 -0.002155 -0.001702 0.010298 0.000000 0.001129 0.000000
# 4 0.000000 0.000000 0.000000 0.081611 0.000000 -0.028313
# 5 -0.006643 -0.002470 0.001129 0.000000 0.023438 0.000000
# 6 0.000000 0.000000 0.000000 -0.028313 0.000000 0.066675
#
#
# Mechanical properties :
#
#
# Convention : Reuss Voigt Hill
#
# Bulk Modulus (GPa) = 33.78908 44.98033 39.38470
# Shear Modulus (GPa) = 20.94514 31.87654 26.41084
#
# Velocity S-wave (km/s) = 2.96081 3.65262 3.32476
# Velocity P-wave (km/s) = 5.08239 6.05103 5.58774
#
# Compressibility (1/GPa) = 0.02959536
#
# Stress axis : x y z
#
# Youngs Moduli (GPa) = 92.27055 44.98984 97.10977
#
# Poissons Ratio (x) = 0.13615 0.20931
# Poissons Ratio (y) = 0.27924 0.16527
# Poissons Ratio (z) = 0.19888 0.07657
#
# Static dielectric constant tensor:
#      x y z
#    x 1.976800 0.000000 -0.042250 
#    y 0.000000 1.947670 0.000000 
#    z -0.042250 0.000000 1.956650 
# 
# From -- ./inp_files/30782.got.cif
#   From: 2010.05.17/outbox.cif.g08.bks.cpg/sg15_16_cif.got.tgz:30782.got - 2010.06.03 18:47:42.
