data_PCOD9302348
_publ_section_title
;
Structure prediction by ZEFSAII (Michael W. Deem and Ramdas Pophale) SiO2 
 PCOD9302348
Probable space group: C 2/C
;
_chemical_formula_sum "Si O2"
_cell_formula_units_Z 56
_cell_length_a 13.780929
_cell_length_b 19.004254
_cell_length_c 18.138573
_cell_angle_alpha 90.000000
_cell_angle_beta 144.654216
_cell_angle_gamma 90.000000
_cell_volume 2748.166297
_symmetry_space_group_name_H-M "C 2/C"
_symmetry_group_IT_number 15
_symmetry_cell_setting 'monoclinic'
loop_
_space_group_symop_operation_xyz
x,y,z
-x,y,1/2-z
-x,-y,-z
x,-y,1/2+z
1/2+x,1/2+y,z
1/2-x,1/2+y,1/2-z
1/2-x,1/2-y,-z
1/2+x,1/2-y,1/2+z
loop_
_atom_site_type_symbol
_atom_site_label
_atom_site_fract_x
_atom_site_fract_y
_atom_site_fract_z
Si Si1 0.509257 0.825129 0.545227
Si Si2 0.499433 0.663415 0.547740
Si Si3 0.152730 0.537325 0.935170
Si Si4 0.642421 0.871490 0.897780
Si Si5 0.655630 0.901221 0.185771
Si Si6 0.974530 0.942129 0.549518
Si Si7 0.243425 0.456565 0.661594
O O1 0.556233 0.743778 0.578599
O O2 0.397381 0.838974 0.547755
O O3 0.408423 0.840166 0.407727
O O4 0.652168 0.885159 0.631732
O O5 0.329068 0.650271 0.487999
O O6 0.658027 0.618544 0.674636
O O7 0.461068 0.630651 0.444216
O O8 0.126855 0.455634 0.899007
O O9 0.980647 0.580897 0.835937
O O10 0.283712 0.564261 0.956364
O O11 0.235060 0.541733 0.068152
O O12 0.500000 0.849931 0.750000
O O13 0.654818 0.973209 0.137557
O O14 0.078909 0.960081 0.687219
O O15 0.000000 0.000000 0.500000
#
# Coordination Sequence:
#
# PCOD9302348 Si02
#       7
#     8   8   8   8   8   8   8
#     4  11  25  45  68  96 138 182 221 278 352 404
#     4  12  28  42  64 106 137 176 218 286 347 398
#     4  11  23  42  70 103 127 179 232 277 337 397
#     4  12  24  41  70 101 139 173 223 281 338 410
#     4  11  23  44  71  94 134 181 229 276 328 412
#     4  12  24  40  69 104 135 172 225 285 334 396
#     4  11  21  46  70  96 133 178 231 277 331 408
#
# _framework density 20.377223000000001
#
# number of rings (size 3 to 8) (size 9 to 14) (size 15 to 20)
#    0.000    0.571    5.714    2.571    6.000    0.571 
#    0.000    2.857    6.286    0.000    0.000    0.000 
#    0.000    0.000    0.000    0.000    0.000    0.000 
#
# Total GULP energy -156419.440203 kJ/mol
# GULP energy per Si atom -5586.408579 kJ/mol
# Density = 2.033084 g / cm^3
# Si number density = 20.377223 Si / 1000 Ang^3
#
#
#
# Elastic Constant Matrix: (Units=GPa)
#
#
# Indices 1 2 3 4 5 6 
#
# 1 126.2643 36.0638 31.5231 0.0002 21.4581 0.0000
# 2 36.0638 122.4270 18.8024 0.0008 8.4544 0.0002
# 3 31.5231 18.8024 122.1816 0.0024 5.5898 0.0006
# 4 0.0002 0.0008 0.0024 20.2796 0.0009 -0.5325
# 5 21.4581 8.4544 5.5898 0.0009 25.2264 0.0001
# 6 0.0000 0.0002 0.0006 -0.5325 0.0001 6.3367
#
#
#
# Elastic Compliance Matrix: (Units=1/GPa)
#
#
# Indices 1 2 3 4 5 6 
#
# 1 0.010341 -0.002216 -0.001979 0.000001 -0.007615 0.000000
# 2 -0.002216 0.009006 -0.000770 0.000000 -0.000962 0.000000
# 3 -0.001979 -0.000770 0.008814 -0.000001 -0.000012 -0.000001
# 4 0.000001 0.000000 -0.000001 0.049420 -0.000002 0.004153
# 5 -0.007615 -0.000962 -0.000012 -0.000002 0.046444 -0.000001
# 6 0.000000 0.000000 -0.000001 0.004153 -0.000001 0.158159
#
#
# Mechanical properties :
#
#
# Convention : Reuss Voigt Hill
#
# Bulk Modulus (GPa) = 54.85208 60.40570 57.62889
# Shear Modulus (GPa) = 16.76782 29.33411 23.05097
#
# Velocity S-wave (km/s) = 2.87168 3.79826 3.36700
# Velocity P-wave (km/s) = 6.16216 6.99599 6.59227
#
# Compressibility (1/GPa) = 0.01823085
#
# Stress axis : x y z
#
# Youngs Moduli (GPa) = 96.70163 111.04013 113.45517
#
# Poissons Ratio (x) = 0.24612 0.22448
# Poissons Ratio (y) = 0.21434 0.08736
# Poissons Ratio (z) = 0.19133 0.08550
#
# Static dielectric constant tensor:
#      x y z
#    x 1.710980 0.000000 -0.003200 
#    y 0.000000 1.736530 0.000000 
#    z -0.003200 0.000000 1.806940 
# 
# From -- ./inp_files/245192.got.cif
#   From: 2010.05.17/outbox.cif.g08.bks.cpg/sg15_123_cif.got.tgz:245192.got - 2010.06.03 18:47:42.
