data_PCOD9302033
_publ_section_title
;
Structure prediction by ZEFSAII (Michael W. Deem and Ramdas Pophale) SiO2 
 PCOD9302033
Probable space group: C 2/C
;
_chemical_formula_sum "Si O2"
_cell_formula_units_Z 48
_cell_length_a 20.648120
_cell_length_b 8.766652
_cell_length_c 11.390445
_cell_angle_alpha 90.000000
_cell_angle_beta 122.396527
_cell_angle_gamma 90.000000
_cell_volume 1740.936107
_symmetry_space_group_name_H-M "C 2/C"
_symmetry_group_IT_number 15
_symmetry_cell_setting 'monoclinic'
loop_
_space_group_symop_operation_xyz
x,y,z
-x,y,1/2-z
-x,-y,-z
x,-y,1/2+z
1/2+x,1/2+y,z
1/2-x,1/2+y,1/2-z
1/2-x,1/2-y,-z
1/2+x,1/2-y,1/2+z
loop_
_atom_site_type_symbol
_atom_site_label
_atom_site_fract_x
_atom_site_fract_y
_atom_site_fract_z
Si Si1 0.527906 0.589444 0.408744
Si Si2 0.587471 0.838174 0.800932
Si Si3 0.913825 0.660456 0.805756
Si Si4 0.310947 0.910229 0.410433
Si Si5 0.166912 0.771715 0.145679
Si Si6 0.280857 0.376108 0.614071
O O1 0.500000 0.536397 0.250000
O O2 0.500000 0.500000 0.500000
O O3 0.496164 0.762932 0.386021
O O4 0.619092 0.620472 0.511148
O O5 0.500000 0.806811 0.750000
O O6 0.614588 0.762306 0.706137
O O7 0.595635 0.024799 0.797347
O O8 0.644521 0.793618 0.958635
O O9 0.889161 0.581788 0.900638
O O10 0.860428 0.813175 0.735972
O O11 0.247844 0.847635 0.254181
O O12 0.239602 0.957464 0.441198
O O13 0.202091 0.613413 0.124609
O O14 0.250000 0.250000 0.500000
#
# Coordination Sequence:
#
# PCOD9302033 Si02
#       6
#     8   8   8   8   8   8
#     4  12  28  50  76 109 153 208 264 327 403 481
#     4  12  25  43  73 111 157 203 259 324 396 474
#     4  11  24  42  72 110 147 202 261 320 397 471
#     4  11  24  44  72 109 154 203 262 329 391 471
#     4  11  26  45  69 107 150 199 257 321 396 468
#     4  11  21  41  68 100 141 194 255 313 386 464
#
# _framework density 27.571373999999999
#
# number of rings (size 3 to 8) (size 9 to 14) (size 15 to 20)
#    0.000    0.667    3.333    4.000    2.333    3.333 
#    0.000    0.000    0.000    0.000    0.000    0.000 
#    0.000    0.000    0.000    0.000    0.000    0.000 
#
# Total GULP energy -133728.869071 kJ/mol
# GULP energy per Si atom -5572.036211 kJ/mol
# Density = 2.750862 g / cm^3
# Si number density = 27.571374 Si / 1000 Ang^3
#
#
#
# Elastic Constant Matrix: (Units=GPa)
#
#
# Indices 1 2 3 4 5 6 
#
# 1 120.8112 37.3278 28.5537 0.0000 -11.4424 0.0000
# 2 37.3278 77.7945 27.4742 0.0000 -3.9499 0.0000
# 3 28.5537 27.4742 153.2327 0.0000 3.3306 0.0000
# 4 0.0000 0.0000 0.0000 20.2717 0.0000 -2.3652
# 5 -11.4424 -3.9499 3.3306 0.0000 42.3698 0.0000
# 6 0.0000 0.0000 0.0000 -2.3652 0.0000 70.4633
#
#
#
# Elastic Compliance Matrix: (Units=1/GPa)
#
#
# Indices 1 2 3 4 5 6 
#
# 1 0.010116 -0.004320 -0.001163 0.000000 0.002421 0.000000
# 2 -0.004320 0.015661 -0.002013 0.000000 0.000451 0.000000
# 3 -0.001163 -0.002013 0.007127 0.000000 -0.001062 0.000000
# 4 0.000000 0.000000 0.000000 0.049524 0.000000 0.001662
# 5 0.002421 0.000451 -0.001062 0.000000 0.024381 0.000000
# 6 0.000000 0.000000 0.000000 0.001662 0.000000 0.014248
#
#
# Mechanical properties :
#
#
# Convention : Reuss Voigt Hill
#
# Bulk Modulus (GPa) = 55.82919 59.83889 57.83404
# Shear Modulus (GPa) = 35.20631 43.85314 39.52973
#
# Velocity S-wave (km/s) = 3.57727 3.99247 3.79056
# Velocity P-wave (km/s) = 6.11191 6.55771 6.33873
#
# Compressibility (1/GPa) = 0.01791178
#
# Stress axis : x y z
#
# Youngs Moduli (GPa) = 98.84869 63.85206 140.31710
#
# Poissons Ratio (x) = 0.27587 0.16320
# Poissons Ratio (y) = 0.42707 0.28242
# Poissons Ratio (z) = 0.11497 0.12852
#
# Static dielectric constant tensor:
#      x y z
#    x 2.461280 0.000000 -0.134650 
#    y 0.000000 2.491780 0.000000 
#    z -0.134650 0.000000 2.237730 
# 
# From -- ./inp_files/111784.got.cif
#   From: 2010.05.17/outbox.cif.g08.bks.cpg/sg15_56_cif.got.tgz:111784.got - 2010.06.03 18:47:42.
