data_PCOD9302616
_publ_section_title
;
Structure prediction by ZEFSAII (Michael W. Deem and Ramdas Pophale) SiO2 
 PCOD9302616
Probable space group: C 2/C
;
_chemical_formula_sum "Si O2"
_cell_formula_units_Z 48
_cell_length_a 16.404768
_cell_length_b 17.084521
_cell_length_c 18.712985
_cell_angle_alpha 90.000000
_cell_angle_beta 155.470444
_cell_angle_gamma 90.000000
_cell_volume 2177.379765
_symmetry_space_group_name_H-M "C 2/C"
_symmetry_group_IT_number 15
_symmetry_cell_setting 'monoclinic'
loop_
_space_group_symop_operation_xyz
x,y,z
-x,y,1/2-z
-x,-y,-z
x,-y,1/2+z
1/2+x,1/2+y,z
1/2-x,1/2+y,1/2-z
1/2-x,1/2-y,-z
1/2+x,1/2-y,1/2+z
loop_
_atom_site_type_symbol
_atom_site_label
_atom_site_fract_x
_atom_site_fract_y
_atom_site_fract_z
Si Si1 0.663878 0.173457 0.054830
Si Si2 0.536406 0.656893 0.444143
Si Si3 0.884826 0.418115 0.425780
Si Si4 0.983182 0.591164 0.311247
Si Si5 0.309434 0.073560 0.560153
Si Si6 0.021314 0.073056 0.964396
O O1 0.817791 0.164461 0.240943
O O2 0.645561 0.262221 0.015299
O O3 0.460603 0.140001 0.924162
O O4 0.735704 0.120124 0.047239
O O5 0.639619 0.586713 0.482470
O O6 0.529005 0.644560 0.522625
O O7 0.946416 0.386238 0.553123
O O8 0.650671 0.430185 0.231554
O O9 0.000000 0.500000 0.500000
O O10 0.115098 0.512661 0.402073
O O11 0.000000 0.639262 0.250000
O O12 0.750047 0.576167 0.128390
O O13 0.500000 0.110636 0.750000
O O14 0.000000 0.000000 0.000000
#
# Coordination Sequence:
#
# PCOD9302616 Si02
#       6
#     8   8   8   8   8   8
#     4  12  23  42  64  97 137 181 219 268 336 404
#     4  12  25  40  65  98 135 180 218 273 336 406
#     4  12  22  41  67  96 130 175 226 271 327 395
#     4  11  24  42  65  95 131 172 224 280 326 382
#     4  11  22  39  58  93 138 175 218 264 327 404
#     4  12  22  41  65  94 129 174 225 276 329 391
#
# _framework density 22.044844999999999
#
# number of rings (size 3 to 8) (size 9 to 14) (size 15 to 20)
#    0.000    0.333    5.000    6.000    0.000    0.667 
#    6.000    0.000    0.000    1.000    0.000    0.000 
#    0.000    0.000    0.000    0.000    0.000    0.000 
#
# Total GULP energy -134014.884307 kJ/mol
# GULP energy per Si atom -5583.953513 kJ/mol
# Density = 2.199467 g / cm^3
# Si number density = 22.044845 Si / 1000 Ang^3
#
#
#
# Elastic Constant Matrix: (Units=GPa)
#
#
# Indices 1 2 3 4 5 6 
#
# 1 114.8608 0.6075 18.6117 0.0045 -0.8683 -0.0022
# 2 0.6075 24.7823 -4.7655 0.0048 5.3991 -0.0032
# 3 18.6117 -4.7655 141.9850 0.0221 -3.8825 0.0031
# 4 0.0045 0.0048 0.0221 18.1383 0.0078 0.2994
# 5 -0.8683 5.3991 -3.8825 0.0078 47.3442 -0.0010
# 6 -0.0022 -0.0032 0.0031 0.2994 -0.0010 14.6517
#
#
#
# Elastic Compliance Matrix: (Units=1/GPa)
#
#
# Indices 1 2 3 4 5 6 
#
# 1 0.008901 -0.000471 -0.001179 -0.000001 0.000120 0.000002
# 2 -0.000471 0.041631 0.001332 -0.000011 -0.004647 0.000009
# 3 -0.001179 0.001332 0.007254 -0.000009 0.000421 -0.000001
# 4 -0.000001 -0.000011 -0.000009 0.055151 -0.000009 -0.001127
# 5 0.000120 -0.004647 0.000421 -0.000009 0.021689 0.000001
# 6 0.000002 0.000009 -0.000001 -0.001127 0.000001 0.068274
#
#
# Mechanical properties :
#
#
# Convention : Reuss Voigt Hill
#
# Bulk Modulus (GPa) = 17.49807 34.50392 26.00100
# Shear Modulus (GPa) = 22.46322 33.83848 28.15085
#
# Velocity S-wave (km/s) = 3.19561 3.92214 3.57736
# Velocity P-wave (km/s) = 4.64442 6.01636 5.37434
#
# Compressibility (1/GPa) = 0.05714915
#
# Stress axis : x y z
#
# Youngs Moduli (GPa) = 112.35105 24.02029 137.85866
#
# Poissons Ratio (x) = 0.01132 0.16257
# Poissons Ratio (y) = 0.05293 -0.18363
# Poissons Ratio (z) = 0.13249 -0.03199
#
# Static dielectric constant tensor:
#      x y z
#    x 1.382040 0.000030 -0.057760 
#    y 0.000030 1.865040 0.000000 
#    z -0.057760 0.000000 1.786260 
# 
# From -- ./inp_files/249764.got.cif
#   From: 2010.05.17/outbox.cif.g08.bks.cpg/sg15_125_cif.got.tgz:249764.got - 2010.06.03 18:47:42.
