data_PCOD9302805
_publ_section_title
;
Structure prediction by ZEFSAII (Michael W. Deem and Ramdas Pophale) SiO2 
 PCOD9302805
Probable space group: C 2/C
;
_chemical_formula_sum "Si O2"
_cell_formula_units_Z 52
_cell_length_a 17.084263
_cell_length_b 18.112636
_cell_length_c 9.734552
_cell_angle_alpha 90.000000
_cell_angle_beta 57.895930
_cell_angle_gamma 90.000000
_cell_volume 2551.646124
_symmetry_space_group_name_H-M "C 2/C"
_symmetry_group_IT_number 15
_symmetry_cell_setting 'monoclinic'
loop_
_space_group_symop_operation_xyz
x,y,z
-x,y,1/2-z
-x,-y,-z
x,-y,1/2+z
1/2+x,1/2+y,z
1/2-x,1/2+y,1/2-z
1/2-x,1/2-y,-z
1/2+x,1/2-y,1/2+z
loop_
_atom_site_type_symbol
_atom_site_label
_atom_site_fract_x
_atom_site_fract_y
_atom_site_fract_z
Si Si1 0.500000 0.400506 0.250000
Si Si2 0.611736 0.342069 0.920705
Si Si3 0.007661 0.711325 0.579964
Si Si4 0.719448 0.191786 0.411838
Si Si5 0.634588 0.490538 0.302820
Si Si6 0.946242 0.448726 0.155563
Si Si7 0.748979 0.039627 0.546624
O O1 0.416316 0.355340 0.395874
O O2 0.545795 0.450228 0.324957
O O3 0.534769 0.284913 0.942209
O O4 0.708826 0.308545 0.780912
O O5 0.613650 0.422898 0.847780
O O6 0.116366 0.702440 0.452287
O O7 0.000000 0.719815 0.750000
O O8 0.951617 0.636144 0.597444
O O9 0.750000 0.250000 0.500000
O O10 0.725100 0.114854 0.489458
O O11 0.672057 0.456848 0.410211
O O12 0.712708 0.487211 0.109848
O O13 0.844343 0.479226 0.284021
O O14 0.000000 0.448058 0.250000
O O15 0.000000 0.500000 0.000000
#
# Coordination Sequence:
#
# PCOD9302805 Si02
#       7
#     4   8   8   8   8   8   8
#     4  12  26  44  60 100 142 184 232 280 354 410
#     4  11  25  42  68  96 139 178 227 290 342 412
#     4  11  22  42  67  99 130 173 232 279 336 409
#     4  11  22  40  70  97 126 174 229 279 336 404
#     4  11  25  40  67  98 138 180 229 282 346 412
#     4  11  22  41  67  97 133 172 225 287 342 409
#     4  11  22  40  64  98 134 174 230 282 338 407
#
# _framework density 20.379002
#
# number of rings (size 3 to 8) (size 9 to 14) (size 15 to 20)
#    0.000    0.923    6.154    1.385    5.385    0.000 
#    1.385    0.769    0.000    0.000    0.000    0.000 
#    0.000    0.000    0.000    0.000    0.000    0.000 
#
# Total GULP energy -145132.771856 kJ/mol
# GULP energy per Si atom -5582.029687 kJ/mol
# Density = 2.033262 g / cm^3
# Si number density = 20.379002 Si / 1000 Ang^3
#
#
#
# Elastic Constant Matrix: (Units=GPa)
#
#
# Indices 1 2 3 4 5 6 
#
# 1 88.9104 17.0128 25.7395 0.0000 -15.0873 0.0000
# 2 17.0128 55.0991 16.8557 0.0000 -10.4070 0.0000
# 3 25.7395 16.8557 133.1295 0.0000 -32.6086 0.0000
# 4 0.0000 0.0000 0.0000 15.0405 0.0000 -8.6791
# 5 -15.0873 -10.4070 -32.6086 0.0000 36.0705 0.0000
# 6 0.0000 0.0000 0.0000 -8.6791 0.0000 26.4311
#
#
#
# Elastic Compliance Matrix: (Units=1/GPa)
#
#
# Indices 1 2 3 4 5 6 
#
# 1 0.012740 -0.002913 -0.001278 0.000000 0.003333 0.000000
# 2 -0.002913 0.020061 -0.001101 0.000000 0.003574 0.000000
# 3 -0.001278 -0.001101 0.009876 0.000000 0.008076 0.000000
# 4 0.000000 0.000000 0.000000 0.082031 0.000000 0.026936
# 5 0.003333 0.003574 0.008076 0.000000 0.037450 0.000000
# 6 0.000000 0.000000 0.000000 0.026936 0.000000 0.046679
#
#
# Mechanical properties :
#
#
# Convention : Reuss Voigt Hill
#
# Bulk Modulus (GPa) = 31.16060 44.03943 37.60002
# Shear Modulus (GPa) = 21.72790 30.01047 25.86918
#
# Velocity S-wave (km/s) = 3.26880 3.84163 3.56673
# Velocity P-wave (km/s) = 5.43787 6.42920 5.95420
#
# Compressibility (1/GPa) = 0.03209181
#
# Stress axis : x y z
#
# Youngs Moduli (GPa) = 78.49111 49.84909 101.25426
#
# Poissons Ratio (x) = 0.14523 0.12940
# Poissons Ratio (y) = 0.22867 0.11151
# Poissons Ratio (z) = 0.10031 0.05490
#
# Static dielectric constant tensor:
#      x y z
#    x 1.738290 0.000000 -0.061270 
#    y 0.000000 1.765850 0.000000 
#    z -0.061270 0.000000 1.766540 
# 
# From -- ./inp_files/48944.got.cif
#   From: 2010.05.17/outbox.cif.g08.bks.cpg/sg15_25_cif.got.tgz:48944.got - 2010.06.03 18:47:42.
