data_PCOD9302525
_publ_section_title
;
Structure prediction by ZEFSAII (Michael W. Deem and Ramdas Pophale) SiO2 
 PCOD9302525
Probable space group: C 2/C
;
_chemical_formula_sum "Si O2"
_cell_formula_units_Z 40
_cell_length_a 13.032583
_cell_length_b 26.561884
_cell_length_c 8.255456
_cell_angle_alpha 90.000000
_cell_angle_beta 129.305344
_cell_angle_gamma 90.000000
_cell_volume 2211.304640
_symmetry_space_group_name_H-M "C 2/C"
_symmetry_group_IT_number 15
_symmetry_cell_setting 'monoclinic'
loop_
_space_group_symop_operation_xyz
x,y,z
-x,y,1/2-z
-x,-y,-z
x,-y,1/2+z
1/2+x,1/2+y,z
1/2-x,1/2+y,1/2-z
1/2-x,1/2-y,-z
1/2+x,1/2-y,1/2+z
loop_
_atom_site_type_symbol
_atom_site_label
_atom_site_fract_x
_atom_site_fract_y
_atom_site_fract_z
Si Si1 0.999999 0.165681 0.551481
Si Si2 0.212104 0.363532 0.157574
Si Si3 0.000001 0.718281 0.447347
Si Si4 0.999998 0.442832 0.441731
Si Si5 0.212102 0.636469 0.266635
O O1 0.863393 0.139884 0.361363
O O2 0.000000 0.165492 0.750000
O O3 0.136604 0.139884 0.634573
O O4 0.999998 0.224154 0.499540
O O5 0.128161 0.411818 0.126064
O O6 0.212891 0.362831 0.962893
O O7 0.128209 0.314191 0.125989
O O8 0.871792 0.685810 0.369569
O O9 0.000000 0.719291 0.250000
O O10 0.000000 0.441953 0.250000
O O11 0.000000 0.500000 0.500000
O O12 0.128157 0.411818 0.630258
#
# Coordination Sequence:
#
# PCOD9302525 Si02
#       5
#     8   8   8   8   8
#     4   9  15  25  47  79 110 136 163 199 238 279
#     4   9  17  30  50  77 105 132 166 203 240 284
#     4   8  13  23  44  75 108 139 169 198 228 271
#     4  11  22  38  57  72  90 121 164 209 255 302
#     4   9  17  30  50  77 105 132 166 203 240 284
#
# _framework density 18.088868999999999
#
# number of rings (size 3 to 8) (size 9 to 14) (size 15 to 20)
#    0.000    2.800    0.000    4.200    0.000    4.800 
#    0.000    2.000    0.000   19.200    0.000    0.000 
#    0.000    0.000    0.000    0.000    0.000    0.000 
#
# Total GULP energy -111523.336566 kJ/mol
# GULP energy per Si atom -5576.166828 kJ/mol
# Density = 1.804770 g / cm^3
# Si number density = 18.088869 Si / 1000 Ang^3
#
#
#
# Elastic Constant Matrix: (Units=GPa)
#
#
# Indices 1 2 3 4 5 6 
#
# 1 83.8047 56.3367 59.7391 0.0000 51.4791 0.0000
# 2 56.3367 143.3581 52.1715 0.0000 44.0218 0.0000
# 3 59.7391 52.1715 74.3643 0.0000 48.2999 0.0000
# 4 0.0000 0.0000 0.0000 11.9223 0.0000 -6.7816
# 5 51.4791 44.0218 48.2999 0.0000 43.2051 0.0000
# 6 0.0000 0.0000 0.0000 -6.7816 0.0000 11.2822
#
#
#
# Elastic Compliance Matrix: (Units=1/GPa)
#
#
# Indices 1 2 3 4 5 6 
#
# 1 0.045245 -0.001645 -0.004624 0.000000 -0.047064 0.000000
# 2 -0.001645 0.010256 -0.001313 0.000000 -0.007022 0.000000
# 3 -0.004624 -0.001313 0.049782 0.000000 -0.048805 0.000000
# 4 0.000000 0.000000 0.000000 0.127455 0.000000 0.076612
# 5 -0.047064 -0.007022 -0.048805 0.000000 0.140937 0.000000
# 6 0.000000 0.000000 0.000000 0.076612 0.000000 0.134686
#
#
# Mechanical properties :
#
#
# Convention : Reuss Voigt Hill
#
# Bulk Modulus (GPa) = 11.09649 70.89129 40.99389
# Shear Modulus (GPa) = 9.03233 22.16723 15.59978
#
# Velocity S-wave (km/s) = 2.23700 3.50446 2.93985
# Velocity P-wave (km/s) = 3.58050 7.45993 5.85109
#
# Compressibility (1/GPa) = 0.09011855
#
# Stress axis : x y z
#
# Youngs Moduli (GPa) = 22.10186 97.50230 20.08741
#
# Poissons Ratio (x) = 0.16042 0.09289
# Poissons Ratio (y) = 0.03636 0.02637
# Poissons Ratio (z) = 0.10221 0.12800
#
# Static dielectric constant tensor:
#      x y z
#    x 1.638440 0.000000 0.004360 
#    y 0.000000 1.396760 0.000000 
#    z 0.004360 0.000000 1.638030 
# 
# From -- ./inp_files/32292.got.cif
#   From: 2010.05.17/outbox.cif.g08.bks.cpg/sg15_17_cif.got.tgz:32292.got - 2010.06.03 18:47:42.
