data_PCOD9302918
_publ_section_title
;
Structure prediction by ZEFSAII (Michael W. Deem and Ramdas Pophale) SiO2 
 PCOD9302918
Probable space group: C 2/C
;
_chemical_formula_sum "Si O2"
_cell_formula_units_Z 52
_cell_length_a 15.060180
_cell_length_b 11.330880
_cell_length_c 15.271402
_cell_angle_alpha 90.000000
_cell_angle_beta 68.946965
_cell_angle_gamma 90.000000
_cell_volume 2432.035577
_symmetry_space_group_name_H-M "C 2/C"
_symmetry_group_IT_number 15
_symmetry_cell_setting 'monoclinic'
loop_
_space_group_symop_operation_xyz
x,y,z
-x,y,1/2-z
-x,-y,-z
x,-y,1/2+z
1/2+x,1/2+y,z
1/2-x,1/2+y,1/2-z
1/2-x,1/2-y,-z
1/2+x,1/2-y,1/2+z
loop_
_atom_site_type_symbol
_atom_site_label
_atom_site_fract_x
_atom_site_fract_y
_atom_site_fract_z
Si Si1 0.649532 0.014450 0.717791
Si Si2 0.298726 0.514930 0.818954
Si Si3 0.598733 0.283262 0.676342
Si Si4 0.532810 0.828698 0.876155
Si Si5 0.650552 0.781721 0.987270
Si Si6 0.000000 0.138477 0.750000
Si Si7 0.845877 0.554926 0.480979
O O1 0.737797 0.026283 0.752488
O O2 0.618609 0.148507 0.702237
O O3 0.573661 0.936193 0.801210
O O4 0.672483 0.946689 0.617898
O O5 0.317843 0.375480 0.830192
O O6 0.402883 0.568196 0.774176
O O7 0.240822 0.575712 0.920544
O O8 0.500000 0.323109 0.750000
O O9 0.582192 0.285930 0.577860
O O10 0.618671 0.767516 0.899521
O O11 0.488526 0.726244 0.834651
O O12 0.443398 0.875597 0.963934
O O13 0.750000 0.750000 0.000000
O O14 0.632847 0.919232 0.006190
#
# Coordination Sequence:
#
# PCOD9302918 Si02
#       7
#     8   8   8   8   8   4   8
#     4  11  24  43  75 101 137 185 230 290 344 415
#     4  12  27  46  69 101 146 183 230 295 355 419
#     4  11  24  44  66 102 137 179 233 279 347 419
#     4  12  24  48  70 104 142 183 234 293 348 407
#     4  11  22  40  72 105 134 179 229 287 338 411
#     4  12  30  48  64 100 150 186 224 288 372 416
#     4  11  23  42  71 105 132 175 241 283 343 418
#
# _framework density 21.381266
#
# number of rings (size 3 to 8) (size 9 to 14) (size 15 to 20)
#    0.000    0.615    5.385    2.308    8.615    0.615 
#    2.769    1.538    0.000    0.000    0.000    0.000 
#    0.000    0.000    0.000    0.000    0.000    0.000 
#
# Total GULP energy -144918.121690 kJ/mol
# GULP energy per Si atom -5573.773911 kJ/mol
# Density = 2.133260 g / cm^3
# Si number density = 21.381266 Si / 1000 Ang^3
#
#
#
# Elastic Constant Matrix: (Units=GPa)
#
#
# Indices 1 2 3 4 5 6 
#
# 1 134.8481 34.4468 39.1105 0.0000 0.7097 0.0000
# 2 34.4468 66.8607 -1.3411 0.0000 4.1977 0.0000
# 3 39.1105 -1.3411 70.6214 0.0000 -3.9135 0.0000
# 4 0.0000 0.0000 0.0000 3.9195 0.0000 4.0154
# 5 0.7097 4.1977 -3.9135 0.0000 45.5093 0.0000
# 6 0.0000 0.0000 0.0000 4.0154 0.0000 28.4410
#
#
#
# Elastic Compliance Matrix: (Units=1/GPa)
#
#
# Indices 1 2 3 4 5 6 
#
# 1 0.010565 -0.005553 -0.005966 0.000000 -0.000166 0.000000
# 2 -0.005553 0.017965 0.003345 0.000000 -0.001283 0.000000
# 3 -0.005966 0.003345 0.017599 0.000000 0.001298 0.000000
# 4 0.000000 0.000000 0.000000 0.298276 0.000000 -0.042112
# 5 -0.000166 -0.001283 0.001298 0.000000 0.022206 0.000000
# 6 0.000000 0.000000 0.000000 -0.042112 0.000000 0.041106
#
#
# Mechanical properties :
#
#
# Convention : Reuss Voigt Hill
#
# Bulk Modulus (GPa) = 33.57618 46.30694 39.94156
# Shear Modulus (GPa) = 11.52097 28.91490 20.21793
#
# Velocity S-wave (km/s) = 2.32380 3.68142 3.07838
# Velocity P-wave (km/s) = 4.78933 6.30676 5.59968
#
# Compressibility (1/GPa) = 0.02978302
#
# Stress axis : x y z
#
# Youngs Moduli (GPa) = 94.64987 55.66452 56.82044
#
# Poissons Ratio (x) = 0.30908 0.33897
# Poissons Ratio (y) = 0.52554 -0.19007
# Poissons Ratio (z) = 0.56465 -0.18620
#
# Static dielectric constant tensor:
#      x y z
#    x 1.854900 0.000000 -0.031720 
#    y 0.000000 1.773000 0.000000 
#    z -0.031720 0.000000 1.919560 
# 
# From -- ./inp_files/152569.got.cif
#   From: 2010.05.17/outbox.cif.g08.bks.cpg/sg15_77_cif.got.tgz:152569.got - 2010.06.03 18:47:42.
