data_PCOD9302532
_publ_section_title
;
Structure prediction by ZEFSAII (Michael W. Deem and Ramdas Pophale) SiO2 
 PCOD9302532
Probable space group: C 2/C
;
_chemical_formula_sum "Si O2"
_cell_formula_units_Z 56
_cell_length_a 24.762538
_cell_length_b 14.210290
_cell_length_c 24.349651
_cell_angle_alpha 90.000000
_cell_angle_beta 159.731145
_cell_angle_gamma 90.000000
_cell_volume 2968.253855
_symmetry_space_group_name_H-M "C 2/C"
_symmetry_group_IT_number 15
_symmetry_cell_setting 'monoclinic'
loop_
_space_group_symop_operation_xyz
x,y,z
-x,y,1/2-z
-x,-y,-z
x,-y,1/2+z
1/2+x,1/2+y,z
1/2-x,1/2+y,1/2-z
1/2-x,1/2-y,-z
1/2+x,1/2-y,1/2+z
loop_
_atom_site_type_symbol
_atom_site_label
_atom_site_fract_x
_atom_site_fract_y
_atom_site_fract_z
Si Si1 0.630252 0.090775 0.065856
Si Si2 0.134283 0.910824 0.501306
Si Si3 0.184044 0.769491 0.176921
Si Si4 0.771298 0.472184 0.233905
Si Si5 0.813787 0.356947 0.565721
Si Si6 0.908386 0.278422 0.478471
Si Si7 0.230078 0.056701 0.869205
O O1 0.658010 0.200793 0.101636
O O2 0.708748 0.039951 0.194246
O O3 0.711713 0.046670 0.090738
O O4 0.447516 0.064191 0.890668
O O5 0.236010 0.910029 0.543156
O O6 0.135895 0.802930 0.522564
O O7 0.953148 0.934153 0.317615
O O8 0.203211 0.973799 0.616337
O O9 0.166624 0.880304 0.148545
O O10 0.356236 0.759804 0.366186
O O11 0.091328 0.729708 0.142027
O O12 0.750000 0.250000 0.500000
O O13 0.767386 0.410278 0.465866
O O14 0.000000 0.353140 0.750000
O O15 0.833879 0.374540 0.428670
#
# Coordination Sequence:
#
# PCOD9302532 Si02
#       7
#     8   8   8   8   8   8   8
#     4  11  22  38  59  88 125 164 203 252 305 365
#     4  12  25  39  62  90 124 162 207 254 303 367
#     4  12  23  38  57  90 128 165 204 242 307 363
#     4  11  23  38  60  88 123 165 205 250 307 362
#     4  12  26  42  64  89 122 162 205 252 307 364
#     4  12  22  35  58  89 127 162 199 248 296 368
#     4  12  25  40  61  91 123 163 206 254 306 362
#
# _framework density 18.866311
#
# number of rings (size 3 to 8) (size 9 to 14) (size 15 to 20)
#    0.000    0.286    7.143    3.000    4.000    1.143 
#    0.000    0.000    0.000    0.857    0.000    0.000 
#    0.000    0.000    0.000    0.000    0.000    0.000 
#
# Total GULP energy -156407.397318 kJ/mol
# GULP energy per Si atom -5585.978476 kJ/mol
# Density = 1.882337 g / cm^3
# Si number density = 18.866311 Si / 1000 Ang^3
#
#
#
# Elastic Constant Matrix: (Units=GPa)
#
#
# Indices 1 2 3 4 5 6 
#
# 1 107.2034 38.7182 43.7521 0.0033 -3.9098 0.0001
# 2 38.7182 71.6048 25.8308 0.0137 0.9494 0.0057
# 3 43.7521 25.8308 104.8838 0.0144 -3.8743 0.0046
# 4 0.0033 0.0137 0.0144 24.2380 0.0044 -6.2118
# 5 -3.9098 0.9494 -3.8743 0.0044 32.7372 0.0009
# 6 0.0001 0.0057 0.0046 -6.2118 0.0009 34.2403
#
#
#
# Elastic Compliance Matrix: (Units=1/GPa)
#
#
# Indices 1 2 3 4 5 6 
#
# 1 0.013040 -0.005621 -0.004009 0.000004 0.001246 0.000002
# 2 -0.005621 0.017777 -0.002086 -0.000009 -0.001434 -0.000004
# 3 -0.004009 -0.002086 0.011756 -0.000006 0.000973 -0.000002
# 4 0.000004 -0.000009 -0.000006 0.043269 -0.000006 0.007850
# 5 0.001246 -0.001434 0.000973 -0.000006 0.030852 -0.000002
# 6 0.000002 -0.000004 -0.000002 0.007850 -0.000002 0.030629
#
#
# Mechanical properties :
#
#
# Convention : Reuss Voigt Hill
#
# Bulk Modulus (GPa) = 52.24648 55.58827 53.91738
# Shear Modulus (GPa) = 28.22680 29.93582 29.08131
#
# Velocity S-wave (km/s) = 3.87220 3.98770 3.93038
# Velocity P-wave (km/s) = 6.90978 7.12255 7.01697
#
# Compressibility (1/GPa) = 0.01914004
#
# Stress axis : x y z
#
# Youngs Moduli (GPa) = 76.68751 56.25363 85.05940
#
# Poissons Ratio (x) = 0.31621 0.34102
# Poissons Ratio (y) = 0.43108 0.17744
# Poissons Ratio (z) = 0.30745 0.11735
#
# Static dielectric constant tensor:
#      x y z
#    x 1.653250 0.000000 0.011320 
#    y 0.000000 1.674350 0.000000 
#    z 0.011320 0.000000 1.665860 
# 
# From -- ./inp_files/61616.got.cif
#   From: 2010.05.17/outbox.cif.g08.bks.cpg/sg15_31_cif.got.tgz:61616.got - 2010.06.03 18:47:42.
