data_PCOD9302769
_publ_section_title
;
Structure prediction by ZEFSAII (Michael W. Deem and Ramdas Pophale) SiO2 
 PCOD9302769
Probable space group: C 2/C
;
_chemical_formula_sum "Si O2"
_cell_formula_units_Z 64
_cell_length_a 13.599243
_cell_length_b 22.629452
_cell_length_c 16.050914
_cell_angle_alpha 90.000000
_cell_angle_beta 148.761911
_cell_angle_gamma 90.000000
_cell_volume 2561.635315
_symmetry_space_group_name_H-M "C 2/C"
_symmetry_group_IT_number 15
_symmetry_cell_setting 'monoclinic'
loop_
_space_group_symop_operation_xyz
x,y,z
-x,y,1/2-z
-x,-y,-z
x,-y,1/2+z
1/2+x,1/2+y,z
1/2-x,1/2+y,1/2-z
1/2-x,1/2-y,-z
1/2+x,1/2-y,1/2+z
loop_
_atom_site_type_symbol
_atom_site_label
_atom_site_fract_x
_atom_site_fract_y
_atom_site_fract_z
Si Si1 0.419265 0.061044 0.603804
Si Si2 0.777949 0.053999 0.572094
Si Si3 0.923828 0.908390 0.917967
Si Si4 0.277494 0.526001 0.755089
Si Si5 0.543340 0.173278 0.966943
Si Si6 0.040259 0.227459 0.863788
Si Si7 0.359163 0.698970 0.907357
Si Si8 0.026425 0.355056 0.649163
O O1 0.500000 0.082660 0.750000
O O2 0.600669 0.031865 0.688806
O O3 0.354554 0.117530 0.502474
O O4 0.271526 0.007518 0.509462
O O5 0.703212 0.043950 0.611839
O O6 0.655167 0.108955 0.449086
O O7 0.000000 0.061591 0.750000
O O8 0.716781 0.891257 0.799322
O O9 0.875599 0.962192 0.822238
O O10 0.058650 0.932349 0.088868
O O11 0.034817 0.851691 0.963090
O O12 0.349629 0.182076 0.774622
O O13 0.638973 0.237637 0.046156
O O14 0.497103 0.156380 0.029057
O O15 0.930936 0.290189 0.784824
O O16 0.000000 0.191836 0.750000
O O17 0.982864 0.201208 0.910668
O O18 0.250000 0.250000 0.000000
#
# Coordination Sequence:
#
# PCOD9302769 Si02
#       8
#     8   8   8   8   8   8   8   8
#     4  12  26  49  72 102 140 182 241 301 364 418
#     4  12  27  42  68 104 141 183 229 286 357 432
#     4  11  22  39  74 100 133 182 236 279 352 419
#     4  11  24  46  72 101 142 183 222 288 361 420
#     4  11  23  44  70  98 136 184 234 292 350 421
#     4  11  23  37  56  90 139 179 219 273 324 401
#     4  11  22  41  67  97 130 189 236 277 353 418
#     4  11  22  41  65  97 140 186 230 275 346 422
#
# _framework density 24.98404
#
# number of rings (size 3 to 8) (size 9 to 14) (size 15 to 20)
#    0.000    0.750    3.750    4.875    3.500    4.000 
#    0.000    0.625    0.000    0.750    0.000    0.000 
#    0.000    0.000    0.000    0.000    0.000    0.000 
#
# Total GULP energy -179059.751679 kJ/mol
# GULP energy per Si atom -5595.617240 kJ/mol
# Density = 2.492717 g / cm^3
# Si number density = 24.984040 Si / 1000 Ang^3
#
#
#
# Elastic Constant Matrix: (Units=GPa)
#
#
# Indices 1 2 3 4 5 6 
#
# 1 44.4396 5.6327 1.2553 0.0000 -6.8877 0.0000
# 2 5.6327 164.9281 33.3634 0.0000 -3.1607 0.0000
# 3 1.2553 33.3634 105.3991 0.0000 20.1461 0.0000
# 4 0.0000 0.0000 0.0000 32.1220 0.0000 14.2975
# 5 -6.8877 -3.1607 20.1461 0.0000 41.0109 0.0000
# 6 0.0000 0.0000 0.0000 14.2975 0.0000 1.2562
#
#
#
# Elastic Compliance Matrix: (Units=1/GPa)
#
#
# Indices 1 2 3 4 5 6 
#
# 1 0.023266 -0.000522 -0.000939 0.000000 0.004329 0.000000
# 2 -0.000522 0.006594 -0.002386 0.000000 0.001592 0.000000
# 3 -0.000939 -0.002386 0.011389 0.000000 -0.005936 0.000000
# 4 0.000000 0.000000 0.000000 -0.007657 0.000000 0.087144
# 5 0.004329 0.001592 -0.005936 0.000000 0.028150 0.000000
# 6 0.000000 0.000000 0.000000 0.087144 0.000000 -0.195785
#
#
# Mechanical properties :
#
#
# Convention : Reuss Voigt Hill
#
# Bulk Modulus (GPa) = 29.80107 43.91884 36.85996
# Shear Modulus (GPa) = -43.41601 33.17886 -5.11858
#
# Velocity S-wave (km/s) = -4.17316 3.64813 -1.43289
# Velocity P-wave (km/s) = 3.35654 5.94660 3.47100
#
# Compressibility (1/GPa) = 0.03355584
#
# Stress axis : x y z
#
# Youngs Moduli (GPa) = 42.98122 151.64969 87.80641
#
# Poissons Ratio (x) = 0.07910 0.08248
# Poissons Ratio (y) = 0.02242 0.20946
# Poissons Ratio (z) = 0.04038 0.36176
#
# Static dielectric constant tensor:
#      x y z
#    x 1.755770 0.000000 0.045960 
#    y 0.000000 2.073940 0.000000 
#    z 0.045960 0.000000 1.933840 
# 
# From -- ./inp_files/207367.got.cif
#   From: 2010.05.17/outbox.cif.g08.bks.cpg/sg15_104_cif.got.tgz:207367.got - 2010.06.03 18:47:42.
