data_PCOD9302339
_publ_section_title
;
Structure prediction by ZEFSAII (Michael W. Deem and Ramdas Pophale) SiO2 
 PCOD9302339
Probable space group: C 2/C
;
_chemical_formula_sum "Si O2"
_cell_formula_units_Z 48
_cell_length_a 18.255783
_cell_length_b 8.241677
_cell_length_c 18.532968
_cell_angle_alpha 90.000000
_cell_angle_beta 119.325760
_cell_angle_gamma 90.000000
_cell_volume 2431.097540
_symmetry_space_group_name_H-M "C 2/C"
_symmetry_group_IT_number 15
_symmetry_cell_setting 'monoclinic'
loop_
_space_group_symop_operation_xyz
x,y,z
-x,y,1/2-z
-x,-y,-z
x,-y,1/2+z
1/2+x,1/2+y,z
1/2-x,1/2+y,1/2-z
1/2-x,1/2-y,-z
1/2+x,1/2-y,1/2+z
loop_
_atom_site_type_symbol
_atom_site_label
_atom_site_fract_x
_atom_site_fract_y
_atom_site_fract_z
Si Si1 0.004361 0.117611 0.928663
Si Si2 0.663730 0.822058 0.652755
Si Si3 0.815144 0.818421 0.970755
Si Si4 0.823204 0.695166 0.813757
Si Si5 0.000782 0.180647 0.165355
Si Si6 0.166063 0.790890 0.999190
O O1 0.920310 0.218650 0.877493
O O2 0.010713 0.007117 0.860926
O O3 0.086776 0.229587 0.971463
O O4 0.000000 0.000000 0.000000
O O5 0.745921 0.737421 0.724666
O O6 0.668931 0.821882 0.569739
O O7 0.661330 0.003844 0.679335
O O8 0.796652 0.758914 0.880587
O O9 0.824910 0.015957 0.977969
O O10 0.750000 0.750000 0.000000
O O11 0.910744 0.772083 0.828545
O O12 0.000000 0.212458 0.250000
O O13 0.918099 0.250235 0.085959
O O14 0.250000 0.750000 0.000000
#
# Coordination Sequence:
#
# PCOD9302339 Si02
#       6
#     8   8   8   8   8   8
#     4  11  21  46  68  93 138 178 220 283 348 412
#     4  12  24  41  68  93 131 182 223 281 350 406
#     4  11  23  41  66  98 135 174 224 281 337 411
#     4  12  25  42  66  98 134 175 233 288 341 410
#     4  11  23  42  68  97 133 178 224 279 346 412
#     4  11  22  40  64  96 137 177 224 274 341 411
#
# _framework density 19.744168999999999
#
# number of rings (size 3 to 8) (size 9 to 14) (size 15 to 20)
#    0.000    0.667    5.000    4.000    0.000    8.000 
#    0.000    0.833    0.000    0.000    0.000    0.000 
#    0.000    0.000    0.000    0.000    0.000    0.000 
#
# Total GULP energy -133862.275846 kJ/mol
# GULP energy per Si atom -5577.594827 kJ/mol
# Density = 1.969923 g / cm^3
# Si number density = 19.744169 Si / 1000 Ang^3
#
#
#
# Elastic Constant Matrix: (Units=GPa)
#
#
# Indices 1 2 3 4 5 6 
#
# 1 132.5582 -9.5112 66.4613 0.0000 15.8607 0.0000
# 2 -9.5112 40.1359 24.6785 0.0000 10.0850 0.0000
# 3 66.4613 24.6785 159.5025 0.0000 19.2516 0.0000
# 4 0.0000 0.0000 0.0000 21.9003 0.0000 3.0282
# 5 15.8607 10.0850 19.2516 0.0000 42.7153 0.0000
# 6 0.0000 0.0000 0.0000 3.0282 0.0000 39.1791
#
#
#
# Elastic Compliance Matrix: (Units=1/GPa)
#
#
# Indices 1 2 3 4 5 6 
#
# 1 0.011042 0.006667 -0.005233 0.000000 -0.003316 0.000000
# 2 0.006667 0.032542 -0.006966 0.000000 -0.007019 0.000000
# 3 -0.005233 -0.006966 0.009618 0.000000 -0.000747 0.000000
# 4 0.000000 0.000000 0.000000 0.046155 0.000000 -0.003567
# 5 -0.003316 -0.007019 -0.000747 0.000000 0.026636 0.000000
# 6 0.000000 0.000000 0.000000 -0.003567 0.000000 0.025800
#
#
# Mechanical properties :
#
#
# Convention : Reuss Voigt Hill
#
# Bulk Modulus (GPa) = 23.73022 55.05042 39.39032
# Shear Modulus (GPa) = 28.26427 37.46348 32.86387
#
# Velocity S-wave (km/s) = 3.78765 4.36069 4.08424
# Velocity P-wave (km/s) = 5.58331 7.30045 6.49884
#
# Compressibility (1/GPa) = 0.04214036
#
# Stress axis : x y z
#
# Youngs Moduli (GPa) = 90.55952 30.72922 103.97467
#
# Poissons Ratio (x) = -0.20488 0.54405
# Poissons Ratio (y) = -0.60379 0.72428
# Poissons Ratio (z) = 0.47385 0.21406
#
# Static dielectric constant tensor:
#      x y z
#    x 1.643370 0.000000 0.019980 
#    y 0.000000 1.681370 0.000000 
#    z 0.019980 0.000000 1.754630 
# 
# From -- ./inp_files/209273.got.cif
#   From: 2010.05.17/outbox.cif.g08.bks.cpg/sg15_105_cif.got.tgz:209273.got - 2010.06.03 18:47:42.
