data_PCOD9302319
_publ_section_title
;
Structure prediction by ZEFSAII (Michael W. Deem and Ramdas Pophale) SiO2 
 PCOD9302319
Probable space group: C 2/C
;
_chemical_formula_sum "Si O2"
_cell_formula_units_Z 60
_cell_length_a 10.804295
_cell_length_b 17.708570
_cell_length_c 15.269920
_cell_angle_alpha 90.000000
_cell_angle_beta 83.178821
_cell_angle_gamma 90.000000
_cell_volume 2900.892788
_symmetry_space_group_name_H-M "C 2/C"
_symmetry_group_IT_number 15
_symmetry_cell_setting 'monoclinic'
loop_
_space_group_symop_operation_xyz
x,y,z
-x,y,1/2-z
-x,-y,-z
x,-y,1/2+z
1/2+x,1/2+y,z
1/2-x,1/2+y,1/2-z
1/2-x,1/2-y,-z
1/2+x,1/2-y,1/2+z
loop_
_atom_site_type_symbol
_atom_site_label
_atom_site_fract_x
_atom_site_fract_y
_atom_site_fract_z
Si Si1 0.453656 0.187405 0.342325
Si Si2 0.674429 0.179094 0.611925
Si Si3 0.546679 0.341236 0.391590
Si Si4 0.000000 0.963670 0.250000
Si Si5 0.979064 0.182543 0.423601
Si Si6 0.687425 0.578798 0.161034
Si Si7 0.437395 0.079434 0.023856
Si Si8 0.199107 0.772764 0.779936
O O1 0.500000 0.146049 0.250000
O O2 0.542612 0.260339 0.344646
O O3 0.475794 0.134397 0.423801
O O4 0.318066 0.222668 0.334143
O O5 0.813420 0.149153 0.586168
O O6 0.633971 0.257113 0.568328
O O7 0.589596 0.119172 0.567541
O O8 0.676999 0.202549 0.715162
O O9 0.510529 0.408564 0.332185
O O10 0.465688 0.330110 0.485403
O O11 0.125401 0.013063 0.224646
O O12 0.926298 0.104369 0.391863
O O13 0.077325 0.217186 0.348730
O O14 0.810191 0.567225 0.091685
O O15 0.710657 0.652014 0.219553
O O16 0.500000 0.000000 0.000000
#
# Coordination Sequence:
#
# PCOD9302319 Si02
#       8
#     8   8   8   4   8   8   8   8
#     4  12  22  45  70 100 135 180 233 282 348 414
#     4  11  21  45  72  97 132 181 238 276 345 429
#     4  12  23  41  73  98 132 183 233 287 348 410
#     4  12  26  42  64 110 140 174 236 290 354 426
#     4  11  22  42  73 102 127 182 231 292 341 410
#     4  11  22  45  66  94 144 180 226 282 349 422
#     4  12  27  46  70 103 145 189 232 290 362 426
#     4  11  23  41  76 101 136 182 230 293 346 413
#
# _framework density 20.683287
#
# number of rings (size 3 to 8) (size 9 to 14) (size 15 to 20)
#    0.000    0.533    7.333    2.400    0.000    3.200 
#    7.200    0.000    0.000    0.000    0.000    0.000 
#    0.000    0.000    0.000    0.000    0.000    0.000 
#
# Total GULP energy -167344.423953 kJ/mol
# GULP energy per Si atom -5578.147465 kJ/mol
# Density = 2.063621 g / cm^3
# Si number density = 20.683287 Si / 1000 Ang^3
#
#
#
# Elastic Constant Matrix: (Units=GPa)
#
#
# Indices 1 2 3 4 5 6 
#
# 1 74.5440 21.8411 47.5854 0.0000 8.9239 0.0000
# 2 21.8411 101.7000 41.2752 0.0000 11.2369 0.0000
# 3 47.5854 41.2752 110.1067 0.0000 2.9617 0.0000
# 4 0.0000 0.0000 0.0000 34.9719 0.0000 0.1800
# 5 8.9239 11.2369 2.9617 0.0000 41.4809 0.0000
# 6 0.0000 0.0000 0.0000 0.1800 0.0000 22.4208
#
#
#
# Elastic Compliance Matrix: (Units=1/GPa)
#
#
# Indices 1 2 3 4 5 6 
#
# 1 0.019043 -0.000485 -0.007957 0.000000 -0.003397 0.000000
# 2 -0.000485 0.011953 -0.004195 0.000000 -0.002834 0.000000
# 3 -0.007957 -0.004195 0.014044 0.000000 0.001845 0.000000
# 4 0.000000 0.000000 0.000000 0.028596 0.000000 -0.000230
# 5 -0.003397 -0.002834 0.001845 0.000000 0.025474 0.000000
# 6 0.000000 0.000000 0.000000 -0.000230 0.000000 0.044603
#
#
# Mechanical properties :
#
#
# Convention : Reuss Voigt Hill
#
# Bulk Modulus (GPa) = 50.59157 56.41712 53.50434
# Shear Modulus (GPa) = 28.47804 31.48464 29.98134
#
# Velocity S-wave (km/s) = 3.71464 3.90580 3.81142
# Velocity P-wave (km/s) = 6.55067 6.90480 6.73006
#
# Compressibility (1/GPa) = 0.01976614
#
# Stress axis : x y z
#
# Youngs Moduli (GPa) = 52.51312 83.66384 71.20683
#
# Poissons Ratio (x) = 0.04058 0.56657
# Poissons Ratio (y) = 0.02547 0.29870
# Poissons Ratio (z) = 0.41783 0.35095
#
# Static dielectric constant tensor:
#      x y z
#    x 1.808660 0.000000 0.002610 
#    y 0.000000 1.714020 0.000000 
#    z 0.002610 0.000000 1.819250 
# 
# From -- ./inp_files/145651.got.cif
#   From: 2010.05.17/outbox.cif.g08.bks.cpg/sg15_73_cif.got.tgz:145651.got - 2010.06.03 18:47:42.
