data_PCOD9302606
_publ_section_title
;
Structure prediction by ZEFSAII (Michael W. Deem and Ramdas Pophale) SiO2 
 PCOD9302606
Probable space group: C 2/C
;
_chemical_formula_sum "Si O2"
_cell_formula_units_Z 44
_cell_length_a 11.365231
_cell_length_b 9.492259
_cell_length_c 21.530150
_cell_angle_alpha 90.000000
_cell_angle_beta 49.646262
_cell_angle_gamma 90.000000
_cell_volume 1770.047202
_symmetry_space_group_name_H-M "C 2/C"
_symmetry_group_IT_number 15
_symmetry_cell_setting 'monoclinic'
loop_
_space_group_symop_operation_xyz
x,y,z
-x,y,1/2-z
-x,-y,-z
x,-y,1/2+z
1/2+x,1/2+y,z
1/2-x,1/2+y,1/2-z
1/2-x,1/2-y,-z
1/2+x,1/2-y,1/2+z
loop_
_atom_site_type_symbol
_atom_site_label
_atom_site_fract_x
_atom_site_fract_y
_atom_site_fract_z
Si Si1 0.931203 0.247006 0.869084
Si Si2 0.612378 0.352802 0.526390
Si Si3 0.114055 0.006578 0.302289
Si Si4 0.000000 0.781732 0.750000
Si Si5 0.082818 0.350743 0.486498
Si Si6 0.813108 0.473287 0.353720
O O1 0.962323 0.291008 0.930108
O O2 0.908941 0.392625 0.841467
O O3 0.768281 0.162212 0.921001
O O4 0.068150 0.149682 0.797043
O O5 0.750000 0.250000 0.500000
O O6 0.533986 0.438819 0.608024
O O7 0.481132 0.255135 0.542712
O O8 0.678196 0.454837 0.450527
O O9 0.120878 0.117124 0.244073
O O10 0.248821 0.994144 0.306376
O O11 0.091774 0.672026 0.675745
O O12 0.000000 0.500000 0.500000
#
# Coordination Sequence:
#
# PCOD9302606 Si02
#       6
#     8   8   8   4   8   8
#     4  11  24  41  72 108 140 182 234 298 358 424
#     4  12  21  44  78 108 141 184 238 311 355 424
#     4  12  26  49  74 105 145 188 244 299 364 425
#     4  12  32  48  68 102 144 204 240 288 362 444
#     4  11  22  38  69 117 147 173 230 301 367 417
#     4  12  26  49  74 105 145 188 244 299 364 425
#
# _framework density 24.858094999999999
#
# number of rings (size 3 to 8) (size 9 to 14) (size 15 to 20)
#    0.000    0.364    5.455    4.909    0.000    3.636 
#    0.000    0.000    0.000    0.000    0.000    0.000 
#    0.000    0.000    0.000    0.000    0.000    0.000 
#
# Total GULP energy -123348.913105 kJ/mol
# GULP energy per Si atom -5606.768777 kJ/mol
# Density = 2.480152 g / cm^3
# Si number density = 24.858095 Si / 1000 Ang^3
#
#
#
# Elastic Constant Matrix: (Units=GPa)
#
#
# Indices 1 2 3 4 5 6 
#
# 1 118.4635 52.4658 -18.9774 0.0000 5.2411 0.0000
# 2 52.4658 167.0092 4.7319 0.0000 4.1342 0.0000
# 3 -18.9774 4.7319 44.3990 0.0000 -3.4018 0.0000
# 4 0.0000 0.0000 0.0000 17.7290 0.0000 4.4363
# 5 5.2411 4.1342 -3.4018 0.0000 23.8513 0.0000
# 6 0.0000 0.0000 0.0000 4.4363 0.0000 58.8919
#
#
#
# Elastic Compliance Matrix: (Units=1/GPa)
#
#
# Indices 1 2 3 4 5 6 
#
# 1 0.010835 -0.003517 0.004924 0.000000 -0.001069 0.000000
# 2 -0.003517 0.007178 -0.002330 0.000000 -0.000804 0.000000
# 3 0.004924 -0.002330 0.025098 0.000000 0.002901 0.000000
# 4 0.000000 0.000000 0.000000 0.057488 0.000000 -0.004331
# 5 -0.001069 -0.000804 0.002901 0.000000 0.042714 0.000000
# 6 0.000000 0.000000 0.000000 -0.004331 0.000000 0.017306
#
#
# Mechanical properties :
#
#
# Convention : Reuss Voigt Hill
#
# Bulk Modulus (GPa) = 24.23262 45.14582 34.68922
# Shear Modulus (GPa) = 28.37332 39.53788 33.95560
#
# Velocity S-wave (km/s) = 3.38214 3.99249 3.69992
# Velocity P-wave (km/s) = 5.00214 6.28125 5.67783
#
# Compressibility (1/GPa) = 0.04126670
#
# Stress axis : x y z
#
# Youngs Moduli (GPa) = 92.29243 139.30624 39.84327
#
# Poissons Ratio (x) = 0.48993 -0.19619
# Poissons Ratio (y) = 0.32458 0.09283
# Poissons Ratio (z) = -0.45446 0.32456
#
# Static dielectric constant tensor:
#      x y z
#    x 1.927760 0.000000 0.000500 
#    y 0.000000 1.995530 0.000000 
#    z 0.000500 0.000000 2.027540 
# 
# From -- ./inp_files/230123.got.cif
#   From: 2010.05.17/outbox.cif.g08.bks.cpg/sg15_116_cif.got.tgz:230123.got - 2010.06.03 18:47:42.
