data_PCOD9302406
_publ_section_title
;
Structure prediction by ZEFSAII (Michael W. Deem and Ramdas Pophale) SiO2 
 PCOD9302406
Probable space group: C 2/C
;
_chemical_formula_sum "Si O2"
_cell_formula_units_Z 48
_cell_length_a 15.541043
_cell_length_b 31.973319
_cell_length_c 7.262863
_cell_angle_alpha 90.000000
_cell_angle_beta 141.176051
_cell_angle_gamma 90.000000
_cell_volume 2262.530532
_symmetry_space_group_name_H-M "C 2/C"
_symmetry_group_IT_number 15
_symmetry_cell_setting 'monoclinic'
loop_
_space_group_symop_operation_xyz
x,y,z
-x,y,1/2-z
-x,-y,-z
x,-y,1/2+z
1/2+x,1/2+y,z
1/2-x,1/2+y,1/2-z
1/2-x,1/2-y,-z
1/2+x,1/2-y,1/2+z
loop_
_atom_site_type_symbol
_atom_site_label
_atom_site_fract_x
_atom_site_fract_y
_atom_site_fract_z
Si Si1 0.749160 0.614179 0.010150
Si Si2 0.313188 0.612872 0.151424
Si Si3 0.025104 0.822991 0.082091
Si Si4 0.037053 0.357454 0.090635
Si Si5 0.412169 0.236649 0.791411
Si Si6 0.970317 0.048468 0.915982
O O1 0.724530 0.612501 0.192695
O O2 0.909871 0.623201 0.270124
O O3 0.669461 0.654317 0.790541
O O4 0.675627 0.572596 0.805742
O O5 0.404507 0.654210 0.269283
O O6 0.413243 0.574413 0.283481
O O7 0.173944 0.615104 0.807585
O O8 0.000000 0.835547 0.250000
O O9 0.996608 0.774103 0.026732
O O10 0.073165 0.309509 0.099238
O O11 0.000000 0.356553 0.250000
O O12 0.500000 0.233672 0.750000
O O13 0.250000 0.250000 0.500000
O O14 0.000000 0.054626 0.750000
O O15 0.000000 0.000000 0.000000
#
# Coordination Sequence:
#
# PCOD9302406 Si02
#       6
#     8   8   8   8   8   8
#     4   8  16  29  49  75  97 134 176 211 255 320
#     4   8  14  29  50  70  98 134 169 211 253 320
#     4   9  17  32  52  73 103 136 181 220 261 307
#     4   9  16  29  51  73 101 134 177 216 255 306
#     4  11  22  35  53  79 111 144 188 229 272 315
#     4   9  17  31  52  75  97 125 168 213 261 319
#
# _framework density 21.215181999999999
#
# number of rings (size 3 to 8) (size 9 to 14) (size 15 to 20)
#    0.000    3.000    1.667    2.000    2.333    0.667 
#    0.000    4.167    0.000    0.000    0.000    0.000 
#    0.000    0.000    0.000    0.000    0.000    0.000 
#
# Total GULP energy -133683.733233 kJ/mol
# GULP energy per Si atom -5570.155551 kJ/mol
# Density = 2.116690 g / cm^3
# Si number density = 21.215182 Si / 1000 Ang^3
#
#
#
# Elastic Constant Matrix: (Units=GPa)
#
#
# Indices 1 2 3 4 5 6 
#
# 1 69.5378 12.9386 33.2250 0.0000 11.7318 0.0000
# 2 12.9386 160.5554 95.9188 0.0000 26.9380 0.0000
# 3 33.2250 95.9188 208.5734 0.0000 37.9616 0.0000
# 4 0.0000 0.0000 0.0000 20.9176 0.0000 -3.9740
# 5 11.7318 26.9380 37.9616 0.0000 29.2310 0.0000
# 6 0.0000 0.0000 0.0000 -3.9740 0.0000 19.0157
#
#
#
# Elastic Compliance Matrix: (Units=1/GPa)
#
#
# Indices 1 2 3 4 5 6 
#
# 1 0.015975 0.000676 -0.002063 0.000000 -0.004355 0.000000
# 2 0.000676 0.008924 -0.003490 0.000000 -0.003962 0.000000
# 3 -0.002063 -0.003490 0.007847 0.000000 -0.006146 0.000000
# 4 0.000000 0.000000 0.000000 0.049783 0.000000 0.010404
# 5 -0.004355 -0.003962 -0.006146 0.000000 0.047591 0.000000
# 6 0.000000 0.000000 0.000000 0.010404 0.000000 0.054762
#
#
# Mechanical properties :
#
#
# Convention : Reuss Voigt Hill
#
# Bulk Modulus (GPa) = 43.49514 80.31460 61.90487
# Shear Modulus (GPa) = 24.71552 33.60514 29.16033
#
# Velocity S-wave (km/s) = 3.41690 3.98428 3.71145
# Velocity P-wave (km/s) = 6.00944 7.68800 6.89995
#
# Compressibility (1/GPa) = 0.02299107
#
# Stress axis : x y z
#
# Youngs Moduli (GPa) = 62.59630 112.05786 127.43908
#
# Poissons Ratio (x) = -0.07572 0.26289
# Poissons Ratio (y) = -0.04230 0.44482
# Poissons Ratio (z) = 0.12913 0.39113
#
# Static dielectric constant tensor:
#      x y z
#    x 2.038730 0.000000 -0.063230 
#    y 0.000000 1.785810 0.000000 
#    z -0.063230 0.000000 1.779470 
# 
# From -- ./inp_files/52873.got.cif
#   From: 2010.05.17/outbox.cif.g08.bks.cpg/sg15_27_cif.got.tgz:52873.got - 2010.06.03 18:47:42.
