data_PCOD9302563
_publ_section_title
;
Structure prediction by ZEFSAII (Michael W. Deem and Ramdas Pophale) SiO2 
 PCOD9302563
Probable space group: C 2/C
;
_chemical_formula_sum "Si O2"
_cell_formula_units_Z 56
_cell_length_a 8.525462
_cell_length_b 27.100336
_cell_length_c 16.945966
_cell_angle_alpha 90.000000
_cell_angle_beta 140.648095
_cell_angle_gamma 90.000000
_cell_volume 2482.584906
_symmetry_space_group_name_H-M "C 2/C"
_symmetry_group_IT_number 15
_symmetry_cell_setting 'monoclinic'
loop_
_space_group_symop_operation_xyz
x,y,z
-x,y,1/2-z
-x,-y,-z
x,-y,1/2+z
1/2+x,1/2+y,z
1/2-x,1/2+y,1/2-z
1/2-x,1/2-y,-z
1/2+x,1/2-y,1/2+z
loop_
_atom_site_type_symbol
_atom_site_label
_atom_site_fract_x
_atom_site_fract_y
_atom_site_fract_z
Si Si1 0.584179 0.220742 0.868933
Si Si2 0.266600 0.677656 0.492968
Si Si3 0.119354 0.981226 0.965567
Si Si4 0.736103 0.737919 0.867615
Si Si5 0.608806 0.032318 0.201403
Si Si6 0.929983 0.130941 0.007770
Si Si7 0.275506 0.358367 0.725023
O O1 0.500000 0.241106 0.750000
O O2 0.347109 0.218550 0.830971
O O3 0.750000 0.250000 0.000000
O O4 0.703426 0.167135 0.903634
O O5 0.336776 0.691325 0.608117
O O6 0.366458 0.723967 0.478408
O O7 0.394740 0.631027 0.501229
O O8 0.969270 0.673664 0.383567
O O9 0.145728 0.922249 0.988736
O O10 0.888939 0.990362 0.815668
O O11 0.392605 0.005210 0.067548
O O12 0.000000 0.000000 0.000000
O O13 0.500000 0.768668 0.750000
O O14 0.500000 0.036080 0.250000
O O15 0.665573 0.086442 0.189690
O O16 0.098051 0.153904 0.142566
O O17 0.500000 0.355839 0.750000
#
# Coordination Sequence:
#
# PCOD9302563 Si02
#       7
#     8   8   8   8   8   8   8
#     4  12  27  45  67  99 139 183 235 291 352 420
#     4  11  22  39  64  90 126 175 225 287 343 414
#     4   9  18  34  64  95 130 168 227 285 348 424
#     4  11  24  41  61  90 130 173 227 281 350 408
#     4   9  18  36  60  92 126 170 221 288 346 430
#     4  11  22  42  64  96 129 178 228 288 350 425
#     4  11  22  38  63  94 130 171 228 285 348 425
#
# _framework density 22.557133
#
# number of rings (size 3 to 8) (size 9 to 14) (size 15 to 20)
#    0.000    1.429    1.429    5.571    2.000    2.286 
#    0.000    4.286    0.000    2.571    0.000    0.000 
#    0.000    0.000    0.000    0.000    0.000    0.143 
#
# Total GULP energy -155976.043075 kJ/mol
# GULP energy per Si atom -5570.572967 kJ/mol
# Density = 2.250579 g / cm^3
# Si number density = 22.557133 Si / 1000 Ang^3
#
#
#
# Elastic Constant Matrix: (Units=GPa)
#
#
# Indices 1 2 3 4 5 6 
#
# 1 142.0333 33.7930 58.1062 0.0000 -0.3843 0.0000
# 2 33.7930 58.5358 49.2591 0.0000 20.4878 0.0000
# 3 58.1062 49.2591 148.6856 0.0000 15.8574 0.0000
# 4 0.0000 0.0000 0.0000 39.8868 0.0000 16.7575
# 5 -0.3843 20.4878 15.8574 0.0000 43.9737 0.0000
# 6 0.0000 0.0000 0.0000 16.7575 0.0000 30.1250
#
#
#
# Elastic Compliance Matrix: (Units=1/GPa)
#
#
# Indices 1 2 3 4 5 6 
#
# 1 0.009049 -0.004167 -0.002466 0.000000 0.002910 0.000000
# 2 -0.004167 0.029147 -0.006838 0.000000 -0.011150 0.000000
# 3 -0.002466 -0.006838 0.010002 0.000000 -0.000442 0.000000
# 4 0.000000 0.000000 0.000000 0.032717 0.000000 -0.018199
# 5 0.002910 -0.011150 -0.000442 0.000000 0.028121 0.000000
# 6 0.000000 0.000000 0.000000 -0.018199 0.000000 0.043319
#
#
# Mechanical properties :
#
#
# Convention : Reuss Voigt Hill
#
# Bulk Modulus (GPa) = 47.04975 70.17459 58.61217
# Shear Modulus (GPa) = 26.82662 36.67020 31.74841
#
# Velocity S-wave (km/s) = 3.45233 4.03632 3.75569
# Velocity P-wave (km/s) = 6.06587 7.27322 6.69681
#
# Compressibility (1/GPa) = 0.02125410
#
# Stress axis : x y z
#
# Youngs Moduli (GPa) = 110.51186 34.30929 99.97931
#
# Poissons Ratio (x) = 0.14297 0.24655
# Poissons Ratio (y) = 0.46052 0.68371
# Poissons Ratio (z) = 0.27253 0.23462
#
# Static dielectric constant tensor:
#      x y z
#    x 1.942650 0.000000 0.124020 
#    y 0.000000 1.911540 0.000000 
#    z 0.124020 0.000000 2.016520 
# 
# From -- ./inp_files/193902.got.cif
#   From: 2010.05.17/outbox.cif.g08.bks.cpg/sg15_97_cif.got.tgz:193902.got - 2010.06.03 18:47:42.
