data_PCOD9302245
_publ_section_title
;
Structure prediction by ZEFSAII (Michael W. Deem and Ramdas Pophale) SiO2 
 PCOD9302245
Probable space group: C 2/C
;
_chemical_formula_sum "Si O2"
_cell_formula_units_Z 40
_cell_length_a 12.045378
_cell_length_b 8.695032
_cell_length_c 15.899422
_cell_angle_alpha 90.000000
_cell_angle_beta 113.838741
_cell_angle_gamma 90.000000
_cell_volume 1523.159103
_symmetry_space_group_name_H-M "C 2/C"
_symmetry_group_IT_number 15
_symmetry_cell_setting 'monoclinic'
loop_
_space_group_symop_operation_xyz
x,y,z
-x,y,1/2-z
-x,-y,-z
x,-y,1/2+z
1/2+x,1/2+y,z
1/2-x,1/2+y,1/2-z
1/2-x,1/2-y,-z
1/2+x,1/2-y,1/2+z
loop_
_atom_site_type_symbol
_atom_site_label
_atom_site_fract_x
_atom_site_fract_y
_atom_site_fract_z
Si Si1 0.633504 0.372197 0.734178
Si Si2 0.740200 0.820263 0.403952
Si Si3 0.882313 0.408642 0.564646
Si Si4 0.139341 0.565438 0.638921
Si Si5 0.990728 0.897328 0.412987
O O1 0.637307 0.266985 0.819396
O O2 0.751469 0.478792 0.782372
O O3 0.642807 0.243316 0.665200
O O4 0.531213 0.489932 0.671373
O O5 0.750000 0.750000 0.500000
O O6 0.867257 0.802604 0.394575
O O7 0.711711 0.000923 0.406095
O O8 0.850772 0.446408 0.458476
O O9 0.010014 0.492794 0.623346
O O10 0.905129 0.226363 0.575276
O O11 0.000000 0.000000 0.500000
#
# Coordination Sequence:
#
# PCOD9302245 Si02
#       5
#     8   8   8   8   8
#     4  12  23  44  76 107 153 204 256 310 403 458
#     4  12  25  45  79 111 146 204 262 320 386 470
#     4  11  23  45  75 105 151 201 255 315 391 466
#     4  11  21  43  73 103 151 199 243 321 389 453
#     4  12  26  48  75 109 159 203 247 329 399 455
#
# _framework density 26.261209000000001
#
# number of rings (size 3 to 8) (size 9 to 14) (size 15 to 20)
#    0.000    0.400    8.000    1.200    0.000    1.600 
#    0.000    0.000    8.800    0.000    0.000    0.000 
#    0.000    0.000    0.000    0.000    0.000    0.000 
#
# Total GULP energy -112181.385785 kJ/mol
# GULP energy per Si atom -5609.069289 kJ/mol
# Density = 2.620144 g / cm^3
# Si number density = 26.261209 Si / 1000 Ang^3
#
#
#
# Elastic Constant Matrix: (Units=GPa)
#
#
# Indices 1 2 3 4 5 6 
#
# 1 70.0682 33.4986 0.5261 0.0000 -0.5683 0.0000
# 2 33.4986 180.9789 53.2710 0.0000 -0.6955 0.0000
# 3 0.5261 53.2710 141.6766 0.0000 -5.4372 0.0000
# 4 0.0000 0.0000 0.0000 70.7560 0.0000 5.9684
# 5 -0.5683 -0.6955 -5.4372 0.0000 29.6333 0.0000
# 6 0.0000 0.0000 0.0000 5.9684 0.0000 56.2109
#
#
#
# Elastic Compliance Matrix: (Units=1/GPa)
#
#
# Indices 1 2 3 4 5 6 
#
# 1 0.015835 -0.003280 0.001192 0.000000 0.000445 0.000000
# 2 -0.003280 0.006895 -0.002595 0.000000 -0.000377 0.000000
# 3 0.001192 -0.002595 0.008085 0.000000 0.001445 0.000000
# 4 0.000000 0.000000 0.000000 0.014261 0.000000 -0.001514
# 5 0.000445 -0.000377 0.001445 0.000000 0.034011 0.000000
# 6 0.000000 0.000000 0.000000 -0.001514 0.000000 0.017951
#
#
# Mechanical properties :
#
#
# Convention : Reuss Voigt Hill
#
# Bulk Modulus (GPa) = 46.62410 63.03502 54.82956
# Shear Modulus (GPa) = 44.03239 51.68191 47.85715
#
# Velocity S-wave (km/s) = 4.09921 4.44102 4.27353
# Velocity P-wave (km/s) = 6.34012 7.09592 6.72864
#
# Compressibility (1/GPa) = 0.02144814
#
# Stress axis : x y z
#
# Youngs Moduli (GPa) = 63.15297 145.03362 123.68518
#
# Poissons Ratio (x) = 0.47570 -0.14738
# Poissons Ratio (y) = 0.20714 0.32094
# Poissons Ratio (z) = -0.07525 0.37634
#
# Static dielectric constant tensor:
#      x y z
#    x 2.107960 0.000000 0.012380 
#    y 0.000000 2.070150 0.000000 
#    z 0.012380 0.000000 1.992930 
# 
# From -- ./inp_files/202826.got.cif
#   From: 2010.05.17/outbox.cif.g08.bks.cpg/sg15_102_cif.got.tgz:202826.got - 2010.06.03 18:47:42.
