data_PCOD9302779
_publ_section_title
;
Structure prediction by ZEFSAII (Michael W. Deem and Ramdas Pophale) SiO2 
 PCOD9302779
Probable space group: C 2/C
;
_chemical_formula_sum "Si O2"
_cell_formula_units_Z 52
_cell_length_a 13.851118
_cell_length_b 23.330627
_cell_length_c 20.293403
_cell_angle_alpha 90.000000
_cell_angle_beta 154.642958
_cell_angle_gamma 90.000000
_cell_volume 2808.479963
_symmetry_space_group_name_H-M "C 2/C"
_symmetry_group_IT_number 15
_symmetry_cell_setting 'monoclinic'
loop_
_space_group_symop_operation_xyz
x,y,z
-x,y,1/2-z
-x,-y,-z
x,-y,1/2+z
1/2+x,1/2+y,z
1/2-x,1/2+y,1/2-z
1/2-x,1/2-y,-z
1/2+x,1/2-y,1/2+z
loop_
_atom_site_type_symbol
_atom_site_label
_atom_site_fract_x
_atom_site_fract_y
_atom_site_fract_z
Si Si1 0.000000 0.457839 0.750000
Si Si2 0.740853 0.486068 0.314828
Si Si3 0.755265 0.268589 0.926681
Si Si4 0.253545 0.356152 0.377893
Si Si5 0.044206 0.378053 0.114123
Si Si6 0.278749 0.982263 0.986814
Si Si7 0.627577 0.447411 0.614819
O O1 0.901685 0.495771 0.629064
O O2 0.802741 0.424861 0.667411
O O3 0.472446 0.494744 0.159841
O O4 0.839034 0.500837 0.447838
O O5 0.753788 0.526402 0.256595
O O6 0.820237 0.421302 0.349233
O O7 0.500000 0.285566 0.750000
O O8 0.816518 0.209567 0.928553
O O9 0.750000 0.250000 0.000000
O O10 0.929959 0.319489 0.020321
O O11 0.441759 0.400301 0.519052
O O12 0.000000 0.364040 0.250000
O O13 0.220140 0.366101 0.280298
O O14 0.836437 0.415012 0.016801
O O15 0.500000 0.500000 0.500000
#
# Coordination Sequence:
#
# PCOD9302779 Si02
#       7
#     4   8   8   8   8   8   8
#     4  12  22  38  58  92 130 164 216 244 314 396
#     4  11  24  39  58  95 127 166 207 253 330 374
#     4  11  24  40  61  92 121 168 215 262 318 371
#     4  11  22  40  62  88 128 165 213 257 316 386
#     4  12  22  39  62  86 134 164 203 258 314 380
#     4  11  24  38  60  93 132 163 203 256 319 387
#     4  12  22  35  65  93 124 176 205 262 326 380
#
# _framework density 18.515353000000001
#
# number of rings (size 3 to 8) (size 9 to 14) (size 15 to 20)
#    0.000    0.615    7.692    1.385    4.308    0.000 
#    0.000    0.000    0.000    1.846    0.000    7.538 
#    0.000    0.000    0.000    0.000    0.000    0.000 
#
# Total GULP energy -144806.281709 kJ/mol
# GULP energy per Si atom -5569.472373 kJ/mol
# Density = 1.847321 g / cm^3
# Si number density = 18.515353 Si / 1000 Ang^3
#
#
#
# Elastic Constant Matrix: (Units=GPa)
#
#
# Indices 1 2 3 4 5 6 
#
# 1 116.8175 38.0855 27.9683 0.5160 -9.1124 -0.3416
# 2 38.0855 122.7541 52.0981 0.4922 2.5563 -0.3223
# 3 27.9683 52.0981 128.1743 1.6592 -22.4633 -1.1179
# 4 0.5160 0.4922 1.6592 245.1626 0.6230 -126.4856
# 5 -9.1124 2.5563 -22.4633 0.6230 38.0731 -0.4046
# 6 -0.3416 -0.3223 -1.1179 -126.4856 -0.4046 111.1186
#
#
#
# Elastic Compliance Matrix: (Units=1/GPa)
#
#
# Indices 1 2 3 4 5 6 
#
# 1 0.009797 -0.002827 -0.000607 -0.000010 0.002177 0.000012
# 2 -0.002827 0.011064 -0.004606 0.000014 -0.004138 -0.000022
# 3 -0.000607 -0.004606 0.010971 -0.000046 0.006638 0.000067
# 4 -0.000010 0.000014 -0.000046 0.009883 -0.000073 0.011249
# 5 0.002177 -0.004138 0.006638 -0.000073 0.030983 0.000092
# 6 0.000012 -0.000022 0.000067 0.011249 0.000092 0.021805
#
#
# Mechanical properties :
#
#
# Convention : Reuss Voigt Hill
#
# Bulk Modulus (GPa) = 63.48150 67.11662 65.29906
# Shear Modulus (GPa) = 43.16474 95.51046 69.33760
#
# Velocity S-wave (km/s) = 4.83359 7.19002 6.12617
# Velocity P-wave (km/s) = 8.09393 10.25946 9.24035
#
# Compressibility (1/GPa) = 0.01575262
#
# Stress axis : x y z
#
# Youngs Moduli (GPa) = 102.06834 90.37994 91.14950
#
# Poissons Ratio (x) = 0.25554 0.05531
# Poissons Ratio (y) = 0.28859 0.41982
# Poissons Ratio (z) = 0.06194 0.41627
#
# Static dielectric constant tensor:
#      x y z
#    x 1.664060 0.000190 0.082800 
#    y 0.000190 1.820050 -0.000120 
#    z 0.082800 -0.000120 1.721730 
# 
# From -- ./inp_files/245388.got.cif
#   From: 2010.05.17/outbox.cif.g08.bks.cpg/sg15_123_cif.got.tgz:245388.got - 2010.06.03 18:47:42.
