data_PCOD9302207
_publ_section_title
;
Structure prediction by ZEFSAII (Michael W. Deem and Ramdas Pophale) SiO2 
 PCOD9302207
Probable space group: C 2/C
;
_chemical_formula_sum "Si O2"
_cell_formula_units_Z 52
_cell_length_a 15.226184
_cell_length_b 8.877913
_cell_length_c 17.839788
_cell_angle_alpha 90.000000
_cell_angle_beta 89.633187
_cell_angle_gamma 90.000000
_cell_volume 2411.474908
_symmetry_space_group_name_H-M "C 2/C"
_symmetry_group_IT_number 15
_symmetry_cell_setting 'monoclinic'
loop_
_space_group_symop_operation_xyz
x,y,z
-x,y,1/2-z
-x,-y,-z
x,-y,1/2+z
1/2+x,1/2+y,z
1/2-x,1/2+y,1/2-z
1/2-x,1/2-y,-z
1/2+x,1/2-y,1/2+z
loop_
_atom_site_type_symbol
_atom_site_label
_atom_site_fract_x
_atom_site_fract_y
_atom_site_fract_z
Si Si1 0.696464 0.608148 0.773990
Si Si2 0.646583 0.462714 0.528379
Si Si3 0.095545 0.639588 0.479730
Si Si4 0.000000 0.852968 0.250000
Si Si5 0.285546 0.048777 0.414480
Si Si6 0.560493 0.261983 0.090984
Si Si7 0.214936 0.571411 0.347664
O O1 0.594538 0.564778 0.758258
O O2 0.736919 0.516460 0.842892
O O3 0.759057 0.567938 0.704164
O O4 0.698376 0.783215 0.796341
O O5 0.623896 0.316422 0.479621
O O6 0.711433 0.564732 0.478212
O O7 0.569848 0.568849 0.559564
O O8 0.701564 0.403129 0.598853
O O9 0.143379 0.569040 0.551150
O O10 0.135562 0.557046 0.406766
O O11 0.991896 0.658543 0.468098
O O12 0.012954 0.763337 0.171815
O O13 0.342630 0.195758 0.398401
#
# Coordination Sequence:
#
# PCOD9302207 Si02
#       7
#     8   8   8   4   8   8   8
#     4  12  23  43  68  92 133 171 221 267 333 389
#     4  11  21  43  68  95 131 175 221 262 327 390
#     4  11  22  44  69  96 133 175 218 270 325 384
#     4  12  24  42  64 100 126 176 220 274 322 394
#     4  11  23  41  67  98 133 173 217 273 328 384
#     4  12  24  40  68 100 134 173 224 268 322 388
#     4  11  22  41  69  93 128 177 212 266 329 393
#
# _framework density 21.563566999999999
#
# number of rings (size 3 to 8) (size 9 to 14) (size 15 to 20)
#    0.000    0.615    6.154    3.231    0.000    0.000 
#    0.000    0.000    6.769    0.923    0.000    0.000 
#    0.000    0.000    0.000    0.000    0.000    0.000 
#
# Total GULP energy -145170.393326 kJ/mol
# GULP energy per Si atom -5583.476666 kJ/mol
# Density = 2.151449 g / cm^3
# Si number density = 21.563567 Si / 1000 Ang^3
#
#
#
# Elastic Constant Matrix: (Units=GPa)
#
#
# Indices 1 2 3 4 5 6 
#
# 1 88.6975 14.1720 28.7458 0.0000 22.1828 0.0000
# 2 14.1720 33.8723 14.3948 0.0000 -2.4561 0.0000
# 3 28.7458 14.3948 84.8340 0.0000 9.4181 0.0000
# 4 0.0000 0.0000 0.0000 36.2659 0.0000 2.1881
# 5 22.1828 -2.4561 9.4181 0.0000 36.5330 0.0000
# 6 0.0000 0.0000 0.0000 2.1881 0.0000 40.3066
#
#
#
# Elastic Compliance Matrix: (Units=1/GPa)
#
#
# Indices 1 2 3 4 5 6 
#
# 1 0.015492 -0.005735 -0.003283 0.000000 -0.008946 0.000000
# 2 -0.005735 0.034416 -0.004674 0.000000 0.007001 0.000000
# 3 -0.003283 -0.004674 0.013905 0.000000 -0.001905 0.000000
# 4 0.000000 0.000000 0.000000 0.027665 0.000000 -0.001502
# 5 -0.008946 0.007001 -0.001905 0.000000 0.033766 0.000000
# 6 0.000000 0.000000 0.000000 -0.001502 0.000000 0.024891
#
#
# Mechanical properties :
#
#
# Convention : Reuss Voigt Hill
#
# Bulk Modulus (GPa) = 27.45075 35.78099 31.61587
# Shear Modulus (GPa) = 26.36269 32.62719 29.49494
#
# Velocity S-wave (km/s) = 3.50030 3.89404 3.70241
# Velocity P-wave (km/s) = 5.39388 6.07020 5.74201
#
# Compressibility (1/GPa) = 0.03642887
#
# Stress axis : x y z
#
# Youngs Moduli (GPa) = 64.54954 29.05621 71.91783
#
# Poissons Ratio (x) = 0.16664 0.23611
# Poissons Ratio (y) = 0.37020 0.33612
# Poissons Ratio (z) = 0.21192 0.13580
#
# Static dielectric constant tensor:
#      x y z
#    x 1.805440 0.000000 0.012310 
#    y 0.000000 1.806120 0.000000 
#    z 0.012310 0.000000 1.789130 
# 
# From -- ./inp_files/242492.got.cif
#   From: 2010.05.17/outbox.cif.g08.bks.cpg/sg15_122_cif.got.tgz:242492.got - 2010.06.03 18:47:42.
