data_PCOD9302182
_publ_section_title
;
Structure prediction by ZEFSAII (Michael W. Deem and Ramdas Pophale) SiO2 
 PCOD9302182
Probable space group: C 2/C
;
_chemical_formula_sum "Si O2"
_cell_formula_units_Z 44
_cell_length_a 13.723017
_cell_length_b 22.925483
_cell_length_c 10.100149
_cell_angle_alpha 90.000000
_cell_angle_beta 45.565414
_cell_angle_gamma 90.000000
_cell_volume 2268.948427
_symmetry_space_group_name_H-M "C 2/C"
_symmetry_group_IT_number 15
_symmetry_cell_setting 'monoclinic'
loop_
_space_group_symop_operation_xyz
x,y,z
-x,y,1/2-z
-x,-y,-z
x,-y,1/2+z
1/2+x,1/2+y,z
1/2-x,1/2+y,1/2-z
1/2-x,1/2-y,-z
1/2+x,1/2-y,1/2+z
loop_
_atom_site_type_symbol
_atom_site_label
_atom_site_fract_x
_atom_site_fract_y
_atom_site_fract_z
Si Si1 0.687029 0.719267 0.431470
Si Si2 0.475905 0.818086 0.546291
Si Si3 0.500000 0.117173 0.750000
Si Si4 0.125346 0.023634 0.794809
Si Si5 0.500000 0.086177 0.250000
Si Si6 0.713458 0.982930 0.095665
Si Si7 0.500000 0.625600 0.750000
O O1 0.750000 0.750000 0.500000
O O2 0.579664 0.764461 0.470353
O O3 0.819119 0.701017 0.221324
O O4 0.602207 0.664470 0.566385
O O5 0.490261 0.843478 0.387696
O O6 0.513070 0.870069 0.613750
O O7 0.373344 0.073316 0.858917
O O8 0.245013 0.022354 0.790221
O O9 0.084307 0.085619 0.771994
O O10 0.165097 0.986967 0.626782
O O11 0.000000 0.000000 0.000000
O O12 0.626207 0.042166 0.155029
#
# Coordination Sequence:
#
# PCOD9302182 Si02
#       7
#     8   8   4   8   4   8   4
#     4  12  24  45  71 101 123 176 246 285 329 401
#     4  12  25  44  71 101 134 177 232 288 341 398
#     4  11  28  42  67  99 142 180 211 286 348 406
#     4  12  24  41  65  99 140 177 218 270 336 412
#     4  11  21  42  74  94 130 179 227 280 312 414
#     4  11  24  42  64 101 137 177 227 260 341 414
#     4  12  25  42  71  99 138 179 224 292 336 396
#
# _framework density 19.392244999999999
#
# number of rings (size 3 to 8) (size 9 to 14) (size 15 to 20)
#    0.000    0.364    5.455    3.273    5.091    3.636 
#    0.000    0.000    0.000    0.000    0.000    0.000 
#    0.000    0.000    0.000    0.000    0.000    0.000 
#
# Total GULP energy -122995.997246 kJ/mol
# GULP energy per Si atom -5590.727148 kJ/mol
# Density = 1.934811 g / cm^3
# Si number density = 19.392245 Si / 1000 Ang^3
#
#
#
# Elastic Constant Matrix: (Units=GPa)
#
#
# Indices 1 2 3 4 5 6 
#
# 1 133.1013 79.9021 67.4170 0.0000 16.5447 0.0000
# 2 79.9021 148.4093 93.4699 0.0000 3.1841 0.0000
# 3 67.4170 93.4699 125.0152 0.0000 8.9234 0.0000
# 4 0.0000 0.0000 0.0000 -1.7066 0.0000 9.7254
# 5 16.5447 3.1841 8.9234 0.0000 43.8389 0.0000
# 6 0.0000 0.0000 0.0000 9.7254 0.0000 25.5909
#
#
#
# Elastic Compliance Matrix: (Units=1/GPa)
#
#
# Indices 1 2 3 4 5 6 
#
# 1 0.012238 -0.004762 -0.002775 0.000000 -0.003708 0.000000
# 2 -0.004762 0.014633 -0.008550 0.000000 0.002474 0.000000
# 3 -0.002775 -0.008550 0.016001 0.000000 -0.001589 0.000000
# 4 0.000000 0.000000 0.000000 -0.185098 0.000000 0.070343
# 5 -0.003708 0.002474 -0.001589 0.000000 0.024354 0.000000
# 6 0.000000 0.000000 0.000000 0.070343 0.000000 0.012344
#
#
# Mechanical properties :
#
#
# Convention : Reuss Voigt Hill
#
# Bulk Modulus (GPa) = 93.45640 98.67823 96.06732
# Shear Modulus (GPa) = -71.64431 24.59376 -23.52527
#
# Velocity S-wave (km/s) = -6.08482 3.56508 -3.48678
# Velocity P-wave (km/s) = 1.03412 8.24271 5.78242
#
# Compressibility (1/GPa) = 0.01070018
#
# Stress axis : x y z
#
# Youngs Moduli (GPa) = 81.71371 68.33705 62.49565
#
# Poissons Ratio (x) = 0.32540 0.17341
# Poissons Ratio (y) = 0.38909 0.53432
# Poissons Ratio (z) = 0.22673 0.58426
#
# Static dielectric constant tensor:
#      x y z
#    x 1.864980 0.000000 -0.098340 
#    y 0.000000 1.676840 0.000000 
#    z -0.098340 0.000000 1.716050 
# 
# From -- ./inp_files/99689.got.cif
#   From: 2010.05.17/outbox.cif.g08.bks.cpg/sg15_50_cif.got.tgz:99689.got - 2010.06.03 18:47:42.
