data_PCOD9302670
_publ_section_title
;
Structure prediction by ZEFSAII (Michael W. Deem and Ramdas Pophale) SiO2 
 PCOD9302670
Probable space group: C 2/C
;
_chemical_formula_sum "Si O2"
_cell_formula_units_Z 52
_cell_length_a 16.892497
_cell_length_b 19.637216
_cell_length_c 23.385434
_cell_angle_alpha 90.000000
_cell_angle_beta 160.144515
_cell_angle_gamma 90.000000
_cell_volume 2634.810724
_symmetry_space_group_name_H-M "C 2/C"
_symmetry_group_IT_number 15
_symmetry_cell_setting 'monoclinic'
loop_
_space_group_symop_operation_xyz
x,y,z
-x,y,1/2-z
-x,-y,-z
x,-y,1/2+z
1/2+x,1/2+y,z
1/2-x,1/2+y,1/2-z
1/2-x,1/2-y,-z
1/2+x,1/2-y,1/2+z
loop_
_atom_site_type_symbol
_atom_site_label
_atom_site_fract_x
_atom_site_fract_y
_atom_site_fract_z
Si Si1 0.063258 0.043349 0.451780
Si Si2 0.493753 0.786592 0.838557
Si Si3 0.236224 0.926943 0.646231
Si Si4 0.163797 0.522716 0.963129
Si Si5 0.367661 0.175529 0.946427
Si Si6 0.000000 0.073771 0.750000
Si Si7 0.851955 0.434333 0.919595
O O1 0.967453 0.080979 0.444181
O O2 0.862477 0.059976 0.269463
O O3 0.117496 0.965862 0.511623
O O4 0.286847 0.059517 0.563404
O O5 0.397386 0.859203 0.746935
O O6 0.300623 0.733357 0.689576
O O7 0.750000 0.750000 0.000000
O O8 0.486714 0.797849 0.901311
O O9 0.419733 0.983062 0.794696
O O10 0.371754 0.468063 0.113502
O O11 0.186245 0.561163 0.038557
O O12 0.199665 0.118574 0.858725
O O13 0.520901 0.136553 0.005200
O O14 0.000000 0.500000 0.000000
#
# Coordination Sequence:
#
# PCOD9302670 Si02
#       7
#     8   8   8   8   8   4   8
#     4  11  22  39  64  93 126 168 204 273 330 379
#     4  12  23  42  59  91 130 179 208 258 322 399
#     4  11  24  41  61  96 138 161 210 267 329 393
#     4  12  21  37  65  95 122 166 210 265 324 381
#     4  12  24  38  59  90 130 166 216 255 320 389
#     4  12  18  34  60  90 122 160 212 248 298 388
#     4  12  20  39  60  88 126 165 216 269 315 381
#
# _framework density 19.735762999999999
#
# number of rings (size 3 to 8) (size 9 to 14) (size 15 to 20)
#    0.000    0.308    9.231    0.462    0.000    4.923 
#    0.000    0.000    0.000    0.923    0.000    0.000 
#    0.000    0.000    0.000    0.000    0.000    0.000 
#
# Total GULP energy -144765.418145 kJ/mol
# GULP energy per Si atom -5567.900698 kJ/mol
# Density = 1.969084 g / cm^3
# Si number density = 19.735763 Si / 1000 Ang^3
#
#
#
# Elastic Constant Matrix: (Units=GPa)
#
#
# Indices 1 2 3 4 5 6 
#
# 1 139.6824 27.4972 12.0618 0.0051 -11.6669 -0.0201
# 2 27.4972 68.4997 30.0558 0.1028 -1.4373 -0.0505
# 3 12.0618 30.0558 76.8248 0.1476 -15.9247 -0.0725
# 4 0.0051 0.1028 0.1476 37.3283 -0.0010 16.5332
# 5 -11.6669 -1.4373 -15.9247 -0.0010 16.1888 -0.0088
# 6 -0.0201 -0.0505 -0.0725 16.5332 -0.0088 47.4062
#
#
#
# Elastic Compliance Matrix: (Units=1/GPa)
#
#
# Indices 1 2 3 4 5 6 
#
# 1 0.008418 -0.004011 0.001798 0.000002 0.007479 0.000003
# 2 -0.004011 0.020107 -0.009378 -0.000023 -0.010330 0.000011
# 3 0.001798 -0.009378 0.020725 -0.000080 0.020850 0.000054
# 4 0.000002 -0.000023 -0.000080 0.031684 -0.000083 -0.011050
# 5 0.007479 -0.010330 0.020850 -0.000083 0.086754 0.000069
# 6 0.000003 0.000011 0.000054 -0.011050 0.000069 0.024948
#
#
# Mechanical properties :
#
#
# Convention : Reuss Voigt Hill
#
# Bulk Modulus (GPa) = 38.36087 47.13738 42.74913
# Shear Modulus (GPa) = 22.27087 34.54413 28.40750
#
# Velocity S-wave (km/s) = 3.36289 4.18823 3.79805
# Velocity P-wave (km/s) = 5.87862 6.87928 6.39854
#
# Compressibility (1/GPa) = 0.02606823
#
# Stress axis : x y z
#
# Youngs Moduli (GPa) = 118.79077 49.73448 48.24999
#
# Poissons Ratio (x) = 0.19949 -0.08675
# Poissons Ratio (y) = 0.47649 0.45248
# Poissons Ratio (z) = -0.21358 0.46640
#
# Static dielectric constant tensor:
#      x y z
#    x 1.319000 -0.000070 0.097000 
#    y -0.000070 1.736890 -0.000090 
#    z 0.097000 -0.000090 1.760480 
# 
# From -- ./inp_files/277996.got.cif
#   From: 2010.05.17/outbox.cif.g08.bks.cpg/sg15_139_cif.got.tgz:277996.got - 2010.06.03 18:47:42.
