data_PCOD9302840
_publ_section_title
;
Structure prediction by ZEFSAII (Michael W. Deem and Ramdas Pophale) SiO2 
 PCOD9302840
Probable space group: C 2/C
;
_chemical_formula_sum "Si O2"
_cell_formula_units_Z 36
_cell_length_a 7.404219
_cell_length_b 15.337908
_cell_length_c 22.026497
_cell_angle_alpha 90.000000
_cell_angle_beta 46.967676
_cell_angle_gamma 90.000000
_cell_volume 1828.477733
_symmetry_space_group_name_H-M "C 2/C"
_symmetry_group_IT_number 15
_symmetry_cell_setting 'monoclinic'
loop_
_space_group_symop_operation_xyz
x,y,z
-x,y,1/2-z
-x,-y,-z
x,-y,1/2+z
1/2+x,1/2+y,z
1/2-x,1/2+y,1/2-z
1/2-x,1/2-y,-z
1/2+x,1/2-y,1/2+z
loop_
_atom_site_type_symbol
_atom_site_label
_atom_site_fract_x
_atom_site_fract_y
_atom_site_fract_z
Si Si1 0.000000 0.942368 0.750000
Si Si2 0.444299 0.825712 0.692329
Si Si3 0.284776 0.493787 0.418566
Si Si4 0.976185 0.809778 0.425924
Si Si5 0.525208 0.405487 0.962892
O O1 0.204769 0.885678 0.738470
O O2 0.150422 0.997869 0.666504
O O3 0.500000 0.802954 0.750000
O O4 0.401565 0.744600 0.656279
O O5 0.691106 0.876635 0.612319
O O6 0.384717 0.401463 0.419676
O O7 0.403978 0.576568 0.426026
O O8 0.000000 0.500000 0.500000
O O9 0.750000 0.750000 0.500000
O O10 0.102395 0.837739 0.460939
O O11 0.500000 0.500000 0.000000
#
# Coordination Sequence:
#
# PCOD9302840 Si02
#       5
#     4   8   8   8   8
#     4  12  24  40  64  96 126 172 220 264 322 394
#     4  11  22  42  60  92 136 165 209 272 327 378
#     4  11  22  40  66  96 129 169 223 267 318 394
#     4   9  20  39  63  87 124 164 208 265 323 382
#     4   9  18  39  64  85 120 167 207 261 318 377
#
# _framework density 19.688507999999999
#
# number of rings (size 3 to 8) (size 9 to 14) (size 15 to 20)
#    0.000    1.778    2.222    4.000    1.556    0.000 
#    4.000    7.778    0.000    0.000    0.000    0.000 
#    0.000    0.000    0.000    0.000    0.000    0.000 
#
# Total GULP energy -100247.568948 kJ/mol
# GULP energy per Si atom -5569.309386 kJ/mol
# Density = 1.964370 g / cm^3
# Si number density = 19.688508 Si / 1000 Ang^3
#
#
#
# Elastic Constant Matrix: (Units=GPa)
#
#
# Indices 1 2 3 4 5 6 
#
# 1 61.8766 18.1094 39.2774 -0.0009 7.9619 0.0005
# 2 18.1094 76.2015 40.3640 -0.0017 13.2631 0.0013
# 3 39.2774 40.3640 138.4996 -0.0011 23.7363 0.0009
# 4 -0.0009 -0.0017 -0.0011 33.0850 0.0013 14.6465
# 5 7.9619 13.2631 23.7363 0.0013 43.2986 -0.0012
# 6 0.0005 0.0013 0.0009 14.6465 -0.0012 30.1578
#
#
#
# Elastic Compliance Matrix: (Units=1/GPa)
#
#
# Indices 1 2 3 4 5 6 
#
# 1 0.019984 -0.002037 -0.005023 0.000000 -0.000297 0.000000
# 2 -0.002037 0.015978 -0.003647 0.000001 -0.002520 -0.000001
# 3 -0.005023 -0.003647 0.010328 0.000000 -0.003621 0.000000
# 4 0.000000 0.000001 0.000000 0.038503 -0.000002 -0.018700
# 5 -0.000297 -0.002520 -0.003621 -0.000002 0.025907 0.000002
# 6 0.000000 -0.000001 0.000000 -0.018700 0.000002 0.042241
#
#
# Mechanical properties :
#
#
# Convention : Reuss Voigt Hill
#
# Bulk Modulus (GPa) = 40.19842 52.45326 46.32584
# Shear Modulus (GPa) = 27.37537 33.23007 30.30272
#
# Velocity S-wave (km/s) = 3.73288 4.11273 3.92740
# Velocity P-wave (km/s) = 6.24826 7.01799 6.64428
#
# Compressibility (1/GPa) = 0.02487660
#
# Stress axis : x y z
#
# Youngs Moduli (GPa) = 50.04041 62.58755 96.82361
#
# Poissons Ratio (x) = 0.12749 0.48631
# Poissons Ratio (y) = 0.10193 0.35310
# Poissons Ratio (z) = 0.25134 0.22825
#
# Static dielectric constant tensor:
#      x y z
#    x 1.448390 0.000150 0.117200 
#    y 0.000150 1.702710 -0.000050 
#    z 0.117200 -0.000050 1.684430 
# 
# From -- ./inp_files/132824.got.cif
#   From: 2010.05.17/outbox.cif.g08.bks.cpg/sg15_67_cif.got.tgz:132824.got - 2010.06.03 18:47:42.
