data_PCOD9302572
_publ_section_title
;
Structure prediction by ZEFSAII (Michael W. Deem and Ramdas Pophale) SiO2 
 PCOD9302572
Probable space group: C 2/C
;
_chemical_formula_sum "Si O2"
_cell_formula_units_Z 56
_cell_length_a 8.487781
_cell_length_b 22.993536
_cell_length_c 17.236574
_cell_angle_alpha 90.000000
_cell_angle_beta 47.650710
_cell_angle_gamma 90.000000
_cell_volume 2486.141159
_symmetry_space_group_name_H-M "C 2/C"
_symmetry_group_IT_number 15
_symmetry_cell_setting 'monoclinic'
loop_
_space_group_symop_operation_xyz
x,y,z
-x,y,1/2-z
-x,-y,-z
x,-y,1/2+z
1/2+x,1/2+y,z
1/2-x,1/2+y,1/2-z
1/2-x,1/2-y,-z
1/2+x,1/2-y,1/2+z
loop_
_atom_site_type_symbol
_atom_site_label
_atom_site_fract_x
_atom_site_fract_y
_atom_site_fract_z
Si Si1 0.194036 0.243243 0.128537
Si Si2 0.000000 0.015492 0.750000
Si Si3 0.500000 0.697376 0.750000
Si Si4 0.853638 0.395920 0.088836
Si Si5 0.580695 0.911709 0.614831
Si Si6 0.299186 0.653599 0.502908
Si Si7 0.646170 0.439919 0.842635
Si Si8 0.560554 0.784153 0.603457
O O1 0.127367 0.208305 0.074356
O O2 0.387719 0.204049 0.095095
O O3 0.000000 0.241633 0.250000
O O4 0.265280 0.310167 0.093178
O O5 0.782700 0.053171 0.825330
O O6 0.981123 0.981534 0.674385
O O7 0.308670 0.658406 0.846251
O O8 0.439171 0.741389 0.702020
O O9 0.886322 0.415278 0.988364
O O10 0.075513 0.376723 0.053885
O O11 0.336598 0.917508 0.723229
O O12 0.722115 0.954868 0.621569
O O13 0.637634 0.844137 0.614765
O O14 0.477278 0.605853 0.431389
O O15 0.750000 0.750000 0.500000
#
# Coordination Sequence:
#
# PCOD9302572 Si02
#       8
#     8   4   4   8   8   8   8   8
#     4  11  23  37  64 103 144 178 218 265 338 425
#     4  11  28  48  72  98 128 184 250 307 358 402
#     4  11  22  38  64  92 142 178 220 271 340 420
#     4  11  24  45  68  97 133 182 235 292 347 405
#     4  11  23  43  70 101 136 177 228 285 348 422
#     4  11  23  41  66 101 140 181 221 274 344 418
#     4  11  25  43  69  97 133 177 236 295 351 403
#     4  12  21  37  64 101 137 181 217 265 338 430
#
# _framework density 22.524868000000001
#
# number of rings (size 3 to 8) (size 9 to 14) (size 15 to 20)
#    0.000    0.857    2.857    4.286    1.000    6.286 
#    0.000    1.429    0.000    0.000    0.000    0.000 
#    0.000    0.000    0.000    0.000    0.000    0.000 
#
# Total GULP energy -156220.728271 kJ/mol
# GULP energy per Si atom -5579.311724 kJ/mol
# Density = 2.247360 g / cm^3
# Si number density = 22.524868 Si / 1000 Ang^3
#
#
#
# Elastic Constant Matrix: (Units=GPa)
#
#
# Indices 1 2 3 4 5 6 
#
# 1 72.7157 20.3873 20.6161 0.0000 -11.3002 0.0000
# 2 20.3873 46.3310 -5.1235 0.0000 -9.5159 0.0000
# 3 20.6161 -5.1235 87.5357 0.0000 -20.1623 0.0000
# 4 0.0000 0.0000 0.0000 32.1245 0.0000 -2.4859
# 5 -11.3002 -9.5159 -20.1623 0.0000 33.6266 0.0000
# 6 0.0000 0.0000 0.0000 -2.4859 0.0000 27.5765
#
#
#
# Elastic Compliance Matrix: (Units=1/GPa)
#
#
# Indices 1 2 3 4 5 6 
#
# 1 0.017349 -0.007905 -0.004317 0.000000 0.001004 0.000000
# 2 -0.007905 0.027364 0.005378 0.000000 0.008312 0.000000
# 3 -0.004317 0.005378 0.014818 0.000000 0.008956 0.000000
# 4 0.000000 0.000000 0.000000 0.031348 0.000000 0.002826
# 5 0.001004 0.008312 0.008956 0.000000 0.037798 0.000000
# 6 0.000000 0.000000 0.000000 0.002826 0.000000 0.036518
#
#
# Mechanical properties :
#
#
# Convention : Reuss Voigt Hill
#
# Bulk Modulus (GPa) = 21.81399 30.92691 26.37045
# Shear Modulus (GPa) = 25.75143 30.04569 27.89856
#
# Velocity S-wave (km/s) = 3.38486 3.65621 3.52315
# Velocity P-wave (km/s) = 4.99818 5.61994 5.31815
#
# Compressibility (1/GPa) = 0.04584215
#
# Stress axis : x y z
#
# Youngs Moduli (GPa) = 57.64138 36.54403 67.48408
#
# Poissons Ratio (x) = 0.28889 0.29135
# Poissons Ratio (y) = 0.45566 -0.36292
# Poissons Ratio (z) = 0.24885 -0.19653
#
# Static dielectric constant tensor:
#      x y z
#    x -0.724650 0.000000 -2.579250 
#    y 0.000000 1.847400 0.000000 
#    z -2.579250 0.000000 -0.818240 
# 
# From -- ./inp_files/193247.got.cif
#   From: 2010.05.17/outbox.cif.g08.bks.cpg/sg15_97_cif.got.tgz:193247.got - 2010.06.03 18:47:42.
