data_PCOD9302556
_publ_section_title
;
Structure prediction by ZEFSAII (Michael W. Deem and Ramdas Pophale) SiO2 
 PCOD9302556
Probable space group: C 2/C
;
_chemical_formula_sum "Si O2"
_cell_formula_units_Z 48
_cell_length_a 11.515020
_cell_length_b 24.256583
_cell_length_c 9.775492
_cell_angle_alpha 90.000000
_cell_angle_beta 57.779515
_cell_angle_gamma 90.000000
_cell_volume 2309.960945
_symmetry_space_group_name_H-M "C 2/C"
_symmetry_group_IT_number 15
_symmetry_cell_setting 'monoclinic'
loop_
_space_group_symop_operation_xyz
x,y,z
-x,y,1/2-z
-x,-y,-z
x,-y,1/2+z
1/2+x,1/2+y,z
1/2-x,1/2+y,1/2-z
1/2-x,1/2-y,-z
1/2+x,1/2-y,1/2+z
loop_
_atom_site_type_symbol
_atom_site_label
_atom_site_fract_x
_atom_site_fract_y
_atom_site_fract_z
Si Si1 0.876585 0.146398 0.438941
Si Si2 0.857951 0.032474 0.615364
Si Si3 0.913827 0.535123 0.166713
Si Si4 0.669398 0.841530 0.846925
Si Si5 0.583190 0.682405 0.510831
Si Si6 0.500000 0.227703 0.250000
Si Si7 0.500000 0.584961 0.750000
O O1 0.850203 0.086780 0.525148
O O2 0.738622 0.167851 0.452084
O O3 0.942121 0.187187 0.511366
O O4 0.000000 0.138973 0.250000
O O5 0.878998 0.050901 0.758900
O O6 0.722208 0.996759 0.697974
O O7 0.000000 0.000000 0.500000
O O8 0.867564 0.593978 0.135569
O O9 0.000000 0.545066 0.250000
O O10 0.000000 0.500000 0.000000
O O11 0.546701 0.808787 0.850020
O O12 0.792059 0.824054 0.668808
O O13 0.601879 0.728568 0.613708
O O14 0.564927 0.624087 0.596153
#
# Coordination Sequence:
#
# PCOD9302556 Si02
#       7
#     8   8   8   8   8   4   4
#     4   9  19  38  61  92 123 156 212 275 316 381
#     4  11  23  36  64  90 123 173 222 264 317 386
#     4  12  27  42  61  94 139 180 216 263 335 400
#     4  11  22  40  61  84 129 165 208 261 331 393
#     4   9  20  39  62  90 117 155 216 275 320 369
#     4  11  22  38  62  92 118 170 212 265 330 382
#     4   9  20  34  60  90 116 148 220 275 304 378
#
# _framework density 20.779571000000001
#
# number of rings (size 3 to 8) (size 9 to 14) (size 15 to 20)
#    0.000    1.667    0.833    4.500    8.167    0.667 
#    0.000    0.000    0.000    3.000    0.000    0.000 
#    0.000    0.000    0.000    0.000    0.000    0.000 
#
# Total GULP energy -133803.005917 kJ/mol
# GULP energy per Si atom -5575.125247 kJ/mol
# Density = 2.073228 g / cm^3
# Si number density = 20.779571 Si / 1000 Ang^3
#
#
#
# Elastic Constant Matrix: (Units=GPa)
#
#
# Indices 1 2 3 4 5 6 
#
# 1 90.7472 10.9901 4.0176 0.0000 14.0507 0.0000
# 2 10.9901 59.9145 2.2009 0.0000 -1.0374 0.0000
# 3 4.0176 2.2009 46.2625 0.0000 4.3685 0.0000
# 4 0.0000 0.0000 0.0000 -3.6007 0.0000 10.6356
# 5 14.0507 -1.0374 4.3685 0.0000 34.1836 0.0000
# 6 0.0000 0.0000 0.0000 10.6356 0.0000 15.0810
#
#
#
# Elastic Compliance Matrix: (Units=1/GPa)
#
#
# Indices 1 2 3 4 5 6 
#
# 1 0.012088 -0.002286 -0.000471 0.000000 -0.004978 0.000000
# 2 -0.002286 0.017165 -0.000765 0.000000 0.001558 0.000000
# 3 -0.000471 -0.000765 0.021942 0.000000 -0.002634 0.000000
# 4 0.000000 0.000000 0.000000 -0.090080 0.000000 0.063527
# 5 -0.004978 0.001558 -0.002634 0.000000 0.031684 0.000000
# 6 0.000000 0.000000 0.000000 0.063527 0.000000 0.021507
#
#
# Mechanical properties :
#
#
# Convention : Reuss Voigt Hill
#
# Bulk Modulus (GPa) = 22.65003 25.70458 24.17730
# Shear Modulus (GPa) = 138.62934 21.11382 79.87158
#
# Velocity S-wave (km/s) = 8.17674 3.19107 6.20653
# Velocity P-wave (km/s) = 10.00346 5.09649 7.93862
#
# Compressibility (1/GPa) = 0.04415006
#
# Stress axis : x y z
#
# Youngs Moduli (GPa) = 82.72615 58.25837 45.57510
#
# Poissons Ratio (x) = 0.13319 0.02146
# Poissons Ratio (y) = 0.18913 0.03487
# Poissons Ratio (z) = 0.03896 0.04458
#
# Static dielectric constant tensor:
#      x y z
#    x 1.824120 0.000000 0.029800 
#    y 0.000000 1.728270 0.000000 
#    z 0.029800 0.000000 1.772840 
# 
# From -- ./inp_files/33438.got.cif
#   From: 2010.05.17/outbox.cif.g08.bks.cpg/sg15_17_cif.got.tgz:33438.got - 2010.06.03 18:47:42.
