data_PCOD9302116
_publ_section_title
;
Structure prediction by ZEFSAII (Michael W. Deem and Ramdas Pophale) SiO2 
 PCOD9302116
Probable space group: C 2/C
;
_chemical_formula_sum "Si O2"
_cell_formula_units_Z 40
_cell_length_a 7.369793
_cell_length_b 12.336955
_cell_length_c 18.335526
_cell_angle_alpha 90.000000
_cell_angle_beta 105.193996
_cell_angle_gamma 90.000000
_cell_volume 1608.806241
_symmetry_space_group_name_H-M "C 2/C"
_symmetry_group_IT_number 15
_symmetry_cell_setting 'monoclinic'
loop_
_space_group_symop_operation_xyz
x,y,z
-x,y,1/2-z
-x,-y,-z
x,-y,1/2+z
1/2+x,1/2+y,z
1/2-x,1/2+y,1/2-z
1/2-x,1/2-y,-z
1/2+x,1/2-y,1/2+z
loop_
_atom_site_type_symbol
_atom_site_label
_atom_site_fract_x
_atom_site_fract_y
_atom_site_fract_z
Si Si1 0.888942 0.496901 0.381554
Si Si2 0.310845 0.572433 0.779926
Si Si3 0.492993 0.783850 0.831149
Si Si4 0.637887 0.782130 0.061749
Si Si5 0.503459 0.446209 0.921047
O O1 0.851741 0.454662 0.294880
O O2 0.981594 0.614759 0.383743
O O3 0.966698 0.396294 0.437179
O O4 0.692651 0.521335 0.400655
O O5 0.500000 0.559902 0.750000
O O6 0.326301 0.694305 0.814622
O O7 0.337066 0.491173 0.850950
O O8 0.500000 0.826021 0.750000
O O9 0.684751 0.718848 0.864682
O O10 0.509813 0.681634 0.069290
O O11 0.750000 0.750000 0.000000
O O12 0.500000 0.500000 0.000000
#
# Coordination Sequence:
#
# PCOD9302116 Si02
#       5
#     8   8   8   8   8
#     4  11  23  42  66  94 124 172 215 256 321 383
#     4   9  18  38  64  86 125 168 202 255 317 367
#     4  11  21  43  67  92 130 165 211 269 315 376
#     4  12  23  43  65  92 133 167 209 268 324 373
#     4  11  21  42  66  90 129 172 207 260 324 377
#
# _framework density 24.863154999999999
#
# number of rings (size 3 to 8) (size 9 to 14) (size 15 to 20)
#    0.000    1.200    8.000    1.200    0.000    0.800 
#    7.200    2.000    0.000    0.000    0.000    0.000 
#    0.000    0.000    0.000    0.000    0.000    0.000 
#
# Total GULP energy -111805.450872 kJ/mol
# GULP energy per Si atom -5590.272544 kJ/mol
# Density = 2.480657 g / cm^3
# Si number density = 24.863155 Si / 1000 Ang^3
#
#
#
# Elastic Constant Matrix: (Units=GPa)
#
#
# Indices 1 2 3 4 5 6 
#
# 1 28.1268 22.9207 14.2178 0.0000 -13.2360 0.0000
# 2 22.9207 193.3729 14.9381 0.0000 -21.6799 0.0000
# 3 14.2178 14.9381 114.1292 0.0000 -14.2390 0.0000
# 4 0.0000 0.0000 0.0000 38.8643 0.0000 -6.0642
# 5 -13.2360 -21.6799 -14.2390 0.0000 31.8018 0.0000
# 6 0.0000 0.0000 0.0000 -6.0642 0.0000 47.8912
#
#
#
# Elastic Compliance Matrix: (Units=1/GPa)
#
#
# Indices 1 2 3 4 5 6 
#
# 1 0.047713 -0.003610 -0.003496 0.000000 0.015831 0.000000
# 2 -0.003610 0.005880 -0.000008 0.000000 0.002503 0.000000
# 3 -0.003496 -0.000008 0.009550 0.000000 0.002816 0.000000
# 4 0.000000 0.000000 0.000000 0.026249 0.000000 0.003324
# 5 0.015831 0.002503 0.002816 0.000000 0.041001 0.000000
# 6 0.000000 0.000000 0.000000 0.003324 0.000000 0.021302
#
#
# Mechanical properties :
#
#
# Convention : Reuss Voigt Hill
#
# Bulk Modulus (GPa) = 20.44382 48.86468 34.65425
# Shear Modulus (GPa) = 27.43819 42.61495 35.02657
#
# Velocity S-wave (km/s) = 3.32560 4.14452 3.75744
# Velocity P-wave (km/s) = 4.79443 6.52678 5.72649
#
# Compressibility (1/GPa) = 0.04891455
#
# Stress axis : x y z
#
# Youngs Moduli (GPa) = 20.95876 170.05390 104.71413
#
# Poissons Ratio (x) = 0.61397 0.36610
# Poissons Ratio (y) = 0.07567 0.00080
# Poissons Ratio (z) = 0.07327 0.00130
#
# Static dielectric constant tensor:
#      x y z
#    x 1.965280 0.000000 0.034470 
#    y 0.000000 2.034470 0.000000 
#    z 0.034470 0.000000 2.018640 
# 
# From -- ./inp_files/187796.got.cif
#   From: 2010.05.17/outbox.cif.g08.bks.cpg/sg15_94_cif.got.tgz:187796.got - 2010.06.03 18:47:42.
