data_PCOD9302974
_publ_section_title
;
Structure prediction by ZEFSAII (Michael W. Deem and Ramdas Pophale) SiO2 
 PCOD9302974
Probable space group: C 2/C
;
_chemical_formula_sum "Si O2"
_cell_formula_units_Z 64
_cell_length_a 15.424919
_cell_length_b 15.757031
_cell_length_c 15.988992
_cell_angle_alpha 90.000000
_cell_angle_beta 136.298530
_cell_angle_gamma 90.000000
_cell_volume 2684.937389
_symmetry_space_group_name_H-M "C 2/C"
_symmetry_group_IT_number 15
_symmetry_cell_setting 'monoclinic'
loop_
_space_group_symop_operation_xyz
x,y,z
-x,y,1/2-z
-x,-y,-z
x,-y,1/2+z
1/2+x,1/2+y,z
1/2-x,1/2+y,1/2-z
1/2-x,1/2-y,-z
1/2+x,1/2-y,1/2+z
loop_
_atom_site_type_symbol
_atom_site_label
_atom_site_fract_x
_atom_site_fract_y
_atom_site_fract_z
Si Si1 0.127032 0.840156 0.477203
Si Si2 0.053563 0.468125 0.378239
Si Si3 0.254323 0.803132 0.731933
Si Si4 0.826202 0.390976 0.313151
Si Si5 0.576075 0.412763 0.051953
Si Si6 0.022555 0.671317 0.362327
Si Si7 0.794241 0.974056 0.109908
Si Si8 0.442316 0.380728 0.791309
O O1 0.216388 0.852019 0.619814
O O2 0.159809 0.902724 0.423936
O O3 0.989065 0.861947 0.417336
O O4 0.127763 0.739775 0.459285
O O5 0.202500 0.459585 0.497760
O O6 0.000000 0.444051 0.250000
O O7 0.963886 0.420181 0.381234
O O8 0.040574 0.570706 0.376397
O O9 0.196722 0.709000 0.691625
O O10 0.402781 0.809084 0.836055
O O11 0.187035 0.845636 0.762908
O O12 0.722567 0.420774 0.172473
O O13 0.786403 0.433354 0.372008
O O14 0.500000 0.500000 0.000000
O O15 0.539659 0.375860 0.936039
O O16 0.000000 0.694125 0.250000
O O17 0.902807 0.025200 0.233541
O O18 0.500000 0.337019 0.750000
#
# Coordination Sequence:
#
# PCOD9302974 Si02
#       8
#     8   8   8   8   8   8   8   8
#     4  11  24  41  72 104 142 178 233 302 367 434
#     4  11  27  44  68 100 148 195 238 292 359 435
#     4  11  25  45  68 102 143 186 237 295 363 430
#     4  12  25  45  72 103 142 194 242 292 364 438
#     4  11  23  42  69 103 137 180 240 298 352 423
#     4  11  22  41  66 104 143 182 228 293 363 429
#     4  12  25  43  72 109 139 188 240 298 375 441
#     4  11  26  45  71  99 139 187 248 307 355 423
#
# _framework density 23.836680999999999
#
# number of rings (size 3 to 8) (size 9 to 14) (size 15 to 20)
#    0.000    0.750    2.500    4.875    5.250    3.000 
#    0.000    0.625    0.000    0.000    0.000    0.000 
#    0.000    0.000    0.000    0.000    0.000    0.000 
#
# Total GULP energy -179006.246896 kJ/mol
# GULP energy per Si atom -5593.945215 kJ/mol
# Density = 2.378243 g / cm^3
# Si number density = 23.836681 Si / 1000 Ang^3
#
#
#
# Elastic Constant Matrix: (Units=GPa)
#
#
# Indices 1 2 3 4 5 6 
#
# 1 141.9686 8.5927 30.9950 0.0000 -23.0251 0.0000
# 2 8.5927 42.0772 -0.1085 0.0000 -7.7054 0.0000
# 3 30.9950 -0.1085 78.3022 0.0000 -18.4320 0.0000
# 4 0.0000 0.0000 0.0000 26.1697 0.0000 12.0703
# 5 -23.0251 -7.7054 -18.4320 0.0000 36.2806 0.0000
# 6 0.0000 0.0000 0.0000 12.0703 0.0000 1.6499
#
#
#
# Elastic Compliance Matrix: (Units=1/GPa)
#
#
# Indices 1 2 3 4 5 6 
#
# 1 0.008239 -0.000989 -0.002364 0.000000 0.003818 0.000000
# 2 -0.000989 0.024991 0.001735 0.000000 0.005561 0.000000
# 3 -0.002364 0.001735 0.015269 0.000000 0.006625 0.000000
# 4 0.000000 0.000000 0.000000 -0.016094 0.000000 0.117742
# 5 0.003818 0.005561 0.006625 0.000000 0.034533 0.000000
# 6 0.000000 0.000000 0.000000 0.117742 0.000000 -0.255278
#
#
# Mechanical properties :
#
#
# Convention : Reuss Voigt Hill
#
# Bulk Modulus (GPa) = 22.09338 37.92291 30.00815
# Shear Modulus (GPa) = -29.40884 27.67798 -0.86543
#
# Velocity S-wave (km/s) = -3.51631 3.41126 -0.60320
# Velocity P-wave (km/s) = 2.68275 5.60889 3.48299
#
# Compressibility (1/GPa) = 0.04526243
#
# Stress axis : x y z
#
# Youngs Moduli (GPa) = 121.37434 40.01473 65.49298
#
# Poissons Ratio (x) = 0.03959 0.15483
# Poissons Ratio (y) = 0.12010 -0.11366
# Poissons Ratio (z) = 0.28693 -0.06944
#
# Static dielectric constant tensor:
#      x y z
#    x 1.915480 0.000000 0.027380 
#    y 0.000000 1.941590 0.000000 
#    z 0.027380 0.000000 2.007300 
# 
# From -- ./inp_files/155525.got.cif
#   From: 2010.05.17/outbox.cif.g08.bks.cpg/sg15_78_cif.got.tgz:155525.got - 2010.06.03 18:47:42.
