data_PCOD9302940
_publ_section_title
;
Structure prediction by ZEFSAII (Michael W. Deem and Ramdas Pophale) SiO2 
 PCOD9302940
Probable space group: C 2/C
;
_chemical_formula_sum "Si O2"
_cell_formula_units_Z 48
_cell_length_a 19.884592
_cell_length_b 28.922458
_cell_length_c 8.455263
_cell_angle_alpha 90.000000
_cell_angle_beta 31.741147
_cell_angle_gamma 90.000000
_cell_volume 2558.190496
_symmetry_space_group_name_H-M "C 2/C"
_symmetry_group_IT_number 15
_symmetry_cell_setting 'monoclinic'
loop_
_space_group_symop_operation_xyz
x,y,z
-x,y,1/2-z
-x,-y,-z
x,-y,1/2+z
1/2+x,1/2+y,z
1/2-x,1/2+y,1/2-z
1/2-x,1/2-y,-z
1/2+x,1/2-y,1/2+z
loop_
_atom_site_type_symbol
_atom_site_label
_atom_site_fract_x
_atom_site_fract_y
_atom_site_fract_z
Si Si1 0.147985 0.450187 0.763570
Si Si2 1.000000 0.800376 0.935568
Si Si3 0.252978 0.647351 0.433782
Si Si4 0.647985 0.049813 0.644492
Si Si5 0.252978 0.647351 0.054306
Si Si6 1.000000 0.302279 0.937061
O O1 0.193268 0.500000 0.613464
O O2 0.229305 0.405790 0.551197
O O3 0.146501 0.450709 0.956999
O O4 1.000000 0.444200 0.005823
O O5 0.125252 0.829457 0.729747
O O6 0.000000 0.789461 0.750000
O O7 0.000000 0.752339 0.030223
O O8 0.874747 0.829457 0.230756
O O9 0.229306 0.594210 0.531581
O O10 0.268743 0.648639 0.212514
O O11 0.125596 0.675259 0.734768
O O12 0.125596 0.675259 0.262850
O O13 0.000000 0.311174 0.750000
#
# Coordination Sequence:
#
# PCOD9302940 Si02
#       6
#     8   8   8   8   8   8
#     4   9  18  34  58  88 118 150 190 240 291 343
#     4  12  26  42  59  86 121 158 199 246 298 354
#     4  11  22  41  63  88 121 158 198 244 296 349
#     4   9  18  34  58  88 118 150 190 240 291 343
#     4  11  22  41  63  88 121 158 198 244 296 349
#     4  12  24  40  63  90 117 156 201 246 294 348
#
# _framework density 18.763262999999998
#
# number of rings (size 3 to 8) (size 9 to 14) (size 15 to 20)
#    0.000    1.333    1.667    5.000    0.000    2.667 
#    0.000    0.833    0.000    0.000    0.000    0.000 
#    0.000    0.000    0.000    0.000    0.000    0.000 
#
# Total GULP energy -134161.079616 kJ/mol
# GULP energy per Si atom -5590.044984 kJ/mol
# Density = 1.872056 g / cm^3
# Si number density = 18.763263 Si / 1000 Ang^3
#
#
#
# Elastic Constant Matrix: (Units=GPa)
#
#
# Indices 1 2 3 4 5 6 
#
# 1 42.9799 -7.2230 -8.6643 0.0000 -14.5725 0.0000
# 2 -7.2230 122.9833 17.7461 0.0000 -22.5115 0.0000
# 3 -8.6643 17.7461 77.2826 0.0000 -16.3539 0.0000
# 4 0.0000 0.0000 0.0000 15.0566 0.0000 11.5630
# 5 -14.5725 -22.5115 -16.3539 0.0000 35.5100 0.0000
# 6 0.0000 0.0000 0.0000 11.5630 0.0000 27.8813
#
#
#
# Elastic Compliance Matrix: (Units=1/GPa)
#
#
# Indices 1 2 3 4 5 6 
#
# 1 0.031674 0.004353 0.006522 0.000000 0.018762 0.000000
# 2 0.004353 0.009863 -0.000084 0.000000 0.008001 0.000000
# 3 0.006522 -0.000084 0.015783 0.000000 0.009892 0.000000
# 4 0.000000 0.000000 0.000000 0.097455 0.000000 -0.040417
# 5 0.018762 0.008001 0.009892 0.000000 0.045488 0.000000
# 6 0.000000 0.000000 0.000000 -0.040417 0.000000 0.052628
#
#
# Mechanical properties :
#
#
# Convention : Reuss Voigt Hill
#
# Bulk Modulus (GPa) = 12.67373 27.44039 20.05706
# Shear Modulus (GPa) = 19.40914 31.78206 25.59560
#
# Velocity S-wave (km/s) = 3.21973 4.12010 3.69742
# Velocity P-wave (km/s) = 4.53778 6.10655 5.37965
#
# Compressibility (1/GPa) = 0.07890339
#
# Stress axis : x y z
#
# Youngs Moduli (GPa) = 31.57147 101.38411 63.35862
#
# Poissons Ratio (x) = -0.44137 -0.41320
# Poissons Ratio (y) = -0.13744 0.00531
# Poissons Ratio (z) = -0.20590 0.00849
#
# Static dielectric constant tensor:
#      x y z
#    x 1.627100 0.000000 0.009980 
#    y 0.000000 1.645530 0.000000 
#    z 0.009980 0.000000 1.616030 
# 
# From -- ./inp_files/59083.got.cif
#   From: 2010.05.17/outbox.cif.g08.bks.cpg/sg15_30_cif.got.tgz:59083.got - 2010.06.03 18:47:42.
