data_PCOD9302582
_publ_section_title
;
Structure prediction by ZEFSAII (Michael W. Deem and Ramdas Pophale) SiO2 
 PCOD9302582
Probable space group: C 2/C
;
_chemical_formula_sum "Si O2"
_cell_formula_units_Z 56
_cell_length_a 27.228251
_cell_length_b 11.670347
_cell_length_c 8.497135
_cell_angle_alpha 90.000000
_cell_angle_beta 98.737178
_cell_angle_gamma 90.000000
_cell_volume 2668.743319
_symmetry_space_group_name_H-M "C 2/C"
_symmetry_group_IT_number 15
_symmetry_cell_setting 'monoclinic'
loop_
_space_group_symop_operation_xyz
x,y,z
-x,y,1/2-z
-x,-y,-z
x,-y,1/2+z
1/2+x,1/2+y,z
1/2-x,1/2+y,1/2-z
1/2-x,1/2-y,-z
1/2+x,1/2-y,1/2+z
loop_
_atom_site_type_symbol
_atom_site_label
_atom_site_fract_x
_atom_site_fract_y
_atom_site_fract_z
Si Si1 0.269880 0.878678 0.767255
Si Si2 0.169474 0.463455 0.996501
Si Si3 0.892790 0.263766 0.386215
Si Si4 0.004441 0.370174 0.940636
Si Si5 0.599365 0.185092 0.968786
Si Si6 0.822285 0.837741 0.339116
Si Si7 0.326190 0.576516 0.485894
O O1 0.312473 0.909869 0.658630
O O2 0.277122 0.750914 0.835984
O O3 0.218719 0.884932 0.649658
O O4 0.282769 0.971508 0.906898
O O5 0.148768 0.358893 0.088963
O O6 0.125796 0.559407 0.966329
O O7 0.944456 0.310727 0.481838
O O8 0.896880 0.260106 0.201056
O O9 0.874786 0.143303 0.447763
O O10 0.000000 0.368646 0.750000
O O11 0.000000 0.500000 0.000000
O O12 0.956616 0.315212 0.999325
O O13 0.630602 0.257245 0.108995
O O14 0.826512 0.940567 0.463484
O O15 0.819456 0.887576 0.162723
#
# Coordination Sequence:
#
# PCOD9302582 Si02
#       7
#     8   8   8   8   8   8   8
#     4  11  24  41  66  97 140 180 230 285 345 407
#     4  11  22  38  65  98 135 173 222 280 342 402
#     4  12  24  41  67  98 137 177 226 281 345 406
#     4  12  25  40  68 104 139 176 225 285 359 417
#     4  11  24  43  67 100 136 175 223 287 349 415
#     4  11  25  43  65  95 132 181 232 283 338 411
#     4  12  25  43  67  93 138 185 235 282 341 408
#
# _framework density 20.98366
#
# number of rings (size 3 to 8) (size 9 to 14) (size 15 to 20)
#    0.000    0.571    4.286    4.286    4.000    0.000 
#    0.000    4.286    0.000    0.000    0.000    0.000 
#    0.000    0.000    0.000    0.000    0.000    0.000 
#
# Total GULP energy -156686.497446 kJ/mol
# GULP energy per Si atom -5595.946337 kJ/mol
# Density = 2.093590 g / cm^3
# Si number density = 20.983660 Si / 1000 Ang^3
#
#
#
# Elastic Constant Matrix: (Units=GPa)
#
#
# Indices 1 2 3 4 5 6 
#
# 1 80.9627 33.7879 16.6184 0.0000 10.7067 0.0000
# 2 33.7879 108.2625 33.4367 0.0000 4.8771 0.0000
# 3 16.6184 33.4367 107.7404 0.0000 3.4441 0.0000
# 4 0.0000 0.0000 0.0000 36.6236 0.0000 5.1491
# 5 10.7067 4.8771 3.4441 0.0000 38.5372 0.0000
# 6 0.0000 0.0000 0.0000 5.1491 0.0000 24.2804
#
#
#
# Elastic Compliance Matrix: (Units=1/GPa)
#
#
# Indices 1 2 3 4 5 6 
#
# 1 0.014732 -0.004173 -0.000866 0.000000 -0.003487 0.000000
# 2 -0.004173 0.011438 -0.002905 0.000000 -0.000028 0.000000
# 3 -0.000866 -0.002905 0.010327 0.000000 -0.000315 0.000000
# 4 0.000000 0.000000 0.000000 0.028144 0.000000 -0.005968
# 5 -0.003487 -0.000028 -0.000315 0.000000 0.026950 0.000000
# 6 0.000000 0.000000 0.000000 -0.005968 0.000000 0.042451
#
#
# Mechanical properties :
#
#
# Convention : Reuss Voigt Hill
#
# Bulk Modulus (GPa) = 48.52392 51.62797 50.07595
# Shear Modulus (GPa) = 31.88807 34.09640 32.99223
#
# Velocity S-wave (km/s) = 3.90251 4.03538 3.96950
# Velocity P-wave (km/s) = 6.59401 6.80953 6.70264
#
# Compressibility (1/GPa) = 0.02060839
#
# Stress axis : x y z
#
# Youngs Moduli (GPa) = 67.88017 87.42985 96.83610
#
# Poissons Ratio (x) = 0.36486 0.08383
# Poissons Ratio (y) = 0.28328 0.28131
# Poissons Ratio (z) = 0.05876 0.25399
#
# Static dielectric constant tensor:
#      x y z
#    x 1.750320 0.000000 0.010960 
#    y 0.000000 1.934330 0.000000 
#    z 0.010960 0.000000 1.754470 
# 
# From -- ./inp_files/65448.got.cif
#   From: 2010.05.17/outbox.cif.g08.bks.cpg/sg15_33_cif.got.tgz:65448.got - 2010.06.03 18:47:42.
