data_PCOD9302967
_publ_section_title
;
Structure prediction by ZEFSAII (Michael W. Deem and Ramdas Pophale) SiO2 
 PCOD9302967
Probable space group: C 2/C
;
_chemical_formula_sum "Si O2"
_cell_formula_units_Z 56
_cell_length_a 15.058048
_cell_length_b 22.476220
_cell_length_c 9.099045
_cell_angle_alpha 90.000000
_cell_angle_beta 119.848044
_cell_angle_gamma 90.000000
_cell_volume 2671.045939
_symmetry_space_group_name_H-M "C 2/C"
_symmetry_group_IT_number 15
_symmetry_cell_setting 'monoclinic'
loop_
_space_group_symop_operation_xyz
x,y,z
-x,y,1/2-z
-x,-y,-z
x,-y,1/2+z
1/2+x,1/2+y,z
1/2-x,1/2+y,1/2-z
1/2-x,1/2-y,-z
1/2+x,1/2-y,1/2+z
loop_
_atom_site_type_symbol
_atom_site_label
_atom_site_fract_x
_atom_site_fract_y
_atom_site_fract_z
Si Si1 0.891894 0.836426 0.975360
Si Si2 0.566617 0.176669 0.168152
Si Si3 0.622498 0.014209 0.563911
Si Si4 0.384921 0.694697 0.810484
Si Si5 0.929890 0.381054 0.315672
Si Si6 0.782943 0.424409 0.650509
Si Si7 0.805471 0.269740 0.193734
O O1 0.833813 0.900277 0.935796
O O2 0.846330 0.786949 0.822823
O O3 0.880422 0.810005 0.130672
O O4 0.015177 0.841157 0.053653
O O5 0.500000 0.195682 0.250000
O O6 0.596684 0.237762 0.119582
O O7 0.660060 0.138960 0.303932
O O8 0.498694 0.134974 0.011973
O O9 0.647727 0.069664 0.692132
O O10 0.664783 0.037250 0.439925
O O11 0.500000 0.000000 0.500000
O O12 0.685807 0.958229 0.674790
O O13 0.271005 0.687455 0.775976
O O14 0.891502 0.318008 0.225437
O O15 0.000000 0.410127 0.250000
O O16 0.750000 0.250000 0.000000
#
# Coordination Sequence:
#
# PCOD9302967 Si02
#       7
#     8   8   8   8   8   8   8
#     4  11  24  40  68  94 131 176 225 271 323 395
#     4  12  19  36  63  95 127 167 209 260 319 398
#     4  12  24  41  63  94 130 170 214 268 334 390
#     4  11  22  41  65  96 133 172 222 268 326 390
#     4  12  24  38  60  95 138 175 208 261 330 398
#     4  12  25  41  65  96 132 172 218 268 331 399
#     4  12  25  38  62  98 139 177 211 264 338 397
#
# _framework density 20.96557
#
# number of rings (size 3 to 8) (size 9 to 14) (size 15 to 20)
#    0.000    0.286    7.143    3.429    0.000    0.000 
#    0.000    0.000    0.000    7.714    0.000    0.000 
#    0.000    0.000    0.000    0.000    0.000    0.000 
#
# Total GULP energy -156023.644764 kJ/mol
# GULP energy per Si atom -5572.273027 kJ/mol
# Density = 2.091785 g / cm^3
# Si number density = 20.965570 Si / 1000 Ang^3
#
#
#
# Elastic Constant Matrix: (Units=GPa)
#
#
# Indices 1 2 3 4 5 6 
#
# 1 35.4520 9.1784 0.8256 0.0000 7.7200 0.0000
# 2 9.1784 82.7341 11.3430 0.0000 12.2041 0.0000
# 3 0.8256 11.3430 75.9440 0.0000 9.4263 0.0000
# 4 0.0000 0.0000 0.0000 50.5442 0.0000 11.4222
# 5 7.7200 12.2041 9.4263 0.0000 22.2286 0.0000
# 6 0.0000 0.0000 0.0000 11.4222 0.0000 35.0762
#
#
#
# Elastic Compliance Matrix: (Units=1/GPa)
#
#
# Indices 1 2 3 4 5 6 
#
# 1 0.030925 -0.002109 0.001233 0.000000 -0.010105 0.000000
# 2 -0.002109 0.013388 -0.001219 0.000000 -0.006101 0.000000
# 3 0.001233 -0.001219 0.014046 0.000000 -0.005715 0.000000
# 4 0.000000 0.000000 0.000000 0.021356 0.000000 -0.006954
# 5 -0.010105 -0.006101 -0.005715 0.000000 0.054270 0.000000
# 6 0.000000 0.000000 0.000000 -0.006954 0.000000 0.030774
#
#
# Mechanical properties :
#
#
# Convention : Reuss Voigt Hill
#
# Bulk Modulus (GPa) = 18.46123 26.31377 22.38750
# Shear Modulus (GPa) = 26.73716 33.08866 29.91291
#
# Velocity S-wave (km/s) = 3.57499 3.97701 3.78135
# Velocity P-wave (km/s) = 5.08580 5.80233 5.45584
#
# Compressibility (1/GPa) = 0.05416756
#
# Stress axis : x y z
#
# Youngs Moduli (GPa) = 32.33629 74.69367 71.19618
#
# Poissons Ratio (x) = 0.15755 -0.08779
# Poissons Ratio (y) = 0.06820 0.08682
# Poissons Ratio (z) = -0.03987 0.09109
#
# Static dielectric constant tensor:
#      x y z
#    x 1.877280 0.000000 0.085380 
#    y 0.000000 1.763110 0.000000 
#    z 0.085380 0.000000 1.769220 
# 
# From -- ./inp_files/42747.got.cif
#   From: 2010.05.17/outbox.cif.g08.bks.cpg/sg15_22_cif.got.tgz:42747.got - 2010.06.03 18:47:42.
