data_PCOD9302044
_publ_section_title
;
Structure prediction by ZEFSAII (Michael W. Deem and Ramdas Pophale) SiO2 
 PCOD9302044
Probable space group: C 2/C
;
_chemical_formula_sum "Si O2"
_cell_formula_units_Z 56
_cell_length_a 19.229934
_cell_length_b 8.630357
_cell_length_c 14.587341
_cell_angle_alpha 90.000000
_cell_angle_beta 114.922304
_cell_angle_gamma 90.000000
_cell_volume 2195.495423
_symmetry_space_group_name_H-M "C 2/C"
_symmetry_group_IT_number 15
_symmetry_cell_setting 'monoclinic'
loop_
_space_group_symop_operation_xyz
x,y,z
-x,y,1/2-z
-x,-y,-z
x,-y,1/2+z
1/2+x,1/2+y,z
1/2-x,1/2+y,1/2-z
1/2-x,1/2-y,-z
1/2+x,1/2-y,1/2+z
loop_
_atom_site_type_symbol
_atom_site_label
_atom_site_fract_x
_atom_site_fract_y
_atom_site_fract_z
Si Si1 0.000000 0.416680 0.750000
Si Si2 0.500000 0.590589 0.250000
Si Si3 0.362471 0.829431 0.415784
Si Si4 0.339391 0.173290 0.121940
Si Si5 0.523076 0.164715 0.919951
Si Si6 0.184951 0.658299 0.112223
Si Si7 0.800294 0.001798 0.886571
Si Si8 0.667997 0.488852 0.886021
O O1 0.078343 0.325457 0.785118
O O2 0.011628 0.522467 0.844838
O O3 0.492010 0.690852 0.154069
O O4 0.415314 0.517889 0.206039
O O5 0.349539 0.838287 0.518216
O O6 0.454270 0.834663 0.453641
O O7 0.332082 0.661057 0.363383
O O8 0.328922 0.987247 0.350596
O O9 0.301143 0.339039 0.117306
O O10 0.286576 0.037762 0.131272
O O11 0.608176 0.165100 0.007529
O O12 0.189113 0.832205 0.156618
O O13 0.267447 0.633313 0.108775
O O14 0.840734 0.019274 0.008819
#
# Coordination Sequence:
#
# PCOD9302044 Si02
#       8
#     4   4   8   8   8   8   8   8
#     4  11  23  40  66  94 134 182 220 272 342 398
#     4  11  25  42  64  98 136 178 220 276 340 398
#     4  11  23  44  66 100 134 168 234 282 314 400
#     4  11  22  42  70 102 130 175 229 278 328 395
#     4  11  25  42  65  97 137 177 227 272 333 401
#     4  12  22  41  72  97 129 176 226 273 323 399
#     4  11  22  40  71 100 125 172 229 266 328 401
#     4  11  21  41  68  97 130 168 226 273 326 395
#
# _framework density 25.506771000000001
#
# number of rings (size 3 to 8) (size 9 to 14) (size 15 to 20)
#    0.000    0.857    5.714    2.143    4.000    0.571 
#    0.000    2.857    0.000    0.000    0.000    0.000 
#    0.000    0.000    0.000    0.000    0.000    0.000 
#
# Total GULP energy -156513.111719 kJ/mol
# GULP energy per Si atom -5589.753990 kJ/mol
# Density = 2.544872 g / cm^3
# Si number density = 25.506771 Si / 1000 Ang^3
#
#
#
# Elastic Constant Matrix: (Units=GPa)
#
#
# Indices 1 2 3 4 5 6 
#
# 1 135.0791 59.7903 65.6923 0.0000 38.0551 0.0000
# 2 59.7903 203.0514 38.1766 0.0000 12.2762 0.0000
# 3 65.6923 38.1766 110.4799 0.0000 13.9428 0.0000
# 4 0.0000 0.0000 0.0000 38.1390 0.0000 8.1940
# 5 38.0551 12.2762 13.9428 0.0000 45.6202 0.0000
# 6 0.0000 0.0000 0.0000 8.1940 0.0000 46.1659
#
#
#
# Elastic Compliance Matrix: (Units=1/GPa)
#
#
# Indices 1 2 3 4 5 6 
#
# 1 0.014209 -0.002413 -0.006450 0.000000 -0.009232 0.000000
# 2 -0.002413 0.005712 -0.000623 0.000000 0.000666 0.000000
# 3 -0.006450 -0.000623 0.012899 0.000000 0.001605 0.000000
# 4 0.000000 0.000000 0.000000 0.027259 0.000000 -0.004838
# 5 -0.009232 0.000666 0.001605 0.000000 0.028951 0.000000
# 6 0.000000 0.000000 0.000000 -0.004838 0.000000 0.022520
#
#
# Mechanical properties :
#
#
# Convention : Reuss Voigt Hill
#
# Bulk Modulus (GPa) = 72.21074 86.21432 79.21253
# Shear Modulus (GPa) = 36.99914 44.98177 40.99045
#
# Velocity S-wave (km/s) = 3.81276 4.20399 4.01314
# Velocity P-wave (km/s) = 6.91048 7.57883 7.25236
#
# Compressibility (1/GPa) = 0.01384836
#
# Stress axis : x y z
#
# Youngs Moduli (GPa) = 70.37961 175.06095 77.52453
#
# Poissons Ratio (x) = 0.42244 0.50001
# Poissons Ratio (y) = 0.16983 0.04831
# Poissons Ratio (z) = 0.45392 0.10909
#
# Static dielectric constant tensor:
#      x y z
#    x 2.013930 0.000000 -0.003120 
#    y 0.000000 2.068820 0.000000 
#    z -0.003120 0.000000 1.969040 
# 
# From -- ./inp_files/214065.got.cif
#   From: 2010.05.17/outbox.cif.g08.bks.cpg/sg15_108_cif.got.tgz:214065.got - 2010.06.03 18:47:42.
