data_PCOD9302716
_publ_section_title
;
Structure prediction by ZEFSAII (Michael W. Deem and Ramdas Pophale) SiO2 
 PCOD9302716
Probable space group: C 2/C
;
_chemical_formula_sum "Si O2"
_cell_formula_units_Z 56
_cell_length_a 8.962705
_cell_length_b 17.297100
_cell_length_c 19.217968
_cell_angle_alpha 90.000000
_cell_angle_beta 61.305901
_cell_angle_gamma 90.000000
_cell_volume 2613.462771
_symmetry_space_group_name_H-M "C 2/C"
_symmetry_group_IT_number 15
_symmetry_cell_setting 'monoclinic'
loop_
_space_group_symop_operation_xyz
x,y,z
-x,y,1/2-z
-x,-y,-z
x,-y,1/2+z
1/2+x,1/2+y,z
1/2-x,1/2+y,1/2-z
1/2-x,1/2-y,-z
1/2+x,1/2-y,1/2+z
loop_
_atom_site_type_symbol
_atom_site_label
_atom_site_fract_x
_atom_site_fract_y
_atom_site_fract_z
Si Si1 0.524231 0.854020 0.627602
Si Si2 0.649947 0.388250 0.479908
Si Si3 0.001727 0.408696 0.022644
Si Si4 0.151340 0.089103 0.660727
Si Si5 0.579802 0.295587 0.063881
Si Si6 0.827184 0.931575 0.774334
Si Si7 0.682103 0.464386 0.879496
O O1 0.535144 0.868066 0.542309
O O2 0.529189 0.762544 0.636954
O O3 0.340158 0.882731 0.688641
O O4 0.669522 0.904618 0.631329
O O5 0.816517 0.380135 0.489895
O O6 0.563996 0.313775 0.461568
O O7 0.494295 0.425962 0.557212
O O8 0.705487 0.454237 0.412278
O O9 0.854246 0.389113 0.112780
O O10 0.000000 0.500000 0.000000
O O11 0.103519 0.121198 0.595315
O O12 0.000000 0.111325 0.750000
O O13 0.168793 0.997353 0.667832
O O14 0.750000 0.250000 0.000000
O O15 0.822523 0.974681 0.701658
O O16 0.000000 0.885272 0.750000
#
# Coordination Sequence:
#
# PCOD9302716 Si02
#       7
#     8   8   8   8   8   8   8
#     4  12  24  43  68  97 141 178 231 288 344 427
#     4  11  23  39  70 100 134 182 234 287 346 429
#     4  12  22  41  70 103 132 174 237 297 343 403
#     4  11  24  43  69  97 139 182 227 291 359 421
#     4  12  25  47  67 101 141 187 231 282 360 437
#     4  11  23  40  66 101 132 175 230 293 346 411
#     4  11  22  39  67 100 132 178 235 284 348 417
#
# _framework density 21.427510999999999
#
# number of rings (size 3 to 8) (size 9 to 14) (size 15 to 20)
#    0.000    0.571    5.714    3.000    4.000    1.714 
#    0.000    3.571    0.000    0.000    0.000    0.000 
#    0.000    0.000    0.000    0.000    0.000    0.000 
#
# Total GULP energy -156025.469148 kJ/mol
# GULP energy per Si atom -5572.338184 kJ/mol
# Density = 2.137874 g / cm^3
# Si number density = 21.427511 Si / 1000 Ang^3
#
#
#
# Elastic Constant Matrix: (Units=GPa)
#
#
# Indices 1 2 3 4 5 6 
#
# 1 156.8075 16.9321 25.5931 0.0000 1.0246 0.0000
# 2 16.9321 50.9082 -3.7212 0.0000 15.2009 0.0000
# 3 25.5931 -3.7212 62.8059 0.0000 -13.9132 0.0000
# 4 0.0000 0.0000 0.0000 16.9160 0.0000 3.6830
# 5 1.0246 15.2009 -13.9132 0.0000 32.5267 0.0000
# 6 0.0000 0.0000 0.0000 3.6830 0.0000 28.1917
#
#
#
# Elastic Compliance Matrix: (Units=1/GPa)
#
#
# Indices 1 2 3 4 5 6 
#
# 1 0.007164 -0.002490 -0.003158 0.000000 -0.000413 0.000000
# 2 -0.002490 0.023766 -0.000022 0.000000 -0.011038 0.000000
# 3 -0.003158 -0.000022 0.019036 0.000000 0.008252 0.000000
# 4 0.000000 0.000000 0.000000 0.060846 0.000000 -0.007949
# 5 -0.000413 -0.011038 0.008252 0.000000 0.039445 0.000000
# 6 0.000000 0.000000 0.000000 -0.007949 0.000000 0.036510
#
#
# Mechanical properties :
#
#
# Convention : Reuss Voigt Hill
#
# Bulk Modulus (GPa) = 25.89078 38.68107 32.28593
# Shear Modulus (GPa) = 23.69847 30.97473 27.33660
#
# Velocity S-wave (km/s) = 3.32924 3.80618 3.57567
# Velocity P-wave (km/s) = 5.18533 6.11614 5.66987
#
# Compressibility (1/GPa) = 0.03862378
#
# Stress axis : x y z
#
# Youngs Moduli (GPa) = 139.57968 42.07749 52.53220
#
# Poissons Ratio (x) = 0.10479 0.16592
# Poissons Ratio (y) = 0.34762 0.00116
# Poissons Ratio (z) = 0.44086 0.00093
#
# Static dielectric constant tensor:
#      x y z
#    x 1.823730 0.000000 -0.060770 
#    y 0.000000 1.957020 0.000000 
#    z -0.060770 0.000000 1.851970 
# 
# From -- ./inp_files/190934.got.cif
#   From: 2010.05.17/outbox.cif.g08.bks.cpg/sg15_96_cif.got.tgz:190934.got - 2010.06.03 18:47:42.
