data_PCOD9302473
_publ_section_title
;
Structure prediction by ZEFSAII (Michael W. Deem and Ramdas Pophale) SiO2 
 PCOD9302473
Probable space group: C 2/C
;
_chemical_formula_sum "Si O2"
_cell_formula_units_Z 64
_cell_length_a 14.243767
_cell_length_b 25.239128
_cell_length_c 9.154977
_cell_angle_alpha 90.000000
_cell_angle_beta 69.075772
_cell_angle_gamma 90.000000
_cell_volume 3074.172518
_symmetry_space_group_name_H-M "C 2/C"
_symmetry_group_IT_number 15
_symmetry_cell_setting 'monoclinic'
loop_
_space_group_symop_operation_xyz
x,y,z
-x,y,1/2-z
-x,-y,-z
x,-y,1/2+z
1/2+x,1/2+y,z
1/2-x,1/2+y,1/2-z
1/2-x,1/2-y,-z
1/2+x,1/2-y,1/2+z
loop_
_atom_site_type_symbol
_atom_site_label
_atom_site_fract_x
_atom_site_fract_y
_atom_site_fract_z
Si Si1 0.243414 0.335038 0.308731
Si Si2 0.657240 0.696990 0.024252
Si Si3 0.087529 0.088805 0.098359
Si Si4 0.759837 0.473316 0.571232
Si Si5 0.613167 0.983288 0.728075
Si Si6 0.613753 0.136663 0.135453
Si Si7 0.611072 0.433598 0.255321
Si Si8 0.789386 0.276169 0.718600
O O1 0.143765 0.350530 0.451734
O O2 0.327988 0.378459 0.302264
O O3 0.269070 0.274316 0.333336
O O4 0.253166 0.329670 0.126452
O O5 0.575133 0.651193 0.074780
O O6 0.696721 0.711087 0.161932
O O7 0.632573 0.749341 0.942757
O O8 0.192991 0.079027 0.122227
O O9 0.000000 0.068561 0.250000
O O10 0.095094 0.060240 0.938622
O O11 0.856330 0.478037 0.621269
O O12 0.806279 0.477222 0.385392
O O13 0.680922 0.520244 0.650189
O O14 0.500000 0.998161 0.750000
O O15 0.632795 0.925521 0.648245
O O16 0.500000 0.146103 0.250000
O O17 0.678594 0.173697 0.206479
O O18 0.500000 0.431973 0.250000
#
# Coordination Sequence:
#
# PCOD9302473 Si02
#       8
#     8   8   8   8   8   8   8   8
#     4   9  19  39  60  84 122 162 198 258 307 356
#     4   8  19  39  59  85 119 162 209 250 300 371
#     4  11  24  40  62  94 128 168 211 253 322 377
#     4  12  23  43  66  88 128 166 208 265 311 372
#     4  11  25  42  65  93 123 163 212 259 313 374
#     4  11  22  37  58  93 121 154 206 254 307 372
#     4  11  24  39  61  93 128 164 209 259 314 376
#     4   9  18  38  62  84 118 164 208 249 310 366
#
# _framework density 20.81861
#
# number of rings (size 3 to 8) (size 9 to 14) (size 15 to 20)
#    0.750    1.000    2.500    1.875    1.750    2.500 
#    2.250    0.625    0.000    0.000    0.000    0.000 
#    0.000    0.000    0.000    0.000    0.000    0.000 
#
# Total GULP energy -178164.224292 kJ/mol
# GULP energy per Si atom -5567.632009 kJ/mol
# Density = 2.077123 g / cm^3
# Si number density = 20.818610 Si / 1000 Ang^3
#
#
#
# Elastic Constant Matrix: (Units=GPa)
#
#
# Indices 1 2 3 4 5 6 
#
# 1 68.5253 7.3365 19.4830 0.0000 -6.3930 0.0000
# 2 7.3365 46.7406 -2.3128 0.0000 -11.7194 0.0000
# 3 19.4830 -2.3128 85.5871 0.0000 -16.2337 0.0000
# 4 0.0000 0.0000 0.0000 14.7498 0.0000 3.5957
# 5 -6.3930 -11.7194 -16.2337 0.0000 27.2933 0.0000
# 6 0.0000 0.0000 0.0000 3.5957 0.0000 17.7821
#
#
#
# Elastic Compliance Matrix: (Units=1/GPa)
#
#
# Indices 1 2 3 4 5 6 
#
# 1 0.015937 -0.002557 -0.003604 0.000000 0.000492 0.000000
# 2 -0.002557 0.025057 0.003591 0.000000 0.012296 0.000000
# 3 -0.003604 0.003591 0.014353 0.000000 0.009235 0.000000
# 4 0.000000 0.000000 0.000000 0.071313 0.000000 -0.014420
# 5 0.000492 0.012296 0.009235 0.000000 0.047527 0.000000
# 6 0.000000 0.000000 0.000000 -0.014420 0.000000 0.059152
#
#
# Mechanical properties :
#
#
# Convention : Reuss Voigt Hill
#
# Bulk Modulus (GPa) = 19.91665 27.76294 23.83980
# Shear Modulus (GPa) = 19.59144 23.72145 21.65645
#
# Velocity S-wave (km/s) = 3.07099 3.37921 3.22878
# Velocity P-wave (km/s) = 4.70767 5.34696 5.03747
#
# Compressibility (1/GPa) = 0.05020925
#
# Stress axis : x y z
#
# Youngs Moduli (GPa) = 62.74560 39.90940 69.67157
#
# Poissons Ratio (x) = 0.10203 0.25108
# Poissons Ratio (y) = 0.16041 -0.25022
# Poissons Ratio (z) = 0.22612 -0.14333
#
# Static dielectric constant tensor:
#      x y z
#    x 1.735540 0.000000 -0.000970 
#    y 0.000000 1.787640 0.000000 
#    z -0.000970 0.000000 1.759820 
# 
# From -- ./inp_files/43512.got.cif
#   From: 2010.05.17/outbox.cif.g08.bks.cpg/sg15_22_cif.got.tgz:43512.got - 2010.06.03 18:47:42.
