data_PCOD9302184
_publ_section_title
;
Structure prediction by ZEFSAII (Michael W. Deem and Ramdas Pophale) SiO2 
 PCOD9302184
Probable space group: C 2/C
;
_chemical_formula_sum "Si O2"
_cell_formula_units_Z 32
_cell_length_a 10.402164
_cell_length_b 15.154737
_cell_length_c 13.784855
_cell_angle_alpha 90.000000
_cell_angle_beta 147.666302
_cell_angle_gamma 90.000000
_cell_volume 1162.266734
_symmetry_space_group_name_H-M "C 2/C"
_symmetry_group_IT_number 15
_symmetry_cell_setting 'monoclinic'
loop_
_space_group_symop_operation_xyz
x,y,z
-x,y,1/2-z
-x,-y,-z
x,-y,1/2+z
1/2+x,1/2+y,z
1/2-x,1/2+y,1/2-z
1/2-x,1/2-y,-z
1/2+x,1/2-y,1/2+z
loop_
_atom_site_type_symbol
_atom_site_label
_atom_site_fract_x
_atom_site_fract_y
_atom_site_fract_z
Si Si1 0.744037 0.834500 0.193308
Si Si2 0.760133 0.851139 0.531797
Si Si3 0.066698 0.364175 0.680673
Si Si4 0.034653 0.995063 0.654950
O O1 0.804112 0.732105 0.246723
O O2 0.937985 0.903602 0.357983
O O3 0.494995 0.864698 0.082804
O O4 0.675214 0.850217 0.036934
O O5 0.750000 0.750000 0.500000
O O6 0.000000 0.850349 0.750000
O O7 0.814186 0.929512 0.490884
O O8 0.234247 0.440253 0.738751
O O9 0.000000 0.380349 0.750000
O O10 0.000000 0.005398 0.750000
#
# Coordination Sequence:
#
# PCOD9302184 Si02
#       4
#     8   8   8   8
#     4  12  24  49  75 103 146 193 241 295 363 432
#     4  11  21  42  77 103 138 191 244 288 356 424
#     4  12  26  46  73 109 148 186 237 303 363 429
#     4  11  24  45  78 101 140 196 238 292 359 429
#
# _framework density 27.532405000000001
#
# number of rings (size 3 to 8) (size 9 to 14) (size 15 to 20)
#    0.000    0.500    7.500    2.250    0.000    0.000 
#    0.000   10.000    0.000    0.000    0.000    0.000 
#    0.000    0.000    0.000    0.000    0.000    0.000 
#
# Total GULP energy -89386.292488 kJ/mol
# GULP energy per Si atom -5586.643281 kJ/mol
# Density = 2.746974 g / cm^3
# Si number density = 27.532405 Si / 1000 Ang^3
#
#
#
# Elastic Constant Matrix: (Units=GPa)
#
#
# Indices 1 2 3 4 5 6 
#
# 1 155.9635 68.0899 39.7930 -0.0011 9.3570 -0.0001
# 2 68.0899 196.8501 57.8960 -0.0970 36.0923 -0.0053
# 3 39.7930 57.8960 96.8801 -0.1650 13.6587 -0.0088
# 4 -0.0011 -0.0970 -0.1650 145.2484 -0.0530 32.3780
# 5 9.3570 36.0923 13.6587 -0.0530 45.1090 -0.0032
# 6 -0.0001 -0.0053 -0.0088 32.3780 -0.0032 35.6381
#
#
#
# Elastic Compliance Matrix: (Units=1/GPa)
#
#
# Indices 1 2 3 4 5 6 
#
# 1 0.007866 -0.002285 -0.001978 -0.000004 0.000795 0.000003
# 2 -0.002285 0.007599 -0.002938 0.000000 -0.004717 0.000000
# 3 -0.001978 -0.002938 0.013058 0.000015 -0.001193 -0.000011
# 4 -0.000004 0.000000 0.000015 0.008633 0.000006 -0.007843
# 5 0.000795 -0.004717 -0.001193 0.000006 0.026139 -0.000004
# 6 0.000003 0.000000 -0.000011 -0.007843 -0.000004 0.035186
#
#
# Mechanical properties :
#
#
# Convention : Reuss Voigt Hill
#
# Bulk Modulus (GPa) = 70.80766 86.80574 78.80670
# Shear Modulus (GPa) = 42.52068 64.12676 53.32372
#
# Velocity S-wave (km/s) = 3.93413 4.83135 4.40564
# Velocity P-wave (km/s) = 6.81251 7.91957 7.38681
#
# Compressibility (1/GPa) = 0.01412277
#
# Stress axis : x y z
#
# Youngs Moduli (GPa) = 127.12571 131.59157 76.58032
#
# Poissons Ratio (x) = 0.30070 0.15144
# Poissons Ratio (y) = 0.29050 0.22497
# Poissons Ratio (z) = 0.25140 0.38659
#
# Static dielectric constant tensor:
#      x y z
#    x 2.300020 0.000000 -0.087860 
#    y 0.000000 2.416040 0.000000 
#    z -0.087860 0.000000 2.213790 
# 
# From -- ./inp_files/198157.got.cif
#   From: 2010.05.17/outbox.cif.g08.bks.cpg/sg15_100_cif.got.tgz:198157.got - 2010.06.03 18:47:42.
