data_PCOD9302664
_publ_section_title
;
Structure prediction by ZEFSAII (Michael W. Deem and Ramdas Pophale) SiO2 
 PCOD9302664
Probable space group: C 2/C
;
_chemical_formula_sum "Si O2"
_cell_formula_units_Z 56
_cell_length_a 17.289231
_cell_length_b 14.904514
_cell_length_c 11.153374
_cell_angle_alpha 90.000000
_cell_angle_beta 66.207838
_cell_angle_gamma 90.000000
_cell_volume 2629.831425
_symmetry_space_group_name_H-M "C 2/C"
_symmetry_group_IT_number 15
_symmetry_cell_setting 'monoclinic'
loop_
_space_group_symop_operation_xyz
x,y,z
-x,y,1/2-z
-x,-y,-z
x,-y,1/2+z
1/2+x,1/2+y,z
1/2-x,1/2+y,1/2-z
1/2-x,1/2-y,-z
1/2+x,1/2-y,1/2+z
loop_
_atom_site_type_symbol
_atom_site_label
_atom_site_fract_x
_atom_site_fract_y
_atom_site_fract_z
Si Si1 0.852048 0.618545 0.908999
Si Si2 0.536540 0.249213 0.067199
Si Si3 0.241209 0.352775 0.784497
Si Si4 0.857810 0.801569 0.287637
Si Si5 0.575110 0.715586 0.268686
Si Si6 0.927206 0.451141 0.970849
Si Si7 0.736591 0.058386 0.757777
O O1 0.910239 0.696165 0.821016
O O2 0.897050 0.521988 0.890232
O O3 0.777071 0.608324 0.859669
O O4 0.820061 0.642525 0.061248
O O5 0.446894 0.288936 0.163363
O O6 0.613860 0.293590 0.092082
O O7 0.540144 0.143748 0.095533
O O8 0.548049 0.259945 0.919386
O O9 0.203990 0.278972 0.716841
O O10 0.333654 0.328921 0.775514
O O11 0.246295 0.452888 0.729435
O O12 0.811960 0.893594 0.281445
O O13 0.500000 0.662167 0.250000
O O14 0.847770 0.431489 0.108336
O O15 0.000000 0.500000 0.000000
#
# Coordination Sequence:
#
# PCOD9302664 Si02
#       7
#     8   8   8   8   8   8   8
#     4  11  23  39  68  97 137 169 219 279 346 404
#     4  11  24  43  67  96 135 183 219 286 334 400
#     4  11  24  43  68  97 130 179 223 275 341 405
#     4  11  24  45  67  94 138 178 232 269 343 408
#     4  12  24  41  65  98 133 175 222 278 338 400
#     4  11  22  39  64 102 135 164 223 282 346 398
#     4  11  24  42  65  98 130 183 223 274 337 409
#
# _framework density 21.294141
#
# number of rings (size 3 to 8) (size 9 to 14) (size 15 to 20)
#    0.000    0.857    2.857    4.714    2.000    5.714 
#    2.571    0.714    0.000    0.000    0.000    0.000 
#    0.000    0.000    0.000    0.000    0.000    0.000 
#
# Total GULP energy -156681.610979 kJ/mol
# GULP energy per Si atom -5595.771821 kJ/mol
# Density = 2.124567 g / cm^3
# Si number density = 21.294141 Si / 1000 Ang^3
#
#
#
# Elastic Constant Matrix: (Units=GPa)
#
#
# Indices 1 2 3 4 5 6 
#
# 1 136.5867 16.6400 11.6121 0.0000 9.1404 0.0000
# 2 16.6400 34.8766 -0.5193 0.0000 -5.6068 0.0000
# 3 11.6121 -0.5193 55.7731 0.0000 0.6981 0.0000
# 4 0.0000 0.0000 0.0000 18.9573 0.0000 1.8571
# 5 9.1404 -5.6068 0.6981 0.0000 35.3427 0.0000
# 6 0.0000 0.0000 0.0000 1.8571 0.0000 24.2150
#
#
#
# Elastic Compliance Matrix: (Units=1/GPa)
#
#
# Indices 1 2 3 4 5 6 
#
# 1 0.008186 -0.004378 -0.001710 0.000000 -0.002778 0.000000
# 2 -0.004378 0.031766 0.001130 0.000000 0.006149 0.000000
# 3 -0.001710 0.001130 0.018293 0.000000 0.000260 0.000000
# 4 0.000000 0.000000 0.000000 0.053149 0.000000 -0.004076
# 5 -0.002778 0.006149 0.000260 0.000000 0.029983 0.000000
# 6 0.000000 0.000000 0.000000 -0.004076 0.000000 0.041609
#
#
# Mechanical properties :
#
#
# Convention : Reuss Voigt Hill
#
# Bulk Modulus (GPa) = 20.69102 31.41134 26.05118
# Shear Modulus (GPa) = 23.92196 29.00325 26.46260
#
# Velocity S-wave (km/s) = 3.35536 3.69457 3.52904
# Velocity P-wave (km/s) = 4.97485 5.74308 5.37271
#
# Compressibility (1/GPa) = 0.04833016
#
# Stress axis : x y z
#
# Youngs Moduli (GPa) = 122.16034 31.47973 54.66525
#
# Poissons Ratio (x) = 0.13781 0.09350
# Poissons Ratio (y) = 0.53477 -0.06178
# Poissons Ratio (z) = 0.20893 -0.03558
#
# Static dielectric constant tensor:
#      x y z
#    x 1.794720 0.000000 -0.000280 
#    y 0.000000 1.753690 0.000000 
#    z -0.000280 0.000000 1.782120 
# 
# From -- ./inp_files/105288.got.cif
#   From: 2010.05.17/outbox.cif.g08.bks.cpg/sg15_53_cif.got.tgz:105288.got - 2010.06.03 18:47:42.
