data_PCOD9302638
_publ_section_title
;
Structure prediction by ZEFSAII (Michael W. Deem and Ramdas Pophale) SiO2 
 PCOD9302638
Probable space group: C 2/C
;
_chemical_formula_sum "Si O2"
_cell_formula_units_Z 40
_cell_length_a 16.932820
_cell_length_b 18.506284
_cell_length_c 12.426101
_cell_angle_alpha 90.000000
_cell_angle_beta 148.778954
_cell_angle_gamma 90.000000
_cell_volume 2018.362167
_symmetry_space_group_name_H-M "C 2/C"
_symmetry_group_IT_number 15
_symmetry_cell_setting 'monoclinic'
loop_
_space_group_symop_operation_xyz
x,y,z
-x,y,1/2-z
-x,-y,-z
x,-y,1/2+z
1/2+x,1/2+y,z
1/2-x,1/2+y,1/2-z
1/2-x,1/2-y,-z
1/2+x,1/2-y,1/2+z
loop_
_atom_site_type_symbol
_atom_site_label
_atom_site_fract_x
_atom_site_fract_y
_atom_site_fract_z
Si Si1 0.833993 0.204061 0.360407
Si Si2 0.666219 0.555857 0.500459
Si Si3 0.178251 0.850278 0.224280
Si Si4 0.815961 0.103960 0.532601
Si Si5 0.179485 0.675873 0.962133
O O1 0.792384 0.288453 0.315560
O O2 0.778064 0.167850 0.406219
O O3 0.012761 0.187286 0.550588
O O4 0.743878 0.168022 0.157079
O O5 0.657553 0.587551 0.610836
O O6 0.727908 0.474351 0.564188
O O7 0.768460 0.610056 0.550796
O O8 0.500000 0.557582 0.250000
O O9 0.233740 0.881313 0.403346
O O10 0.000000 0.102833 0.750000
O O11 0.000000 0.683425 0.750000
O O12 0.250000 0.750000 0.000000
#
# Coordination Sequence:
#
# PCOD9302638 Si02
#       5
#     8   8   8   8   8
#     4  11  22  39  62  89 122 158 204 249 296 356
#     4  11  22  39  63  91 122 156 201 253 301 354
#     4  11  22  39  64  92 120 158 203 248 300 358
#     4   9  23  39  62  89 121 164 199 243 299 365
#     4  12  23  38  59  90 121 159 202 249 301 353
#
# _framework density 19.818048999999998
#
# number of rings (size 3 to 8) (size 9 to 14) (size 15 to 20)
#    0.000    1.200    4.000    2.400    2.800    2.400 
#    0.000    3.000    0.000    0.000    0.000    0.000 
#    0.000    0.000    0.000    0.000    0.000    0.000 
#
# Total GULP energy -111769.850096 kJ/mol
# GULP energy per Si atom -5588.492505 kJ/mol
# Density = 1.977294 g / cm^3
# Si number density = 19.818049 Si / 1000 Ang^3
#
#
#
# Elastic Constant Matrix: (Units=GPa)
#
#
# Indices 1 2 3 4 5 6 
#
# 1 72.1136 6.8927 31.6389 0.0000 -22.3312 0.0000
# 2 6.8927 68.7378 19.4875 0.0000 -6.1924 0.0000
# 3 31.6389 19.4875 62.6264 0.0000 -13.0573 0.0000
# 4 0.0000 0.0000 0.0000 23.2851 0.0000 -7.4526
# 5 -22.3312 -6.1924 -13.0573 0.0000 49.6050 0.0000
# 6 0.0000 0.0000 0.0000 -7.4526 0.0000 19.3252
#
#
#
# Elastic Compliance Matrix: (Units=1/GPa)
#
#
# Indices 1 2 3 4 5 6 
#
# 1 0.019750 0.001157 -0.008945 0.000000 0.006681 0.000000
# 2 0.001157 0.016048 -0.005345 0.000000 0.001117 0.000000
# 3 -0.008945 -0.005345 0.022401 0.000000 0.001202 0.000000
# 4 0.000000 0.000000 0.000000 0.048993 0.000000 0.018894
# 5 0.006681 0.001117 0.001202 0.000000 0.023623 0.000000
# 6 0.000000 0.000000 0.000000 0.018894 0.000000 0.059032
#
#
# Mechanical properties :
#
#
# Convention : Reuss Voigt Hill
#
# Bulk Modulus (GPa) = 31.31587 35.50178 33.40883
# Shear Modulus (GPa) = 22.05012 28.14031 25.09522
#
# Velocity S-wave (km/s) = 3.33923 3.77229 3.56234
# Velocity P-wave (km/s) = 5.54105 6.07670 5.81505
#
# Compressibility (1/GPa) = 0.03193269
#
# Stress axis : x y z
#
# Youngs Moduli (GPa) = 50.63389 62.31265 44.64167
#
# Poissons Ratio (x) = -0.07212 0.39931
# Poissons Ratio (y) = -0.05860 0.23863
# Poissons Ratio (z) = 0.45291 0.33309
#
# Static dielectric constant tensor:
#      x y z
#    x 1.704220 0.000000 -0.022460 
#    y 0.000000 1.692870 0.000000 
#    z -0.022460 0.000000 1.686880 
# 
# From -- ./inp_files/30174.got.cif
#   From: 2010.05.17/outbox.cif.g08.bks.cpg/sg15_16_cif.got.tgz:30174.got - 2010.06.03 18:47:42.
