data_PCOD9302096
_publ_section_title
;
Structure prediction by ZEFSAII (Michael W. Deem and Ramdas Pophale) SiO2 
 PCOD9302096
Probable space group: C 2/C
;
_chemical_formula_sum "Si O2"
_cell_formula_units_Z 56
_cell_length_a 25.248138
_cell_length_b 16.308572
_cell_length_c 9.753888
_cell_angle_alpha 90.000000
_cell_angle_beta 134.629481
_cell_angle_gamma 90.000000
_cell_volume 2858.238459
_symmetry_space_group_name_H-M "C 2/C"
_symmetry_group_IT_number 15
_symmetry_cell_setting 'monoclinic'
loop_
_space_group_symop_operation_xyz
x,y,z
-x,y,1/2-z
-x,-y,-z
x,-y,1/2+z
1/2+x,1/2+y,z
1/2-x,1/2+y,1/2-z
1/2-x,1/2-y,-z
1/2+x,1/2-y,1/2+z
loop_
_atom_site_type_symbol
_atom_site_label
_atom_site_fract_x
_atom_site_fract_y
_atom_site_fract_z
Si Si1 0.210386 0.176328 0.609503
Si Si2 0.937136 0.784497 0.536994
Si Si3 0.286678 0.116973 0.020045
Si Si4 0.790909 0.951885 0.638576
Si Si5 0.449017 0.480397 0.532907
Si Si6 0.289264 0.319292 0.848553
Si Si7 0.574195 0.227269 0.292772
O O1 0.139602 0.230089 0.523685
O O2 0.235450 0.131663 0.794117
O O3 0.196970 0.111352 0.465633
O O4 0.273955 0.244946 0.713937
O O5 0.941307 0.883356 0.540588
O O6 0.944569 0.752853 0.396715
O O7 0.000000 0.750710 0.750000
O O8 0.267376 0.021804 0.013892
O O9 0.256486 0.171623 0.092261
O O10 0.368280 0.150053 0.123655
O O11 0.765873 0.898942 0.722573
O O12 0.868854 0.986338 0.839912
O O13 0.500000 0.514283 0.750000
O O14 0.500000 0.500000 0.500000
O O15 0.374161 0.300515 0.049433
O O16 0.500000 0.214073 0.250000
#
# Coordination Sequence:
#
# PCOD9302096 Si02
#       7
#     8   8   8   8   8   8   8
#     4  11  21  42  61  95 126 169 221 262 319 391
#     4  11  22  39  60  88 135 168 206 263 326 391
#     4  11  22  44  67  89 132 177 217 267 324 387
#     4  12  24  37  66  96 132 172 215 263 324 394
#     4  11  25  36  54  91 140 169 202 252 323 404
#     4  11  23  41  68  94 129 166 215 272 326 389
#     4  11  24  42  67  96 127 174 225 268 325 386
#
# _framework density 19.592486999999998
#
# number of rings (size 3 to 8) (size 9 to 14) (size 15 to 20)
#    0.000    0.857    4.286    3.857    8.000    0.000 
#    0.000    0.000    0.000    8.571    0.000    0.000 
#    0.000    0.000    0.000    0.000    0.000    0.000 
#
# Total GULP energy -155903.937086 kJ/mol
# GULP energy per Si atom -5567.997753 kJ/mol
# Density = 1.954789 g / cm^3
# Si number density = 19.592487 Si / 1000 Ang^3
#
#
#
# Elastic Constant Matrix: (Units=GPa)
#
#
# Indices 1 2 3 4 5 6 
#
# 1 108.1916 22.5482 52.5629 0.0000 -0.6730 0.0000
# 2 22.5482 71.0912 36.1456 0.0000 -6.0435 0.0000
# 3 52.5629 36.1456 153.1334 0.0000 -12.6634 0.0000
# 4 0.0000 0.0000 0.0000 33.2239 0.0000 -5.1729
# 5 -0.6730 -6.0435 -12.6634 0.0000 29.2602 0.0000
# 6 0.0000 0.0000 0.0000 -5.1729 0.0000 8.7076
#
#
#
# Elastic Compliance Matrix: (Units=1/GPa)
#
#
# Indices 1 2 3 4 5 6 
#
# 1 0.011378 -0.001927 -0.003591 0.000000 -0.001690 0.000000
# 2 -0.001927 0.016396 -0.003041 0.000000 0.002026 0.000000
# 3 -0.003591 -0.003041 0.008734 0.000000 0.003069 0.000000
# 4 0.000000 0.000000 0.000000 0.033167 0.000000 0.019703
# 5 -0.001690 0.002026 0.003069 0.000000 0.035884 0.000000
# 6 0.000000 0.000000 0.000000 0.019703 0.000000 0.126548
#
#
# Mechanical properties :
#
#
# Convention : Reuss Voigt Hill
#
# Bulk Modulus (GPa) = 51.56922 61.65885 56.61404
# Shear Modulus (GPa) = 19.55503 28.98231 24.26867
#
# Velocity S-wave (km/s) = 3.16268 3.85028 3.52330
# Velocity P-wave (km/s) = 6.30197 7.16277 6.74611
#
# Compressibility (1/GPa) = 0.01939141
#
# Stress axis : x y z
#
# Youngs Moduli (GPa) = 87.88613 60.99013 114.49036
#
# Poissons Ratio (x) = 0.11753 0.41108
# Poissons Ratio (y) = 0.16936 0.34818
# Poissons Ratio (z) = 0.31556 0.18548
#
# Static dielectric constant tensor:
#      x y z
#    x 1.729260 0.000000 0.035950 
#    y 0.000000 1.838440 0.000000 
#    z 0.035950 0.000000 1.698620 
# 
# From -- ./inp_files/62778.got.cif
#   From: 2010.05.17/outbox.cif.g08.bks.cpg/sg15_32_cif.got.tgz:62778.got - 2010.06.03 18:47:42.
