data_PCOD9302189
_publ_section_title
;
Structure prediction by ZEFSAII (Michael W. Deem and Ramdas Pophale) SiO2 
 PCOD9302189
Probable space group: C 2/C
;
_chemical_formula_sum "Si O2"
_cell_formula_units_Z 40
_cell_length_a 15.026863
_cell_length_b 11.791823
_cell_length_c 17.531180
_cell_angle_alpha 90.000000
_cell_angle_beta 33.286414
_cell_angle_gamma 90.000000
_cell_volume 1704.880759
_symmetry_space_group_name_H-M "C 2/C"
_symmetry_group_IT_number 15
_symmetry_cell_setting 'monoclinic'
loop_
_space_group_symop_operation_xyz
x,y,z
-x,y,1/2-z
-x,-y,-z
x,-y,1/2+z
1/2+x,1/2+y,z
1/2-x,1/2+y,1/2-z
1/2-x,1/2-y,-z
1/2+x,1/2-y,1/2+z
loop_
_atom_site_type_symbol
_atom_site_label
_atom_site_fract_x
_atom_site_fract_y
_atom_site_fract_z
Si Si1 0.504461 0.174277 0.881794
Si Si2 0.466524 0.327008 0.490722
Si Si3 0.621068 0.762170 0.733670
Si Si4 0.333899 0.347002 0.836291
Si Si5 0.763709 0.958747 0.277215
O O1 0.725893 0.346224 0.878836
O O2 0.610017 0.226950 0.738494
O O3 0.599898 0.069777 0.850102
O O4 0.501016 0.269668 0.951190
O O5 0.522463 0.238727 0.383664
O O6 0.682920 0.152509 0.501712
O O7 0.585037 0.430803 0.386151
O O8 0.500000 0.772301 0.750000
O O9 0.707155 0.637564 0.678138
O O10 0.500000 0.398289 0.750000
O O11 0.272453 0.421172 0.809639
#
# Coordination Sequence:
#
# PCOD9302189 Si02
#       5
#     8   8   8   8   8
#     4  11  21  43  62  90 122 162 207 247 309 363
#     4   9  18  33  56  84 117 162 195 248 291 368
#     4   9  16  30  52  86 122 159 196 241 310 352
#     4  12  24  41  65  91 123 161 205 259 305 358
#     4   9  21  36  63  87 117 159 209 239 302 366
#
# _framework density 23.462050000000001
#
# number of rings (size 3 to 8) (size 9 to 14) (size 15 to 20)
#    1.200    0.800    2.000    2.400    0.000    0.800 
#    0.000    0.000    0.000    1.200    0.000    0.000 
#    0.000    0.000    0.000    0.000    0.000    0.000 
#
# Total GULP energy -111634.760686 kJ/mol
# GULP energy per Si atom -5581.738034 kJ/mol
# Density = 2.340865 g / cm^3
# Si number density = 23.462050 Si / 1000 Ang^3
#
#
#
# Elastic Constant Matrix: (Units=GPa)
#
#
# Indices 1 2 3 4 5 6 
#
# 1 81.3769 11.0062 34.6195 0.0000 -23.8867 0.0000
# 2 11.0062 44.0837 16.5411 0.0002 -9.4785 -0.0001
# 3 34.6195 16.5411 159.8482 0.0003 -35.4195 -0.0001
# 4 0.0000 0.0002 0.0003 23.4182 -0.0001 -0.6376
# 5 -23.8867 -9.4785 -35.4195 -0.0001 43.5403 0.0000
# 6 0.0000 -0.0001 -0.0001 -0.6376 0.0000 25.3488
#
#
#
# Elastic Compliance Matrix: (Units=1/GPa)
#
#
# Indices 1 2 3 4 5 6 
#
# 1 0.015161 -0.001750 -0.001639 0.000000 0.006603 0.000000
# 2 -0.001750 0.024342 -0.001438 0.000000 0.003169 0.000000
# 3 -0.001639 -0.001438 0.007918 0.000000 0.005229 0.000000
# 4 0.000000 0.000000 0.000000 0.042731 0.000000 0.001075
# 5 0.006603 0.003169 0.005229 0.000000 0.031533 0.000000
# 6 0.000000 0.000000 0.000000 0.001075 0.000000 0.039477
#
#
# Mechanical properties :
#
#
# Convention : Reuss Voigt Hill
#
# Bulk Modulus (GPa) = 26.47831 45.51585 35.99708
# Shear Modulus (GPa) = 27.26196 33.33759 30.29977
#
# Velocity S-wave (km/s) = 3.41245 3.77359 3.59756
# Velocity P-wave (km/s) = 5.18040 6.19908 5.71249
#
# Compressibility (1/GPa) = 0.03776677
#
# Stress axis : x y z
#
# Youngs Moduli (GPa) = 65.95981 41.08128 126.28757
#
# Poissons Ratio (x) = 0.07191 0.20702
# Poissons Ratio (y) = 0.11545 0.18154
# Poissons Ratio (z) = 0.10813 0.05906
#
# Static dielectric constant tensor:
#      x y z
#    x 1.880310 0.000000 -0.010070 
#    y 0.000000 1.918230 0.000000 
#    z -0.010070 0.000000 1.920820 
# 
# From -- ./inp_files/243230.got.cif
#   From: 2010.05.17/outbox.cif.g08.bks.cpg/sg15_122_cif.got.tgz:243230.got - 2010.06.03 18:47:42.
