data_PCOD9302211
_publ_section_title
;
Structure prediction by ZEFSAII (Michael W. Deem and Ramdas Pophale) SiO2 
 PCOD9302211
Probable space group: C 2/C
;
_chemical_formula_sum "Si O2"
_cell_formula_units_Z 64
_cell_length_a 19.466862
_cell_length_b 10.918555
_cell_length_c 19.221099
_cell_angle_alpha 90.000000
_cell_angle_beta 136.942948
_cell_angle_gamma 90.000000
_cell_volume 2789.240368
_symmetry_space_group_name_H-M "C 2/C"
_symmetry_group_IT_number 15
_symmetry_cell_setting 'monoclinic'
loop_
_space_group_symop_operation_xyz
x,y,z
-x,y,1/2-z
-x,-y,-z
x,-y,1/2+z
1/2+x,1/2+y,z
1/2-x,1/2+y,1/2-z
1/2-x,1/2-y,-z
1/2+x,1/2-y,1/2+z
loop_
_atom_site_type_symbol
_atom_site_label
_atom_site_fract_x
_atom_site_fract_y
_atom_site_fract_z
Si Si1 0.360086 0.905723 0.292525
Si Si2 0.857286 0.815014 0.172610
Si Si3 0.149923 0.017874 0.178413
Si Si4 0.892464 0.174698 0.213486
Si Si5 0.694165 0.466044 0.968781
Si Si6 0.525603 0.391958 0.404104
Si Si7 0.647622 0.235577 0.587253
Si Si8 0.107914 0.460934 0.807981
O O1 0.378337 0.798929 0.248005
O O2 0.404253 0.860176 0.398484
O O3 0.246194 0.937843 0.229147
O O4 0.393711 0.026493 0.276777
O O5 0.822354 0.911138 0.089257
O O6 0.759774 0.803081 0.149728
O O7 0.877853 0.679309 0.160520
O O8 0.957053 0.857240 0.287344
O O9 0.133593 0.072913 0.245382
O O10 0.154071 0.137782 0.134396
O O11 0.055187 0.930247 0.098187
O O12 0.000000 0.167293 0.250000
O O13 0.816748 0.144400 0.093850
O O14 0.598348 0.489991 0.947841
O O15 0.797114 0.470921 0.087258
O O16 0.587213 0.274190 0.474444
O O17 0.000000 0.509597 0.750000
#
# Coordination Sequence:
#
# PCOD9302211 Si02
#       8
#     8   8   8   8   8   8   8   8
#     4  11  24  46  64 100 146 180 228 281 352 423
#     4  12  23  42  68 100 134 167 226 282 338 403
#     4  11  21  43  68  96 138 176 232 283 342 405
#     4  11  22  42  72 103 139 181 233 296 340 415
#     4  12  23  43  70 100 129 176 238 286 340 404
#     4  12  22  40  70  99 128 171 235 284 334 397
#     4  11  24  41  67  96 130 182 221 279 335 407
#     4  12  27  45  65  94 141 181 219 281 353 421
#
# _framework density 22.945315000000001
#
# number of rings (size 3 to 8) (size 9 to 14) (size 15 to 20)
#    0.000    0.500    6.250    2.250    1.750    0.500 
#    2.250    0.625    0.000    0.000    0.000    0.000 
#    0.000    0.000    0.000    0.000    0.000    0.000 
#
# Total GULP energy -178513.701184 kJ/mol
# GULP energy per Si atom -5578.553162 kJ/mol
# Density = 2.289309 g / cm^3
# Si number density = 22.945315 Si / 1000 Ang^3
#
#
#
# Elastic Constant Matrix: (Units=GPa)
#
#
# Indices 1 2 3 4 5 6 
#
# 1 147.4102 13.6149 32.0333 0.0000 8.9040 0.0000
# 2 13.6149 40.0392 -1.6964 0.0000 -9.5685 0.0000
# 3 32.0333 -1.6964 84.2891 0.0000 -1.3791 0.0000
# 4 0.0000 0.0000 0.0000 16.8157 0.0000 -20.1503
# 5 8.9040 -9.5685 -1.3791 0.0000 35.3515 0.0000
# 6 0.0000 0.0000 0.0000 -20.1503 0.0000 36.7002
#
#
#
# Elastic Compliance Matrix: (Units=1/GPa)
#
#
# Indices 1 2 3 4 5 6 
#
# 1 0.007990 -0.003594 -0.003160 0.000000 -0.003108 0.000000
# 2 -0.003594 0.028355 0.002078 0.000000 0.008661 0.000000
# 3 -0.003160 0.002078 0.013137 0.000000 0.001871 0.000000
# 4 0.000000 0.000000 0.000000 0.173847 0.000000 0.095451
# 5 -0.003108 0.008661 0.001871 0.000000 0.031488 0.000000
# 6 0.000000 0.000000 0.000000 0.095451 0.000000 0.079655
#
#
# Mechanical properties :
#
#
# Convention : Reuss Voigt Hill
#
# Bulk Modulus (GPa) = 24.91770 39.96024 32.43897
# Shear Modulus (GPa) = 13.99777 32.95927 23.47852
#
# Velocity S-wave (km/s) = 2.47260 3.79413 3.20228
# Velocity P-wave (km/s) = 4.36289 6.05369 5.27646
#
# Compressibility (1/GPa) = 0.04013211
#
# Stress axis : x y z
#
# Youngs Moduli (GPa) = 125.15487 35.26667 76.11976
#
# Poissons Ratio (x) = 0.12674 0.24052
# Poissons Ratio (y) = 0.44977 -0.15819
# Poissons Ratio (z) = 0.39546 -0.07329
#
# Static dielectric constant tensor:
#      x y z
#    x 1.949220 0.000000 -0.021830 
#    y 0.000000 1.912320 0.000000 
#    z -0.021830 0.000000 1.868740 
# 
# From -- ./inp_files/252603.got.cif
#   From: 2010.05.17/outbox.cif.g08.bks.cpg/sg15_127_cif.got.tgz:252603.got - 2010.06.03 18:47:42.
