data_PCOD9302481
_publ_section_title
;
Structure prediction by ZEFSAII (Michael W. Deem and Ramdas Pophale) SiO2 
 PCOD9302481
Probable space group: C 2/C
;
_chemical_formula_sum "Si O2"
_cell_formula_units_Z 64
_cell_length_a 8.957479
_cell_length_b 15.560505
_cell_length_c 24.638693
_cell_angle_alpha 90.000000
_cell_angle_beta 111.309658
_cell_angle_gamma 90.000000
_cell_volume 3199.415244
_symmetry_space_group_name_H-M "C 2/C"
_symmetry_group_IT_number 15
_symmetry_cell_setting 'monoclinic'
loop_
_space_group_symop_operation_xyz
x,y,z
-x,y,1/2-z
-x,-y,-z
x,-y,1/2+z
1/2+x,1/2+y,z
1/2-x,1/2+y,1/2-z
1/2-x,1/2-y,-z
1/2+x,1/2-y,1/2+z
loop_
_atom_site_type_symbol
_atom_site_label
_atom_site_fract_x
_atom_site_fract_y
_atom_site_fract_z
Si Si1 0.489227 0.835499 0.813824
Si Si2 0.520833 0.426042 0.118686
Si Si3 0.456168 0.141222 0.500019
Si Si4 0.047126 0.256277 0.121432
Si Si5 0.283621 0.573960 0.381307
Si Si6 0.195610 0.743745 0.121387
Si Si7 0.638501 0.335471 0.313798
Si Si8 0.248648 0.022512 0.000014
O O1 0.500000 0.840458 0.750000
O O2 0.594094 0.913213 0.848488
O O3 0.332348 0.814381 0.827821
O O4 0.591155 0.750014 0.841082
O O5 0.647595 0.499993 0.147679
O O6 0.618586 0.338678 0.118993
O O7 0.396961 0.413193 0.151520
O O8 0.407632 0.457182 0.055503
O O9 0.509730 0.197916 0.558773
O O10 0.392169 0.197955 0.441283
O O11 0.609156 0.086705 0.499983
O O12 0.318580 0.073298 0.500031
O O13 0.119268 0.161322 0.119029
O O14 0.176653 0.314356 0.172248
O O15 0.881602 0.250033 0.131659
O O16 0.296770 0.542852 0.444501
O O17 0.500000 0.340425 0.250000
#
# Coordination Sequence:
#
# PCOD9302481 Si02
#       8
#     8   8   8   8   8   8   8   8
#     4   9  20  41  64  85 118 163 210 258 313 369
#     4  11  22  39  60  88 122 166 207 251 310 367
#     4  11  22  37  60  98 126 166 202 255 311 383
#     4  11  22  39  64  93 126 163 208 254 311 380
#     4  11  22  39  60  88 122 166 207 251 310 367
#     4  11  22  39  64  93 126 163 208 254 311 380
#     4   9  20  41  64  85 118 163 210 258 313 369
#     4  11  22  37  60  90 130 164 202 253 307 375
#
# _framework density 20.003657
#
# number of rings (size 3 to 8) (size 9 to 14) (size 15 to 20)
#    0.000    1.500    2.500    3.000    0.000    1.000 
#    0.000   15.000    0.000    0.000    0.000    0.000 
#    0.000    0.000    0.000    0.000    0.000    0.000 
#
# Total GULP energy -178309.668939 kJ/mol
# GULP energy per Si atom -5572.177154 kJ/mol
# Density = 1.995813 g / cm^3
# Si number density = 20.003657 Si / 1000 Ang^3
#
#
#
# Elastic Constant Matrix: (Units=GPa)
#
#
# Indices 1 2 3 4 5 6 
#
# 1 130.9413 48.8152 33.3528 0.0000 0.5130 0.0000
# 2 48.8152 104.3907 32.9053 0.0000 0.1517 0.0000
# 3 33.3528 32.9053 72.5410 0.0000 -0.0511 0.0000
# 4 0.0000 0.0000 0.0000 -30.8630 0.0000 0.3067
# 5 0.5130 0.1517 -0.0511 0.0000 7.0993 0.0000
# 6 0.0000 0.0000 0.0000 0.3067 0.0000 33.8341
#
#
#
# Elastic Compliance Matrix: (Units=1/GPa)
#
#
# Indices 1 2 3 4 5 6 
#
# 1 0.009719 -0.003658 -0.002810 0.000000 -0.000644 0.000000
# 2 -0.003658 0.012555 -0.004013 0.000000 -0.000033 0.000000
# 3 -0.002810 -0.004013 0.016898 0.000000 0.000410 0.000000
# 4 0.000000 0.000000 0.000000 -0.032398 0.000000 0.000294
# 5 -0.000644 -0.000033 0.000410 0.000000 0.140909 0.000000
# 6 0.000000 0.000000 0.000000 0.000294 0.000000 0.029553
#
#
# Mechanical properties :
#
#
# Convention : Reuss Voigt Hill
#
# Bulk Modulus (GPa) = 54.91530 59.77996 57.34763
# Shear Modulus (GPa) = 24.47762 14.86739 19.67250
#
# Velocity S-wave (km/s) = 3.50188 2.72919 3.13940
# Velocity P-wave (km/s) = 6.62292 6.31512 6.47085
#
# Compressibility (1/GPa) = 0.01820986
#
# Stress axis : x y z
#
# Youngs Moduli (GPa) = 102.89139 79.64890 59.17926
#
# Poissons Ratio (x) = 0.29137 0.16627
# Poissons Ratio (y) = 0.37640 0.23750
# Poissons Ratio (z) = 0.28909 0.31964
#
# Static dielectric constant tensor:
#      x y z
#    x 1.749380 0.000000 -0.000120 
#    y 0.000000 1.733220 0.000000 
#    z -0.000120 0.000000 1.797970 
# 
# From -- ./inp_files/288830.got.cif
#   From: 2010.05.17/outbox.cif.g08.bks.cpg/sg15_145_cif.got.tgz:288830.got - 2010.06.03 18:47:42.
