data_PCOD9302771
_publ_section_title
;
Structure prediction by ZEFSAII (Michael W. Deem and Ramdas Pophale) SiO2 
 PCOD9302771
Probable space group: C 2/C
;
_chemical_formula_sum "Si O2"
_cell_formula_units_Z 56
_cell_length_a 23.214701
_cell_length_b 16.330109
_cell_length_c 19.490536
_cell_angle_alpha 90.000000
_cell_angle_beta 163.259278
_cell_angle_gamma 90.000000
_cell_volume 2128.288886
_symmetry_space_group_name_H-M "C 2/C"
_symmetry_group_IT_number 15
_symmetry_cell_setting 'monoclinic'
loop_
_space_group_symop_operation_xyz
x,y,z
-x,y,1/2-z
-x,-y,-z
x,-y,1/2+z
1/2+x,1/2+y,z
1/2-x,1/2+y,1/2-z
1/2-x,1/2-y,-z
1/2+x,1/2-y,1/2+z
loop_
_atom_site_type_symbol
_atom_site_label
_atom_site_fract_x
_atom_site_fract_y
_atom_site_fract_z
Si Si1 0.606771 0.844934 0.739914
Si Si2 0.139422 0.848950 0.010183
Si Si3 0.546220 0.906519 0.528472
Si Si4 0.818703 0.038608 0.591783
Si Si5 0.150411 0.837971 0.252980
Si Si6 0.722424 0.856659 0.488484
Si Si7 0.425041 0.417467 0.881582
O O1 0.665016 0.871356 0.729449
O O2 0.370339 0.855156 0.475540
O O3 0.651295 0.748609 0.792986
O O4 0.693790 0.900445 0.899745
O O5 0.355581 0.847486 0.295985
O O6 0.213363 0.854834 0.017413
O O7 0.908234 0.810392 0.739905
O O8 0.044871 0.921478 0.947312
O O9 0.687230 0.910385 0.621672
O O10 0.500000 0.000000 0.500000
O O11 0.887960 0.092634 0.734591
O O12 0.000000 0.012921 0.750000
O O13 0.715796 0.954374 0.496482
O O14 0.011830 0.843643 0.027685
O O15 0.500000 0.825394 0.250000
O O16 0.500000 0.500000 0.000000
#
# Coordination Sequence:
#
# PCOD9302771 Si02
#       7
#     8   8   8   8   8   8   8
#     4  12  25  43  62  93 133 183 230 273 323 392
#     4  11  22  40  60  93 130 160 218 269 340 390
#     4  12  23  40  63  93 132 174 223 281 333 386
#     4  12  23  40  61  88 132 179 235 270 317 382
#     4  12  25  43  62  93 133 183 230 273 323 392
#     4  11  23  41  66  97 132 172 217 278 340 401
#     4  12  23  40  63  93 132 174 223 281 333 386
#
# _framework density 26.312218000000001
#
# number of rings (size 3 to 8) (size 9 to 14) (size 15 to 20)
#    0.000    0.286    4.286    6.857    0.000    0.000 
#    0.000    0.000    0.000    0.000    0.000    4.000 
#    0.000    0.000    0.000    0.000    0.000    0.000 
#
# Total GULP energy -156217.969163 kJ/mol
# GULP energy per Si atom -5579.213184 kJ/mol
# Density = 2.625233 g / cm^3
# Si number density = 26.312218 Si / 1000 Ang^3
#
#
#
# Elastic Constant Matrix: (Units=GPa)
#
#
# Indices 1 2 3 4 5 6 
#
# 1 71.8141 12.2026 24.2361 0.0680 14.7697 -0.0024
# 2 12.2026 143.8264 17.9321 -0.0979 -11.6197 0.0547
# 3 24.2361 17.9321 161.4399 0.3464 18.0281 -0.1269
# 4 0.0680 -0.0979 0.3464 178.4267 -0.1090 -63.3367
# 5 14.7697 -11.6197 18.0281 -0.1090 57.4372 0.0226
# 6 -0.0024 0.0547 -0.1269 -63.3367 0.0226 54.1577
#
#
#
# Elastic Compliance Matrix: (Units=1/GPa)
#
#
# Indices 1 2 3 4 5 6 
#
# 1 0.015522 -0.001398 -0.001759 -0.000010 -0.003722 -0.000012
# 2 -0.001398 0.007347 -0.000842 0.000007 0.002110 -0.000003
# 3 -0.001759 -0.000842 0.006757 -0.000013 -0.001839 0.000002
# 4 -0.000010 0.000007 -0.000013 0.009583 0.000022 0.011207
# 5 -0.003722 0.002110 -0.001839 0.000022 0.019372 0.000011
# 6 -0.000012 -0.000003 0.000002 0.011207 0.000011 0.031571
#
#
# Mechanical properties :
#
#
# Convention : Reuss Voigt Hill
#
# Bulk Modulus (GPa) = 46.23802 53.98022 50.10912
# Shear Modulus (GPa) = 47.45706 79.51830 63.48768
#
# Velocity S-wave (km/s) = 4.25150 5.50333 4.91742
# Velocity P-wave (km/s) = 6.45843 7.80654 7.16426
#
# Compressibility (1/GPa) = 0.02162722
#
# Stress axis : x y z
#
# Youngs Moduli (GPa) = 64.42616 136.11191 147.98943
#
# Poissons Ratio (x) = 0.19032 0.26034
# Poissons Ratio (y) = 0.09008 0.12458
# Poissons Ratio (z) = 0.11334 0.11458
#
# Static dielectric constant tensor:
#      x y z
#    x 2.054440 0.000040 -0.030590 
#    y 0.000040 2.233310 0.000020 
#    z -0.030590 0.000020 2.138160 
# 
# From -- ./inp_files/216677.got.cif
#   From: 2010.05.17/outbox.cif.g08.bks.cpg/sg15_109_cif.got.tgz:216677.got - 2010.06.03 18:47:42.
