data_PCOD9302696
_publ_section_title
;
Structure prediction by ZEFSAII (Michael W. Deem and Ramdas Pophale) SiO2 
 PCOD9302696
Probable space group: C 2/C
;
_chemical_formula_sum "Si O2"
_cell_formula_units_Z 28
_cell_length_a 10.008182
_cell_length_b 20.562968
_cell_length_c 8.031977
_cell_angle_alpha 90.000000
_cell_angle_beta 47.685617
_cell_angle_gamma 90.000000
_cell_volume 1222.304427
_symmetry_space_group_name_H-M "C 2/C"
_symmetry_group_IT_number 15
_symmetry_cell_setting 'monoclinic'
loop_
_space_group_symop_operation_xyz
x,y,z
-x,y,1/2-z
-x,-y,-z
x,-y,1/2+z
1/2+x,1/2+y,z
1/2-x,1/2+y,1/2-z
1/2-x,1/2-y,-z
1/2+x,1/2-y,1/2+z
loop_
_atom_site_type_symbol
_atom_site_label
_atom_site_fract_x
_atom_site_fract_y
_atom_site_fract_z
Si Si1 0.500000 0.958579 0.750000
Si Si2 0.166286 0.702843 0.207692
Si Si3 0.361311 0.918811 0.230692
Si Si4 0.968661 0.177390 0.470168
O O1 0.554632 0.929944 0.522645
O O2 0.660838 0.010012 0.666795
O O3 0.093205 0.751790 0.409773
O O4 0.000000 0.671537 0.250000
O O5 0.250000 0.750000 0.000000
O O6 0.334398 0.659695 0.120658
O O7 0.500000 0.886460 0.250000
O O8 0.185274 0.874706 0.362250
O O9 0.000000 0.182461 0.250000
#
# Coordination Sequence:
#
# PCOD9302696 Si02
#       4
#     4   8   8   8
#     4   8  18  44  68  92 142 170 218 294 338 384
#     4   9  21  43  59  89 142 173 216 265 325 395
#     4   9  19  40  69 100 129 176 223 276 347 394
#     4  11  22  39  65  99 130 176 221 268 329 406
#
# _framework density 22.907551000000002
#
# number of rings (size 3 to 8) (size 9 to 14) (size 15 to 20)
#    0.857    1.714    0.000    0.857    0.000    5.714 
#   23.143    1.429    0.000    0.000    0.000    2.000 
#    0.000    0.000    0.000    0.000    0.000    0.000 
#
# Total GULP energy -78034.924111 kJ/mol
# GULP energy per Si atom -5573.923151 kJ/mol
# Density = 2.285541 g / cm^3
# Si number density = 22.907551 Si / 1000 Ang^3
#
#
#
# Elastic Constant Matrix: (Units=GPa)
#
#
# Indices 1 2 3 4 5 6 
#
# 1 220.6268 64.5996 91.4222 0.0000 -20.8874 0.0000
# 2 64.5996 58.6216 62.8076 0.0000 8.3387 0.0000
# 3 91.4222 62.8076 118.7792 0.0000 8.4052 0.0000
# 4 0.0000 0.0000 0.0000 24.8160 0.0000 -11.9531
# 5 -20.8874 8.3387 8.4052 0.0000 49.7882 0.0000
# 6 0.0000 0.0000 0.0000 -11.9531 0.0000 -25.6763
#
#
#
# Elastic Compliance Matrix: (Units=1/GPa)
#
#
# Indices 1 2 3 4 5 6 
#
# 1 0.008229 -0.006039 -0.003498 0.000000 0.005054 0.000000
# 2 -0.006039 0.044270 -0.018275 0.000000 -0.006863 0.000000
# 3 -0.003498 -0.018275 0.020911 0.000000 -0.001937 0.000000
# 4 0.000000 0.000000 0.000000 0.032916 0.000000 -0.015323
# 5 0.005054 -0.006863 -0.001937 0.000000 0.023682 0.000000
# 6 0.000000 0.000000 0.000000 -0.015323 0.000000 -0.031813
#
#
# Mechanical properties :
#
#
# Convention : Reuss Voigt Hill
#
# Bulk Modulus (GPa) = 56.22308 92.85404 74.53856
# Shear Modulus (GPa) = 31.29956 21.73213 26.51584
#
# Velocity S-wave (km/s) = 3.70042 3.08342 3.40592
# Velocity P-wave (km/s) = 6.54631 7.30061 6.93373
#
# Compressibility (1/GPa) = 0.01778629
#
# Stress axis : x y z
#
# Youngs Moduli (GPa) = 121.52595 22.58883 47.82084
#
# Poissons Ratio (x) = 0.13642 0.16726
# Poissons Ratio (y) = 0.73393 0.87391
# Poissons Ratio (z) = 0.42506 0.41280
#
# Static dielectric constant tensor:
#      x y z
#    x 1.898710 0.000000 -0.007920 
#    y 0.000000 2.193780 0.000000 
#    z -0.007920 0.000000 1.786970 
# 
# From -- ./inp_files/31613.got.cif
#   From: 2010.05.17/outbox.cif.g08.bks.cpg/sg15_16_cif.got.tgz:31613.got - 2010.06.03 18:47:42.
