data_PCOD9302399
_publ_section_title
;
Structure prediction by ZEFSAII (Michael W. Deem and Ramdas Pophale) SiO2 
 PCOD9302399
Probable space group: C 2/C
;
_chemical_formula_sum "Si O2"
_cell_formula_units_Z 48
_cell_length_a 5.992219
_cell_length_b 24.778160
_cell_length_c 16.404453
_cell_angle_alpha 90.000000
_cell_angle_beta 82.712250
_cell_angle_gamma 90.000000
_cell_volume 2415.993856
_symmetry_space_group_name_H-M "C 2/C"
_symmetry_group_IT_number 15
_symmetry_cell_setting 'monoclinic'
loop_
_space_group_symop_operation_xyz
x,y,z
-x,y,1/2-z
-x,-y,-z
x,-y,1/2+z
1/2+x,1/2+y,z
1/2-x,1/2+y,1/2-z
1/2-x,1/2-y,-z
1/2+x,1/2-y,1/2+z
loop_
_atom_site_type_symbol
_atom_site_label
_atom_site_fract_x
_atom_site_fract_y
_atom_site_fract_z
Si Si1 0.054885 0.790084 0.476472
Si Si2 0.500000 0.043689 0.250000
Si Si3 0.329117 0.218024 0.368116
Si Si4 0.699540 0.873990 0.845091
Si Si5 0.000000 0.791952 0.750000
Si Si6 0.328260 0.988627 0.932740
Si Si7 0.926658 0.086802 0.493469
O O1 0.250000 0.750000 0.500000
O O2 0.095560 0.853780 0.467610
O O3 0.853443 0.787113 0.551444
O O4 0.988403 0.765111 0.393127
O O5 0.305565 0.084576 0.229285
O O6 0.566441 0.014770 0.162772
O O7 0.472798 0.162443 0.356671
O O8 0.204328 0.233830 0.290186
O O9 0.763459 0.907059 0.922292
O O10 0.891632 0.830410 0.822718
O O11 0.163303 0.039983 0.943966
O O12 0.174558 0.934981 0.955617
O O13 0.500000 0.000000 0.000000
#
# Coordination Sequence:
#
# PCOD9302399 Si02
#       7
#     8   4   8   8   4   8   8
#     4  11  22  39  63  94 129 168 218 272 336 411
#     4  12  22  40  66  97 130 167 222 286 332 390
#     4  11  22  34  60  97 127 168 211 272 341 401
#     4  12  21  37  66  99 130 160 217 291 337 384
#     4  12  20  34  56  97 136 159 216 270 344 384
#     4  11  25  42  66  98 132 176 222 280 343 408
#     4  11  23  42  65 100 131 172 224 275 343 414
#
# _framework density 19.867599999999999
#
# number of rings (size 3 to 8) (size 9 to 14) (size 15 to 20)
#    0.000    0.667    6.667    2.000    0.000    0.000 
#    0.000    0.000    0.000   15.000    0.000    0.000 
#    0.000    0.000    0.000    0.000    0.000    0.000 
#
# Total GULP energy -133758.984657 kJ/mol
# GULP energy per Si atom -5573.291027 kJ/mol
# Density = 1.982238 g / cm^3
# Si number density = 19.867600 Si / 1000 Ang^3
#
#
#
# Elastic Constant Matrix: (Units=GPa)
#
#
# Indices 1 2 3 4 5 6 
#
# 1 87.4461 39.8562 47.0152 0.0000 11.0614 0.0000
# 2 39.8562 124.2664 50.5040 0.0000 8.7939 0.0000
# 3 47.0152 50.5040 133.7208 0.0000 19.3717 0.0000
# 4 0.0000 0.0000 0.0000 36.5623 0.0000 1.3950
# 5 11.0614 8.7939 19.3717 0.0000 48.8186 0.0000
# 6 0.0000 0.0000 0.0000 1.3950 0.0000 30.5834
#
#
#
# Elastic Compliance Matrix: (Units=1/GPa)
#
#
# Indices 1 2 3 4 5 6 
#
# 1 0.015166 -0.003168 -0.003948 0.000000 -0.001299 0.000000
# 2 -0.003168 0.010172 -0.002723 0.000000 -0.000034 0.000000
# 3 -0.003948 -0.002723 0.010285 0.000000 -0.002696 0.000000
# 4 0.000000 0.000000 0.000000 0.027398 0.000000 -0.001250
# 5 -0.001299 -0.000034 -0.002696 0.000000 0.021854 0.000000
# 6 0.000000 0.000000 0.000000 -0.001250 0.000000 0.032755
#
#
# Mechanical properties :
#
#
# Convention : Reuss Voigt Hill
#
# Bulk Modulus (GPa) = 62.70981 68.90934 65.80958
# Shear Modulus (GPa) = 35.05713 37.06341 36.06027
#
# Velocity S-wave (km/s) = 4.20520 4.32385 4.26494
# Velocity P-wave (km/s) = 7.43039 7.72575 7.57951
#
# Compressibility (1/GPa) = 0.01594647
#
# Stress axis : x y z
#
# Youngs Moduli (GPa) = 65.93570 98.30464 97.22582
#
# Poissons Ratio (x) = 0.31143 0.38381
# Poissons Ratio (y) = 0.20888 0.26477
# Poissons Ratio (z) = 0.26029 0.26770
#
# Static dielectric constant tensor:
#      x y z
#    x 1.810760 0.000000 0.012760 
#    y 0.000000 1.709770 0.000000 
#    z 0.012760 0.000000 1.723710 
# 
# From -- ./inp_files/185332.got.cif
#   From: 2010.05.17/outbox.cif.g08.bks.cpg/sg15_93_cif.got.tgz:185332.got - 2010.06.03 18:47:42.
