data_PCOD9302798
_publ_section_title
;
Structure prediction by ZEFSAII (Michael W. Deem and Ramdas Pophale) SiO2 
 PCOD9302798
Probable space group: C 2/C
;
_chemical_formula_sum "Si O2"
_cell_formula_units_Z 56
_cell_length_a 28.409012
_cell_length_b 18.468677
_cell_length_c 9.823902
_cell_angle_alpha 90.000000
_cell_angle_beta 147.807612
_cell_angle_gamma 90.000000
_cell_volume 2746.064204
_symmetry_space_group_name_H-M "C 2/C"
_symmetry_group_IT_number 15
_symmetry_cell_setting 'monoclinic'
loop_
_space_group_symop_operation_xyz
x,y,z
-x,y,1/2-z
-x,-y,-z
x,-y,1/2+z
1/2+x,1/2+y,z
1/2-x,1/2+y,1/2-z
1/2-x,1/2-y,-z
1/2+x,1/2-y,1/2+z
loop_
_atom_site_type_symbol
_atom_site_label
_atom_site_fract_x
_atom_site_fract_y
_atom_site_fract_z
Si Si1 0.840024 0.702513 0.708946
Si Si2 0.000000 0.777284 0.250000
Si Si3 0.263615 0.086995 0.100091
Si Si4 0.785668 0.919527 0.535401
Si Si5 0.602118 0.799550 0.461251
Si Si6 0.845684 0.135581 0.894013
Si Si7 0.500000 0.530508 0.250000
Si Si8 0.893794 0.097965 0.584385
O O1 0.750000 0.750000 0.500000
O O2 0.803691 0.625048 0.661670
O O3 0.877734 0.700246 0.649800
O O4 0.918032 0.732510 0.993469
O O5 0.040972 0.834261 0.243751
O O6 0.349250 0.130271 0.357849
O O7 0.243437 0.111091 0.897411
O O8 0.185064 0.112975 0.006616
O O9 0.247653 0.001090 0.068962
O O10 0.837035 0.885680 0.531608
O O11 0.847355 0.910869 0.820910
O O12 0.638103 0.720076 0.592755
O O13 0.500000 0.801752 0.250000
O O14 0.922439 0.085109 0.016926
O O15 0.547622 0.475091 0.261304
#
# Coordination Sequence:
#
# PCOD9302798 Si02
#       8
#     8   4   8   8   8   8   4   8
#     4  12  24  47  72 100 141 187 236 283 349 422
#     4  11  24  40  72 105 134 186 234 277 342 426
#     4  12  25  45  68 100 140 187 227 286 355 408
#     4  12  23  46  70  97 138 190 231 282 344 424
#     4  12  27  46  68 100 143 183 234 295 338 409
#     4  12  25  39  70 102 139 177 227 286 354 411
#     4  11  22  40  64 111 138 170 224 291 356 422
#     4  11  23  41  70 101 144 178 221 285 362 425
#
# _framework density 20.392821000000001
#
# number of rings (size 3 to 8) (size 9 to 14) (size 15 to 20)
#    0.000    0.286    7.857    0.429    2.000    4.571 
#    1.286    0.714    0.000    0.000    0.000    0.000 
#    0.000    0.000    0.000    0.000    0.000    0.000 
#
# Total GULP energy -156358.557774 kJ/mol
# GULP energy per Si atom -5584.234206 kJ/mol
# Density = 2.034641 g / cm^3
# Si number density = 20.392821 Si / 1000 Ang^3
#
#
#
# Elastic Constant Matrix: (Units=GPa)
#
#
# Indices 1 2 3 4 5 6 
#
# 1 84.3372 16.6039 30.3315 0.0000 12.6724 0.0000
# 2 16.6039 93.6572 39.3233 0.0000 27.9794 0.0000
# 3 30.3315 39.3233 90.7087 0.0000 8.7956 0.0000
# 4 0.0000 0.0000 0.0000 25.0380 0.0000 3.0786
# 5 12.6724 27.9794 8.7956 0.0000 32.7598 0.0000
# 6 0.0000 0.0000 0.0000 3.0786 0.0000 10.4436
#
#
#
# Elastic Compliance Matrix: (Units=1/GPa)
#
#
# Indices 1 2 3 4 5 6 
#
# 1 0.014092 0.000946 -0.004636 0.000000 -0.005015 0.000000
# 2 0.000946 0.017214 -0.006487 0.000000 -0.013327 0.000000
# 3 -0.004636 -0.006487 0.015068 0.000000 0.003288 0.000000
# 4 0.000000 0.000000 0.000000 0.041441 0.000000 -0.012216
# 5 -0.005015 -0.013327 0.003288 0.000000 0.042964 0.000000
# 6 0.000000 0.000000 0.000000 -0.012216 0.000000 0.099353
#
#
# Mechanical properties :
#
#
# Convention : Reuss Voigt Hill
#
# Bulk Modulus (GPa) = 38.43081 49.02449 43.72765
# Shear Modulus (GPa) = 19.29313 25.81125 22.55219
#
# Velocity S-wave (km/s) = 3.07917 3.56153 3.32910
# Velocity P-wave (km/s) = 5.61497 6.40351 6.02216
#
# Compressibility (1/GPa) = 0.02602079
#
# Stress axis : x y z
#
# Youngs Moduli (GPa) = 70.96394 58.09115 66.36671
#
# Poissons Ratio (x) = -0.05498 0.30768
# Poissons Ratio (y) = -0.06716 0.43051
# Poissons Ratio (z) = 0.32899 0.37683
#
# Static dielectric constant tensor:
#      x y z
#    x 1.740670 0.000000 -0.058720 
#    y 0.000000 1.763460 0.000000 
#    z -0.058720 0.000000 1.795610 
# 
# From -- ./inp_files/67231.got.cif
#   From: 2010.05.17/outbox.cif.g08.bks.cpg/sg15_34_cif.got.tgz:67231.got - 2010.06.03 18:47:42.
