data_PCOD9302649
_publ_section_title
;
Structure prediction by ZEFSAII (Michael W. Deem and Ramdas Pophale) SiO2 
 PCOD9302649
Probable space group: C 2/C
;
_chemical_formula_sum "Si O2"
_cell_formula_units_Z 56
_cell_length_a 26.539252
_cell_length_b 12.531691
_cell_length_c 9.747779
_cell_angle_alpha 90.000000
_cell_angle_beta 64.378399
_cell_angle_gamma 90.000000
_cell_volume 2923.152277
_symmetry_space_group_name_H-M "C 2/C"
_symmetry_group_IT_number 15
_symmetry_cell_setting 'monoclinic'
loop_
_space_group_symop_operation_xyz
x,y,z
-x,y,1/2-z
-x,-y,-z
x,-y,1/2+z
1/2+x,1/2+y,z
1/2-x,1/2+y,1/2-z
1/2-x,1/2-y,-z
1/2+x,1/2-y,1/2+z
loop_
_atom_site_type_symbol
_atom_site_label
_atom_site_fract_x
_atom_site_fract_y
_atom_site_fract_z
Si Si1 0.463053 0.042190 0.168089
Si Si2 0.650802 0.269242 0.818036
Si Si3 0.065631 0.690331 0.713788
Si Si4 0.705175 0.039490 0.706082
Si Si5 0.721747 0.528020 0.137541
Si Si6 0.811676 0.806715 0.421789
Si Si7 0.628916 0.166091 0.362517
O O1 0.500000 0.079102 0.250000
O O2 0.431128 0.936175 0.255741
O O3 0.426095 0.136599 0.157079
O O4 0.500000 0.000000 0.000000
O O5 0.590973 0.256666 0.811595
O O6 0.679394 0.154290 0.764107
O O7 0.687391 0.363853 0.705020
O O8 0.654621 0.285114 0.977595
O O9 0.108034 0.701261 0.536158
O O10 0.000000 0.710478 0.750000
O O11 0.724329 0.040549 0.525276
O O12 0.758388 0.018970 0.740475
O O13 0.664819 0.942835 0.801017
O O14 0.689971 0.432837 0.098996
O O15 0.750000 0.750000 0.500000
O O16 0.838426 0.756044 0.255853
#
# Coordination Sequence:
#
# PCOD9302649 Si02
#       7
#     8   8   8   8   8   8   8
#     4  11  22  39  62  95 137 171 215 276 338 388
#     4  12  25  41  69  91 130 183 217 271 336 380
#     4  11  25  42  64 100 132 176 226 276 326 390
#     4  12  23  38  63  97 132 170 216 258 327 408
#     4  12  25  43  60  92 139 171 219 264 318 400
#     4  12  25  43  63  96 136 175 218 267 321 405
#     4  12  24  39  66  97 138 173 212 270 332 390
#
# _framework density 19.157401
#
# number of rings (size 3 to 8) (size 9 to 14) (size 15 to 20)
#    0.000    0.286    8.571    1.286    6.000    0.000 
#    0.000    0.000    0.000    4.286    0.000    0.000 
#    0.000    0.000    0.000    0.000    0.000    0.000 
#
# Total GULP energy -156278.894165 kJ/mol
# GULP energy per Si atom -5581.389077 kJ/mol
# Density = 1.911380 g / cm^3
# Si number density = 19.157401 Si / 1000 Ang^3
#
#
#
# Elastic Constant Matrix: (Units=GPa)
#
#
# Indices 1 2 3 4 5 6 
#
# 1 78.9245 12.4989 9.4962 0.0000 22.0530 0.0000
# 2 12.4989 91.1177 13.3001 0.0000 -0.7990 0.0000
# 3 9.4962 13.3001 105.6069 0.0000 1.2352 0.0000
# 4 0.0000 0.0000 0.0000 21.7496 0.0000 -7.0823
# 5 22.0530 -0.7990 1.2352 0.0000 35.4515 0.0000
# 6 0.0000 0.0000 0.0000 -7.0823 0.0000 11.3106
#
#
#
# Elastic Compliance Matrix: (Units=1/GPa)
#
#
# Indices 1 2 3 4 5 6 
#
# 1 0.015898 -0.002115 -0.001047 0.000000 -0.009900 0.000000
# 2 -0.002115 0.011465 -0.001273 0.000000 0.001618 0.000000
# 3 -0.001047 -0.001273 0.009720 0.000000 0.000284 0.000000
# 4 0.000000 0.000000 0.000000 0.057754 0.000000 0.036164
# 5 -0.009900 0.001618 0.000284 0.000000 0.034393 0.000000
# 6 0.000000 0.000000 0.000000 0.036164 0.000000 0.111058
#
#
# Mechanical properties :
#
#
# Convention : Reuss Voigt Hill
#
# Bulk Modulus (GPa) = 35.44431 38.47104 36.95767
# Shear Modulus (GPa) = 19.33781 29.72593 24.53187
#
# Velocity S-wave (km/s) = 3.18058 3.94340 3.58235
# Velocity P-wave (km/s) = 5.65950 6.39210 6.03692
#
# Compressibility (1/GPa) = 0.02821327
#
# Stress axis : x y z
#
# Youngs Moduli (GPa) = 62.90247 87.22320 102.87836
#
# Poissons Ratio (x) = 0.18445 0.10775
# Poissons Ratio (y) = 0.13302 0.13093
# Poissons Ratio (z) = 0.06588 0.11101
#
# Static dielectric constant tensor:
#      x y z
#    x 1.730460 0.000000 0.023510 
#    y 0.000000 1.540070 0.000000 
#    z 0.023510 0.000000 1.655960 
# 
# From -- ./inp_files/65440.got.cif
#   From: 2010.05.17/outbox.cif.g08.bks.cpg/sg15_33_cif.got.tgz:65440.got - 2010.06.03 18:47:42.
