data_PCOD9302025
_publ_section_title
;
Structure prediction by ZEFSAII (Michael W. Deem and Ramdas Pophale) SiO2 
 PCOD9302025
Probable space group: C 2/C
;
_chemical_formula_sum "Si O2"
_cell_formula_units_Z 48
_cell_length_a 8.948258
_cell_length_b 13.700989
_cell_length_c 20.569382
_cell_angle_alpha 90.000000
_cell_angle_beta 110.801117
_cell_angle_gamma 90.000000
_cell_volume 2357.431460
_symmetry_space_group_name_H-M "C 2/C"
_symmetry_group_IT_number 15
_symmetry_cell_setting 'monoclinic'
loop_
_space_group_symop_operation_xyz
x,y,z
-x,y,1/2-z
-x,-y,-z
x,-y,1/2+z
1/2+x,1/2+y,z
1/2-x,1/2+y,1/2-z
1/2-x,1/2-y,-z
1/2+x,1/2-y,1/2+z
loop_
_atom_site_type_symbol
_atom_site_label
_atom_site_fract_x
_atom_site_fract_y
_atom_site_fract_z
Si Si1 0.071379 0.067457 0.830750
Si Si2 0.632973 0.075787 0.099072
Si Si3 0.087359 0.394279 0.450364
Si Si4 0.935711 0.302740 0.668436
Si Si5 0.413835 0.418632 0.442438
Si Si6 0.357910 0.726421 0.453224
O O1 0.091105 0.185471 0.835317
O O2 0.000000 0.043800 0.750000
O O3 0.960794 0.053961 0.876589
O O4 0.223541 0.996546 0.860315
O O5 0.570926 0.156877 0.139887
O O6 0.484086 0.002735 0.066079
O O7 0.669325 0.117985 0.033595
O O8 0.226951 0.394933 0.419448
O O9 0.942372 0.316747 0.428799
O O10 0.760271 0.333713 0.613363
O O11 0.000000 0.331179 0.750000
O O12 0.500000 0.500000 0.500000
O O13 0.498909 0.326495 0.488188
O O14 0.250000 0.750000 0.500000
#
# Coordination Sequence:
#
# PCOD9302025 Si02
#       6
#     8   8   8   8   8   8
#     4  11  24  44  67  94 141 182 219 285 357 406
#     4  11  21  41  67  96 128 179 223 273 341 413
#     4  11  22  37  66 101 129 167 233 284 334 400
#     4  11  24  42  68  96 135 179 228 273 348 420
#     4  12  23  38  65 103 131 171 233 287 334 406
#     4  12  21  41  68  94 133 179 224 281 339 401
#
# _framework density 20.361143999999999
#
# number of rings (size 3 to 8) (size 9 to 14) (size 15 to 20)
#    0.000    0.667    6.667    1.500    0.000    2.667 
#    0.000    0.000    0.000    0.000    0.000    0.000 
#    0.000    0.000    0.000    0.000    0.000    0.000 
#
# Total GULP energy -133668.654632 kJ/mol
# GULP energy per Si atom -5569.527276 kJ/mol
# Density = 2.031480 g / cm^3
# Si number density = 20.361144 Si / 1000 Ang^3
#
#
#
# Elastic Constant Matrix: (Units=GPa)
#
#
# Indices 1 2 3 4 5 6 
#
# 1 101.0110 21.4972 51.2230 0.0000 3.1416 0.0000
# 2 21.4972 55.9584 14.9943 0.0000 2.6917 0.0000
# 3 51.2230 14.9943 147.2879 0.0000 -9.9924 0.0000
# 4 0.0000 0.0000 0.0000 24.6383 0.0000 0.3401
# 5 3.1416 2.6917 -9.9924 0.0000 20.6038 0.0000
# 6 0.0000 0.0000 0.0000 0.3401 0.0000 38.5387
#
#
#
# Elastic Compliance Matrix: (Units=1/GPa)
#
#
# Indices 1 2 3 4 5 6 
#
# 1 0.013023 -0.003647 -0.004405 0.000000 -0.003646 0.000000
# 2 -0.003647 0.019629 -0.000896 0.000000 -0.002443 0.000000
# 3 -0.004405 -0.000896 0.008754 0.000000 0.005034 0.000000
# 4 0.000000 0.000000 0.000000 0.040592 0.000000 -0.000358
# 5 -0.003646 -0.002443 0.005034 0.000000 0.051851 0.000000
# 6 0.000000 0.000000 0.000000 -0.000358 0.000000 0.025951
#
#
# Mechanical properties :
#
#
# Convention : Reuss Voigt Hill
#
# Bulk Modulus (GPa) = 42.53443 53.29848 47.91645
# Shear Modulus (GPa) = 26.94920 31.19235 29.07077
#
# Velocity S-wave (km/s) = 3.64202 3.91827 3.78267
# Velocity P-wave (km/s) = 6.21459 6.83402 6.53165
#
# Compressibility (1/GPa) = 0.02351037
#
# Stress axis : x y z
#
# Youngs Moduli (GPa) = 76.78464 50.94486 114.23140
#
# Poissons Ratio (x) = 0.18581 0.50322
# Poissons Ratio (y) = 0.28006 0.10230
# Poissons Ratio (z) = 0.33825 0.04562
#
# Static dielectric constant tensor:
#      x y z
#    x 1.646580 0.000000 0.069080 
#    y 0.000000 2.015580 0.000000 
#    z 0.069080 0.000000 1.738360 
# 
# From -- ./inp_files/231336.got.cif
#   From: 2010.05.17/outbox.cif.g08.bks.cpg/sg15_116_cif.got.tgz:231336.got - 2010.06.03 18:47:42.
