data_PCOD9302130
_publ_section_title
;
Structure prediction by ZEFSAII (Michael W. Deem and Ramdas Pophale) SiO2 
 PCOD9302130
Probable space group: C 2/C
;
_chemical_formula_sum "Si O2"
_cell_formula_units_Z 56
_cell_length_a 19.560212
_cell_length_b 15.589858
_cell_length_c 8.851181
_cell_angle_alpha 90.000000
_cell_angle_beta 61.716929
_cell_angle_gamma 90.000000
_cell_volume 2376.863259
_symmetry_space_group_name_H-M "C 2/C"
_symmetry_group_IT_number 15
_symmetry_cell_setting 'monoclinic'
loop_
_space_group_symop_operation_xyz
x,y,z
-x,y,1/2-z
-x,-y,-z
x,-y,1/2+z
1/2+x,1/2+y,z
1/2-x,1/2+y,1/2-z
1/2-x,1/2-y,-z
1/2+x,1/2-y,1/2+z
loop_
_atom_site_type_symbol
_atom_site_label
_atom_site_fract_x
_atom_site_fract_y
_atom_site_fract_z
Si Si1 0.607327 0.841713 0.454116
Si Si2 0.337168 0.955960 0.343473
Si Si3 0.380288 0.590590 0.928834
Si Si4 0.007405 0.803256 0.992781
Si Si5 0.500000 0.445772 0.750000
Si Si6 0.155158 0.755372 0.208833
Si Si7 0.000000 0.469658 0.750000
Si Si8 0.263632 0.104069 0.234234
O O1 0.669354 0.891938 0.290311
O O2 0.567118 0.771576 0.387348
O O3 0.643112 0.796615 0.564550
O O4 0.540098 0.906422 0.585168
O O5 0.292300 0.923518 0.538498
O O6 0.428354 0.970473 0.278637
O O7 0.309171 0.046739 0.309212
O O8 0.423624 0.505886 0.827567
O O9 0.332997 0.645489 0.853513
O O10 0.448364 0.652684 0.914714
O O11 0.324697 0.581742 0.131944
O O12 0.994238 0.881689 0.895625
O O13 0.926919 0.758820 0.119232
O O14 0.215644 0.702734 0.247364
#
# Coordination Sequence:
#
# PCOD9302130 Si02
#       8
#     8   8   8   8   4   8   4   8
#     4  11  21  42  67  99 143 178 238 286 345 423
#     4  12  26  40  66 107 141 189 233 292 356 427
#     4  11  25  47  73  99 142 183 244 297 357 423
#     4  11  24  43  73 105 136 188 238 297 349 425
#     4  12  26  44  74 112 134 188 248 300 356 412
#     4  11  22  46  70 100 138 186 232 288 360 423
#     4  12  20  40  68  96 138 184 236 282 342 426
#     4  12  26  43  71 104 147 188 230 293 368 424
#
# _framework density 23.560465000000001
#
# number of rings (size 3 to 8) (size 9 to 14) (size 15 to 20)
#    0.000    0.571    5.714    2.143    6.000    0.000 
#    0.000    5.714    0.000    0.000    0.000    0.000 
#    0.000    0.000    0.000    0.000    0.000    0.000 
#
# Total GULP energy -156519.330596 kJ/mol
# GULP energy per Si atom -5589.976093 kJ/mol
# Density = 2.350684 g / cm^3
# Si number density = 23.560465 Si / 1000 Ang^3
#
#
#
# Elastic Constant Matrix: (Units=GPa)
#
#
# Indices 1 2 3 4 5 6 
#
# 1 45.3933 13.5452 33.6788 0.0000 -12.0516 0.0000
# 2 13.5452 108.7813 42.8360 0.0000 18.7651 0.0000
# 3 33.6788 42.8360 140.0697 0.0000 -3.9223 0.0000
# 4 0.0000 0.0000 0.0000 43.6621 0.0000 1.6484
# 5 -12.0516 18.7651 -3.9223 0.0000 21.9255 0.0000
# 6 0.0000 0.0000 0.0000 1.6484 0.0000 5.3242
#
#
#
# Elastic Compliance Matrix: (Units=1/GPa)
#
#
# Indices 1 2 3 4 5 6 
#
# 1 0.034112 -0.005910 -0.005757 0.000000 0.022778 0.000000
# 2 -0.005910 0.013942 -0.003284 0.000000 -0.015768 0.000000
# 3 -0.005757 -0.003284 0.009566 0.000000 0.001358 0.000000
# 4 0.000000 0.000000 0.000000 0.023174 0.000000 -0.007175
# 5 0.022778 -0.015768 0.001358 0.000000 0.071868 0.000000
# 6 0.000000 0.000000 0.000000 -0.007175 0.000000 0.190043
#
#
# Mechanical properties :
#
#
# Convention : Reuss Voigt Hill
#
# Bulk Modulus (GPa) = 36.07791 52.70715 44.39253
# Shear Modulus (GPa) = 13.09430 27.79464 20.44447
#
# Velocity S-wave (km/s) = 2.36004 3.43842 2.94895
# Velocity P-wave (km/s) = 4.77206 6.17926 5.52068
#
# Compressibility (1/GPa) = 0.02771779
#
# Stress axis : x y z
#
# Youngs Moduli (GPa) = 29.31537 71.72563 104.53816
#
# Poissons Ratio (x) = 0.42389 0.60180
# Poissons Ratio (y) = 0.17325 0.34333
# Poissons Ratio (z) = 0.16876 0.23557
#
# Static dielectric constant tensor:
#      x y z
#    x 2.051960 0.000000 0.275760 
#    y 0.000000 1.921760 0.000000 
#    z 0.275760 0.000000 2.941980 
# 
# From -- ./inp_files/56515.got.cif
#   From: 2010.05.17/outbox.cif.g08.bks.cpg/sg15_29_cif.got.tgz:56515.got - 2010.06.03 18:47:42.
