data_PCOD9302604
_publ_section_title
;
Structure prediction by ZEFSAII (Michael W. Deem and Ramdas Pophale) SiO2 
 PCOD9302604
Probable space group: C 2/C
;
_chemical_formula_sum "Si O2"
_cell_formula_units_Z 44
_cell_length_a 19.974929
_cell_length_b 9.245199
_cell_length_c 11.700052
_cell_angle_alpha 90.000000
_cell_angle_beta 49.806189
_cell_angle_gamma 90.000000
_cell_volume 1650.465061
_symmetry_space_group_name_H-M "C 2/C"
_symmetry_group_IT_number 15
_symmetry_cell_setting 'monoclinic'
loop_
_space_group_symop_operation_xyz
x,y,z
-x,y,1/2-z
-x,-y,-z
x,-y,1/2+z
1/2+x,1/2+y,z
1/2-x,1/2+y,1/2-z
1/2-x,1/2-y,-z
1/2+x,1/2-y,1/2+z
loop_
_atom_site_type_symbol
_atom_site_label
_atom_site_fract_x
_atom_site_fract_y
_atom_site_fract_z
Si Si1 0.642511 0.105297 0.706080
Si Si2 0.497245 0.853011 0.592677
Si Si3 0.245376 0.736734 0.800341
Si Si4 0.000000 0.916764 0.250000
Si Si5 0.309701 0.548699 0.934831
Si Si6 0.594675 0.866365 0.021875
O O1 0.596651 0.181252 0.649487
O O2 0.574939 0.959486 0.547744
O O3 0.735401 0.064991 0.544373
O O4 0.589198 0.952862 0.784843
O O5 0.673917 0.815129 0.286258
O O6 0.499558 0.699635 0.647830
O O7 0.513155 0.176284 0.530452
O O8 0.291700 0.613267 0.827922
O O9 0.319553 0.815522 0.641550
O O10 0.204485 0.835469 0.945885
O O11 0.090584 0.998921 0.160806
#
# Coordination Sequence:
#
# PCOD9302604 Si02
#       6
#     8   8   8   4   8   8
#     4  12  23  42  67  97 134 170 215 270 328 393
#     4  11  22  38  69 101 128 163 220 279 317 381
#     4  11  24  41  66  97 132 168 216 267 331 394
#     4  12  22  44  66  92 128 172 228 264 318 394
#     4  11  25  41  66  94 127 178 215 266 329 388
#     4  11  22  39  65 101 131 163 213 273 328 377
#
# _framework density 26.659153
#
# number of rings (size 3 to 8) (size 9 to 14) (size 15 to 20)
#    0.000    0.727    5.455    2.727    5.091    0.000 
#    0.000    0.909    8.000    0.000    0.000    0.000 
#    0.000    0.000    0.000    0.000    0.000    0.000 
#
# Total GULP energy -123034.147399 kJ/mol
# GULP energy per Si atom -5592.461245 kJ/mol
# Density = 2.659848 g / cm^3
# Si number density = 26.659153 Si / 1000 Ang^3
#
#
#
# Elastic Constant Matrix: (Units=GPa)
#
#
# Indices 1 2 3 4 5 6 
#
# 1 218.5583 52.1173 87.6437 0.0000 28.9317 0.0000
# 2 52.1173 85.7073 34.8929 0.0000 5.6009 0.0000
# 3 87.6437 34.8929 144.6101 0.0000 38.0792 0.0000
# 4 0.0000 0.0000 0.0000 21.9316 0.0000 -18.7064
# 5 28.9317 5.6009 38.0792 0.0000 80.5025 0.0000
# 6 0.0000 0.0000 0.0000 -18.7064 0.0000 27.1108
#
#
#
# Elastic Compliance Matrix: (Units=1/GPa)
#
#
# Indices 1 2 3 4 5 6 
#
# 1 0.006567 -0.002663 -0.003158 0.000000 -0.000681 0.000000
# 2 -0.002663 0.014049 -0.002022 0.000000 0.000936 0.000000
# 3 -0.003158 -0.002022 0.010259 0.000000 -0.003577 0.000000
# 4 0.000000 0.000000 0.000000 0.110813 0.000000 0.076461
# 5 -0.000681 0.000936 -0.003577 0.000000 0.014294 0.000000
# 6 0.000000 0.000000 0.000000 0.076461 0.000000 0.089643
#
#
# Mechanical properties :
#
#
# Convention : Reuss Voigt Hill
#
# Bulk Modulus (GPa) = 65.84180 88.68706 77.26443
# Shear Modulus (GPa) = 18.77051 44.19043 31.48047
#
# Velocity S-wave (km/s) = 2.65635 4.07579 3.44008
# Velocity P-wave (km/s) = 5.84462 7.44907 6.69508
#
# Compressibility (1/GPa) = 0.01518792
#
# Stress axis : x y z
#
# Youngs Moduli (GPa) = 152.27437 71.17853 97.47381
#
# Poissons Ratio (x) = 0.18955 0.30784
# Poissons Ratio (y) = 0.40552 0.19714
# Poissons Ratio (z) = 0.48092 0.14395
#
# Static dielectric constant tensor:
#      x y z
#    x 2.172130 0.000000 -0.080620 
#    y 0.000000 2.120590 0.000000 
#    z -0.080620 0.000000 2.264770 
# 
# From -- ./inp_files/110496.got.cif
#   From: 2010.05.17/outbox.cif.g08.bks.cpg/sg15_56_cif.got.tgz:110496.got - 2010.06.03 18:47:42.
