data_PCOD9302678
_publ_section_title
;
Structure prediction by ZEFSAII (Michael W. Deem and Ramdas Pophale) SiO2 
 PCOD9302678
Probable space group: C 2/C
;
_chemical_formula_sum "Si O2"
_cell_formula_units_Z 60
_cell_length_a 9.258197
_cell_length_b 18.461882
_cell_length_c 20.254834
_cell_angle_alpha 90.000000
_cell_angle_beta 56.973383
_cell_angle_gamma 90.000000
_cell_volume 2902.628079
_symmetry_space_group_name_H-M "C 2/C"
_symmetry_group_IT_number 15
_symmetry_cell_setting 'monoclinic'
loop_
_space_group_symop_operation_xyz
x,y,z
-x,y,1/2-z
-x,-y,-z
x,-y,1/2+z
1/2+x,1/2+y,z
1/2-x,1/2+y,1/2-z
1/2-x,1/2-y,-z
1/2+x,1/2-y,1/2+z
loop_
_atom_site_type_symbol
_atom_site_label
_atom_site_fract_x
_atom_site_fract_y
_atom_site_fract_z
Si Si1 0.319838 0.984361 0.009233
Si Si2 0.836357 0.839816 0.425015
Si Si3 0.513158 0.081650 0.338759
Si Si4 0.000000 0.455953 0.250000
Si Si5 0.860265 0.136195 0.463980
Si Si6 0.182665 0.175346 0.173981
Si Si7 0.265924 0.336733 0.135463
Si Si8 0.739407 0.690459 0.403444
O O1 0.231965 0.919780 0.072144
O O2 0.190957 0.051480 0.030330
O O3 0.381838 0.955822 0.922971
O O4 0.500000 0.000000 0.000000
O O5 0.775166 0.776600 0.390568
O O6 0.761265 0.821629 0.516848
O O7 0.040365 0.843588 0.385227
O O8 0.665623 0.126884 0.333831
O O9 0.390080 0.141687 0.335741
O O10 0.580810 0.013572 0.280874
O O11 0.854359 0.403541 0.315054
O O12 0.801591 0.167894 0.408878
O O13 0.774599 0.164168 0.553186
O O14 0.059415 0.159862 0.421790
O O15 0.201872 0.260917 0.181199
O O16 0.000000 0.151578 0.250000
#
# Coordination Sequence:
#
# PCOD9302678 Si02
#       8
#     8   8   8   4   8   8   8   8
#     4  11  22  39  65 100 134 174 224 282 342 403
#     4   9  20  37  65  91 136 169 219 280 338 388
#     4  11  24  43  67  91 139 179 221 285 343 404
#     4  12  26  42  72  98 136 184 242 280 354 406
#     4  11  24  40  71 101 133 179 231 277 342 415
#     4  12  26  44  67  99 141 179 226 285 350 406
#     4  11  23  45  67 100 134 183 229 285 333 418
#     4   9  20  39  64  98 125 175 225 268 334 411
#
# _framework density 20.670922999999998
#
# number of rings (size 3 to 8) (size 9 to 14) (size 15 to 20)
#    0.000    1.333    4.667    0.400    5.600    2.667 
#    0.000    0.000    0.000    1.600    0.000    0.000 
#    0.000    0.000    0.000    0.000    0.000    0.000 
#
# Total GULP energy -167331.375604 kJ/mol
# GULP energy per Si atom -5577.712520 kJ/mol
# Density = 2.062387 g / cm^3
# Si number density = 20.670923 Si / 1000 Ang^3
#
#
#
# Elastic Constant Matrix: (Units=GPa)
#
#
# Indices 1 2 3 4 5 6 
#
# 1 55.0683 63.1643 35.0820 0.0000 -5.3437 0.0000
# 2 63.1643 171.0835 41.7310 0.0000 -8.8562 0.0000
# 3 35.0820 41.7310 69.5955 0.0000 -17.3069 0.0000
# 4 0.0000 0.0000 0.0000 24.9731 0.0000 -9.7558
# 5 -5.3437 -8.8562 -17.3069 0.0000 22.1027 0.0000
# 6 0.0000 0.0000 0.0000 -9.7558 0.0000 38.7167
#
#
#
# Elastic Compliance Matrix: (Units=1/GPa)
#
#
# Indices 1 2 3 4 5 6 
#
# 1 0.040410 -0.011586 -0.015085 0.000000 -0.006684 0.000000
# 2 -0.011586 0.010174 0.000070 0.000000 0.001331 0.000000
# 3 -0.015085 0.000070 0.026116 0.000000 0.016831 0.000000
# 4 0.000000 0.000000 0.000000 0.044415 0.000000 0.011192
# 5 -0.006684 0.001331 0.016831 0.000000 0.057339 0.000000
# 6 0.000000 0.000000 0.000000 0.011192 0.000000 0.028649
#
#
# Mechanical properties :
#
#
# Convention : Reuss Voigt Hill
#
# Bulk Modulus (GPa) = 42.55459 63.96686 53.26072
# Shear Modulus (GPa) = 18.64715 27.54318 23.09516
#
# Velocity S-wave (km/s) = 3.00675 3.65425 3.34620
# Velocity P-wave (km/s) = 5.71712 6.98693 6.38368
#
# Compressibility (1/GPa) = 0.02349923
#
# Stress axis : x y z
#
# Youngs Moduli (GPa) = 24.74641 98.28670 38.29052
#
# Poissons Ratio (x) = 1.13873 0.57762
# Poissons Ratio (y) = 0.28671 -0.00270
# Poissons Ratio (z) = 0.37330 -0.00692
#
# Static dielectric constant tensor:
#      x y z
#    x 1.692110 0.000000 0.020450 
#    y 0.000000 1.787460 0.000000 
#    z 0.020450 0.000000 1.777380 
# 
# From -- ./inp_files/233053.got.cif
#   From: 2010.05.17/outbox.cif.g08.bks.cpg/sg15_117_cif.got.tgz:233053.got - 2010.06.03 18:47:42.
