data_PCOD9302668
_publ_section_title
;
Structure prediction by ZEFSAII (Michael W. Deem and Ramdas Pophale) SiO2 
 PCOD9302668
Probable space group: C 2/C
;
_chemical_formula_sum "Si O2"
_cell_formula_units_Z 36
_cell_length_a 30.330528
_cell_length_b 11.171835
_cell_length_c 16.112330
_cell_angle_alpha 90.000000
_cell_angle_beta 19.742057
_cell_angle_gamma 90.000000
_cell_volume 1844.186266
_symmetry_space_group_name_H-M "C 2/C"
_symmetry_group_IT_number 15
_symmetry_cell_setting 'monoclinic'
loop_
_space_group_symop_operation_xyz
x,y,z
-x,y,1/2-z
-x,-y,-z
x,-y,1/2+z
1/2+x,1/2+y,z
1/2-x,1/2+y,1/2-z
1/2-x,1/2-y,-z
1/2+x,1/2-y,1/2+z
loop_
_atom_site_type_symbol
_atom_site_label
_atom_site_fract_x
_atom_site_fract_y
_atom_site_fract_z
Si Si1 0.781591 0.877809 0.987039
Si Si2 0.440039 0.301932 0.003127
Si Si3 0.000000 0.625000 0.750000
Si Si4 0.018628 0.372189 0.512963
Si Si5 0.806832 0.448069 0.003126
O O1 0.932758 0.882798 0.741360
O O2 0.751978 0.980326 0.972010
O O3 0.750000 0.750000 0.000000
O O4 0.674729 0.874999 0.250002
O O5 0.473987 0.230326 0.027989
O O6 0.307813 0.375002 0.249999
O O7 0.442481 0.205381 0.925670
O O8 0.118147 0.544619 0.574341
O O9 0.000000 0.500000 0.500000
O O10 0.924113 0.367199 0.758645
#
# Coordination Sequence:
#
# PCOD9302668 Si02
#       5
#     8   8   4   8   8
#     4   9  17  37  65  87 112 154 210 260 300 363
#     4  11  22  39  64  90 120 166 212 258 311 374
#     4  12  24  40  56  92 144 164 196 262 340 370
#     4   9  17  37  65  87 112 154 210 260 300 363
#     4  11  22  39  64  90 120 166 212 258 311 374
#
# _framework density 19.520803999999998
#
# number of rings (size 3 to 8) (size 9 to 14) (size 15 to 20)
#    0.000    1.778    6.667    1.333    0.000    1.778 
#    0.000    0.000    0.000    0.000    0.000    0.000 
#    0.000    0.000    0.000    0.000    0.000    0.000 
#
# Total GULP energy -100326.558848 kJ/mol
# GULP energy per Si atom -5573.697714 kJ/mol
# Density = 1.947637 g / cm^3
# Si number density = 19.520804 Si / 1000 Ang^3
#
#
#
# Elastic Constant Matrix: (Units=GPa)
#
#
# Indices 1 2 3 4 5 6 
#
# 1 68.9017 27.5997 64.6478 0.0000 -2.8432 0.0000
# 2 27.5997 62.7056 68.7112 0.0000 -3.5624 0.0000
# 3 64.6478 68.7112 248.0533 0.0000 -12.6803 0.0000
# 4 0.0000 0.0000 0.0000 35.1639 0.0000 -4.6460
# 5 -2.8432 -3.5624 -12.6803 0.0000 19.3908 0.0000
# 6 0.0000 0.0000 0.0000 -4.6460 0.0000 -18.4596
#
#
#
# Elastic Compliance Matrix: (Units=1/GPa)
#
#
# Indices 1 2 3 4 5 6 
#
# 1 0.020044 -0.004449 -0.004017 0.000000 -0.000505 0.000000
# 2 -0.004449 0.023885 -0.005448 0.000000 0.000173 0.000000
# 3 -0.004017 -0.005448 0.006731 0.000000 0.002812 0.000000
# 4 0.000000 0.000000 0.000000 0.027523 0.000000 -0.006927
# 5 -0.000505 0.000173 0.002812 0.000000 0.053367 0.000000
# 6 0.000000 0.000000 0.000000 -0.006927 0.000000 -0.052429
#
#
# Mechanical properties :
#
#
# Convention : Reuss Voigt Hill
#
# Bulk Modulus (GPa) = 43.79803 77.95313 60.87558
# Shear Modulus (GPa) = 43.64489 21.79914 32.72202
#
# Velocity S-wave (km/s) = 4.73357 3.34535 4.09866
# Velocity P-wave (km/s) = 7.23608 7.41228 7.32471
#
# Compressibility (1/GPa) = 0.02283208
#
# Stress axis : x y z
#
# Youngs Moduli (GPa) = 49.89025 41.86681 148.56144
#
# Poissons Ratio (x) = 0.18626 0.59682
# Poissons Ratio (y) = 0.22196 0.80935
# Poissons Ratio (z) = 0.20043 0.22809
#
# Static dielectric constant tensor:
#      x y z
#    x 1.723750 0.000000 -0.002000 
#    y 0.000000 1.700910 0.000000 
#    z -0.002000 0.000000 1.746780 
# 
# From -- ./inp_files/33955.got.cif
#   From: 2010.05.17/outbox.cif.g08.bks.cpg/sg15_17_cif.got.tgz:33955.got - 2010.06.03 18:47:42.
