data_PCOD9302156
_publ_section_title
;
Structure prediction by ZEFSAII (Michael W. Deem and Ramdas Pophale) SiO2 
 PCOD9302156
Probable space group: C 2/C
;
_chemical_formula_sum "Si O2"
_cell_formula_units_Z 56
_cell_length_a 18.063087
_cell_length_b 8.222264
_cell_length_c 25.016598
_cell_angle_alpha 90.000000
_cell_angle_beta 42.155682
_cell_angle_gamma 90.000000
_cell_volume 2493.615791
_symmetry_space_group_name_H-M "C 2/C"
_symmetry_group_IT_number 15
_symmetry_cell_setting 'monoclinic'
loop_
_space_group_symop_operation_xyz
x,y,z
-x,y,1/2-z
-x,-y,-z
x,-y,1/2+z
1/2+x,1/2+y,z
1/2-x,1/2+y,1/2-z
1/2-x,1/2-y,-z
1/2+x,1/2-y,1/2+z
loop_
_atom_site_type_symbol
_atom_site_label
_atom_site_fract_x
_atom_site_fract_y
_atom_site_fract_z
Si Si1 0.895421 0.050196 0.464491
Si Si2 0.372341 0.455195 0.801588
Si Si3 0.660300 0.945124 0.754351
Si Si4 0.876976 0.084031 0.682526
Si Si5 0.749508 0.603560 0.543786
Si Si6 0.324765 0.090376 0.861464
Si Si7 0.448778 0.090802 0.909522
O O1 0.798764 0.029684 0.559062
O O2 0.934952 0.234851 0.443378
O O3 0.830304 0.025124 0.443530
O O4 0.001335 0.934354 0.407879
O O5 0.500000 0.462889 0.750000
O O6 0.371748 0.474237 0.738503
O O7 0.305035 0.598410 0.868458
O O8 0.325325 0.277305 0.841549
O O9 0.648029 0.763616 0.782487
O O10 0.781765 0.018138 0.695524
O O11 0.627616 0.976390 0.710369
O O12 0.575155 0.046757 0.835843
O O13 0.750000 0.750000 0.500000
O O14 0.873454 0.538561 0.481018
O O15 0.394373 0.088046 0.879095
#
# Coordination Sequence:
#
# PCOD9302156 Si02
#       7
#     8   8   8   8   8   8   8
#     4  11  21  43  68  98 137 172 218 273 336 393
#     4  12  22  41  70 101 135 173 223 272 336 392
#     4  12  27  45  66  94 132 179 226 274 336 399
#     4  12  27  45  65  93 133 178 223 280 334 403
#     4  11  22  37  64 104 137 169 214 277 327 385
#     4  11  22  41  71 101 129 175 217 275 332 403
#     4  11  21  42  69  97 134 172 217 264 332 396
#
# _framework density 22.457346999999999
#
# number of rings (size 3 to 8) (size 9 to 14) (size 15 to 20)
#    0.000    0.571    4.286    5.571    4.000    0.571 
#    0.000    0.714    0.000    0.000    0.000    0.000 
#    0.000    0.000    0.000    0.000    0.000    0.000 
#
# Total GULP energy -156556.172859 kJ/mol
# GULP energy per Si atom -5591.291888 kJ/mol
# Density = 2.240623 g / cm^3
# Si number density = 22.457347 Si / 1000 Ang^3
#
#
#
# Elastic Constant Matrix: (Units=GPa)
#
#
# Indices 1 2 3 4 5 6 
#
# 1 42.5131 -6.6138 9.0769 0.0000 -6.9417 0.0000
# 2 -6.6138 82.9765 21.0008 0.0000 4.9276 0.0000
# 3 9.0769 21.0008 125.6435 0.0000 -15.0034 0.0000
# 4 0.0000 0.0000 0.0000 34.4630 0.0000 -2.5859
# 5 -6.9417 4.9276 -15.0034 0.0000 25.8173 0.0000
# 6 0.0000 0.0000 0.0000 -2.5859 0.0000 18.7895
#
#
#
# Elastic Compliance Matrix: (Units=1/GPa)
#
#
# Indices 1 2 3 4 5 6 
#
# 1 0.025055 0.002051 -0.001499 0.000000 0.005474 0.000000
# 2 0.002051 0.013127 -0.002768 0.000000 -0.003562 0.000000
# 3 -0.001499 -0.002768 0.009182 0.000000 0.005461 0.000000
# 4 0.000000 0.000000 0.000000 0.029319 0.000000 0.004035
# 5 0.005474 -0.003562 0.005461 0.000000 0.044059 0.000000
# 6 0.000000 0.000000 0.000000 0.004035 0.000000 0.053777
#
#
# Mechanical properties :
#
#
# Convention : Reuss Voigt Hill
#
# Bulk Modulus (GPa) = 23.29192 33.11787 28.20490
# Shear Modulus (GPa) = 25.87162 30.99190 28.43176
#
# Velocity S-wave (km/s) = 3.39784 3.71891 3.56200
# Velocity P-wave (km/s) = 5.07818 5.76363 5.43173
#
# Compressibility (1/GPa) = 0.04293334
#
# Stress axis : x y z
#
# Youngs Moduli (GPa) = 39.91178 76.17783 108.90760
#
# Poissons Ratio (x) = -0.15628 0.16329
# Poissons Ratio (y) = -0.08188 0.30143
# Poissons Ratio (z) = 0.05984 0.21084
#
# Static dielectric constant tensor:
#      x y z
#    x 1.831930 0.000000 0.000240 
#    y 0.000000 1.865110 0.000000 
#    z 0.000240 0.000000 1.832200 
# 
# From -- ./inp_files/298523.got.cif
#   From: 2010.05.17/outbox.cif.g08.bks.cpg/sg15_150_cif.got.tgz:298523.got - 2010.06.03 18:47:42.
