data_PCOD9302568
_publ_section_title
;
Structure prediction by ZEFSAII (Michael W. Deem and Ramdas Pophale) SiO2 
 PCOD9302568
Probable space group: C 2/C
;
_chemical_formula_sum "Si O2"
_cell_formula_units_Z 56
_cell_length_a 17.919256
_cell_length_b 25.143833
_cell_length_c 8.747421
_cell_angle_alpha 90.000000
_cell_angle_beta 41.832485
_cell_angle_gamma 90.000000
_cell_volume 2628.621380
_symmetry_space_group_name_H-M "C 2/C"
_symmetry_group_IT_number 15
_symmetry_cell_setting 'monoclinic'
loop_
_space_group_symop_operation_xyz
x,y,z
-x,y,1/2-z
-x,-y,-z
x,-y,1/2+z
1/2+x,1/2+y,z
1/2-x,1/2+y,1/2-z
1/2-x,1/2-y,-z
1/2+x,1/2-y,1/2+z
loop_
_atom_site_type_symbol
_atom_site_label
_atom_site_fract_x
_atom_site_fract_y
_atom_site_fract_z
Si Si1 0.476907 0.830853 0.621398
Si Si2 0.695714 0.212474 0.340315
Si Si3 0.130774 0.518022 0.527452
Si Si4 0.622294 0.658394 0.634164
Si Si5 0.197695 0.426714 0.613817
Si Si6 0.688199 0.875282 0.117974
Si Si7 0.375929 0.674801 0.505985
O O1 0.500000 0.805065 0.750000
O O2 0.415493 0.793252 0.594028
O O3 0.389871 0.879099 0.781772
O O4 0.587717 0.855153 0.378426
O O5 0.693577 0.165283 0.466573
O O6 0.690244 0.270103 0.423162
O O7 0.801399 0.201849 0.069796
O O8 0.200345 0.465985 0.466484
O O9 0.153146 0.538777 0.323578
O O10 0.161404 0.566974 0.592101
O O11 0.000000 0.505288 0.750000
O O12 0.500000 0.657175 0.750000
O O13 0.687887 0.602437 0.516062
O O14 0.620316 0.668254 0.817917
O O15 0.803304 0.870500 0.034729
O O16 0.500000 0.677568 0.250000
#
# Coordination Sequence:
#
# PCOD9302568 Si02
#       7
#     8   8   8   8   8   8   8
#     4  11  22  38  63  98 139 173 217 273 332 396
#     4  11  23  45  67  97 132 176 223 274 330 386
#     4  12  23  41  68 102 133 173 213 278 337 397
#     4  11  25  48  68  94 137 177 218 275 329 394
#     4  11  25  41  67  98 135 169 222 271 340 392
#     4  12  22  41  65  96 136 174 218 276 335 390
#     4  12  27  42  69  99 131 176 228 271 326 399
#
# _framework density 21.303941999999999
#
# number of rings (size 3 to 8) (size 9 to 14) (size 15 to 20)
#    0.000    0.571    4.286    5.571    4.000    1.714 
#    0.000    1.429    0.000    0.000    0.000    0.000 
#    0.000    0.000    0.000    0.000    0.000    0.000 
#
# Total GULP energy -156862.260028 kJ/mol
# GULP energy per Si atom -5602.223572 kJ/mol
# Density = 2.125545 g / cm^3
# Si number density = 21.303942 Si / 1000 Ang^3
#
#
#
# Elastic Constant Matrix: (Units=GPa)
#
#
# Indices 1 2 3 4 5 6 
#
# 1 104.6897 8.8370 24.9187 0.0000 -10.7985 0.0000
# 2 8.8370 50.4886 -9.6884 0.0000 -7.1956 0.0000
# 3 24.9187 -9.6884 88.4154 0.0000 -6.2006 0.0000
# 4 0.0000 0.0000 0.0000 12.3839 0.0000 0.4557
# 5 -10.7985 -7.1956 -6.2006 0.0000 34.2904 0.0000
# 6 0.0000 0.0000 0.0000 0.4557 0.0000 23.5604
#
#
#
# Elastic Compliance Matrix: (Units=1/GPa)
#
#
# Indices 1 2 3 4 5 6 
#
# 1 0.010711 -0.002129 -0.003086 0.000000 0.002368 0.000000
# 2 -0.002129 0.021434 0.003259 0.000000 0.004416 0.000000
# 3 -0.003086 0.003259 0.012678 0.000000 0.002004 0.000000
# 4 0.000000 0.000000 0.000000 0.080807 0.000000 -0.001563
# 5 0.002368 0.004416 0.002004 0.000000 0.031198 0.000000
# 6 0.000000 0.000000 0.000000 -0.001563 0.000000 0.042474
#
#
# Mechanical properties :
#
#
# Convention : Reuss Voigt Hill
#
# Bulk Modulus (GPa) = 24.44471 32.41427 28.42949
# Shear Modulus (GPa) = 23.05733 28.68205 25.86969
#
# Velocity S-wave (km/s) = 3.29341 3.67321 3.48848
# Velocity P-wave (km/s) = 5.09521 5.76526 5.44056
#
# Compressibility (1/GPa) = 0.04090865
#
# Stress axis : x y z
#
# Youngs Moduli (GPa) = 93.36584 46.65513 78.87927
#
# Poissons Ratio (x) = 0.09934 0.24341
# Poissons Ratio (y) = 0.19881 -0.25703
# Poissons Ratio (z) = 0.28812 -0.15203
#
# Static dielectric constant tensor:
#      x y z
#    x 1.766650 0.000000 0.022640 
#    y 0.000000 1.762560 0.000000 
#    z 0.022640 0.000000 1.748100 
# 
# From -- ./inp_files/34166.got.cif
#   From: 2010.05.17/outbox.cif.g08.bks.cpg/sg15_18_cif.got.tgz:34166.got - 2010.06.03 18:47:42.
