data_PCOD9302021
_publ_section_title
;
Structure prediction by ZEFSAII (Michael W. Deem and Ramdas Pophale) SiO2 
 PCOD9302021
Probable space group: C 2/C
;
_chemical_formula_sum "Si O2"
_cell_formula_units_Z 56
_cell_length_a 9.513943
_cell_length_b 19.145374
_cell_length_c 16.366847
_cell_angle_alpha 90.000000
_cell_angle_beta 119.214345
_cell_angle_gamma 90.000000
_cell_volume 2601.980952
_symmetry_space_group_name_H-M "C 2/C"
_symmetry_group_IT_number 15
_symmetry_cell_setting 'monoclinic'
loop_
_space_group_symop_operation_xyz
x,y,z
-x,y,1/2-z
-x,-y,-z
x,-y,1/2+z
1/2+x,1/2+y,z
1/2-x,1/2+y,1/2-z
1/2-x,1/2-y,-z
1/2+x,1/2-y,1/2+z
loop_
_atom_site_type_symbol
_atom_site_label
_atom_site_fract_x
_atom_site_fract_y
_atom_site_fract_z
Si Si1 0.559694 0.438171 0.577790
Si Si2 0.811673 0.000871 0.224664
Si Si3 0.948980 0.709793 0.969050
Si Si4 0.233082 0.875773 0.895458
Si Si5 0.874757 0.858412 0.282811
Si Si6 0.364506 0.258304 0.763699
Si Si7 0.854435 0.154130 0.533018
O O1 0.500000 0.500000 0.500000
O O2 0.672336 0.465796 0.682178
O O3 0.407936 0.396783 0.578848
O O4 0.672451 0.386101 0.558127
O O5 0.722707 0.050440 0.135062
O O6 0.000000 0.997134 0.250000
O O7 0.760670 0.920729 0.220737
O O8 0.921204 0.749062 0.874110
O O9 0.797783 0.660462 0.950909
O O10 0.924550 0.770083 0.029870
O O11 0.117507 0.667773 0.024034
O O12 0.168287 0.828568 0.799601
O O13 0.788559 0.789790 0.285939
O O14 0.000000 0.835742 0.250000
O O15 0.995821 0.886789 0.385182
O O16 0.500000 0.220393 0.750000
#
# Coordination Sequence:
#
# PCOD9302021 Si02
#       7
#     8   8   8   8   8   8   8
#     4  11  22  40  68  96 128 176 230 279 339 417
#     4   9  20  40  66  92 126 176 230 275 338 415
#     4  11  25  41  66  99 138 176 227 286 348 407
#     4  11  24  44  67 100 135 179 229 293 341 405
#     4  11  21  41  67  90 131 181 221 275 345 421
#     4  12  25  41  64  98 134 171 226 286 342 404
#     4  11  22  41  64  98 130 175 226 274 346 419
#
# _framework density 21.522064
#
# number of rings (size 3 to 8) (size 9 to 14) (size 15 to 20)
#    0.000    1.143    4.286    3.000    2.000    1.143 
#    0.000    6.429    0.000    0.000    0.000    0.000 
#    0.000    0.000    0.000    0.000    0.000    0.000 
#
# Total GULP energy -155885.162301 kJ/mol
# GULP energy per Si atom -5567.327225 kJ/mol
# Density = 2.147308 g / cm^3
# Si number density = 21.522064 Si / 1000 Ang^3
#
#
#
# Elastic Constant Matrix: (Units=GPa)
#
#
# Indices 1 2 3 4 5 6 
#
# 1 76.0004 49.5964 43.4508 0.0000 -13.6806 0.0000
# 2 49.5964 94.4911 33.7084 0.0000 -11.5548 0.0000
# 3 43.4508 33.7084 103.7828 0.0000 -9.8409 0.0000
# 4 0.0000 0.0000 0.0000 39.1650 0.0000 -18.7360
# 5 -13.6806 -11.5548 -9.8409 0.0000 29.2843 0.0000
# 6 0.0000 0.0000 0.0000 -18.7360 0.0000 26.6697
#
#
#
# Elastic Compliance Matrix: (Units=1/GPa)
#
#
# Indices 1 2 3 4 5 6 
#
# 1 0.024140 -0.009726 -0.006448 0.000000 0.005273 0.000000
# 2 -0.009726 0.016252 -0.001063 0.000000 0.001512 0.000000
# 3 -0.006448 -0.001063 0.012762 0.000000 0.000857 0.000000
# 4 0.000000 0.000000 0.000000 0.038458 0.000000 0.027017
# 5 0.005273 0.001512 0.000857 0.000000 0.037496 0.000000
# 6 0.000000 0.000000 0.000000 0.027017 0.000000 0.056476
#
#
# Mechanical properties :
#
#
# Convention : Reuss Voigt Hill
#
# Bulk Modulus (GPa) = 53.53335 58.64283 56.08809
# Shear Modulus (GPa) = 22.09613 28.85839 25.47726
#
# Velocity S-wave (km/s) = 3.20765 3.66577 3.44433
# Velocity P-wave (km/s) = 6.21662 6.72488 6.47574
#
# Compressibility (1/GPa) = 0.01867994
#
# Stress axis : x y z
#
# Youngs Moduli (GPa) = 41.42464 61.53081 78.35950
#
# Poissons Ratio (x) = 0.59843 0.50526
# Poissons Ratio (y) = 0.40288 0.08333
# Poissons Ratio (z) = 0.26710 0.06543
#
# Static dielectric constant tensor:
#      x y z
#    x 1.548580 0.000000 -0.173690 
#    y 0.000000 1.858210 0.000000 
#    z -0.173690 0.000000 1.836600 
# 
# From -- ./inp_files/191059.got.cif
#   From: 2010.05.17/outbox.cif.g08.bks.cpg/sg15_96_cif.got.tgz:191059.got - 2010.06.03 18:47:42.
