data_PCOD9302488
_publ_section_title
;
Structure prediction by ZEFSAII (Michael W. Deem and Ramdas Pophale) SiO2 
 PCOD9302488
Probable space group: C 2/C
;
_chemical_formula_sum "Si O2"
_cell_formula_units_Z 48
_cell_length_a 27.760893
_cell_length_b 12.739127
_cell_length_c 22.427441
_cell_angle_alpha 90.000000
_cell_angle_beta 161.235197
_cell_angle_gamma 90.000000
_cell_volume 2551.422751
_symmetry_space_group_name_H-M "C 2/C"
_symmetry_group_IT_number 15
_symmetry_cell_setting 'monoclinic'
loop_
_space_group_symop_operation_xyz
x,y,z
-x,y,1/2-z
-x,-y,-z
x,-y,1/2+z
1/2+x,1/2+y,z
1/2-x,1/2+y,1/2-z
1/2-x,1/2-y,-z
1/2+x,1/2-y,1/2+z
loop_
_atom_site_type_symbol
_atom_site_label
_atom_site_fract_x
_atom_site_fract_y
_atom_site_fract_z
Si Si1 0.399835 0.841472 0.365741
Si Si2 0.087990 0.552664 0.189494
Si Si3 0.912672 0.147802 0.939824
Si Si4 0.111170 0.170878 0.934101
Si Si5 0.614952 0.922488 0.936763
Si Si6 0.941952 0.061532 0.841453
O O1 0.523965 0.881742 0.558540
O O2 0.248264 0.818268 0.224130
O O3 0.466829 0.739951 0.412451
O O4 0.371873 0.937986 0.288228
O O5 0.229939 0.612724 0.383318
O O6 0.958219 0.545307 0.086442
O O7 0.908000 0.118714 0.864337
O O8 0.964254 0.042352 0.033768
O O9 0.131433 0.295892 0.955443
O O10 0.000000 0.141250 0.750000
O O11 0.033817 0.136119 0.905043
O O12 0.500000 0.952082 0.750000
O O13 0.781461 0.966577 0.125291
#
# Coordination Sequence:
#
# PCOD9302488 Si02
#       6
#     8   8   8   8   8   8
#     4  11  24  39  63  89 118 156 196 244 295 346
#     4  11  23  39  59  90 124 153 193 243 296 349
#     4  11  24  39  63  89 118 156 196 244 295 346
#     4  11  22  39  61  87 121 159 197 240 292 351
#     4  11  22  37  61  91 119 157 195 238 294 355
#     4  11  23  39  59  90 124 153 193 243 296 349
#
# _framework density 18.813033000000001
#
# number of rings (size 3 to 8) (size 9 to 14) (size 15 to 20)
#    0.000    1.000    3.333    4.000    4.667    2.667 
#    0.000    0.000    0.000    6.000    0.000    0.000 
#    0.000    0.000    0.000    0.000    0.000    0.000 
#
# Total GULP energy -134237.439030 kJ/mol
# GULP energy per Si atom -5593.226626 kJ/mol
# Density = 1.877021 g / cm^3
# Si number density = 18.813033 Si / 1000 Ang^3
#
#
#
# Elastic Constant Matrix: (Units=GPa)
#
#
# Indices 1 2 3 4 5 6 
#
# 1 27.5930 17.1892 -0.1704 0.0000 7.6729 0.0000
# 2 17.1892 50.4306 12.2879 0.0000 2.3914 0.0000
# 3 -0.1704 12.2879 77.3887 0.0000 9.8017 0.0000
# 4 0.0000 0.0000 0.0000 14.6159 0.0000 14.1073
# 5 7.6729 2.3914 9.8017 0.0000 37.9273 0.0000
# 6 0.0000 0.0000 0.0000 14.1073 0.0000 19.4307
#
#
#
# Elastic Compliance Matrix: (Units=1/GPa)
#
#
# Indices 1 2 3 4 5 6 
#
# 1 0.050034 -0.017595 0.004182 0.000000 -0.010094 0.000000
# 2 -0.017595 0.026822 -0.004688 0.000000 0.003080 0.000000
# 3 0.004182 -0.004688 0.014210 0.000000 -0.004223 0.000000
# 4 0.000000 0.000000 0.000000 0.228651 0.000000 -0.166008
# 5 -0.010094 0.003080 -0.004223 0.000000 0.029305 0.000000
# 6 0.000000 0.000000 0.000000 -0.166008 0.000000 0.171993
#
#
# Mechanical properties :
#
#
# Convention : Reuss Voigt Hill
#
# Bulk Modulus (GPa) = 18.22589 23.78062 21.00326
# Shear Modulus (GPa) = 8.68802 22.80181 15.74491
#
# Velocity S-wave (km/s) = 2.15130 3.48519 2.89609
# Velocity P-wave (km/s) = 3.98494 5.37246 4.72986
#
# Compressibility (1/GPa) = 0.05486699
#
# Stress axis : x y z
#
# Youngs Moduli (GPa) = 19.98632 37.28220 70.37211
#
# Poissons Ratio (x) = 0.65596 -0.29432
# Poissons Ratio (y) = 0.35165 0.32988
# Poissons Ratio (z) = -0.08359 0.17477
#
# Static dielectric constant tensor:
#      x y z
#    x 1.640950 0.000000 -0.002470 
#    y 0.000000 1.627340 0.000000 
#    z -0.002470 0.000000 1.661710 
# 
# From -- ./inp_files/252621.got.cif
#   From: 2010.05.17/outbox.cif.g08.bks.cpg/sg15_127_cif.got.tgz:252621.got - 2010.06.03 18:47:42.
