data_PCOD9302761
_publ_section_title
;
Structure prediction by ZEFSAII (Michael W. Deem and Ramdas Pophale) SiO2 
 PCOD9302761
Probable space group: C 2/C
;
_chemical_formula_sum "Si O2"
_cell_formula_units_Z 52
_cell_length_a 15.328821
_cell_length_b 17.379131
_cell_length_c 11.987144
_cell_angle_alpha 90.000000
_cell_angle_beta 56.761121
_cell_angle_gamma 90.000000
_cell_volume 2670.931159
_symmetry_space_group_name_H-M "C 2/C"
_symmetry_group_IT_number 15
_symmetry_cell_setting 'monoclinic'
loop_
_space_group_symop_operation_xyz
x,y,z
-x,y,1/2-z
-x,-y,-z
x,-y,1/2+z
1/2+x,1/2+y,z
1/2-x,1/2+y,1/2-z
1/2-x,1/2-y,-z
1/2+x,1/2-y,1/2+z
loop_
_atom_site_type_symbol
_atom_site_label
_atom_site_fract_x
_atom_site_fract_y
_atom_site_fract_z
Si Si1 0.220817 0.641664 0.799862
Si Si2 0.566767 0.702488 0.931433
Si Si3 0.296817 0.179669 0.038939
Si Si4 0.000000 0.275945 0.750000
Si Si5 0.794594 0.380177 0.929377
Si Si6 0.377058 0.047961 0.817592
Si Si7 0.851351 0.817607 0.660880
O O1 0.332631 0.649771 0.660655
O O2 0.151566 0.578851 0.785332
O O3 0.166660 0.725239 0.825462
O O4 0.235326 0.626088 0.920104
O O5 0.609752 0.781171 0.956583
O O6 0.518706 0.725038 0.846048
O O7 0.474265 0.667599 0.069761
O O8 0.209698 0.152367 0.187988
O O9 0.250000 0.250000 0.000000
O O10 0.335711 0.112809 0.931766
O O11 0.897669 0.328143 0.838640
O O12 0.822561 0.467132 0.878890
O O13 0.706058 0.349076 0.908663
O O14 0.500000 0.039449 0.750000
#
# Coordination Sequence:
#
# PCOD9302761 Si02
#       7
#     8   8   8   4   8   8   8
#     4  11  23  43  64  96 128 165 224 263 313 389
#     4  11  22  39  71  94 125 169 226 269 317 368
#     4  11  23  42  64  95 133 167 215 261 313 388
#     4  12  20  38  66 102 126 162 210 274 330 374
#     4  12  25  40  66  99 131 164 209 271 331 381
#     4  12  27  42  64  97 135 169 205 267 333 388
#     4  11  22  42  68  96 125 169 220 268 309 381
#
# _framework density 19.468865999999998
#
# number of rings (size 3 to 8) (size 9 to 14) (size 15 to 20)
#    0.000    0.615    8.462    2.308    2.154    0.615 
#    0.000    0.769    3.385    0.000    0.000    0.000 
#    0.000    0.000    0.000    0.000    0.000    0.000 
#
# Total GULP energy -145412.655259 kJ/mol
# GULP energy per Si atom -5592.794433 kJ/mol
# Density = 1.942455 g / cm^3
# Si number density = 19.468866 Si / 1000 Ang^3
#
#
#
# Elastic Constant Matrix: (Units=GPa)
#
#
# Indices 1 2 3 4 5 6 
#
# 1 62.2935 1.5965 28.3730 0.0000 -18.2269 0.0000
# 2 1.5965 40.5336 -8.0270 0.0000 -7.0640 0.0000
# 3 28.3730 -8.0270 97.7902 0.0000 -8.9167 0.0000
# 4 0.0000 0.0000 0.0000 12.6377 0.0000 2.2436
# 5 -18.2269 -7.0640 -8.9167 0.0000 42.9699 0.0000
# 6 0.0000 0.0000 0.0000 2.2436 0.0000 18.3653
#
#
#
# Elastic Compliance Matrix: (Units=1/GPa)
#
#
# Indices 1 2 3 4 5 6 
#
# 1 0.020733 -0.000557 -0.005369 0.000000 0.007589 0.000000
# 2 -0.000557 0.026034 0.002719 0.000000 0.004608 0.000000
# 3 -0.005369 0.002719 0.012068 0.000000 0.000674 0.000000
# 4 0.000000 0.000000 0.000000 0.080883 0.000000 -0.009881
# 5 0.007589 0.004608 0.000674 0.000000 0.027388 0.000000
# 6 0.000000 0.000000 0.000000 -0.009881 0.000000 0.055658
#
#
# Mechanical properties :
#
#
# Convention : Reuss Voigt Hill
#
# Bulk Modulus (GPa) = 19.07665 27.16693 23.12179
# Shear Modulus (GPa) = 20.27128 26.70622 23.48875
#
# Velocity S-wave (km/s) = 3.23029 3.70772 3.47721
# Velocity P-wave (km/s) = 4.87163 5.68453 5.29371
#
# Compressibility (1/GPa) = 0.05242012
#
# Stress axis : x y z
#
# Youngs Moduli (GPa) = 48.23128 38.41099 82.86051
#
# Poissons Ratio (x) = 0.02141 0.44491
# Poissons Ratio (y) = 0.02688 -0.22528
# Poissons Ratio (z) = 0.25897 -0.10443
#
# Static dielectric constant tensor:
#      x y z
#    x 1.684820 0.000000 0.003940 
#    y 0.000000 1.642490 0.000000 
#    z 0.003940 0.000000 1.711430 
# 
# From -- ./inp_files/98183.got.cif
#   From: 2010.05.17/outbox.cif.g08.bks.cpg/sg15_50_cif.got.tgz:98183.got - 2010.06.03 18:47:42.
