data_PCOD9302605
_publ_section_title
;
Structure prediction by ZEFSAII (Michael W. Deem and Ramdas Pophale) SiO2 
 PCOD9302605
Probable space group: C 2/C
;
_chemical_formula_sum "Si O2"
_cell_formula_units_Z 36
_cell_length_a 13.631353
_cell_length_b 19.988432
_cell_length_c 10.594213
_cell_angle_alpha 90.000000
_cell_angle_beta 144.133227
_cell_angle_gamma 90.000000
_cell_volume 1691.265313
_symmetry_space_group_name_H-M "C 2/C"
_symmetry_group_IT_number 15
_symmetry_cell_setting 'monoclinic'
loop_
_space_group_symop_operation_xyz
x,y,z
-x,y,1/2-z
-x,-y,-z
x,-y,1/2+z
1/2+x,1/2+y,z
1/2-x,1/2+y,1/2-z
1/2-x,1/2-y,-z
1/2+x,1/2-y,1/2+z
loop_
_atom_site_type_symbol
_atom_site_label
_atom_site_fract_x
_atom_site_fract_y
_atom_site_fract_z
Si Si1 0.391470 0.815521 0.375020
Si Si2 0.419664 0.952790 0.528014
Si Si3 0.155777 0.953965 0.822436
Si Si4 0.503356 0.678268 0.407353
Si Si5 0.500000 0.114655 0.750000
O O1 0.432938 0.873876 0.516756
O O2 0.424540 0.736534 0.411452
O O3 0.503585 0.838896 0.374447
O O4 0.197081 0.825023 0.142599
O O5 0.500000 0.962301 0.750000
O O6 0.500000 0.000000 0.500000
O O7 0.229721 0.980613 0.333525
O O8 0.000000 0.969765 0.750000
O O9 0.090585 0.892140 0.671008
O O10 0.322397 0.924169 0.065838
O O11 0.500000 0.690457 0.250000
#
# Coordination Sequence:
#
# PCOD9302605 Si02
#       5
#     8   8   8   8   4
#     4  12  23  40  68 104 148 189 243 296 370 419
#     4  12  27  48  75 106 149 195 240 303 371 436
#     4  11  22  41  71 107 140 184 247 296 361 422
#     4  11  22  38  69 109 142 186 248 306 350 433
#     4  12  18  40  62 106 138 180 224 310 344 416
#
# _framework density 21.285837999999998
#
# number of rings (size 3 to 8) (size 9 to 14) (size 15 to 20)
#    0.000    0.444    8.889    2.000    0.000    0.889 
#    0.000    1.111    0.000    0.000    0.000    0.000 
#    0.000    0.000    0.000    0.000    0.000    0.000 
#
# Total GULP energy -100293.685029 kJ/mol
# GULP energy per Si atom -5571.871391 kJ/mol
# Density = 2.123739 g / cm^3
# Si number density = 21.285838 Si / 1000 Ang^3
#
#
#
# Elastic Constant Matrix: (Units=GPa)
#
#
# Indices 1 2 3 4 5 6 
#
# 1 85.6440 44.8150 44.3703 0.0000 14.4321 0.0000
# 2 44.8150 117.5118 20.8148 0.0000 -5.2778 0.0000
# 3 44.3703 20.8148 83.3521 0.0000 8.0044 0.0000
# 4 0.0000 0.0000 0.0000 -5.6485 0.0000 33.0237
# 5 14.4321 -5.2778 8.0044 0.0000 35.2130 0.0000
# 6 0.0000 0.0000 0.0000 33.0237 0.0000 -14.1834
#
#
#
# Elastic Compliance Matrix: (Units=1/GPa)
#
#
# Indices 1 2 3 4 5 6 
#
# 1 0.021098 -0.006834 -0.008787 0.000000 -0.007674 0.000000
# 2 -0.006834 0.011241 0.000409 0.000000 0.004393 0.000000
# 3 -0.008787 0.000409 0.016583 0.000000 -0.000107 0.000000
# 4 0.000000 0.000000 0.000000 0.014037 0.000000 0.032682
# 5 -0.007674 0.004393 -0.000107 0.000000 0.032226 0.000000
# 6 0.000000 0.000000 0.000000 0.032682 0.000000 0.005590
#
#
# Mechanical properties :
#
#
# Convention : Reuss Voigt Hill
#
# Bulk Modulus (GPa) = 54.06276 56.27866 55.17071
# Shear Modulus (GPa) = 36.39897 14.84341 25.62119
#
# Velocity S-wave (km/s) = 4.13971 2.64358 3.47316
# Velocity P-wave (km/s) = 6.95005 5.98456 6.48530
#
# Compressibility (1/GPa) = 0.01849702
#
# Stress axis : x y z
#
# Youngs Moduli (GPa) = 47.39745 88.96019 60.30213
#
# Poissons Ratio (x) = 0.60798 0.52990
# Poissons Ratio (y) = 0.32393 -0.02467
# Poissons Ratio (z) = 0.41650 -0.03639
#
# Static dielectric constant tensor:
#      x y z
#    x 1.804610 0.000000 -0.031930 
#    y 0.000000 1.891800 0.000000 
#    z -0.031930 0.000000 1.778620 
# 
# From -- ./inp_files/99934.got.cif
#   From: 2010.05.17/outbox.cif.g08.bks.cpg/sg15_50_cif.got.tgz:99934.got - 2010.06.03 18:47:42.
