data_PCOD9302845
_publ_section_title
;
Structure prediction by ZEFSAII (Michael W. Deem and Ramdas Pophale) SiO2 
 PCOD9302845
Probable space group: C 2/C
;
_chemical_formula_sum "Si O2"
_cell_formula_units_Z 60
_cell_length_a 12.483156
_cell_length_b 13.571882
_cell_length_c 15.426281
_cell_angle_alpha 90.000000
_cell_angle_beta 80.163922
_cell_angle_gamma 90.000000
_cell_volume 2575.101936
_symmetry_space_group_name_H-M "C 2/C"
_symmetry_group_IT_number 15
_symmetry_cell_setting 'monoclinic'
loop_
_space_group_symop_operation_xyz
x,y,z
-x,y,1/2-z
-x,-y,-z
x,-y,1/2+z
1/2+x,1/2+y,z
1/2-x,1/2+y,1/2-z
1/2-x,1/2-y,-z
1/2+x,1/2-y,1/2+z
loop_
_atom_site_type_symbol
_atom_site_label
_atom_site_fract_x
_atom_site_fract_y
_atom_site_fract_z
Si Si1 0.959262 0.896365 0.970700
Si Si2 0.718899 0.360995 0.625918
Si Si3 0.965311 0.303117 0.581039
Si Si4 0.173257 0.623436 0.994175
Si Si5 0.671434 0.679488 0.386873
Si Si6 0.130730 0.688422 0.730100
Si Si7 0.500000 0.689732 0.750000
Si Si8 0.216774 0.943746 0.201900
O O1 0.840909 0.906095 0.948154
O O2 0.054853 0.870496 0.889902
O O3 0.955887 0.801557 0.032431
O O4 0.000000 0.000000 0.000000
O O5 0.845964 0.347594 0.602508
O O6 0.664583 0.253276 0.643620
O O7 0.693109 0.440089 0.705012
O O8 0.045935 0.387465 0.533507
O O9 0.004702 0.262929 0.668088
O O10 0.162300 0.737177 0.963231
O O11 0.229008 0.575709 0.901448
O O12 0.240555 0.612514 0.074889
O O13 0.686081 0.744434 0.299111
O O14 0.194400 0.587542 0.738535
O O15 0.000000 0.679446 0.750000
O O16 0.392768 0.619988 0.768859
#
# Coordination Sequence:
#
# PCOD9302845 Si02
#       8
#     8   8   8   8   8   8   4   8
#     4  11  22  40  66  98 132 174 232 287 336 399
#     4  12  25  43  67 103 138 180 234 286 347 409
#     4  11  24  41  69  99 141 183 227 286 344 412
#     4   9  19  39  65  93 129 178 221 269 336 413
#     4   9  17  34  62  91 120 171 219 265 333 394
#     4  11  22  43  65  93 136 179 218 283 348 411
#     4  12  22  42  70 104 136 176 232 292 340 416
#     4  11  25  44  68  98 135 178 232 282 347 416
#
# _framework density 23.300049000000001
#
# number of rings (size 3 to 8) (size 9 to 14) (size 15 to 20)
#    0.000    1.333    2.667    5.200    0.933    1.600 
#    1.200    0.000    0.000    0.000    0.000    0.000 
#    0.000    0.000    0.000    0.000    0.000    0.000 
#
# Total GULP energy -167181.324372 kJ/mol
# GULP energy per Si atom -5572.710812 kJ/mol
# Density = 2.324702 g / cm^3
# Si number density = 23.300049 Si / 1000 Ang^3
#
#
#
# Elastic Constant Matrix: (Units=GPa)
#
#
# Indices 1 2 3 4 5 6 
#
# 1 99.5706 2.7530 13.4244 0.0000 -3.3742 0.0000
# 2 2.7530 52.2219 13.3232 0.0000 8.7819 0.0000
# 3 13.4244 13.3232 33.9510 0.0000 -2.4701 0.0000
# 4 0.0000 0.0000 0.0000 -10.0007 0.0000 -28.8812
# 5 -3.3742 8.7819 -2.4701 0.0000 35.6220 0.0000
# 6 0.0000 0.0000 0.0000 -28.8812 0.0000 3.2014
#
#
#
# Elastic Compliance Matrix: (Units=1/GPa)
#
#
# Indices 1 2 3 4 5 6 
#
# 1 0.010636 0.000445 -0.004337 0.000000 0.000597 0.000000
# 2 0.000445 0.022587 -0.009490 0.000000 -0.006184 0.000000
# 3 -0.004337 -0.009490 0.035211 0.000000 0.004370 0.000000
# 4 0.000000 0.000000 0.000000 -0.003696 0.000000 -0.033345
# 5 0.000597 -0.006184 0.004370 0.000000 0.029957 0.000000
# 6 0.000000 0.000000 0.000000 -0.033345 0.000000 0.011546
#
#
# Mechanical properties :
#
#
# Convention : Reuss Voigt Hill
#
# Bulk Modulus (GPa) = 23.99735 27.19387 25.59561
# Shear Modulus (GPa) = 34.03854 16.18074 25.10964
#
# Velocity S-wave (km/s) = 3.82629 2.63810 3.28634
# Velocity P-wave (km/s) = 5.46281 4.57995 5.04075
#
# Compressibility (1/GPa) = 0.04167127
#
# Stress axis : x y z
#
# Youngs Moduli (GPa) = 94.02267 44.27410 28.40030
#
# Poissons Ratio (x) = -0.01972 0.12317
# Poissons Ratio (y) = -0.04187 0.26951
# Poissons Ratio (z) = 0.40776 0.42014
#
# Static dielectric constant tensor:
#      x y z
#    x 1.947330 0.000000 -0.022610 
#    y 0.000000 1.912730 0.000000 
#    z -0.022610 0.000000 2.048510 
# 
# From -- ./inp_files/197818.got.cif
#   From: 2010.05.17/outbox.cif.g08.bks.cpg/sg15_99_cif.got.tgz:197818.got - 2010.06.03 18:47:42.
