data_PCOD9302210
_publ_section_title
;
Structure prediction by ZEFSAII (Michael W. Deem and Ramdas Pophale) SiO2 
 PCOD9302210
Probable space group: C 2/C
;
_chemical_formula_sum "Si O2"
_cell_formula_units_Z 60
_cell_length_a 7.851419
_cell_length_b 21.963101
_cell_length_c 15.658304
_cell_angle_alpha 90.000000
_cell_angle_beta 72.919264
_cell_angle_gamma 90.000000
_cell_volume 2581.043240
_symmetry_space_group_name_H-M "C 2/C"
_symmetry_group_IT_number 15
_symmetry_cell_setting 'monoclinic'
loop_
_space_group_symop_operation_xyz
x,y,z
-x,y,1/2-z
-x,-y,-z
x,-y,1/2+z
1/2+x,1/2+y,z
1/2-x,1/2+y,1/2-z
1/2-x,1/2-y,-z
1/2+x,1/2-y,1/2+z
loop_
_atom_site_type_symbol
_atom_site_label
_atom_site_fract_x
_atom_site_fract_y
_atom_site_fract_z
Si Si1 0.387734 0.503382 0.346671
Si Si2 0.725658 0.629009 0.154296
Si Si3 0.226280 0.914583 0.005013
Si Si4 0.525669 0.997937 0.145066
Si Si5 0.268427 0.293496 0.578625
Si Si6 0.435879 0.238859 0.846252
Si Si7 0.000000 0.655121 0.250000
Si Si8 0.933406 0.624965 0.948935
O O1 0.500000 0.478965 0.250000
O O2 0.420724 0.576339 0.342428
O O3 0.405816 0.461035 0.427223
O O4 0.174517 0.501541 0.362733
O O5 0.664455 0.699218 0.164032
O O6 0.839802 0.620071 0.224671
O O7 0.846812 0.622230 0.053781
O O8 0.149797 0.857499 0.965210
O O9 0.348778 0.952841 0.920491
O O10 0.356224 0.881967 0.056894
O O11 0.500000 0.001438 0.250000
O O12 0.603674 0.932919 0.104616
O O13 0.250000 0.250000 0.500000
O O14 0.396630 0.261743 0.625732
O O15 0.089475 0.307838 0.658734
O O16 0.500000 0.207820 0.750000
O O17 0.358658 0.185899 0.916346
#
# Coordination Sequence:
#
# PCOD9302210 Si02
#       8
#     8   8   8   8   8   8   4   8
#     4  11  24  42  66 101 143 173 220 294 352 399
#     4  12  23  43  68 103 138 180 233 288 339 413
#     4  11  22  44  73  96 134 185 234 276 338 427
#     4  11  23  42  71  99 130 184 236 277 332 417
#     4  12  25  47  69 100 138 184 231 284 346 415
#     4  12  25  41  67 103 141 174 227 294 346 397
#     4  12  24  42  76 102 126 188 242 274 342 422
#     4  11  21  43  68  96 136 181 230 276 339 412
#
# _framework density 23.246414999999999
#
# number of rings (size 3 to 8) (size 9 to 14) (size 15 to 20)
#    0.000    0.533    6.667    2.000    3.733    0.000 
#    3.600    1.333    0.000    0.000    0.000    0.000 
#    0.000    0.000    0.000    0.000    0.000    0.000 
#
# Total GULP energy -167566.005048 kJ/mol
# GULP energy per Si atom -5585.533502 kJ/mol
# Density = 2.319350 g / cm^3
# Si number density = 23.246415 Si / 1000 Ang^3
#
#
#
# Elastic Constant Matrix: (Units=GPa)
#
#
# Indices 1 2 3 4 5 6 
#
# 1 33.6028 11.0784 20.6690 0.0000 9.0283 0.0000
# 2 11.0784 127.1969 60.5763 0.0000 -2.1585 0.0000
# 3 20.6690 60.5763 170.7271 0.0000 1.9920 0.0000
# 4 0.0000 0.0000 0.0000 55.7871 0.0000 43.9116
# 5 9.0283 -2.1585 1.9920 0.0000 35.8431 0.0000
# 6 0.0000 0.0000 0.0000 43.9116 0.0000 79.7026
#
#
#
# Elastic Compliance Matrix: (Units=1/GPa)
#
#
# Indices 1 2 3 4 5 6 
#
# 1 0.034774 -0.001466 -0.003589 0.000000 -0.008648 0.000000
# 2 -0.001466 0.009543 -0.003221 0.000000 0.001123 0.000000
# 3 -0.003589 -0.003221 0.007431 0.000000 0.000297 0.000000
# 4 0.000000 0.000000 0.000000 0.031651 0.000000 -0.017438
# 5 -0.008648 0.001123 0.000297 0.000000 0.030129 0.000000
# 6 0.000000 0.000000 0.000000 -0.017438 0.000000 0.022154
#
#
# Mechanical properties :
#
#
# Convention : Reuss Voigt Hill
#
# Bulk Modulus (GPa) = 28.41325 57.35267 42.88296
# Shear Modulus (GPa) = 30.49399 50.21342 40.35370
#
# Velocity S-wave (km/s) = 3.62577 4.65268 4.17095
# Velocity P-wave (km/s) = 5.45687 7.32041 6.45623
#
# Compressibility (1/GPa) = 0.03519485
#
# Stress axis : x y z
#
# Youngs Moduli (GPa) = 28.75731 104.79096 134.56541
#
# Poissons Ratio (x) = 0.15366 0.48291
# Poissons Ratio (y) = 0.04217 0.43350
# Poissons Ratio (z) = 0.10320 0.33758
#
# Static dielectric constant tensor:
#      x y z
#    x 1.952490 0.000000 -0.033870 
#    y 0.000000 1.963660 0.000000 
#    z -0.033870 0.000000 1.904830 
# 
# From -- ./inp_files/137794.got.cif
#   From: 2010.05.17/outbox.cif.g08.bks.cpg/sg15_69_cif.got.tgz:137794.got - 2010.06.03 18:47:42.
