data_PCOD9302852
_publ_section_title
;
Structure prediction by ZEFSAII (Michael W. Deem and Ramdas Pophale) SiO2 
 PCOD9302852
Probable space group: C 2/C
;
_chemical_formula_sum "Si O2"
_cell_formula_units_Z 56
_cell_length_a 28.062792
_cell_length_b 11.647550
_cell_length_c 22.253961
_cell_angle_alpha 90.000000
_cell_angle_beta 21.346404
_cell_angle_gamma 90.000000
_cell_volume 2647.774262
_symmetry_space_group_name_H-M "C 2/C"
_symmetry_group_IT_number 15
_symmetry_cell_setting 'monoclinic'
loop_
_space_group_symop_operation_xyz
x,y,z
-x,y,1/2-z
-x,-y,-z
x,-y,1/2+z
1/2+x,1/2+y,z
1/2-x,1/2+y,1/2-z
1/2-x,1/2-y,-z
1/2+x,1/2-y,1/2+z
loop_
_atom_site_type_symbol
_atom_site_label
_atom_site_fract_x
_atom_site_fract_y
_atom_site_fract_z
Si Si1 0.183893 0.959281 0.358598
Si Si2 0.829275 0.342850 0.754415
Si Si3 0.245887 0.911322 0.154981
Si Si4 0.919586 0.302665 0.120664
Si Si5 0.750000 0.750000 0.000000
Si Si6 0.500000 0.161775 0.750000
Si Si7 0.595695 0.599506 0.273368
Si Si8 0.530094 0.983155 0.333596
O O1 0.163480 0.943937 0.311585
O O2 0.288233 0.859817 0.250721
O O3 0.054339 0.939646 0.549141
O O4 0.249193 0.079582 0.300995
O O5 0.759879 0.223667 0.849952
O O6 0.860463 0.425504 0.774285
O O7 0.968112 0.308799 0.561209
O O8 0.185279 0.987618 0.173633
O O9 0.392354 0.953217 0.994424
O O10 0.892702 0.180179 0.181237
O O11 0.968190 0.385716 0.117364
O O12 0.636581 0.772393 0.078417
O O13 0.641458 0.675856 0.164231
O O14 0.453375 0.081985 0.748738
#
# Coordination Sequence:
#
# PCOD9302852 Si02
#       8
#     8   8   8   8   4   4   8   8
#     4  11  24  39  65 102 146 181 226 288 360 432
#     4  11  24  41  67 101 144 184 227 290 353 434
#     4  12  24  39  67 101 142 181 231 282 355 427
#     4  11  22  40  67 101 140 182 225 288 361 420
#     4  12  28  46  74 100 138 182 244 298 352 422
#     4  12  26  48  74  96 132 184 238 298 352 424
#     4  12  27  40  66 104 135 181 234 294 350 420
#     4  11  23  45  67  96 133 185 231 281 361 422
#
# _framework density 21.149839
#
# number of rings (size 3 to 8) (size 9 to 14) (size 15 to 20)
#    0.000    0.571    7.143    1.286    8.000    0.000 
#    0.000    0.714    0.000    0.000    0.000    0.000 
#    0.000    0.000    0.000    0.000    0.000    0.000 
#
# Total GULP energy -156061.008965 kJ/mol
# GULP energy per Si atom -5573.607463 kJ/mol
# Density = 2.110170 g / cm^3
# Si number density = 21.149839 Si / 1000 Ang^3
#
#
#
# Elastic Constant Matrix: (Units=GPa)
#
#
# Indices 1 2 3 4 5 6 
#
# 1 50.4713 5.0913 -10.5964 0.0000 3.5154 0.0000
# 2 5.0913 95.8033 -4.6828 0.0000 -11.2621 0.0000
# 3 -10.5964 -4.6828 47.2876 0.0000 -10.4004 0.0000
# 4 0.0000 0.0000 0.0000 -2.3514 0.0000 1.7536
# 5 3.5154 -11.2621 -10.4004 0.0000 23.9477 0.0000
# 6 0.0000 0.0000 0.0000 1.7536 0.0000 4.1824
#
#
#
# Elastic Compliance Matrix: (Units=1/GPa)
#
#
# Indices 1 2 3 4 5 6 
#
# 1 0.020929 -0.001117 0.004188 0.000000 -0.001779 0.000000
# 2 -0.001117 0.011376 0.002310 0.000000 0.006517 0.000000
# 3 0.004188 0.002310 0.024786 0.000000 0.011236 0.000000
# 4 0.000000 0.000000 0.000000 -0.323970 0.000000 0.135839
# 5 -0.001779 0.006517 0.011236 0.000000 0.049963 0.000000
# 6 0.000000 0.000000 0.000000 0.135839 0.000000 0.182143
#
#
# Mechanical properties :
#
#
# Convention : Reuss Voigt Hill
#
# Bulk Modulus (GPa) = 14.73758 19.24291 16.99024
# Shear Modulus (GPa) = -218.18015 18.73907 -99.72054
#
# Velocity S-wave (km/s) = -10.16775 2.97983 -6.87400
# Velocity P-wave (km/s) = 11.43945 4.57791 7.41295
#
# Compressibility (1/GPa) = 0.06785375
#
# Stress axis : x y z
#
# Youngs Moduli (GPa) = 47.78044 87.90125 40.34593
#
# Poissons Ratio (x) = 0.09815 -0.16897
# Poissons Ratio (y) = 0.05335 -0.09319
# Poissons Ratio (z) = -0.20011 -0.20303
#
# Static dielectric constant tensor:
#      x y z
#    x 1.819540 0.000000 0.051420 
#    y 0.000000 1.821550 0.000000 
#    z 0.051420 0.000000 1.922900 
# 
# From -- ./inp_files/284619.got.cif
#   From: 2010.05.17/outbox.cif.g08.bks.cpg/sg15_143_cif.got.tgz:284619.got - 2010.06.03 18:47:42.
