data_PCOD9302754
_publ_section_title
;
Structure prediction by ZEFSAII (Michael W. Deem and Ramdas Pophale) SiO2 
 PCOD9302754
Probable space group: C 2/C
;
_chemical_formula_sum "Si O2"
_cell_formula_units_Z 40
_cell_length_a 10.969669
_cell_length_b 18.056715
_cell_length_c 11.861003
_cell_angle_alpha 90.000000
_cell_angle_beta 138.682201
_cell_angle_gamma 90.000000
_cell_volume 1551.144427
_symmetry_space_group_name_H-M "C 2/C"
_symmetry_group_IT_number 15
_symmetry_cell_setting 'monoclinic'
loop_
_space_group_symop_operation_xyz
x,y,z
-x,y,1/2-z
-x,-y,-z
x,-y,1/2+z
1/2+x,1/2+y,z
1/2-x,1/2+y,1/2-z
1/2-x,1/2-y,-z
1/2+x,1/2-y,1/2+z
loop_
_atom_site_type_symbol
_atom_site_label
_atom_site_fract_x
_atom_site_fract_y
_atom_site_fract_z
Si Si1 0.158056 0.234231 0.110794
Si Si2 0.674289 0.135015 0.454908
Si Si3 0.204821 0.984007 0.847131
Si Si4 0.701073 0.295734 0.076326
Si Si5 0.081232 0.439288 0.195360
O O1 0.186609 0.181973 0.024295
O O2 0.306962 0.249270 0.312541
O O3 0.140850 0.316056 0.043511
O O4 0.012556 0.188325 0.085164
O O5 0.500000 0.132137 0.250000
O O6 0.758395 0.058307 0.554188
O O7 0.258899 0.014786 0.758769
O O8 0.000000 0.959003 0.750000
O O9 0.386645 0.931440 0.991941
O O10 0.829342 0.364221 0.195008
O O11 0.750000 0.250000 0.000000
O O12 0.000000 0.477972 0.250000
#
# Coordination Sequence:
#
# PCOD9302754 Si02
#       5
#     8   8   8   8   8
#     4  11  23  40  67 110 144 193 251 313 394 450
#     4  11  22  39  70 106 151 187 249 326 384 452
#     4  11  25  47  77 108 150 207 262 324 382 462
#     4  12  24  44  71 104 153 201 246 315 391 469
#     4  11  25  47  72 107 156 200 263 315 383 476
#
# _framework density 25.787412
#
# number of rings (size 3 to 8) (size 9 to 14) (size 15 to 20)
#    0.000    0.800    4.000    3.600    0.000    0.800 
#    0.000    8.000    0.000    0.000    0.000    0.000 
#    0.000    0.000    0.000    0.000    0.000    0.000 
#
# Total GULP energy -111422.442869 kJ/mol
# GULP energy per Si atom -5571.122143 kJ/mol
# Density = 2.572872 g / cm^3
# Si number density = 25.787412 Si / 1000 Ang^3
#
#
#
# Elastic Constant Matrix: (Units=GPa)
#
#
# Indices 1 2 3 4 5 6 
#
# 1 160.8936 29.5855 20.7214 0.0000 8.5810 0.0000
# 2 29.5855 91.9081 19.1571 0.0000 1.1490 0.0000
# 3 20.7214 19.1571 41.7369 0.0000 -11.9336 0.0000
# 4 0.0000 0.0000 0.0000 46.5697 0.0000 -15.4958
# 5 8.5810 1.1490 -11.9336 0.0000 64.3437 0.0000
# 6 0.0000 0.0000 0.0000 -15.4958 0.0000 20.6952
#
#
#
# Elastic Compliance Matrix: (Units=1/GPa)
#
#
# Indices 1 2 3 4 5 6 
#
# 1 0.006993 -0.001570 -0.003178 0.000000 -0.001494 0.000000
# 2 -0.001570 0.012489 -0.005235 0.000000 -0.000984 0.000000
# 3 -0.003178 -0.005235 0.029661 0.000000 0.006019 0.000000
# 4 0.000000 0.000000 0.000000 0.028598 0.000000 0.021413
# 5 -0.001494 -0.000984 0.006019 0.000000 0.016875 0.000000
# 6 0.000000 0.000000 0.000000 0.021413 0.000000 0.064354
#
#
# Mechanical properties :
#
#
# Convention : Reuss Voigt Hill
#
# Bulk Modulus (GPa) = 34.27303 48.16296 41.21800
# Shear Modulus (GPa) = 26.50245 41.32668 33.91456
#
# Velocity S-wave (km/s) = 3.20930 4.00758 3.63045
# Velocity P-wave (km/s) = 5.20118 6.33496 5.79586
#
# Compressibility (1/GPa) = 0.02917746
#
# Stress axis : x y z
#
# Youngs Moduli (GPa) = 143.00011 80.06930 33.71407
#
# Poissons Ratio (x) = 0.12570 0.10716
# Poissons Ratio (y) = 0.22449 0.17648
# Poissons Ratio (z) = 0.45453 0.41913
#
# Static dielectric constant tensor:
#      x y z
#    x 2.203320 0.000000 0.044950 
#    y 0.000000 2.036290 0.000000 
#    z 0.044950 0.000000 2.344660 
# 
# From -- ./inp_files/89895.got.cif
#   From: 2010.05.17/outbox.cif.g08.bks.cpg/sg15_45_cif.got.tgz:89895.got - 2010.06.03 18:47:42.
