data_PCOD9302579
_publ_section_title
;
Structure prediction by ZEFSAII (Michael W. Deem and Ramdas Pophale) SiO2 
 PCOD9302579
Probable space group: C 2/C
;
_chemical_formula_sum "Si O2"
_cell_formula_units_Z 56
_cell_length_a 14.412275
_cell_length_b 24.855269
_cell_length_c 9.521835
_cell_angle_alpha 90.000000
_cell_angle_beta 57.722661
_cell_angle_gamma 90.000000
_cell_volume 2883.841971
_symmetry_space_group_name_H-M "C 2/C"
_symmetry_group_IT_number 15
_symmetry_cell_setting 'monoclinic'
loop_
_space_group_symop_operation_xyz
x,y,z
-x,y,1/2-z
-x,-y,-z
x,-y,1/2+z
1/2+x,1/2+y,z
1/2-x,1/2+y,1/2-z
1/2-x,1/2-y,-z
1/2+x,1/2-y,1/2+z
loop_
_atom_site_type_symbol
_atom_site_label
_atom_site_fract_x
_atom_site_fract_y
_atom_site_fract_z
Si Si1 0.346512 0.609835 0.580239
Si Si2 0.940183 0.170014 0.094319
Si Si3 0.765603 0.311946 0.533666
Si Si4 0.338124 0.201820 0.423153
Si Si5 0.914926 0.999335 0.942570
Si Si6 0.667074 0.383778 0.072145
Si Si7 0.472031 0.215098 0.030799
O O1 0.469501 0.626721 0.433203
O O2 0.261420 0.649536 0.574700
O O3 0.331515 0.548979 0.540552
O O4 0.346332 0.615485 0.749024
O O5 0.827872 0.173753 0.273736
O O6 0.911733 0.155116 0.955885
O O7 0.004086 0.226254 0.051066
O O8 0.750000 0.250000 0.500000
O O9 0.889253 0.316240 0.494811
O O10 0.250000 0.250000 0.500000
O O11 0.283294 0.143724 0.447279
O O12 0.406673 0.217069 0.230294
O O13 0.408633 0.197521 0.509188
O O14 0.856014 0.056353 0.964764
O O15 0.000000 0.989199 0.750000
O O16 0.000000 0.000000 0.000000
#
# Coordination Sequence:
#
# PCOD9302579 Si02
#       7
#     8   8   8   8   8   8   8
#     4  12  26  40  64  97 135 168 208 265 328 387
#     4  12  22  40  64  91 136 171 212 261 314 394
#     4  12  26  40  58  97 135 177 210 260 325 372
#     4  11  22  38  65  95 125 169 218 263 312 377
#     4  12  23  41  65  98 128 166 210 269 336 386
#     4  12  24  42  65  97 126 170 218 259 320 396
#     4  11  23  38  62  93 128 175 212 257 310 383
#
# _framework density 19.41854
#
# number of rings (size 3 to 8) (size 9 to 14) (size 15 to 20)
#    0.000    0.286    7.143    2.571    4.000    0.000 
#    0.000    0.000    0.000    0.857    0.000    0.000 
#    0.000    0.000    0.000    0.000    0.000    0.000 
#
# Total GULP energy -156299.493172 kJ/mol
# GULP energy per Si atom -5582.124756 kJ/mol
# Density = 1.937434 g / cm^3
# Si number density = 19.418540 Si / 1000 Ang^3
#
#
#
# Elastic Constant Matrix: (Units=GPa)
#
#
# Indices 1 2 3 4 5 6 
#
# 1 151.2884 56.1625 21.8224 0.0000 20.7959 0.0000
# 2 56.1625 102.8770 25.6397 0.0000 9.3518 0.0000
# 3 21.8224 25.6397 81.0982 0.0000 15.5957 0.0000
# 4 0.0000 0.0000 0.0000 25.9214 0.0000 2.7508
# 5 20.7959 9.3518 15.5957 0.0000 32.0366 0.0000
# 6 0.0000 0.0000 0.0000 2.7508 0.0000 36.2799
#
#
#
# Elastic Compliance Matrix: (Units=1/GPa)
#
#
# Indices 1 2 3 4 5 6 
#
# 1 0.008872 -0.004406 -0.000148 0.000000 -0.004401 0.000000
# 2 -0.004406 0.012816 -0.002975 0.000000 0.000568 0.000000
# 3 -0.000148 -0.002975 0.014481 0.000000 -0.006085 0.000000
# 4 0.000000 0.000000 0.000000 0.038891 0.000000 -0.002949
# 5 -0.004401 0.000568 -0.006085 0.000000 0.036868 0.000000
# 6 0.000000 0.000000 0.000000 -0.002949 0.000000 0.027787
#
#
# Mechanical properties :
#
#
# Convention : Reuss Voigt Hill
#
# Bulk Modulus (GPa) = 47.37102 60.27920 53.82511
# Shear Modulus (GPa) = 30.90029 34.29018 32.59523
#
# Velocity S-wave (km/s) = 3.99341 4.20676 4.10147
# Velocity P-wave (km/s) = 6.76098 7.39630 7.08576
#
# Compressibility (1/GPa) = 0.02110995
#
# Stress axis : x y z
#
# Youngs Moduli (GPa) = 112.71478 78.02846 69.05414
#
# Poissons Ratio (x) = 0.34383 0.01021
# Poissons Ratio (y) = 0.49667 0.20545
# Poissons Ratio (z) = 0.01667 0.23215
#
# Static dielectric constant tensor:
#      x y z
#    x 1.754690 0.000000 0.010590 
#    y 0.000000 1.719270 0.000000 
#    z 0.010590 0.000000 1.703930 
# 
# From -- ./inp_files/42523.got.cif
#   From: 2010.05.17/outbox.cif.g08.bks.cpg/sg15_22_cif.got.tgz:42523.got - 2010.06.03 18:47:42.
