data_PCOD9302295
_publ_section_title
;
Structure prediction by ZEFSAII (Michael W. Deem and Ramdas Pophale) SiO2 
 PCOD9302295
Probable space group: C 2/C
;
_chemical_formula_sum "Si O2"
_cell_formula_units_Z 64
_cell_length_a 11.661890
_cell_length_b 13.480475
_cell_length_c 26.096763
_cell_angle_alpha 90.000000
_cell_angle_beta 136.224365
_cell_angle_gamma 90.000000
_cell_volume 2838.337593
_symmetry_space_group_name_H-M "C 2/C"
_symmetry_group_IT_number 15
_symmetry_cell_setting 'monoclinic'
loop_
_space_group_symop_operation_xyz
x,y,z
-x,y,1/2-z
-x,-y,-z
x,-y,1/2+z
1/2+x,1/2+y,z
1/2-x,1/2+y,1/2-z
1/2-x,1/2-y,-z
1/2+x,1/2-y,1/2+z
loop_
_atom_site_type_symbol
_atom_site_label
_atom_site_fract_x
_atom_site_fract_y
_atom_site_fract_z
Si Si1 0.949247 0.897910 0.960124
Si Si2 0.933911 0.733455 0.038352
Si Si3 0.190286 0.455554 0.810311
Si Si4 0.395176 0.371078 0.328433
Si Si5 0.306234 0.742359 0.705810
Si Si6 0.583649 0.890864 0.063796
Si Si7 0.213602 0.145265 0.461303
Si Si8 0.383531 0.528034 0.162400
O O1 0.755554 0.909644 0.884620
O O2 0.061377 0.892551 0.945948
O O3 0.984240 0.812405 0.011102
O O4 0.000000 0.000000 0.000000
O O5 0.043679 0.773117 0.121457
O O6 0.750000 0.750000 0.000000
O O7 0.929439 0.634581 0.001479
O O8 0.293542 0.551726 0.829699
O O9 0.218047 0.356622 0.785152
O O10 0.000000 0.480448 0.750000
O O11 0.286464 0.330895 0.246710
O O12 0.536423 0.440958 0.347891
O O13 0.500000 0.734840 0.750000
O O14 0.177106 0.702869 0.621564
O O15 0.704580 0.980982 0.116989
O O16 0.395721 0.904388 0.022261
O O17 0.250000 0.250000 0.500000
O O18 0.150418 0.126221 0.382714
O O19 0.500000 0.540649 0.250000
#
# Coordination Sequence:
#
# PCOD9302295 Si02
#       8
#     8   8   8   8   8   8   8   8
#     4  12  24  47  72 101 145 191 243 307 369 443
#     4  12  23  40  73 107 145 189 251 301 367 444
#     4  11  25  42  69 102 138 190 244 297 382 441
#     4  12  23  45  69 107 145 191 245 318 371 439
#     4  11  21  44  73  99 142 194 246 310 373 443
#     4  12  23  44  72 112 143 197 254 307 368 462
#     4  12  26  47  74 106 155 202 244 311 386 445
#     4  12  24  48  75 106 151 197 249 308 381 451
#
# _framework density 22.548408999999999
#
# number of rings (size 3 to 8) (size 9 to 14) (size 15 to 20)
#    0.000    0.250    8.750    0.375    1.750    1.000 
#    2.250    0.000    0.000    0.000    0.000    0.000 
#    0.000    0.000    0.000    0.000    0.000    0.000 
#
# Total GULP energy -178459.327937 kJ/mol
# GULP energy per Si atom -5576.853998 kJ/mol
# Density = 2.249709 g / cm^3
# Si number density = 22.548409 Si / 1000 Ang^3
#
#
#
# Elastic Constant Matrix: (Units=GPa)
#
#
# Indices 1 2 3 4 5 6 
#
# 1 74.9345 1.7790 43.4786 0.0000 11.5615 0.0000
# 2 1.7790 78.6466 40.6619 0.0000 -8.9155 0.0000
# 3 43.4786 40.6619 148.2644 0.0000 -0.1958 0.0000
# 4 0.0000 0.0000 0.0000 45.0333 0.0000 -8.3825
# 5 11.5615 -8.9155 -0.1958 0.0000 39.2734 0.0000
# 6 0.0000 0.0000 0.0000 -8.3825 0.0000 14.9450
#
#
#
# Elastic Compliance Matrix: (Units=1/GPa)
#
#
# Indices 1 2 3 4 5 6 
#
# 1 0.017276 0.001984 -0.005617 0.000000 -0.004663 0.000000
# 2 0.001984 0.015496 -0.004828 0.000000 0.002910 0.000000
# 3 -0.005617 -0.004828 0.009717 0.000000 0.000606 0.000000
# 4 0.000000 0.000000 0.000000 0.024794 0.000000 0.013907
# 5 -0.004663 0.002910 0.000606 0.000000 0.027499 0.000000
# 6 0.000000 0.000000 0.000000 0.013907 0.000000 0.074712
#
#
# Mechanical properties :
#
#
# Convention : Reuss Voigt Hill
#
# Bulk Modulus (GPa) = 39.11011 52.63162 45.87087
# Shear Modulus (GPa) = 25.64920 34.24542 29.94731
#
# Velocity S-wave (km/s) = 3.37637 3.90134 3.64831
# Velocity P-wave (km/s) = 5.70810 6.60956 6.17530
#
# Compressibility (1/GPa) = 0.02556883
#
# Stress axis : x y z
#
# Youngs Moduli (GPa) = 57.88281 64.53189 102.91573
#
# Poissons Ratio (x) = -0.12806 0.57805
# Poissons Ratio (y) = -0.11487 0.49688
# Poissons Ratio (z) = 0.32511 0.31156
#
# Static dielectric constant tensor:
#      x y z
#    x 1.837660 0.000000 -0.040250 
#    y 0.000000 1.894270 0.000000 
#    z -0.040250 0.000000 1.860950 
# 
# From -- ./inp_files/293077.got.cif
#   From: 2010.05.17/outbox.cif.g08.bks.cpg/sg15_147_cif.got.tgz:293077.got - 2010.06.03 18:47:42.
