data_PCOD9302872
_publ_section_title
;
Structure prediction by ZEFSAII (Michael W. Deem and Ramdas Pophale) SiO2 
 PCOD9302872
Probable space group: C 2/C
;
_chemical_formula_sum "Si O2"
_cell_formula_units_Z 56
_cell_length_a 16.300271
_cell_length_b 18.458542
_cell_length_c 12.149545
_cell_angle_alpha 90.000000
_cell_angle_beta 131.275540
_cell_angle_gamma 90.000000
_cell_volume 2747.310204
_symmetry_space_group_name_H-M "C 2/C"
_symmetry_group_IT_number 15
_symmetry_cell_setting 'monoclinic'
loop_
_space_group_symop_operation_xyz
x,y,z
-x,y,1/2-z
-x,-y,-z
x,-y,1/2+z
1/2+x,1/2+y,z
1/2-x,1/2+y,1/2-z
1/2-x,1/2-y,-z
1/2+x,1/2-y,1/2+z
loop_
_atom_site_type_symbol
_atom_site_label
_atom_site_fract_x
_atom_site_fract_y
_atom_site_fract_z
Si Si1 0.592094 0.977707 0.669512
Si Si2 0.182990 0.279461 0.042947
Si Si3 0.805306 0.957776 0.714025
Si Si4 0.000000 0.359894 0.750000
Si Si5 0.309583 0.102122 0.603898
Si Si6 0.000000 0.716995 0.750000
Si Si7 0.160152 0.881711 0.183017
Si Si8 0.057771 0.820041 0.595416
O O1 0.611906 0.047058 0.762845
O O2 0.500000 0.000000 0.500000
O O3 0.703201 0.957372 0.706562
O O4 0.563252 0.912002 0.722855
O O5 0.254231 0.340994 0.163971
O O6 0.148285 0.220427 0.102250
O O7 0.250000 0.250000 0.000000
O O8 0.075176 0.312556 0.894549
O O9 0.750789 0.939533 0.548346
O O10 0.891528 0.894576 0.814195
O O11 0.854647 0.037586 0.780206
O O12 0.389761 0.167854 0.638967
O O13 0.216602 0.120265 0.611953
O O14 0.978950 0.767262 0.837888
O O15 0.046250 0.840406 0.070872
#
# Coordination Sequence:
#
# PCOD9302872 Si02
#       8
#     8   8   8   4   8   4   8   8
#     4  11  22  40  68 102 134 178 232 293 356 421
#     4  12  26  46  67 100 137 186 232 299 354 426
#     4  11  25  43  70  98 142 188 235 294 353 431
#     4  12  23  40  64  95 132 174 230 286 354 417
#     4  11  23  42  69 106 140 183 232 300 356 431
#     4  12  25  42  72 107 148 182 240 298 376 427
#     4  11  25  48  70 102 143 187 245 287 364 437
#     4  12  27  44  70 104 139 193 234 297 361 437
#
# _framework density 20.383573999999999
#
# number of rings (size 3 to 8) (size 9 to 14) (size 15 to 20)
#    0.000    0.571    1.429    7.714    4.000    2.286 
#    0.000    2.857    0.000    0.000    0.000    0.000 
#    0.000    0.000    0.000    0.000    0.000    0.000 
#
# Total GULP energy -156605.541230 kJ/mol
# GULP energy per Si atom -5593.055044 kJ/mol
# Density = 2.033718 g / cm^3
# Si number density = 20.383574 Si / 1000 Ang^3
#
#
#
# Elastic Constant Matrix: (Units=GPa)
#
#
# Indices 1 2 3 4 5 6 
#
# 1 59.5454 38.2310 4.5375 0.0000 -21.8038 0.0000
# 2 38.2310 109.2787 33.4314 0.0000 -8.3891 0.0000
# 3 4.5375 33.4314 102.5562 0.0000 -3.5623 0.0000
# 4 0.0000 0.0000 0.0000 46.1724 0.0000 0.3296
# 5 -21.8038 -8.3891 -3.5623 0.0000 37.4915 0.0000
# 6 0.0000 0.0000 0.0000 0.3296 0.0000 35.5033
#
#
#
# Elastic Compliance Matrix: (Units=1/GPa)
#
#
# Indices 1 2 3 4 5 6 
#
# 1 0.027878 -0.009361 0.002316 0.000000 0.014338 0.000000
# 2 -0.009361 0.013454 -0.004070 0.000000 -0.002820 0.000000
# 3 0.002316 -0.004070 0.011026 0.000000 0.001484 0.000000
# 4 0.000000 0.000000 0.000000 0.021659 0.000000 -0.000201
# 5 0.014338 -0.002820 0.001484 0.000000 0.034521 0.000000
# 6 0.000000 0.000000 0.000000 -0.000201 0.000000 0.028168
#
#
# Mechanical properties :
#
#
# Convention : Reuss Voigt Hill
#
# Bulk Modulus (GPa) = 33.18980 47.08669 40.13824
# Shear Modulus (GPa) = 29.58936 36.84547 33.21741
#
# Velocity S-wave (km/s) = 3.81416 4.25621 4.04123
# Velocity P-wave (km/s) = 5.97620 6.87780 6.44280
#
# Compressibility (1/GPa) = 0.03012974
#
# Stress axis : x y z
#
# Youngs Moduli (GPa) = 35.87083 74.32551 90.69101
#
# Poissons Ratio (x) = 0.69575 -0.21005
# Poissons Ratio (y) = 0.33578 0.36908
# Poissons Ratio (z) = -0.08308 0.30248
#
# Static dielectric constant tensor:
#      x y z
#    x 1.729370 0.000000 -0.021470 
#    y 0.000000 1.718530 0.000000 
#    z -0.021470 0.000000 1.714560 
# 
# From -- ./inp_files/106763.got.cif
#   From: 2010.05.17/outbox.cif.g08.bks.cpg/sg15_54_cif.got.tgz:106763.got - 2010.06.03 18:47:42.
