data_PCOD9302766
_publ_section_title
;
Structure prediction by ZEFSAII (Michael W. Deem and Ramdas Pophale) SiO2 
 PCOD9302766
Probable space group: C 2/C
;
_chemical_formula_sum "Si O2"
_cell_formula_units_Z 32
_cell_length_a 14.336766
_cell_length_b 18.960611
_cell_length_c 10.671136
_cell_angle_alpha 90.000000
_cell_angle_beta 30.550354
_cell_angle_gamma 90.000000
_cell_volume 1474.451062
_symmetry_space_group_name_H-M "C 2/C"
_symmetry_group_IT_number 15
_symmetry_cell_setting 'monoclinic'
loop_
_space_group_symop_operation_xyz
x,y,z
-x,y,1/2-z
-x,-y,-z
x,-y,1/2+z
1/2+x,1/2+y,z
1/2-x,1/2+y,1/2-z
1/2-x,1/2-y,-z
1/2+x,1/2-y,1/2+z
loop_
_atom_site_type_symbol
_atom_site_label
_atom_site_fract_x
_atom_site_fract_y
_atom_site_fract_z
Si Si1 0.308529 0.523125 0.661822
Si Si2 0.451768 0.066969 0.173651
Si Si3 0.603186 0.830983 0.994153
Si Si4 0.979082 0.170202 0.421995
O O1 0.500000 0.500000 0.500000
O O2 0.237083 0.478428 0.623724
O O3 0.342389 0.606427 0.606682
O O4 0.127699 0.515063 0.956974
O O5 0.500000 0.102686 0.250000
O O6 0.456460 0.120460 0.052115
O O7 0.500000 0.840290 0.250000
O O8 0.580672 0.749503 0.978041
O O9 0.819046 0.844904 0.760072
O O10 0.000000 0.171290 0.250000
#
# Coordination Sequence:
#
# PCOD9302766 Si02
#       4
#     8   8   8   8
#     4  11  24  43  65  98 138 185 230 279 342 409
#     4  11  26  44  69 103 143 182 225 282 349 413
#     4  11  22  44  68 104 135 180 234 287 341 407
#     4  11  22  39  72  99 133 179 239 290 335 403
#
# _framework density 21.702991999999998
#
# number of rings (size 3 to 8) (size 9 to 14) (size 15 to 20)
#    0.000    1.000    2.500    6.000    3.500    4.000 
#    0.000    6.250    0.000    0.000    0.000    0.000 
#    0.000    0.000    0.000    0.000    0.000    0.000 
#
# Total GULP energy -89197.798707 kJ/mol
# GULP energy per Si atom -5574.862419 kJ/mol
# Density = 2.165359 g / cm^3
# Si number density = 21.702992 Si / 1000 Ang^3
#
#
#
# Elastic Constant Matrix: (Units=GPa)
#
#
# Indices 1 2 3 4 5 6 
#
# 1 184.3017 79.4258 62.0487 0.0018 -32.0166 -0.0020
# 2 79.4258 142.9137 56.5434 0.0001 -5.7918 0.0006
# 3 62.0487 56.5434 76.5782 0.0099 -46.6842 -0.0056
# 4 0.0018 0.0001 0.0099 32.9535 -0.0028 -8.7385
# 5 -32.0166 -5.7918 -46.6842 -0.0028 49.6800 0.0022
# 6 -0.0020 0.0006 -0.0056 -8.7385 0.0022 38.3136
#
#
#
# Elastic Compliance Matrix: (Units=1/GPa)
#
#
# Indices 1 2 3 4 5 6 
#
# 1 0.008210 -0.003389 -0.002728 0.000001 0.002332 0.000000
# 2 -0.003389 0.017423 -0.023909 0.000005 -0.022620 -0.000002
# 3 -0.002728 -0.023909 0.070591 -0.000015 0.061788 0.000004
# 4 0.000001 0.000005 -0.000015 0.032299 -0.000012 0.007367
# 5 0.002332 -0.022620 0.061788 -0.000012 0.077057 0.000003
# 6 0.000000 -0.000002 0.000004 0.007367 0.000003 0.027781
#
#
# Mechanical properties :
#
#
# Convention : Reuss Voigt Hill
#
# Bulk Modulus (GPa) = 27.64542 88.86992 58.25767
# Shear Modulus (GPa) = 16.36820 37.90781 27.13801
#
# Velocity S-wave (km/s) = 2.74923 4.18384 3.53997
# Velocity P-wave (km/s) = 4.77948 8.02350 6.60379
#
# Compressibility (1/GPa) = 0.03617236
#
# Stress axis : x y z
#
# Youngs Moduli (GPa) = 121.80286 57.39438 14.16615
#
# Poissons Ratio (x) = 0.19450 0.03865
# Poissons Ratio (y) = 0.41277 0.33869
# Poissons Ratio (z) = 0.33233 1.37222
#
# Static dielectric constant tensor:
#      x y z
#    x 1.854300 -0.000010 0.045130 
#    y -0.000010 2.146570 0.000030 
#    z 0.045130 0.000030 1.769080 
# 
# From -- ./inp_files/87003.got.cif
#   From: 2010.05.17/outbox.cif.g08.bks.cpg/sg15_44_cif.got.tgz:87003.got - 2010.06.03 18:47:42.
