data_PCOD9302010
_publ_section_title
;
Structure prediction by ZEFSAII (Michael W. Deem and Ramdas Pophale) SiO2 
 PCOD9302010
Probable space group: C 2/C
;
_chemical_formula_sum "Si O2"
_cell_formula_units_Z 56
_cell_length_a 19.566170
_cell_length_b 16.732991
_cell_length_c 20.200657
_cell_angle_alpha 90.000000
_cell_angle_beta 157.647577
_cell_angle_gamma 90.000000
_cell_volume 2515.209144
_symmetry_space_group_name_H-M "C 2/C"
_symmetry_group_IT_number 15
_symmetry_cell_setting 'monoclinic'
loop_
_space_group_symop_operation_xyz
x,y,z
-x,y,1/2-z
-x,-y,-z
x,-y,1/2+z
1/2+x,1/2+y,z
1/2-x,1/2+y,1/2-z
1/2-x,1/2-y,-z
1/2+x,1/2-y,1/2+z
loop_
_atom_site_type_symbol
_atom_site_label
_atom_site_fract_x
_atom_site_fract_y
_atom_site_fract_z
Si Si1 0.492464 0.055268 0.317873
Si Si2 0.737398 0.193359 0.331069
Si Si3 0.194621 0.406902 0.304264
Si Si4 0.882029 0.710522 0.529322
Si Si5 0.494462 0.630465 0.173802
Si Si6 0.100282 0.207971 0.595349
Si Si7 0.196188 0.177618 0.901489
O O1 0.500000 0.021800 0.250000
O O2 0.355839 0.128914 0.206140
O O3 0.681431 0.099688 0.494364
O O4 0.415830 0.988733 0.298261
O O5 0.651824 0.214235 0.183834
O O6 0.717258 0.277205 0.350919
O O7 0.937440 0.170962 0.490585
O O8 0.373890 0.415800 0.511018
O O9 0.260218 0.362736 0.296275
O O10 0.043451 0.346329 0.196805
O O11 0.701218 0.661012 0.349820
O O12 0.941815 0.756245 0.514905
O O13 0.881319 0.786645 0.577370
O O14 0.500000 0.588284 0.250000
O O15 0.000000 0.154846 0.750000
O O16 0.250000 0.250000 0.000000
#
# Coordination Sequence:
#
# PCOD9302010 Si02
#       7
#     8   8   8   8   8   8   8
#     4  12  27  45  68 106 146 181 235 311 373 419
#     4  12  21  40  77 102 128 188 244 298 347 434
#     4  11  26  45  64 102 153 186 226 313 368 421
#     4  11  21  41  66 100 138 189 244 291 346 431
#     4  11  22  37  68  99 131 193 255 291 344 432
#     4  11  21  42  70 100 136 186 243 283 351 440
#     4  12  21  44  74 106 136 183 248 296 362 436
#
# _framework density 22.264551000000001
#
# number of rings (size 3 to 8) (size 9 to 14) (size 15 to 20)
#    0.000    0.571    8.571    1.286    2.000    0.571 
#    2.571    2.857    0.000    0.000    0.000    0.000 
#    0.000    0.000    0.000    0.000    0.000    0.000 
#
# Total GULP energy -155975.864348 kJ/mol
# GULP energy per Si atom -5570.566584 kJ/mol
# Density = 2.221388 g / cm^3
# Si number density = 22.264551 Si / 1000 Ang^3
#
#
#
# Elastic Constant Matrix: (Units=GPa)
#
#
# Indices 1 2 3 4 5 6 
#
# 1 76.5531 12.1490 22.3194 0.0040 24.2953 0.0082
# 2 12.1490 61.9221 22.4547 -0.0029 20.6787 -0.0084
# 3 22.3194 22.4547 93.4186 -0.0024 32.4827 0.0205
# 4 0.0040 -0.0029 -0.0024 16.4290 -0.0001 -1.2198
# 5 24.2953 20.6787 32.4827 -0.0001 54.2832 0.0021
# 6 0.0082 -0.0084 0.0205 -1.2198 0.0021 1.8123
#
#
#
# Elastic Compliance Matrix: (Units=1/GPa)
#
#
# Indices 1 2 3 4 5 6 
#
# 1 0.015433 -0.000537 -0.001550 -0.000008 -0.005775 -0.000053
# 2 -0.000537 0.019004 -0.002533 0.000013 -0.005483 0.000134
# 3 -0.001550 -0.002533 0.014025 -0.000010 -0.006734 -0.000163
# 4 -0.000008 0.000013 -0.000010 0.064070 0.000003 0.043124
# 5 -0.005775 -0.005483 -0.006734 0.000003 0.027125 0.000048
# 6 -0.000053 0.000134 -0.000163 0.043124 0.000048 0.580820
#
#
# Mechanical properties :
#
#
# Convention : Reuss Voigt Hill
#
# Bulk Modulus (GPa) = 25.49603 38.41557 31.95580
# Shear Modulus (GPa) = 6.73136 26.16960 16.45048
#
# Velocity S-wave (km/s) = 1.74067 3.43212 2.72115
# Velocity P-wave (km/s) = 3.93905 5.74435 4.92512
#
# Compressibility (1/GPa) = 0.03922179
#
# Stress axis : x y z
#
# Youngs Moduli (GPa) = 64.79704 52.61923 71.30023
#
# Poissons Ratio (x) = 0.02827 0.11051
# Poissons Ratio (y) = 0.03481 0.18061
# Poissons Ratio (z) = 0.10043 0.13329
#
# Static dielectric constant tensor:
#      x y z
#    x 1.886490 0.000000 -0.054040 
#    y 0.000000 1.825190 -0.000020 
#    z -0.054040 -0.000020 1.970800 
# 
# From -- ./inp_files/253384.got.cif
#   From: 2010.05.17/outbox.cif.g08.bks.cpg/sg15_127_cif.got.tgz:253384.got - 2010.06.03 18:47:42.
