data_PCOD9302086
_publ_section_title
;
Structure prediction by ZEFSAII (Michael W. Deem and Ramdas Pophale) SiO2 
 PCOD9302086
Probable space group: C 2/C
;
_chemical_formula_sum "Si O2"
_cell_formula_units_Z 36
_cell_length_a 8.592236
_cell_length_b 10.711590
_cell_length_c 19.402909
_cell_angle_alpha 90.000000
_cell_angle_beta 116.554200
_cell_angle_gamma 90.000000
_cell_volume 1597.397845
_symmetry_space_group_name_H-M "C 2/C"
_symmetry_group_IT_number 15
_symmetry_cell_setting 'monoclinic'
loop_
_space_group_symop_operation_xyz
x,y,z
-x,y,1/2-z
-x,-y,-z
x,-y,1/2+z
1/2+x,1/2+y,z
1/2-x,1/2+y,1/2-z
1/2-x,1/2-y,-z
1/2+x,1/2-y,1/2+z
loop_
_atom_site_type_symbol
_atom_site_label
_atom_site_fract_x
_atom_site_fract_y
_atom_site_fract_z
Si Si1 0.697196 0.922469 0.160143
Si Si2 0.208951 0.646878 0.931965
Si Si3 0.109075 0.677721 0.134664
Si Si4 0.705662 0.894738 0.003957
Si Si5 0.500000 0.258570 0.250000
O O1 0.502176 0.872837 0.376012
O O2 0.754781 0.916148 0.092047
O O3 0.826233 0.836671 0.228252
O O4 0.728619 0.066418 0.186265
O O5 0.303202 0.703096 0.882929
O O6 0.272864 0.510103 0.970836
O O7 0.250000 0.750000 0.000000
O O8 0.977523 0.691001 0.172811
O O9 0.001002 0.610454 0.051842
O O10 0.750000 0.750000 0.000000
#
# Coordination Sequence:
#
# PCOD9302086 Si02
#       5
#     8   8   8   8   4
#     4  11  24  44  67 100 138 172 228 282 329 402
#     4  11  21  41  74 101 128 170 226 286 332 381
#     4  11  24  45  68 100 133 178 227 276 333 401
#     4  11  21  42  72 102 133 170 228 286 327 387
#     4  12  28  44  62  96 144 186 214 266 346 416
#
# _framework density 22.536650999999999
#
# number of rings (size 3 to 8) (size 9 to 14) (size 15 to 20)
#    0.000    0.889    6.667    1.333    0.000    7.111 
#    4.000    0.000    0.000    0.000    0.000    0.000 
#    0.000    0.000    0.000    0.000    0.000    0.000 
#
# Total GULP energy -100238.662138 kJ/mol
# GULP energy per Si atom -5568.814563 kJ/mol
# Density = 2.248536 g / cm^3
# Si number density = 22.536651 Si / 1000 Ang^3
#
#
#
# Elastic Constant Matrix: (Units=GPa)
#
#
# Indices 1 2 3 4 5 6 
#
# 1 51.1315 29.6540 14.4108 0.0000 -14.7834 0.0000
# 2 29.6540 148.6408 6.5618 0.0000 -18.1723 0.0000
# 3 14.4108 6.5618 57.0836 0.0000 -14.7928 0.0000
# 4 0.0000 0.0000 0.0000 11.1366 0.0000 -0.6370
# 5 -14.7834 -18.1723 -14.7928 0.0000 40.9949 0.0000
# 6 0.0000 0.0000 0.0000 -0.6370 0.0000 44.7440
#
#
#
# Elastic Compliance Matrix: (Units=1/GPa)
#
#
# Indices 1 2 3 4 5 6 
#
# 1 0.024745 -0.004066 -0.004340 0.000000 0.005555 0.000000
# 2 -0.004066 0.007781 0.000712 0.000000 0.002240 0.000000
# 3 -0.004340 0.000712 0.020086 0.000000 0.005999 0.000000
# 4 0.000000 0.000000 0.000000 0.089867 0.000000 0.001279
# 5 0.005555 0.002240 0.005999 0.000000 0.029554 0.000000
# 6 0.000000 0.000000 0.000000 0.001279 0.000000 0.022368
#
#
# Mechanical properties :
#
#
# Convention : Reuss Voigt Hill
#
# Bulk Modulus (GPa) = 26.86313 39.78989 33.32651
# Shear Modulus (GPa) = 22.50262 33.12372 27.81317
#
# Velocity S-wave (km/s) = 3.16332 3.83792 3.51683
# Velocity P-wave (km/s) = 5.02869 6.11011 5.59559
#
# Compressibility (1/GPa) = 0.03722574
#
# Stress axis : x y z
#
# Youngs Moduli (GPa) = 40.41268 128.51503 49.78480
#
# Poissons Ratio (x) = 0.52252 0.21606
# Poissons Ratio (y) = 0.16431 -0.03547
# Poissons Ratio (z) = 0.17539 -0.09157
#
# Static dielectric constant tensor:
#      x y z
#    x 1.968720 0.000000 -0.106850 
#    y 0.000000 2.159290 0.000000 
#    z -0.106850 0.000000 2.688790 
# 
# From -- ./inp_files/188014.got.cif
#   From: 2010.05.17/outbox.cif.g08.bks.cpg/sg15_95_cif.got.tgz:188014.got - 2010.06.03 18:47:42.
