data_PCOD9302465
_publ_section_title
;
Structure prediction by ZEFSAII (Michael W. Deem and Ramdas Pophale) SiO2 
 PCOD9302465
Probable space group: C 2/C
;
_chemical_formula_sum "Si O2"
_cell_formula_units_Z 48
_cell_length_a 10.423139
_cell_length_b 27.339837
_cell_length_c 9.924000
_cell_angle_alpha 90.000000
_cell_angle_beta 142.265479
_cell_angle_gamma 90.000000
_cell_volume 1730.753486
_symmetry_space_group_name_H-M "C 2/C"
_symmetry_group_IT_number 15
_symmetry_cell_setting 'monoclinic'
loop_
_space_group_symop_operation_xyz
x,y,z
-x,y,1/2-z
-x,-y,-z
x,-y,1/2+z
1/2+x,1/2+y,z
1/2-x,1/2+y,1/2-z
1/2-x,1/2-y,-z
1/2+x,1/2-y,1/2+z
loop_
_atom_site_type_symbol
_atom_site_label
_atom_site_fract_x
_atom_site_fract_y
_atom_site_fract_z
Si Si1 0.858395 0.705833 0.261171
Si Si2 0.745795 0.554535 0.287678
Si Si3 0.254205 0.445465 0.212322
Si Si4 0.858396 0.294167 0.261171
Si Si5 0.255329 0.613833 0.463243
Si Si6 0.244671 0.886167 0.036757
O O1 0.750000 0.750000 0.250000
O O2 0.699018 0.666501 0.063434
O O3 0.000000 0.722230 0.250000
O O4 1.000000 0.682720 0.500000
O O5 0.678647 0.500000 0.270427
O O6 0.689443 0.569587 0.089991
O O7 0.684555 0.598277 0.337383
O O8 0.000000 0.553193 0.500000
O O9 0.310557 0.430413 0.410009
O O10 0.315445 0.401723 0.162617
O O11 0.699019 0.333499 0.063434
O O12 0.000000 0.277770 0.250000
O O13 0.000000 0.615939 0.250000
O O14 0.500000 0.884061 0.250000
#
# Coordination Sequence:
#
# PCOD9302465 Si02
#       6
#     8   8   8   8   8   8
#     4  11  22  37  56  78 107 141 178 219 264 312
#     4   9  15  23  38  62  94 130 162 194 245 311
#     4   9  15  23  38  62  94 130 162 194 245 311
#     4  11  22  37  56  78 107 141 178 219 264 312
#     4   9  16  27  42  64  96 131 162 201 254 303
#     4   9  16  27  42  64  96 131 162 201 254 303
#
# _framework density 27.733584
#
# number of rings (size 3 to 8) (size 9 to 14) (size 15 to 20)
#    0.000    2.333    0.000    7.000    0.000    4.000 
#    0.000    0.000    0.000    0.000    0.000    0.000 
#    0.000   26.667    0.000    0.000    0.000    3.000 
#
# Total GULP energy -134456.504868 kJ/mol
# GULP energy per Si atom -5602.354369 kJ/mol
# Density = 2.767046 g / cm^3
# Si number density = 27.733584 Si / 1000 Ang^3
#
#
#
# Elastic Constant Matrix: (Units=GPa)
#
#
# Indices 1 2 3 4 5 6 
#
# 1 136.2804 60.7020 10.1479 0.0000 -30.2631 0.0000
# 2 60.7020 218.9777 58.2982 0.0000 -36.9153 0.0000
# 3 10.1479 58.2982 183.0733 0.0000 -32.7182 0.0000
# 4 0.0000 0.0000 0.0000 37.1139 0.0000 -12.1750
# 5 -30.2631 -36.9153 -32.7182 0.0000 52.8865 0.0000
# 6 0.0000 0.0000 0.0000 -12.1750 0.0000 43.0012
#
#
#
# Elastic Compliance Matrix: (Units=1/GPa)
#
#
# Indices 1 2 3 4 5 6 
#
# 1 0.009153 -0.002045 0.000927 0.000000 0.004384 0.000000
# 2 -0.002045 0.005848 -0.001381 0.000000 0.002057 0.000000
# 3 0.000927 -0.001381 0.006491 0.000000 0.003582 0.000000
# 4 0.000000 0.000000 0.000000 0.029703 0.000000 0.008410
# 5 0.004384 0.002057 0.003582 0.000000 0.025069 0.000000
# 6 0.000000 0.000000 0.000000 0.008410 0.000000 0.025636
#
#
# Mechanical properties :
#
#
# Convention : Reuss Voigt Hill
#
# Bulk Modulus (GPa) = 60.62748 88.51416 74.57082
# Shear Modulus (GPa) = 44.48527 53.87920 49.18224
#
# Velocity S-wave (km/s) = 4.00937 4.41244 4.21572
# Velocity P-wave (km/s) = 6.58343 7.61214 7.11639
#
# Compressibility (1/GPa) = 0.01649417
#
# Stress axis : x y z
#
# Youngs Moduli (GPa) = 109.25089 170.99392 154.06104
#
# Poissons Ratio (x) = 0.34972 -0.14287
# Poissons Ratio (y) = 0.22344 0.21280
# Poissons Ratio (z) = -0.10132 0.23619
#
# Static dielectric constant tensor:
#      x y z
#    x 2.304960 0.000000 0.196970 
#    y 0.000000 2.130340 0.000000 
#    z 0.196970 0.000000 2.160510 
# 
# From -- ./inp_files/33814.got.cif
#   From: 2010.05.17/outbox.cif.g08.bks.cpg/sg15_17_cif.got.tgz:33814.got - 2010.06.03 18:47:42.
