data_PCOD9302329
_publ_section_title
;
Structure prediction by ZEFSAII (Michael W. Deem and Ramdas Pophale) SiO2 
 PCOD9302329
Probable space group: C 2/C
;
_chemical_formula_sum "Si O2"
_cell_formula_units_Z 40
_cell_length_a 16.683850
_cell_length_b 7.562180
_cell_length_c 14.106458
_cell_angle_alpha 90.000000
_cell_angle_beta 129.814362
_cell_angle_gamma 90.000000
_cell_volume 1367.074124
_symmetry_space_group_name_H-M "C 2/C"
_symmetry_group_IT_number 15
_symmetry_cell_setting 'monoclinic'
loop_
_space_group_symop_operation_xyz
x,y,z
-x,y,1/2-z
-x,-y,-z
x,-y,1/2+z
1/2+x,1/2+y,z
1/2-x,1/2+y,1/2-z
1/2-x,1/2-y,-z
1/2+x,1/2-y,1/2+z
loop_
_atom_site_type_symbol
_atom_site_label
_atom_site_fract_x
_atom_site_fract_y
_atom_site_fract_z
Si Si1 0.111026 0.254278 0.445518
Si Si2 0.532238 0.617017 0.896588
Si Si3 0.315954 0.290275 0.280449
Si Si4 0.075990 0.652331 0.600137
Si Si5 0.834535 0.389239 0.604739
O O1 0.157072 0.250422 0.589190
O O2 0.170098 0.408128 0.433518
O O3 0.000000 0.500000 0.500000
O O4 0.987702 0.310258 0.352871
O O5 0.407929 0.589636 0.805293
O O6 0.565989 0.795711 0.868643
O O7 0.559081 0.671703 0.023795
O O8 0.598503 0.451700 0.910832
O O9 0.199722 0.364241 0.186410
O O10 0.326060 0.130326 0.211485
O O11 0.750000 0.250000 0.500000
#
# Coordination Sequence:
#
# PCOD9302329 Si02
#       5
#     8   8   8   8   8
#     4  11  27  49  81 121 169 219 292 355 428 533
#     4  11  25  48  75 118 167 215 290 355 417 532
#     4  11  25  48  83 119 172 232 275 360 444 506
#     4  11  21  45  79 114 161 219 282 346 429 520
#     4  12  25  53  77 119 176 217 283 360 431 522
#
# _framework density 29.259568000000002
#
# number of rings (size 3 to 8) (size 9 to 14) (size 15 to 20)
#    0.000    0.800    4.000    3.000    0.000   10.400 
#    0.000    6.000    0.000    0.000    0.000    0.000 
#    0.000    0.000    0.000    0.000    0.000    0.000 
#
# Total GULP energy -111883.356158 kJ/mol
# GULP energy per Si atom -5594.167808 kJ/mol
# Density = 2.919297 g / cm^3
# Si number density = 29.259568 Si / 1000 Ang^3
#
#
#
# Elastic Constant Matrix: (Units=GPa)
#
#
# Indices 1 2 3 4 5 6 
#
# 1 169.8525 84.2592 84.4325 0.0000 6.7225 0.0000
# 2 84.2592 260.7584 63.0079 0.0000 -1.0230 0.0000
# 3 84.4325 63.0079 168.8189 0.0000 37.5889 0.0000
# 4 0.0000 0.0000 0.0000 16.6555 0.0000 -7.1071
# 5 6.7225 -1.0230 37.5889 0.0000 81.8896 0.0000
# 6 0.0000 0.0000 0.0000 -7.1071 0.0000 75.1707
#
#
#
# Elastic Compliance Matrix: (Units=1/GPa)
#
#
# Indices 1 2 3 4 5 6 
#
# 1 0.008707 -0.001869 -0.003890 0.000000 0.001048 0.000000
# 2 -0.001869 0.004672 -0.000953 0.000000 0.000649 0.000000
# 3 -0.003890 -0.000953 0.009085 0.000000 -0.003863 0.000000
# 4 0.000000 0.000000 0.000000 0.062564 0.000000 0.005915
# 5 0.001048 0.000649 -0.003863 0.000000 0.013907 0.000000
# 6 0.000000 0.000000 0.000000 0.005915 0.000000 0.013862
#
#
# Mechanical properties :
#
#
# Convention : Reuss Voigt Hill
#
# Bulk Modulus (GPa) = 110.64300 118.09211 114.36755
# Shear Modulus (GPa) = 38.68869 59.25849 48.97359
#
# Velocity S-wave (km/s) = 3.64023 4.50518 4.09560
# Velocity P-wave (km/s) = 7.45418 8.21645 7.84458
#
# Compressibility (1/GPa) = 0.00903808
#
# Stress axis : x y z
#
# Youngs Moduli (GPa) = 114.84708 214.04362 110.07047
#
# Poissons Ratio (x) = 0.40014 0.42821
# Poissons Ratio (y) = 0.21470 0.10493
# Poissons Ratio (z) = 0.44679 0.20405
#
# Static dielectric constant tensor:
#      x y z
#    x 2.395720 0.000000 -0.034370 
#    y 0.000000 2.373570 0.000000 
#    z -0.034370 0.000000 2.514050 
# 
# From -- ./inp_files/302977.got.cif
#   From: 2010.05.17/outbox.cif.g08.bks.cpg/sg15_152_cif.got.tgz:302977.got - 2010.06.03 18:47:42.
