data_PCOD9302540
_publ_section_title
;
Structure prediction by ZEFSAII (Michael W. Deem and Ramdas Pophale) SiO2 
 PCOD9302540
Probable space group: C 2/C
;
_chemical_formula_sum "Si O2"
_cell_formula_units_Z 60
_cell_length_a 25.702316
_cell_length_b 13.504861
_cell_length_c 8.209886
_cell_angle_alpha 90.000000
_cell_angle_beta 82.611485
_cell_angle_gamma 90.000000
_cell_volume 2826.041179
_symmetry_space_group_name_H-M "C 2/C"
_symmetry_group_IT_number 15
_symmetry_cell_setting 'monoclinic'
loop_
_space_group_symop_operation_xyz
x,y,z
-x,y,1/2-z
-x,-y,-z
x,-y,1/2+z
1/2+x,1/2+y,z
1/2-x,1/2+y,1/2-z
1/2-x,1/2-y,-z
1/2+x,1/2-y,1/2+z
loop_
_atom_site_type_symbol
_atom_site_label
_atom_site_fract_x
_atom_site_fract_y
_atom_site_fract_z
Si Si1 0.159966 0.446197 0.767014
Si Si2 0.783324 0.843180 0.241998
Si Si3 0.383598 0.243509 0.338866
Si Si4 0.982750 0.392428 0.444017
Si Si5 0.635603 0.866969 0.104005
Si Si6 0.000000 0.741486 0.250000
Si Si7 0.227165 0.966914 0.926864
Si Si8 0.677095 0.712494 0.303595
O O1 0.117947 0.374027 0.698035
O O2 0.141293 0.559140 0.755540
O O3 0.214401 0.439678 0.651619
O O4 0.170806 0.410966 0.945393
O O5 0.838088 0.786815 0.239876
O O6 0.780015 0.919946 0.393588
O O7 0.733358 0.770528 0.281344
O O8 0.780354 0.915776 0.089049
O O9 0.441161 0.288058 0.280352
O O10 0.360173 0.259736 0.528130
O O11 0.920801 0.380160 0.451434
O O12 0.000000 0.375030 0.250000
O O13 0.000000 0.500000 0.500000
O O14 0.001190 0.319452 0.579659
O O15 0.649210 0.757671 0.156698
O O16 0.188910 0.902705 0.825198
#
# Coordination Sequence:
#
# PCOD9302540 Si02
#       8
#     8   8   8   8   8   4   8   8
#     4  12  20  35  55  87 123 159 198 239 307 375
#     4  11  22  40  62  91 129 161 203 258 316 388
#     4  11  22  42  63  86 121 165 213 257 312 370
#     4  12  23  40  57  87 126 169 215 259 308 376
#     4  12  24  34  56  87 124 162 202 253 302 374
#     4  12  24  44  66  86 122 174 224 268 316 372
#     4  11  22  38  60  91 125 165 200 248 321 378
#     4  11  22  40  62  90 128 162 201 263 316 380
#
# _framework density 21.231113000000001
#
# number of rings (size 3 to 8) (size 9 to 14) (size 15 to 20)
#    0.000    0.533    6.000    4.800    0.000    1.600 
#    0.000    0.000    0.000    3.200    1.733    0.000 
#    0.000    0.000    0.000    0.000    0.000    0.000 
#
# Total GULP energy -167593.679300 kJ/mol
# GULP energy per Si atom -5586.455977 kJ/mol
# Density = 2.118279 g / cm^3
# Si number density = 21.231113 Si / 1000 Ang^3
#
#
#
# Elastic Constant Matrix: (Units=GPa)
#
#
# Indices 1 2 3 4 5 6 
#
# 1 131.7838 15.1503 18.4483 0.0000 -3.6624 0.0000
# 2 15.1503 42.7128 6.4713 0.0000 -4.1310 0.0000
# 3 18.4483 6.4713 99.8785 0.0000 0.8874 0.0000
# 4 0.0000 0.0000 0.0000 25.3212 0.0000 10.4848
# 5 -3.6624 -4.1310 0.8874 0.0000 28.4907 0.0000
# 6 0.0000 0.0000 0.0000 10.4848 0.0000 26.6482
#
#
#
# Elastic Compliance Matrix: (Units=1/GPa)
#
#
# Indices 1 2 3 4 5 6 
#
# 1 0.008093 -0.002601 -0.001333 0.000000 0.000705 0.000000
# 2 -0.002601 0.024829 -0.001158 0.000000 0.003302 0.000000
# 3 -0.001333 -0.001158 0.010339 0.000000 -0.000661 0.000000
# 4 0.000000 0.000000 0.000000 0.047179 0.000000 -0.018563
# 5 0.000705 0.003302 -0.000661 0.000000 0.035689 0.000000
# 6 0.000000 0.000000 0.000000 -0.018563 0.000000 0.044830
#
#
# Mechanical properties :
#
#
# Convention : Reuss Voigt Hill
#
# Bulk Modulus (GPa) = 30.22985 39.39054 34.81020
# Shear Modulus (GPa) = 26.01889 31.71237 28.86563
#
# Velocity S-wave (km/s) = 3.50452 3.86900 3.69126
# Velocity P-wave (km/s) = 5.53579 6.20906 5.88206
#
# Compressibility (1/GPa) = 0.03307988
#
# Stress axis : x y z
#
# Youngs Moduli (GPa) = 123.55886 40.27482 96.71931
#
# Poissons Ratio (x) = 0.10474 0.12889
# Poissons Ratio (y) = 0.32133 0.11197
# Poissons Ratio (z) = 0.16466 0.04663
#
# Static dielectric constant tensor:
#      x y z
#    x 1.890580 0.000000 -0.059050 
#    y 0.000000 1.813670 0.000000 
#    z -0.059050 0.000000 1.936230 
# 
# From -- ./inp_files/61557.got.cif
#   From: 2010.05.17/outbox.cif.g08.bks.cpg/sg15_31_cif.got.tgz:61557.got - 2010.06.03 18:47:42.
