data_PCOD9302393
_publ_section_title
;
Structure prediction by ZEFSAII (Michael W. Deem and Ramdas Pophale) SiO2 
 PCOD9302393
Probable space group: C 2/C
;
_chemical_formula_sum "Si O2"
_cell_formula_units_Z 56
_cell_length_a 14.670003
_cell_length_b 20.825478
_cell_length_c 12.111053
_cell_angle_alpha 90.000000
_cell_angle_beta 36.726396
_cell_angle_gamma 90.000000
_cell_volume 2212.606815
_symmetry_space_group_name_H-M "C 2/C"
_symmetry_group_IT_number 15
_symmetry_cell_setting 'monoclinic'
loop_
_space_group_symop_operation_xyz
x,y,z
-x,y,1/2-z
-x,-y,-z
x,-y,1/2+z
1/2+x,1/2+y,z
1/2-x,1/2+y,1/2-z
1/2-x,1/2-y,-z
1/2+x,1/2-y,1/2+z
loop_
_atom_site_type_symbol
_atom_site_label
_atom_site_fract_x
_atom_site_fract_y
_atom_site_fract_z
Si Si1 0.044456 0.833750 0.869752
Si Si2 0.981910 0.417140 0.426704
Si Si3 0.168588 0.900569 0.139289
Si Si4 0.435078 0.721787 0.693294
Si Si5 0.847257 0.459291 0.775638
Si Si6 0.124990 0.713970 0.463840
Si Si7 0.652423 0.535313 0.264476
O O1 0.207296 0.808889 0.671434
O O2 0.030315 0.909103 0.858620
O O3 0.043654 0.818786 0.003145
O O4 0.917289 0.784333 0.952223
O O5 0.993424 0.342243 0.390468
O O6 0.812320 0.440019 0.557647
O O7 0.099522 0.467373 0.263953
O O8 0.200088 0.830443 0.158806
O O9 0.140312 0.962097 0.243243
O O10 0.000000 0.890827 0.250000
O O11 0.303077 0.921300 0.926654
O O12 0.500000 0.740439 0.750000
O O13 0.385318 0.778490 0.660273
O O14 0.971225 0.428585 0.570679
O O15 0.691909 0.460988 0.855348
#
# Coordination Sequence:
#
# PCOD9302393 Si02
#       7
#     8   8   8   8   8   8   8
#     4   9  19  36  53  81 112 153 197 233 285 358
#     4   8  18  39  58  79 110 154 191 242 291 337
#     4  11  22  34  54  88 118 151 190 239 291 350
#     4   9  20  33  49  80 120 153 185 229 296 348
#     4   9  19  37  57  80 115 144 198 240 284 348
#     4   9  19  35  56  79 112 156 196 230 289 355
#     4   9  18  36  58  79 113 151 191 241 301 331
#
# _framework density 25.309512000000002
#
# number of rings (size 3 to 8) (size 9 to 14) (size 15 to 20)
#    1.714    1.143    0.000    1.714    0.000    4.571 
#    2.571    0.000    0.000    0.857    0.000    0.000 
#    0.000    0.000    0.000    0.000    0.000    0.000 
#
# Total GULP energy -156062.708810 kJ/mol
# GULP energy per Si atom -5573.668172 kJ/mol
# Density = 2.525191 g / cm^3
# Si number density = 25.309512 Si / 1000 Ang^3
#
#
#
# Elastic Constant Matrix: (Units=GPa)
#
#
# Indices 1 2 3 4 5 6 
#
# 1 48.3498 10.9177 17.2621 -0.0024 22.4767 -0.0003
# 2 10.9177 100.3452 28.4663 -0.0149 3.3783 0.0111
# 3 17.2621 28.4663 92.6585 -0.0063 5.7961 0.0063
# 4 -0.0024 -0.0149 -0.0063 46.4690 0.0020 -7.7897
# 5 22.4767 3.3783 5.7961 0.0020 21.6187 0.0002
# 6 -0.0003 0.0111 0.0063 -7.7897 0.0002 6.9921
#
#
#
# Elastic Compliance Matrix: (Units=1/GPa)
#
#
# Indices 1 2 3 4 5 6 
#
# 1 0.042699 -0.001870 -0.004700 0.000006 -0.042841 0.000016
# 2 -0.001870 0.011013 -0.003101 0.000001 0.001055 -0.000014
# 3 -0.004700 -0.003101 0.012494 -0.000001 0.002022 -0.000008
# 4 0.000006 0.000001 -0.000001 0.026461 -0.000008 0.029480
# 5 -0.042841 0.001055 0.002022 -0.000008 0.090090 -0.000017
# 6 0.000016 -0.000014 -0.000008 0.029480 -0.000017 0.175860
#
#
# Mechanical properties :
#
#
# Convention : Reuss Voigt Hill
#
# Bulk Modulus (GPa) = 21.33861 39.40508 30.37185
# Shear Modulus (GPa) = 12.70382 27.32980 20.01681
#
# Velocity S-wave (km/s) = 2.24283 3.28963 2.81531
# Velocity P-wave (km/s) = 3.89312 5.48014 4.75333
#
# Compressibility (1/GPa) = 0.04686340
#
# Stress axis : x y z
#
# Youngs Moduli (GPa) = 23.41992 90.79949 80.03693
#
# Poissons Ratio (x) = 0.16979 0.37620
# Poissons Ratio (y) = 0.04379 0.24820
# Poissons Ratio (z) = 0.11008 0.28158
#
# Static dielectric constant tensor:
#      x y z
#    x 2.067050 0.000000 0.044080 
#    y 0.000000 2.056120 0.000000 
#    z 0.044080 0.000000 2.030240 
# 
# From -- ./inp_files/169135.got.cif
#   From: 2010.05.17/outbox.cif.g08.bks.cpg/sg15_85_cif.got.tgz:169135.got - 2010.06.03 18:47:42.
