data_PCOD9302916
_publ_section_title
;
Structure prediction by ZEFSAII (Michael W. Deem and Ramdas Pophale) SiO2 
 PCOD9302916
Probable space group: C 2/C
;
_chemical_formula_sum "Si O2"
_cell_formula_units_Z 56
_cell_length_a 18.591738
_cell_length_b 22.089304
_cell_length_c 9.194888
_cell_angle_alpha 90.000000
_cell_angle_beta 135.692961
_cell_angle_gamma 90.000000
_cell_volume 2637.648197
_symmetry_space_group_name_H-M "C 2/C"
_symmetry_group_IT_number 15
_symmetry_cell_setting 'monoclinic'
loop_
_space_group_symop_operation_xyz
x,y,z
-x,y,1/2-z
-x,-y,-z
x,-y,1/2+z
1/2+x,1/2+y,z
1/2-x,1/2+y,1/2-z
1/2-x,1/2-y,-z
1/2+x,1/2-y,1/2+z
loop_
_atom_site_type_symbol
_atom_site_label
_atom_site_fract_x
_atom_site_fract_y
_atom_site_fract_z
Si Si1 0.916545 0.836018 0.996507
Si Si2 0.284812 0.813920 0.615351
Si Si3 0.512432 0.795419 0.941734
Si Si4 0.488272 0.564897 0.059613
Si Si5 0.238498 0.072463 0.872641
Si Si6 0.483000 0.906932 0.384314
Si Si7 0.166404 0.492485 0.744673
O O1 0.000000 0.843704 0.250000
O O2 0.937970 0.769657 0.959633
O O3 0.934167 0.888220 0.904807
O O4 0.803137 0.835475 0.901247
O O5 0.250000 0.750000 0.500000
O O6 0.397459 0.801135 0.840651
O O7 0.289764 0.864636 0.496332
O O8 0.500000 0.799212 0.750000
O O9 0.562972 0.855524 0.078339
O O10 0.373666 0.586303 0.850893
O O11 0.500000 0.561501 0.250000
O O12 0.500000 0.500000 0.000000
O O13 0.297072 0.031196 0.839919
O O14 0.240303 0.032770 0.023791
O O15 0.500000 0.881050 0.250000
O O16 0.589518 0.937230 0.594350
O O17 0.403567 0.962400 0.261549
#
# Coordination Sequence:
#
# PCOD9302916 Si02
#       7
#     8   8   8   8   8   8   8
#     4  11  23  43  70 102 135 176 233 283 340 415
#     4  12  22  41  71 102 132 176 236 280 335 413
#     4  11  22  40  71  99 135 186 226 276 338 409
#     4  12  27  46  70  97 134 180 230 290 352 404
#     4  12  24  43  67  96 136 172 229 279 339 412
#     4  11  23  40  60  96 142 174 219 273 339 403
#     4  11  24  39  63  98 133 180 219 273 339 409
#
# _framework density 21.231034000000001
#
# number of rings (size 3 to 8) (size 9 to 14) (size 15 to 20)
#    0.000    0.571    7.143    2.143    2.000    0.571 
#    2.571    0.000    0.000    2.571    0.000    0.000 
#    0.000    0.000    0.000    0.000    0.000    0.000 
#
# Total GULP energy -156505.206733 kJ/mol
# GULP energy per Si atom -5589.471669 kJ/mol
# Density = 2.118271 g / cm^3
# Si number density = 21.231034 Si / 1000 Ang^3
#
#
#
# Elastic Constant Matrix: (Units=GPa)
#
#
# Indices 1 2 3 4 5 6 
#
# 1 121.4729 48.9734 26.8028 0.0000 -9.6856 0.0000
# 2 48.9734 128.8509 24.9875 0.0000 -33.9081 0.0000
# 3 26.8028 24.9875 70.0788 0.0000 -10.5545 0.0000
# 4 0.0000 0.0000 0.0000 22.5096 0.0000 -2.0657
# 5 -9.6856 -33.9081 -10.5545 0.0000 38.2923 0.0000
# 6 0.0000 0.0000 0.0000 -2.0657 0.0000 40.9738
#
#
#
# Elastic Compliance Matrix: (Units=1/GPa)
#
#
# Indices 1 2 3 4 5 6 
#
# 1 0.010241 -0.003742 -0.002808 0.000000 -0.001497 0.000000
# 2 -0.003742 0.011873 -0.001420 0.000000 0.009176 0.000000
# 3 -0.002808 -0.001420 0.016227 0.000000 0.002505 0.000000
# 4 0.000000 0.000000 0.000000 0.044632 0.000000 0.002250
# 5 -0.001497 0.009176 0.002505 0.000000 0.034552 0.000000
# 6 0.000000 0.000000 0.000000 0.002250 0.000000 0.024519
#
#
# Mechanical properties :
#
#
# Convention : Reuss Voigt Hill
#
# Bulk Modulus (GPa) = 44.64113 57.99220 51.31666
# Shear Modulus (GPa) = 30.22014 34.99775 32.60894
#
# Velocity S-wave (km/s) = 3.77688 4.06448 3.92332
# Velocity P-wave (km/s) = 6.33181 7.02857 6.68927
#
# Compressibility (1/GPa) = 0.02240087
#
# Stress axis : x y z
#
# Youngs Moduli (GPa) = 97.64581 84.22301 61.62425
#
# Poissons Ratio (x) = 0.31515 0.17305
# Poissons Ratio (y) = 0.36537 0.08754
# Poissons Ratio (z) = 0.27420 0.11964
#
# Static dielectric constant tensor:
#      x y z
#    x 1.793460 0.000000 0.039770 
#    y 0.000000 1.789380 0.000000 
#    z 0.039770 0.000000 1.814020 
# 
# From -- ./inp_files/51568.got.cif
#   From: 2010.05.17/outbox.cif.g08.bks.cpg/sg15_26_cif.got.tgz:51568.got - 2010.06.03 18:47:42.
