data_PCOD9302353
_publ_section_title
;
Structure prediction by ZEFSAII (Michael W. Deem and Ramdas Pophale) SiO2 
 PCOD9302353
Probable space group: C 2/C
;
_chemical_formula_sum "Si O2"
_cell_formula_units_Z 48
_cell_length_a 9.370642
_cell_length_b 21.874953
_cell_length_c 11.025705
_cell_angle_alpha 90.000000
_cell_angle_beta 117.006433
_cell_angle_gamma 90.000000
_cell_volume 2013.626318
_symmetry_space_group_name_H-M "C 2/C"
_symmetry_group_IT_number 15
_symmetry_cell_setting 'monoclinic'
loop_
_space_group_symop_operation_xyz
x,y,z
-x,y,1/2-z
-x,-y,-z
x,-y,1/2+z
1/2+x,1/2+y,z
1/2-x,1/2+y,1/2-z
1/2-x,1/2-y,-z
1/2+x,1/2-y,1/2+z
loop_
_atom_site_type_symbol
_atom_site_label
_atom_site_fract_x
_atom_site_fract_y
_atom_site_fract_z
Si Si1 0.978769 0.787865 0.110228
Si Si2 0.682870 0.122869 0.486334
Si Si3 0.327863 0.394262 0.791516
Si Si4 0.162630 0.888183 0.061880
Si Si5 0.138436 0.679189 0.054848
Si Si6 0.818128 0.973492 0.222730
O O1 0.801061 0.816998 0.037176
O O2 0.000000 0.757115 0.250000
O O3 0.093849 0.846728 0.145182
O O4 0.054926 0.745608 0.033441
O O5 0.717135 0.100613 0.365702
O O6 0.503136 0.139950 0.443213
O O7 0.723024 0.070621 0.597784
O O8 0.286859 0.332280 0.703622
O O9 0.288450 0.454432 0.699078
O O10 0.509375 0.395669 0.913193
O O11 0.204099 0.950944 0.146457
O O12 0.301464 0.850295 0.047569
O O13 0.000000 0.965571 0.250000
#
# Coordination Sequence:
#
# PCOD9302353 Si02
#       6
#     8   8   8   8   8   8
#     4  11  21  46  72  94 134 180 232 273 333 419
#     4  11  24  45  68  99 135 183 223 275 351 401
#     4  11  25  43  71  99 135 185 228 279 337 408
#     4  11  23  45  67 103 131 178 233 278 343 397
#     4  12  26  41  66 107 139 172 224 287 349 397
#     4  12  22  45  73  94 133 186 237 274 334 415
#
# _framework density 23.837591
#
# number of rings (size 3 to 8) (size 9 to 14) (size 15 to 20)
#    0.000    0.667    5.000    4.500    2.333    2.667 
#    3.000    1.667    0.000    0.000    0.000    0.000 
#    0.000    0.000    0.000    0.000    0.000    0.000 
#
# Total GULP energy -134051.070209 kJ/mol
# GULP energy per Si atom -5585.461259 kJ/mol
# Density = 2.378334 g / cm^3
# Si number density = 23.837591 Si / 1000 Ang^3
#
#
#
# Elastic Constant Matrix: (Units=GPa)
#
#
# Indices 1 2 3 4 5 6 
#
# 1 140.2552 23.9173 12.9356 0.0000 -16.8027 0.0000
# 2 23.9173 83.4558 7.1023 0.0000 -1.5252 0.0000
# 3 12.9356 7.1023 38.2942 0.0000 -13.7217 0.0000
# 4 0.0000 0.0000 0.0000 5.7058 0.0000 2.9346
# 5 -16.8027 -1.5252 -13.7217 0.0000 17.9360 0.0000
# 6 0.0000 0.0000 0.0000 2.9346 0.0000 40.2949
#
#
#
# Elastic Compliance Matrix: (Units=1/GPa)
#
#
# Indices 1 2 3 4 5 6 
#
# 1 0.008449 -0.002314 0.000469 0.000000 0.008077 0.000000
# 2 -0.002314 0.012820 -0.002731 0.000000 -0.003166 0.000000
# 3 0.000469 -0.002731 0.036557 0.000000 0.028175 0.000000
# 4 0.000000 0.000000 0.000000 0.182079 0.000000 -0.013260
# 5 0.008077 -0.003166 0.028175 0.000000 0.084607 0.000000
# 6 0.000000 0.000000 0.000000 -0.013260 0.000000 0.025783
#
#
# Mechanical properties :
#
#
# Convention : Reuss Voigt Hill
#
# Bulk Modulus (GPa) = 20.54393 38.87953 29.71173
# Shear Modulus (GPa) = 13.30958 27.32402 20.31680
#
# Velocity S-wave (km/s) = 2.36549 3.38932 2.92259
# Velocity P-wave (km/s) = 4.01220 5.62692 4.88671
#
# Compressibility (1/GPa) = 0.04867619
#
# Stress axis : x y z
#
# Youngs Moduli (GPa) = 118.36033 78.00332 27.35429
#
# Poissons Ratio (x) = 0.18047 -0.01284
# Poissons Ratio (y) = 0.27384 0.07470
# Poissons Ratio (z) = -0.05556 0.21301
#
# Static dielectric constant tensor:
#      x y z
#    x 1.856430 0.000000 -0.000480 
#    y 0.000000 1.949060 0.000000 
#    z -0.000480 0.000000 1.947180 
# 
# From -- ./inp_files/80952.got.cif
#   From: 2010.05.17/outbox.cif.g08.bks.cpg/sg15_41_cif.got.tgz:80952.got - 2010.06.03 18:47:42.
