data_PCOD9302271
_publ_section_title
;
Structure prediction by ZEFSAII (Michael W. Deem and Ramdas Pophale) SiO2 
 PCOD9302271
Probable space group: C 2/C
;
_chemical_formula_sum "Si O2"
_cell_formula_units_Z 44
_cell_length_a 25.357601
_cell_length_b 10.993781
_cell_length_c 10.780088
_cell_angle_alpha 90.000000
_cell_angle_beta 139.131921
_cell_angle_gamma 90.000000
_cell_volume 1966.380167
_symmetry_space_group_name_H-M "C 2/C"
_symmetry_group_IT_number 15
_symmetry_cell_setting 'monoclinic'
loop_
_space_group_symop_operation_xyz
x,y,z
-x,y,1/2-z
-x,-y,-z
x,-y,1/2+z
1/2+x,1/2+y,z
1/2-x,1/2+y,1/2-z
1/2-x,1/2-y,-z
1/2+x,1/2-y,1/2+z
loop_
_atom_site_type_symbol
_atom_site_label
_atom_site_fract_x
_atom_site_fract_y
_atom_site_fract_z
Si Si1 0.500000 0.145437 0.250000
Si Si2 0.813388 0.342007 0.053830
Si Si3 0.807080 0.241575 0.786572
Si Si4 0.659910 0.110226 0.396853
Si Si5 0.066355 0.046026 0.473937
Si Si6 0.942957 0.192398 0.420834
O O1 0.577049 0.081673 0.323214
O O2 0.532968 0.228403 0.418994
O O3 0.806003 0.480134 0.084686
O O4 0.897292 0.281184 0.246044
O O5 0.750000 0.250000 0.000000
O O6 0.801414 0.338859 0.885303
O O7 0.722317 0.182980 0.595191
O O8 0.846686 0.304430 0.736126
O O9 0.861637 0.132840 0.938894
O O10 0.000000 0.015010 0.250000
O O11 0.017233 0.126978 0.485406
O O12 0.101930 0.925729 0.601891
#
# Coordination Sequence:
#
# PCOD9302271 Si02
#       6
#     4   8   8   8   8   8
#     4  12  24  46  70 110 148 184 232 302 368 416
#     4  12  27  47  71 102 140 187 240 296 357 424
#     4  11  25  48  72 102 141 189 239 289 358 428
#     4  11  28  47  73 105 146 188 237 297 359 431
#     4  11  21  44  69 103 139 184 236 290 343 422
#     4  11  24  40  70 103 140 183 232 290 354 416
#
# _framework density 22.376142000000002
#
# number of rings (size 3 to 8) (size 9 to 14) (size 15 to 20)
#    0.000    0.727    4.545    2.182    5.091    2.182 
#    3.273    0.000    0.000    0.000    0.000    0.000 
#    0.000    0.000    0.000    0.000    0.000    0.000 
#
# Total GULP energy -122923.808601 kJ/mol
# GULP energy per Si atom -5587.445846 kJ/mol
# Density = 2.232521 g / cm^3
# Si number density = 22.376142 Si / 1000 Ang^3
#
#
#
# Elastic Constant Matrix: (Units=GPa)
#
#
# Indices 1 2 3 4 5 6 
#
# 1 67.9173 -3.6845 27.2805 0.0000 -2.0970 0.0000
# 2 -3.6845 98.7817 36.1734 0.0000 -3.3660 0.0000
# 3 27.2805 36.1734 86.8336 0.0000 -21.0677 0.0000
# 4 0.0000 0.0000 0.0000 25.2959 0.0000 3.8401
# 5 -2.0970 -3.3660 -21.0677 0.0000 34.0696 0.0000
# 6 0.0000 0.0000 0.0000 3.8401 0.0000 16.8580
#
#
#
# Elastic Compliance Matrix: (Units=1/GPa)
#
#
# Indices 1 2 3 4 5 6 
#
# 1 0.017990 0.003457 -0.007931 0.000000 -0.003455 0.000000
# 2 0.003457 0.012756 -0.007109 0.000000 -0.002923 0.000000
# 3 -0.007931 -0.007109 0.019625 0.000000 0.010945 0.000000
# 4 0.000000 0.000000 0.000000 0.040948 0.000000 -0.009328
# 5 -0.003455 -0.002923 0.010945 0.000000 0.035618 0.000000
# 6 0.000000 0.000000 0.000000 -0.009328 0.000000 0.061444
#
#
# Mechanical properties :
#
#
# Convention : Reuss Voigt Hill
#
# Bulk Modulus (GPa) = 36.75638 41.45234 39.10436
# Shear Modulus (GPa) = 22.66386 28.16224 25.41305
#
# Velocity S-wave (km/s) = 3.18600 3.55150 3.37370
# Velocity P-wave (km/s) = 5.47689 5.94836 5.71749
#
# Compressibility (1/GPa) = 0.02720616
#
# Stress axis : x y z
#
# Youngs Moduli (GPa) = 55.58590 78.39367 50.95540
#
# Poissons Ratio (x) = -0.27104 0.40411
# Poissons Ratio (y) = -0.19218 0.36226
# Poissons Ratio (z) = 0.44083 0.55734
#
# Static dielectric constant tensor:
#      x y z
#    x 1.886740 0.000000 0.010030 
#    y 0.000000 1.792290 0.000000 
#    z 0.010030 0.000000 1.871540 
# 
# From -- ./inp_files/118105.got.cif
#   From: 2010.05.17/outbox.cif.g08.bks.cpg/sg15_60_cif.got.tgz:118105.got - 2010.06.03 18:47:42.
