data_PCOD9302026
_publ_section_title
;
Structure prediction by ZEFSAII (Michael W. Deem and Ramdas Pophale) SiO2 
 PCOD9302026
Probable space group: C 2/C
;
_chemical_formula_sum "Si O2"
_cell_formula_units_Z 32
_cell_length_a 24.884387
_cell_length_b 6.540036
_cell_length_c 22.998801
_cell_angle_alpha 90.000000
_cell_angle_beta 160.002156
_cell_angle_gamma 90.000000
_cell_volume 1280.026802
_symmetry_space_group_name_H-M "C 2/C"
_symmetry_group_IT_number 15
_symmetry_cell_setting 'monoclinic'
loop_
_space_group_symop_operation_xyz
x,y,z
-x,y,1/2-z
-x,-y,-z
x,-y,1/2+z
1/2+x,1/2+y,z
1/2-x,1/2+y,1/2-z
1/2-x,1/2-y,-z
1/2+x,1/2-y,1/2+z
loop_
_atom_site_type_symbol
_atom_site_label
_atom_site_fract_x
_atom_site_fract_y
_atom_site_fract_z
Si Si1 0.428866 0.308541 0.382377
Si Si2 0.171111 0.647996 0.706143
Si Si3 0.398305 0.580973 0.033743
Si Si4 0.370379 0.114196 0.660430
O O1 0.262085 0.381756 0.237594
O O2 0.541018 0.306445 0.553666
O O3 0.507199 0.409477 0.406060
O O4 0.401864 0.064738 0.346990
O O5 0.291980 0.706873 0.879308
O O6 0.521496 0.731004 0.190945
O O7 0.259919 0.491483 0.934742
O O8 0.500000 0.009204 0.750000
O O9 0.250000 0.250000 0.500000
#
# Coordination Sequence:
#
# PCOD9302026 Si02
#       4
#     8   8   8   8
#     4  11  24  40  62  94 150 180 221 260 316 413
#     4  11  23  41  61 101 142 184 218 264 323 408
#     4  11  21  41  67  96 133 182 220 272 342 395
#     4   9  21  42  71  97 123 166 230 291 338 392
#
# _framework density 24.999476999999999
#
# number of rings (size 3 to 8) (size 9 to 14) (size 15 to 20)
#    0.000    1.500    2.500    2.250    3.500    0.000 
#    4.500    0.000    0.000   19.500    0.000    0.000 
#    0.000    0.000    0.000    0.000    0.000    0.000 
#
# Total GULP energy -89266.313021 kJ/mol
# GULP energy per Si atom -5579.144564 kJ/mol
# Density = 2.494258 g / cm^3
# Si number density = 24.999477 Si / 1000 Ang^3
#
#
#
# Elastic Constant Matrix: (Units=GPa)
#
#
# Indices 1 2 3 4 5 6 
#
# 1 154.1263 40.3967 67.7711 0.0001 62.1698 0.0000
# 2 40.3967 62.7548 30.4241 0.0000 15.9196 0.0000
# 3 67.7711 30.4241 156.6177 0.0005 10.4948 0.0003
# 4 0.0001 0.0000 0.0005 44.9521 0.0002 15.4730
# 5 62.1698 15.9196 10.4948 0.0002 95.4409 0.0001
# 6 0.0000 0.0000 0.0003 15.4730 0.0001 23.5452
#
#
#
# Elastic Compliance Matrix: (Units=1/GPa)
#
#
# Indices 1 2 3 4 5 6 
#
# 1 0.012004 -0.004115 -0.003946 0.000000 -0.006699 0.000000
# 2 -0.004115 0.019655 -0.002012 0.000000 -0.000377 0.000000
# 3 -0.003946 -0.002012 0.008350 0.000000 0.001988 0.000000
# 4 0.000000 0.000000 0.000000 0.028749 0.000000 -0.018893
# 5 -0.006699 -0.000377 0.001988 0.000000 0.014686 0.000000
# 6 0.000000 0.000000 0.000000 -0.018893 0.000000 0.054887
#
#
# Mechanical properties :
#
#
# Convention : Reuss Voigt Hill
#
# Bulk Modulus (GPa) = 50.34528 72.29808 61.32168
# Shear Modulus (GPa) = 30.28498 48.44810 39.36654
#
# Velocity S-wave (km/s) = 3.48433 4.40701 3.97255
# Velocity P-wave (km/s) = 6.03072 7.40799 6.75455
#
# Compressibility (1/GPa) = 0.01986283
#
# Stress axis : x y z
#
# Youngs Moduli (GPa) = 83.30530 50.87765 119.75711
#
# Poissons Ratio (x) = 0.20935 0.47258
# Poissons Ratio (y) = 0.34278 0.24099
# Poissons Ratio (z) = 0.32873 0.10238
#
# Static dielectric constant tensor:
#      x y z
#    x 2.170720 0.000000 0.143630 
#    y 0.000000 2.114570 0.000000 
#    z 0.143630 0.000000 2.271290 
# 
# From -- ./inp_files/59669.got.cif
#   From: 2010.05.17/outbox.cif.g08.bks.cpg/sg15_30_cif.got.tgz:59669.got - 2010.06.03 18:47:42.
