data_PCOD9302213
_publ_section_title
;
Structure prediction by ZEFSAII (Michael W. Deem and Ramdas Pophale) SiO2 
 PCOD9302213
Probable space group: C 2/C
;
_chemical_formula_sum "Si O2"
_cell_formula_units_Z 60
_cell_length_a 9.156826
_cell_length_b 20.642259
_cell_length_c 16.685402
_cell_angle_alpha 90.000000
_cell_angle_beta 120.396755
_cell_angle_gamma 90.000000
_cell_volume 2720.315496
_symmetry_space_group_name_H-M "C 2/C"
_symmetry_group_IT_number 15
_symmetry_cell_setting 'monoclinic'
loop_
_space_group_symop_operation_xyz
x,y,z
-x,y,1/2-z
-x,-y,-z
x,-y,1/2+z
1/2+x,1/2+y,z
1/2-x,1/2+y,1/2-z
1/2-x,1/2-y,-z
1/2+x,1/2-y,1/2+z
loop_
_atom_site_type_symbol
_atom_site_label
_atom_site_fract_x
_atom_site_fract_y
_atom_site_fract_z
Si Si1 0.646274 0.160838 0.664378
Si Si2 0.747701 0.781839 0.913773
Si Si3 0.158946 0.247812 0.388309
Si Si4 0.445440 0.507216 0.079450
Si Si5 0.000000 0.086750 0.750000
Si Si6 0.088239 0.135816 0.148864
Si Si7 0.416477 0.068548 0.494429
Si Si8 0.615728 0.824689 0.654516
O O1 0.706516 0.223020 0.630985
O O2 0.483603 0.197278 0.663018
O O3 0.538916 0.105922 0.589176
O O4 0.830448 0.126661 0.732394
O O5 0.882302 0.838417 0.933253
O O6 0.562902 0.810772 0.856499
O O7 0.750000 0.750000 0.000000
O O8 0.250000 0.250000 0.500000
O O9 0.308237 0.240401 0.365562
O O10 0.064081 0.178407 0.358712
O O11 0.444609 0.452749 0.151405
O O12 0.572572 0.560218 0.150244
O O13 0.500000 0.500000 0.000000
O O14 0.268922 0.547323 0.027285
O O15 0.252104 0.155919 0.242408
O O16 0.403059 0.118025 0.415918
O O17 0.500000 0.000000 0.500000
#
# Coordination Sequence:
#
# PCOD9302213 Si02
#       8
#     8   8   8   8   4   8   8   8
#     4  11  25  46  72 108 147 198 239 306 387 439
#     4  11  24  43  71 103 144 190 237 301 374 444
#     4  11  21  43  69 105 139 191 244 297 373 440
#     4  12  28  50  78 107 144 203 254 304 367 454
#     4  12  28  52  74 108 164 194 244 320 380 442
#     4  11  25  42  67 110 137 183 250 299 363 438
#     4  12  24  46  74 100 145 202 244 297 376 445
#     4  12  23  43  73 107 145 189 241 310 368 441
#
# _framework density 22.056266999999998
#
# number of rings (size 3 to 8) (size 9 to 14) (size 15 to 20)
#    0.000    0.533    5.333    2.400    7.467    0.000 
#    0.000    2.000    0.000    0.000    0.000    0.000 
#    0.000    0.000    0.000    0.000    0.000    0.000 
#
# Total GULP energy -167135.769911 kJ/mol
# GULP energy per Si atom -5571.192330 kJ/mol
# Density = 2.200607 g / cm^3
# Si number density = 22.056267 Si / 1000 Ang^3
#
#
#
# Elastic Constant Matrix: (Units=GPa)
#
#
# Indices 1 2 3 4 5 6 
#
# 1 120.3954 39.4782 30.5541 0.0000 -1.0623 0.0000
# 2 39.4782 108.9242 20.4203 0.0000 0.4006 0.0000
# 3 30.5541 20.4203 83.1225 0.0000 6.2344 0.0000
# 4 0.0000 0.0000 0.0000 22.1884 0.0000 17.2247
# 5 -1.0623 0.4006 6.2344 0.0000 30.1969 0.0000
# 6 0.0000 0.0000 0.0000 17.2247 0.0000 33.2329
#
#
#
# Elastic Compliance Matrix: (Units=1/GPa)
#
#
# Indices 1 2 3 4 5 6 
#
# 1 0.010099 -0.003096 -0.003028 0.000000 0.001022 0.000000
# 2 -0.003096 0.010577 -0.001464 0.000000 0.000053 0.000000
# 3 -0.003028 -0.001464 0.013722 0.000000 -0.002920 0.000000
# 4 0.000000 0.000000 0.000000 0.075410 0.000000 -0.039085
# 5 0.001022 0.000053 -0.002920 0.000000 0.033754 0.000000
# 6 0.000000 0.000000 0.000000 -0.039085 0.000000 0.050349
#
#
# Mechanical properties :
#
#
# Convention : Reuss Voigt Hill
#
# Bulk Modulus (GPa) = 52.02656 54.81634 53.42145
# Shear Modulus (GPa) = 23.20239 31.92295 27.56267
#
# Velocity S-wave (km/s) = 3.24692 3.80852 3.53888
# Velocity P-wave (km/s) = 6.13970 6.65182 6.40088
#
# Compressibility (1/GPa) = 0.01922095
#
# Stress axis : x y z
#
# Youngs Moduli (GPa) = 99.02255 94.54292 72.87437
#
# Poissons Ratio (x) = 0.29273 0.22067
# Poissons Ratio (y) = 0.30660 0.10671
# Poissons Ratio (z) = 0.29985 0.13844
#
# Static dielectric constant tensor:
#      x y z
#    x 1.900750 0.000000 -0.056020 
#    y 0.000000 1.869020 0.000000 
#    z -0.056020 0.000000 1.886590 
# 
# From -- ./inp_files/192553.got.cif
#   From: 2010.05.17/outbox.cif.g08.bks.cpg/sg15_97_cif.got.tgz:192553.got - 2010.06.03 18:47:42.
