data_PCOD9302595
_publ_section_title
;
Structure prediction by ZEFSAII (Michael W. Deem and Ramdas Pophale) SiO2 
 PCOD9302595
Probable space group: C 2/C
;
_chemical_formula_sum "Si O2"
_cell_formula_units_Z 32
_cell_length_a 20.555624
_cell_length_b 7.756732
_cell_length_c 23.098768
_cell_angle_alpha 90.000000
_cell_angle_beta 160.546217
_cell_angle_gamma 90.000000
_cell_volume 1226.600071
_symmetry_space_group_name_H-M "C 2/C"
_symmetry_group_IT_number 15
_symmetry_cell_setting 'monoclinic'
loop_
_space_group_symop_operation_xyz
x,y,z
-x,y,1/2-z
-x,-y,-z
x,-y,1/2+z
1/2+x,1/2+y,z
1/2-x,1/2+y,1/2-z
1/2-x,1/2-y,-z
1/2+x,1/2-y,1/2+z
loop_
_atom_site_type_symbol
_atom_site_label
_atom_site_fract_x
_atom_site_fract_y
_atom_site_fract_z
Si Si1 0.771374 0.930344 0.983126
Si Si2 0.271575 0.467015 0.800166
Si Si3 0.708164 0.594132 0.803836
Si Si4 0.478511 0.012667 0.634568
O O1 0.851623 0.581038 0.978330
O O2 0.990930 0.948635 0.144618
O O3 0.750000 0.750000 0.000000
O O4 0.692749 0.068070 0.964598
O O5 0.229753 0.473867 0.697293
O O6 0.221490 0.281129 0.785000
O O7 0.126098 0.432923 0.806641
O O8 0.500000 0.500000 0.000000
O O9 0.861408 0.599964 0.773492
#
# Coordination Sequence:
#
# PCOD9302595 Si02
#       4
#     8   8   8   8
#     4  11  22  38  67 102 132 167 227 287 331 379
#     4  12  24  43  65  97 141 177 223 269 337 404
#     4  12  25  44  68 103 137 177 221 280 338 399
#     4  11  23  39  65 102 134 171 218 286 335 383
#
# _framework density 26.088374000000002
#
# number of rings (size 3 to 8) (size 9 to 14) (size 15 to 20)
#    0.000    0.500    5.000    4.500    3.500    0.000 
#    4.500    0.000    0.000    1.500    6.500    0.000 
#    0.000    0.000    0.000    0.000    0.000    0.000 
#
# Total GULP energy -89283.962413 kJ/mol
# GULP energy per Si atom -5580.247651 kJ/mol
# Density = 2.602900 g / cm^3
# Si number density = 26.088374 Si / 1000 Ang^3
#
#
#
# Elastic Constant Matrix: (Units=GPa)
#
#
# Indices 1 2 3 4 5 6 
#
# 1 289.9048 54.4265 109.2039 0.0026 14.2765 -0.0004
# 2 54.4265 58.2722 27.5063 0.0064 4.2147 0.0005
# 3 109.2039 27.5063 232.6370 0.0188 17.8581 -0.0022
# 4 0.0026 0.0064 0.0188 10.2782 0.0011 10.8470
# 5 14.2765 4.2147 17.8581 0.0011 90.0707 -0.0014
# 6 -0.0004 0.0005 -0.0022 10.8470 -0.0014 27.1755
#
#
#
# Elastic Compliance Matrix: (Units=1/GPa)
#
#
# Indices 1 2 3 4 5 6 
#
# 1 0.004828 -0.003634 -0.001819 0.000008 -0.000235 -0.000003
# 2 -0.003634 0.020927 -0.000749 -0.000017 -0.000255 0.000006
# 3 -0.001819 -0.000749 0.005297 -0.000016 -0.000727 0.000007
# 4 0.000008 -0.000017 -0.000016 0.168106 0.000000 -0.067099
# 5 -0.000235 -0.000255 -0.000727 0.000000 0.011296 0.000001
# 6 -0.000003 0.000006 0.000007 -0.067099 0.000001 0.063580
#
#
# Mechanical properties :
#
#
# Convention : Reuss Voigt Hill
#
# Bulk Modulus (GPa) = 53.62389 107.00971 80.31680
# Shear Modulus (GPa) = 17.08505 51.48336 34.28421
#
# Velocity S-wave (km/s) = 2.56186 4.44714 3.62906
# Velocity P-wave (km/s) = 5.41758 8.21442 6.95797
#
# Compressibility (1/GPa) = 0.01864840
#
# Stress axis : x y z
#
# Youngs Moduli (GPa) = 207.10900 47.78492 188.79816
#
# Poissons Ratio (x) = 0.17366 0.34339
# Poissons Ratio (y) = 0.75268 0.14138
# Poissons Ratio (z) = 0.37669 0.03578
#
# Static dielectric constant tensor:
#      x y z
#    x 2.083440 0.000000 0.127510 
#    y 0.000000 2.274370 0.000000 
#    z 0.127510 0.000000 2.063220 
# 
# From -- ./inp_files/165985.got.cif
#   From: 2010.05.17/outbox.cif.g08.bks.cpg/sg15_83_cif.got.tgz:165985.got - 2010.06.03 18:47:42.
