data_PCOD9302404
_publ_section_title
;
Structure prediction by ZEFSAII (Michael W. Deem and Ramdas Pophale) SiO2 
 PCOD9302404
Probable space group: C 2/C
;
_chemical_formula_sum "Si O2"
_cell_formula_units_Z 48
_cell_length_a 7.795746
_cell_length_b 15.370176
_cell_length_c 18.599023
_cell_angle_alpha 90.000000
_cell_angle_beta 81.179204
_cell_angle_gamma 90.000000
_cell_volume 2202.214121
_symmetry_space_group_name_H-M "C 2/C"
_symmetry_group_IT_number 15
_symmetry_cell_setting 'monoclinic'
loop_
_space_group_symop_operation_xyz
x,y,z
-x,y,1/2-z
-x,-y,-z
x,-y,1/2+z
1/2+x,1/2+y,z
1/2-x,1/2+y,1/2-z
1/2-x,1/2-y,-z
1/2+x,1/2-y,1/2+z
loop_
_atom_site_type_symbol
_atom_site_label
_atom_site_fract_x
_atom_site_fract_y
_atom_site_fract_z
Si Si1 0.416702 0.974037 0.828300
Si Si2 0.588443 0.342830 0.605858
Si Si3 0.982970 0.986385 0.173006
Si Si4 0.500410 0.162496 0.055655
Si Si5 0.053569 0.351970 0.102490
Si Si6 0.024530 0.857320 0.447911
O O1 0.500000 0.939069 0.750000
O O2 0.217928 0.993968 0.826028
O O3 0.430159 0.906644 0.892599
O O4 0.500477 0.067037 0.845098
O O5 0.570744 0.419295 0.663926
O O6 0.792091 0.334649 0.577231
O O7 0.519809 0.246848 0.630419
O O8 0.502189 0.371012 0.534917
O O9 0.000000 0.943948 0.250000
O O10 0.047434 0.928263 0.102377
O O11 0.553351 0.262474 0.064202
O O12 0.530680 0.138017 0.970839
O O13 0.264953 0.356788 0.078559
#
# Coordination Sequence:
#
# PCOD9302404 Si02
#       6
#     8   8   8   8   8   8
#     4  11  22  35  50  75 107 140 173 210 254 305
#     4   9  17  35  59  80 101 132 170 213 259 307
#     4  11  22  35  50  75 107 140 173 210 254 305
#     4   9  17  35  59  80 101 132 170 213 259 307
#     4   8  17  34  57  79 103 134 170 209 258 310
#     4   8  17  34  57  79 103 134 170 209 258 310
#
# _framework density 21.796244999999999
#
# number of rings (size 3 to 8) (size 9 to 14) (size 15 to 20)
#    0.000    2.667    0.000    4.000    0.000    1.333 
#    0.000   11.667    0.000    0.000    0.000    0.000 
#    0.000    0.000    0.000    0.000    0.000    0.000 
#
# Total GULP energy -133993.896547 kJ/mol
# GULP energy per Si atom -5583.079023 kJ/mol
# Density = 2.174664 g / cm^3
# Si number density = 21.796245 Si / 1000 Ang^3
#
#
#
# Elastic Constant Matrix: (Units=GPa)
#
#
# Indices 1 2 3 4 5 6 
#
# 1 25.8383 10.0429 10.2748 0.0000 6.9757 0.0000
# 2 10.0429 72.0833 30.1754 0.0000 15.9524 0.0000
# 3 10.2748 30.1754 37.2928 0.0000 17.3363 0.0000
# 4 0.0000 0.0000 0.0000 11.3001 0.0000 -8.5471
# 5 6.9757 15.9524 17.3363 0.0000 25.5683 0.0000
# 6 0.0000 0.0000 0.0000 -8.5471 0.0000 5.0643
#
#
#
# Elastic Compliance Matrix: (Units=1/GPa)
#
#
# Indices 1 2 3 4 5 6 
#
# 1 0.044083 -0.001382 -0.008524 0.000000 -0.005385 0.000000
# 2 -0.001382 0.021116 -0.015707 0.000000 -0.002148 0.000000
# 3 -0.008524 -0.015707 0.052914 0.000000 -0.023753 0.000000
# 4 0.000000 0.000000 0.000000 -0.320025 0.000000 -0.540105
# 5 -0.005385 -0.002148 -0.023753 0.000000 0.058026 0.000000
# 6 0.000000 0.000000 0.000000 -0.540105 0.000000 -0.714075
#
#
# Mechanical properties :
#
#
# Convention : Reuss Voigt Hill
#
# Bulk Modulus (GPa) = 14.95039 26.24452 20.59745
# Shear Modulus (GPa) = -6.37397 14.03463 3.83033
#
# Velocity S-wave (km/s) = -1.71193 2.54027 1.32708
# Velocity P-wave (km/s) = 1.72234 4.54653 3.43784
#
# Compressibility (1/GPa) = 0.06688790
#
# Stress axis : x y z
#
# Youngs Moduli (GPa) = 22.68458 47.35805 18.89847
#
# Poissons Ratio (x) = 0.06543 0.16109
# Poissons Ratio (y) = 0.03134 0.29683
# Poissons Ratio (z) = 0.19337 0.74384
#
# Static dielectric constant tensor:
#      x y z
#    x 1.854150 0.000000 -0.017030 
#    y 0.000000 1.814490 0.000000 
#    z -0.017030 0.000000 1.789880 
# 
# From -- ./inp_files/189197.got.cif
#   From: 2010.05.17/outbox.cif.g08.bks.cpg/sg15_95_cif.got.tgz:189197.got - 2010.06.03 18:47:42.
