data_PCOD9302963
_publ_section_title
;
Structure prediction by ZEFSAII (Michael W. Deem and Ramdas Pophale) SiO2 
 PCOD9302963
Probable space group: C 2/C
;
_chemical_formula_sum "Si O2"
_cell_formula_units_Z 52
_cell_length_a 13.212254
_cell_length_b 6.924661
_cell_length_c 28.399675
_cell_angle_alpha 90.000000
_cell_angle_beta 122.400804
_cell_angle_gamma 90.000000
_cell_volume 2193.795228
_symmetry_space_group_name_H-M "C 2/C"
_symmetry_group_IT_number 15
_symmetry_cell_setting 'monoclinic'
loop_
_space_group_symop_operation_xyz
x,y,z
-x,y,1/2-z
-x,-y,-z
x,-y,1/2+z
1/2+x,1/2+y,z
1/2-x,1/2+y,1/2-z
1/2-x,1/2-y,-z
1/2+x,1/2-y,1/2+z
loop_
_atom_site_type_symbol
_atom_site_label
_atom_site_fract_x
_atom_site_fract_y
_atom_site_fract_z
Si Si1 0.179760 0.418251 0.782384
Si Si2 0.026338 0.225093 0.012328
Si Si3 0.124135 0.810021 0.443981
Si Si4 0.926056 0.764646 0.803634
Si Si5 0.105477 0.268607 0.430678
Si Si6 0.222880 0.429690 0.898807
Si Si7 0.500000 0.569193 0.750000
O O1 0.303028 0.370753 0.786850
O O2 0.206708 0.495001 0.841726
O O3 0.110460 0.215931 0.771553
O O4 0.104855 0.577651 0.735347
O O5 0.159356 0.206220 0.067985
O O6 0.935364 0.319809 0.026235
O O7 0.029013 0.274238 0.957679
O O8 0.000000 0.000000 0.000000
O O9 0.250000 0.750000 0.500000
O O10 0.117232 0.706465 0.392285
O O11 0.124570 0.038445 0.437502
O O12 0.004491 0.921608 0.794920
O O13 0.995072 0.702637 0.867715
O O14 0.212387 0.390851 0.433045
#
# Coordination Sequence:
#
# PCOD9302963 Si02
#       7
#     8   8   8   8   8   8   4
#     4  12  25  45  70 102 137 188 238 293 355 426
#     4   9  20  38  62  92 129 165 219 272 329 408
#     4   9  21  40  64  97 129 172 224 278 341 413
#     4  12  25  45  70 102 137 187 241 290 361 424
#     4  11  22  41  66  93 133 178 220 284 350 410
#     4  11  22  41  65  92 132 175 222 278 350 408
#     4  12  24  44  70  92 142 176 228 306 346 410
#
# _framework density 23.703216000000001
#
# number of rings (size 3 to 8) (size 9 to 14) (size 15 to 20)
#    0.000    1.231    3.077    3.231    0.000    6.154 
#    0.000    4.615    0.000    0.000    0.000    0.000 
#    0.000    0.000    0.000    0.000    0.000    0.000 
#
# Total GULP energy -145195.790517 kJ/mol
# GULP energy per Si atom -5584.453481 kJ/mol
# Density = 2.364927 g / cm^3
# Si number density = 23.703216 Si / 1000 Ang^3
#
#
#
# Elastic Constant Matrix: (Units=GPa)
#
#
# Indices 1 2 3 4 5 6 
#
# 1 60.7679 18.8417 19.5417 0.0000 -19.5321 0.0000
# 2 18.8417 122.8775 -6.7937 0.0000 -9.1201 0.0000
# 3 19.5417 -6.7937 64.4878 0.0000 -11.2862 0.0000
# 4 0.0000 0.0000 0.0000 31.6944 0.0000 0.5939
# 5 -19.5321 -9.1201 -11.2862 0.0000 41.6347 0.0000
# 6 0.0000 0.0000 0.0000 0.5939 0.0000 37.0233
#
#
#
# Elastic Compliance Matrix: (Units=1/GPa)
#
#
# Indices 1 2 3 4 5 6 
#
# 1 0.021757 -0.003043 -0.005505 0.000000 0.008048 0.000000
# 2 -0.003043 0.008795 0.002032 0.000000 0.001050 0.000000
# 3 -0.005505 0.002032 0.017862 0.000000 0.002705 0.000000
# 4 0.000000 0.000000 0.000000 0.031561 0.000000 -0.000506
# 5 0.008048 0.001050 0.002705 0.000000 0.028757 0.000000
# 6 0.000000 0.000000 0.000000 -0.000506 0.000000 0.027018
#
#
# Mechanical properties :
#
#
# Convention : Reuss Voigt Hill
#
# Bulk Modulus (GPa) = 28.26232 34.59030 31.42631
# Shear Modulus (GPa) = 31.13790 36.50670 33.82230
#
# Velocity S-wave (km/s) = 3.62837 3.92874 3.78154
# Velocity P-wave (km/s) = 5.43164 5.93336 5.68804
#
# Compressibility (1/GPa) = 0.03538280
#
# Stress axis : x y z
#
# Youngs Moduli (GPa) = 45.96295 113.69954 55.98334
#
# Poissons Ratio (x) = 0.34601 0.30819
# Poissons Ratio (y) = 0.13987 -0.11378
# Poissons Ratio (z) = 0.25303 -0.23109
#
# Static dielectric constant tensor:
#      x y z
#    x 2.657560 0.000000 0.686890 
#    y 0.000000 1.953480 0.000000 
#    z 0.686890 0.000000 2.680030 
# 
# From -- ./inp_files/312407.got.cif
#   From: 2010.05.17/outbox.cif.g08.bks.cpg/sg15_157_cif.got.tgz:312407.got - 2010.06.03 18:47:42.
