data_PCOD9302743
_publ_section_title
;
Structure prediction by ZEFSAII (Michael W. Deem and Ramdas Pophale) SiO2 
 PCOD9302743
Probable space group: C 2/C
;
_chemical_formula_sum "Si O2"
_cell_formula_units_Z 48
_cell_length_a 13.201485
_cell_length_b 26.876606
_cell_length_c 8.506137
_cell_angle_alpha 90.000000
_cell_angle_beta 138.204343
_cell_angle_gamma 90.000000
_cell_volume 2011.472384
_symmetry_space_group_name_H-M "C 2/C"
_symmetry_group_IT_number 15
_symmetry_cell_setting 'monoclinic'
loop_
_space_group_symop_operation_xyz
x,y,z
-x,y,1/2-z
-x,-y,-z
x,-y,1/2+z
1/2+x,1/2+y,z
1/2-x,1/2+y,1/2-z
1/2-x,1/2-y,-z
1/2+x,1/2-y,1/2+z
loop_
_atom_site_type_symbol
_atom_site_label
_atom_site_fract_x
_atom_site_fract_y
_atom_site_fract_z
Si Si1 0.681259 0.564855 0.837837
Si Si2 0.178544 0.508532 0.204308
Si Si3 0.908031 0.075732 0.309045
Si Si4 0.174880 0.750672 0.194004
Si Si5 0.325199 0.831133 0.536575
Si Si6 0.603535 0.306043 0.714911
O O1 0.762573 0.546164 0.772823
O O2 0.509029 0.559391 0.578566
O O3 0.757378 0.532175 0.061886
O O4 0.717761 0.621474 0.919552
O O5 0.251581 0.546082 0.157614
O O6 0.000000 0.500000 0.000000
O O7 0.885778 0.134985 0.297206
O O8 0.000000 0.066128 0.250000
O O9 0.280672 0.799581 0.331579
O O10 0.200151 0.708555 0.355039
O O11 0.231434 0.719030 0.109307
O O12 0.008554 0.774476 0.028485
O O13 0.500000 0.847485 0.750000
O O14 0.500000 0.300048 0.750000
#
# Coordination Sequence:
#
# PCOD9302743 Si02
#       6
#     8   8   8   8   8   8
#     4  12  25  46  74 102 142 194 251 311 377 456
#     4  12  26  46  72 105 145 189 245 317 381 440
#     4  11  25  47  74 109 147 197 253 310 378 457
#     4  11  22  40  65 101 141 185 241 296 361 431
#     4  11  22  39  68  99 140 183 239 306 363 431
#     4  11  23  42  68 103 150 193 242 297 364 445
#
# _framework density 23.863116000000002
#
# number of rings (size 3 to 8) (size 9 to 14) (size 15 to 20)
#    0.000    0.667    3.333    5.000    0.000    0.000 
#    0.000    0.000    0.000    0.000    0.000    0.000 
#    0.000    0.000    0.000    0.000    0.000    0.000 
#
# Total GULP energy -133874.308383 kJ/mol
# GULP energy per Si atom -5578.096183 kJ/mol
# Density = 2.380880 g / cm^3
# Si number density = 23.863116 Si / 1000 Ang^3
#
#
#
# Elastic Constant Matrix: (Units=GPa)
#
#
# Indices 1 2 3 4 5 6 
#
# 1 102.8561 49.7248 46.4245 0.0000 19.6002 0.0000
# 2 49.7248 134.5512 51.9366 0.0000 1.2381 0.0000
# 3 46.4245 51.9366 74.3508 0.0000 9.8539 0.0000
# 4 0.0000 0.0000 0.0000 40.6163 0.0000 0.5208
# 5 19.6002 1.2381 9.8539 0.0000 53.0729 0.0000
# 6 0.0000 0.0000 0.0000 0.5208 0.0000 47.6900
#
#
#
# Elastic Compliance Matrix: (Units=1/GPa)
#
#
# Indices 1 2 3 4 5 6 
#
# 1 0.014977 -0.002877 -0.006784 0.000000 -0.004204 0.000000
# 2 -0.002877 0.010793 -0.005998 0.000000 0.001924 0.000000
# 3 -0.006784 -0.005998 0.022068 0.000000 -0.001452 0.000000
# 4 0.000000 0.000000 0.000000 0.024624 0.000000 -0.000269
# 5 -0.004204 0.001924 -0.001452 0.000000 0.020619 0.000000
# 6 0.000000 0.000000 0.000000 -0.000269 0.000000 0.020972
#
#
# Mechanical properties :
#
#
# Convention : Reuss Voigt Hill
#
# Bulk Modulus (GPa) = 60.53701 67.54778 64.04239
# Shear Modulus (GPa) = 33.13957 39.18731 36.16344
#
# Velocity S-wave (km/s) = 3.73062 4.05677 3.89711
# Velocity P-wave (km/s) = 6.63176 7.09302 6.86626
#
# Compressibility (1/GPa) = 0.01651882
#
# Stress axis : x y z
#
# Youngs Moduli (GPa) = 66.77075 92.65409 45.31497
#
# Poissons Ratio (x) = 0.26660 0.30743
# Poissons Ratio (y) = 0.19212 0.27178
# Poissons Ratio (z) = 0.45299 0.55570
#
# Static dielectric constant tensor:
#      x y z
#    x 2.053800 0.000000 -0.033980 
#    y 0.000000 1.864800 0.000000 
#    z -0.033980 0.000000 2.088680 
# 
# From -- ./inp_files/43899.got.cif
#   From: 2010.05.17/outbox.cif.g08.bks.cpg/sg15_22_cif.got.tgz:43899.got - 2010.06.03 18:47:42.
