data_PCOD9302187
_publ_section_title
;
Structure prediction by ZEFSAII (Michael W. Deem and Ramdas Pophale) SiO2 
 PCOD9302187
Probable space group: C 2/C
;
_chemical_formula_sum "Si O2"
_cell_formula_units_Z 60
_cell_length_a 11.799391
_cell_length_b 28.354885
_cell_length_c 8.689102
_cell_angle_alpha 90.000000
_cell_angle_beta 98.349851
_cell_angle_gamma 90.000000
_cell_volume 2876.300146
_symmetry_space_group_name_H-M "C 2/C"
_symmetry_group_IT_number 15
_symmetry_cell_setting 'monoclinic'
loop_
_space_group_symop_operation_xyz
x,y,z
-x,y,1/2-z
-x,-y,-z
x,-y,1/2+z
1/2+x,1/2+y,z
1/2-x,1/2+y,1/2-z
1/2-x,1/2-y,-z
1/2+x,1/2-y,1/2+z
loop_
_atom_site_type_symbol
_atom_site_label
_atom_site_fract_x
_atom_site_fract_y
_atom_site_fract_z
Si Si1 0.218883 0.579489 0.630815
Si Si2 0.705145 0.276578 0.343827
Si Si3 0.134950 0.656518 0.814606
Si Si4 0.239713 0.688340 0.162406
Si Si5 0.120245 0.608067 0.308242
Si Si6 0.065719 0.865291 0.421571
Si Si7 0.411810 0.994754 0.846309
Si Si8 0.000000 0.834620 0.750000
O O1 0.194081 0.606531 0.784086
O O2 0.124399 0.596353 0.488572
O O3 0.332014 0.596943 0.568033
O O4 0.202084 0.524305 0.649639
O O5 0.750000 0.250000 0.500000
O O6 0.805409 0.308427 0.293983
O O7 0.681192 0.236162 0.213171
O O8 0.610160 0.312793 0.385802
O O9 0.000000 0.655251 0.750000
O O10 0.180644 0.673544 0.989873
O O11 0.214966 0.644423 0.271101
O O12 0.379120 0.693155 0.195909
O O13 0.117430 0.557848 0.217550
O O14 0.000000 0.632516 0.250000
O O15 0.000000 0.878317 0.250000
O O16 0.015041 0.861929 0.586058
O O17 0.500000 0.020611 0.750000
O O18 0.500000 0.000000 0.000000
#
# Coordination Sequence:
#
# PCOD9302187 Si02
#       8
#     8   8   8   8   8   8   8   4
#     4  11  21  43  61  96 139 169 223 279 348 424
#     4  11  23  44  63  93 135 172 232 286 350 404
#     4  11  25  39  64  99 132 173 229 285 350 416
#     4  12  25  42  67 100 132 183 230 286 346 414
#     4  11  22  40  65  97 132 173 216 277 357 413
#     4  11  25  45  70  98 135 192 235 295 350 417
#     4  11  22  38  68 102 135 174 216 281 361 424
#     4  12  22  44  72  94 136 188 246 280 342 436
#
# _framework density 20.860130999999999
#
# number of rings (size 3 to 8) (size 9 to 14) (size 15 to 20)
#    0.000    0.800    5.333    4.000    2.800    1.600 
#    0.000    0.000    1.467    1.600    0.000    0.000 
#    0.000    0.000    0.000    0.000    0.000    0.000 
#
# Total GULP energy -167041.353880 kJ/mol
# GULP energy per Si atom -5568.045129 kJ/mol
# Density = 2.081265 g / cm^3
# Si number density = 20.860131 Si / 1000 Ang^3
#
#
#
# Elastic Constant Matrix: (Units=GPa)
#
#
# Indices 1 2 3 4 5 6 
#
# 1 57.5710 25.8992 28.2430 0.0000 -4.7180 0.0000
# 2 25.8992 92.1883 3.1801 0.0000 -14.6802 0.0000
# 3 28.2430 3.1801 107.7866 0.0000 -12.8519 0.0000
# 4 0.0000 0.0000 0.0000 22.0305 0.0000 3.4888
# 5 -4.7180 -14.6802 -12.8519 0.0000 29.8855 0.0000
# 6 0.0000 0.0000 0.0000 3.4888 0.0000 26.3659
#
#
#
# Elastic Compliance Matrix: (Units=1/GPa)
#
#
# Indices 1 2 3 4 5 6 
#
# 1 0.023201 -0.006665 -0.006152 0.000000 -0.002257 0.000000
# 2 -0.006665 0.013696 0.002128 0.000000 0.006591 0.000000
# 3 -0.006152 0.002128 0.011421 0.000000 0.004986 0.000000
# 4 0.000000 0.000000 0.000000 0.046363 0.000000 -0.006135
# 5 -0.002257 0.006591 0.004986 0.000000 0.038486 0.000000
# 6 0.000000 0.000000 0.000000 -0.006135 0.000000 0.038740
#
#
# Mechanical properties :
#
#
# Convention : Reuss Voigt Hill
#
# Bulk Modulus (GPa) = 37.11846 41.35451 39.23648
# Shear Modulus (GPa) = 24.71998 29.00462 26.86230
#
# Velocity S-wave (km/s) = 3.44617 3.73290 3.59239
# Velocity P-wave (km/s) = 5.80236 6.20057 6.00477
#
# Compressibility (1/GPa) = 0.02694078
#
# Stress axis : x y z
#
# Youngs Moduli (GPa) = 43.10101 73.01406 87.55640
#
# Poissons Ratio (x) = 0.48666 0.53863
# Poissons Ratio (y) = 0.28728 -0.18634
# Poissons Ratio (z) = 0.26515 -0.15539
#
# Static dielectric constant tensor:
#      x y z
#    x 1.835610 0.000000 0.024020 
#    y 0.000000 1.784060 0.000000 
#    z 0.024020 0.000000 1.822790 
# 
# From -- ./inp_files/35288.got.cif
#   From: 2010.05.17/outbox.cif.g08.bks.cpg/sg15_18_cif.got.tgz:35288.got - 2010.06.03 18:47:42.
