data_PCOD9302179
_publ_section_title
;
Structure prediction by ZEFSAII (Michael W. Deem and Ramdas Pophale) SiO2 
 PCOD9302179
Probable space group: C 2/C
;
_chemical_formula_sum "Si O2"
_cell_formula_units_Z 40
_cell_length_a 14.950462
_cell_length_b 5.779554
_cell_length_c 24.396800
_cell_angle_alpha 90.000000
_cell_angle_beta 54.961202
_cell_angle_gamma 90.000000
_cell_volume 1725.997875
_symmetry_space_group_name_H-M "C 2/C"
_symmetry_group_IT_number 15
_symmetry_cell_setting 'monoclinic'
loop_
_space_group_symop_operation_xyz
x,y,z
-x,y,1/2-z
-x,-y,-z
x,-y,1/2+z
1/2+x,1/2+y,z
1/2-x,1/2+y,1/2-z
1/2-x,1/2-y,-z
1/2+x,1/2-y,1/2+z
loop_
_atom_site_type_symbol
_atom_site_label
_atom_site_fract_x
_atom_site_fract_y
_atom_site_fract_z
Si Si1 0.083245 0.692218 0.491277
Si Si2 0.309933 0.297650 0.738548
Si Si3 0.689689 0.232780 0.636268
Si Si4 0.025999 0.964261 0.607003
Si Si5 0.651123 0.118678 0.064864
O O1 0.181564 0.717733 0.414568
O O2 0.039621 0.920905 0.536943
O O3 0.134934 0.590074 0.529081
O O4 0.000000 0.500000 0.500000
O O5 0.245035 0.546875 0.756950
O O6 0.344894 0.267898 0.789596
O O7 0.415463 0.342641 0.663949
O O8 0.617997 0.387397 0.619655
O O9 0.678402 0.975374 0.615184
O O10 0.039108 0.239357 0.606784
O O11 0.750000 0.250000 0.000000
#
# Coordination Sequence:
#
# PCOD9302179 Si02
#       5
#     8   8   8   8   8
#     4  11  23  39  69 107 145 182 243 308 375 433
#     4  12  31  51  71 107 152 200 254 311 378 444
#     4  11  24  45  71 105 146 195 249 307 372 455
#     4  11  24  46  71 102 142 196 246 301 374 453
#     4  11  21  42  74 105 139 185 247 306 374 451
#
# _framework density 23.174997999999999
#
# number of rings (size 3 to 8) (size 9 to 14) (size 15 to 20)
#    0.000    0.800    4.000    3.000   11.200    2.400 
#    0.000    0.000    0.000    0.000    0.000    0.000 
#    0.000    0.000    0.000    0.000    0.000    0.000 
#
# Total GULP energy -111550.991887 kJ/mol
# GULP energy per Si atom -5577.549594 kJ/mol
# Density = 2.312225 g / cm^3
# Si number density = 23.174998 Si / 1000 Ang^3
#
#
#
# Elastic Constant Matrix: (Units=GPa)
#
#
# Indices 1 2 3 4 5 6 
#
# 1 76.3007 27.5604 17.0136 0.0001 5.1438 0.0041
# 2 27.5604 84.2182 2.7432 -0.0004 4.3501 0.0025
# 3 17.0136 2.7432 52.7253 0.0003 11.8710 0.0008
# 4 0.0001 -0.0004 0.0003 29.4626 -0.0023 8.9484
# 5 5.1438 4.3501 11.8710 -0.0023 42.3401 -0.0010
# 6 0.0041 0.0025 0.0008 8.9484 -0.0010 40.6530
#
#
#
# Elastic Compliance Matrix: (Units=1/GPa)
#
#
# Indices 1 2 3 4 5 6 
#
# 1 0.016039 -0.005087 -0.004899 0.000000 -0.000052 -0.000001
# 2 -0.005087 0.013557 0.001185 0.000000 -0.001107 0.000000
# 3 -0.004899 0.001185 0.021752 -0.000001 -0.005625 0.000000
# 4 0.000000 0.000000 -0.000001 0.036373 0.000002 -0.008006
# 5 -0.000052 -0.001107 -0.005625 0.000002 0.025316 0.000000
# 6 -0.000001 0.000000 0.000000 -0.008006 0.000000 0.026361
#
#
# Mechanical properties :
#
#
# Convention : Reuss Voigt Hill
#
# Bulk Modulus (GPa) = 29.63187 34.20872 31.92029
# Shear Modulus (GPa) = 29.71805 33.55293 31.63549
#
# Velocity S-wave (km/s) = 3.58485 3.80913 3.69869
# Velocity P-wave (km/s) = 5.47255 5.84287 5.66074
#
# Compressibility (1/GPa) = 0.03374745
#
# Stress axis : x y z
#
# Youngs Moduli (GPa) = 62.34678 73.76220 45.97278
#
# Poissons Ratio (x) = 0.37520 0.22523
# Poissons Ratio (y) = 0.31713 -0.05449
# Poissons Ratio (z) = 0.30545 -0.08743
#
# Static dielectric constant tensor:
#      x y z
#    x 1.871980 -0.000010 0.128430 
#    y -0.000010 1.878160 -0.000010 
#    z 0.128430 -0.000010 0.822790 
# 
# From -- ./inp_files/297400.got.cif
#   From: 2010.05.17/outbox.cif.g08.bks.cpg/sg15_149_cif.got.tgz:297400.got - 2010.06.03 18:47:42.
