data_PCOD9302269
_publ_section_title
;
Structure prediction by ZEFSAII (Michael W. Deem and Ramdas Pophale) SiO2 
 PCOD9302269
Probable space group: C 2/C
;
_chemical_formula_sum "Si O2"
_cell_formula_units_Z 48
_cell_length_a 12.124478
_cell_length_b 14.144095
_cell_length_c 14.030576
_cell_angle_alpha 90.000000
_cell_angle_beta 117.750076
_cell_angle_gamma 90.000000
_cell_volume 2129.367474
_symmetry_space_group_name_H-M "C 2/C"
_symmetry_group_IT_number 15
_symmetry_cell_setting 'monoclinic'
loop_
_space_group_symop_operation_xyz
x,y,z
-x,y,1/2-z
-x,-y,-z
x,-y,1/2+z
1/2+x,1/2+y,z
1/2-x,1/2+y,1/2-z
1/2-x,1/2-y,-z
1/2+x,1/2-y,1/2+z
loop_
_atom_site_type_symbol
_atom_site_label
_atom_site_fract_x
_atom_site_fract_y
_atom_site_fract_z
Si Si1 0.962562 0.601274 0.346528
Si Si2 0.534524 0.589042 0.155486
Si Si3 0.223700 0.347136 0.042660
Si Si4 0.631800 0.920166 0.277364
Si Si5 0.742227 0.748512 0.251043
Si Si6 0.330144 0.492744 0.467280
O O1 0.896180 0.496677 0.318117
O O2 0.856255 0.679975 0.318633
O O3 0.000000 0.614390 0.250000
O O4 0.080969 0.620853 0.462226
O O5 0.500000 0.560066 0.250000
O O6 0.620153 0.681899 0.194251
O O7 0.610066 0.519765 0.112047
O O8 0.403720 0.591556 0.047000
O O9 0.247782 0.314530 0.159505
O O10 0.250000 0.250000 0.000000
O O11 0.323540 0.421378 0.040067
O O12 0.500000 0.877921 0.250000
O O13 0.725236 0.833054 0.316916
O O14 0.685859 0.980026 0.385792
#
# Coordination Sequence:
#
# PCOD9302269 Si02
#       6
#     8   8   8   8   8   8
#     4  11  21  44  68  94 141 175 228 286 337 412
#     4  11  25  46  66 102 146 177 228 294 347 415
#     4  12  22  43  72 104 133 177 237 289 339 416
#     4  11  23  47  68  96 142 184 222 287 349 415
#     4  12  26  42  71 108 136 183 234 285 354 414
#     4  11  24  45  72 101 137 186 235 283 348 419
#
# _framework density 22.541905
#
# number of rings (size 3 to 8) (size 9 to 14) (size 15 to 20)
#    0.000    0.667    8.333    0.500    4.667    0.667 
#    3.000    1.667    0.000    0.000    0.000    0.000 
#    0.000    0.000    0.000    0.000    0.000    0.000 
#
# Total GULP energy -133616.645290 kJ/mol
# GULP energy per Si atom -5567.360220 kJ/mol
# Density = 2.249060 g / cm^3
# Si number density = 22.541905 Si / 1000 Ang^3
#
#
#
# Elastic Constant Matrix: (Units=GPa)
#
#
# Indices 1 2 3 4 5 6 
#
# 1 78.8772 35.8526 34.4004 0.0000 10.6215 0.0000
# 2 35.8526 84.2466 -2.4930 0.0000 -6.5140 0.0000
# 3 34.4004 -2.4930 71.3931 0.0000 -7.6754 0.0000
# 4 0.0000 0.0000 0.0000 19.3430 0.0000 17.1163
# 5 10.6215 -6.5140 -7.6754 0.0000 21.9007 0.0000
# 6 0.0000 0.0000 0.0000 17.1163 0.0000 -25.8032
#
#
#
# Elastic Compliance Matrix: (Units=1/GPa)
#
#
# Indices 1 2 3 4 5 6 
#
# 1 0.031849 -0.016186 -0.018798 0.000000 -0.026848 0.000000
# 2 -0.016186 0.020424 0.010401 0.000000 0.017570 0.000000
# 3 -0.018798 0.010401 0.025709 0.000000 0.021220 0.000000
# 4 0.000000 0.000000 0.000000 0.032577 0.000000 0.021609
# 5 -0.026848 0.017570 0.021220 0.000000 0.071345 0.000000
# 6 0.000000 0.000000 0.000000 0.021609 0.000000 -0.024421
#
#
# Mechanical properties :
#
#
# Convention : Reuss Voigt Hill
#
# Bulk Modulus (GPa) = 34.70118 41.11522 37.90820
# Shear Modulus (GPa) = 23.12102 14.20522 18.66312
#
# Velocity S-wave (km/s) = 3.20611 2.51304 2.88050
# Velocity P-wave (km/s) = 5.39750 5.16716 5.28359
#
# Compressibility (1/GPa) = 0.02881747
#
# Stress axis : x y z
#
# Youngs Moduli (GPa) = 31.39858 48.96088 38.89661
#
# Poissons Ratio (x) = 0.79248 0.73117
# Poissons Ratio (y) = 0.50822 -0.40458
# Poissons Ratio (z) = 0.59022 -0.50926
#
# Static dielectric constant tensor:
#      x y z
#    x 1.832070 0.000000 0.106540 
#    y 0.000000 1.785190 0.000000 
#    z 0.106540 0.000000 1.725750 
# 
# From -- ./inp_files/143813.got.cif
#   From: 2010.05.17/outbox.cif.g08.bks.cpg/sg15_72_cif.got.tgz:143813.got - 2010.06.03 18:47:42.
