data_PCOD9302206
_publ_section_title
;
Structure prediction by ZEFSAII (Michael W. Deem and Ramdas Pophale) SiO2 
 PCOD9302206
Probable space group: C 2/C
;
_chemical_formula_sum "Si O2"
_cell_formula_units_Z 60
_cell_length_a 19.568783
_cell_length_b 12.018174
_cell_length_c 23.995039
_cell_angle_alpha 90.000000
_cell_angle_beta 152.346593
_cell_angle_gamma 90.000000
_cell_volume 2619.122528
_symmetry_space_group_name_H-M "C 2/C"
_symmetry_group_IT_number 15
_symmetry_cell_setting 'monoclinic'
loop_
_space_group_symop_operation_xyz
x,y,z
-x,y,1/2-z
-x,-y,-z
x,-y,1/2+z
1/2+x,1/2+y,z
1/2-x,1/2+y,1/2-z
1/2-x,1/2-y,-z
1/2+x,1/2-y,1/2+z
loop_
_atom_site_type_symbol
_atom_site_label
_atom_site_fract_x
_atom_site_fract_y
_atom_site_fract_z
Si Si1 0.942589 0.154636 0.809099
Si Si2 0.500000 0.780249 0.750000
Si Si3 0.243993 0.556437 0.461083
Si Si4 0.752353 0.953987 0.345074
Si Si5 0.532855 0.738499 0.470421
Si Si6 0.415168 0.950092 0.061756
Si Si7 0.000159 0.659586 0.444247
Si Si8 0.182160 0.060819 0.222874
O O1 0.897162 0.213237 0.718784
O O2 0.956969 0.244946 0.868810
O O3 0.108016 0.115768 0.914261
O O4 0.859249 0.045216 0.769884
O O5 0.393263 0.859539 0.637542
O O6 0.265716 0.515074 0.413755
O O7 0.200101 0.459354 0.471575
O O8 0.838681 0.838683 0.412321
O O9 0.580667 0.944140 0.206267
O O10 0.823899 0.021598 0.346042
O O11 0.600332 0.841222 0.486241
O O12 0.438644 0.786208 0.454770
O O13 0.432278 0.662361 0.357774
O O14 0.409004 0.062410 0.020195
O O15 0.847239 0.601189 0.352095
#
# Coordination Sequence:
#
# PCOD9302206 Si02
#       8
#     8   4   8   8   8   8   8   8
#     4  12  25  45  73 102 132 177 230 276 340 407
#     4  12  24  44  72  98 136 178 220 290 334 392
#     4  12  23  46  69  97 134 182 226 267 342 405
#     4  11  21  43  68  93 132 181 224 277 336 397
#     4  12  23  41  69  98 132 184 220 280 342 404
#     4  11  25  42  65 100 136 174 231 277 334 405
#     4  11  24  44  67 100 136 176 221 288 336 393
#     4  11  24  44  67  98 135 171 231 279 337 407
#
# _framework density 22.908435999999998
#
# number of rings (size 3 to 8) (size 9 to 14) (size 15 to 20)
#    0.000    0.533    5.333    3.600    1.867    1.600 
#    0.000    0.000    0.000    0.000    0.000    0.000 
#    0.000    0.000    0.000    0.000    0.000    0.000 
#
# Total GULP energy -168086.279168 kJ/mol
# GULP energy per Si atom -5602.875972 kJ/mol
# Density = 2.285630 g / cm^3
# Si number density = 22.908436 Si / 1000 Ang^3
#
#
#
# Elastic Constant Matrix: (Units=GPa)
#
#
# Indices 1 2 3 4 5 6 
#
# 1 96.8041 34.8961 -7.5603 -0.0007 -16.7756 0.0000
# 2 34.8961 101.0998 0.4319 -0.0014 -14.0678 -0.0003
# 3 -7.5603 0.4319 30.0257 -0.0023 0.9710 -0.0004
# 4 -0.0007 -0.0014 -0.0023 23.7379 -0.0007 -13.0476
# 5 -16.7756 -14.0678 0.9710 -0.0007 36.3427 -0.0001
# 6 0.0000 -0.0003 -0.0004 -13.0476 -0.0001 49.7397
#
#
#
# Elastic Compliance Matrix: (Units=1/GPa)
#
#
# Indices 1 2 3 4 5 6 
#
# 1 0.012686 -0.003793 0.003110 0.000001 0.004305 0.000000
# 2 -0.003793 0.011591 -0.001211 0.000001 0.002768 0.000000
# 3 0.003110 -0.001211 0.034103 0.000004 0.000055 0.000001
# 4 0.000001 0.000001 0.000004 0.049224 0.000001 0.012912
# 5 0.004305 0.002768 0.000055 0.000001 0.030573 0.000000
# 6 0.000000 0.000000 0.000001 0.012912 0.000000 0.023492
#
#
# Mechanical properties :
#
#
# Convention : Reuss Voigt Hill
#
# Bulk Modulus (GPa) = 18.31806 31.49611 24.90709
# Shear Modulus (GPa) = 27.22485 35.30820 31.26652
#
# Velocity S-wave (km/s) = 3.45109 3.93017 3.69839
# Velocity P-wave (km/s) = 4.88810 5.86289 5.39755
#
# Compressibility (1/GPa) = 0.05459093
#
# Stress axis : x y z
#
# Youngs Moduli (GPa) = 78.82495 86.27501 29.32258
#
# Poissons Ratio (x) = 0.32726 -0.09118
# Poissons Ratio (y) = 0.29900 0.03552
# Poissons Ratio (z) = -0.24512 0.10451
#
# Static dielectric constant tensor:
#      x y z
#    x 1.847910 0.000000 -0.016550 
#    y 0.000000 1.856880 0.000000 
#    z -0.016550 0.000000 1.879540 
# 
# From -- ./inp_files/280101.got.cif
#   From: 2010.05.17/outbox.cif.g08.bks.cpg/sg15_141_cif.got.tgz:280101.got - 2010.06.03 18:47:42.
