data_PCOD9302993
_publ_section_title
;
Structure prediction by ZEFSAII (Michael W. Deem and Ramdas Pophale) SiO2 
 PCOD9302993
Probable space group: C 2/C
;
_chemical_formula_sum "Si O2"
_cell_formula_units_Z 44
_cell_length_a 8.252546
_cell_length_b 27.365480
_cell_length_c 9.064505
_cell_angle_alpha 90.000000
_cell_angle_beta 115.307855
_cell_angle_gamma 90.000000
_cell_volume 1850.610637
_symmetry_space_group_name_H-M "C 2/C"
_symmetry_group_IT_number 15
_symmetry_cell_setting 'monoclinic'
loop_
_space_group_symop_operation_xyz
x,y,z
-x,y,1/2-z
-x,-y,-z
x,-y,1/2+z
1/2+x,1/2+y,z
1/2-x,1/2+y,1/2-z
1/2-x,1/2-y,-z
1/2+x,1/2-y,1/2+z
loop_
_atom_site_type_symbol
_atom_site_label
_atom_site_fract_x
_atom_site_fract_y
_atom_site_fract_z
Si Si1 0.185547 0.853612 0.670915
Si Si2 0.704605 0.373090 0.997273
Si Si3 0.697405 0.748456 0.811330
Si Si4 0.795644 0.538401 0.730458
Si Si5 0.685837 0.055987 0.414442
Si Si6 0.000000 0.690654 0.750000
O O1 0.299926 0.805031 0.738346
O O2 0.239956 0.889159 0.561359
O O3 0.976454 0.840719 0.566124
O O4 0.206338 0.886972 0.825754
O O5 0.695550 0.416704 0.111491
O O6 0.884445 0.343489 0.098255
O O7 0.500000 0.726195 0.750000
O O8 0.848485 0.721413 0.775674
O O9 0.750000 0.750000 0.000000
O O10 0.717434 0.487497 0.638329
O O11 0.000000 0.541905 0.750000
O O12 0.812912 0.540661 0.913607
O O13 0.500000 0.059671 0.250000
#
# Coordination Sequence:
#
# PCOD9302993 Si02
#       6
#     8   8   8   8   8   4
#     4  11  25  44  67 104 142 189 239 300 361 434
#     4  11  24  43  73  99 144 188 241 295 369 427
#     4  12  27  46  75 107 145 192 250 303 372 437
#     4  11  22  41  67 103 137 191 237 294 363 436
#     4  11  23  40  70  99 147 183 238 297 362 433
#     4  12  26  48  74 106 148 192 244 312 364 434
#
# _framework density 23.775935
#
# number of rings (size 3 to 8) (size 9 to 14) (size 15 to 20)
#    0.000    0.727    0.909    8.182    2.545    3.636 
#    0.000    0.000    0.000    0.000    0.000    0.000 
#    0.000    0.000    0.000    0.000    0.000    0.000 
#
# Total GULP energy -122903.172439 kJ/mol
# GULP energy per Si atom -5586.507838 kJ/mol
# Density = 2.372182 g / cm^3
# Si number density = 23.775935 Si / 1000 Ang^3
#
#
#
# Elastic Constant Matrix: (Units=GPa)
#
#
# Indices 1 2 3 4 5 6 
#
# 1 105.4806 27.3516 28.0792 0.0000 10.4318 0.0000
# 2 27.3516 85.4917 8.5471 0.0000 -5.4867 0.0000
# 3 28.0792 8.5471 119.7243 0.0000 -8.5825 0.0000
# 4 0.0000 0.0000 0.0000 32.8755 0.0000 -2.9852
# 5 10.4318 -5.4867 -8.5825 0.0000 44.4303 0.0000
# 6 0.0000 0.0000 0.0000 -2.9852 0.0000 34.6400
#
#
#
# Elastic Compliance Matrix: (Units=1/GPa)
#
#
# Indices 1 2 3 4 5 6 
#
# 1 0.011509 -0.003648 -0.002702 0.000000 -0.003675 0.000000
# 2 -0.003648 0.013013 0.000105 0.000000 0.002484 0.000000
# 3 -0.002702 0.000105 0.009152 0.000000 0.002415 0.000000
# 4 0.000000 0.000000 0.000000 0.030658 0.000000 0.002642
# 5 -0.003675 0.002484 0.002415 0.000000 0.024143 0.000000
# 6 0.000000 0.000000 0.000000 0.002642 0.000000 0.029096
#
#
# Mechanical properties :
#
#
# Convention : Reuss Voigt Hill
#
# Bulk Modulus (GPa) = 47.20744 48.73915 47.97330
# Shear Modulus (GPa) = 36.46363 38.83709 37.65036
#
# Velocity S-wave (km/s) = 3.92041 4.04600 3.98370
# Velocity P-wave (km/s) = 6.35540 6.50927 6.43280
#
# Compressibility (1/GPa) = 0.02118310
#
# Stress axis : x y z
#
# Youngs Moduli (GPa) = 86.88795 76.84597 109.26615
#
# Poissons Ratio (x) = 0.28032 0.29527
# Poissons Ratio (y) = 0.31695 -0.01143
# Poissons Ratio (z) = 0.23479 -0.00804
#
# Static dielectric constant tensor:
#      x y z
#    x 1.976050 0.000000 0.002750 
#    y 0.000000 2.131310 0.000000 
#    z 0.002750 0.000000 1.865630 
# 
# From -- ./inp_files/26222.got.cif
#   From: 2010.05.17/outbox.cif.g08.bks.cpg/sg15_14_cif.got.tgz:26222.got - 2010.06.03 18:47:42.
