data_PCOD9302794
_publ_section_title
;
Structure prediction by ZEFSAII (Michael W. Deem and Ramdas Pophale) SiO2 
 PCOD9302794
Probable space group: C 2/C
;
_chemical_formula_sum "Si O2"
_cell_formula_units_Z 52
_cell_length_a 17.880444
_cell_length_b 22.496936
_cell_length_c 5.614440
_cell_angle_alpha 90.000000
_cell_angle_beta 70.790382
_cell_angle_gamma 90.000000
_cell_volume 2132.690498
_symmetry_space_group_name_H-M "C 2/C"
_symmetry_group_IT_number 15
_symmetry_cell_setting 'monoclinic'
loop_
_space_group_symop_operation_xyz
x,y,z
-x,y,1/2-z
-x,-y,-z
x,-y,1/2+z
1/2+x,1/2+y,z
1/2-x,1/2+y,1/2-z
1/2-x,1/2-y,-z
1/2+x,1/2-y,1/2+z
loop_
_atom_site_type_symbol
_atom_site_label
_atom_site_fract_x
_atom_site_fract_y
_atom_site_fract_z
Si Si1 0.316062 0.648209 0.394550
Si Si2 0.632734 0.151413 0.723510
Si Si3 0.553575 0.337196 0.381909
Si Si4 0.500000 0.762815 0.250000
Si Si5 0.702280 0.475157 0.752483
Si Si6 0.835801 0.751955 0.521338
Si Si7 0.610440 0.978008 0.044332
O O1 0.228080 0.648319 0.598376
O O2 0.393877 0.632828 0.469080
O O3 0.308961 0.595533 0.209293
O O4 0.326652 0.714069 0.282571
O O5 0.575401 0.194926 0.633151
O O6 0.626416 0.186635 0.982538
O O7 0.604402 0.086276 0.678383
O O8 0.500000 0.372784 0.250000
O O9 0.496486 0.285005 0.541875
O O10 0.619282 0.298513 0.185117
O O11 0.670382 0.505293 0.025716
O O12 0.795998 0.489548 0.612234
O O13 0.750000 0.750000 0.500000
O O14 0.579788 0.018670 0.300307
#
# Coordination Sequence:
#
# PCOD9302794 Si02
#       7
#     8   8   8   4   8   8   8
#     4  11  23  40  64  96 134 167 218 276 325 397
#     4  11  22  40  63  93 129 170 213 270 323 388
#     4  12  23  39  62  89 132 173 210 264 332 403
#     4  12  24  42  56  94 130 172 214 262 322 400
#     4   9  20  37  64  95 128 169 221 273 329 388
#     4  12  23  37  64  95 128 169 219 264 335 395
#     4   9  20  39  61  90 124 169 221 269 318 379
#
# _framework density 24.382345000000001
#
# number of rings (size 3 to 8) (size 9 to 14) (size 15 to 20)
#    0.000    1.231    4.615    1.385    2.154    4.923 
#    0.000    0.769    0.000    0.923    0.000    0.000 
#    0.000    0.000    0.000    0.000    0.000    0.000 
#
# Total GULP energy -144738.842928 kJ/mol
# GULP energy per Si atom -5566.878574 kJ/mol
# Density = 2.432685 g / cm^3
# Si number density = 24.382345 Si / 1000 Ang^3
#
#
#
# Elastic Constant Matrix: (Units=GPa)
#
#
# Indices 1 2 3 4 5 6 
#
# 1 110.6342 7.2460 16.0401 0.0000 17.1893 0.0000
# 2 7.2460 84.5750 19.6754 0.0000 9.0781 0.0000
# 3 16.0401 19.6754 73.3375 0.0000 20.1071 0.0000
# 4 0.0000 0.0000 0.0000 8.8532 0.0000 12.6250
# 5 17.1893 9.0781 20.1071 0.0000 33.9029 0.0000
# 6 0.0000 0.0000 0.0000 12.6250 0.0000 8.3955
#
#
#
# Elastic Compliance Matrix: (Units=1/GPa)
#
#
# Indices 1 2 3 4 5 6 
#
# 1 0.009868 -0.000161 -0.000902 0.000000 -0.004425 0.000000
# 2 -0.000161 0.012690 -0.002938 0.000000 -0.001574 0.000000
# 3 -0.000902 -0.002938 0.017053 0.000000 -0.008870 0.000000
# 4 0.000000 0.000000 0.000000 -0.098698 0.000000 0.148419
# 5 -0.004425 -0.001574 -0.008870 0.000000 0.037422 0.000000
# 6 0.000000 0.000000 0.000000 0.148419 0.000000 -0.104078
#
#
# Mechanical properties :
#
#
# Convention : Reuss Voigt Hill
#
# Bulk Modulus (GPa) = 31.63566 39.38550 35.51058
# Shear Modulus (GPa) = -46.63914 25.26933 -10.68491
#
# Velocity S-wave (km/s) = -4.37833 3.22278 -2.09565
# Velocity P-wave (km/s) = 3.54354 5.48058 2.95635
#
# Compressibility (1/GPa) = 0.03160989
#
# Stress axis : x y z
#
# Youngs Moduli (GPa) = 101.34162 78.80223 58.64112
#
# Poissons Ratio (x) = 0.01266 0.05289
# Poissons Ratio (y) = 0.01628 0.17228
# Poissons Ratio (z) = 0.09140 0.23151
#
# Static dielectric constant tensor:
#      x y z
#    x 2.043360 0.000000 0.084290 
#    y 0.000000 1.923780 0.000000 
#    z 0.084290 0.000000 2.206920 
# 
# From -- ./inp_files/13646.got.cif
#   From: 2010.05.17/outbox.cif.g08.bks.cpg/sg15_7_cif.got.tgz:13646.got - 2010.06.03 18:47:42.
