data_PCOD9302526
_publ_section_title
;
Structure prediction by ZEFSAII (Michael W. Deem and Ramdas Pophale) SiO2 
 PCOD9302526
Probable space group: C 2/C
;
_chemical_formula_sum "Si O2"
_cell_formula_units_Z 56
_cell_length_a 24.177073
_cell_length_b 14.548005
_cell_length_c 24.274919
_cell_angle_alpha 90.000000
_cell_angle_beta 159.080244
_cell_angle_gamma 90.000000
_cell_volume 3048.640912
_symmetry_space_group_name_H-M "C 2/C"
_symmetry_group_IT_number 15
_symmetry_cell_setting 'monoclinic'
loop_
_space_group_symop_operation_xyz
x,y,z
-x,y,1/2-z
-x,-y,-z
x,-y,1/2+z
1/2+x,1/2+y,z
1/2-x,1/2+y,1/2-z
1/2-x,1/2-y,-z
1/2+x,1/2-y,1/2+z
loop_
_atom_site_type_symbol
_atom_site_label
_atom_site_fract_x
_atom_site_fract_y
_atom_site_fract_z
Si Si1 0.627384 0.459424 0.575179
Si Si2 0.315843 0.352911 0.571208
Si Si3 0.262280 0.276634 0.694793
Si Si4 0.010856 0.573792 0.058596
Si Si5 0.125694 0.434502 0.494936
Si Si6 0.990060 0.779824 0.002411
Si Si7 0.274356 0.896142 0.132461
O O1 0.500000 0.500000 0.500000
O O2 0.557252 0.358327 0.499116
O O3 0.660188 0.536661 0.560015
O O4 0.804593 0.432722 0.756948
O O5 0.500000 0.346911 0.750000
O O6 0.250000 0.250000 0.500000
O O7 0.241434 0.406648 0.553686
O O8 0.269656 0.403129 0.471839
O O9 0.173573 0.365615 0.589412
O O10 0.414357 0.299188 0.871348
O O11 0.269400 0.208631 0.649830
O O12 0.170005 0.219975 0.655277
O O13 0.895262 0.535204 0.998236
O O14 0.963861 0.676292 0.998340
O O15 0.000000 0.500000 0.000000
O O16 0.952735 0.418531 0.311276
#
# Coordination Sequence:
#
# PCOD9302526 Si02
#       7
#     8   8   8   8   8   8   8
#     4  11  23  36  59  87 119 158 198 242 292 350
#     4  12  26  40  60  87 116 154 197 243 302 355
#     4  12  21  33  59  86 123 157 193 239 287 353
#     4  11  22  38  57  86 120 159 198 240 295 351
#     4  11  23  40  60  83 119 159 199 246 293 349
#     4  12  22  37  55  90 124 159 195 235 294 351
#     4  11  23  39  58  87 119 157 200 243 293 351
#
# _framework density 18.368841
#
# number of rings (size 3 to 8) (size 9 to 14) (size 15 to 20)
#    0.000    0.571    7.143    2.143    2.000    1.143 
#    0.000    0.000    0.000    0.857    0.000    0.000 
#    0.000    0.000    0.000    0.000    0.000    0.000 
#
# Total GULP energy -155994.963920 kJ/mol
# GULP energy per Si atom -5571.248711 kJ/mol
# Density = 1.832703 g / cm^3
# Si number density = 18.368841 Si / 1000 Ang^3
#
#
#
# Elastic Constant Matrix: (Units=GPa)
#
#
# Indices 1 2 3 4 5 6 
#
# 1 100.8010 43.6104 28.2845 0.0005 13.6960 0.0003
# 2 43.6104 99.5011 23.5912 0.0029 2.9822 0.0012
# 3 28.2845 23.5912 74.8953 0.0057 8.3777 0.0016
# 4 0.0005 0.0029 0.0057 22.5664 0.0017 4.8619
# 5 13.6960 2.9822 8.3777 0.0017 30.2088 0.0003
# 6 0.0003 0.0012 0.0016 4.8619 0.0003 24.6626
#
#
#
# Elastic Compliance Matrix: (Units=1/GPa)
#
#
# Indices 1 2 3 4 5 6 
#
# 1 0.013634 -0.005121 -0.002994 0.000001 -0.004846 0.000000
# 2 -0.005121 0.012785 -0.002283 -0.000001 0.001693 0.000000
# 3 -0.002994 -0.002283 0.015506 -0.000003 -0.002717 0.000000
# 4 0.000001 -0.000001 -0.000003 0.046279 -0.000002 -0.009123
# 5 -0.004846 0.001693 -0.002717 -0.000002 0.035886 0.000000
# 6 0.000000 0.000000 0.000000 -0.009123 0.000000 0.042346
#
#
# Mechanical properties :
#
#
# Convention : Reuss Voigt Hill
#
# Bulk Modulus (GPa) = 47.32551 51.79663 49.56107
# Shear Modulus (GPa) = 25.73674 27.46832 26.60253
#
# Velocity S-wave (km/s) = 3.74720 3.87120 3.80971
# Velocity P-wave (km/s) = 6.67398 6.94557 6.81113
#
# Compressibility (1/GPa) = 0.02113025
#
# Stress axis : x y z
#
# Youngs Moduli (GPa) = 73.34336 78.21672 64.49261
#
# Poissons Ratio (x) = 0.40053 0.19310
# Poissons Ratio (y) = 0.37557 0.14721
# Poissons Ratio (z) = 0.21960 0.17854
#
# Static dielectric constant tensor:
#      x y z
#    x 1.662410 0.000000 0.018430 
#    y 0.000000 1.334240 0.000020 
#    z 0.018430 0.000020 1.673580 
# 
# From -- ./inp_files/282110.got.cif
#   From: 2010.05.17/outbox.cif.g08.bks.cpg/sg15_142_cif.got.tgz:282110.got - 2010.06.03 18:47:42.
