data_PCOD9302887
_publ_section_title
;
Structure prediction by ZEFSAII (Michael W. Deem and Ramdas Pophale) SiO2 
 PCOD9302887
Probable space group: C 2/C
;
_chemical_formula_sum "Si O2"
_cell_formula_units_Z 48
_cell_length_a 29.865158
_cell_length_b 9.998976
_cell_length_c 24.162963
_cell_angle_alpha 90.000000
_cell_angle_beta 16.049679
_cell_angle_gamma 90.000000
_cell_volume 1994.893357
_symmetry_space_group_name_H-M "C 2/C"
_symmetry_group_IT_number 15
_symmetry_cell_setting 'monoclinic'
loop_
_space_group_symop_operation_xyz
x,y,z
-x,y,1/2-z
-x,-y,-z
x,-y,1/2+z
1/2+x,1/2+y,z
1/2-x,1/2+y,1/2-z
1/2-x,1/2-y,-z
1/2+x,1/2-y,1/2+z
loop_
_atom_site_type_symbol
_atom_site_label
_atom_site_fract_x
_atom_site_fract_y
_atom_site_fract_z
Si Si1 0.896973 0.645088 0.765748
Si Si2 0.913424 0.998616 0.188384
Si Si3 0.545874 0.898484 0.635978
Si Si4 0.406329 0.763067 0.038373
Si Si5 0.950807 0.099057 0.365052
Si Si6 0.530479 0.220061 0.499570
O O1 0.026105 0.637684 0.562321
O O2 0.916351 0.516933 0.780877
O O3 0.934665 0.774047 0.757969
O O4 0.729044 0.649612 0.932438
O O5 0.725889 0.964960 0.422967
O O6 0.944097 0.139943 0.121711
O O7 0.020063 0.008101 0.117449
O O8 0.006643 0.129723 0.934391
O O9 0.500000 0.834590 0.750000
O O10 0.539397 0.814803 0.586373
O O11 0.441806 0.846582 0.052339
O O12 0.216428 0.739480 0.263184
O O13 0.000000 0.029910 0.250000
#
# Coordination Sequence:
#
# PCOD9302887 Si02
#       6
#     8   8   8   8   8   8
#     4  11  23  41  70 102 136 175 228 284 339 398
#     4  11  25  47  67  99 142 179 223 287 338 395
#     4  12  27  46  69 100 140 184 225 275 339 409
#     4  12  26  43  70  98 138 180 222 279 344 405
#     4  11  22  40  69 100 136 182 228 280 335 402
#     4  11  24  45  70 100 133 174 229 284 342 397
#
# _framework density 24.061437999999999
#
# number of rings (size 3 to 8) (size 9 to 14) (size 15 to 20)
#    0.000    0.667    1.667    7.500    4.667    2.000 
#    0.000    0.000    0.000    0.000    0.000    0.000 
#    0.000    0.000    0.000    0.000    0.000    0.000 
#
# Total GULP energy -134149.285593 kJ/mol
# GULP energy per Si atom -5589.553566 kJ/mol
# Density = 2.400667 g / cm^3
# Si number density = 24.061438 Si / 1000 Ang^3
#
#
#
# Elastic Constant Matrix: (Units=GPa)
#
#
# Indices 1 2 3 4 5 6 
#
# 1 158.1038 3.1494 35.4943 -0.0012 11.4923 0.0017
# 2 3.1494 40.3733 4.4498 0.0025 2.2833 0.0019
# 3 35.4943 4.4498 89.3459 0.0033 -7.7310 0.0016
# 4 -0.0012 0.0025 0.0033 10.2513 -0.0022 -0.0928
# 5 11.4923 2.2833 -7.7310 -0.0022 67.7462 -0.0008
# 6 0.0017 0.0019 0.0016 -0.0928 -0.0008 27.5722
#
#
#
# Elastic Compliance Matrix: (Units=1/GPa)
#
#
# Indices 1 2 3 4 5 6 
#
# 1 0.007101 -0.000142 -0.002947 0.000001 -0.001536 0.000000
# 2 -0.000142 0.024974 -0.001271 -0.000006 -0.000963 -0.000002
# 3 -0.002947 -0.001271 0.012598 -0.000004 0.001980 0.000000
# 4 0.000001 -0.000006 -0.000004 0.097552 0.000003 0.000328
# 5 -0.001536 -0.000963 0.001980 0.000003 0.015280 0.000001
# 6 0.000000 -0.000002 0.000000 0.000328 0.000001 0.036269
#
#
# Mechanical properties :
#
#
# Convention : Reuss Voigt Hill
#
# Bulk Modulus (GPa) = 27.81347 41.55667 34.68507
# Shear Modulus (GPa) = 23.31234 37.42924 30.37079
#
# Velocity S-wave (km/s) = 3.11604 3.94835 3.55663
# Velocity P-wave (km/s) = 4.95285 6.17208 5.59577
#
# Compressibility (1/GPa) = 0.03595380
#
# Stress axis : x y z
#
# Youngs Moduli (GPa) = 140.82505 40.04094 79.37911
#
# Poissons Ratio (x) = 0.00570 0.23392
# Poissons Ratio (y) = 0.02004 0.10086
# Poissons Ratio (z) = 0.41499 0.05088
#
# Static dielectric constant tensor:
#      x y z
#    x 1.929450 0.000000 0.055210 
#    y 0.000000 1.939250 0.000000 
#    z 0.055210 0.000000 1.934460 
# 
# From -- ./inp_files/257735.got.cif
#   From: 2010.05.17/outbox.cif.g08.bks.cpg/sg15_129_cif.got.tgz:257735.got - 2010.06.03 18:47:42.
