data_PCOD9302536
_publ_section_title
;
Structure prediction by ZEFSAII (Michael W. Deem and Ramdas Pophale) SiO2 
 PCOD9302536
Probable space group: C 2/C
;
_chemical_formula_sum "Si O2"
_cell_formula_units_Z 56
_cell_length_a 10.576209
_cell_length_b 26.951817
_cell_length_c 14.423238
_cell_angle_alpha 90.000000
_cell_angle_beta 135.508577
_cell_angle_gamma 90.000000
_cell_volume 2881.220371
_symmetry_space_group_name_H-M "C 2/C"
_symmetry_group_IT_number 15
_symmetry_cell_setting 'monoclinic'
loop_
_space_group_symop_operation_xyz
x,y,z
-x,y,1/2-z
-x,-y,-z
x,-y,1/2+z
1/2+x,1/2+y,z
1/2-x,1/2+y,1/2-z
1/2-x,1/2-y,-z
1/2+x,1/2-y,1/2+z
loop_
_atom_site_type_symbol
_atom_site_label
_atom_site_fract_x
_atom_site_fract_y
_atom_site_fract_z
Si Si1 0.688640 0.407009 0.528988
Si Si2 0.794844 0.201551 0.403956
Si Si3 0.200226 0.038133 0.361472
Si Si4 0.210994 0.488371 0.379611
Si Si5 0.474773 0.890635 0.521653
Si Si6 0.822546 0.933964 0.260970
Si Si7 0.978227 0.282731 0.891915
O O1 0.670389 0.357293 0.579002
O O2 0.696946 0.458196 0.589383
O O3 0.871052 0.403546 0.563359
O O4 0.522259 0.411145 0.369924
O O5 0.702731 0.220995 0.262476
O O6 0.642256 0.208905 0.404038
O O7 0.965769 0.234220 0.522176
O O8 0.248614 0.025407 0.493129
O O9 0.356799 0.073091 0.404281
O O10 0.000000 0.060597 0.250000
O O11 0.189637 0.986251 0.299933
O O12 0.279802 0.447251 0.344807
O O13 0.000000 0.493856 0.250000
O O14 0.328592 0.900085 0.364582
O O15 0.528675 0.833240 0.553402
#
# Coordination Sequence:
#
# PCOD9302536 Si02
#       7
#     8   8   8   8   8   8   8
#     4  11  23  36  58  89 124 162 201 250 309 370
#     4   9  20  35  56  85 117 154 196 244 308 371
#     4  12  24  41  58  88 125 169 214 253 299 366
#     4  12  24  39  59  84 129 168 211 254 294 363
#     4  11  22  38  60  85 125 165 202 247 314 363
#     4  12  23  38  59  89 126 167 204 256 305 368
#     4   9  20  36  56  84 119 152 194 250 304 369
#
# _framework density 19.436208000000001
#
# number of rings (size 3 to 8) (size 9 to 14) (size 15 to 20)
#    0.000    1.143    4.286    2.143    8.000    0.000 
#    0.000    0.000    0.000    0.000    0.000    5.000 
#    0.000    0.000    0.000    0.000    0.000    0.000 
#
# Total GULP energy -156526.366006 kJ/mol
# GULP energy per Si atom -5590.227357 kJ/mol
# Density = 1.939197 g / cm^3
# Si number density = 19.436208 Si / 1000 Ang^3
#
#
#
# Elastic Constant Matrix: (Units=GPa)
#
#
# Indices 1 2 3 4 5 6 
#
# 1 33.6712 21.1171 39.4633 0.0000 6.3035 0.0000
# 2 21.1171 91.8735 46.0004 0.0000 1.5036 0.0000
# 3 39.4633 46.0004 133.9598 0.0000 13.1034 0.0000
# 4 0.0000 0.0000 0.0000 31.3291 0.0000 0.4375
# 5 6.3035 1.5036 13.1034 0.0000 28.8483 0.0000
# 6 0.0000 0.0000 0.0000 0.4375 0.0000 11.3973
#
#
#
# Elastic Compliance Matrix: (Units=1/GPa)
#
#
# Indices 1 2 3 4 5 6 
#
# 1 0.047575 -0.004918 -0.011861 0.000000 -0.004751 0.000000
# 2 -0.004918 0.013709 -0.003447 0.000000 0.001926 0.000000
# 3 -0.011861 -0.003447 0.012424 0.000000 -0.002872 0.000000
# 4 0.000000 0.000000 0.000000 0.031936 0.000000 -0.001226
# 5 -0.004751 0.001926 -0.002872 0.000000 0.036906 0.000000
# 6 0.000000 0.000000 0.000000 -0.001226 0.000000 0.087787
#
#
# Mechanical properties :
#
#
# Convention : Reuss Voigt Hill
#
# Bulk Modulus (GPa) = 30.07140 52.51845 41.29492
# Shear Modulus (GPa) = 17.73826 24.50985 21.12406
#
# Velocity S-wave (km/s) = 3.02427 3.55497 3.30030
# Velocity P-wave (km/s) = 5.26312 6.62797 5.98458
#
# Compressibility (1/GPa) = 0.03325419
#
# Stress axis : x y z
#
# Youngs Moduli (GPa) = 21.01949 72.94222 80.49063
#
# Poissons Ratio (x) = 0.35876 0.95473
# Poissons Ratio (y) = 0.10338 0.27746
# Poissons Ratio (z) = 0.24932 0.25144
#
# Static dielectric constant tensor:
#      x y z
#    x 1.716540 0.000000 0.007330 
#    y 0.000000 1.670410 0.000000 
#    z 0.007330 0.000000 1.700170 
# 
# From -- ./inp_files/148563.got.cif
#   From: 2010.05.17/outbox.cif.g08.bks.cpg/sg15_75_cif.got.tgz:148563.got - 2010.06.03 18:47:42.
