data_PCOD9302744
_publ_section_title
;
Structure prediction by ZEFSAII (Michael W. Deem and Ramdas Pophale) SiO2 
 PCOD9302744
Probable space group: C 2/C
;
_chemical_formula_sum "Si O2"
_cell_formula_units_Z 56
_cell_length_a 16.652118
_cell_length_b 8.889093
_cell_length_c 24.909869
_cell_angle_alpha 90.000000
_cell_angle_beta 140.755758
_cell_angle_gamma 90.000000
_cell_volume 2332.633139
_symmetry_space_group_name_H-M "C 2/C"
_symmetry_group_IT_number 15
_symmetry_cell_setting 'monoclinic'
loop_
_space_group_symop_operation_xyz
x,y,z
-x,y,1/2-z
-x,-y,-z
x,-y,1/2+z
1/2+x,1/2+y,z
1/2-x,1/2+y,1/2-z
1/2-x,1/2-y,-z
1/2+x,1/2-y,1/2+z
loop_
_atom_site_type_symbol
_atom_site_label
_atom_site_fract_x
_atom_site_fract_y
_atom_site_fract_z
Si Si1 0.180038 0.585618 0.569929
Si Si2 0.468427 0.325314 0.471081
Si Si3 0.489491 0.587870 0.862897
Si Si4 0.614598 0.608424 0.268933
Si Si5 0.624518 0.195341 0.287861
Si Si6 0.732235 0.067375 0.988747
Si Si7 0.798685 0.593663 0.645909
O O1 0.937795 0.315093 0.469325
O O2 0.251506 0.467687 0.645880
O O3 0.293291 0.709419 0.627034
O O4 0.159291 0.503797 0.502222
O O5 0.500000 0.500000 0.500000
O O6 0.457963 0.331336 0.401575
O O7 0.334097 0.319069 0.430023
O O8 0.418869 0.434676 0.808803
O O9 0.431732 0.699429 0.787608
O O10 0.635309 0.528868 0.940896
O O11 0.500000 0.552349 0.250000
O O12 0.618021 0.783931 0.281383
O O13 0.500000 0.127819 0.250000
O O14 0.711516 0.051752 0.321356
O O15 0.750000 0.250000 0.000000
O O16 0.669685 0.044354 0.898262
#
# Coordination Sequence:
#
# PCOD9302744 Si02
#       7
#     8   8   8   8   8   8   8
#     4  11  22  43  72 100 141 185 245 296 375 434
#     4  12  26  45  68 103 143 189 237 303 366 454
#     4  11  23  43  69  95 140 185 237 294 370 438
#     4  11  22  47  69 102 142 187 233 306 362 432
#     4  11  22  39  69 103 134 183 245 307 364 430
#     4  12  22  42  74 106 136 187 249 313 368 429
#     4  12  26  43  69 105 149 186 240 307 369 444
#
# _framework density 24.007204000000002
#
# number of rings (size 3 to 8) (size 9 to 14) (size 15 to 20)
#    0.000    0.571    7.143    1.286    2.000    2.857 
#    0.000    0.000    0.000    0.000    0.000    0.000 
#    0.000    0.000    0.000    0.000    0.000    0.000 
#
# Total GULP energy -156012.084864 kJ/mol
# GULP energy per Si atom -5571.860174 kJ/mol
# Density = 2.395256 g / cm^3
# Si number density = 24.007204 Si / 1000 Ang^3
#
#
#
# Elastic Constant Matrix: (Units=GPa)
#
#
# Indices 1 2 3 4 5 6 
#
# 1 41.6496 9.7084 11.3813 0.0000 -0.8370 0.0000
# 2 9.7084 143.8174 43.9740 0.0000 -6.9554 0.0000
# 3 11.3813 43.9740 76.3055 0.0000 -9.2124 0.0000
# 4 0.0000 0.0000 0.0000 50.2221 0.0000 -2.3051
# 5 -0.8370 -6.9554 -9.2124 0.0000 25.6868 0.0000
# 6 0.0000 0.0000 0.0000 -2.3051 0.0000 23.4139
#
#
#
# Elastic Compliance Matrix: (Units=1/GPa)
#
#
# Indices 1 2 3 4 5 6 
#
# 1 0.025091 -0.000675 -0.003425 0.000000 -0.000594 0.000000
# 2 -0.000675 0.008467 -0.004708 0.000000 0.000582 0.000000
# 3 -0.003425 -0.004708 0.016893 0.000000 0.004672 0.000000
# 4 0.000000 0.000000 0.000000 0.020002 0.000000 0.001969
# 5 -0.000594 0.000582 0.004672 0.000000 0.040744 0.000000
# 6 0.000000 0.000000 0.000000 0.001969 0.000000 0.042903
#
#
# Mechanical properties :
#
#
# Convention : Reuss Voigt Hill
#
# Bulk Modulus (GPa) = 30.45592 43.54445 37.00018
# Shear Modulus (GPa) = 27.37284 32.97848 30.17566
#
# Velocity S-wave (km/s) = 3.38034 3.71035 3.54918
# Velocity P-wave (km/s) = 5.28671 6.04426 5.67813
#
# Compressibility (1/GPa) = 0.03283434
#
# Stress axis : x y z
#
# Youngs Moduli (GPa) = 39.85452 118.11134 59.19460
#
# Poissons Ratio (x) = 0.07976 0.20274
# Poissons Ratio (y) = 0.02691 0.27870
# Poissons Ratio (z) = 0.13650 0.55609
#
# Static dielectric constant tensor:
#      x y z
#    x 1.933540 0.000000 0.025560 
#    y 0.000000 2.088250 0.000000 
#    z 0.025560 0.000000 1.923920 
# 
# From -- ./inp_files/298565.got.cif
#   From: 2010.05.17/outbox.cif.g08.bks.cpg/sg15_150_cif.got.tgz:298565.got - 2010.06.03 18:47:42.
