data_PCOD9302205
_publ_section_title
;
Structure prediction by ZEFSAII (Michael W. Deem and Ramdas Pophale) SiO2 
 PCOD9302205
Probable space group: C 2/C
;
_chemical_formula_sum "Si O2"
_cell_formula_units_Z 56
_cell_length_a 15.005969
_cell_length_b 12.588069
_cell_length_c 17.353831
_cell_angle_alpha 90.000000
_cell_angle_beta 58.018653
_cell_angle_gamma 90.000000
_cell_volume 2780.528325
_symmetry_space_group_name_H-M "C 2/C"
_symmetry_group_IT_number 15
_symmetry_cell_setting 'monoclinic'
loop_
_space_group_symop_operation_xyz
x,y,z
-x,y,1/2-z
-x,-y,-z
x,-y,1/2+z
1/2+x,1/2+y,z
1/2-x,1/2+y,1/2-z
1/2-x,1/2-y,-z
1/2+x,1/2-y,1/2+z
loop_
_atom_site_type_symbol
_atom_site_label
_atom_site_fract_x
_atom_site_fract_y
_atom_site_fract_z
Si Si1 0.346479 0.576537 0.923433
Si Si2 0.500000 0.437130 0.750000
Si Si3 0.335463 0.904542 0.697195
Si Si4 0.321606 0.953310 0.877359
Si Si5 0.640510 0.726189 0.267326
Si Si6 0.950724 0.707508 0.407217
Si Si7 0.500000 0.100721 0.750000
Si Si8 0.346118 0.123508 0.598064
O O1 0.417204 0.504052 0.836560
O O2 0.420446 0.669081 0.924351
O O3 0.258371 0.620742 0.905470
O O4 0.278084 0.520986 0.022937
O O5 0.442805 0.365549 0.711884
O O6 0.295293 0.946050 0.799096
O O7 0.250127 0.829159 0.695181
O O8 0.434365 0.829113 0.670694
O O9 0.357258 0.010805 0.637146
O O10 0.364911 0.841700 0.888663
O O11 0.426408 0.027203 0.837617
O O12 0.588659 0.824574 0.245993
O O13 0.656505 0.777114 0.343315
O O14 0.936669 0.648978 0.495492
#
# Coordination Sequence:
#
# PCOD9302205 Si02
#       8
#     8   4   8   8   8   8   4   8
#     4  11  25  44  69  98 134 174 221 269 335 386
#     4  11  26  47  64  90 138 179 208 283 336 386
#     4  12  22  39  70  97 132 172 222 274 324 383
#     4  11  21  43  68 100 127 176 220 266 321 401
#     4  11  24  43  62  97 130 169 221 269 328 387
#     4  11  23  39  69 100 135 172 219 275 327 385
#     4  11  22  43  68  88 134 177 210 265 332 388
#     4  11  22  43  66  98 129 173 223 272 317 394
#
# _framework density 20.140056999999999
#
# number of rings (size 3 to 8) (size 9 to 14) (size 15 to 20)
#    0.000    0.857    4.286    3.857    4.000    1.143 
#    2.571    2.857    0.000    0.000    0.000    0.000 
#    0.000    0.000    0.000    0.000    0.000    0.000 
#
# Total GULP energy -156069.534544 kJ/mol
# GULP energy per Si atom -5573.911948 kJ/mol
# Density = 2.009422 g / cm^3
# Si number density = 20.140057 Si / 1000 Ang^3
#
#
#
# Elastic Constant Matrix: (Units=GPa)
#
#
# Indices 1 2 3 4 5 6 
#
# 1 60.4603 29.6262 23.5579 0.0000 -6.2072 0.0000
# 2 29.6262 94.5053 58.5660 0.0000 -6.1215 0.0000
# 3 23.5579 58.5660 126.0934 0.0000 -6.5346 0.0000
# 4 0.0000 0.0000 0.0000 2.2151 0.0000 2.0816
# 5 -6.2072 -6.1215 -6.5346 0.0000 30.2010 0.0000
# 6 0.0000 0.0000 0.0000 2.0816 0.0000 39.5459
#
#
#
# Elastic Compliance Matrix: (Units=1/GPa)
#
#
# Indices 1 2 3 4 5 6 
#
# 1 0.019881 -0.005393 -0.001067 0.000000 0.002762 0.000000
# 2 -0.005393 0.016392 -0.006565 0.000000 0.000794 0.000000
# 3 -0.001067 -0.006565 0.011224 0.000000 0.000879 0.000000
# 4 0.000000 0.000000 0.000000 0.474949 0.000000 -0.025000
# 5 0.002762 0.000794 0.000879 0.000000 0.034030 0.000000
# 6 0.000000 0.000000 0.000000 -0.025000 0.000000 0.026603
#
#
# Mechanical properties :
#
#
# Convention : Reuss Voigt Hill
#
# Bulk Modulus (GPa) = 46.62077 56.06213 51.34145
# Shear Modulus (GPa) = 8.11323 25.67966 16.89644
#
# Velocity S-wave (km/s) = 2.00927 3.57466 2.89960
# Velocity P-wave (km/s) = 5.34616 6.70330 6.06282
#
# Compressibility (1/GPa) = 0.02144967
#
# Stress axis : x y z
#
# Youngs Moduli (GPa) = 50.29821 61.00694 89.09086
#
# Poissons Ratio (x) = 0.32899 0.09502
# Poissons Ratio (y) = 0.27124 0.58485
# Poissons Ratio (z) = 0.05365 0.40049
#
# Static dielectric constant tensor:
#      x y z
#    x 1.740110 0.000000 0.001490 
#    y 0.000000 1.729980 0.000000 
#    z 0.001490 0.000000 1.747580 
# 
# From -- ./inp_files/203987.got.cif
#   From: 2010.05.17/outbox.cif.g08.bks.cpg/sg15_102_cif.got.tgz:203987.got - 2010.06.03 18:47:42.
