data_PCOD9302281
_publ_section_title
;
Structure prediction by ZEFSAII (Michael W. Deem and Ramdas Pophale) SiO2 
 PCOD9302281
Probable space group: C 2/C
;
_chemical_formula_sum "Si O2"
_cell_formula_units_Z 60
_cell_length_a 11.618706
_cell_length_b 21.902994
_cell_length_c 11.435366
_cell_angle_alpha 90.000000
_cell_angle_beta 88.566814
_cell_angle_gamma 90.000000
_cell_volume 2909.212431
_symmetry_space_group_name_H-M "C 2/C"
_symmetry_group_IT_number 15
_symmetry_cell_setting 'monoclinic'
loop_
_space_group_symop_operation_xyz
x,y,z
-x,y,1/2-z
-x,-y,-z
x,-y,1/2+z
1/2+x,1/2+y,z
1/2-x,1/2+y,1/2-z
1/2-x,1/2-y,-z
1/2+x,1/2-y,1/2+z
loop_
_atom_site_type_symbol
_atom_site_label
_atom_site_fract_x
_atom_site_fract_y
_atom_site_fract_z
Si Si1 0.281252 0.903161 0.912338
Si Si2 0.000000 0.430641 0.250000
Si Si3 0.875362 0.369963 0.472281
Si Si4 0.167966 0.497501 0.911790
Si Si5 0.134926 0.011657 0.258080
Si Si6 0.358599 0.377448 0.141756
Si Si7 0.044896 0.295988 0.621198
Si Si8 0.384845 0.664715 0.903617
O O1 0.201959 0.932961 0.816182
O O2 0.371608 0.853705 0.866189
O O3 0.345295 0.958575 0.976614
O O4 0.201308 0.869845 0.009335
O O5 0.942702 0.389743 0.352649
O O6 0.904900 0.473200 0.191216
O O7 0.870121 0.429969 0.554077
O O8 0.744764 0.356175 0.437743
O O9 0.942688 0.317344 0.538561
O O10 0.300789 0.498492 0.866732
O O11 0.000000 0.022782 0.250000
O O12 0.150100 0.950127 0.334446
O O13 0.485174 0.361617 0.091322
O O14 0.347829 0.347340 0.270416
O O15 0.108961 0.236536 0.570974
O O16 0.000000 0.278018 0.750000
#
# Coordination Sequence:
#
# PCOD9302281 Si02
#       8
#     8   4   8   8   8   8   8   8
#     4  12  24  43  71 100 133 178 225 283 348 405
#     4  12  22  42  62 100 144 176 224 272 356 416
#     4  12  26  39  71 104 134 180 230 289 341 411
#     4  12  23  40  67 101 143 174 213 284 357 416
#     4  12  24  40  67 105 136 168 221 287 348 416
#     4  11  21  44  71  98 130 177 223 280 342 408
#     4  12  27  48  67  99 139 190 233 281 334 407
#     4  11  24  48  71  92 137 187 233 269 342 415
#
# _framework density 20.624139
#
# number of rings (size 3 to 8) (size 9 to 14) (size 15 to 20)
#    0.000    0.267    8.000    1.600    4.667    1.600 
#    0.000    0.000    0.000    0.000    0.000    0.000 
#    0.000    0.000    0.000    0.000    0.000    0.000 
#
# Total GULP energy -167974.977936 kJ/mol
# GULP energy per Si atom -5599.165931 kJ/mol
# Density = 2.057720 g / cm^3
# Si number density = 20.624139 Si / 1000 Ang^3
#
#
#
# Elastic Constant Matrix: (Units=GPa)
#
#
# Indices 1 2 3 4 5 6 
#
# 1 81.2191 6.9765 11.3594 0.0000 24.5396 0.0000
# 2 6.9765 74.4298 -1.3773 0.0000 18.2498 0.0000
# 3 11.3594 -1.3773 48.4095 0.0000 11.2835 0.0000
# 4 0.0000 0.0000 0.0000 14.1618 0.0000 -8.6113
# 5 24.5396 18.2498 11.2835 0.0000 37.3753 0.0000
# 6 0.0000 0.0000 0.0000 -8.6113 0.0000 28.1472
#
#
#
# Elastic Compliance Matrix: (Units=1/GPa)
#
#
# Indices 1 2 3 4 5 6 
#
# 1 0.015514 0.001059 -0.001200 0.000000 -0.010341 0.000000
# 2 0.001059 0.015585 0.002292 0.000000 -0.008997 0.000000
# 3 -0.001200 0.002292 0.022677 0.000000 -0.007177 0.000000
# 4 0.000000 0.000000 0.000000 0.086751 0.000000 0.026540
# 5 -0.010341 -0.008997 -0.007177 0.000000 0.040105 0.000000
# 6 0.000000 0.000000 0.000000 0.026540 0.000000 0.043647
#
#
# Mechanical properties :
#
#
# Convention : Reuss Voigt Hill
#
# Bulk Modulus (GPa) = 17.21840 26.44175 21.83007
# Shear Modulus (GPa) = 20.89125 28.41016 24.65070
#
# Velocity S-wave (km/s) = 3.18614 3.71552 3.46097
# Velocity P-wave (km/s) = 4.67997 5.59065 5.15546
#
# Compressibility (1/GPa) = 0.05807742
#
# Stress axis : x y z
#
# Youngs Moduli (GPa) = 64.45964 64.16571 44.09789
#
# Poissons Ratio (x) = -0.06796 0.05291
# Poissons Ratio (y) = -0.06827 -0.10107
# Poissons Ratio (z) = 0.07735 -0.14706
#
# Static dielectric constant tensor:
#      x y z
#    x 1.733990 0.000000 -0.004090 
#    y 0.000000 1.711630 0.000000 
#    z -0.004090 0.000000 1.724960 
# 
# From -- ./inp_files/89613.got.cif
#   From: 2010.05.17/outbox.cif.g08.bks.cpg/sg15_45_cif.got.tgz:89613.got - 2010.06.03 18:47:42.
