data_PCOD9302267
_publ_section_title
;
Structure prediction by ZEFSAII (Michael W. Deem and Ramdas Pophale) SiO2 
 PCOD9302267
Probable space group: C 2/C
;
_chemical_formula_sum "Si O2"
_cell_formula_units_Z 52
_cell_length_a 15.910778
_cell_length_b 9.845235
_cell_length_c 19.521016
_cell_angle_alpha 90.000000
_cell_angle_beta 127.647239
_cell_angle_gamma 90.000000
_cell_volume 2421.184677
_symmetry_space_group_name_H-M "C 2/C"
_symmetry_group_IT_number 15
_symmetry_cell_setting 'monoclinic'
loop_
_space_group_symop_operation_xyz
x,y,z
-x,y,1/2-z
-x,-y,-z
x,-y,1/2+z
1/2+x,1/2+y,z
1/2-x,1/2+y,1/2-z
1/2-x,1/2-y,-z
1/2+x,1/2-y,1/2+z
loop_
_atom_site_type_symbol
_atom_site_label
_atom_site_fract_x
_atom_site_fract_y
_atom_site_fract_z
Si Si1 0.546980 0.817587 0.985441
Si Si2 0.632896 0.534435 0.986430
Si Si3 0.220564 0.466643 0.313309
Si Si4 0.699323 0.176337 0.181595
Si Si5 0.471059 0.728927 0.088927
Si Si6 0.500000 0.143582 0.750000
Si Si7 0.798582 0.432959 0.958857
O O1 0.601430 0.690426 0.975577
O O2 0.544662 0.791082 0.066155
O O3 0.608332 0.955917 0.001821
O O4 0.426069 0.821267 0.898918
O O5 0.692422 0.495166 0.085776
O O6 0.535194 0.431219 0.927780
O O7 0.711502 0.497275 0.964144
O O8 0.253492 0.326938 0.292220
O O9 0.215962 0.588185 0.257076
O O10 0.106950 0.444644 0.294121
O O11 0.748261 0.104829 0.138436
O O12 0.496276 0.768450 0.178784
O O13 0.355732 0.797853 0.016480
#
# Coordination Sequence:
#
# PCOD9302267 Si02
#       7
#     8   8   8   8   8   4   8
#     4  11  24  43  68  97 134 179 215 274 339 398
#     4  12  24  43  71  98 132 178 225 272 333 391
#     4  12  26  45  67 101 133 174 220 281 330 395
#     4  11  26  44  68  96 134 173 224 274 334 397
#     4  11  22  42  70  95 130 175 226 272 322 397
#     4  12  24  40  70 100 132 172 226 274 330 388
#     4  11  21  44  67  96 129 175 220 268 329 399
#
# _framework density 21.47709
#
# number of rings (size 3 to 8) (size 9 to 14) (size 15 to 20)
#    0.000    0.615    4.615    6.000    4.308    0.000 
#    0.000    0.000    0.000    0.000    0.000    0.000 
#    0.000    0.000    0.000    0.000    0.000    0.000 
#
# Total GULP energy -145587.463847 kJ/mol
# GULP energy per Si atom -5599.517840 kJ/mol
# Density = 2.142821 g / cm^3
# Si number density = 21.477090 Si / 1000 Ang^3
#
#
#
# Elastic Constant Matrix: (Units=GPa)
#
#
# Indices 1 2 3 4 5 6 
#
# 1 63.0479 9.9528 7.0823 0.0000 1.7045 0.0000
# 2 9.9528 77.3985 -20.2212 0.0000 15.0883 0.0000
# 3 7.0823 -20.2212 50.9453 0.0000 -14.8789 0.0000
# 4 0.0000 0.0000 0.0000 18.4917 0.0000 3.5225
# 5 1.7045 15.0883 -14.8789 0.0000 17.5668 0.0000
# 6 0.0000 0.0000 0.0000 3.5225 0.0000 34.1486
#
#
#
# Elastic Compliance Matrix: (Units=1/GPa)
#
#
# Indices 1 2 3 4 5 6 
#
# 1 0.016848 -0.002713 -0.004273 0.000000 -0.002924 0.000000
# 2 -0.002713 0.016311 0.003769 0.000000 -0.010554 0.000000
# 3 -0.004273 0.003769 0.027762 0.000000 0.020692 0.000000
# 4 0.000000 0.000000 0.000000 0.055162 0.000000 -0.005690
# 5 -0.002924 -0.010554 0.020692 0.000000 0.083800 0.000000
# 6 0.000000 0.000000 0.000000 -0.005690 0.000000 0.029871
#
#
# Mechanical properties :
#
#
# Convention : Reuss Voigt Hill
#
# Bulk Modulus (GPa) = 18.35283 20.55772 19.45527
# Shear Modulus (GPa) = 19.65790 27.01329 23.33560
#
# Velocity S-wave (km/s) = 3.02867 3.55036 3.29984
# Velocity P-wave (km/s) = 4.56008 5.13804 4.85766
#
# Compressibility (1/GPa) = 0.05448751
#
# Stress axis : x y z
#
# Youngs Moduli (GPa) = 59.35331 61.30764 36.02052
#
# Poissons Ratio (x) = 0.16632 0.15391
# Poissons Ratio (y) = 0.16102 -0.13576
# Poissons Ratio (z) = 0.25361 -0.23106
#
# Static dielectric constant tensor:
#      x y z
#    x 1.811420 0.000000 0.021060 
#    y 0.000000 1.733850 0.000000 
#    z 0.021060 0.000000 1.769330 
# 
# From -- ./inp_files/247871.got.cif
#   From: 2010.05.17/outbox.cif.g08.bks.cpg/sg15_124_cif.got.tgz:247871.got - 2010.06.03 18:47:42.
