data_PCOD9302362
_publ_section_title
;
Structure prediction by ZEFSAII (Michael W. Deem and Ramdas Pophale) SiO2 
 PCOD9302362
Probable space group: C 2/C
;
_chemical_formula_sum "Si O2"
_cell_formula_units_Z 64
_cell_length_a 15.331646
_cell_length_b 10.815060
_cell_length_c 16.517494
_cell_angle_alpha 90.000000
_cell_angle_beta 92.643215
_cell_angle_gamma 90.000000
_cell_volume 2735.895905
_symmetry_space_group_name_H-M "C 2/C"
_symmetry_group_IT_number 15
_symmetry_cell_setting 'monoclinic'
loop_
_space_group_symop_operation_xyz
x,y,z
-x,y,1/2-z
-x,-y,-z
x,-y,1/2+z
1/2+x,1/2+y,z
1/2-x,1/2+y,1/2-z
1/2-x,1/2-y,-z
1/2+x,1/2-y,1/2+z
loop_
_atom_site_type_symbol
_atom_site_label
_atom_site_fract_x
_atom_site_fract_y
_atom_site_fract_z
Si Si1 0.197204 0.642991 0.845503
Si Si2 0.127230 0.905921 0.856546
Si Si3 0.952713 0.085889 0.432617
Si Si4 0.412303 0.168886 0.993727
Si Si5 0.285094 0.058004 0.478828
Si Si6 0.066461 0.666881 0.130748
Si Si7 0.873533 0.080139 0.790102
Si Si8 0.505697 0.921404 0.333849
O O1 0.173718 0.784176 0.822797
O O2 0.269014 0.594074 0.787449
O O3 0.108746 0.565341 0.847178
O O4 0.232783 0.630312 0.938590
O O5 0.195648 0.955758 0.925557
O O6 0.037951 0.857539 0.892089
O O7 0.102766 0.012585 0.792064
O O8 0.892534 0.189914 0.469857
O O9 0.900951 0.008097 0.364832
O O10 0.000000 0.000000 0.500000
O O11 0.466542 0.121302 0.917603
O O12 0.332869 0.073279 0.998300
O O13 0.479203 0.176239 0.071854
O O14 0.353921 0.136158 0.427047
O O15 0.086087 0.786816 0.185370
O O16 0.050489 0.545121 0.182842
O O17 0.500000 0.844060 0.250000
#
# Coordination Sequence:
#
# PCOD9302362 Si02
#       8
#     8   8   8   8   8   8   8   8
#     4  12  24  46  74 106 142 193 249 293 357 435
#     4  12  27  45  71 106 147 188 238 301 364 431
#     4  12  25  47  71 100 141 200 238 288 367 441
#     4  11  22  44  73 105 139 184 249 297 353 435
#     4  11  22  44  76 108 135 187 250 305 346 424
#     4  11  21  47  68 102 144 189 234 300 360 430
#     4  12  29  43  70 108 150 189 234 295 372 432
#     4  11  24  38  74 105 139 180 245 305 358 414
#
# _framework density 23.392702
#
# number of rings (size 3 to 8) (size 9 to 14) (size 15 to 20)
#    0.000    0.500    6.250    2.250    5.250    1.000 
#    0.000    5.000    0.000    0.000    0.000    0.000 
#    0.000    0.000    0.000    0.000    0.000    0.000 
#
# Total GULP energy -178970.927269 kJ/mol
# GULP energy per Si atom -5592.841477 kJ/mol
# Density = 2.333946 g / cm^3
# Si number density = 23.392702 Si / 1000 Ang^3
#
#
#
# Elastic Constant Matrix: (Units=GPa)
#
#
# Indices 1 2 3 4 5 6 
#
# 1 64.7487 20.5341 -12.5632 0.0000 4.6180 0.0000
# 2 20.5341 116.6804 9.5983 0.0000 13.0964 0.0000
# 3 -12.5632 9.5983 72.1342 0.0000 14.4337 0.0000
# 4 0.0000 0.0000 0.0000 38.7898 0.0000 -2.2808
# 5 4.6180 13.0964 14.4337 0.0000 37.5162 0.0000
# 6 0.0000 0.0000 0.0000 -2.2808 0.0000 37.6095
#
#
#
# Elastic Compliance Matrix: (Units=1/GPa)
#
#
# Indices 1 2 3 4 5 6 
#
# 1 0.017377 -0.003094 0.003954 0.000000 -0.002580 0.000000
# 2 -0.003094 0.009496 -0.001317 0.000000 -0.002427 0.000000
# 3 0.003954 -0.001317 0.015961 0.000000 -0.006168 0.000000
# 4 0.000000 0.000000 0.000000 0.025872 0.000000 0.001569
# 5 -0.002580 -0.002427 -0.006168 0.000000 0.030193 0.000000
# 6 0.000000 0.000000 0.000000 0.001569 0.000000 0.026684
#
#
# Mechanical properties :
#
#
# Convention : Reuss Voigt Hill
#
# Bulk Modulus (GPa) = 23.85403 32.07796 27.96599
# Shear Modulus (GPa) = 35.59507 38.51604 37.05556
#
# Velocity S-wave (km/s) = 3.90504 4.06211 3.98435
# Velocity P-wave (km/s) = 5.52737 5.97859 5.75740
#
# Compressibility (1/GPa) = 0.04192164
#
# Stress axis : x y z
#
# Youngs Moduli (GPa) = 57.54813 105.31154 62.65222
#
# Poissons Ratio (x) = 0.32580 -0.24775
# Poissons Ratio (y) = 0.17804 0.08249
# Poissons Ratio (z) = -0.22757 0.13865
#
# Static dielectric constant tensor:
#      x y z
#    x 1.877880 0.000000 0.006940 
#    y 0.000000 1.972270 0.000000 
#    z 0.006940 0.000000 1.927650 
# 
# From -- ./inp_files/204456.got.cif
#   From: 2010.05.17/outbox.cif.g08.bks.cpg/sg15_103_cif.got.tgz:204456.got - 2010.06.03 18:47:42.
