data_PCOD9302142
_publ_section_title
;
Structure prediction by ZEFSAII (Michael W. Deem and Ramdas Pophale) SiO2 
 PCOD9302142
Probable space group: C 2/C
;
_chemical_formula_sum "Si O2"
_cell_formula_units_Z 48
_cell_length_a 17.104587
_cell_length_b 12.233471
_cell_length_c 21.291382
_cell_angle_alpha 90.000000
_cell_angle_beta 151.693148
_cell_angle_gamma 90.000000
_cell_volume 2112.621715
_symmetry_space_group_name_H-M "C 2/C"
_symmetry_group_IT_number 15
_symmetry_cell_setting 'monoclinic'
loop_
_space_group_symop_operation_xyz
x,y,z
-x,y,1/2-z
-x,-y,-z
x,-y,1/2+z
1/2+x,1/2+y,z
1/2-x,1/2+y,1/2-z
1/2-x,1/2-y,-z
1/2+x,1/2-y,1/2+z
loop_
_atom_site_type_symbol
_atom_site_label
_atom_site_fract_x
_atom_site_fract_y
_atom_site_fract_z
Si Si1 0.449205 0.117453 0.146959
Si Si2 0.352482 0.750215 0.275154
Si Si3 0.482521 0.039297 0.559807
Si Si4 0.035534 0.266633 0.014865
Si Si5 0.899604 0.961612 0.740367
Si Si6 0.925941 0.156343 0.588442
O O1 0.500000 0.067766 0.250000
O O2 0.500777 0.244554 0.181402
O O3 0.249218 0.119360 0.007286
O O4 0.516202 0.062776 0.130386
O O5 0.449068 0.863677 0.345394
O O6 0.160137 0.759367 0.121880
O O7 0.368741 0.713516 0.359293
O O8 0.438235 0.657678 0.294562
O O9 0.545345 0.100925 0.537741
O O10 0.287894 0.044916 0.413264
O O11 0.102164 0.214744 0.998434
O O12 0.000000 0.990052 0.750000
O O13 0.947618 0.055664 0.823909
#
# Coordination Sequence:
#
# PCOD9302142 Si02
#       6
#     8   8   8   8   8   8
#     4  11  25  41  65 100 133 177 232 280 336 416
#     4   9  22  43  67 102 131 177 230 277 338 410
#     4   9  22  45  64  99 135 177 224 284 342 401
#     4   9  22  44  66  99 132 177 226 280 340 400
#     4  11  21  42  68  95 137 180 218 282 350 400
#     4  11  25  42  68  94 137 179 227 280 344 409
#
# _framework density 22.720583000000001
#
# number of rings (size 3 to 8) (size 9 to 14) (size 15 to 20)
#    1.000    1.000    1.667    0.500    4.667    4.000 
#    6.000    0.000    0.000    0.000    0.000    0.000 
#    0.000    0.000    0.000    0.000    0.000    0.000 
#
# Total GULP energy -133721.621239 kJ/mol
# GULP energy per Si atom -5571.734218 kJ/mol
# Density = 2.266887 g / cm^3
# Si number density = 22.720583 Si / 1000 Ang^3
#
#
#
# Elastic Constant Matrix: (Units=GPa)
#
#
# Indices 1 2 3 4 5 6 
#
# 1 117.9547 -43.1623 10.3559 0.0003 0.0921 0.0001
# 2 -43.1623 192.1151 46.1034 0.0000 -17.5493 0.0000
# 3 10.3559 46.1034 87.5916 -0.0001 3.4721 -0.0002
# 4 0.0003 0.0000 -0.0001 60.4050 0.0000 -47.8458
# 5 0.0921 -17.5493 3.4721 0.0000 51.8252 -0.0002
# 6 0.0001 0.0000 -0.0002 -47.8458 -0.0002 87.1669
#
#
#
# Elastic Compliance Matrix: (Units=1/GPa)
#
#
# Indices 1 2 3 4 5 6 
#
# 1 0.009810 0.002977 -0.002773 0.000000 0.001176 0.000000
# 2 0.002977 0.007131 -0.004212 0.000000 0.002691 0.000000
# 3 -0.002773 -0.004212 0.014055 0.000000 -0.002363 0.000000
# 4 0.000000 0.000000 0.000000 0.029289 0.000000 0.016077
# 5 0.001176 0.002691 -0.002363 0.000000 0.020363 0.000000
# 6 0.000000 0.000000 0.000000 0.016077 0.000000 0.020297
#
#
# Mechanical properties :
#
#
# Convention : Reuss Voigt Hill
#
# Bulk Modulus (GPa) = 43.51800 47.13948 45.32874
# Shear Modulus (GPa) = 42.87414 65.50372 54.18893
#
# Velocity S-wave (km/s) = 4.34869 5.37519 4.88896
# Velocity P-wave (km/s) = 6.66408 7.70170 7.20160
#
# Compressibility (1/GPa) = 0.02297900
#
# Stress axis : x y z
#
# Youngs Moduli (GPa) = 101.93961 140.23978 71.14885
#
# Poissons Ratio (x) = -0.41749 0.19732
# Poissons Ratio (y) = -0.30347 0.29967
# Poissons Ratio (z) = 0.28271 0.59067
#
# Static dielectric constant tensor:
#      x y z
#    x 1.937660 0.000000 -0.093130 
#    y 0.000000 1.983510 0.000000 
#    z -0.093130 0.000000 1.868470 
# 
# From -- ./inp_files/279916.got.cif
#   From: 2010.05.17/outbox.cif.g08.bks.cpg/sg15_140_cif.got.tgz:279916.got - 2010.06.03 18:47:42.
