data_PCOD9302164
_publ_section_title
;
Structure prediction by ZEFSAII (Michael W. Deem and Ramdas Pophale) SiO2 
 PCOD9302164
Probable space group: C 2/C
;
_chemical_formula_sum "Si O2"
_cell_formula_units_Z 52
_cell_length_a 15.028868
_cell_length_b 16.818506
_cell_length_c 11.361888
_cell_angle_alpha 90.000000
_cell_angle_beta 62.363831
_cell_angle_gamma 90.000000
_cell_volume 2544.217599
_symmetry_space_group_name_H-M "C 2/C"
_symmetry_group_IT_number 15
_symmetry_cell_setting 'monoclinic'
loop_
_space_group_symop_operation_xyz
x,y,z
-x,y,1/2-z
-x,-y,-z
x,-y,1/2+z
1/2+x,1/2+y,z
1/2-x,1/2+y,1/2-z
1/2-x,1/2-y,-z
1/2+x,1/2-y,1/2+z
loop_
_atom_site_type_symbol
_atom_site_label
_atom_site_fract_x
_atom_site_fract_y
_atom_site_fract_z
Si Si1 0.050156 0.807790 0.418344
Si Si2 0.243360 0.645529 0.824021
Si Si3 0.702652 0.082046 0.094696
Si Si4 0.846118 0.176584 0.150382
Si Si5 0.363939 0.745818 0.390036
Si Si6 0.000000 0.679527 0.250000
Si Si7 0.887765 0.576071 0.791326
O O1 0.149932 0.852769 0.310369
O O2 0.075313 0.777593 0.533031
O O3 0.941219 0.845855 0.510172
O O4 0.030992 0.736397 0.338919
O O5 0.200188 0.736142 0.854451
O O6 0.158628 0.592108 0.810164
O O7 0.258672 0.613272 0.944939
O O8 0.761130 0.112254 0.174235
O O9 0.595240 0.126050 0.159546
O O10 0.685713 0.988112 0.105632
O O11 0.873048 0.188649 0.271308
O O12 0.250000 0.750000 0.500000
O O13 0.388883 0.835608 0.341339
O O14 0.000000 0.545670 0.750000
#
# Coordination Sequence:
#
# PCOD9302164 Si02
#       7
#     8   8   8   8   8   4   8
#     4  12  22  40  68  96 129 172 232 273 321 375
#     4  11  23  42  64  96 132 169 227 267 321 397
#     4  12  24  42  63 101 136 169 215 271 340 391
#     4  11  22  40  67  97 129 172 224 273 316 393
#     4  11  21  42  70  94 134 175 221 266 321 390
#     4  12  22  36  66  96 128 174 212 272 336 386
#     4  11  25  42  63 100 135 174 209 270 336 389
#
# _framework density 20.438503000000001
#
# number of rings (size 3 to 8) (size 9 to 14) (size 15 to 20)
#    0.000    0.615    6.923    3.692    0.000    3.077 
#    0.000    0.769    0.000    0.000    0.000    0.000 
#    0.000    0.000    0.000    0.000    0.000    0.000 
#
# Total GULP energy -145084.883810 kJ/mol
# GULP energy per Si atom -5580.187839 kJ/mol
# Density = 2.039198 g / cm^3
# Si number density = 20.438503 Si / 1000 Ang^3
#
#
#
# Elastic Constant Matrix: (Units=GPa)
#
#
# Indices 1 2 3 4 5 6 
#
# 1 112.1643 29.9064 40.7785 0.0000 5.1619 0.0000
# 2 29.9064 38.5124 23.4125 0.0000 15.8038 0.0000
# 3 40.7785 23.4125 106.7456 0.0000 12.4479 0.0000
# 4 0.0000 0.0000 0.0000 11.7296 0.0000 -2.4602
# 5 5.1619 15.8038 12.4479 0.0000 32.4382 0.0000
# 6 0.0000 0.0000 0.0000 -2.4602 0.0000 15.2129
#
#
#
# Elastic Compliance Matrix: (Units=1/GPa)
#
#
# Indices 1 2 3 4 5 6 
#
# 1 0.012336 -0.009205 -0.003127 0.000000 0.003722 0.000000
# 2 -0.009205 0.042761 -0.003772 0.000000 -0.017921 0.000000
# 3 -0.003127 -0.003772 0.011639 0.000000 -0.002131 0.000000
# 4 0.000000 0.000000 0.000000 0.088248 0.000000 0.014271
# 5 0.003722 -0.017921 -0.002131 0.000000 0.039784 0.000000
# 6 0.000000 0.000000 0.000000 0.014271 0.000000 0.068042
#
#
# Mechanical properties :
#
#
# Convention : Reuss Voigt Hill
#
# Bulk Modulus (GPa) = 28.96440 49.51301 39.23870
# Shear Modulus (GPa) = 16.31176 22.76446 19.53811
#
# Velocity S-wave (km/s) = 2.82811 3.34099 3.09519
# Velocity P-wave (km/s) = 4.98664 6.25787 5.65807
#
# Compressibility (1/GPa) = 0.03452514
#
# Stress axis : x y z
#
# Youngs Moduli (GPa) = 81.06625 23.38580 85.92043
#
# Poissons Ratio (x) = 0.21527 0.26871
# Poissons Ratio (y) = 0.74622 0.32413
# Poissons Ratio (z) = 0.25353 0.08822
#
# Static dielectric constant tensor:
#      x y z
#    x 1.767770 0.000000 -0.012970 
#    y 0.000000 1.686750 0.000000 
#    z -0.012970 0.000000 1.740640 
# 
# From -- ./inp_files/96960.got.cif
#   From: 2010.05.17/outbox.cif.g08.bks.cpg/sg15_49_cif.got.tgz:96960.got - 2010.06.03 18:47:42.
