data_PCOD9302363
_publ_section_title
;
Structure prediction by ZEFSAII (Michael W. Deem and Ramdas Pophale) SiO2 
 PCOD9302363
Probable space group: C 2/C
;
_chemical_formula_sum "Si O2"
_cell_formula_units_Z 40
_cell_length_a 18.299725
_cell_length_b 12.609610
_cell_length_c 21.918617
_cell_angle_alpha 90.000000
_cell_angle_beta 18.519629
_cell_angle_gamma 90.000000
_cell_volume 1606.498153
_symmetry_space_group_name_H-M "C 2/C"
_symmetry_group_IT_number 15
_symmetry_cell_setting 'monoclinic'
loop_
_space_group_symop_operation_xyz
x,y,z
-x,y,1/2-z
-x,-y,-z
x,-y,1/2+z
1/2+x,1/2+y,z
1/2-x,1/2+y,1/2-z
1/2-x,1/2-y,-z
1/2+x,1/2-y,1/2+z
loop_
_atom_site_type_symbol
_atom_site_label
_atom_site_fract_x
_atom_site_fract_y
_atom_site_fract_z
Si Si1 0.261432 0.584079 0.514839
Si Si2 0.306562 0.315928 0.760951
Si Si3 0.265556 0.647666 0.031800
Si Si4 0.514548 0.896739 0.097145
Si Si5 0.309560 0.586634 0.131216
O O1 0.449108 0.640772 0.407803
O O2 0.355643 0.463116 0.433917
O O3 0.223397 0.628760 0.477595
O O4 0.000000 0.592034 0.750000
O O5 0.317292 0.190616 0.763624
O O6 0.280060 0.335061 0.710596
O O7 0.111749 0.377821 0.952802
O O8 0.356196 0.646763 0.030331
O O9 0.000000 0.625030 0.250000
O O10 0.250000 0.750000 0.000000
O O11 0.418831 0.012305 0.189545
O O12 0.500000 0.500000 0.000000
#
# Coordination Sequence:
#
# PCOD9302363 Si02
#       5
#     8   8   8   8   8
#     4  11  21  47  72 102 145 185 245 302 359 436
#     4  12  26  43  74 110 142 196 242 307 374 438
#     4  11  25  47  74 103 144 193 242 296 374 446
#     4  12  25  45  71 107 147 191 245 300 372 442
#     4  12  24  49  72 104 149 188 245 311 363 445
#
# _framework density 24.898876999999999
#
# number of rings (size 3 to 8) (size 9 to 14) (size 15 to 20)
#    0.000    0.400    6.000    4.200    0.000    4.800 
#    3.600    0.000    0.000    0.000    0.000    0.000 
#    0.000    0.000    0.000    0.000    0.000    0.000 
#
# Total GULP energy -111776.787128 kJ/mol
# GULP energy per Si atom -5588.839356 kJ/mol
# Density = 2.484221 g / cm^3
# Si number density = 24.898877 Si / 1000 Ang^3
#
#
#
# Elastic Constant Matrix: (Units=GPa)
#
#
# Indices 1 2 3 4 5 6 
#
# 1 173.0334 61.0008 15.7334 -0.0032 25.6576 0.0049
# 2 61.0008 143.2497 11.0180 0.1220 12.9049 -0.0088
# 3 15.7334 11.0180 71.3171 0.0209 6.2555 0.0046
# 4 -0.0032 0.1220 0.0209 28.7398 0.0078 4.9182
# 5 25.6576 12.9049 6.2555 0.0078 41.2330 -0.0104
# 6 0.0049 -0.0088 0.0046 4.9182 -0.0104 42.4863
#
#
#
# Elastic Compliance Matrix: (Units=1/GPa)
#
#
# Indices 1 2 3 4 5 6 
#
# 1 0.007358 -0.002742 -0.000885 0.000015 -0.003586 -0.000004
# 2 -0.002742 0.008266 -0.000603 -0.000036 -0.000789 0.000006
# 3 -0.000885 -0.000603 0.014438 -0.000007 -0.001451 -0.000001
# 4 0.000015 -0.000036 -0.000007 0.035498 -0.000005 -0.004109
# 5 -0.003586 -0.000789 -0.001451 -0.000005 0.026951 0.000008
# 6 -0.000004 0.000006 -0.000001 -0.004109 0.000008 0.024013
#
#
# Mechanical properties :
#
#
# Convention : Reuss Voigt Hill
#
# Bulk Modulus (GPa) = 46.29323 62.56720 54.43021
# Shear Modulus (GPa) = 37.82582 42.48168 40.15375
#
# Velocity S-wave (km/s) = 3.90189 4.13506 4.02017
# Velocity P-wave (km/s) = 6.23959 6.92686 6.59219
#
# Compressibility (1/GPa) = 0.02160143
#
# Stress axis : x y z
#
# Youngs Moduli (GPa) = 135.90233 120.97660 69.26387
#
# Poissons Ratio (x) = 0.33175 0.06131
# Poissons Ratio (y) = 0.37268 0.04175
# Poissons Ratio (z) = 0.12029 0.07293
#
# Static dielectric constant tensor:
#      x y z
#    x 2.066430 0.000070 0.016350 
#    y 0.000070 2.148570 0.000110 
#    z 0.016350 0.000110 2.012710 
# 
# From -- ./inp_files/249178.got.cif
#   From: 2010.05.17/outbox.cif.g08.bks.cpg/sg15_125_cif.got.tgz:249178.got - 2010.06.03 18:47:42.
