data_PCOD9302959
_publ_section_title
;
Structure prediction by ZEFSAII (Michael W. Deem and Ramdas Pophale) SiO2 
 PCOD9302959
Probable space group: C 2/C
;
_chemical_formula_sum "Si O2"
_cell_formula_units_Z 40
_cell_length_a 9.748322
_cell_length_b 27.095420
_cell_length_c 14.779825
_cell_angle_alpha 90.000000
_cell_angle_beta 154.248277
_cell_angle_gamma 90.000000
_cell_volume 1696.122367
_symmetry_space_group_name_H-M "C 2/C"
_symmetry_group_IT_number 15
_symmetry_cell_setting 'monoclinic'
loop_
_space_group_symop_operation_xyz
x,y,z
-x,y,1/2-z
-x,-y,-z
x,-y,1/2+z
1/2+x,1/2+y,z
1/2-x,1/2+y,1/2-z
1/2-x,1/2-y,-z
1/2+x,1/2-y,1/2+z
loop_
_atom_site_type_symbol
_atom_site_label
_atom_site_fract_x
_atom_site_fract_y
_atom_site_fract_z
Si Si1 0.354641 0.582049 0.425212
Si Si2 0.761081 0.542870 0.329280
Si Si3 0.743624 0.805445 0.813671
Si Si4 0.627849 0.790862 0.546175
Si Si5 0.751093 0.620157 0.820092
O O1 0.392667 0.545953 0.361996
O O2 0.364431 0.639117 0.398399
O O3 0.593072 0.583872 0.651657
O O4 0.000000 0.572902 0.250000
O O5 0.500000 0.542329 0.250000
O O6 0.000000 0.500000 0.500000
O O7 0.963635 0.592287 0.461994
O O8 0.500000 0.794310 0.750000
O O9 0.560462 0.801449 0.611147
O O10 0.017092 0.764808 0.965217
O O11 0.399105 0.830710 0.362632
O O12 0.000000 0.798290 0.750000
O O13 0.500000 0.630809 0.750000
#
# Coordination Sequence:
#
# PCOD9302959 Si02
#       5
#     8   8   8   8   8
#     4  11  24  46  77 107 143 192 245 296 365 435
#     4  12  28  52  77 110 145 182 241 303 370 440
#     4  11  22  41  65 101 143 197 248 291 355 426
#     4  12  24  41  66 105 154 195 248 303 352 422
#     4  12  23  46  76 106 151 196 241 305 357 430
#
# _framework density 23.583203999999999
#
# number of rings (size 3 to 8) (size 9 to 14) (size 15 to 20)
#    0.000    0.400    4.000    5.400    0.000    1.600 
#    0.000    0.000    0.000    0.000    0.000    0.000 
#    0.000    0.000    0.000    0.000    0.000    0.000 
#
# Total GULP energy -111895.211376 kJ/mol
# GULP energy per Si atom -5594.760569 kJ/mol
# Density = 2.352953 g / cm^3
# Si number density = 23.583204 Si / 1000 Ang^3
#
#
#
# Elastic Constant Matrix: (Units=GPa)
#
#
# Indices 1 2 3 4 5 6 
#
# 1 130.5350 36.9559 66.3465 -0.0002 2.8674 -0.0003
# 2 36.9559 76.6454 20.2424 0.0000 21.1373 0.0000
# 3 66.3465 20.2424 114.8484 -0.0001 1.3390 -0.0001
# 4 -0.0002 0.0000 -0.0001 25.2818 -0.0001 -29.9256
# 5 2.8674 21.1373 1.3390 -0.0001 55.7290 -0.0002
# 6 -0.0003 0.0000 -0.0001 -29.9256 -0.0002 -13.0783
#
#
#
# Elastic Compliance Matrix: (Units=1/GPa)
#
#
# Indices 1 2 3 4 5 6 
#
# 1 0.012056 -0.004523 -0.006182 0.000000 0.001244 0.000000
# 2 -0.004523 0.017026 -0.000315 0.000000 -0.006217 0.000000
# 3 -0.006182 -0.000315 0.012332 0.000000 0.000141 0.000000
# 4 0.000000 0.000000 0.000000 0.010666 0.000000 -0.024405
# 5 0.001244 -0.006217 0.000141 0.000000 0.020235 0.000000
# 6 0.000000 0.000000 0.000000 -0.024405 0.000000 -0.020618
#
#
# Mechanical properties :
#
#
# Convention : Reuss Voigt Hill
#
# Bulk Modulus (GPa) = 51.61766 63.23538 57.42652
# Shear Modulus (GPa) = 62.34736 26.81878 44.58307
#
# Velocity S-wave (km/s) = 5.14729 3.37590 4.35266
# Velocity P-wave (km/s) = 7.56711 6.48595 7.04729
#
# Compressibility (1/GPa) = 0.01937322
#
# Stress axis : x y z
#
# Youngs Moduli (GPa) = 82.94520 58.73337 81.08815
#
# Poissons Ratio (x) = 0.26568 0.50128
# Poissons Ratio (y) = 0.37520 0.02556
# Poissons Ratio (z) = 0.51276 0.01852
#
# Static dielectric constant tensor:
#      x y z
#    x 2.036930 0.000000 0.004410 
#    y 0.000000 1.945910 0.000000 
#    z 0.004410 0.000000 1.921980 
# 
# From -- ./inp_files/139948.got.cif
#   From: 2010.05.17/outbox.cif.g08.bks.cpg/sg15_70_cif.got.tgz:139948.got - 2010.06.03 18:47:42.
