data_PCOD9302504
_publ_section_title
;
Structure prediction by ZEFSAII (Michael W. Deem and Ramdas Pophale) SiO2 
 PCOD9302504
Probable space group: C 2/C
;
_chemical_formula_sum "Si O2"
_cell_formula_units_Z 60
_cell_length_a 15.728840
_cell_length_b 22.769846
_cell_length_c 9.377004
_cell_angle_alpha 90.000000
_cell_angle_beta 120.751287
_cell_angle_gamma 90.000000
_cell_volume 2886.115284
_symmetry_space_group_name_H-M "C 2/C"
_symmetry_group_IT_number 15
_symmetry_cell_setting 'monoclinic'
loop_
_space_group_symop_operation_xyz
x,y,z
-x,y,1/2-z
-x,-y,-z
x,-y,1/2+z
1/2+x,1/2+y,z
1/2-x,1/2+y,1/2-z
1/2-x,1/2-y,-z
1/2+x,1/2-y,1/2+z
loop_
_atom_site_type_symbol
_atom_site_label
_atom_site_fract_x
_atom_site_fract_y
_atom_site_fract_z
Si Si1 0.500000 0.852929 0.750000
Si Si2 0.396694 0.243315 0.629391
Si Si3 0.133379 0.262242 0.710962
Si Si4 0.115286 0.145232 0.875033
Si Si5 0.187774 0.588150 0.585608
Si Si6 0.680917 0.661021 0.235963
Si Si7 0.188164 0.379816 0.422171
Si Si8 0.428728 0.981712 0.064587
O O1 0.552660 0.810890 0.680767
O O2 0.407199 0.883249 0.582905
O O3 0.500000 0.212673 0.750000
O O4 0.391178 0.265712 0.463425
O O5 0.385500 0.294169 0.732814
O O6 0.319850 0.190918 0.587285
O O7 0.132927 0.212374 0.831692
O O8 0.232556 0.299218 0.764340
O O9 0.206837 0.110827 0.880495
O O10 0.000000 0.131137 0.750000
O O11 0.127441 0.135887 0.053732
O O12 0.186483 0.599286 0.756239
O O13 0.170087 0.519616 0.537755
O O14 0.722011 0.614908 0.387460
O O15 0.101158 0.414920 0.429559
O O16 0.500000 0.002008 0.250000
O O17 0.500000 0.000000 0.000000
#
# Coordination Sequence:
#
# PCOD9302504 Si02
#       8
#     4   8   8   8   8   8   8   8
#     4  12  24  38  68 100 136 178 228 284 340 404
#     4  11  22  37  63  93 139 182 226 270 336 410
#     4  11  22  38  60  94 134 178 223 277 336 402
#     4  12  25  42  66  97 138 180 232 277 331 406
#     4  12  26  43  69  99 139 177 226 280 347 405
#     4  11  24  40  64  97 137 182 228 280 336 406
#     4  11  25  43  65  99 137 176 223 281 344 414
#     4  12  26  44  71 105 135 171 220 282 354 413
#
# _framework density 20.789190999999999
#
# number of rings (size 3 to 8) (size 9 to 14) (size 15 to 20)
#    0.000    0.533    4.000    5.600    7.467    0.000 
#    0.000    0.000    0.000    4.000    0.000    0.000 
#    0.000    0.000    0.000    0.000    0.000    0.000 
#
# Total GULP energy -167184.941749 kJ/mol
# GULP energy per Si atom -5572.831392 kJ/mol
# Density = 2.074187 g / cm^3
# Si number density = 20.789191 Si / 1000 Ang^3
#
#
#
# Elastic Constant Matrix: (Units=GPa)
#
#
# Indices 1 2 3 4 5 6 
#
# 1 82.7446 21.7819 41.4416 0.0000 5.3744 0.0000
# 2 21.7819 59.6354 17.8892 0.0000 -1.6986 0.0000
# 3 41.4416 17.8892 160.2788 0.0000 -5.3834 0.0000
# 4 0.0000 0.0000 0.0000 16.6272 0.0000 4.1860
# 5 5.3744 -1.6986 -5.3834 0.0000 40.8430 0.0000
# 6 0.0000 0.0000 0.0000 4.1860 0.0000 35.4768
#
#
#
# Elastic Compliance Matrix: (Units=1/GPa)
#
#
# Indices 1 2 3 4 5 6 
#
# 1 0.015224 -0.004582 -0.003514 0.000000 -0.002657 0.000000
# 2 -0.004582 0.018737 -0.000864 0.000000 0.001268 0.000000
# 3 -0.003514 -0.000864 0.007291 0.000000 0.001387 0.000000
# 4 0.000000 0.000000 0.000000 0.061984 0.000000 -0.007314
# 5 -0.002657 0.001268 0.001387 0.000000 0.025069 0.000000
# 6 0.000000 0.000000 0.000000 -0.007314 0.000000 0.029050
#
#
# Mechanical properties :
#
#
# Convention : Reuss Voigt Hill
#
# Bulk Modulus (GPa) = 42.85992 51.65381 47.25687
# Shear Modulus (GPa) = 27.31437 33.35915 30.33676
#
# Velocity S-wave (km/s) = 3.62867 4.01014 3.82417
# Velocity P-wave (km/s) = 6.18203 6.80750 6.50229
#
# Compressibility (1/GPa) = 0.02333182
#
# Stress axis : x y z
#
# Youngs Moduli (GPa) = 65.68484 53.36892 137.15947
#
# Poissons Ratio (x) = 0.24455 0.48200
# Poissons Ratio (y) = 0.30098 0.11850
# Poissons Ratio (z) = 0.23083 0.04611
#
# Static dielectric constant tensor:
#      x y z
#    x 1.798090 0.000000 -0.012870 
#    y 0.000000 1.762620 0.000000 
#    z -0.012870 0.000000 2.046320 
# 
# From -- ./inp_files/42695.got.cif
#   From: 2010.05.17/outbox.cif.g08.bks.cpg/sg15_22_cif.got.tgz:42695.got - 2010.06.03 18:47:42.
