data_PCOD9302304
_publ_section_title
;
Structure prediction by ZEFSAII (Michael W. Deem and Ramdas Pophale) SiO2 
 PCOD9302304
Probable space group: C 2/C
;
_chemical_formula_sum "Si O2"
_cell_formula_units_Z 64
_cell_length_a 15.731887
_cell_length_b 12.313665
_cell_length_c 29.356959
_cell_angle_alpha 90.000000
_cell_angle_beta 142.941081
_cell_angle_gamma 90.000000
_cell_volume 3427.159099
_symmetry_space_group_name_H-M "C 2/C"
_symmetry_group_IT_number 15
_symmetry_cell_setting 'monoclinic'
loop_
_space_group_symop_operation_xyz
x,y,z
-x,y,1/2-z
-x,-y,-z
x,-y,1/2+z
1/2+x,1/2+y,z
1/2-x,1/2+y,1/2-z
1/2-x,1/2-y,-z
1/2+x,1/2-y,1/2+z
loop_
_atom_site_type_symbol
_atom_site_label
_atom_site_fract_x
_atom_site_fract_y
_atom_site_fract_z
Si Si1 0.907426 0.484791 0.086052
Si Si2 0.767891 0.299685 0.558179
Si Si3 0.515567 0.423650 0.050388
Si Si4 0.901921 0.946178 0.586965
Si Si5 0.606998 0.974066 0.586515
Si Si6 0.514923 0.767378 0.330922
Si Si7 0.130204 0.098360 0.839168
Si Si8 0.761648 0.254254 0.155315
O O1 0.866624 0.594214 0.095799
O O2 0.964917 0.387349 0.141017
O O3 0.021876 0.508770 0.096420
O O4 0.760061 0.448100 0.999460
O O5 0.750000 0.250000 0.500000
O O6 0.613411 0.338657 0.506938
O O7 0.827179 0.208342 0.616770
O O8 0.490366 0.492015 0.085851
O O9 0.662050 0.359406 0.112983
O O10 0.500000 0.500000 0.000000
O O11 0.956340 0.825179 0.619389
O O12 0.905754 0.011663 0.636257
O O13 0.664783 0.851822 0.610627
O O14 0.500000 0.000000 0.500000
O O15 0.740167 0.051775 0.634766
O O16 0.363180 0.751417 0.242649
O O17 0.634007 0.753494 0.343116
O O18 0.000000 0.113475 0.750000
#
# Coordination Sequence:
#
# PCOD9302304 Si02
#       8
#     8   8   8   8   8   8   8   8
#     4  11  23  41  67  93 127 169 218 265 320 393
#     4  11  21  45  68  92 131 176 215 265 335 386
#     4  11  24  42  67  95 127 172 221 263 320 391
#     4  11  22  42  69  93 130 169 214 273 324 381
#     4  12  22  40  69  97 123 167 227 268 313 392
#     4  11  24  42  62  94 133 173 208 265 334 385
#     4  12  24  41  68  99 130 170 221 273 328 385
#     4  11  23  41  63  92 135 171 210 266 331 384
#
# _framework density 18.674358999999999
#
# number of rings (size 3 to 8) (size 9 to 14) (size 15 to 20)
#    0.000    0.750    5.000    4.125    0.000    4.000 
#    4.500    0.000    0.000    0.000    0.000    0.000 
#    0.000    0.000    0.000    0.000    0.000    0.000 
#
# Total GULP energy -178948.439985 kJ/mol
# GULP energy per Si atom -5592.138750 kJ/mol
# Density = 1.863186 g / cm^3
# Si number density = 18.674359 Si / 1000 Ang^3
#
#
#
# Elastic Constant Matrix: (Units=GPa)
#
#
# Indices 1 2 3 4 5 6 
#
# 1 67.5469 29.9436 41.3429 0.0000 15.5014 0.0000
# 2 29.9436 113.9376 41.5209 0.0000 15.6571 0.0000
# 3 41.3429 41.5209 86.7620 0.0000 19.6273 0.0000
# 4 0.0000 0.0000 0.0000 -4.6810 0.0000 -0.8537
# 5 15.5014 15.6571 19.6273 0.0000 20.1257 0.0000
# 6 0.0000 0.0000 0.0000 -0.8537 0.0000 38.3015
#
#
#
# Elastic Compliance Matrix: (Units=1/GPa)
#
#
# Indices 1 2 3 4 5 6 
#
# 1 0.022327 -0.001878 -0.007930 0.000000 -0.008002 0.000000
# 2 -0.001878 0.011079 -0.003573 0.000000 -0.003688 0.000000
# 3 -0.007930 -0.003573 0.019251 0.000000 -0.009887 0.000000
# 4 0.000000 0.000000 0.000000 -0.212763 0.000000 -0.004742
# 5 -0.008002 -0.003688 -0.009887 0.000000 0.068362 0.000000
# 6 0.000000 0.000000 0.000000 -0.004742 0.000000 0.026003
#
#
# Mechanical properties :
#
#
# Convention : Reuss Voigt Hill
#
# Bulk Modulus (GPa) = 38.61704 54.87350 46.74527
# Shear Modulus (GPa) = -164.76160 21.11186 -71.82487
#
# Velocity S-wave (km/s) = -9.40321 3.36598 -6.20848
# Velocity P-wave (km/s) = 9.85747 6.67492 5.12909
#
# Compressibility (1/GPa) = 0.02589530
#
# Stress axis : x y z
#
# Youngs Moduli (GPa) = 44.78829 90.25975 51.94584
#
# Poissons Ratio (x) = 0.16953 0.41193
# Poissons Ratio (y) = 0.08412 0.18559
# Poissons Ratio (z) = 0.35517 0.32247
#
# Static dielectric constant tensor:
#      x y z
#    x 1.690470 0.000000 -0.026670 
#    y 0.000000 1.635540 0.000000 
#    z -0.026670 0.000000 1.624840 
# 
# From -- ./inp_files/296136.got.cif
#   From: 2010.05.17/outbox.cif.g08.bks.cpg/sg15_149_cif.got.tgz:296136.got - 2010.06.03 18:47:42.
