data_PCOD9302147
_publ_section_title
;
Structure prediction by ZEFSAII (Michael W. Deem and Ramdas Pophale) SiO2 
 PCOD9302147
Probable space group: C 2/C
;
_chemical_formula_sum "Si O2"
_cell_formula_units_Z 40
_cell_length_a 11.704017
_cell_length_b 19.830967
_cell_length_c 11.132930
_cell_angle_alpha 90.000000
_cell_angle_beta 44.911844
_cell_angle_gamma 90.000000
_cell_volume 1824.332841
_symmetry_space_group_name_H-M "C 2/C"
_symmetry_group_IT_number 15
_symmetry_cell_setting 'monoclinic'
loop_
_space_group_symop_operation_xyz
x,y,z
-x,y,1/2-z
-x,-y,-z
x,-y,1/2+z
1/2+x,1/2+y,z
1/2-x,1/2+y,1/2-z
1/2-x,1/2-y,-z
1/2+x,1/2-y,1/2+z
loop_
_atom_site_type_symbol
_atom_site_label
_atom_site_fract_x
_atom_site_fract_y
_atom_site_fract_z
Si Si1 0.804856 0.105441 0.533235
Si Si2 0.901706 0.489791 0.698650
Si Si3 0.739212 0.276954 0.274902
Si Si4 0.686644 0.381085 0.747664
Si Si5 0.418867 0.220208 0.422366
O O1 0.715818 0.052999 0.685539
O O2 0.757078 0.180763 0.607816
O O3 0.764128 0.097374 0.423896
O O4 0.998192 0.101435 0.402250
O O5 0.793068 0.423670 0.759365
O O6 0.000000 0.483352 0.750000
O O7 0.000000 0.500000 0.500000
O O8 0.787321 0.199010 0.255888
O O9 0.556716 0.274485 0.356895
O O10 0.862739 0.311776 0.088760
O O11 0.500000 0.182523 0.250000
O O12 0.250000 0.250000 0.500000
#
# Coordination Sequence:
#
# PCOD9302147 Si02
#       5
#     8   8   8   8   8
#     4  11  25  47  73 105 150 190 247 303 371 442
#     4  12  27  51  75 108 146 197 251 308 367 443
#     4  11  21  42  69 108 142 185 242 303 371 436
#     4  11  25  47  73 107 145 196 245 301 371 445
#     4   9  20  37  58  93 148 189 227 284 358 438
#
# _framework density 21.925823999999999
#
# number of rings (size 3 to 8) (size 9 to 14) (size 15 to 20)
#    0.000    1.200    4.000    1.200    2.800    2.400 
#    7.200    0.000    0.000    0.000    0.000    0.000 
#    0.000    0.000    0.000    0.000    0.000    0.000 
#
# Total GULP energy -111661.169825 kJ/mol
# GULP energy per Si atom -5583.058491 kJ/mol
# Density = 2.187592 g / cm^3
# Si number density = 21.925824 Si / 1000 Ang^3
#
#
#
# Elastic Constant Matrix: (Units=GPa)
#
#
# Indices 1 2 3 4 5 6 
#
# 1 116.7157 46.7213 58.0390 0.0000 1.8650 0.0000
# 2 46.7213 124.3977 47.3915 0.0000 -1.0193 0.0000
# 3 58.0390 47.3915 164.9980 0.0000 15.6019 0.0000
# 4 0.0000 0.0000 0.0000 32.2485 0.0000 -0.7015
# 5 1.8650 -1.0193 15.6019 0.0000 28.8124 0.0000
# 6 0.0000 0.0000 0.0000 -0.7015 0.0000 16.8021
#
#
#
# Elastic Compliance Matrix: (Units=1/GPa)
#
#
# Indices 1 2 3 4 5 6 
#
# 1 0.011366 -0.003039 -0.003210 0.000000 0.000895 0.000000
# 2 -0.003039 0.009930 -0.001934 0.000000 0.001595 0.000000
# 3 -0.003210 -0.001934 0.008149 0.000000 -0.004274 0.000000
# 4 0.000000 0.000000 0.000000 0.031037 0.000000 0.001296
# 5 0.000895 0.001595 -0.004274 0.000000 0.037020 0.000000
# 6 0.000000 0.000000 0.000000 0.001296 0.000000 0.059570
#
#
# Mechanical properties :
#
#
# Convention : Reuss Voigt Hill
#
# Bulk Modulus (GPa) = 76.45251 78.93502 77.69376
# Shear Modulus (GPa) = 28.12170 32.50323 30.31246
#
# Velocity S-wave (km/s) = 3.58520 3.85439 3.72223
# Velocity P-wave (km/s) = 7.21683 7.47580 7.34746
#
# Compressibility (1/GPa) = 0.01308002
#
# Stress axis : x y z
#
# Youngs Moduli (GPa) = 87.98087 100.70598 122.70816
#
# Poissons Ratio (x) = 0.30601 0.39389
# Poissons Ratio (y) = 0.26734 0.23733
# Poissons Ratio (z) = 0.28241 0.19477
#
# Static dielectric constant tensor:
#      x y z
#    x 1.832740 0.000000 0.012780 
#    y 0.000000 1.778180 0.000000 
#    z 0.012780 0.000000 1.847600 
# 
# From -- ./inp_files/89304.got.cif
#   From: 2010.05.17/outbox.cif.g08.bks.cpg/sg15_45_cif.got.tgz:89304.got - 2010.06.03 18:47:42.
