data_PCOD9302246
_publ_section_title
;
Structure prediction by ZEFSAII (Michael W. Deem and Ramdas Pophale) SiO2 
 PCOD9302246
Probable space group: C 2/C
;
_chemical_formula_sum "Si O2"
_cell_formula_units_Z 60
_cell_length_a 21.309187
_cell_length_b 9.178796
_cell_length_c 18.729108
_cell_angle_alpha 90.000000
_cell_angle_beta 45.557249
_cell_angle_gamma 90.000000
_cell_volume 2615.397786
_symmetry_space_group_name_H-M "C 2/C"
_symmetry_group_IT_number 15
_symmetry_cell_setting 'monoclinic'
loop_
_space_group_symop_operation_xyz
x,y,z
-x,y,1/2-z
-x,-y,-z
x,-y,1/2+z
1/2+x,1/2+y,z
1/2-x,1/2+y,1/2-z
1/2-x,1/2-y,-z
1/2+x,1/2-y,1/2+z
loop_
_atom_site_type_symbol
_atom_site_label
_atom_site_fract_x
_atom_site_fract_y
_atom_site_fract_z
Si Si1 0.886941 0.157818 0.205481
Si Si2 0.606372 0.157400 0.278457
Si Si3 0.267797 0.581008 0.842892
Si Si4 0.500000 0.039877 0.750000
Si Si5 0.014490 0.085019 0.652518
Si Si6 0.212952 0.908871 0.013272
Si Si7 0.323831 0.832075 0.393743
Si Si8 0.593604 0.070082 0.908053
O O1 0.846137 0.254632 0.301804
O O2 0.909068 0.270014 0.125182
O O3 0.815757 0.029103 0.250020
O O4 0.971708 0.068159 0.164873
O O5 0.691388 0.257849 0.195495
O O6 0.552364 0.062497 0.263189
O O7 0.535301 0.286476 0.349571
O O8 0.629221 0.045166 0.321816
O O9 0.294891 0.528074 0.900000
O O10 0.163907 0.576451 0.915683
O O11 0.578313 0.136047 0.652064
O O12 0.117221 0.092981 0.556671
O O13 0.000000 0.106697 0.750000
O O14 0.250000 0.750000 0.000000
O O15 0.278582 0.011163 0.918625
O O16 0.250000 0.750000 0.500000
O O17 0.500000 0.000000 0.000000
#
# Coordination Sequence:
#
# PCOD9302246 Si02
#       8
#     8   8   8   4   8   8   8   8
#     4  11  25  46  70 101 144 193 231 301 373 431
#     4  11  22  45  74  99 136 192 231 301 368 427
#     4  11  24  48  68  96 146 188 243 290 362 444
#     4  12  24  42  74 108 150 174 246 304 380 432
#     4  11  21  43  73 104 142 176 227 301 376 436
#     4  12  25  40  71 113 140 177 241 301 367 440
#     4  12  25  40  70 110 146 185 227 304 382 434
#     4  12  29  46  69  99 140 198 250 296 354 440
#
# _framework density 22.94106
#
# number of rings (size 3 to 8) (size 9 to 14) (size 15 to 20)
#    0.000    0.533    6.000    2.400    6.533    1.067 
#    0.000    2.667    0.000    0.000    0.000    0.000 
#    0.000    0.000    0.000    0.000    0.000    0.000 
#
# Total GULP energy -167590.314116 kJ/mol
# GULP energy per Si atom -5586.343804 kJ/mol
# Density = 2.288885 g / cm^3
# Si number density = 22.941060 Si / 1000 Ang^3
#
#
#
# Elastic Constant Matrix: (Units=GPa)
#
#
# Indices 1 2 3 4 5 6 
#
# 1 84.2804 17.7142 23.4924 0.0000 -41.0463 0.0000
# 2 17.7142 127.0269 35.3378 0.0001 -17.3208 -0.0001
# 3 23.4924 35.3378 85.1603 0.0000 -43.6729 0.0000
# 4 0.0000 0.0001 0.0000 43.5673 0.0000 -11.3516
# 5 -41.0463 -17.3208 -43.6729 0.0000 48.8474 0.0000
# 6 0.0000 -0.0001 0.0000 -11.3516 0.0000 21.0667
#
#
#
# Elastic Compliance Matrix: (Units=1/GPa)
#
#
# Indices 1 2 3 4 5 6 
#
# 1 0.022070 -0.001738 0.007068 0.000000 0.024248 0.000000
# 2 -0.001738 0.009038 -0.004389 0.000000 -0.002179 0.000000
# 3 0.007068 -0.004389 0.025599 0.000000 0.027270 0.000000
# 4 0.000000 0.000000 0.000000 0.026702 0.000000 0.014388
# 5 0.024248 -0.002179 0.027270 0.000000 0.064456 0.000000
# 6 0.000000 0.000000 0.000000 0.014388 0.000000 0.055221
#
#
# Mechanical properties :
#
#
# Convention : Reuss Voigt Hill
#
# Bulk Modulus (GPa) = 17.06752 49.95069 33.50911
# Shear Modulus (GPa) = 22.65182 37.35782 30.00482
#
# Velocity S-wave (km/s) = 3.14569 4.03975 3.62043
# Velocity P-wave (km/s) = 4.54419 6.60153 5.66701
#
# Compressibility (1/GPa) = 0.05859081
#
# Stress axis : x y z
#
# Youngs Moduli (GPa) = 45.31127 110.63872 39.06423
#
# Poissons Ratio (x) = 0.19224 -0.27611
# Poissons Ratio (y) = 0.07873 0.17144
# Poissons Ratio (z) = -0.32027 0.48555
#
# Static dielectric constant tensor:
#      x y z
#    x 1.830890 0.000000 0.034470 
#    y 0.000000 1.886340 0.000000 
#    z 0.034470 0.000000 2.028190 
# 
# From -- ./inp_files/255156.got.cif
#   From: 2010.05.17/outbox.cif.g08.bks.cpg/sg15_128_cif.got.tgz:255156.got - 2010.06.03 18:47:42.
