data_PCOD9302614
_publ_section_title
;
Structure prediction by ZEFSAII (Michael W. Deem and Ramdas Pophale) SiO2 
 PCOD9302614
Probable space group: C 2/C
;
_chemical_formula_sum "Si O2"
_cell_formula_units_Z 52
_cell_length_a 19.279255
_cell_length_b 19.737925
_cell_length_c 16.219797
_cell_angle_alpha 90.000000
_cell_angle_beta 25.974823
_cell_angle_gamma 90.000000
_cell_volume 2703.258786
_symmetry_space_group_name_H-M "C 2/C"
_symmetry_group_IT_number 15
_symmetry_cell_setting 'monoclinic'
loop_
_space_group_symop_operation_xyz
x,y,z
-x,y,1/2-z
-x,-y,-z
x,-y,1/2+z
1/2+x,1/2+y,z
1/2-x,1/2+y,1/2-z
1/2-x,1/2-y,-z
1/2+x,1/2-y,1/2+z
loop_
_atom_site_type_symbol
_atom_site_label
_atom_site_fract_x
_atom_site_fract_y
_atom_site_fract_z
Si Si1 0.824757 0.635845 0.410716
Si Si2 0.000000 0.025129 0.250000
Si Si3 0.672674 0.678232 0.728479
Si Si4 0.964928 0.322102 0.594696
Si Si5 0.377654 0.945067 0.595722
Si Si6 0.324006 0.023783 0.963137
Si Si7 0.043971 0.048017 0.528345
O O1 0.698184 0.675857 0.601434
O O2 0.841114 0.650978 0.297183
O O3 0.811806 0.555953 0.448810
O O4 0.000000 0.658140 0.250000
O O5 0.828307 0.059338 0.416412
O O6 0.980599 0.982328 0.354583
O O7 0.586836 0.744313 0.855340
O O8 0.562767 0.614472 0.865407
O O9 0.851718 0.671660 0.572263
O O10 0.947545 0.369591 0.533075
O O11 0.324255 0.966388 0.561280
O O12 0.500000 0.000000 0.500000
O O13 0.227687 0.944561 0.814965
O O14 0.500000 0.046761 0.750000
O O15 0.000000 0.000000 0.500000
#
# Coordination Sequence:
#
# PCOD9302614 Si02
#       7
#     8   4   8   8   8   8   8
#     4   9  17  35  56  82 126 169 211 252 314 393
#     4  12  22  38  62  96 132 166 218 266 324 384
#     4  11  22  39  58  91 130 171 214 258 326 395
#     4  11  23  37  60  89 127 175 211 267 323 392
#     4  12  23  40  62  89 128 170 223 271 324 383
#     4  11  22  39  62  92 129 170 217 271 332 382
#     4  12  23  40  64  94 132 171 217 269 321 392
#
# _framework density 19.236042000000001
#
# number of rings (size 3 to 8) (size 9 to 14) (size 15 to 20)
#    0.000    0.923    3.077    6.923    0.000    0.000 
#    4.154    0.000    0.000    0.000    2.000    3.231 
#    0.000    0.000    0.000    0.000    0.000    0.000 
#
# Total GULP energy -144938.902641 kJ/mol
# GULP energy per Si atom -5574.573178 kJ/mol
# Density = 1.919226 g / cm^3
# Si number density = 19.236042 Si / 1000 Ang^3
#
#
#
# Elastic Constant Matrix: (Units=GPa)
#
#
# Indices 1 2 3 4 5 6 
#
# 1 102.9073 45.1969 29.4138 0.0014 -3.5048 -0.0027
# 2 45.1969 92.8697 35.9141 -0.0025 4.0875 -0.0009
# 3 29.4138 35.9141 129.5248 0.0003 -17.4341 -0.0012
# 4 0.0014 -0.0025 0.0003 21.7516 -0.0008 -0.1354
# 5 -3.5048 4.0875 -17.4341 -0.0008 36.8816 0.0009
# 6 -0.0027 -0.0009 -0.0012 -0.1354 0.0009 20.8762
#
#
#
# Elastic Compliance Matrix: (Units=1/GPa)
#
#
# Indices 1 2 3 4 5 6 
#
# 1 0.012609 -0.005776 -0.001083 -0.000001 0.001326 0.000001
# 2 -0.005776 0.015052 -0.003375 0.000002 -0.003812 0.000000
# 3 -0.001083 -0.003375 0.009546 0.000000 0.004784 0.000000
# 4 -0.000001 0.000002 0.000000 0.045975 0.000000 0.000298
# 5 0.001326 -0.003812 0.004784 0.000000 0.029924 -0.000001
# 6 0.000001 0.000000 0.000000 0.000298 -0.000001 0.047903
#
#
# Mechanical properties :
#
#
# Convention : Reuss Voigt Hill
#
# Bulk Modulus (GPa) = 59.74236 60.70570 60.22403
# Shear Modulus (GPa) = 26.72976 30.22034 28.47505
#
# Velocity S-wave (km/s) = 3.73173 3.96792 3.85164
# Velocity P-wave (km/s) = 7.04931 7.25392 7.15234
#
# Compressibility (1/GPa) = 0.01673854
#
# Stress axis : x y z
#
# Youngs Moduli (GPa) = 79.30794 66.43780 104.75334
#
# Poissons Ratio (x) = 0.38374 0.11349
# Poissons Ratio (y) = 0.45807 0.35354
# Poissons Ratio (z) = 0.08592 0.22423
#
# Static dielectric constant tensor:
#      x y z
#    x 1.720980 0.000000 -0.020790 
#    y 0.000000 1.685680 0.000000 
#    z -0.020790 0.000000 1.681760 
# 
# From -- ./inp_files/163623.got.cif
#   From: 2010.05.17/outbox.cif.g08.bks.cpg/sg15_82_cif.got.tgz:163623.got - 2010.06.03 18:47:42.
