data_PCOD9302985
_publ_section_title
;
Structure prediction by ZEFSAII (Michael W. Deem and Ramdas Pophale) SiO2 
 PCOD9302985
Probable space group: C 2/C
;
_chemical_formula_sum "Si O2"
_cell_formula_units_Z 56
_cell_length_a 26.955223
_cell_length_b 9.255076
_cell_length_c 16.891286
_cell_angle_alpha 90.000000
_cell_angle_beta 38.465582
_cell_angle_gamma 90.000000
_cell_volume 2621.241424
_symmetry_space_group_name_H-M "C 2/C"
_symmetry_group_IT_number 15
_symmetry_cell_setting 'monoclinic'
loop_
_space_group_symop_operation_xyz
x,y,z
-x,y,1/2-z
-x,-y,-z
x,-y,1/2+z
1/2+x,1/2+y,z
1/2-x,1/2+y,1/2-z
1/2-x,1/2-y,-z
1/2+x,1/2-y,1/2+z
loop_
_atom_site_type_symbol
_atom_site_label
_atom_site_fract_x
_atom_site_fract_y
_atom_site_fract_z
Si Si1 0.062479 0.302613 0.226525
Si Si2 0.349904 0.195336 0.172741
Si Si3 0.947018 0.010225 0.189177
Si Si4 0.528527 0.301726 0.993488
Si Si5 0.705936 0.827134 0.938205
Si Si6 0.853634 0.382630 0.225649
Si Si7 0.279251 0.626813 0.900220
O O1 0.025637 0.149385 0.297791
O O2 0.085844 0.386065 0.276172
O O3 0.000000 0.384298 0.250000
O O4 0.141403 0.266858 0.079419
O O5 0.329916 0.183245 0.105351
O O6 0.298671 0.305772 0.289513
O O7 0.327705 0.041402 0.237815
O O8 0.443002 0.238232 0.071262
O O9 0.937402 0.081414 0.112885
O O10 0.864471 0.941181 0.320681
O O11 0.011203 0.885351 0.095907
O O12 0.595162 0.179903 0.911216
O O13 0.784445 0.727844 0.836248
O O14 0.724413 0.987555 0.949415
O O15 0.250000 0.750000 0.000000
#
# Coordination Sequence:
#
# PCOD9302985 Si02
#       7
#     8   8   8   8   8   8   8
#     4  11  23  40  64  94 126 178 217 262 323 396
#     4  11  24  39  65 100 128 173 214 274 327 390
#     4   9  19  38  61  90 122 169 211 260 319 384
#     4   9  18  38  65  88 127 163 212 262 322 382
#     4  12  23  41  64  95 134 168 222 268 326 395
#     4  11  22  41  66  96 130 170 218 270 327 385
#     4  11  23  41  64  93 133 173 215 270 332 380
#
# _framework density 21.363923
#
# number of rings (size 3 to 8) (size 9 to 14) (size 15 to 20)
#    0.000    1.429    2.857    4.286    2.000    0.000 
#    2.571    1.429    0.000    3.429    0.000    0.000 
#    0.000    0.000    0.000    0.000    0.000    0.000 
#
# Total GULP energy -156224.624860 kJ/mol
# GULP energy per Si atom -5579.450888 kJ/mol
# Density = 2.131530 g / cm^3
# Si number density = 21.363923 Si / 1000 Ang^3
#
#
#
# Elastic Constant Matrix: (Units=GPa)
#
#
# Indices 1 2 3 4 5 6 
#
# 1 31.5665 9.0936 -2.7384 0.0001 10.2960 -0.0002
# 2 9.0936 82.6537 15.9257 -0.0003 0.2656 -0.0002
# 3 -2.7384 15.9257 80.5595 -0.0008 -4.9598 0.0003
# 4 0.0001 -0.0003 -0.0008 42.6109 0.0004 5.9932
# 5 10.2960 0.2656 -4.9598 0.0004 29.4730 -0.0002
# 6 -0.0002 -0.0002 0.0003 5.9932 -0.0002 11.4232
#
#
#
# Elastic Compliance Matrix: (Units=1/GPa)
#
#
# Indices 1 2 3 4 5 6 
#
# 1 0.037187 -0.004307 0.001332 0.000000 -0.012728 0.000000
# 2 -0.004307 0.013085 -0.002676 0.000000 0.000936 0.000000
# 3 0.001332 -0.002676 0.013096 0.000000 0.001763 0.000000
# 4 0.000000 0.000000 0.000000 0.025338 0.000000 -0.013294
# 5 -0.012728 0.000936 0.001763 0.000000 0.038664 0.000001
# 6 0.000000 0.000000 0.000000 -0.013294 0.000001 0.094516
#
#
# Mechanical properties :
#
#
# Convention : Reuss Voigt Hill
#
# Bulk Modulus (GPa) = 19.20623 26.59351 22.89987
# Shear Modulus (GPa) = 19.95674 28.20135 24.07904
#
# Velocity S-wave (km/s) = 3.05967 3.63718 3.36086
# Velocity P-wave (km/s) = 4.63591 5.48759 5.07963
#
# Compressibility (1/GPa) = 0.05206644
#
# Stress axis : x y z
#
# Youngs Moduli (GPa) = 26.89126 76.42310 76.35978
#
# Poissons Ratio (x) = 0.32916 -0.10170
# Poissons Ratio (y) = 0.11582 0.20430
# Poissons Ratio (z) = -0.03582 0.20447
#
# Static dielectric constant tensor:
#      x y z
#    x 1.808480 0.000000 0.026190 
#    y 0.000000 1.789390 0.000000 
#    z 0.026190 0.000000 1.818020 
# 
# From -- ./inp_files/224391.got.cif
#   From: 2010.05.17/outbox.cif.g08.bks.cpg/sg15_113_cif.got.tgz:224391.got - 2010.06.03 18:47:42.
