data_PCOD9302364
_publ_section_title
;
Structure prediction by ZEFSAII (Michael W. Deem and Ramdas Pophale) SiO2 
 PCOD9302364
Probable space group: C 2/C
;
_chemical_formula_sum "Si O2"
_cell_formula_units_Z 52
_cell_length_a 23.353290
_cell_length_b 5.101706
_cell_length_c 18.372709
_cell_angle_alpha 90.000000
_cell_angle_beta 66.820681
_cell_angle_gamma 90.000000
_cell_volume 2012.256386
_symmetry_space_group_name_H-M "C 2/C"
_symmetry_group_IT_number 15
_symmetry_cell_setting 'monoclinic'
loop_
_space_group_symop_operation_xyz
x,y,z
-x,y,1/2-z
-x,-y,-z
x,-y,1/2+z
1/2+x,1/2+y,z
1/2-x,1/2+y,1/2-z
1/2-x,1/2-y,-z
1/2+x,1/2-y,1/2+z
loop_
_atom_site_type_symbol
_atom_site_label
_atom_site_fract_x
_atom_site_fract_y
_atom_site_fract_z
Si Si1 0.000000 0.007681 0.750000
Si Si2 0.008051 0.706652 0.060862
Si Si3 0.931111 0.337403 0.353363
Si Si4 0.208907 0.618826 0.771740
Si Si5 0.861570 0.850714 0.556414
Si Si6 0.408469 0.875995 0.725804
Si Si7 0.314873 0.165559 0.000906
O O1 0.934733 0.147954 0.763223
O O2 0.978901 0.897501 0.839859
O O3 0.044369 0.568402 0.109487
O O4 0.938684 0.704219 0.133157
O O5 0.063979 0.883095 0.996449
O O6 0.000000 0.500000 0.000000
O O7 0.935937 0.391011 0.264485
O O8 0.863398 0.273699 0.412544
O O9 0.255917 0.383730 0.773469
O O10 0.160155 0.737432 0.855124
O O11 0.163363 0.452860 0.741738
O O12 0.829182 0.631899 0.519203
O O13 0.831638 0.132973 0.556844
O O14 0.250000 0.250000 0.000000
#
# Coordination Sequence:
#
# PCOD9302364 Si02
#       7
#     4   8   8   8   8   8   8
#     4  12  22  44  78 110 148 186 266 316 396 446
#     4  11  21  47  72 107 149 190 250 319 396 451
#     4  11  25  43  71 113 145 195 254 316 385 469
#     4  12  30  50  75 110 155 209 262 312 383 467
#     4  11  25  48  71 108 146 189 255 312 374 454
#     4  12  25  46  75 108 153 200 251 323 382 465
#     4  11  26  45  73 101 147 198 246 305 373 450
#
# _framework density 25.841638
#
# number of rings (size 3 to 8) (size 9 to 14) (size 15 to 20)
#    0.000    0.615    4.615    2.308    8.615    0.000 
#    2.769    2.308    0.000    0.000    0.000    0.000 
#    0.000    0.000    0.000    0.000    0.000    0.000 
#
# Total GULP energy -144750.965622 kJ/mol
# GULP energy per Si atom -5567.344832 kJ/mol
# Density = 2.578282 g / cm^3
# Si number density = 25.841638 Si / 1000 Ang^3
#
#
#
# Elastic Constant Matrix: (Units=GPa)
#
#
# Indices 1 2 3 4 5 6 
#
# 1 65.3847 -12.8807 -2.4075 0.0124 -22.0091 0.0554
# 2 -12.8807 73.7509 28.6221 -0.0088 -22.0815 0.0594
# 3 -2.4075 28.6221 93.4426 0.0012 -4.3931 0.0144
# 4 0.0124 -0.0088 0.0012 30.5944 -0.0099 -17.3089
# 5 -22.0091 -22.0815 -4.3931 -0.0099 35.9425 -0.0081
# 6 0.0554 0.0594 0.0144 -17.3089 -0.0081 12.9441
#
#
#
# Elastic Compliance Matrix: (Units=1/GPa)
#
#
# Indices 1 2 3 4 5 6 
#
# 1 0.025099 0.011841 -0.001927 -0.000336 0.022408 -0.000595
# 2 0.011841 0.024471 -0.006178 -0.000293 0.021529 -0.000534
# 3 -0.001927 -0.006178 0.012382 0.000037 -0.003462 0.000071
# 4 -0.000336 -0.000293 0.000037 0.134254 -0.000303 0.179528
# 5 0.022408 0.021529 -0.003462 -0.000303 0.054347 -0.000562
# 6 -0.000595 -0.000534 0.000071 0.179528 -0.000562 0.317326
#
#
# Mechanical properties :
#
#
# Convention : Reuss Voigt Hill
#
# Bulk Modulus (GPa) = 14.40427 28.80510 21.60469
# Shear Modulus (GPa) = 8.56826 30.51248 19.54037
#
# Velocity S-wave (km/s) = 1.82288 3.43993 2.75282
# Velocity P-wave (km/s) = 3.16491 5.19119 4.29914
#
# Compressibility (1/GPa) = 0.06942385
#
# Stress axis : x y z
#
# Youngs Moduli (GPa) = 39.84208 40.86394 80.76346
#
# Poissons Ratio (x) = -0.48386 0.15561
# Poissons Ratio (y) = -0.47176 0.49899
# Poissons Ratio (z) = 0.07676 0.25248
#
# Static dielectric constant tensor:
#      x y z
#    x 2.072630 0.000030 -0.049720 
#    y 0.000030 1.383770 -0.000160 
#    z -0.049720 -0.000160 2.091110 
# 
# From -- ./inp_files/254291.got.cif
#   From: 2010.05.17/outbox.cif.g08.bks.cpg/sg15_128_cif.got.tgz:254291.got - 2010.06.03 18:47:42.
