data_PCOD9302737
_publ_section_title
;
Structure prediction by ZEFSAII (Michael W. Deem and Ramdas Pophale) SiO2 
 PCOD9302737
Probable space group: C 2/C
;
_chemical_formula_sum "Si O2"
_cell_formula_units_Z 60
_cell_length_a 9.425095
_cell_length_b 18.790950
_cell_length_c 20.607613
_cell_angle_alpha 90.000000
_cell_angle_beta 133.987384
_cell_angle_gamma 90.000000
_cell_volume 2625.962860
_symmetry_space_group_name_H-M "C 2/C"
_symmetry_group_IT_number 15
_symmetry_cell_setting 'monoclinic'
loop_
_space_group_symop_operation_xyz
x,y,z
-x,y,1/2-z
-x,-y,-z
x,-y,1/2+z
1/2+x,1/2+y,z
1/2-x,1/2+y,1/2-z
1/2-x,1/2-y,-z
1/2+x,1/2-y,1/2+z
loop_
_atom_site_type_symbol
_atom_site_label
_atom_site_fract_x
_atom_site_fract_y
_atom_site_fract_z
Si Si1 0.773320 0.280346 0.152578
Si Si2 0.211435 0.069800 0.062889
Si Si3 0.122796 0.408210 0.090932
Si Si4 0.303386 0.595827 0.773940
Si Si5 0.808410 0.125739 0.994504
Si Si6 0.500000 0.007204 0.750000
Si Si7 0.646968 0.513965 0.407845
Si Si8 0.093503 0.314003 0.953451
O O1 0.677249 0.341836 0.167793
O O2 0.629841 0.213669 0.116757
O O3 0.000000 0.272602 0.250000
O O4 0.749627 0.305773 0.069373
O O5 0.322781 0.032985 0.157882
O O6 0.349291 0.135297 0.087371
O O7 0.990701 0.095274 0.009459
O O8 0.195939 0.019187 0.994931
O O9 0.274281 0.378272 0.191971
O O10 0.187609 0.488346 0.090949
O O11 0.129131 0.359739 0.029528
O O12 0.909517 0.401125 0.054966
O O13 0.101133 0.557084 0.729485
O O14 0.464560 0.534418 0.828372
O O15 0.895837 0.097584 0.093307
O O16 0.250000 0.250000 0.000000
#
# Coordination Sequence:
#
# PCOD9302737 Si02
#       8
#     8   8   8   8   8   4   8   8
#     4  12  23  43  71 104 135 184 243 300 349 414
#     4  11  23  43  68  98 135 190 224 283 356 415
#     4  11  25  41  67 102 138 180 231 286 353 415
#     4  12  21  41  71 108 134 176 237 291 345 426
#     4  12  21  41  69 101 136 179 226 281 364 420
#     4  12  24  42  70 106 144 174 242 288 348 428
#     4  11  22  39  68 101 141 180 219 280 356 427
#     4  11  25  50  68  89 141 189 242 292 345 418
#
# _framework density 22.848761
#
# number of rings (size 3 to 8) (size 9 to 14) (size 15 to 20)
#    0.000    0.533    6.000    3.600    0.000    1.600 
#    4.800    0.000    0.000    0.000    0.000    0.000 
#    0.000    0.000    0.000    0.000    0.000    0.000 
#
# Total GULP energy -167121.283094 kJ/mol
# GULP energy per Si atom -5570.709436 kJ/mol
# Density = 2.279676 g / cm^3
# Si number density = 22.848761 Si / 1000 Ang^3
#
#
#
# Elastic Constant Matrix: (Units=GPa)
#
#
# Indices 1 2 3 4 5 6 
#
# 1 125.4882 27.5028 18.4050 0.0001 14.8052 0.0000
# 2 27.5028 55.0247 15.5325 0.0000 -0.4990 0.0000
# 3 18.4050 15.5325 84.5125 0.0001 -3.6468 0.0001
# 4 0.0001 0.0000 0.0001 4.8907 0.0001 4.2864
# 5 14.8052 -0.4990 -3.6468 0.0001 32.5659 0.0001
# 6 0.0000 0.0000 0.0001 4.2864 0.0001 39.2615
#
#
#
# Elastic Compliance Matrix: (Units=1/GPa)
#
#
# Indices 1 2 3 4 5 6 
#
# 1 0.009719 -0.004478 -0.001494 0.000000 -0.004654 0.000000
# 2 -0.004478 0.021232 -0.002839 0.000000 0.002043 0.000000
# 3 -0.001494 -0.002839 0.012769 0.000000 0.002066 0.000000
# 4 0.000000 0.000000 0.000000 0.226104 -0.000001 -0.024685
# 5 -0.004654 0.002043 0.002066 -0.000001 0.033086 0.000000
# 6 0.000000 0.000000 0.000000 -0.024685 0.000000 0.028165
#
#
# Mechanical properties :
#
#
# Convention : Reuss Voigt Hill
#
# Bulk Modulus (GPa) = 38.31859 43.10066 40.70962
# Shear Modulus (GPa) = 13.99010 28.91596 21.45303
#
# Velocity S-wave (km/s) = 2.47714 3.56130 3.06750
# Velocity P-wave (km/s) = 4.99885 5.98455 5.51377
#
# Compressibility (1/GPa) = 0.02609699
#
# Stress axis : x y z
#
# Youngs Moduli (GPa) = 102.89565 47.09930 78.31537
#
# Poissons Ratio (x) = 0.21091 0.11703
# Poissons Ratio (y) = 0.46077 0.22232
# Poissons Ratio (z) = 0.15376 0.13370
#
# Static dielectric constant tensor:
#      x y z
#    x 1.434480 0.000000 0.265510 
#    y 0.000000 1.959940 0.000000 
#    z 0.265510 0.000000 1.805070 
# 
# From -- ./inp_files/234072.got.cif
#   From: 2010.05.17/outbox.cif.g08.bks.cpg/sg15_118_cif.got.tgz:234072.got - 2010.06.03 18:47:42.
