data_PCOD9302541
_publ_section_title
;
Structure prediction by ZEFSAII (Michael W. Deem and Ramdas Pophale) SiO2 
 PCOD9302541
Probable space group: C 2/C
;
_chemical_formula_sum "Si O2"
_cell_formula_units_Z 48
_cell_length_a 19.891863
_cell_length_b 9.743021
_cell_length_c 15.895430
_cell_angle_alpha 90.000000
_cell_angle_beta 137.372891
_cell_angle_gamma 90.000000
_cell_volume 2086.285933
_symmetry_space_group_name_H-M "C 2/C"
_symmetry_group_IT_number 15
_symmetry_cell_setting 'monoclinic'
loop_
_space_group_symop_operation_xyz
x,y,z
-x,y,1/2-z
-x,-y,-z
x,-y,1/2+z
1/2+x,1/2+y,z
1/2-x,1/2+y,1/2-z
1/2-x,1/2-y,-z
1/2+x,1/2-y,1/2+z
loop_
_atom_site_type_symbol
_atom_site_label
_atom_site_fract_x
_atom_site_fract_y
_atom_site_fract_z
Si Si1 0.436253 0.699360 0.402400
Si Si2 0.103559 0.325443 0.312659
Si Si3 0.322151 0.442980 0.521284
Si Si4 0.228093 0.710394 0.623457
Si Si5 0.616307 0.750360 0.864177
Si Si6 0.620571 0.585859 0.621490
O O1 0.414759 0.789789 0.302020
O O2 0.650291 0.565137 0.551859
O O3 0.345971 0.710565 0.383845
O O4 0.543143 0.713795 0.545539
O O5 0.204503 0.410246 0.418968
O O6 0.122587 0.181095 0.379192
O O7 0.000000 0.387648 0.250000
O O8 0.357022 0.589909 0.589805
O O9 0.159166 0.665884 0.482700
O O10 0.281675 0.604747 0.733450
O O11 0.935269 0.037057 0.380883
O O12 0.500000 0.764609 0.750000
O O13 0.680013 0.783948 0.839606
#
# Coordination Sequence:
#
# PCOD9302541 Si02
#       6
#     8   8   8   8   8   8
#     4  11  22  39  64  93 127 168 214 259 314 376
#     4  11  22  38  60  92 134 171 209 263 324 379
#     4  11  22  38  64  94 127 172 216 265 311 379
#     4  11  23  40  65  95 128 159 210 274 309 370
#     4  11  24  44  68  93 125 169 220 260 317 378
#     4  11  22  38  65  97 126 165 217 261 310 378
#
# _framework density 23.007393
#
# number of rings (size 3 to 8) (size 9 to 14) (size 15 to 20)
#    0.000    1.000    5.000    2.500    2.333    0.000 
#    0.000    5.000    0.000    6.000    0.000    0.000 
#    0.000    0.000    0.000    0.000    0.000    0.000 
#
# Total GULP energy -133989.130023 kJ/mol
# GULP energy per Si atom -5582.880418 kJ/mol
# Density = 2.295503 g / cm^3
# Si number density = 23.007393 Si / 1000 Ang^3
#
#
#
# Elastic Constant Matrix: (Units=GPa)
#
#
# Indices 1 2 3 4 5 6 
#
# 1 168.5244 11.5545 65.6940 0.0000 16.9887 0.0000
# 2 11.5545 48.7120 24.5258 0.0000 -0.6437 0.0000
# 3 65.6940 24.5258 138.9468 0.0000 21.2824 0.0000
# 4 0.0000 0.0000 0.0000 25.3079 0.0000 8.4711
# 5 16.9887 -0.6437 21.2824 0.0000 56.1981 0.0000
# 6 0.0000 0.0000 0.0000 8.4711 0.0000 19.3148
#
#
#
# Elastic Compliance Matrix: (Units=1/GPa)
#
#
# Indices 1 2 3 4 5 6 
#
# 1 0.007323 -0.000089 -0.003299 0.000000 -0.000966 0.000000
# 2 -0.000089 0.022719 -0.004259 0.000000 0.001900 0.000000
# 3 -0.003299 -0.004259 0.009940 0.000000 -0.002816 0.000000
# 4 0.000000 0.000000 0.000000 0.046312 0.000000 -0.020312
# 5 -0.000966 0.001900 -0.002816 0.000000 0.019174 0.000000
# 6 0.000000 0.000000 0.000000 -0.020312 0.000000 0.060682
#
#
# Mechanical properties :
#
#
# Convention : Reuss Voigt Hill
#
# Bulk Modulus (GPa) = 40.50472 62.19243 51.34857
# Shear Modulus (GPa) = 26.36095 37.12474 31.74284
#
# Velocity S-wave (km/s) = 3.38858 4.02132 3.71843
# Velocity P-wave (km/s) = 5.74049 6.97507 6.38768
#
# Compressibility (1/GPa) = 0.02468848
#
# Stress axis : x y z
#
# Youngs Moduli (GPa) = 136.55157 44.01507 100.60582
#
# Poissons Ratio (x) = 0.00391 0.33188
# Poissons Ratio (y) = 0.01214 0.42851
# Poissons Ratio (z) = 0.45046 0.18747
#
# Static dielectric constant tensor:
#      x y z
#    x 1.875960 0.000000 0.037200 
#    y 0.000000 1.954710 0.000000 
#    z 0.037200 0.000000 1.917070 
# 
# From -- ./inp_files/168301.got.cif
#   From: 2010.05.17/outbox.cif.g08.bks.cpg/sg15_85_cif.got.tgz:168301.got - 2010.06.03 18:47:42.
