data_PCOD9302892
_publ_section_title
;
Structure prediction by ZEFSAII (Michael W. Deem and Ramdas Pophale) SiO2 
 PCOD9302892
Probable space group: C 2/C
;
_chemical_formula_sum "Si O2"
_cell_formula_units_Z 48
_cell_length_a 16.040610
_cell_length_b 15.215439
_cell_length_c 11.047780
_cell_angle_alpha 90.000000
_cell_angle_beta 130.708703
_cell_angle_gamma 90.000000
_cell_volume 2043.947804
_symmetry_space_group_name_H-M "C 2/C"
_symmetry_group_IT_number 15
_symmetry_cell_setting 'monoclinic'
loop_
_space_group_symop_operation_xyz
x,y,z
-x,y,1/2-z
-x,-y,-z
x,-y,1/2+z
1/2+x,1/2+y,z
1/2-x,1/2+y,1/2-z
1/2-x,1/2-y,-z
1/2+x,1/2-y,1/2+z
loop_
_atom_site_type_symbol
_atom_site_label
_atom_site_fract_x
_atom_site_fract_y
_atom_site_fract_z
Si Si1 0.302919 0.199615 0.883560
Si Si2 0.435058 0.480814 0.563556
Si Si3 0.010796 0.385021 0.597413
Si Si4 0.757296 0.614690 0.080485
Si Si5 0.593617 0.063598 0.937238
Si Si6 0.233047 0.843156 0.050702
O O1 0.431051 0.196156 0.045141
O O2 0.239093 0.142173 0.923747
O O3 0.290554 0.164777 0.736323
O O4 0.261069 0.297874 0.858553
O O5 0.500000 0.501490 0.750000
O O6 0.500000 0.500000 0.500000
O O7 0.326557 0.541820 0.455438
O O8 0.387951 0.381388 0.535371
O O9 0.927230 0.468373 0.521506
O O10 0.000000 0.423243 0.250000
O O11 0.066527 0.371894 0.521004
O O12 0.886342 0.592176 0.220239
O O13 0.707458 0.086563 0.981959
O O14 0.250000 0.750000 0.000000
#
# Coordination Sequence:
#
# PCOD9302892 Si02
#       6
#     8   8   8   8   8   8
#     4  11  24  45  73 108 148 191 241 315 370 448
#     4  12  30  51  76 106 155 208 256 308 388 467
#     4  11  23  41  72 107 143 186 246 298 377 438
#     4  11  26  47  74 106 147 196 249 298 376 455
#     4  11  22  40  69 104 142 184 232 310 364 436
#     4  12  27  47  73 109 151 192 254 314 380 441
#
# _framework density 23.483968000000001
#
# number of rings (size 3 to 8) (size 9 to 14) (size 15 to 20)
#    0.000    0.667    1.667    5.500    7.000    6.000 
#    0.000    0.000    0.000    0.000    0.000    0.000 
#    0.000    0.000    0.000    0.000    0.000    0.000 
#
# Total GULP energy -134130.131124 kJ/mol
# GULP energy per Si atom -5588.755464 kJ/mol
# Density = 2.343052 g / cm^3
# Si number density = 23.483968 Si / 1000 Ang^3
#
#
#
# Elastic Constant Matrix: (Units=GPa)
#
#
# Indices 1 2 3 4 5 6 
#
# 1 167.0773 63.1466 41.0399 0.0000 -17.4219 0.0000
# 2 63.1466 86.7439 16.2959 0.0000 7.8886 0.0000
# 3 41.0399 16.2959 98.9550 0.0000 -16.1543 0.0000
# 4 0.0000 0.0000 0.0000 22.9431 0.0000 5.6014
# 5 -17.4219 7.8886 -16.1543 0.0000 50.5282 0.0000
# 6 0.0000 0.0000 0.0000 5.6014 0.0000 36.7145
#
#
#
# Elastic Compliance Matrix: (Units=1/GPa)
#
#
# Indices 1 2 3 4 5 6 
#
# 1 0.009485 -0.006818 -0.002219 0.000000 0.003625 0.000000
# 2 -0.006818 0.017135 -0.000860 0.000000 -0.005301 0.000000
# 3 -0.002219 -0.000860 0.011674 0.000000 0.003101 0.000000
# 4 0.000000 0.000000 0.000000 0.045272 0.000000 -0.006907
# 5 0.003625 -0.005301 0.003101 0.000000 0.022860 0.000000
# 6 0.000000 0.000000 0.000000 -0.006907 0.000000 0.028291
#
#
# Mechanical properties :
#
#
# Convention : Reuss Voigt Hill
#
# Bulk Modulus (GPa) = 54.05174 65.97122 60.01148
# Shear Modulus (GPa) = 31.11840 37.52343 34.32092
#
# Velocity S-wave (km/s) = 3.64413 4.00163 3.82705
# Velocity P-wave (km/s) = 6.38535 7.03589 6.71849
#
# Compressibility (1/GPa) = 0.01850079
#
# Stress axis : x y z
#
# Youngs Moduli (GPa) = 105.42848 58.36107 85.66179
#
# Poissons Ratio (x) = 0.39788 0.19010
# Poissons Ratio (y) = 0.71877 0.07363
# Poissons Ratio (z) = 0.23397 0.05017
#
# Static dielectric constant tensor:
#      x y z
#    x 1.906700 0.000000 0.007620 
#    y 0.000000 1.949440 0.000000 
#    z 0.007620 0.000000 1.906890 
# 
# From -- ./inp_files/97210.got.cif
#   From: 2010.05.17/outbox.cif.g08.bks.cpg/sg15_49_cif.got.tgz:97210.got - 2010.06.03 18:47:42.
