data_PCOD9302966
_publ_section_title
;
Structure prediction by ZEFSAII (Michael W. Deem and Ramdas Pophale) SiO2 
 PCOD9302966
Probable space group: C 2/C
;
_chemical_formula_sum "Si O2"
_cell_formula_units_Z 48
_cell_length_a 11.261894
_cell_length_b 9.326209
_cell_length_c 24.489565
_cell_angle_alpha 90.000000
_cell_angle_beta 117.413888
_cell_angle_gamma 90.000000
_cell_volume 2283.314498
_symmetry_space_group_name_H-M "C 2/C"
_symmetry_group_IT_number 15
_symmetry_cell_setting 'monoclinic'
loop_
_space_group_symop_operation_xyz
x,y,z
-x,y,1/2-z
-x,-y,-z
x,-y,1/2+z
1/2+x,1/2+y,z
1/2-x,1/2+y,1/2-z
1/2-x,1/2-y,-z
1/2+x,1/2-y,1/2+z
loop_
_atom_site_type_symbol
_atom_site_label
_atom_site_fract_x
_atom_site_fract_y
_atom_site_fract_z
Si Si1 0.598405 0.956185 0.226869
Si Si2 0.031914 0.151732 0.318491
Si Si3 0.230837 0.772257 0.586328
Si Si4 0.682430 0.032497 0.127961
Si Si5 0.661195 0.529918 0.645868
Si Si6 0.473581 0.238471 0.052318
O O1 0.500000 0.030937 0.250000
O O2 0.517936 0.815867 0.189451
O O3 0.645546 0.043606 0.184278
O O4 0.729744 0.909758 0.288565
O O5 0.188553 0.126749 0.359906
O O6 0.000000 0.102675 0.250000
O O7 0.948096 0.057946 0.342723
O O8 0.218955 0.630708 0.620959
O O9 0.233513 0.914777 0.622648
O O10 0.359808 0.764076 0.574846
O O11 0.101220 0.774473 0.519474
O O12 0.553441 0.089219 0.068487
O O13 0.583431 0.645845 0.593832
#
# Coordination Sequence:
#
# PCOD9302966 Si02
#       6
#     8   8   8   8   8   8
#     4  11  24  41  66  98 129 164 213 263 326 393
#     4  11  22  41  65  96 132 170 205 261 334 391
#     4  11  25  45  65  96 129 175 228 263 320 387
#     4  12  23  44  69  95 135 171 213 269 329 385
#     4  12  23  43  68  94 135 170 213 274 324 382
#     4  11  25  43  67  94 131 176 220 273 319 377
#
# _framework density 21.022072000000001
#
# number of rings (size 3 to 8) (size 9 to 14) (size 15 to 20)
#    0.000    0.667    5.000    4.000    0.000    0.000 
#    0.000    0.833    0.000    0.000    0.000    0.000 
#    0.000    0.000    0.000    0.000    0.000    0.000 
#
# Total GULP energy -134243.811929 kJ/mol
# GULP energy per Si atom -5593.492164 kJ/mol
# Density = 2.097422 g / cm^3
# Si number density = 21.022072 Si / 1000 Ang^3
#
#
#
# Elastic Constant Matrix: (Units=GPa)
#
#
# Indices 1 2 3 4 5 6 
#
# 1 89.6997 18.0271 19.5128 0.0000 6.6217 0.0000
# 2 18.0271 67.3571 11.6931 0.0000 7.9345 0.0000
# 3 19.5128 11.6931 70.8584 0.0000 18.7845 0.0000
# 4 0.0000 0.0000 0.0000 27.5416 0.0000 9.2714
# 5 6.6217 7.9345 18.7845 0.0000 39.3786 0.0000
# 6 0.0000 0.0000 0.0000 9.2714 0.0000 10.9370
#
#
#
# Elastic Compliance Matrix: (Units=1/GPa)
#
#
# Indices 1 2 3 4 5 6 
#
# 1 0.012350 -0.002785 -0.002907 0.000000 -0.000129 0.000000
# 2 -0.002785 0.016073 -0.001318 0.000000 -0.002142 0.000000
# 3 -0.002907 -0.001318 0.017092 0.000000 -0.007399 0.000000
# 4 0.000000 0.000000 0.000000 0.050808 0.000000 -0.043070
# 5 -0.000129 -0.002142 -0.007399 0.000000 0.029377 0.000000
# 6 0.000000 0.000000 0.000000 -0.043070 0.000000 0.127943
#
#
# Mechanical properties :
#
#
# Convention : Reuss Voigt Hill
#
# Bulk Modulus (GPa) = 31.75146 36.26457 34.00802
# Shear Modulus (GPa) = 17.97518 27.48360 22.72939
#
# Velocity S-wave (km/s) = 2.92732 3.61968 3.29175
# Velocity P-wave (km/s) = 5.15386 5.89556 5.53714
#
# Compressibility (1/GPa) = 0.03149461
#
# Stress axis : x y z
#
# Youngs Moduli (GPa) = 80.97155 62.21714 58.50650
#
# Poissons Ratio (x) = 0.17330 0.17009
# Poissons Ratio (y) = 0.22554 0.07708
# Poissons Ratio (z) = 0.23540 0.08197
#
# Static dielectric constant tensor:
#      x y z
#    x 1.749560 0.000000 0.011540 
#    y 0.000000 1.751910 0.000000 
#    z 0.011540 0.000000 1.731300 
# 
# From -- ./inp_files/267628.got.cif
#   From: 2010.05.17/outbox.cif.g08.bks.cpg/sg15_134_cif.got.tgz:267628.got - 2010.06.03 18:47:42.
