data_PCOD9302152
_publ_section_title
;
Structure prediction by ZEFSAII (Michael W. Deem and Ramdas Pophale) SiO2 
 PCOD9302152
Probable space group: C 2/C
;
_chemical_formula_sum "Si O2"
_cell_formula_units_Z 44
_cell_length_a 19.227861
_cell_length_b 15.089171
_cell_length_c 8.440232
_cell_angle_alpha 90.000000
_cell_angle_beta 49.935164
_cell_angle_gamma 90.000000
_cell_volume 1874.096100
_symmetry_space_group_name_H-M "C 2/C"
_symmetry_group_IT_number 15
_symmetry_cell_setting 'monoclinic'
loop_
_space_group_symop_operation_xyz
x,y,z
-x,y,1/2-z
-x,-y,-z
x,-y,1/2+z
1/2+x,1/2+y,z
1/2-x,1/2+y,1/2-z
1/2-x,1/2-y,-z
1/2+x,1/2-y,1/2+z
loop_
_atom_site_type_symbol
_atom_site_label
_atom_site_fract_x
_atom_site_fract_y
_atom_site_fract_z
Si Si1 0.399847 0.867862 0.866260
Si Si2 0.133155 0.795228 0.304570
Si Si3 0.136738 0.084454 0.290586
Si Si4 0.228190 0.956311 0.981257
Si Si5 0.199017 0.265951 0.240906
Si Si6 0.500000 0.380473 0.750000
O O1 0.500000 0.904482 0.750000
O O2 0.408003 0.773315 0.761351
O O3 0.331187 0.925484 0.859022
O O4 0.351454 0.849806 0.107692
O O5 0.168517 0.886296 0.173045
O O6 0.223046 0.747847 0.242754
O O7 0.070583 0.821322 0.545695
O O8 0.175325 0.043637 0.393518
O O9 0.125895 0.187362 0.343386
O O10 0.050182 0.061479 0.310428
O O11 0.218561 0.056820 0.054474
O O12 0.250000 0.250000 0.000000
#
# Coordination Sequence:
#
# PCOD9302152 Si02
#       6
#     8   8   8   8   8   4
#     4  11  23  44  70  97 128 173 228 273 322 390
#     4  11  22  41  66 101 131 168 219 269 338 387
#     4  12  24  43  62  94 134 173 213 265 338 393
#     4  11  25  43  66  89 136 181 207 269 337 399
#     4  11  21  42  69  95 131 175 217 274 337 387
#     4  12  26  38  68 106 126 166 224 278 322 406
#
# _framework density 23.477986000000001
#
# number of rings (size 3 to 8) (size 9 to 14) (size 15 to 20)
#    0.000    0.727    5.455    3.273    2.545    2.909 
#    0.000    0.909    2.000    0.000    0.000    0.000 
#    0.000    0.000    0.000    0.000    0.000    0.000 
#
# Total GULP energy -122630.392767 kJ/mol
# GULP energy per Si atom -5574.108762 kJ/mol
# Density = 2.342455 g / cm^3
# Si number density = 23.477986 Si / 1000 Ang^3
#
#
#
# Elastic Constant Matrix: (Units=GPa)
#
#
# Indices 1 2 3 4 5 6 
#
# 1 189.4506 40.0788 47.8423 0.0000 8.4191 0.0000
# 2 40.0788 46.2440 3.5465 0.0000 -1.5232 0.0000
# 3 47.8423 3.5465 100.4680 0.0000 9.3553 0.0000
# 4 0.0000 0.0000 0.0000 30.8591 0.0000 -1.4099
# 5 8.4191 -1.5232 9.3553 0.0000 41.9776 0.0000
# 6 0.0000 0.0000 0.0000 -1.4099 0.0000 -0.3058
#
#
#
# Elastic Compliance Matrix: (Units=1/GPa)
#
#
# Indices 1 2 3 4 5 6 
#
# 1 0.007464 -0.006254 -0.003240 0.000000 -0.001002 0.000000
# 2 -0.006254 0.026962 0.001857 0.000000 0.001819 0.000000
# 3 -0.003240 0.001857 0.011605 0.000000 -0.001869 0.000000
# 4 0.000000 0.000000 0.000000 0.026767 0.000000 -0.123399
# 5 -0.001002 0.001819 -0.001869 0.000000 0.024506 0.000000
# 6 0.000000 0.000000 0.000000 -0.123399 0.000000 -2.700875
#
#
# Mechanical properties :
#
#
# Convention : Reuss Voigt Hill
#
# Bulk Modulus (GPa) = 32.51327 57.67754 45.09540
# Shear Modulus (GPa) = -1.93945 30.81917 14.43986
#
# Velocity S-wave (km/s) = -0.90987 3.62703 2.48269
# Velocity P-wave (km/s) = 3.57416 6.49311 5.24095
#
# Compressibility (1/GPa) = 0.03075667
#
# Stress axis : x y z
#
# Youngs Moduli (GPa) = 133.97283 37.08952 86.16999
#
# Poissons Ratio (x) = 0.23194 0.27922
# Poissons Ratio (y) = 0.83781 -0.16000
# Poissons Ratio (z) = 0.43412 -0.06887
#
# Static dielectric constant tensor:
#      x y z
#    x 1.896890 0.000000 0.014680 
#    y 0.000000 1.919550 0.000000 
#    z 0.014680 0.000000 2.000010 
# 
# From -- ./inp_files/40636.got.cif
#   From: 2010.05.17/outbox.cif.g08.bks.cpg/sg15_21_cif.got.tgz:40636.got - 2010.06.03 18:47:42.
