data_PCOD9302506
_publ_section_title
;
Structure prediction by ZEFSAII (Michael W. Deem and Ramdas Pophale) SiO2 
 PCOD9302506
Probable space group: C 2/C
;
_chemical_formula_sum "Si O2"
_cell_formula_units_Z 64
_cell_length_a 18.528244
_cell_length_b 11.907446
_cell_length_c 30.026251
_cell_angle_alpha 90.000000
_cell_angle_beta 26.709082
_cell_angle_gamma 90.000000
_cell_volume 2977.457848
_symmetry_space_group_name_H-M "C 2/C"
_symmetry_group_IT_number 15
_symmetry_cell_setting 'monoclinic'
loop_
_space_group_symop_operation_xyz
x,y,z
-x,y,1/2-z
-x,-y,-z
x,-y,1/2+z
1/2+x,1/2+y,z
1/2-x,1/2+y,1/2-z
1/2-x,1/2-y,-z
1/2+x,1/2-y,1/2+z
loop_
_atom_site_type_symbol
_atom_site_label
_atom_site_fract_x
_atom_site_fract_y
_atom_site_fract_z
Si Si1 0.527901 0.089651 0.023745
Si Si2 0.393701 0.922723 0.167018
Si Si3 0.173420 0.782328 0.590490
Si Si4 0.914481 0.384764 0.252314
Si Si5 0.371163 0.539079 0.861071
Si Si6 0.015660 0.047879 0.876621
Si Si7 0.015227 0.815606 0.561609
Si Si8 0.459159 0.657070 0.547135
O O1 0.449691 0.208863 0.057838
O O2 0.451680 0.028481 0.107598
O O3 0.716382 0.104817 0.928894
O O4 0.500000 0.000000 0.000000
O O5 0.462997 0.939314 0.178400
O O6 0.202222 0.921450 0.271210
O O7 0.447122 0.803101 0.116407
O O8 0.250000 0.750000 0.500000
O O9 0.297893 0.710992 0.551227
O O10 0.994868 0.738696 0.699483
O O11 0.184972 0.911408 0.597285
O O12 0.722417 0.389130 0.356280
O O13 0.000000 0.428068 0.250000
O O14 0.500000 0.537853 0.750000
O O15 0.436003 0.579303 0.873478
O O16 0.957939 0.105571 0.954512
O O17 0.001583 0.913852 0.893047
O O18 0.950207 0.859190 0.549966
#
# Coordination Sequence:
#
# PCOD9302506 Si02
#       8
#     8   8   8   8   8   8   8   8
#     4  12  24  43  68  98 131 169 220 273 329 401
#     4  11  24  40  64 100 131 172 212 274 333 391
#     4  12  20  35  64 102 130 159 214 291 338 380
#     4  11  22  37  63  97 134 165 214 276 337 384
#     4  12  25  40  67  98 131 174 222 277 332 392
#     4  11  27  43  67  96 134 176 220 271 333 401
#     4  12  22  43  68  96 135 167 222 277 339 387
#     4  11  26  43  66  97 135 179 217 267 330 403
#
# _framework density 21.494845999999999
#
# number of rings (size 3 to 8) (size 9 to 14) (size 15 to 20)
#    0.000    0.500    6.250    1.500    7.000    0.500 
#    0.000    0.000    0.000    0.750    0.000    0.000 
#    0.000    0.000    0.000    0.000    0.000    0.000 
#
# Total GULP energy -178619.983734 kJ/mol
# GULP energy per Si atom -5581.874492 kJ/mol
# Density = 2.144592 g / cm^3
# Si number density = 21.494846 Si / 1000 Ang^3
#
#
#
# Elastic Constant Matrix: (Units=GPa)
#
#
# Indices 1 2 3 4 5 6 
#
# 1 171.9336 13.9001 37.3976 0.0002 20.5664 0.0001
# 2 13.9001 53.4391 -1.6406 -0.0015 2.6045 0.0000
# 3 37.3976 -1.6406 36.8354 0.0005 6.7522 -0.0003
# 4 0.0002 -0.0015 0.0005 12.2066 -0.0027 2.1573
# 5 20.5664 2.6045 6.7522 -0.0027 39.0804 -0.0002
# 6 0.0001 0.0000 -0.0003 2.1573 -0.0002 32.2127
#
#
#
# Elastic Compliance Matrix: (Units=1/GPa)
#
#
# Indices 1 2 3 4 5 6 
#
# 1 0.007998 -0.002184 -0.007717 -0.000001 -0.002730 0.000000
# 2 -0.002184 0.019414 0.003210 0.000002 -0.000699 0.000000
# 3 -0.007717 0.003210 0.035546 -0.000001 -0.002294 0.000000
# 4 -0.000001 0.000002 -0.000001 0.082904 0.000006 -0.005552
# 5 -0.002730 -0.000699 -0.002294 0.000006 0.027468 0.000000
# 6 0.000000 0.000000 0.000000 -0.005552 0.000000 0.031415
#
#
# Mechanical properties :
#
#
# Convention : Reuss Voigt Hill
#
# Bulk Modulus (GPa) = 20.17097 40.16913 30.17005
# Shear Modulus (GPa) = 21.30818 30.87001 26.08909
#
# Velocity S-wave (km/s) = 3.15193 3.79378 3.48765
# Velocity P-wave (km/s) = 4.75928 6.15782 5.50315
#
# Compressibility (1/GPa) = 0.04957621
#
# Stress axis : x y z
#
# Youngs Moduli (GPa) = 125.03389 51.51012 28.13267
#
# Poissons Ratio (x) = 0.11251 0.21709
# Poissons Ratio (y) = 0.27310 -0.09032
# Poissons Ratio (z) = 0.96485 -0.16536
#
# Static dielectric constant tensor:
#      x y z
#    x 1.950120 0.000000 -0.002010 
#    y 0.000000 1.749200 0.000000 
#    z -0.002010 0.000000 1.825580 
# 
# From -- ./inp_files/316193.got.cif
#   From: 2010.05.17/outbox.cif.g08.bks.cpg/sg15_159_cif.got.tgz:316193.got - 2010.06.03 18:47:42.
