data_PCOD9302280
_publ_section_title
;
Structure prediction by ZEFSAII (Michael W. Deem and Ramdas Pophale) SiO2 
 PCOD9302280
Probable space group: C 2/C
;
_chemical_formula_sum "Si O2"
_cell_formula_units_Z 40
_cell_length_a 10.552250
_cell_length_b 9.627967
_cell_length_c 28.874294
_cell_angle_alpha 90.000000
_cell_angle_beta 36.137580
_cell_angle_gamma 90.000000
_cell_volume 1729.981473
_symmetry_space_group_name_H-M "C 2/C"
_symmetry_group_IT_number 15
_symmetry_cell_setting 'monoclinic'
loop_
_space_group_symop_operation_xyz
x,y,z
-x,y,1/2-z
-x,-y,-z
x,-y,1/2+z
1/2+x,1/2+y,z
1/2-x,1/2+y,1/2-z
1/2-x,1/2-y,-z
1/2+x,1/2-y,1/2+z
loop_
_atom_site_type_symbol
_atom_site_label
_atom_site_fract_x
_atom_site_fract_y
_atom_site_fract_z
Si Si1 0.415142 0.637942 0.203365
Si Si2 0.917870 0.116096 0.559548
Si Si3 0.916586 0.426596 0.570511
Si Si4 0.282709 0.088032 0.789334
Si Si5 0.921556 0.673691 0.914798
O O1 0.657162 0.591332 0.145795
O O2 0.311980 0.749799 0.268380
O O3 0.276819 0.500011 0.237672
O O4 0.411683 0.712426 0.153350
O O5 0.013484 0.270765 0.537101
O O6 0.897321 0.068670 0.618172
O O7 0.690087 0.142665 0.601665
O O8 0.000000 0.000000 0.500000
O O9 0.000000 0.500000 0.500000
O O10 0.994204 0.532356 0.587353
O O11 0.500000 0.040349 0.750000
O O12 0.750000 0.750000 0.000000
#
# Coordination Sequence:
#
# PCOD9302280 Si02
#       5
#     8   8   8   8   8
#     4  11  27  46  72 101 146 193 247 303 375 449
#     4  11  25  44  70 107 146 187 253 310 363 444
#     4  11  23  44  74 104 145 190 243 303 378 439
#     4  12  26  50  70 105 147 194 247 305 373 443
#     4  11  21  44  71 105 145 184 237 303 365 446
#
# _framework density 23.121635000000001
#
# number of rings (size 3 to 8) (size 9 to 14) (size 15 to 20)
#    0.000    0.800    8.000    1.200    2.800    2.400 
#    0.000    0.000    0.000    0.000    0.000    0.000 
#    0.000    0.000    0.000    0.000    0.000    0.000 
#
# Total GULP energy -111567.736848 kJ/mol
# GULP energy per Si atom -5578.386842 kJ/mol
# Density = 2.306901 g / cm^3
# Si number density = 23.121635 Si / 1000 Ang^3
#
#
#
# Elastic Constant Matrix: (Units=GPa)
#
#
# Indices 1 2 3 4 5 6 
#
# 1 81.3121 57.0853 9.7503 0.0001 7.6611 0.0000
# 2 57.0853 179.4631 43.9058 -0.0001 0.0276 0.0000
# 3 9.7503 43.9058 84.6783 -0.0002 25.4954 0.0002
# 4 0.0001 -0.0001 -0.0002 47.2214 0.0000 12.2038
# 5 7.6611 0.0276 25.4954 0.0000 33.2904 0.0000
# 6 0.0000 0.0000 0.0002 12.2038 0.0000 63.6200
#
#
#
# Elastic Compliance Matrix: (Units=1/GPa)
#
#
# Indices 1 2 3 4 5 6 
#
# 1 0.016798 -0.006103 0.003110 0.000000 -0.006242 0.000000
# 2 -0.006103 0.008888 -0.005623 0.000000 0.005704 0.000000
# 3 0.003110 -0.005623 0.018951 0.000000 -0.015224 0.000000
# 4 0.000000 0.000000 0.000000 0.022281 0.000000 -0.004274
# 5 -0.006242 0.005704 -0.015224 0.000000 0.043130 0.000000
# 6 0.000000 0.000000 0.000000 -0.004274 0.000000 0.016538
#
#
# Mechanical properties :
#
#
# Convention : Reuss Voigt Hill
#
# Bulk Modulus (GPa) = 36.49073 62.99293 49.74183
# Shear Modulus (GPa) = 32.68933 44.47382 38.58158
#
# Velocity S-wave (km/s) = 3.76413 4.39050 4.08932
# Velocity P-wave (km/s) = 5.89134 7.28047 6.62243
#
# Compressibility (1/GPa) = 0.02740422
#
# Stress axis : x y z
#
# Youngs Moduli (GPa) = 59.52984 112.50649 52.76823
#
# Poissons Ratio (x) = 0.68665 -0.16410
# Poissons Ratio (y) = 0.36332 0.29672
# Poissons Ratio (z) = -0.18512 0.63264
#
# Static dielectric constant tensor:
#      x y z
#    x 1.898000 0.000000 -0.084140 
#    y 0.000000 2.132750 0.000000 
#    z -0.084140 0.000000 2.174280 
# 
# From -- ./inp_files/309818.got.cif
#   From: 2010.05.17/outbox.cif.g08.bks.cpg/sg15_155_cif.got.tgz:309818.got - 2010.06.03 18:47:42.
