data_PCOD9302485
_publ_section_title
;
Structure prediction by ZEFSAII (Michael W. Deem and Ramdas Pophale) SiO2 
 PCOD9302485
Probable space group: C 2/C
;
_chemical_formula_sum "Si O2"
_cell_formula_units_Z 40
_cell_length_a 16.311262
_cell_length_b 28.647899
_cell_length_c 10.005488
_cell_angle_alpha 90.000000
_cell_angle_beta 150.333210
_cell_angle_gamma 90.000000
_cell_volume 2314.112267
_symmetry_space_group_name_H-M "C 2/C"
_symmetry_group_IT_number 15
_symmetry_cell_setting 'monoclinic'
loop_
_space_group_symop_operation_xyz
x,y,z
-x,y,1/2-z
-x,-y,-z
x,-y,1/2+z
1/2+x,1/2+y,z
1/2-x,1/2+y,1/2-z
1/2-x,1/2-y,-z
1/2+x,1/2-y,1/2+z
loop_
_atom_site_type_symbol
_atom_site_label
_atom_site_fract_x
_atom_site_fract_y
_atom_site_fract_z
Si Si1 0.894937 0.217588 0.966703
Si Si2 0.328836 0.134956 0.924198
Si Si3 0.369802 0.296044 0.951992
Si Si4 0.495732 0.954412 0.903421
Si Si5 0.322827 0.394240 0.022016
O O1 0.753448 0.177162 0.772255
O O2 0.791459 0.263886 0.784497
O O3 0.027488 0.206402 0.038978
O O4 0.000000 0.222173 0.250000
O O5 0.500000 0.146516 0.250000
O O6 0.370284 0.088087 0.899418
O O7 0.198828 0.122981 0.856672
O O8 0.500000 0.279381 0.250000
O O9 0.319055 0.348309 0.924009
O O10 0.500000 0.966122 0.750000
O O11 0.326732 0.929154 0.706864
O O12 0.500000 0.000000 0.000000
O O13 0.500000 0.417066 0.250000
#
# Coordination Sequence:
#
# PCOD9302485 Si02
#       5
#     8   8   8   8   8
#     4  12  24  37  52  89 125 150 190 248 296 322
#     4   9  19  37  62  79 113 155 196 231 278 352
#     4  11  22  37  61  81 112 162 206 224 275 355
#     4   9  20  39  61  85 112 145 192 239 295 343
#     4   9  17  36  61  84 105 146 205 233 265 341
#
# _framework density 17.285246000000001
#
# number of rings (size 3 to 8) (size 9 to 14) (size 15 to 20)
#    0.000    2.400    4.000    1.800    5.600    0.000 
#    3.600    5.000    0.000    0.000    0.000    0.000 
#    0.000    0.000    0.000    0.000    0.000    0.000 
#
# Total GULP energy -111358.896763 kJ/mol
# GULP energy per Si atom -5567.944838 kJ/mol
# Density = 1.724590 g / cm^3
# Si number density = 17.285246 Si / 1000 Ang^3
#
#
#
# Elastic Constant Matrix: (Units=GPa)
#
#
# Indices 1 2 3 4 5 6 
#
# 1 120.2459 53.0448 46.5486 0.0000 18.4551 0.0000
# 2 53.0448 122.9385 53.3734 0.0000 4.9480 0.0000
# 3 46.5486 53.3734 87.7578 0.0000 -1.1406 0.0000
# 4 0.0000 0.0000 0.0000 18.8105 0.0000 -5.2404
# 5 18.4551 4.9480 -1.1406 0.0000 30.3903 0.0000
# 6 0.0000 0.0000 0.0000 -5.2404 0.0000 22.4363
#
#
#
# Elastic Compliance Matrix: (Units=1/GPa)
#
#
# Indices 1 2 3 4 5 6 
#
# 1 0.012727 -0.003016 -0.005013 0.000000 -0.007426 0.000000
# 2 -0.003016 0.011897 -0.005640 0.000000 -0.000317 0.000000
# 3 -0.005013 -0.005640 0.017544 0.000000 0.004621 0.000000
# 4 0.000000 0.000000 0.000000 0.056862 0.000000 0.013281
# 5 -0.007426 -0.000317 0.004621 0.000000 0.037640 0.000000
# 6 0.000000 0.000000 0.000000 0.013281 0.000000 0.047673
#
#
# Mechanical properties :
#
#
# Convention : Reuss Voigt Hill
#
# Bulk Modulus (GPa) = 67.42948 70.76397 69.09672
# Shear Modulus (GPa) = 23.08159 26.19246 24.63702
#
# Velocity S-wave (km/s) = 3.65819 3.89692 3.77944
# Velocity P-wave (km/s) = 7.54570 7.82788 7.68809
#
# Compressibility (1/GPa) = 0.01483031
#
# Stress axis : x y z
#
# Youngs Moduli (GPa) = 78.57269 84.05600 56.99957
#
# Poissons Ratio (x) = 0.25353 0.28573
# Poissons Ratio (y) = 0.23699 0.32146
# Poissons Ratio (z) = 0.39387 0.47406
#
# Static dielectric constant tensor:
#      x y z
#    x 1.592340 0.000000 0.005810 
#    y 0.000000 1.607790 0.000000 
#    z 0.005810 0.000000 1.608750 
# 
# From -- ./inp_files/44965.got.cif
#   From: 2010.05.17/outbox.cif.g08.bks.cpg/sg15_23_cif.got.tgz:44965.got - 2010.06.03 18:47:42.
