data_PCOD9302014
_publ_section_title
;
Structure prediction by ZEFSAII (Michael W. Deem and Ramdas Pophale) SiO2 
 PCOD9302014
Probable space group: C 2/C
;
_chemical_formula_sum "Si O2"
_cell_formula_units_Z 40
_cell_length_a 12.499552
_cell_length_b 23.303381
_cell_length_c 11.051168
_cell_angle_alpha 90.000000
_cell_angle_beta 37.266972
_cell_angle_gamma 90.000000
_cell_volume 1949.202907
_symmetry_space_group_name_H-M "C 2/C"
_symmetry_group_IT_number 15
_symmetry_cell_setting 'monoclinic'
loop_
_space_group_symop_operation_xyz
x,y,z
-x,y,1/2-z
-x,-y,-z
x,-y,1/2+z
1/2+x,1/2+y,z
1/2-x,1/2+y,1/2-z
1/2-x,1/2-y,-z
1/2+x,1/2-y,1/2+z
loop_
_atom_site_type_symbol
_atom_site_label
_atom_site_fract_x
_atom_site_fract_y
_atom_site_fract_z
Si Si1 0.067318 0.324802 0.826072
Si Si2 0.648830 0.470622 0.712856
Si Si3 0.377424 0.420786 0.134651
Si Si4 0.024447 0.807132 0.084985
Si Si5 0.510069 0.096792 0.872932
O O1 0.278056 0.323069 0.628715
O O2 0.000000 0.339302 0.750000
O O3 0.006602 0.259858 0.910742
O O4 0.010302 0.365345 0.987602
O O5 0.500000 0.453827 0.750000
O O6 0.653004 0.539438 0.721294
O O7 0.844780 0.446659 0.520846
O O8 0.560318 0.443588 0.913039
O O9 0.396365 0.353157 0.138580
O O10 0.203362 0.431620 0.210786
O O11 0.000000 0.814363 0.250000
O O12 0.500000 0.127172 0.750000
#
# Coordination Sequence:
#
# PCOD9302014 Si02
#       5
#     8   8   8   8   8
#     4  11  23  41  67  99 135 173 226 274 334 393
#     4  11  23  43  64  94 133 179 217 276 329 395
#     4  11  23  41  67  93 132 175 223 271 335 389
#     4  11  21  41  66  98 132 173 223 284 329 393
#     4  12  24  44  67 100 139 179 219 274 328 399
#
# _framework density 20.521208999999999
#
# number of rings (size 3 to 8) (size 9 to 14) (size 15 to 20)
#    0.000    0.800    4.000    6.000    0.000    0.000 
#    0.000    5.000    0.000    0.000    0.000    0.000 
#    0.000    0.000    0.000    0.000    0.000    0.000 
#
# Total GULP energy -111597.577863 kJ/mol
# GULP energy per Si atom -5579.878893 kJ/mol
# Density = 2.047450 g / cm^3
# Si number density = 20.521209 Si / 1000 Ang^3
#
#
#
# Elastic Constant Matrix: (Units=GPa)
#
#
# Indices 1 2 3 4 5 6 
#
# 1 88.9598 31.3624 32.7049 0.0000 -14.0419 0.0000
# 2 31.3624 44.4979 8.7165 0.0000 11.6628 0.0000
# 3 32.7049 8.7165 106.6070 0.0002 -18.8310 0.0000
# 4 0.0000 0.0000 0.0002 21.2321 -0.0001 -1.0479
# 5 -14.0419 11.6628 -18.8310 -0.0001 44.9089 0.0000
# 6 0.0000 0.0000 0.0000 -1.0479 0.0000 20.1480
#
#
#
# Elastic Compliance Matrix: (Units=1/GPa)
#
#
# Indices 1 2 3 4 5 6 
#
# 1 0.019040 -0.015058 -0.003097 0.000000 0.008565 0.000000
# 2 -0.015058 0.037165 -0.001032 0.000000 -0.014793 0.000000
# 3 -0.003097 -0.001032 0.011114 0.000000 0.003960 0.000000
# 4 0.000000 0.000000 0.000000 0.047220 0.000000 0.002456
# 5 0.008565 -0.014793 0.003960 0.000000 0.030448 0.000000
# 6 0.000000 0.000000 0.000000 0.002456 0.000000 0.049760
#
#
# Mechanical properties :
#
#
# Convention : Reuss Voigt Hill
#
# Bulk Modulus (GPa) = 34.54790 42.84805 38.69797
# Shear Modulus (GPa) = 20.59554 28.40985 24.50270
#
# Velocity S-wave (km/s) = 3.17144 3.72481 3.45921
# Velocity P-wave (km/s) = 5.50295 6.27886 5.90367
#
# Compressibility (1/GPa) = 0.02894532
#
# Stress axis : x y z
#
# Youngs Moduli (GPa) = 52.52027 26.90674 89.97458
#
# Poissons Ratio (x) = 0.40516 0.27865
# Poissons Ratio (y) = 0.79085 0.09288
# Poissons Ratio (z) = 0.16266 0.02777
#
# Static dielectric constant tensor:
#      x y z
#    x 1.761630 0.000000 0.022870 
#    y 0.000000 1.761560 0.000000 
#    z 0.022870 0.000000 1.760620 
# 
# From -- ./inp_files/41050.got.cif
#   From: 2010.05.17/outbox.cif.g08.bks.cpg/sg15_21_cif.got.tgz:41050.got - 2010.06.03 18:47:42.
