data_PCOD9302375
_publ_section_title
;
Structure prediction by ZEFSAII (Michael W. Deem and Ramdas Pophale) SiO2 
 PCOD9302375
Probable space group: C 2/C
;
_chemical_formula_sum "Si O2"
_cell_formula_units_Z 40
_cell_length_a 20.810986
_cell_length_b 11.681126
_cell_length_c 16.721570
_cell_angle_alpha 90.000000
_cell_angle_beta 158.427913
_cell_angle_gamma 90.000000
_cell_volume 1494.563729
_symmetry_space_group_name_H-M "C 2/C"
_symmetry_group_IT_number 15
_symmetry_cell_setting 'monoclinic'
loop_
_space_group_symop_operation_xyz
x,y,z
-x,y,1/2-z
-x,-y,-z
x,-y,1/2+z
1/2+x,1/2+y,z
1/2-x,1/2+y,1/2-z
1/2-x,1/2-y,-z
1/2+x,1/2-y,1/2+z
loop_
_atom_site_type_symbol
_atom_site_label
_atom_site_fract_x
_atom_site_fract_y
_atom_site_fract_z
Si Si1 0.114465 0.064512 0.230311
Si Si2 0.943783 0.834252 0.998103
Si Si3 0.341218 0.100347 0.629298
Si Si4 0.381146 0.842613 0.687749
Si Si5 0.580490 0.092970 0.034738
O O1 0.171090 0.125872 0.378160
O O2 0.296609 0.036484 0.393073
O O3 0.010671 0.134315 0.041725
O O4 0.016409 0.944891 0.129628
O O5 0.010391 0.721045 0.117868
O O6 0.733457 0.834492 0.753396
O O7 0.500000 0.118191 0.750000
O O8 0.307722 0.968544 0.618987
O O9 0.418009 0.151381 0.800479
O O10 0.500000 0.868250 0.750000
O O11 0.250000 0.750000 0.500000
O O12 0.500000 0.000000 0.000000
#
# Coordination Sequence:
#
# PCOD9302375 Si02
#       5
#     8   8   8   8   8
#     4   8  16  31  49  62  98 137 178 197 248 321
#     4   9  18  31  46  69  98 138 176 200 253 321
#     4   9  17  32  49  72 103 139 165 211 265 310
#     4  11  22  31  49  78 113 132 167 221 271 310
#     4   9  18  29  48  69 100 129 175 216 253 300
#
# _framework density 26.763663000000001
#
# number of rings (size 3 to 8) (size 9 to 14) (size 15 to 20)
#    1.200    1.600    2.000    0.000    2.800    0.000 
#    0.000    0.000    0.000    0.000    0.000    1.400 
#   12.000    0.000    0.000    0.000    0.000    0.000 
#
# Total GULP energy -111550.683445 kJ/mol
# GULP energy per Si atom -5577.534172 kJ/mol
# Density = 2.670275 g / cm^3
# Si number density = 26.763663 Si / 1000 Ang^3
#
#
#
# Elastic Constant Matrix: (Units=GPa)
#
#
# Indices 1 2 3 4 5 6 
#
# 1 73.1741 9.3987 16.2701 0.0003 -6.4933 0.0000
# 2 9.3987 88.5131 39.1700 -0.0004 -6.0219 -0.0003
# 3 16.2701 39.1700 166.7926 0.0000 -53.0022 0.0000
# 4 0.0003 -0.0004 0.0000 58.6990 0.0006 -21.3141
# 5 -6.4933 -6.0219 -53.0022 0.0006 40.3395 0.0001
# 6 0.0000 -0.0003 0.0000 -21.3141 0.0001 30.9786
#
#
#
# Elastic Compliance Matrix: (Units=1/GPa)
#
#
# Indices 1 2 3 4 5 6 
#
# 1 0.014073 -0.001078 -0.000774 0.000000 0.001087 0.000000
# 2 -0.001078 0.012976 -0.004089 0.000000 -0.003609 0.000000
# 3 -0.000774 -0.004089 0.011670 0.000000 0.014599 0.000000
# 4 0.000000 0.000000 0.000000 0.022710 -0.000001 0.015625
# 5 0.001087 -0.003609 0.014599 -0.000001 0.043607 -0.000001
# 6 0.000000 0.000000 0.000000 0.015625 -0.000001 0.043031
#
#
# Mechanical properties :
#
#
# Convention : Reuss Voigt Hill
#
# Bulk Modulus (GPa) = 37.26125 50.90636 44.08381
# Shear Modulus (GPa) = 29.60421 43.57947 36.59184
#
# Velocity S-wave (km/s) = 3.32947 4.03961 3.70161
# Velocity P-wave (km/s) = 5.36032 6.38904 5.89716
#
# Compressibility (1/GPa) = 0.02683753
#
# Stress axis : x y z
#
# Youngs Moduli (GPa) = 71.05767 77.06402 85.68718
#
# Poissons Ratio (x) = 0.08306 0.06634
# Poissons Ratio (y) = 0.07658 0.35038
# Poissons Ratio (z) = 0.05501 0.31512
#
# Static dielectric constant tensor:
#      x y z
#    x 2.101430 0.000000 -0.052750 
#    y 0.000000 2.132090 0.000000 
#    z -0.052750 0.000000 2.154710 
# 
# From -- ./inp_files/219630.got.cif
#   From: 2010.05.17/outbox.cif.g08.bks.cpg/sg15_110_cif.got.tgz:219630.got - 2010.06.03 18:47:42.
