data_PCOD9302924
_publ_section_title
;
Structure prediction by ZEFSAII (Michael W. Deem and Ramdas Pophale) SiO2 
 PCOD9302924
Probable space group: C 2/C
;
_chemical_formula_sum "Si O2"
_cell_formula_units_Z 44
_cell_length_a 19.104091
_cell_length_b 18.602683
_cell_length_c 5.672347
_cell_angle_alpha 90.000000
_cell_angle_beta 60.407467
_cell_angle_gamma 90.000000
_cell_volume 1752.927506
_symmetry_space_group_name_H-M "C 2/C"
_symmetry_group_IT_number 15
_symmetry_cell_setting 'monoclinic'
loop_
_space_group_symop_operation_xyz
x,y,z
-x,y,1/2-z
-x,-y,-z
x,-y,1/2+z
1/2+x,1/2+y,z
1/2-x,1/2+y,1/2-z
1/2-x,1/2-y,-z
1/2+x,1/2-y,1/2+z
loop_
_atom_site_type_symbol
_atom_site_label
_atom_site_fract_x
_atom_site_fract_y
_atom_site_fract_z
Si Si1 0.343753 0.961480 0.684334
Si Si2 0.585466 0.320888 0.576400
Si Si3 0.000000 0.041592 0.750000
Si Si4 0.681674 0.254425 0.803386
Si Si5 0.921101 0.324460 0.724280
Si Si6 0.674630 0.396408 0.073563
O O1 0.396406 0.888252 0.593478
O O2 0.362391 0.000922 0.406290
O O3 0.247163 0.946884 0.872394
O O4 0.500000 0.357265 0.750000
O O5 0.606047 0.283536 0.785210
O O6 0.576802 0.253368 0.409243
O O7 0.651484 0.378806 0.384027
O O8 0.086678 0.083204 0.614680
O O9 0.000000 0.000000 0.500000
O O10 0.750000 0.250000 0.500000
O O11 0.654254 0.182224 0.971175
O O12 0.703477 0.317916 0.941444
O O13 0.000000 0.336802 0.750000
#
# Coordination Sequence:
#
# PCOD9302924 Si02
#       6
#     8   8   4   8   8   8
#     4  12  30  50  74 102 146 203 257 304 360 436
#     4  11  22  40  74 107 142 180 227 309 373 441
#     4  12  28  46  72 106 150 202 244 292 358 442
#     4  11  23  41  75 106 141 181 231 308 376 436
#     4  11  25  46  71 110 142 187 249 306 379 437
#     4  11  26  45  71 108 145 190 250 299 368 446
#
# _framework density 25.100867999999998
#
# number of rings (size 3 to 8) (size 9 to 14) (size 15 to 20)
#    0.000    0.727    1.818    4.364   14.000    3.636 
#    0.000    0.000    0.000    0.000    0.000    0.000 
#    0.000    0.000    0.000    0.000    0.000    0.000 
#
# Total GULP energy -122991.394971 kJ/mol
# GULP energy per Si atom -5590.517953 kJ/mol
# Density = 2.504374 g / cm^3
# Si number density = 25.100868 Si / 1000 Ang^3
#
#
#
# Elastic Constant Matrix: (Units=GPa)
#
#
# Indices 1 2 3 4 5 6 
#
# 1 109.9091 20.7309 8.6084 0.0000 3.2989 0.0000
# 2 20.7309 71.2197 22.2446 0.0000 -0.9187 0.0000
# 3 8.6084 22.2446 85.4867 0.0000 -2.9404 0.0000
# 4 0.0000 0.0000 0.0000 35.1807 0.0000 4.3673
# 5 3.2989 -0.9187 -2.9404 0.0000 34.2585 0.0000
# 6 0.0000 0.0000 0.0000 4.3673 0.0000 44.1196
#
#
#
# Elastic Compliance Matrix: (Units=1/GPa)
#
#
# Indices 1 2 3 4 5 6 
#
# 1 0.009668 -0.002735 -0.000297 0.000000 -0.001030 0.000000
# 2 -0.002735 0.016057 -0.003890 0.000000 0.000360 0.000000
# 3 -0.000297 -0.003890 0.012775 0.000000 0.001021 0.000000
# 4 0.000000 0.000000 0.000000 0.028778 0.000000 -0.002849
# 5 -0.001030 0.000360 0.001021 0.000000 0.029386 0.000000
# 6 0.000000 0.000000 0.000000 -0.002849 0.000000 0.022948
#
#
# Mechanical properties :
#
#
# Convention : Reuss Voigt Hill
#
# Bulk Modulus (GPa) = 40.55920 41.08705 40.82312
# Shear Modulus (GPa) = 35.29173 37.04720 36.16947
#
# Velocity S-wave (km/s) = 3.75373 3.84596 3.80012
# Velocity P-wave (km/s) = 5.91446 6.01050 5.96268
#
# Compressibility (1/GPa) = 0.02465532
#
# Stress axis : x y z
#
# Youngs Moduli (GPa) = 103.42911 62.27865 78.27718
#
# Poissons Ratio (x) = 0.17032 0.02328
# Poissons Ratio (y) = 0.28285 0.30453
# Poissons Ratio (z) = 0.03076 0.24229
#
# Static dielectric constant tensor:
#      x y z
#    x 2.545010 0.000000 0.098810 
#    y 0.000000 1.996810 0.000000 
#    z 0.098810 0.000000 2.089340 
# 
# From -- ./inp_files/10273.got.cif
#   From: 2010.05.17/outbox.cif.g08.bks.cpg/sg15_6_cif.got.tgz:10273.got - 2010.06.03 18:47:42.
