data_PCOD9302928
_publ_section_title
;
Structure prediction by ZEFSAII (Michael W. Deem and Ramdas Pophale) SiO2 
 PCOD9302928
Probable space group: C 2/C
;
_chemical_formula_sum "Si O2"
_cell_formula_units_Z 40
_cell_length_a 10.366839
_cell_length_b 20.707934
_cell_length_c 14.316509
_cell_angle_alpha 90.000000
_cell_angle_beta 137.509129
_cell_angle_gamma 90.000000
_cell_volume 2076.003473
_symmetry_space_group_name_H-M "C 2/C"
_symmetry_group_IT_number 15
_symmetry_cell_setting 'monoclinic'
loop_
_space_group_symop_operation_xyz
x,y,z
-x,y,1/2-z
-x,-y,-z
x,-y,1/2+z
1/2+x,1/2+y,z
1/2-x,1/2+y,1/2-z
1/2-x,1/2-y,-z
1/2+x,1/2-y,1/2+z
loop_
_atom_site_type_symbol
_atom_site_label
_atom_site_fract_x
_atom_site_fract_y
_atom_site_fract_z
Si Si1 0.500000 0.958021 0.750000
Si Si2 0.014767 0.247569 0.543635
Si Si3 0.366212 0.963126 0.352510
Si Si4 0.415871 0.182685 0.809596
Si Si5 0.718272 0.845729 0.963444
Si Si6 0.000000 0.083054 0.750000
O O1 0.645475 0.910325 0.877870
O O2 0.605264 0.000349 0.729224
O O3 0.026923 0.272711 0.443912
O O4 0.832135 0.200325 0.454183
O O5 0.952556 0.306645 0.578203
O O6 0.202515 0.211506 0.681207
O O7 0.416051 0.888348 0.356792
O O8 0.148547 0.960547 0.271841
O O9 0.500000 0.000000 0.500000
O O10 0.500000 0.179828 0.750000
O O11 0.869973 0.869425 0.120067
#
# Coordination Sequence:
#
# PCOD9302928 Si02
#       6
#     4   8   8   8   8   4
#     4  12  24  43  68  96 139 174 232 280 338 400
#     4  11  22  42  69 101 132 165 233 279 342 402
#     4  12  25  45  68  99 140 182 228 281 333 411
#     4  12  24  42  66  97 139 180 213 279 347 405
#     4  11  22  40  74  98 124 175 224 291 330 396
#     4  12  22  45  68  98 133 178 228 272 344 394
#
# _framework density 19.267789
#
# number of rings (size 3 to 8) (size 9 to 14) (size 15 to 20)
#    0.000    0.400    7.000    1.800    0.000    4.000 
#    3.600    0.000    4.400    0.000    0.000    0.000 
#    0.000    0.000    0.000    0.000    0.000    0.000 
#
# Total GULP energy -111718.192832 kJ/mol
# GULP energy per Si atom -5585.909642 kJ/mol
# Density = 1.922393 g / cm^3
# Si number density = 19.267789 Si / 1000 Ang^3
#
#
#
# Elastic Constant Matrix: (Units=GPa)
#
#
# Indices 1 2 3 4 5 6 
#
# 1 138.6281 63.1305 30.2081 0.0001 -8.5456 -0.0002
# 2 63.1305 120.8952 54.7171 0.0000 -8.6275 0.0000
# 3 30.2081 54.7171 90.1526 -0.0004 -0.8085 -0.0003
# 4 0.0001 0.0000 -0.0004 42.5876 -0.0002 2.0772
# 5 -8.5456 -8.6275 -0.8085 -0.0002 22.2676 -0.0002
# 6 -0.0002 0.0000 -0.0003 2.0772 -0.0002 27.0283
#
#
#
# Elastic Compliance Matrix: (Units=1/GPa)
#
#
# Indices 1 2 3 4 5 6 
#
# 1 0.009539 -0.004704 -0.000325 0.000000 0.001827 0.000000
# 2 -0.004704 0.014124 -0.006966 0.000000 0.003414 0.000000
# 3 -0.000325 -0.006966 0.015409 0.000000 -0.002264 0.000000
# 4 0.000000 0.000000 0.000000 0.023569 0.000000 -0.001811
# 5 0.001827 0.003414 -0.002264 0.000000 0.046850 0.000000
# 6 0.000000 0.000000 0.000000 -0.001811 0.000000 0.037137
#
#
# Mechanical properties :
#
#
# Convention : Reuss Voigt Hill
#
# Bulk Modulus (GPa) = 66.30065 71.75415 69.02740
# Shear Modulus (GPa) = 28.46638 31.81803 30.14221
#
# Velocity S-wave (km/s) = 3.84788 4.06810 3.95952
# Velocity P-wave (km/s) = 7.36385 7.70631 7.53703
#
# Compressibility (1/GPa) = 0.01508281
#
# Stress axis : x y z
#
# Youngs Moduli (GPa) = 104.83248 70.80002 64.89811
#
# Poissons Ratio (x) = 0.33303 0.02109
# Poissons Ratio (y) = 0.49311 0.45207
# Poissons Ratio (z) = 0.03407 0.49318
#
# Static dielectric constant tensor:
#      x y z
#    x 1.689130 0.000000 -0.023050 
#    y 0.000000 1.672400 0.000000 
#    z -0.023050 0.000000 1.637910 
# 
# From -- ./inp_files/29376.got.cif
#   From: 2010.05.17/outbox.cif.g08.bks.cpg/sg15_15_cif.got.tgz:29376.got - 2010.06.03 18:47:42.
