data_PCOD9302420
_publ_section_title
;
Structure prediction by ZEFSAII (Michael W. Deem and Ramdas Pophale) SiO2 
 PCOD9302420
Probable space group: C 2/C
;
_chemical_formula_sum "Si O2"
_cell_formula_units_Z 52
_cell_length_a 17.665149
_cell_length_b 18.980239
_cell_length_c 14.315277
_cell_angle_alpha 90.000000
_cell_angle_beta 144.521723
_cell_angle_gamma 90.000000
_cell_volume 2785.748083
_symmetry_space_group_name_H-M "C 2/C"
_symmetry_group_IT_number 15
_symmetry_cell_setting 'monoclinic'
loop_
_space_group_symop_operation_xyz
x,y,z
-x,y,1/2-z
-x,-y,-z
x,-y,1/2+z
1/2+x,1/2+y,z
1/2-x,1/2+y,1/2-z
1/2-x,1/2-y,-z
1/2+x,1/2-y,1/2+z
loop_
_atom_site_type_symbol
_atom_site_label
_atom_site_fract_x
_atom_site_fract_y
_atom_site_fract_z
Si Si1 0.409203 0.445363 0.851634
Si Si2 0.443828 0.038299 0.293715
Si Si3 0.205492 0.879470 0.480250
Si Si4 0.681691 0.044373 0.671564
Si Si5 0.577054 0.697870 0.019598
Si Si6 0.216519 0.815694 0.285030
Si Si7 0.000000 0.995201 0.750000
O O1 0.265736 0.480099 0.713919
O O2 0.406519 0.369064 0.895703
O O3 0.466804 0.448737 0.806101
O O4 0.500000 0.500000 0.000000
O O5 0.500000 0.014917 0.250000
O O6 0.561506 0.060041 0.480854
O O7 0.369168 0.979013 0.278554
O O8 0.340908 0.099907 0.166200
O O9 0.119340 0.830774 0.460410
O O10 0.229032 0.842191 0.404963
O O11 0.122821 0.951605 0.385553
O O12 0.771397 0.113033 0.762634
O O13 0.671969 0.762430 0.133538
O O14 0.425763 0.717663 0.867765
#
# Coordination Sequence:
#
# PCOD9302420 Si02
#       7
#     8   8   8   8   8   8   4
#     4  12  20  41  68  93 124 168 224 275 318 383
#     4  11  22  35  62  95 125 166 210 270 324 378
#     4  12  20  39  62  95 129 167 210 265 331 393
#     4  11  22  39  62  89 129 165 218 262 323 393
#     4  12  26  40  64  93 135 177 214 268 338 394
#     4  12  25  41  60  96 133 176 213 268 333 407
#     4  12  20  36  72  98 120 160 234 270 316 376
#
# _framework density 18.666440999999999
#
# number of rings (size 3 to 8) (size 9 to 14) (size 15 to 20)
#    0.000    0.308    9.231    0.462    2.154    0.000 
#    0.000    0.000    1.692    0.923    0.000    0.000 
#    0.000    0.000    0.000    0.000    0.000    0.000 
#
# Total GULP energy -145312.110666 kJ/mol
# GULP energy per Si atom -5588.927333 kJ/mol
# Density = 1.862396 g / cm^3
# Si number density = 18.666441 Si / 1000 Ang^3
#
#
#
# Elastic Constant Matrix: (Units=GPa)
#
#
# Indices 1 2 3 4 5 6 
#
# 1 127.6370 33.3570 15.0384 0.0000 3.8595 0.0000
# 2 33.3570 73.7078 25.4071 0.0000 5.6836 0.0000
# 3 15.0384 25.4071 100.9199 0.0000 30.9398 0.0000
# 4 0.0000 0.0000 0.0000 28.1874 0.0000 13.6934
# 5 3.8595 5.6836 30.9398 0.0000 21.0751 0.0000
# 6 0.0000 0.0000 0.0000 13.6934 0.0000 27.8342
#
#
#
# Elastic Compliance Matrix: (Units=1/GPa)
#
#
# Indices 1 2 3 4 5 6 
#
# 1 0.008897 -0.003913 -0.000299 0.000000 -0.000134 0.000000
# 2 -0.003913 0.016662 -0.004462 0.000000 0.002774 0.000000
# 3 -0.000299 -0.004462 0.019441 0.000000 -0.027283 0.000000
# 4 0.000000 0.000000 0.000000 0.046618 0.000000 -0.022935
# 5 -0.000134 0.002774 -0.027283 0.000000 0.086779 0.000000
# 6 0.000000 0.000000 0.000000 -0.022935 0.000000 0.047210
#
#
# Mechanical properties :
#
#
# Convention : Reuss Voigt Hill
#
# Bulk Modulus (GPa) = 36.16462 49.98551 43.07507
# Shear Modulus (GPa) = 19.82772 30.65015 25.23893
#
# Velocity S-wave (km/s) = 3.26270 4.05655 3.68108
# Velocity P-wave (km/s) = 5.79739 6.98407 6.41821
#
# Compressibility (1/GPa) = 0.02765133
#
# Stress axis : x y z
#
# Youngs Moduli (GPa) = 112.40245 60.01690 51.43750
#
# Poissons Ratio (x) = 0.23482 0.01541
# Poissons Ratio (y) = 0.43979 0.22952
# Poissons Ratio (z) = 0.03366 0.26780
#
# Static dielectric constant tensor:
#      x y z
#    x 1.643260 0.000000 0.023050 
#    y 0.000000 1.632570 0.000000 
#    z 0.023050 0.000000 1.707000 
# 
# From -- ./inp_files/163659.got.cif
#   From: 2010.05.17/outbox.cif.g08.bks.cpg/sg15_82_cif.got.tgz:163659.got - 2010.06.03 18:47:42.
