data_PCOD9302859
_publ_section_title
;
Structure prediction by ZEFSAII (Michael W. Deem and Ramdas Pophale) SiO2 
 PCOD9302859
Probable space group: C 2/C
;
_chemical_formula_sum "Si O2"
_cell_formula_units_Z 40
_cell_length_a 15.739181
_cell_length_b 12.008696
_cell_length_c 18.118480
_cell_angle_alpha 90.000000
_cell_angle_beta 146.125547
_cell_angle_gamma 90.000000
_cell_volume 1908.741878
_symmetry_space_group_name_H-M "C 2/C"
_symmetry_group_IT_number 15
_symmetry_cell_setting 'monoclinic'
loop_
_space_group_symop_operation_xyz
x,y,z
-x,y,1/2-z
-x,-y,-z
x,-y,1/2+z
1/2+x,1/2+y,z
1/2-x,1/2+y,1/2-z
1/2-x,1/2-y,-z
1/2+x,1/2-y,1/2+z
loop_
_atom_site_type_symbol
_atom_site_label
_atom_site_fract_x
_atom_site_fract_y
_atom_site_fract_z
Si Si1 0.685509 0.800958 0.088081
Si Si2 0.043038 0.877550 0.005545
Si Si3 0.070877 0.242999 0.381531
Si Si4 0.964878 0.641757 0.305659
Si Si5 0.860647 0.579443 0.800856
O O1 0.853219 0.747495 0.213647
O O2 0.666724 0.902269 0.132125
O O3 0.567919 0.708672 0.034307
O O4 0.620278 0.830935 0.961009
O O5 0.217224 0.862638 0.156884
O O6 0.031446 0.855943 0.910053
O O7 0.000000 0.000000 0.000000
O O8 0.250000 0.250000 0.500000
O O9 0.000000 0.230584 0.250000
O O10 0.006576 0.353352 0.375997
O O11 0.877189 0.548310 0.289726
O O12 0.000000 0.595328 0.250000
#
# Coordination Sequence:
#
# PCOD9302859 Si02
#       5
#     8   8   8   8   8
#     4  11  24  44  66  94 130 174 219 262 324 399
#     4  11  22  40  67  94 132 175 215 266 328 393
#     4  11  23  42  67  98 136 170 221 280 333 381
#     4  12  25  43  68  96 133 169 218 275 326 384
#     4  11  23  42  70  95 130 178 224 266 329 395
#
# _framework density 20.956213000000002
#
# number of rings (size 3 to 8) (size 9 to 14) (size 15 to 20)
#    0.000    0.800    6.000    1.800    0.000    0.000 
#    3.600    1.000    0.000    0.000    0.000    0.000 
#    0.000    0.000    0.000    0.000    0.000    0.000 
#
# Total GULP energy -111823.045530 kJ/mol
# GULP energy per Si atom -5591.152276 kJ/mol
# Density = 2.090852 g / cm^3
# Si number density = 20.956213 Si / 1000 Ang^3
#
#
#
# Elastic Constant Matrix: (Units=GPa)
#
#
# Indices 1 2 3 4 5 6 
#
# 1 40.1951 13.9494 21.3494 0.0002 -11.4514 0.0001
# 2 13.9494 55.2341 7.5769 0.0002 -15.8068 0.0001
# 3 21.3494 7.5769 130.0408 0.0003 -19.7606 0.0001
# 4 0.0002 0.0002 0.0003 27.7377 0.0001 -3.2811
# 5 -11.4514 -15.8068 -19.7606 0.0001 48.0643 0.0001
# 6 0.0001 0.0001 0.0001 -3.2811 0.0001 27.1736
#
#
#
# Elastic Compliance Matrix: (Units=1/GPa)
#
#
# Indices 1 2 3 4 5 6 
#
# 1 0.030137 -0.006046 -0.004060 0.000000 0.003523 0.000000
# 2 -0.006046 0.021202 0.000638 0.000000 0.005795 0.000000
# 3 -0.004060 0.000638 0.008751 0.000000 0.002840 0.000000
# 4 0.000000 0.000000 0.000000 0.036574 0.000000 0.004416
# 5 0.003523 0.005795 0.002840 0.000000 0.024718 0.000000
# 6 0.000000 0.000000 0.000000 0.004416 0.000000 0.037334
#
#
# Mechanical properties :
#
#
# Convention : Reuss Voigt Hill
#
# Bulk Modulus (GPa) = 24.29933 34.58016 29.43974
# Shear Modulus (GPa) = 26.12723 32.76808 29.44766
#
# Velocity S-wave (km/s) = 3.53477 3.95859 3.75267
# Velocity P-wave (km/s) = 5.31789 6.11807 5.73196
#
# Compressibility (1/GPa) = 0.04115340
#
# Stress axis : x y z
#
# Youngs Moduli (GPa) = 33.18176 47.16427 114.27403
#
# Poissons Ratio (x) = 0.28516 0.46397
# Poissons Ratio (y) = 0.20062 -0.07288
# Poissons Ratio (z) = 0.13472 -0.03008
#
# Static dielectric constant tensor:
#      x y z
#    x 1.736840 0.000000 0.005170 
#    y 0.000000 1.758100 0.000000 
#    z 0.005170 0.000000 1.787550 
# 
# From -- ./inp_files/46077.got.cif
#   From: 2010.05.17/outbox.cif.g08.bks.cpg/sg15_24_cif.got.tgz:46077.got - 2010.06.03 18:47:42.
