data_PCOD9302109
_publ_section_title
;
Structure prediction by ZEFSAII (Michael W. Deem and Ramdas Pophale) SiO2 
 PCOD9302109
Probable space group: C 2/C
;
_chemical_formula_sum "Si O2"
_cell_formula_units_Z 64
_cell_length_a 18.768170
_cell_length_b 11.360063
_cell_length_c 14.311884
_cell_angle_alpha 90.000000
_cell_angle_beta 85.534676
_cell_angle_gamma 90.000000
_cell_volume 3042.140229
_symmetry_space_group_name_H-M "C 2/C"
_symmetry_group_IT_number 15
_symmetry_cell_setting 'monoclinic'
loop_
_space_group_symop_operation_xyz
x,y,z
-x,y,1/2-z
-x,-y,-z
x,-y,1/2+z
1/2+x,1/2+y,z
1/2-x,1/2+y,1/2-z
1/2-x,1/2-y,-z
1/2+x,1/2-y,1/2+z
loop_
_atom_site_type_symbol
_atom_site_label
_atom_site_fract_x
_atom_site_fract_y
_atom_site_fract_z
Si Si1 0.184104 0.373049 0.196863
Si Si2 0.947153 0.584291 0.668132
Si Si3 0.069252 0.689137 0.377271
Si Si4 0.843776 0.053375 0.963861
Si Si5 0.064800 0.741763 0.000987
Si Si6 0.303744 0.107455 0.420825
Si Si7 0.326941 0.690915 0.779455
Si Si8 0.667267 0.722529 0.030431
O O1 0.133329 0.387786 0.290520
O O2 0.176446 0.486404 0.131509
O O3 0.266487 0.360737 0.217840
O O4 0.157931 0.264336 0.137437
O O5 0.946821 0.448138 0.637636
O O6 0.967140 0.675383 0.584929
O O7 0.000000 0.596555 0.750000
O O8 0.109055 0.751030 0.286358
O O9 0.121228 0.705389 0.460602
O O10 0.994749 0.748193 0.412998
O O11 0.849847 0.096719 0.855693
O O12 0.850507 0.914742 0.976069
O O13 0.900757 0.130277 0.016127
O O14 0.765027 0.089304 0.007977
O O15 0.129672 0.659022 0.029095
O O16 0.290144 0.203154 0.341337
O O17 0.750000 0.750000 0.000000
#
# Coordination Sequence:
#
# PCOD9302109 Si02
#       8
#     8   8   8   8   8   8   8   8
#     4  12  23  39  70  98 142 172 235 289 346 415
#     4  12  25  44  73 107 139 177 235 301 355 421
#     4  12  25  45  70 102 140 183 238 286 367 420
#     4  11  25  44  69  99 140 185 238 282 361 422
#     4  11  25  45  72  97 142 186 230 290 358 428
#     4  11  21  42  65 102 135 179 229 288 352 414
#     4  11  24  38  67 102 132 183 226 292 347 415
#     4  12  25  45  68  99 139 187 230 286 352 427
#
# _framework density 21.03782
#
# number of rings (size 3 to 8) (size 9 to 14) (size 15 to 20)
#    0.000    0.500    3.750    5.625    5.250    0.500 
#    2.250    0.000    2.750    0.000    0.000    0.000 
#    0.000    0.000    0.000    0.000    0.000    0.000 
#
# Total GULP energy -179085.000207 kJ/mol
# GULP energy per Si atom -5596.406256 kJ/mol
# Density = 2.098994 g / cm^3
# Si number density = 21.037820 Si / 1000 Ang^3
#
#
#
# Elastic Constant Matrix: (Units=GPa)
#
#
# Indices 1 2 3 4 5 6 
#
# 1 41.7439 11.0614 7.1123 0.0000 -0.3194 0.0000
# 2 11.0614 111.0075 27.3571 0.0000 12.0703 0.0000
# 3 7.1123 27.3571 78.0823 0.0000 3.7821 0.0000
# 4 0.0000 0.0000 0.0000 24.4833 0.0000 1.7554
# 5 -0.3194 12.0703 3.7821 0.0000 39.7972 0.0000
# 6 0.0000 0.0000 0.0000 1.7554 0.0000 19.2225
#
#
#
# Elastic Compliance Matrix: (Units=1/GPa)
#
#
# Indices 1 2 3 4 5 6 
#
# 1 0.024809 -0.002204 -0.001537 0.000000 0.001014 0.000000
# 2 -0.002204 0.010347 -0.003287 0.000000 -0.002844 0.000000
# 3 -0.001537 -0.003287 0.014116 0.000000 -0.000357 0.000000
# 4 0.000000 0.000000 0.000000 0.041113 0.000000 -0.003755
# 5 0.001014 -0.002844 -0.000357 0.000000 0.026032 0.000000
# 6 0.000000 0.000000 0.000000 -0.003755 0.000000 0.052365
#
#
# Mechanical properties :
#
#
# Convention : Reuss Voigt Hill
#
# Bulk Modulus (GPa) = 28.39481 35.76614 32.08048
# Shear Modulus (GPa) = 25.69687 29.05413 27.37550
#
# Velocity S-wave (km/s) = 3.49873 3.72027 3.61120
# Velocity P-wave (km/s) = 5.46332 5.95749 5.71575
#
# Compressibility (1/GPa) = 0.03521771
#
# Stress axis : x y z
#
# Youngs Moduli (GPa) = 40.30776 96.64467 70.84242
#
# Poissons Ratio (x) = 0.21296 0.10887
# Poissons Ratio (y) = 0.08882 0.23285
# Poissons Ratio (z) = 0.06195 0.31765
#
# Static dielectric constant tensor:
#      x y z
#    x 1.749970 0.000000 -0.004920 
#    y 0.000000 1.746330 0.000000 
#    z -0.004920 0.000000 1.790770 
# 
# From -- ./inp_files/161350.got.cif
#   From: 2010.05.17/outbox.cif.g08.bks.cpg/sg15_81_cif.got.tgz:161350.got - 2010.06.03 18:47:42.
