data_PCOD9302954
_publ_section_title
;
Structure prediction by ZEFSAII (Michael W. Deem and Ramdas Pophale) SiO2 
 PCOD9302954
Probable space group: C 2/C
;
_chemical_formula_sum "Si O2"
_cell_formula_units_Z 60
_cell_length_a 15.677163
_cell_length_b 11.018855
_cell_length_c 14.827507
_cell_angle_alpha 90.000000
_cell_angle_beta 84.996670
_cell_angle_gamma 90.000000
_cell_volume 2551.608832
_symmetry_space_group_name_H-M "C 2/C"
_symmetry_group_IT_number 15
_symmetry_cell_setting 'monoclinic'
loop_
_space_group_symop_operation_xyz
x,y,z
-x,y,1/2-z
-x,-y,-z
x,-y,1/2+z
1/2+x,1/2+y,z
1/2-x,1/2+y,1/2-z
1/2-x,1/2-y,-z
1/2+x,1/2-y,1/2+z
loop_
_atom_site_type_symbol
_atom_site_label
_atom_site_fract_x
_atom_site_fract_y
_atom_site_fract_z
Si Si1 0.166674 0.835133 0.987438
Si Si2 0.423711 0.050728 0.904487
Si Si3 0.500000 0.667374 0.250000
Si Si4 0.843699 0.798549 0.973799
Si Si5 0.171690 0.937059 0.353423
Si Si6 0.889097 0.401984 0.066261
Si Si7 0.346123 0.135886 0.754400
Si Si8 0.885252 0.997687 0.344730
O O1 0.127668 0.890519 0.082804
O O2 0.250000 0.750000 0.000000
O O3 0.098500 0.738296 0.957033
O O4 0.184980 0.937117 0.908970
O O5 0.401931 0.189131 0.933212
O O6 0.524062 0.034853 0.908388
O O7 0.398062 0.033906 0.804188
O O8 0.368227 0.970087 0.976713
O O9 0.584014 0.753340 0.257595
O O10 0.474721 0.573657 0.332194
O O11 0.829331 0.898399 0.897575
O O12 0.750000 0.750000 0.000000
O O13 0.875883 0.857071 0.065325
O O14 0.258586 0.862658 0.318901
O O15 0.134188 0.963988 0.257176
O O16 0.824661 0.403611 0.155267
#
# Coordination Sequence:
#
# PCOD9302954 Si02
#       8
#     8   8   4   8   8   8   8   8
#     4  11  25  44  66  98 144 179 221 288 347 410
#     4  11  23  42  69  97 130 179 231 278 333 411
#     4  12  22  44  74  96 134 184 228 282 338 410
#     4  11  22  41  64  96 132 172 225 280 330 409
#     4  11  25  39  69 101 133 178 225 279 352 403
#     4  11  24  42  67  96 131 182 225 275 347 401
#     4  12  21  42  68  98 132 174 227 281 337 407
#     4  11  25  43  67 100 134 179 230 282 344 413
#
# _framework density 23.514578
#
# number of rings (size 3 to 8) (size 9 to 14) (size 15 to 20)
#    0.000    0.800    4.000    2.400    3.733    2.133 
#    2.400    3.333    0.000    0.000    0.000    0.000 
#    0.000    0.000    0.000    0.000    0.000    0.000 
#
# Total GULP energy -167207.325236 kJ/mol
# GULP energy per Si atom -5573.577508 kJ/mol
# Density = 2.346106 g / cm^3
# Si number density = 23.514578 Si / 1000 Ang^3
#
#
#
# Elastic Constant Matrix: (Units=GPa)
#
#
# Indices 1 2 3 4 5 6 
#
# 1 46.0254 6.3272 15.0709 0.0000 -4.4945 0.0000
# 2 6.3272 88.9524 69.6951 0.0000 -6.0695 0.0000
# 3 15.0709 69.6951 204.9498 0.0000 4.1019 0.0000
# 4 0.0000 0.0000 0.0000 45.5061 0.0000 -11.1682
# 5 -4.4945 -6.0695 4.1019 0.0000 24.6309 0.0000
# 6 0.0000 0.0000 0.0000 -11.1682 0.0000 32.5878
#
#
#
# Elastic Compliance Matrix: (Units=1/GPa)
#
#
# Indices 1 2 3 4 5 6 
#
# 1 0.022738 0.000092 -0.001793 0.000000 0.004470 0.000000
# 2 0.000092 0.015878 -0.005503 0.000000 0.004846 0.000000
# 3 -0.001793 -0.005503 0.006939 0.000000 -0.002839 0.000000
# 4 0.000000 0.000000 0.000000 0.023993 0.000000 0.008223
# 5 0.004470 0.004846 -0.002839 0.000000 0.043082 0.000000
# 6 0.000000 0.000000 0.000000 0.008223 0.000000 0.033504
#
#
# Mechanical properties :
#
#
# Convention : Reuss Voigt Hill
#
# Bulk Modulus (GPa) = 32.10491 58.01267 45.05879
# Shear Modulus (GPa) = 29.25265 37.13393 33.19329
#
# Velocity S-wave (km/s) = 3.53090 3.97821 3.76121
# Velocity P-wave (km/s) = 5.50507 6.76949 6.16976
#
# Compressibility (1/GPa) = 0.03114788
#
# Stress axis : x y z
#
# Youngs Moduli (GPa) = 43.97907 62.98081 144.10630
#
# Poissons Ratio (x) = -0.00582 0.25838
# Poissons Ratio (y) = -0.00407 0.79305
# Poissons Ratio (z) = 0.07885 0.34660
#
# Static dielectric constant tensor:
#      x y z
#    x 2.002740 0.000000 0.045930 
#    y 0.000000 1.924600 0.000000 
#    z 0.045930 0.000000 1.959760 
# 
# From -- ./inp_files/160905.got.cif
#   From: 2010.05.17/outbox.cif.g08.bks.cpg/sg15_81_cif.got.tgz:160905.got - 2010.06.03 18:47:42.
