data_PCOD9302248
_publ_section_title
;
Structure prediction by ZEFSAII (Michael W. Deem and Ramdas Pophale) SiO2 
 PCOD9302248
Probable space group: C 2/C
;
_chemical_formula_sum "Si O2"
_cell_formula_units_Z 64
_cell_length_a 11.310528
_cell_length_b 18.877685
_cell_length_c 28.299487
_cell_angle_alpha 90.000000
_cell_angle_beta 150.101012
_cell_angle_gamma 90.000000
_cell_volume 3011.974691
_symmetry_space_group_name_H-M "C 2/C"
_symmetry_group_IT_number 15
_symmetry_cell_setting 'monoclinic'
loop_
_space_group_symop_operation_xyz
x,y,z
-x,y,1/2-z
-x,-y,-z
x,-y,1/2+z
1/2+x,1/2+y,z
1/2-x,1/2+y,1/2-z
1/2-x,1/2-y,-z
1/2+x,1/2-y,1/2+z
loop_
_atom_site_type_symbol
_atom_site_label
_atom_site_fract_x
_atom_site_fract_y
_atom_site_fract_z
Si Si1 0.004457 0.450695 0.884615
Si Si2 0.659321 0.316176 0.851947
Si Si3 0.779374 0.480234 0.390330
Si Si4 0.361153 0.282095 0.490716
Si Si5 0.806406 0.820895 0.143377
Si Si6 0.585695 0.557531 0.176704
Si Si7 0.913882 0.050876 0.012754
Si Si8 0.797792 0.325628 0.493572
O O1 0.806063 0.466931 0.855702
O O2 0.855824 0.432560 0.786782
O O3 0.190757 0.390517 0.965639
O O4 0.150216 0.522506 0.931215
O O5 0.500000 0.314979 0.750000
O O6 0.559352 0.373677 0.854584
O O7 0.931988 0.329856 0.932103
O O8 0.682392 0.242369 0.887467
O O9 0.792636 0.399155 0.378898
O O10 0.544699 0.494878 0.339425
O O11 0.000000 0.500000 0.500000
O O12 0.250000 0.250000 0.500000
O O13 0.610921 0.240554 0.574332
O O14 0.405537 0.365232 0.501651
O O15 0.000000 0.804136 0.250000
O O16 0.873530 0.831055 0.111180
O O17 0.556913 0.543419 0.111488
O O18 0.000000 0.000000 0.000000
O O19 0.750000 0.250000 0.500000
#
# Coordination Sequence:
#
# PCOD9302248 Si02
#       8
#     8   8   8   8   8   8   8   8
#     4  12  24  42  74 102 138 180 233 295 362 431
#     4  11  21  43  73 106 134 179 240 300 364 438
#     4  12  19  40  72 110 138 164 218 309 380 413
#     4  11  24  46  69  94 139 192 234 285 356 433
#     4  11  24  40  67 101 135 173 230 291 347 427
#     4  12  22  44  77 104 134 181 236 299 367 439
#     4  12  29  48  66  98 148 197 244 290 358 443
#     4  11  24  40  66 103 143 175 222 296 372 418
#
# _framework density 21.248518000000001
#
# number of rings (size 3 to 8) (size 9 to 14) (size 15 to 20)
#    0.000    0.500    6.250    2.625    3.500    2.500 
#    2.250    0.000    0.000    0.000    0.000    0.000 
#    0.000    0.000    0.000    0.000    0.000    0.000 
#
# Total GULP energy -178657.038901 kJ/mol
# GULP energy per Si atom -5583.032466 kJ/mol
# Density = 2.120016 g / cm^3
# Si number density = 21.248518 Si / 1000 Ang^3
#
#
#
# Elastic Constant Matrix: (Units=GPa)
#
#
# Indices 1 2 3 4 5 6 
#
# 1 74.8491 47.4431 40.8913 0.0003 -35.1039 -0.0003
# 2 47.4431 184.5341 46.2948 0.0004 -9.6692 -0.0001
# 3 40.8913 46.2948 145.1110 0.0025 -37.0638 -0.0001
# 4 0.0003 0.0004 0.0025 18.2383 0.0010 -4.9773
# 5 -35.1039 -9.6692 -37.0638 0.0010 25.4855 -0.0005
# 6 -0.0003 -0.0001 -0.0001 -4.9773 -0.0005 35.7014
#
#
#
# Elastic Compliance Matrix: (Units=1/GPa)
#
#
# Indices 1 2 3 4 5 6 
#
# 1 0.058922 -0.013113 0.011198 -0.000007 0.092470 0.000001
# 2 -0.013113 0.008819 -0.004577 0.000002 -0.021373 0.000000
# 3 0.011198 -0.004577 0.013829 -0.000004 0.033799 0.000000
# 4 -0.000007 0.000002 -0.000004 0.056998 -0.000017 0.007946
# 5 0.092470 -0.021373 0.033799 -0.000017 0.207652 0.000001
# 6 0.000001 0.000000 0.000000 0.007946 0.000001 0.029118
#
#
# Mechanical properties :
#
#
# Convention : Reuss Voigt Hill
#
# Bulk Modulus (GPa) = 14.58031 74.86141 44.72086
# Shear Modulus (GPa) = 12.15999 33.87603 23.01801
#
# Velocity S-wave (km/s) = 2.39482 3.99717 3.29489
# Velocity P-wave (km/s) = 3.81098 7.52403 5.96383
#
# Compressibility (1/GPa) = 0.06858566
#
# Stress axis : x y z
#
# Youngs Moduli (GPa) = 16.97149 113.39478 72.31256
#
# Poissons Ratio (x) = 1.48692 -0.80975
# Poissons Ratio (y) = 0.22254 0.33099
# Poissons Ratio (z) = -0.19004 0.51904
#
# Static dielectric constant tensor:
#      x y z
#    x 1.936420 0.000000 0.024040 
#    y 0.000000 1.811680 0.000000 
#    z 0.024040 0.000000 1.827220 
# 
# From -- ./inp_files/311658.got.cif
#   From: 2010.05.17/outbox.cif.g08.bks.cpg/sg15_156_cif.got.tgz:311658.got - 2010.06.03 18:47:42.
