data_PCOD9302590
_publ_section_title
;
Structure prediction by ZEFSAII (Michael W. Deem and Ramdas Pophale) SiO2 
 PCOD9302590
Probable space group: C 2/C
;
_chemical_formula_sum "Si O2"
_cell_formula_units_Z 64
_cell_length_a 14.892062
_cell_length_b 15.715956
_cell_length_c 17.598145
_cell_angle_alpha 90.000000
_cell_angle_beta 124.845181
_cell_angle_gamma 90.000000
_cell_volume 3380.231076
_symmetry_space_group_name_H-M "C 2/C"
_symmetry_group_IT_number 15
_symmetry_cell_setting 'monoclinic'
loop_
_space_group_symop_operation_xyz
x,y,z
-x,y,1/2-z
-x,-y,-z
x,-y,1/2+z
1/2+x,1/2+y,z
1/2-x,1/2+y,1/2-z
1/2-x,1/2-y,-z
1/2+x,1/2-y,1/2+z
loop_
_atom_site_type_symbol
_atom_site_label
_atom_site_fract_x
_atom_site_fract_y
_atom_site_fract_z
Si Si1 0.774882 0.342717 0.982537
Si Si2 0.742175 0.164058 0.716830
Si Si3 0.738308 0.841616 0.034465
Si Si4 0.630265 0.506121 0.222672
Si Si5 0.287286 0.156148 0.310753
Si Si6 0.493474 0.111343 0.835643
Si Si7 0.622445 0.501794 0.404502
Si Si8 0.509885 0.056109 0.425753
O O1 0.757377 0.337625 0.884446
O O2 0.697611 0.420961 0.971346
O O3 0.750000 0.250000 0.000000
O O4 0.899072 0.359635 0.067217
O O5 0.752946 0.171317 0.631547
O O6 0.812095 0.081318 0.774877
O O7 0.781028 0.251963 0.771064
O O8 0.616939 0.147847 0.681003
O O9 0.827607 0.910447 0.048927
O O10 0.750000 0.750000 0.000000
O O11 0.622168 0.891610 0.973304
O O12 0.703771 0.586965 0.235055
O O13 0.629814 0.503959 0.315325
O O14 0.504623 0.511863 0.136525
O O15 0.408628 0.118960 0.370766
O O16 0.500000 0.133469 0.750000
O O17 0.495480 0.010550 0.850744
O O18 0.500000 0.000000 0.500000
#
# Coordination Sequence:
#
# PCOD9302590 Si02
#       8
#     8   8   8   8   8   8   8   8
#     4  11  22  39  62  92 126 164 214 270 326 386
#     4  11  23  41  62  95 132 167 216 277 327 391
#     4  11  23  40  66  94 131 174 221 270 334 404
#     4   9  19  38  61  86 124 168 207 253 319 391
#     4  11  22  38  66  91 125 173 212 262 336 392
#     4  12  24  41  68  94 123 167 229 279 320 399
#     4   9  19  38  61  86 123 169 206 254 322 388
#     4  12  20  45  70  88 127 184 223 271 345 396
#
# _framework density 18.933617000000002
#
# number of rings (size 3 to 8) (size 9 to 14) (size 15 to 20)
#    0.000    1.250    5.000    1.500    3.500    1.000 
#    0.000    0.000    0.000    3.750    0.000    0.000 
#    0.000    0.000    0.000    0.000    0.000    0.000 
#
# Total GULP energy -178601.095713 kJ/mol
# GULP energy per Si atom -5581.284241 kJ/mol
# Density = 1.889052 g / cm^3
# Si number density = 18.933617 Si / 1000 Ang^3
#
#
#
# Elastic Constant Matrix: (Units=GPa)
#
#
# Indices 1 2 3 4 5 6 
#
# 1 71.1752 53.7496 46.1997 0.0000 27.3336 0.0000
# 2 53.7496 165.2732 60.6042 0.0000 21.4169 0.0000
# 3 46.1997 60.6042 61.1930 0.0000 23.8441 0.0000
# 4 0.0000 0.0000 0.0000 26.9490 0.0000 -20.2131
# 5 27.3336 21.4169 23.8441 0.0000 38.4747 0.0000
# 6 0.0000 0.0000 0.0000 -20.2131 0.0000 15.3602
#
#
#
# Elastic Compliance Matrix: (Units=1/GPa)
#
#
# Indices 1 2 3 4 5 6 
#
# 1 0.030683 -0.002539 -0.016753 0.000000 -0.010002 0.000000
# 2 -0.002539 0.009726 -0.008317 0.000000 0.001544 0.000000
# 3 -0.016753 -0.008317 0.040586 0.000000 -0.008621 0.000000
# 4 0.000000 0.000000 0.000000 2.858722 0.000000 3.761899
# 5 -0.010002 0.001544 -0.008621 0.000000 0.037580 0.000000
# 6 0.000000 0.000000 0.000000 3.761899 0.000000 5.015526
#
#
# Mechanical properties :
#
#
# Convention : Reuss Voigt Hill
#
# Bulk Modulus (GPa) = 38.79463 68.74980 53.77222
# Shear Modulus (GPa) = 0.62061 25.29598 12.95829
#
# Velocity S-wave (km/s) = 0.57314 3.65915 2.61895
# Velocity P-wave (km/s) = 4.57955 7.36494 6.13248
#
# Compressibility (1/GPa) = 0.02577676
#
# Stress axis : x y z
#
# Youngs Moduli (GPa) = 32.59164 102.81599 24.63899
#
# Poissons Ratio (x) = 0.26109 0.41277
# Poissons Ratio (y) = 0.08276 0.20493
# Poissons Ratio (z) = 0.54599 0.85513
#
# Static dielectric constant tensor:
#      x y z
#    x 1.645980 0.000000 -0.014640 
#    y 0.000000 1.656430 0.000000 
#    z -0.014640 0.000000 1.639530 
# 
# From -- ./inp_files/205757.got.cif
#   From: 2010.05.17/outbox.cif.g08.bks.cpg/sg15_103_cif.got.tgz:205757.got - 2010.06.03 18:47:42.
