data_PCOD9302886
_publ_section_title
;
Structure prediction by ZEFSAII (Michael W. Deem and Ramdas Pophale) SiO2 
 PCOD9302886
Probable space group: C 2/C
;
_chemical_formula_sum "Si O2"
_cell_formula_units_Z 52
_cell_length_a 18.242525
_cell_length_b 18.106638
_cell_length_c 9.943530
_cell_angle_alpha 90.000000
_cell_angle_beta 126.411648
_cell_angle_gamma 90.000000
_cell_volume 2643.241419
_symmetry_space_group_name_H-M "C 2/C"
_symmetry_group_IT_number 15
_symmetry_cell_setting 'monoclinic'
loop_
_space_group_symop_operation_xyz
x,y,z
-x,y,1/2-z
-x,-y,-z
x,-y,1/2+z
1/2+x,1/2+y,z
1/2-x,1/2+y,1/2-z
1/2-x,1/2-y,-z
1/2+x,1/2-y,1/2+z
loop_
_atom_site_type_symbol
_atom_site_label
_atom_site_fract_x
_atom_site_fract_y
_atom_site_fract_z
Si Si1 0.000000 0.084175 0.750000
Si Si2 0.743128 0.564867 0.661477
Si Si3 0.232194 0.759969 0.140455
Si Si4 0.140642 0.019219 0.280301
Si Si5 0.602005 0.332951 0.575250
Si Si6 0.971951 0.279780 0.064232
Si Si7 0.042256 0.558586 0.647234
O O1 0.922698 0.133556 0.595782
O O2 0.948261 0.031763 0.799273
O O3 0.728195 0.652614 0.662496
O O4 0.682251 0.534841 0.472288
O O5 0.712337 0.521636 0.761226
O O6 0.848668 0.553260 0.737975
O O7 0.311263 0.719972 0.310674
O O8 0.250000 0.750000 0.000000
O O9 0.136090 0.721875 0.065114
O O10 0.116650 0.097686 0.189199
O O11 0.515829 0.285102 0.526685
O O12 0.000000 0.266569 0.250000
O O13 0.013750 0.358774 0.072649
O O14 0.000000 0.548199 0.750000
O O15 0.000000 0.500000 0.500000
#
# Coordination Sequence:
#
# PCOD9302886 Si02
#       7
#     4   8   8   8   8   8   8
#     4  12  28  46  64 110 144 184 226 290 364 424
#     4  12  24  45  68 107 134 182 237 284 352 415
#     4  12  22  40  71 101 132 178 234 289 339 412
#     4  12  26  42  75  99 144 181 230 290 350 418
#     4  12  25  45  68 101 141 179 230 289 349 419
#     4  11  22  40  69 100 131 176 232 284 340 410
#     4  11  24  43  66  98 140 178 232 287 343 413
#
# _framework density 19.672815
#
# number of rings (size 3 to 8) (size 9 to 14) (size 15 to 20)
#    0.000    0.308    6.154    3.231    5.385    0.000 
#    1.385    3.077    0.000    0.000    0.000    0.000 
#    0.000    0.000    0.000    0.000    0.000    0.000 
#
# Total GULP energy -145467.991961 kJ/mol
# GULP energy per Si atom -5594.922768 kJ/mol
# Density = 1.962804 g / cm^3
# Si number density = 19.672815 Si / 1000 Ang^3
#
#
#
# Elastic Constant Matrix: (Units=GPa)
#
#
# Indices 1 2 3 4 5 6 
#
# 1 104.3345 23.7909 7.4956 0.0000 14.2351 0.0000
# 2 23.7909 111.6938 29.9685 0.0000 -15.3814 0.0000
# 3 7.4956 29.9685 75.9081 0.0000 13.9700 0.0000
# 4 0.0000 0.0000 0.0000 25.2466 0.0000 -1.8458
# 5 14.2351 -15.3814 13.9700 0.0000 30.6938 0.0000
# 6 0.0000 0.0000 0.0000 -1.8458 0.0000 16.7031
#
#
#
# Elastic Compliance Matrix: (Units=1/GPa)
#
#
# Indices 1 2 3 4 5 6 
#
# 1 0.011525 -0.004152 0.002039 0.000000 -0.008353 0.000000
# 2 -0.004152 0.013353 -0.007037 0.000000 0.011820 0.000000
# 3 0.002039 -0.007037 0.018089 0.000000 -0.012705 0.000000
# 4 0.000000 0.000000 0.000000 0.039932 0.000000 0.004413
# 5 -0.008353 0.011820 -0.012705 0.000000 0.048160 0.000000
# 6 0.000000 0.000000 0.000000 0.004413 0.000000 0.060357
#
#
# Mechanical properties :
#
#
# Convention : Reuss Voigt Hill
#
# Bulk Modulus (GPa) = 40.54253 46.04960 43.29606
# Shear Modulus (GPa) = 22.94219 29.90747 26.42483
#
# Velocity S-wave (km/s) = 3.41865 3.90326 3.66897
# Velocity P-wave (km/s) = 6.01964 6.61608 6.32489
#
# Compressibility (1/GPa) = 0.02466546
#
# Stress axis : x y z
#
# Youngs Moduli (GPa) = 86.77096 74.88732 55.28201
#
# Poissons Ratio (x) = 0.31094 -0.11270
# Poissons Ratio (y) = 0.36028 0.38904
# Poissons Ratio (z) = -0.17689 0.52700
#
# Static dielectric constant tensor:
#      x y z
#    x 1.664910 0.000000 0.011620 
#    y 0.000000 1.674710 0.000000 
#    z 0.011620 0.000000 1.674390 
# 
# From -- ./inp_files/49236.got.cif
#   From: 2010.05.17/outbox.cif.g08.bks.cpg/sg15_25_cif.got.tgz:49236.got - 2010.06.03 18:47:42.
