data_PCOD9302472
_publ_section_title
;
Structure prediction by ZEFSAII (Michael W. Deem and Ramdas Pophale) SiO2 
 PCOD9302472
Probable space group: C 2/C
;
_chemical_formula_sum "Si O2"
_cell_formula_units_Z 48
_cell_length_a 17.216299
_cell_length_b 12.333433
_cell_length_c 16.539010
_cell_angle_alpha 90.000000
_cell_angle_beta 148.145077
_cell_angle_gamma 90.000000
_cell_volume 1853.438545
_symmetry_space_group_name_H-M "C 2/C"
_symmetry_group_IT_number 15
_symmetry_cell_setting 'monoclinic'
loop_
_space_group_symop_operation_xyz
x,y,z
-x,y,1/2-z
-x,-y,-z
x,-y,1/2+z
1/2+x,1/2+y,z
1/2-x,1/2+y,1/2-z
1/2-x,1/2-y,-z
1/2+x,1/2-y,1/2+z
loop_
_atom_site_type_symbol
_atom_site_label
_atom_site_fract_x
_atom_site_fract_y
_atom_site_fract_z
Si Si1 0.659036 0.471930 0.367884
Si Si2 0.237176 0.193320 0.382227
Si Si3 0.431811 0.884676 0.312147
Si Si4 0.858422 0.857624 0.886103
Si Si5 0.125810 0.380944 0.807785
Si Si6 0.678344 0.594357 0.701002
O O1 0.500000 0.432524 0.250000
O O2 0.662441 0.601985 0.369906
O O3 0.766930 0.425921 0.529079
O O4 0.690190 0.437031 0.304195
O O5 0.410621 0.172329 0.543364
O O6 0.172737 0.312994 0.339059
O O7 0.189538 0.167135 0.247563
O O8 0.342332 0.875786 0.317154
O O9 0.443106 0.010432 0.295691
O O10 0.732320 0.820209 0.837846
O O11 0.849695 0.989486 0.881676
O O12 0.030445 0.833947 0.056518
O O13 0.000000 0.322722 0.750000
#
# Coordination Sequence:
#
# PCOD9302472 Si02
#       6
#     8   8   8   8   8   8
#     4  11  22  37  60  88 115 148 184 234 290 335
#     4  11  24  38  57  82 116 155 191 231 279 338
#     4  11  24  38  57  82 116 155 192 230 279 338
#     4   9  19  36  58  80 111 149 190 231 274 333
#     4  11  22  37  58  89 118 144 187 236 285 335
#     4   9  19  36  58  81 109 149 193 228 274 335
#
# _framework density 25.89781
#
# number of rings (size 3 to 8) (size 9 to 14) (size 15 to 20)
#    0.000    1.667    3.333    1.000    7.000    3.333 
#    0.000    0.000    0.000    2.000    0.000    0.000 
#    0.000    0.000    0.000    0.000    0.000    0.000 
#
# Total GULP energy -134252.351792 kJ/mol
# GULP energy per Si atom -5593.847991 kJ/mol
# Density = 2.583887 g / cm^3
# Si number density = 25.897810 Si / 1000 Ang^3
#
#
#
# Elastic Constant Matrix: (Units=GPa)
#
#
# Indices 1 2 3 4 5 6 
#
# 1 91.6293 16.9418 55.8304 -0.0001 -5.4983 0.0000
# 2 16.9418 57.5109 -0.4546 0.0000 10.3268 0.0000
# 3 55.8304 -0.4546 103.7472 0.0000 4.3535 0.0000
# 4 -0.0001 0.0000 0.0000 56.3677 0.0000 0.9499
# 5 -5.4983 10.3268 4.3535 0.0000 47.2138 0.0000
# 6 0.0000 0.0000 0.0000 0.9499 0.0000 11.6523
#
#
#
# Elastic Compliance Matrix: (Units=1/GPa)
#
#
# Indices 1 2 3 4 5 6 
#
# 1 0.018586 -0.006364 -0.010219 0.000000 0.004499 0.000000
# 2 -0.006364 0.020284 0.003745 0.000000 -0.005523 0.000000
# 3 -0.010219 0.003745 0.015298 0.000000 -0.003420 0.000000
# 4 0.000000 0.000000 0.000000 0.017765 0.000000 -0.001448
# 5 0.004499 -0.005523 -0.003420 0.000000 0.023227 0.000000
# 6 0.000000 0.000000 0.000000 -0.001448 0.000000 0.085938
#
#
# Mechanical properties :
#
#
# Convention : Reuss Voigt Hill
#
# Bulk Modulus (GPa) = 35.09553 44.16918 39.63235
# Shear Modulus (GPa) = 23.11908 35.08474 29.10191
#
# Velocity S-wave (km/s) = 2.99106 3.68467 3.35583
# Velocity P-wave (km/s) = 5.05070 5.93250 5.50927
#
# Compressibility (1/GPa) = 0.02849366
#
# Stress axis : x y z
#
# Youngs Moduli (GPa) = 53.80249 49.29994 65.36868
#
# Poissons Ratio (x) = 0.31374 0.66799
# Poissons Ratio (y) = 0.34239 -0.24482
# Poissons Ratio (z) = 0.54980 -0.18464
#
# Static dielectric constant tensor:
#      x y z
#    x 2.048710 0.000000 0.009150 
#    y 0.000000 2.208330 0.000000 
#    z 0.009150 0.000000 2.065770 
# 
# From -- ./inp_files/47956.got.cif
#   From: 2010.05.17/outbox.cif.g08.bks.cpg/sg15_24_cif.got.tgz:47956.got - 2010.06.03 18:47:42.
