data_PCOD9302697
_publ_section_title
;
Structure prediction by ZEFSAII (Michael W. Deem and Ramdas Pophale) SiO2 
 PCOD9302697
Probable space group: C 2/C
;
_chemical_formula_sum "Si O2"
_cell_formula_units_Z 36
_cell_length_a 4.926875
_cell_length_b 13.335798
_cell_length_c 23.321635
_cell_angle_alpha 90.000000
_cell_angle_beta 60.570402
_cell_angle_gamma 90.000000
_cell_volume 1334.589819
_symmetry_space_group_name_H-M "C 2/C"
_symmetry_group_IT_number 15
_symmetry_cell_setting 'monoclinic'
loop_
_space_group_symop_operation_xyz
x,y,z
-x,y,1/2-z
-x,-y,-z
x,-y,1/2+z
1/2+x,1/2+y,z
1/2-x,1/2+y,1/2-z
1/2-x,1/2-y,-z
1/2+x,1/2-y,1/2+z
loop_
_atom_site_type_symbol
_atom_site_label
_atom_site_fract_x
_atom_site_fract_y
_atom_site_fract_z
Si Si1 0.016254 0.480578 0.126828
Si Si2 0.176601 0.098770 0.552913
Si Si3 0.174337 0.707416 0.444104
Si Si4 0.500000 0.963026 0.250000
Si Si5 0.701377 0.147480 0.181197
O O1 0.807217 0.432271 0.100455
O O2 0.968351 0.416134 0.191271
O O3 0.995023 0.595406 0.151989
O O4 0.377844 0.468636 0.070754
O O5 0.465540 0.108911 0.478914
O O6 0.032619 0.210496 0.566711
O O7 0.250000 0.750000 0.500000
O O8 0.495281 0.691498 0.378216
O O9 0.777606 0.044193 0.209023
O O10 0.500000 0.205896 0.250000
#
# Coordination Sequence:
#
# PCOD9302697 Si02
#       5
#     8   8   8   4   8
#     4   9  20  42  65  99 126 184 232 306 348 428
#     4  11  22  39  65  99 139 176 235 290 368 420
#     4  11  22  40  63 104 146 189 233 290 365 454
#     4   6  18  42  68  92 130 178 252 298 360 428
#     4   7  19  44  69  95 136 190 244 298 365 436
#
# _framework density 26.974581000000001
#
# number of rings (size 3 to 8) (size 9 to 14) (size 15 to 20)
#    2.000    0.444    2.222    0.000    0.000    2.667 
#    8.000    2.222    0.000    0.000    0.000    0.000 
#    0.000    0.000    0.000    0.000    0.000    0.000 
#
# Total GULP energy -100507.956678 kJ/mol
# GULP energy per Si atom -5583.775371 kJ/mol
# Density = 2.691319 g / cm^3
# Si number density = 26.974581 Si / 1000 Ang^3
#
#
#
# Elastic Constant Matrix: (Units=GPa)
#
#
# Indices 1 2 3 4 5 6 
#
# 1 187.3435 44.5966 105.3499 0.0000 13.6214 0.0000
# 2 44.5966 70.1701 66.1121 0.0000 1.6278 0.0000
# 3 105.3499 66.1121 256.9236 0.0000 -21.8795 0.0000
# 4 0.0000 0.0000 0.0000 37.1786 0.0000 -6.4511
# 5 13.6214 1.6278 -21.8795 0.0000 51.0250 0.0000
# 6 0.0000 0.0000 0.0000 -6.4511 0.0000 43.7590
#
#
#
# Elastic Compliance Matrix: (Units=1/GPa)
#
#
# Indices 1 2 3 4 5 6 
#
# 1 0.007697 -0.002091 -0.002893 0.000000 -0.003229 0.000000
# 2 -0.002091 0.019767 -0.004396 0.000000 -0.001957 0.000000
# 3 -0.002893 -0.004396 0.006526 0.000000 0.003711 0.000000
# 4 0.000000 0.000000 0.000000 0.027603 0.000000 0.004069
# 5 -0.003229 -0.001957 0.003711 0.000000 0.022114 0.000000
# 6 0.000000 0.000000 0.000000 0.004069 0.000000 0.023452
#
#
# Mechanical properties :
#
#
# Convention : Reuss Voigt Hill
#
# Bulk Modulus (GPa) = 65.66041 105.17270 85.41655
# Shear Modulus (GPa) = 38.16917 46.28443 42.22680
#
# Velocity S-wave (km/s) = 3.76574 4.14678 3.96084
# Velocity P-wave (km/s) = 6.58043 7.87413 7.25617
#
# Compressibility (1/GPa) = 0.01522988
#
# Stress axis : x y z
#
# Youngs Moduli (GPa) = 129.91728 50.58915 153.24398
#
# Poissons Ratio (x) = 0.10580 0.44333
# Poissons Ratio (y) = 0.27171 0.67360
# Poissons Ratio (z) = 0.37585 0.22237
#
# Static dielectric constant tensor:
#      x y z
#    x 2.168490 0.000000 0.008950 
#    y 0.000000 2.265240 0.000000 
#    z 0.008950 0.000000 2.230590 
# 
# From -- ./inp_files/226705.got.cif
#   From: 2010.05.17/outbox.cif.g08.bks.cpg/sg15_114_cif.got.tgz:226705.got - 2010.06.03 18:47:42.
