data_PCOD9302915
_publ_section_title
;
Structure prediction by ZEFSAII (Michael W. Deem and Ramdas Pophale) SiO2 
 PCOD9302915
Probable space group: C 2/C
;
_chemical_formula_sum "Si O2"
_cell_formula_units_Z 48
_cell_length_a 5.504462
_cell_length_b 21.740408
_cell_length_c 20.090575
_cell_angle_alpha 90.000000
_cell_angle_beta 81.544895
_cell_angle_gamma 90.000000
_cell_volume 2378.093434
_symmetry_space_group_name_H-M "C 2/C"
_symmetry_group_IT_number 15
_symmetry_cell_setting 'monoclinic'
loop_
_space_group_symop_operation_xyz
x,y,z
-x,y,1/2-z
-x,-y,-z
x,-y,1/2+z
1/2+x,1/2+y,z
1/2-x,1/2+y,1/2-z
1/2-x,1/2-y,-z
1/2+x,1/2-y,1/2+z
loop_
_atom_site_type_symbol
_atom_site_label
_atom_site_fract_x
_atom_site_fract_y
_atom_site_fract_z
Si Si1 0.589853 0.064906 0.323155
Si Si2 0.406215 0.315125 0.822249
Si Si3 0.056993 0.889086 0.450739
Si Si4 0.433218 0.961687 0.070286
Si Si5 0.227270 0.147942 0.420708
Si Si6 0.422272 0.248178 0.058736
O O1 0.500000 0.058289 0.250000
O O2 0.810435 0.114874 0.314595
O O3 0.391202 0.096363 0.380453
O O4 0.629030 0.001938 0.361556
O O5 0.500000 0.288590 0.750000
O O6 0.631065 0.313405 0.863264
O O7 0.198769 0.279670 0.870165
O O8 0.818797 0.925876 0.435388
O O9 0.003508 0.881938 0.532235
O O10 0.321422 0.920125 0.427936
O O11 0.035669 0.819301 0.426513
O O12 0.500000 0.000000 0.000000
O O13 0.368239 0.196343 0.462160
O O14 0.250000 0.250000 0.000000
#
# Coordination Sequence:
#
# PCOD9302915 Si02
#       6
#     8   8   8   8   8   8
#     4  11  24  42  66  99 130 174 227 281 333 396
#     4  11  23  40  70 100 132 170 223 285 343 393
#     4  12  25  43  67 101 135 174 221 273 336 402
#     4  12  26  42  69  96 136 177 224 275 327 395
#     4  11  22  40  71  98 132 166 221 289 338 389
#     4  11  24  40  67 102 134 173 222 278 345 408
#
# _framework density 20.184235000000001
#
# number of rings (size 3 to 8) (size 9 to 14) (size 15 to 20)
#    0.000    0.667    5.000    3.000    4.667    0.000 
#    0.000    0.833    3.667    0.000    0.000    0.000 
#    0.000    0.000    0.000    0.000    0.000    0.000 
#
# Total GULP energy -133841.918689 kJ/mol
# GULP energy per Si atom -5576.746612 kJ/mol
# Density = 2.013829 g / cm^3
# Si number density = 20.184235 Si / 1000 Ang^3
#
#
#
# Elastic Constant Matrix: (Units=GPa)
#
#
# Indices 1 2 3 4 5 6 
#
# 1 84.1691 39.8340 27.0708 0.0000 12.0280 0.0000
# 2 39.8340 107.8409 49.5144 0.0000 9.9590 0.0000
# 3 27.0708 49.5144 119.0591 0.0000 5.9971 0.0000
# 4 0.0000 0.0000 0.0000 94.0268 0.0000 56.8613
# 5 12.0280 9.9590 5.9971 0.0000 33.2724 0.0000
# 6 0.0000 0.0000 0.0000 56.8613 0.0000 69.2226
#
#
#
# Elastic Compliance Matrix: (Units=1/GPa)
#
#
# Indices 1 2 3 4 5 6 
#
# 1 0.015023 -0.004594 -0.001313 0.000000 -0.003819 0.000000
# 2 -0.004594 0.013092 -0.004326 0.000000 -0.001479 0.000000
# 3 -0.001313 -0.004326 0.010503 0.000000 -0.000124 0.000000
# 4 0.000000 0.000000 0.000000 0.021133 0.000000 -0.017359
# 5 -0.003819 -0.001479 -0.000124 0.000000 0.031900 0.000000
# 6 0.000000 0.000000 0.000000 -0.017359 0.000000 0.028705
#
#
# Mechanical properties :
#
#
# Convention : Reuss Voigt Hill
#
# Bulk Modulus (GPa) = 55.08656 60.43417 57.76037
# Shear Modulus (GPa) = 34.04292 52.28102 43.16197
#
# Velocity S-wave (km/s) = 4.11129 5.09491 4.62930
# Velocity P-wave (km/s) = 7.06315 8.03848 7.56654
#
# Compressibility (1/GPa) = 0.01815325
#
# Stress axis : x y z
#
# Youngs Moduli (GPa) = 66.56525 76.37993 95.21033
#
# Poissons Ratio (x) = 0.35085 0.12502
# Poissons Ratio (y) = 0.30577 0.41188
# Poissons Ratio (z) = 0.08740 0.33042
#
# Static dielectric constant tensor:
#      x y z
#    x 1.827770 0.000000 0.003930 
#    y 0.000000 1.719340 0.000000 
#    z 0.003930 0.000000 1.695320 
# 
# From -- ./inp_files/227336.got.cif
#   From: 2010.05.17/outbox.cif.g08.bks.cpg/sg15_114_cif.got.tgz:227336.got - 2010.06.03 18:47:42.
