data_PCOD9302125
_publ_section_title
;
Structure prediction by ZEFSAII (Michael W. Deem and Ramdas Pophale) SiO2 
 PCOD9302125
Probable space group: C 2/C
;
_chemical_formula_sum "Si O2"
_cell_formula_units_Z 48
_cell_length_a 17.875975
_cell_length_b 9.196834
_cell_length_c 14.298454
_cell_angle_alpha 90.000000
_cell_angle_beta 80.828908
_cell_angle_gamma 90.000000
_cell_volume 2320.650340
_symmetry_space_group_name_H-M "C 2/C"
_symmetry_group_IT_number 15
_symmetry_cell_setting 'monoclinic'
loop_
_space_group_symop_operation_xyz
x,y,z
-x,y,1/2-z
-x,-y,-z
x,-y,1/2+z
1/2+x,1/2+y,z
1/2-x,1/2+y,1/2-z
1/2-x,1/2-y,-z
1/2+x,1/2-y,1/2+z
loop_
_atom_site_type_symbol
_atom_site_label
_atom_site_fract_x
_atom_site_fract_y
_atom_site_fract_z
Si Si1 0.857088 0.503143 0.296512
Si Si2 0.960085 0.157001 0.506699
Si Si3 0.442862 0.234837 0.671313
Si Si4 0.188868 0.054832 0.260995
Si Si5 0.678342 0.263317 0.579023
Si Si6 0.921877 0.799823 0.227331
O O1 0.895630 0.408430 0.206266
O O2 0.768738 0.536472 0.295597
O O3 0.856460 0.392963 0.384315
O O4 0.904630 0.651174 0.286156
O O5 0.884013 0.143466 0.461727
O O6 0.937347 0.215118 0.613329
O O7 0.011801 0.263996 0.434078
O O8 0.000000 0.000000 0.500000
O O9 0.500000 0.259578 0.750000
O O10 0.380262 0.361948 0.674615
O O11 0.201932 0.154059 0.168025
O O12 0.151361 0.900623 0.244681
O O13 0.750000 0.250000 0.500000
O O14 0.000000 0.867743 0.250000
#
# Coordination Sequence:
#
# PCOD9302125 Si02
#       6
#     8   8   8   8   8   8
#     4  11  24  42  65  95 139 172 209 279 347 388
#     4  12  23  41  73  98 126 180 235 273 320 409
#     4  11  21  43  69  94 131 179 225 269 329 403
#     4  11  21  42  67  94 132 174 221 270 325 397
#     4  11  24  44  69  96 131 181 230 269 334 409
#     4  12  25  42  65 100 135 167 224 286 339 391
#
# _framework density 20.683855000000001
#
# number of rings (size 3 to 8) (size 9 to 14) (size 15 to 20)
#    0.000    0.667    5.000    6.000    0.000    0.667 
#    3.000    0.833    0.000    0.000    0.000    0.000 
#    0.000    0.000    0.000    0.000    0.000    0.000 
#
# Total GULP energy -134024.171311 kJ/mol
# GULP energy per Si atom -5584.340471 kJ/mol
# Density = 2.063678 g / cm^3
# Si number density = 20.683855 Si / 1000 Ang^3
#
#
#
# Elastic Constant Matrix: (Units=GPa)
#
#
# Indices 1 2 3 4 5 6 
#
# 1 116.7601 11.6962 7.2471 0.0000 1.3620 0.0000
# 2 11.6962 62.9797 2.3128 0.0000 -14.0280 0.0000
# 3 7.2471 2.3128 70.9909 0.0000 -22.4896 0.0000
# 4 0.0000 0.0000 0.0000 18.2925 0.0000 -2.4385
# 5 1.3620 -14.0280 -22.4896 0.0000 47.0262 0.0000
# 6 0.0000 0.0000 0.0000 -2.4385 0.0000 12.8155
#
#
#
# Elastic Compliance Matrix: (Units=1/GPa)
#
#
# Indices 1 2 3 4 5 6 
#
# 1 0.008855 -0.001920 -0.001301 0.000000 -0.001451 0.000000
# 2 -0.001920 0.017518 0.001530 0.000000 0.006013 0.000000
# 3 -0.001301 0.001530 0.016884 0.000000 0.008569 0.000000
# 4 0.000000 0.000000 0.000000 0.056090 0.000000 0.010673
# 5 -0.001451 0.006013 0.008569 0.000000 0.027198 0.000000
# 6 0.000000 0.000000 0.000000 0.010673 0.000000 0.080061
#
#
# Mechanical properties :
#
#
# Convention : Reuss Voigt Hill
#
# Bulk Modulus (GPa) = 25.07883 32.58255 28.83069
# Shear Modulus (GPa) = 22.39352 30.92515 26.65934
#
# Velocity S-wave (km/s) = 3.29395 3.87089 3.59401
# Velocity P-wave (km/s) = 5.15926 5.98041 5.58494
#
# Compressibility (1/GPa) = 0.03987427
#
# Stress axis : x y z
#
# Youngs Moduli (GPa) = 112.93583 57.08478 59.22845
#
# Poissons Ratio (x) = 0.10960 0.07707
# Poissons Ratio (y) = 0.21683 -0.09063
# Poissons Ratio (z) = 0.14695 -0.08735
#
# Static dielectric constant tensor:
#      x y z
#    x 1.748020 0.000000 -0.009390 
#    y 0.000000 1.780660 0.000000 
#    z -0.009390 0.000000 1.747860 
# 
# From -- ./inp_files/159718.got.cif
#   From: 2010.05.17/outbox.cif.g08.bks.cpg/sg15_80_cif.got.tgz:159718.got - 2010.06.03 18:47:42.
