data_PCOD9302731
_publ_section_title
;
Structure prediction by ZEFSAII (Michael W. Deem and Ramdas Pophale) SiO2 
 PCOD9302731
Probable space group: C 2/C
;
_chemical_formula_sum "Si O2"
_cell_formula_units_Z 64
_cell_length_a 18.119532
_cell_length_b 24.134993
_cell_length_c 9.271352
_cell_angle_alpha 90.000000
_cell_angle_beta 138.037090
_cell_angle_gamma 90.000000
_cell_volume 2711.038472
_symmetry_space_group_name_H-M "C 2/C"
_symmetry_group_IT_number 15
_symmetry_cell_setting 'monoclinic'
loop_
_space_group_symop_operation_xyz
x,y,z
-x,y,1/2-z
-x,-y,-z
x,-y,1/2+z
1/2+x,1/2+y,z
1/2-x,1/2+y,1/2-z
1/2-x,1/2-y,-z
1/2+x,1/2-y,1/2+z
loop_
_atom_site_type_symbol
_atom_site_label
_atom_site_fract_x
_atom_site_fract_y
_atom_site_fract_z
Si Si1 0.527031 0.576551 0.945857
Si Si2 0.523544 0.261223 0.944505
Si Si3 0.842074 0.131310 0.857509
Si Si4 0.076343 0.481158 0.244154
Si Si5 0.621861 0.897515 0.884723
Si Si6 0.900642 0.796401 0.011244
Si Si7 0.822480 0.338842 0.820624
Si Si8 0.717969 0.409437 0.924597
O O1 0.500000 0.549800 0.750000
O O2 0.417888 0.586453 0.882730
O O3 0.569720 0.638709 0.968354
O O4 0.627881 0.557261 0.195338
O O5 0.608057 0.309322 0.116626
O O6 0.573751 0.200696 0.015140
O O7 0.500000 0.278066 0.750000
O O8 0.413919 0.265627 0.879656
O O9 0.717139 0.126863 0.622069
O O10 0.843259 0.119868 0.030652
O O11 0.117246 0.536220 0.385718
O O12 0.185210 0.446879 0.367575
O O13 0.000000 0.449623 0.250000
O O14 0.000000 0.500000 0.000000
O O15 0.500000 0.876829 0.750000
O O16 0.652048 0.883605 0.763929
O O17 0.776351 0.799180 0.881216
O O18 0.000000 0.772108 0.250000
O O19 0.779512 0.366554 0.905658
#
# Coordination Sequence:
#
# PCOD9302731 Si02
#       8
#     8   8   8   8   8   8   8   8
#     4   9  18  37  64  93 127 171 215 261 321 384
#     4  11  24  39  59  90 129 169 210 261 324 388
#     4  11  22  40  65  94 133 173 214 267 328 388
#     4  11  24  44  67  93 130 172 214 269 342 396
#     4  11  25  44  66  95 126 166 219 273 327 394
#     4   9  19  37  59  85 120 166 208 251 314 377
#     4  11  24  40  63  93 126 167 216 266 320 390
#     4  11  22  39  67  97 130 172 220 270 326 392
#
# _framework density 23.607189000000002
#
# number of rings (size 3 to 8) (size 9 to 14) (size 15 to 20)
#    0.000    1.500    0.000    7.875    0.000    8.000 
#    0.000    0.625    0.000    8.250    0.000    0.000 
#    0.000    0.000    0.000    0.000    0.000    0.000 
#
# Total GULP energy -178801.851545 kJ/mol
# GULP energy per Si atom -5587.557861 kJ/mol
# Density = 2.355346 g / cm^3
# Si number density = 23.607189 Si / 1000 Ang^3
#
#
#
# Elastic Constant Matrix: (Units=GPa)
#
#
# Indices 1 2 3 4 5 6 
#
# 1 101.2308 1.2704 -2.0424 0.0000 -12.7927 0.0000
# 2 1.2704 33.6722 2.3372 0.0000 2.2643 0.0000
# 3 -2.0424 2.3372 85.3687 0.0000 -2.0288 0.0000
# 4 0.0000 0.0000 0.0000 22.7709 0.0000 3.7893
# 5 -12.7927 2.2643 -2.0288 0.0000 42.0805 0.0000
# 6 0.0000 0.0000 0.0000 3.7893 0.0000 153.2888
#
#
#
# Elastic Compliance Matrix: (Units=1/GPa)
#
#
# Indices 1 2 3 4 5 6 
#
# 1 0.010295 -0.000626 0.000339 0.000000 0.003180 0.000000
# 2 -0.000626 0.029906 -0.000877 0.000000 -0.001842 0.000000
# 3 0.000339 -0.000877 0.011763 0.000000 0.000717 0.000000
# 4 0.000000 0.000000 0.000000 0.044097 0.000000 -0.001090
# 5 0.003180 -0.001842 0.000717 0.000000 0.024864 0.000000
# 6 0.000000 0.000000 0.000000 -0.001090 0.000000 0.006551
#
#
# Mechanical properties :
#
#
# Convention : Reuss Voigt Hill
#
# Bulk Modulus (GPa) = 20.14672 24.82247 22.48460
# Shear Modulus (GPa) = 34.16459 58.20847 46.18653
#
# Velocity S-wave (km/s) = 3.80835 4.97098 4.42799
# Velocity P-wave (km/s) = 5.28117 6.59432 5.97394
#
# Compressibility (1/GPa) = 0.04963587
#
# Stress axis : x y z
#
# Youngs Moduli (GPa) = 97.13512 33.43764 85.01178
#
# Poissons Ratio (x) = 0.02092 -0.02882
# Poissons Ratio (y) = 0.06078 0.07460
# Poissons Ratio (z) = -0.03293 0.02934
#
# Static dielectric constant tensor:
#      x y z
#    x 1.914260 0.000000 -0.048330 
#    y 0.000000 1.891720 0.000000 
#    z -0.048330 0.000000 1.986560 
# 
# From -- ./inp_files/52860.got.cif
#   From: 2010.05.17/outbox.cif.g08.bks.cpg/sg15_27_cif.got.tgz:52860.got - 2010.06.03 18:47:42.
