data_PCOD9302265
_publ_section_title
;
Structure prediction by ZEFSAII (Michael W. Deem and Ramdas Pophale) SiO2 
 PCOD9302265
Probable space group: C 2/C
;
_chemical_formula_sum "Si O2"
_cell_formula_units_Z 60
_cell_length_a 7.028613
_cell_length_b 19.126305
_cell_length_c 25.216760
_cell_angle_alpha 90.000000
_cell_angle_beta 127.277816
_cell_angle_gamma 90.000000
_cell_volume 2697.390014
_symmetry_space_group_name_H-M "C 2/C"
_symmetry_group_IT_number 15
_symmetry_cell_setting 'monoclinic'
loop_
_space_group_symop_operation_xyz
x,y,z
-x,y,1/2-z
-x,-y,-z
x,-y,1/2+z
1/2+x,1/2+y,z
1/2-x,1/2+y,1/2-z
1/2-x,1/2-y,-z
1/2+x,1/2-y,1/2+z
loop_
_atom_site_type_symbol
_atom_site_label
_atom_site_fract_x
_atom_site_fract_y
_atom_site_fract_z
Si Si1 0.661783 0.126681 0.330199
Si Si2 0.056177 0.401095 0.517807
Si Si3 0.581670 0.130393 0.619819
Si Si4 0.500000 0.700108 0.750000
Si Si5 0.654031 0.038921 0.830495
Si Si6 0.741555 0.208983 0.199261
Si Si7 0.633246 0.275242 0.895197
Si Si8 0.884089 0.023846 0.536389
O O1 0.500000 0.132314 0.250000
O O2 0.485222 0.158875 0.344175
O O3 0.895873 0.175042 0.361967
O O4 0.688897 0.044554 0.342214
O O5 0.932127 0.402287 0.439628
O O6 0.159054 0.325498 0.548704
O O7 0.269764 0.457186 0.547843
O O8 0.841456 0.428082 0.517760
O O9 0.493938 0.075386 0.648219
O O10 0.421222 0.200867 0.588329
O O11 0.834963 0.156367 0.683350
O O12 0.328114 0.741914 0.762608
O O13 0.500000 0.051793 0.750000
O O14 0.925437 0.061607 0.892171
O O15 0.793052 0.245516 0.152372
O O16 0.000000 0.171100 0.250000
O O17 0.000000 0.000000 0.500000
#
# Coordination Sequence:
#
# PCOD9302265 Si02
#       8
#     8   8   8   4   8   8   8   8
#     4  11  21  44  66 106 143 185 240 309 345 436
#     4  11  27  46  76 106 141 201 243 298 365 442
#     4  12  26  48  71 107 152 190 240 305 371 443
#     4  12  26  46  70 102 156 190 238 308 376 434
#     4  11  27  45  76 108 147 189 246 308 369 435
#     4  12  21  42  74 102 140 196 235 299 373 425
#     4  12  25  43  76 106 145 190 252 291 365 444
#     4  11  24  51  74 102 151 193 242 304 372 436
#
# _framework density 22.243724
#
# number of rings (size 3 to 8) (size 9 to 14) (size 15 to 20)
#    0.000    0.533    7.333    0.400    5.600    0.000 
#    1.200    1.333    0.000    0.000    0.000    0.000 
#    0.000    0.000    0.000    0.000    0.000    0.000 
#
# Total GULP energy -167274.486282 kJ/mol
# GULP energy per Si atom -5575.816209 kJ/mol
# Density = 2.219310 g / cm^3
# Si number density = 22.243724 Si / 1000 Ang^3
#
#
#
# Elastic Constant Matrix: (Units=GPa)
#
#
# Indices 1 2 3 4 5 6 
#
# 1 144.4460 32.2870 49.8117 0.0000 10.2160 0.0000
# 2 32.2870 56.1736 11.6033 0.0000 -8.4702 0.0000
# 3 49.8117 11.6033 100.9041 -0.0001 6.1442 -0.0001
# 4 0.0000 0.0000 -0.0001 1.7251 0.0000 -57.9256
# 5 10.2160 -8.4702 6.1442 0.0000 24.8530 -0.0001
# 6 0.0000 0.0000 -0.0001 -57.9256 -0.0001 -73.3632
#
#
#
# Elastic Compliance Matrix: (Units=1/GPa)
#
#
# Indices 1 2 3 4 5 6 
#
# 1 0.009891 -0.005629 -0.003930 0.000000 -0.005013 0.000000
# 2 -0.005629 0.022659 -0.000445 0.000000 0.010146 0.000000
# 3 -0.003930 -0.000445 0.011993 0.000000 -0.001501 0.000000
# 4 0.000000 0.000000 0.000000 0.021070 0.000000 -0.016636
# 5 -0.005013 0.010146 -0.001501 0.000000 0.046126 0.000000
# 6 0.000000 0.000000 0.000000 -0.016636 0.000000 -0.000495
#
#
# Mechanical properties :
#
#
# Convention : Reuss Voigt Hill
#
# Bulk Modulus (GPa) = 40.75748 54.32530 47.54139
# Shear Modulus (GPa) = 35.86021 4.49777 20.17899
#
# Velocity S-wave (km/s) = 4.01951 1.42353 3.01520
# Velocity P-wave (km/s) = 6.31703 5.21322 5.79148
#
# Compressibility (1/GPa) = 0.02453537
#
# Stress axis : x y z
#
# Youngs Moduli (GPa) = 101.10107 44.13217 83.38129
#
# Poissons Ratio (x) = 0.24843 0.32771
# Poissons Ratio (y) = 0.56911 0.03708
# Poissons Ratio (z) = 0.39735 0.01962
#
# Static dielectric constant tensor:
#      x y z
#    x 1.861330 0.000000 0.037200 
#    y 0.000000 1.852820 0.000000 
#    z 0.037200 0.000000 1.876350 
# 
# From -- ./inp_files/286512.got.cif
#   From: 2010.05.17/outbox.cif.g08.bks.cpg/sg15_144_cif.got.tgz:286512.got - 2010.06.03 18:47:42.
