data_PCOD9302576
_publ_section_title
;
Structure prediction by ZEFSAII (Michael W. Deem and Ramdas Pophale) SiO2 
 PCOD9302576
Probable space group: C 2/C
;
_chemical_formula_sum "Si O2"
_cell_formula_units_Z 64
_cell_length_a 27.265030
_cell_length_b 14.891942
_cell_length_c 13.500606
_cell_angle_alpha 90.000000
_cell_angle_beta 33.713843
_cell_angle_gamma 90.000000
_cell_volume 3042.559637
_symmetry_space_group_name_H-M "C 2/C"
_symmetry_group_IT_number 15
_symmetry_cell_setting 'monoclinic'
loop_
_space_group_symop_operation_xyz
x,y,z
-x,y,1/2-z
-x,-y,-z
x,-y,1/2+z
1/2+x,1/2+y,z
1/2-x,1/2+y,1/2-z
1/2-x,1/2-y,-z
1/2+x,1/2-y,1/2+z
loop_
_atom_site_type_symbol
_atom_site_label
_atom_site_fract_x
_atom_site_fract_y
_atom_site_fract_z
Si Si1 0.091469 0.300766 0.036488
Si Si2 0.392781 0.727891 0.704072
Si Si3 0.947190 0.201735 0.929439
Si Si4 0.173748 0.951341 0.967683
Si Si5 0.826176 0.203289 0.305240
Si Si6 0.906260 0.135984 0.355513
Si Si7 0.773326 0.622127 0.487899
Si Si8 0.215829 0.543479 0.401244
O O1 0.140434 0.211661 0.997380
O O2 0.000000 0.303857 0.250000
O O3 0.081067 0.282940 0.937841
O O4 0.141888 0.390711 0.981230
O O5 0.473125 0.681843 0.627481
O O6 0.315362 0.657352 0.809141
O O7 0.344124 0.798896 0.858518
O O8 0.000000 0.249642 0.750000
O O9 0.897687 0.117593 0.959604
O O10 0.871291 0.244111 0.129573
O O11 0.230726 0.991505 0.782551
O O12 0.237143 0.901149 0.938752
O O13 0.132896 0.037516 0.088364
O O14 0.750000 0.250000 0.500000
O O15 0.903808 0.181015 0.252324
O O16 0.782124 0.110166 0.346532
O O17 0.000000 0.122489 0.250000
O O18 0.811038 0.535937 0.480747
#
# Coordination Sequence:
#
# PCOD9302576 Si02
#       8
#     8   8   8   8   8   8   8   8
#     4  11  23  42  68  92 132 178 228 281 333 401
#     4  11  24  44  69  98 134 178 226 276 346 403
#     4  11  23  42  67  98 138 175 220 283 343 403
#     4  11  22  41  64 101 139 168 221 286 336 412
#     4  11  23  40  66  98 132 178 227 274 334 408
#     4  11  22  38  65 102 130 173 222 279 349 396
#     4  11  23  42  70  97 134 179 225 272 341 407
#     4  11  23  41  66  94 133 177 222 279 338 396
#
# _framework density 21.034921000000001
#
# number of rings (size 3 to 8) (size 9 to 14) (size 15 to 20)
#    0.000    1.000    5.000    2.625    0.000    0.000 
#    2.250    5.000    0.000    0.000    0.000    0.000 
#    0.000    0.000    0.000    0.000    0.000    0.000 
#
# Total GULP energy -178331.617543 kJ/mol
# GULP energy per Si atom -5572.863048 kJ/mol
# Density = 2.098704 g / cm^3
# Si number density = 21.034921 Si / 1000 Ang^3
#
#
#
# Elastic Constant Matrix: (Units=GPa)
#
#
# Indices 1 2 3 4 5 6 
#
# 1 97.3671 22.0635 31.3602 0.0000 10.0473 0.0000
# 2 22.0635 62.3587 9.1685 0.0000 1.3125 0.0000
# 3 31.3602 9.1685 112.9580 0.0000 17.4523 0.0000
# 4 0.0000 0.0000 0.0000 10.0285 0.0000 4.1465
# 5 10.0473 1.3125 17.4523 0.0000 29.6689 0.0000
# 6 0.0000 0.0000 0.0000 4.1465 0.0000 34.0621
#
#
#
# Elastic Compliance Matrix: (Units=1/GPa)
#
#
# Indices 1 2 3 4 5 6 
#
# 1 0.012276 -0.003893 -0.002724 0.000000 -0.002383 0.000000
# 2 -0.003893 0.017464 -0.000463 0.000000 0.000818 0.000000
# 3 -0.002724 -0.000463 0.010451 0.000000 -0.005205 0.000000
# 4 0.000000 0.000000 0.000000 0.105001 0.000000 -0.012782
# 5 -0.002383 0.000818 -0.005205 0.000000 0.037538 0.000000
# 6 0.000000 0.000000 0.000000 -0.012782 0.000000 0.030914
#
#
# Mechanical properties :
#
#
# Convention : Reuss Voigt Hill
#
# Bulk Modulus (GPa) = 38.41551 44.20756 41.31154
# Shear Modulus (GPa) = 21.14337 28.75800 24.95069
#
# Velocity S-wave (km/s) = 3.17386 3.70152 3.44780
# Velocity P-wave (km/s) = 5.63325 6.27138 5.96086
#
# Compressibility (1/GPa) = 0.02603115
#
# Stress axis : x y z
#
# Youngs Moduli (GPa) = 81.46171 57.25920 95.68619
#
# Poissons Ratio (x) = 0.22289 0.26065
# Poissons Ratio (y) = 0.31710 0.04433
# Poissons Ratio (z) = 0.22190 0.02652
#
# Static dielectric constant tensor:
#      x y z
#    x 1.830600 0.000000 -0.064790 
#    y 0.000000 1.759090 0.000000 
#    z -0.064790 0.000000 2.002230 
# 
# From -- ./inp_files/123486.got.cif
#   From: 2010.05.17/outbox.cif.g08.bks.cpg/sg15_62_cif.got.tgz:123486.got - 2010.06.03 18:47:42.
