data_PCOD9302990
_publ_section_title
;
Structure prediction by ZEFSAII (Michael W. Deem and Ramdas Pophale) SiO2 
 PCOD9302990
Probable space group: C 2/C
;
_chemical_formula_sum "Si O2"
_cell_formula_units_Z 32
_cell_length_a 7.230627
_cell_length_b 7.961990
_cell_length_c 25.685290
_cell_angle_alpha 90.000000
_cell_angle_beta 118.449689
_cell_angle_gamma 90.000000
_cell_volume 1300.131872
_symmetry_space_group_name_H-M "C 2/C"
_symmetry_group_IT_number 15
_symmetry_cell_setting 'monoclinic'
loop_
_space_group_symop_operation_xyz
x,y,z
-x,y,1/2-z
-x,-y,-z
x,-y,1/2+z
1/2+x,1/2+y,z
1/2-x,1/2+y,1/2-z
1/2-x,1/2-y,-z
1/2+x,1/2-y,1/2+z
loop_
_atom_site_type_symbol
_atom_site_label
_atom_site_fract_x
_atom_site_fract_y
_atom_site_fract_z
Si Si1 0.332268 0.960202 0.933367
Si Si2 0.805479 0.730779 0.264148
Si Si3 0.614419 0.400447 0.116571
Si Si4 0.067606 0.576760 0.659472
O O1 0.376287 0.775632 0.914689
O O2 0.364499 0.091010 0.890320
O O3 0.094809 0.992558 0.920683
O O4 0.500000 0.000000 0.000000
O O5 0.856945 0.856430 0.318570
O O6 0.600758 0.765676 0.201494
O O7 0.000000 0.723898 0.250000
O O8 0.787373 0.555814 0.291508
O O9 0.830400 0.489690 0.129107
#
# Coordination Sequence:
#
# PCOD9302990 Si02
#       4
#     8   8   8   8
#     4  11  26  47  70 104 144 191 249 307 366 449
#     4  11  22  41  66  99 142 175 236 294 375 440
#     4  11  25  43  73 101 141 190 241 302 378 437
#     4  11  26  42  70 102 142 184 237 299 375 449
#
# _framework density 24.612886
#
# number of rings (size 3 to 8) (size 9 to 14) (size 15 to 20)
#    0.000    1.000    2.500    3.000    7.000    2.000 
#    0.000    0.000    0.000    0.000    0.000    0.000 
#    0.000    0.000    0.000    0.000    0.000    0.000 
#
# Total GULP energy -89597.436396 kJ/mol
# GULP energy per Si atom -5599.839775 kJ/mol
# Density = 2.455687 g / cm^3
# Si number density = 24.612886 Si / 1000 Ang^3
#
#
#
# Elastic Constant Matrix: (Units=GPa)
#
#
# Indices 1 2 3 4 5 6 
#
# 1 144.2389 17.1857 51.3551 0.0000 26.6667 0.0000
# 2 17.1857 68.8927 30.4395 0.0000 8.7819 0.0000
# 3 51.3551 30.4395 113.3801 0.0000 34.7797 0.0000
# 4 0.0000 0.0000 0.0000 20.1168 0.0000 4.9850
# 5 26.6667 8.7819 34.7797 0.0000 30.4666 0.0000
# 6 0.0000 0.0000 0.0000 4.9850 0.0000 34.2687
#
#
#
# Elastic Compliance Matrix: (Units=1/GPa)
#
#
# Indices 1 2 3 4 5 6 
#
# 1 0.008716 -0.000532 -0.002327 0.000000 -0.004819 0.000000
# 2 -0.000532 0.016506 -0.004422 0.000000 0.000756 0.000000
# 3 -0.002327 -0.004422 0.015459 0.000000 -0.014336 0.000000
# 4 0.000000 0.000000 0.000000 0.051569 0.000000 -0.007502
# 5 -0.004819 0.000756 -0.014336 0.000000 0.053188 0.000000
# 6 0.000000 0.000000 0.000000 -0.007502 0.000000 0.030272
#
#
# Mechanical properties :
#
#
# Convention : Reuss Voigt Hill
#
# Bulk Modulus (GPa) = 38.28756 58.27470 48.28113
# Shear Modulus (GPa) = 25.12853 32.13919 28.63386
#
# Velocity S-wave (km/s) = 3.19870 3.61749 3.41452
# Velocity P-wave (km/s) = 5.40665 6.41687 5.93330
#
# Compressibility (1/GPa) = 0.02611814
#
# Stress axis : x y z
#
# Youngs Moduli (GPa) = 114.73590 60.58552 64.68903
#
# Poissons Ratio (x) = 0.03222 0.15050
# Poissons Ratio (y) = 0.06102 0.28608
# Poissons Ratio (z) = 0.26694 0.26793
#
# Static dielectric constant tensor:
#      x y z
#    x 1.971840 0.000000 0.009170 
#    y 0.000000 2.138650 0.000000 
#    z 0.009170 0.000000 1.885070 
# 
# From -- ./inp_files/262368.got.cif
#   From: 2010.05.17/outbox.cif.g08.bks.cpg/sg15_132_cif.got.tgz:262368.got - 2010.06.03 18:47:42.
