data_PCOD9302632
_publ_section_title
;
Structure prediction by ZEFSAII (Michael W. Deem and Ramdas Pophale) SiO2 
 PCOD9302632
Probable space group: C 2/C
;
_chemical_formula_sum "Si O2"
_cell_formula_units_Z 52
_cell_length_a 34.534398
_cell_length_b 17.244708
_cell_length_c 17.642704
_cell_angle_alpha 90.000000
_cell_angle_beta 165.939298
_cell_angle_gamma 90.000000
_cell_volume 2552.638527
_symmetry_space_group_name_H-M "C 2/C"
_symmetry_group_IT_number 15
_symmetry_cell_setting 'monoclinic'
loop_
_space_group_symop_operation_xyz
x,y,z
-x,y,1/2-z
-x,-y,-z
x,-y,1/2+z
1/2+x,1/2+y,z
1/2-x,1/2+y,1/2-z
1/2-x,1/2-y,-z
1/2+x,1/2-y,1/2+z
loop_
_atom_site_type_symbol
_atom_site_label
_atom_site_fract_x
_atom_site_fract_y
_atom_site_fract_z
Si Si1 0.990242 0.220230 0.510625
Si Si2 0.745759 0.550837 0.782542
Si Si3 0.547239 0.194376 0.259129
Si Si4 0.618300 0.798377 0.345816
Si Si5 0.290964 0.364484 0.435543
Si Si6 0.501578 0.430443 0.947250
Si Si7 0.500000 0.084512 0.750000
O O1 0.957096 0.283736 0.380945
O O2 0.063656 0.146376 0.607290
O O3 0.094253 0.247924 0.780395
O O4 0.811294 0.193464 0.199900
O O5 0.675365 0.582337 0.571301
O O6 0.607343 0.540391 0.579084
O O7 0.847123 0.622117 0.012570
O O8 0.851365 0.475384 0.965811
O O9 0.500000 0.234292 0.250000
O O10 0.390854 0.158407 0.922816
O O11 0.607651 0.714584 0.367579
O O12 0.536038 0.861546 0.244374
O O13 0.330409 0.407548 0.587897
O O14 0.500000 0.500000 0.000000
#
# Coordination Sequence:
#
# PCOD9302632 Si02
#       7
#     8   8   8   8   8   8   4
#     4   9  19  40  61  91 121 164 213 257 314 373
#     4  11  22  39  61  90 132 159 206 261 324 370
#     4   9  18  39  66  88 122 165 201 266 318 380
#     4   9  20  35  65  91 123 157 220 257 297 383
#     4   9  19  41  64  85 115 172 210 247 314 378
#     4  11  23  38  60  87 127 166 208 264 315 376
#     4  12  22  38  60 104 126 164 216 266 304 388
#
# _framework density 20.371079000000002
#
# number of rings (size 3 to 8) (size 9 to 14) (size 15 to 20)
#    0.000    2.154    2.308    2.308    4.308    0.615 
#    2.769    7.692    0.000    0.000    0.000    0.000 
#    0.000    0.000    0.000    0.000    0.000    0.000 
#
# Total GULP energy -144811.309652 kJ/mol
# GULP energy per Si atom -5569.665756 kJ/mol
# Density = 2.032471 g / cm^3
# Si number density = 20.371079 Si / 1000 Ang^3
#
#
#
# Elastic Constant Matrix: (Units=GPa)
#
#
# Indices 1 2 3 4 5 6 
#
# 1 128.8849 60.1485 21.2118 0.0000 -23.3530 0.0000
# 2 60.1485 96.1947 26.5855 0.0000 -19.2213 0.0000
# 3 21.2118 26.5855 49.8754 0.0000 -27.7778 0.0000
# 4 0.0000 0.0000 0.0000 13.6998 0.0000 -2.3265
# 5 -23.3530 -19.2213 -27.7778 0.0000 38.5078 0.0000
# 6 0.0000 0.0000 0.0000 -2.3265 0.0000 55.8536
#
#
#
# Elastic Compliance Matrix: (Units=1/GPa)
#
#
# Indices 1 2 3 4 5 6 
#
# 1 0.011455 -0.006580 0.001129 0.000000 0.004477 0.000000
# 2 -0.006580 0.016098 -0.005900 0.000000 -0.000211 0.000000
# 3 0.001129 -0.005900 0.035865 0.000000 0.023611 0.000000
# 4 0.000000 0.000000 0.000000 0.073514 0.000000 0.003062
# 5 0.004477 -0.000211 0.023611 0.000000 0.045610 0.000000
# 6 0.000000 0.000000 0.000000 0.003062 0.000000 0.018031
#
#
# Mechanical properties :
#
#
# Convention : Reuss Voigt Hill
#
# Bulk Modulus (GPa) = 24.56053 54.53850 39.54951
# Shear Modulus (GPa) = 21.11061 32.74619 26.92840
#
# Velocity S-wave (km/s) = 3.22266 4.01369 3.63973
# Velocity P-wave (km/s) = 5.09216 6.95056 6.09263
#
# Compressibility (1/GPa) = 0.04071574
#
# Stress axis : x y z
#
# Youngs Moduli (GPa) = 87.29792 62.11789 27.88263
#
# Poissons Ratio (x) = 0.40874 -0.03148
# Poissons Ratio (y) = 0.57443 0.16451
# Poissons Ratio (z) = -0.09856 0.36650
#
# Static dielectric constant tensor:
#      x y z
#    x 1.843950 0.000000 0.005730 
#    y 0.000000 1.757420 0.000000 
#    z 0.005730 0.000000 1.776520 
# 
# From -- ./inp_files/182917.got.cif
#   From: 2010.05.17/outbox.cif.g08.bks.cpg/sg15_92_cif.got.tgz:182917.got - 2010.06.03 18:47:42.
