data_PCOD9302491
_publ_section_title
;
Structure prediction by ZEFSAII (Michael W. Deem and Ramdas Pophale) SiO2 
 PCOD9302491
Probable space group: C 2/C
;
_chemical_formula_sum "Si O2"
_cell_formula_units_Z 64
_cell_length_a 26.742839
_cell_length_b 9.109054
_cell_length_c 13.747955
_cell_angle_alpha 90.000000
_cell_angle_beta 120.936481
_cell_angle_gamma 90.000000
_cell_volume 2872.588478
_symmetry_space_group_name_H-M "C 2/C"
_symmetry_group_IT_number 15
_symmetry_cell_setting 'monoclinic'
loop_
_space_group_symop_operation_xyz
x,y,z
-x,y,1/2-z
-x,-y,-z
x,-y,1/2+z
1/2+x,1/2+y,z
1/2-x,1/2+y,1/2-z
1/2-x,1/2-y,-z
1/2+x,1/2-y,1/2+z
loop_
_atom_site_type_symbol
_atom_site_label
_atom_site_fract_x
_atom_site_fract_y
_atom_site_fract_z
Si Si1 0.124254 0.739378 0.079917
Si Si2 0.127749 0.553221 0.260555
Si Si3 0.127748 0.946779 0.494939
Si Si4 0.565657 0.903057 0.355071
Si Si5 0.250000 0.419897 0.976528
Si Si6 0.434345 0.596946 0.223762
Si Si7 0.750001 0.176173 0.108668
Si Si8 0.375748 0.260623 0.831414
O O1 0.119716 0.696815 0.188005
O O2 0.190456 0.709601 0.107434
O O3 0.110460 0.907743 0.039432
O O4 0.079801 0.626183 0.980911
O O5 0.094976 0.538729 0.330530
O O6 0.194557 0.539597 0.357111
O O7 0.110459 0.407743 0.181484
O O8 0.194556 0.960400 0.532000
O O9 0.119713 0.803186 0.551421
O O10 0.094975 0.961272 0.359417
O O11 0.500000 0.902666 0.250000
O O12 0.594221 0.750001 0.344219
O O13 0.250000 0.250000 0.000000
O O14 0.250000 0.506015 0.078195
O O15 0.500000 0.597340 0.250000
O O16 0.420202 0.626185 0.321315
O O17 0.809546 0.209598 0.226524
O O18 0.750000 0.250000 0.000000
#
# Coordination Sequence:
#
# PCOD9302491 Si02
#       8
#     8   8   8   8   8   8   8   8
#     4  11  22  37  62  88 125 159 201 251 302 365
#     4  11  23  39  60  93 123 160 200 249 306 361
#     4  11  23  39  60  93 123 160 200 249 306 361
#     4   9  19  39  63  86 118 163 208 253 305 360
#     4  12  25  38  62  89 123 157 197 247 300 362
#     4   9  19  39  63  86 118 163 208 253 305 360
#     4  12  19  40  62  83 119 163 196 238 304 362
#     4  11  22  37  62  88 125 159 201 251 302 365
#
# _framework density 22.279558000000002
#
# number of rings (size 3 to 8) (size 9 to 14) (size 15 to 20)
#    0.000    1.250    5.000    1.500    3.500    1.000 
#    0.000    0.000    0.000    5.250    0.000    0.000 
#    0.000    0.000    0.000    0.000    0.000    0.000 
#
# Total GULP energy -178512.872222 kJ/mol
# GULP energy per Si atom -5578.527257 kJ/mol
# Density = 2.222885 g / cm^3
# Si number density = 22.279558 Si / 1000 Ang^3
#
#
#
# Elastic Constant Matrix: (Units=GPa)
#
#
# Indices 1 2 3 4 5 6 
#
# 1 54.4379 -6.8323 20.5399 0.0000 18.9626 0.0000
# 2 -6.8323 75.3043 4.7772 0.0000 -10.0557 0.0000
# 3 20.5399 4.7772 35.0338 0.0000 -2.1647 0.0000
# 4 0.0000 0.0000 0.0000 15.3489 0.0000 -47.2173
# 5 18.9626 -10.0557 -2.1647 0.0000 24.2943 0.0000
# 6 0.0000 0.0000 0.0000 -47.2173 0.0000 -39.1673
#
#
#
# Elastic Compliance Matrix: (Units=1/GPa)
#
#
# Indices 1 2 3 4 5 6 
#
# 1 0.039333 0.000812 -0.025186 0.000000 -0.032609 0.000000
# 2 0.000812 0.014159 -0.002095 0.000000 0.005040 0.000000
# 3 -0.025186 -0.002095 0.045005 0.000000 0.022802 0.000000
# 4 0.000000 0.000000 0.000000 0.013837 0.000000 -0.016681
# 5 -0.032609 0.005040 0.022802 0.000000 0.070733 0.000000
# 6 0.000000 0.000000 0.000000 -0.016681 0.000000 -0.005422
#
#
# Mechanical properties :
#
#
# Convention : Reuss Voigt Hill
#
# Bulk Modulus (GPa) = 21.95004 22.41619 22.18311
# Shear Modulus (GPa) = 20.34424 9.84793 15.09609
#
# Velocity S-wave (km/s) = 3.02509 2.10470 2.60585
# Velocity P-wave (km/s) = 4.69841 3.99869 4.36260
#
# Compressibility (1/GPa) = 0.04555801
#
# Stress axis : x y z
#
# Youngs Moduli (GPa) = 25.42368 70.62600 22.21980
#
# Poissons Ratio (x) = -0.05735 0.55964
# Poissons Ratio (y) = -0.02064 0.04656
# Poissons Ratio (z) = 0.64033 0.14799
#
# Static dielectric constant tensor:
#      x y z
#    x 1.827790 0.000000 -0.035990 
#    y 0.000000 1.865880 0.000000 
#    z -0.035990 0.000000 1.869350 
# 
# From -- ./inp_files/180835.got.cif
#   From: 2010.05.17/outbox.cif.g08.bks.cpg/sg15_91_cif.got.tgz:180835.got - 2010.06.03 18:47:42.
