data_PCOD9302055
_publ_section_title
;
Structure prediction by ZEFSAII (Michael W. Deem and Ramdas Pophale) SiO2 
 PCOD9302055
Probable space group: C 2/C
;
_chemical_formula_sum "Si O2"
_cell_formula_units_Z 48
_cell_length_a 15.259432
_cell_length_b 8.460858
_cell_length_c 18.802024
_cell_angle_alpha 90.000000
_cell_angle_beta 69.709151
_cell_angle_gamma 90.000000
_cell_volume 2276.850111
_symmetry_space_group_name_H-M "C 2/C"
_symmetry_group_IT_number 15
_symmetry_cell_setting 'monoclinic'
loop_
_space_group_symop_operation_xyz
x,y,z
-x,y,1/2-z
-x,-y,-z
x,-y,1/2+z
1/2+x,1/2+y,z
1/2-x,1/2+y,1/2-z
1/2-x,1/2-y,-z
1/2+x,1/2-y,1/2+z
loop_
_atom_site_type_symbol
_atom_site_label
_atom_site_fract_x
_atom_site_fract_y
_atom_site_fract_z
Si Si1 0.318659 0.585781 0.674207
Si Si2 0.783373 0.388669 0.438205
Si Si3 0.973825 0.682671 0.831341
Si Si4 0.045317 0.119839 0.432172
Si Si5 0.608180 0.935146 0.472695
Si Si6 0.145450 0.447666 0.810878
O O1 0.299598 0.582321 0.593983
O O2 0.401712 0.460497 0.649038
O O3 0.231338 0.520660 0.743014
O O4 0.350469 0.757411 0.693028
O O5 0.750000 0.250000 0.500000
O O6 0.832216 0.519138 0.475032
O O7 0.865609 0.357367 0.358289
O O8 0.974528 0.773493 0.906301
O O9 0.047954 0.536220 0.817236
O O10 0.000000 0.765052 0.750000
O O11 0.103733 0.248254 0.460291
O O12 0.000000 0.000000 0.500000
O O13 0.500000 0.000000 0.500000
O O14 0.657519 0.011078 0.390449
#
# Coordination Sequence:
#
# PCOD9302055 Si02
#       6
#     8   8   8   8   8   8
#     4  12  25  41  67 100 133 173 222 280 334 400
#     4  12  23  39  70 100 129 173 228 276 330 401
#     4  11  23  44  69  94 131 183 225 273 342 407
#     4  11  24  42  66  98 136 179 224 272 340 404
#     4  11  21  41  69  93 129 181 219 270 335 401
#     4  11  22  42  67  93 134 172 220 271 347 398
#
# _framework density 21.081757
#
# number of rings (size 3 to 8) (size 9 to 14) (size 15 to 20)
#    0.000    0.667    6.667    4.000    0.000    0.667 
#    0.000    2.500    0.000    0.000    0.000    0.000 
#    0.000    0.000    0.000    0.000    0.000    0.000 
#
# Total GULP energy -133716.868529 kJ/mol
# GULP energy per Si atom -5571.536189 kJ/mol
# Density = 2.103377 g / cm^3
# Si number density = 21.081757 Si / 1000 Ang^3
#
#
#
# Elastic Constant Matrix: (Units=GPa)
#
#
# Indices 1 2 3 4 5 6 
#
# 1 44.3879 9.9816 9.5455 0.0000 -6.0558 0.0000
# 2 9.9816 110.2974 21.8420 0.0000 -16.6758 0.0000
# 3 9.5455 21.8420 126.4795 0.0000 -10.7229 0.0000
# 4 0.0000 0.0000 0.0000 39.3027 0.0000 -5.4471
# 5 -6.0558 -16.6758 -10.7229 0.0000 49.1576 0.0000
# 6 0.0000 0.0000 0.0000 -5.4471 0.0000 13.0745
#
#
#
# Elastic Compliance Matrix: (Units=1/GPa)
#
#
# Indices 1 2 3 4 5 6 
#
# 1 0.023444 -0.001545 -0.001327 0.000000 0.002075 0.000000
# 2 -0.001545 0.009909 -0.001351 0.000000 0.002876 0.000000
# 3 -0.001327 -0.001351 0.008341 0.000000 0.001198 0.000000
# 4 0.000000 0.000000 0.000000 0.027003 0.000000 0.011250
# 5 0.002075 0.002876 0.001198 0.000000 0.021835 0.000000
# 6 0.000000 0.000000 0.000000 0.011250 0.000000 0.081171
#
#
# Mechanical properties :
#
#
# Convention : Reuss Voigt Hill
#
# Bulk Modulus (GPa) = 30.07591 40.43369 35.25480
# Shear Modulus (GPa) = 26.14624 36.29335 31.21980
#
# Velocity S-wave (km/s) = 3.52551 4.15366 3.85241
# Velocity P-wave (km/s) = 5.55604 6.49807 6.04543
#
# Compressibility (1/GPa) = 0.03324920
#
# Stress axis : x y z
#
# Youngs Moduli (GPa) = 42.65403 100.92272 119.88473
#
# Poissons Ratio (x) = 0.15595 0.15904
# Poissons Ratio (y) = 0.06591 0.16192
# Poissons Ratio (z) = 0.05659 0.13631
#
# Static dielectric constant tensor:
#      x y z
#    x 1.767330 0.000000 0.014790 
#    y 0.000000 1.826750 0.000000 
#    z 0.014790 0.000000 1.742890 
# 
# From -- ./inp_files/242311.got.cif
#   From: 2010.05.17/outbox.cif.g08.bks.cpg/sg15_122_cif.got.tgz:242311.got - 2010.06.03 18:47:42.
