data_PCOD9302627
_publ_section_title
;
Structure prediction by ZEFSAII (Michael W. Deem and Ramdas Pophale) SiO2 
 PCOD9302627
Probable space group: C 2/C
;
_chemical_formula_sum "Si O2"
_cell_formula_units_Z 64
_cell_length_a 18.235333
_cell_length_b 13.443447
_cell_length_c 25.031243
_cell_angle_alpha 90.000000
_cell_angle_beta 29.252084
_cell_angle_gamma 90.000000
_cell_volume 2998.522433
_symmetry_space_group_name_H-M "C 2/C"
_symmetry_group_IT_number 15
_symmetry_cell_setting 'monoclinic'
loop_
_space_group_symop_operation_xyz
x,y,z
-x,y,1/2-z
-x,-y,-z
x,-y,1/2+z
1/2+x,1/2+y,z
1/2-x,1/2+y,1/2-z
1/2-x,1/2-y,-z
1/2+x,1/2-y,1/2+z
loop_
_atom_site_type_symbol
_atom_site_label
_atom_site_fract_x
_atom_site_fract_y
_atom_site_fract_z
Si Si1 0.739530 0.649051 0.332346
Si Si2 0.283114 0.645204 0.756692
Si Si3 0.380908 0.334818 0.071129
Si Si4 0.018063 0.780845 0.674390
Si Si5 0.220917 0.929442 0.726902
Si Si6 0.172420 0.492992 0.141924
Si Si7 0.567594 0.881923 0.996627
Si Si8 0.184658 0.591903 0.528264
O O1 0.808867 0.756857 0.275654
O O2 0.560091 0.648277 0.457420
O O3 0.754486 0.588766 0.267550
O O4 0.815369 0.593884 0.333178
O O5 0.325814 0.666620 0.667746
O O6 0.351430 0.539238 0.730974
O O7 0.105323 0.628392 0.878758
O O8 0.283512 0.415951 0.101212
O O9 0.367500 0.231185 0.047490
O O10 0.053807 0.671306 0.628267
O O11 0.165287 0.844559 0.569225
O O12 0.000000 0.776224 0.750000
O O13 0.886663 0.842607 0.728015
O O14 0.375965 0.924364 0.595330
O O15 0.209945 0.492629 0.055692
O O16 0.000000 0.460642 0.250000
O O17 0.646100 0.942769 0.993722
#
# Coordination Sequence:
#
# PCOD9302627 Si02
#       8
#     8   8   8   8   8   8   8   8
#     4  11  25  44  67 102 133 176 239 281 329 398
#     4  11  24  42  67  96 130 180 227 283 333 392
#     4  11  22  42  71 102 135 176 224 284 338 406
#     4  11  22  39  60  99 138 174 208 269 339 413
#     4  12  23  41  69  95 137 178 226 274 336 404
#     4  12  25  40  67 101 136 174 219 277 343 405
#     4  11  23  40  64 101 138 170 220 280 342 403
#     4  11  23  36  62  96 140 168 211 265 345 405
#
# _framework density 21.343845999999999
#
# number of rings (size 3 to 8) (size 9 to 14) (size 15 to 20)
#    0.000    0.750    3.750    5.625    3.500    0.000 
#    0.000    0.625    0.000    1.500    0.000    0.000 
#    0.000    0.000    0.000    0.000    0.000    0.000 
#
# Total GULP energy -178801.995007 kJ/mol
# GULP energy per Si atom -5587.562344 kJ/mol
# Density = 2.129527 g / cm^3
# Si number density = 21.343846 Si / 1000 Ang^3
#
#
#
# Elastic Constant Matrix: (Units=GPa)
#
#
# Indices 1 2 3 4 5 6 
#
# 1 82.0972 33.3130 36.2921 0.0004 24.2535 0.0000
# 2 33.3130 83.5831 11.4487 -0.0010 17.9125 0.0002
# 3 36.2921 11.4487 113.6998 -0.0034 28.8940 0.0004
# 4 0.0004 -0.0010 -0.0034 14.1393 -0.0010 3.6696
# 5 24.2535 17.9125 28.8940 -0.0010 35.5058 0.0001
# 6 0.0000 0.0002 0.0004 3.6696 0.0001 29.6292
#
#
#
# Elastic Compliance Matrix: (Units=1/GPa)
#
#
# Indices 1 2 3 4 5 6 
#
# 1 0.017796 -0.005176 -0.003446 -0.000002 -0.006740 0.000000
# 2 -0.005176 0.014940 0.001468 0.000001 -0.005196 0.000000
# 3 -0.003446 0.001468 0.011772 0.000003 -0.007966 0.000000
# 4 -0.000002 0.000001 0.000003 0.073074 0.000001 -0.009050
# 5 -0.006740 -0.005196 -0.007966 0.000001 0.041873 0.000000
# 6 0.000000 0.000000 0.000000 -0.009050 0.000000 0.034871
#
#
# Mechanical properties :
#
#
# Convention : Reuss Voigt Hill
#
# Bulk Modulus (GPa) = 33.11375 49.05417 41.08396
# Shear Modulus (GPa) = 22.86247 29.07662 25.96954
#
# Velocity S-wave (km/s) = 3.27639 3.69493 3.49194
# Velocity P-wave (km/s) = 5.46453 6.42153 5.96226
#
# Compressibility (1/GPa) = 0.03019894
#
# Stress axis : x y z
#
# Youngs Moduli (GPa) = 56.19340 66.93621 84.94963
#
# Poissons Ratio (x) = 0.34647 0.29275
# Poissons Ratio (y) = 0.29087 -0.12474
# Poissons Ratio (z) = 0.19365 -0.09829
#
# Static dielectric constant tensor:
#      x y z
#    x 1.764060 0.000000 0.004930 
#    y 0.000000 1.831780 0.000000 
#    z 0.004930 0.000000 1.823240 
# 
# From -- ./inp_files/277631.got.cif
#   From: 2010.05.17/outbox.cif.g08.bks.cpg/sg15_139_cif.got.tgz:277631.got - 2010.06.03 18:47:42.
