data_PCOD9302786
_publ_section_title
;
Structure prediction by ZEFSAII (Michael W. Deem and Ramdas Pophale) SiO2 
 PCOD9302786
Probable space group: C 2/C
;
_chemical_formula_sum "Si O2"
_cell_formula_units_Z 56
_cell_length_a 9.532347
_cell_length_b 26.462413
_cell_length_c 21.698332
_cell_angle_alpha 90.000000
_cell_angle_beta 150.969241
_cell_angle_gamma 90.000000
_cell_volume 2656.117063
_symmetry_space_group_name_H-M "C 2/C"
_symmetry_group_IT_number 15
_symmetry_cell_setting 'monoclinic'
loop_
_space_group_symop_operation_xyz
x,y,z
-x,y,1/2-z
-x,-y,-z
x,-y,1/2+z
1/2+x,1/2+y,z
1/2-x,1/2+y,1/2-z
1/2-x,1/2-y,-z
1/2+x,1/2-y,1/2+z
loop_
_atom_site_type_symbol
_atom_site_label
_atom_site_fract_x
_atom_site_fract_y
_atom_site_fract_z
Si Si1 0.310043 0.144080 0.395085
Si Si2 0.659782 0.024650 0.120033
Si Si3 0.359160 0.319445 0.034167
Si Si4 0.539727 0.755089 0.696815
Si Si5 0.252185 0.873813 0.111060
Si Si6 0.156448 0.489413 0.374519
Si Si7 0.872253 0.193685 0.053732
O O1 0.340610 0.084772 0.392763
O O2 0.577132 0.170964 0.465927
O O3 0.294683 0.161161 0.459443
O O4 0.000000 0.160800 0.250000
O O5 0.000000 0.008876 0.250000
O O6 0.500458 0.011137 0.124110
O O7 0.500000 0.000000 0.000000
O O8 0.581641 0.289001 0.163005
O O9 0.476572 0.371351 0.050771
O O10 0.249452 0.283095 0.937384
O O11 0.500000 0.733875 0.750000
O O12 0.794590 0.796242 0.799518
O O13 0.500000 0.852237 0.250000
O O14 0.353765 0.928346 0.127784
O O15 0.171428 0.837930 0.024483
O O16 0.500000 0.500000 0.500000
O O17 0.000000 0.505681 0.250000
O O18 0.750000 0.250000 0.000000
#
# Coordination Sequence:
#
# PCOD9302786 Si02
#       7
#     8   8   8   8   8   8   8
#     4  11  24  42  66 101 134 176 228 280 338 411
#     4  11  24  45  72 104 140 182 233 300 368 431
#     4  11  23  41  65  92 135 174 225 280 331 399
#     4  11  22  40  62  95 133 180 229 275 336 394
#     4  11  25  44  66  97 131 177 228 281 344 412
#     4  11  24  46  73 104 140 182 235 297 368 437
#     4  12  24  40  65  95 137 180 228 274 335 407
#
# _framework density 21.083409
#
# number of rings (size 3 to 8) (size 9 to 14) (size 15 to 20)
#    0.000    0.857    2.857    4.286    2.000    2.857 
#    2.571    2.143    0.000    0.000    0.000    0.000 
#    0.000    0.000    0.000    0.000    0.000    0.000 
#
# Total GULP energy -156329.347431 kJ/mol
# GULP energy per Si atom -5583.190980 kJ/mol
# Density = 2.103542 g / cm^3
# Si number density = 21.083409 Si / 1000 Ang^3
#
#
#
# Elastic Constant Matrix: (Units=GPa)
#
#
# Indices 1 2 3 4 5 6 
#
# 1 179.5704 61.2069 77.0307 -0.0004 -10.1746 -0.0001
# 2 61.2069 74.5845 30.9666 -0.0018 -9.2611 -0.0002
# 3 77.0307 30.9666 128.7547 0.0054 -14.7454 0.0067
# 4 -0.0004 -0.0018 0.0054 33.0827 -0.0009 0.0345
# 5 -10.1746 -9.2611 -14.7454 -0.0009 36.7705 -0.0003
# 6 -0.0001 -0.0002 0.0067 0.0345 -0.0003 43.7992
#
#
#
# Elastic Compliance Matrix: (Units=1/GPa)
#
#
# Indices 1 2 3 4 5 6 
#
# 1 0.009416 -0.006039 -0.004252 0.000000 -0.000621 0.000001
# 2 -0.006039 0.018977 -0.000624 0.000001 0.002858 0.000000
# 3 -0.004252 -0.000624 0.010804 -0.000002 0.002999 -0.000002
# 4 0.000000 0.000001 -0.000002 0.030227 0.000000 -0.000024
# 5 -0.000621 0.002858 0.002999 0.000000 0.028947 0.000000
# 6 0.000001 0.000000 -0.000002 -0.000024 0.000000 0.022831
#
#
# Mechanical properties :
#
#
# Convention : Reuss Voigt Hill
#
# Bulk Modulus (GPa) = 57.57802 80.14645 68.86224
# Shear Modulus (GPa) = 33.59726 36.97751 35.28738
#
# Velocity S-wave (km/s) = 3.99625 4.19246 4.09553
# Velocity P-wave (km/s) = 6.97583 7.84425 7.42275
#
# Compressibility (1/GPa) = 0.01736774
#
# Stress axis : x y z
#
# Youngs Moduli (GPa) = 106.20175 52.69458 92.55730
#
# Poissons Ratio (x) = 0.31821 0.39356
# Poissons Ratio (y) = 0.64133 0.05775
# Poissons Ratio (z) = 0.45158 0.03288
#
# Static dielectric constant tensor:
#      x y z
#    x 1.796800 0.000000 0.004750 
#    y 0.000000 1.758730 0.000000 
#    z 0.004750 0.000000 1.815190 
# 
# From -- ./inp_files/234948.got.cif
#   From: 2010.05.17/outbox.cif.g08.bks.cpg/sg15_118_cif.got.tgz:234948.got - 2010.06.03 18:47:42.
