data_PCOD9302238
_publ_section_title
;
Structure prediction by ZEFSAII (Michael W. Deem and Ramdas Pophale) SiO2 
 PCOD9302238
Probable space group: C 2/C
;
_chemical_formula_sum "Si O2"
_cell_formula_units_Z 52
_cell_length_a 11.499395
_cell_length_b 13.286320
_cell_length_c 16.661172
_cell_angle_alpha 90.000000
_cell_angle_beta 117.286833
_cell_angle_gamma 90.000000
_cell_volume 2262.306678
_symmetry_space_group_name_H-M "C 2/C"
_symmetry_group_IT_number 15
_symmetry_cell_setting 'monoclinic'
loop_
_space_group_symop_operation_xyz
x,y,z
-x,y,1/2-z
-x,-y,-z
x,-y,1/2+z
1/2+x,1/2+y,z
1/2-x,1/2+y,1/2-z
1/2-x,1/2-y,-z
1/2+x,1/2-y,1/2+z
loop_
_atom_site_type_symbol
_atom_site_label
_atom_site_fract_x
_atom_site_fract_y
_atom_site_fract_z
Si Si1 0.295366 0.917200 0.640145
Si Si2 0.365582 0.027572 0.000595
Si Si3 0.967531 0.119624 0.542370
Si Si4 0.183261 0.189192 0.861495
Si Si5 0.500000 0.351587 0.750000
Si Si6 0.349547 0.478983 0.281205
Si Si7 0.842343 0.842493 0.546222
O O1 0.395449 0.950682 0.603712
O O2 0.160070 0.912824 0.546297
O O3 0.307403 0.801421 0.669583
O O4 0.276044 0.996908 0.704739
O O5 0.305606 0.129065 0.940465
O O6 0.253592 0.938601 0.963708
O O7 0.500000 0.000000 0.000000
O O8 0.917065 0.196541 0.594823
O O9 0.029199 0.035328 0.619636
O O10 0.074733 0.145039 0.509880
O O11 0.150952 0.115167 0.777866
O O12 0.617904 0.422498 0.758006
O O13 0.440179 0.308056 0.649361
O O14 0.750000 0.750000 0.500000
#
# Coordination Sequence:
#
# PCOD9302238 Si02
#       7
#     8   8   8   8   4   8   8
#     4  11  24  43  72 100 138 193 237 303 373 433
#     4  11  24  45  68 102 151 189 240 298 387 446
#     4  11  21  43  72 101 138 181 262 288 364 445
#     4  11  25  43  71 104 138 195 243 305 369 440
#     4  12  22  46  72 106 148 184 258 318 348 442
#     4  12  21  42  73 105 132 184 255 309 353 433
#     4  12  27  43  75 114 149 203 245 312 380 438
#
# _framework density 22.985389999999999
#
# number of rings (size 3 to 8) (size 9 to 14) (size 15 to 20)
#    0.000    0.615    6.154    3.231    4.308    1.231 
#    0.000    2.308    0.000    0.000    0.000    0.000 
#    0.000    0.000    0.000    0.000    0.000    0.000 
#
# Total GULP energy -145054.241608 kJ/mol
# GULP energy per Si atom -5579.009293 kJ/mol
# Density = 2.293307 g / cm^3
# Si number density = 22.985390 Si / 1000 Ang^3
#
#
#
# Elastic Constant Matrix: (Units=GPa)
#
#
# Indices 1 2 3 4 5 6 
#
# 1 145.4127 36.4075 39.2970 0.0000 -39.5298 0.0000
# 2 36.4075 84.6250 42.9897 0.0000 -6.2800 0.0000
# 3 39.2970 42.9897 112.3410 0.0000 -23.3770 0.0000
# 4 0.0000 0.0000 0.0000 27.5184 0.0000 2.4527
# 5 -39.5298 -6.2800 -23.3770 0.0000 33.6544 0.0000
# 6 0.0000 0.0000 0.0000 2.4527 0.0000 24.3381
#
#
#
# Elastic Compliance Matrix: (Units=1/GPa)
#
#
# Indices 1 2 3 4 5 6 
#
# 1 0.011255 -0.004022 0.000230 0.000000 0.012629 0.000000
# 2 -0.004022 0.016159 -0.005999 0.000000 -0.005876 0.000000
# 3 0.000230 -0.005999 0.012789 0.000000 0.008034 0.000000
# 4 0.000000 0.000000 0.000000 0.036669 0.000000 -0.003695
# 5 0.012629 -0.005876 0.008034 0.000000 0.049032 0.000000
# 6 0.000000 0.000000 0.000000 -0.003695 0.000000 0.041460
#
#
# Mechanical properties :
#
#
# Convention : Reuss Voigt Hill
#
# Bulk Modulus (GPa) = 48.49670 64.41857 56.45763
# Shear Modulus (GPa) = 25.79735 32.01449 28.90592
#
# Velocity S-wave (km/s) = 3.35376 3.73610 3.55008
# Velocity P-wave (km/s) = 6.01180 6.83359 6.43582
#
# Compressibility (1/GPa) = 0.02061996
#
# Stress axis : x y z
#
# Youngs Moduli (GPa) = 88.84999 61.88605 78.19483
#
# Poissons Ratio (x) = 0.24889 -0.01799
# Poissons Ratio (y) = 0.35733 0.46912
# Poissons Ratio (z) = -0.02044 0.37128
#
# Static dielectric constant tensor:
#      x y z
#    x 1.917610 0.000000 0.013830 
#    y 0.000000 1.900490 0.000000 
#    z 0.013830 0.000000 1.861310 
# 
# From -- ./inp_files/144332.got.cif
#   From: 2010.05.17/outbox.cif.g08.bks.cpg/sg15_73_cif.got.tgz:144332.got - 2010.06.03 18:47:42.
