data_PCOD9302059
_publ_section_title
;
Structure prediction by ZEFSAII (Michael W. Deem and Ramdas Pophale) SiO2 
 PCOD9302059
Probable space group: C 2/C
;
_chemical_formula_sum "Si O2"
_cell_formula_units_Z 40
_cell_length_a 14.046850
_cell_length_b 10.564936
_cell_length_c 12.474332
_cell_angle_alpha 90.000000
_cell_angle_beta 97.235100
_cell_angle_gamma 90.000000
_cell_volume 1836.501578
_symmetry_space_group_name_H-M "C 2/C"
_symmetry_group_IT_number 15
_symmetry_cell_setting 'monoclinic'
loop_
_space_group_symop_operation_xyz
x,y,z
-x,y,1/2-z
-x,-y,-z
x,-y,1/2+z
1/2+x,1/2+y,z
1/2-x,1/2+y,1/2-z
1/2-x,1/2-y,-z
1/2+x,1/2-y,1/2+z
loop_
_atom_site_type_symbol
_atom_site_label
_atom_site_fract_x
_atom_site_fract_y
_atom_site_fract_z
Si Si1 0.235277 0.271773 0.371645
Si Si2 0.600611 0.353329 0.705958
Si Si3 0.561525 0.639421 0.653209
Si Si4 0.575303 0.021047 0.857823
Si Si5 0.058921 0.304968 0.013939
O O1 0.250000 0.250000 0.500000
O O2 0.179653 0.155909 0.309154
O O3 0.338858 0.286746 0.334356
O O4 0.168657 0.395906 0.341800
O O5 0.500000 0.317155 0.750000
O O6 0.586389 0.491594 0.656053
O O7 0.625087 0.254514 0.615275
O O8 0.500000 0.663676 0.750000
O O9 0.498643 0.688659 0.545945
O O10 0.500000 0.996665 0.750000
O O11 0.600676 0.892857 0.925786
O O12 0.517699 0.109104 0.933591
#
# Coordination Sequence:
#
# PCOD9302059 Si02
#       5
#     8   8   8   8   8
#     4  12  23  44  68  99 130 184 228 272 336 403
#     4  11  22  44  68  96 136 180 221 274 337 402
#     4  11  26  42  66  99 140 176 223 280 332 396
#     4  11  22  40  72  98 130 170 222 279 334 400
#     4  11  21  41  69  98 132 170 219 275 340 393
#
# _framework density 21.780542000000001
#
# number of rings (size 3 to 8) (size 9 to 14) (size 15 to 20)
#    0.000    0.800    6.000    1.200    0.000    6.400 
#    0.000    2.000    0.000    0.000    0.000    0.000 
#    0.000    0.000    0.000    0.000    0.000    0.000 
#
# Total GULP energy -111803.969395 kJ/mol
# GULP energy per Si atom -5590.198470 kJ/mol
# Density = 2.173097 g / cm^3
# Si number density = 21.780542 Si / 1000 Ang^3
#
#
#
# Elastic Constant Matrix: (Units=GPa)
#
#
# Indices 1 2 3 4 5 6 
#
# 1 72.8314 -1.5202 16.2916 0.0000 -3.7325 0.0000
# 2 -1.5202 93.5463 54.6410 0.0000 0.7376 0.0000
# 3 16.2916 54.6410 134.2881 0.0000 17.7079 0.0000
# 4 0.0000 0.0000 0.0000 4.7769 0.0000 -18.5224
# 5 -3.7325 0.7376 17.7079 0.0000 25.3316 0.0000
# 6 0.0000 0.0000 0.0000 -18.5224 0.0000 7.4580
#
#
#
# Elastic Compliance Matrix: (Units=1/GPa)
#
#
# Indices 1 2 3 4 5 6 
#
# 1 0.014713 0.002075 -0.003203 0.000000 0.004346 0.000000
# 2 0.002075 0.014682 -0.006840 0.000000 0.004660 0.000000
# 3 -0.003203 -0.006840 0.011736 0.000000 -0.008477 0.000000
# 4 0.000000 0.000000 0.000000 -0.024257 0.000000 -0.060245
# 5 0.004346 0.004660 -0.008477 0.000000 0.045907 0.000000
# 6 0.000000 0.000000 0.000000 -0.060245 0.000000 -0.015537
#
#
# Mechanical properties :
#
#
# Convention : Reuss Voigt Hill
#
# Bulk Modulus (GPa) = 39.68815 48.83228 44.26021
# Shear Modulus (GPa) = 69.85374 22.93020 46.39197
#
# Velocity S-wave (km/s) = 5.66933 3.24818 4.62017
# Velocity P-wave (km/s) = 7.81770 6.04453 6.98759
#
# Compressibility (1/GPa) = 0.02519644
#
# Stress axis : x y z
#
# Youngs Moduli (GPa) = 67.96822 68.10857 85.20524
#
# Poissons Ratio (x) = -0.14135 0.27287
# Poissons Ratio (y) = -0.14106 0.58285
# Poissons Ratio (z) = 0.21767 0.46590
#
# Static dielectric constant tensor:
#      x y z
#    x 1.771940 0.000000 -0.001650 
#    y 0.000000 1.831540 0.000000 
#    z -0.001650 0.000000 1.806110 
# 
# From -- ./inp_files/94671.got.cif
#   From: 2010.05.17/outbox.cif.g08.bks.cpg/sg15_48_cif.got.tgz:94671.got - 2010.06.03 18:47:42.
