data_PCOD9302451
_publ_section_title
;
Structure prediction by ZEFSAII (Michael W. Deem and Ramdas Pophale) SiO2 
 PCOD9302451
Probable space group: C 2/C
;
_chemical_formula_sum "Si O2"
_cell_formula_units_Z 48
_cell_length_a 5.321063
_cell_length_b 24.062945
_cell_length_c 19.917319
_cell_angle_alpha 90.000000
_cell_angle_beta 117.224599
_cell_angle_gamma 90.000000
_cell_volume 2267.708887
_symmetry_space_group_name_H-M "C 2/C"
_symmetry_group_IT_number 15
_symmetry_cell_setting 'monoclinic'
loop_
_space_group_symop_operation_xyz
x,y,z
-x,y,1/2-z
-x,-y,-z
x,-y,1/2+z
1/2+x,1/2+y,z
1/2-x,1/2+y,1/2-z
1/2-x,1/2-y,-z
1/2+x,1/2-y,1/2+z
loop_
_atom_site_type_symbol
_atom_site_label
_atom_site_fract_x
_atom_site_fract_y
_atom_site_fract_z
Si Si1 0.401281 0.382475 0.660908
Si Si2 0.057240 0.861375 0.460941
Si Si3 0.658315 0.599706 0.702735
Si Si4 0.167969 0.690829 0.021901
Si Si5 0.592669 0.036194 0.448011
Si Si6 0.739034 0.514786 0.168311
O O1 0.500000 0.374501 0.750000
O O2 0.326545 0.326919 0.610552
O O3 0.631849 0.422096 0.654207
O O4 0.137337 0.424048 0.616768
O O5 0.333988 0.820541 0.493185
O O6 0.182124 0.920525 0.497007
O O7 0.932084 0.864026 0.371486
O O8 0.808524 0.849039 0.483250
O O9 0.500000 0.618760 0.750000
O O10 0.556621 0.535700 0.676321
O O11 0.000000 0.599956 0.750000
O O12 0.250000 0.750000 0.000000
O O13 0.695273 0.998234 0.399608
O O14 0.500000 0.000000 0.500000
O O15 0.000000 0.516586 0.250000
#
# Coordination Sequence:
#
# PCOD9302451 Si02
#       6
#     8   8   8   8   8   8
#     4  11  22  40  63  93 131 172 222 275 338 398
#     4  11  24  44  68  94 132 175 220 277 341 402
#     4  11  25  40  62  94 136 183 220 261 318 401
#     4  11  25  46  71  98 127 168 226 298 350 398
#     4  11  24  36  62  98 137 176 220 265 324 408
#     4  11  22  36  61  93 139 178 220 264 326 392
#
# _framework density 21.166739
#
# number of rings (size 3 to 8) (size 9 to 14) (size 15 to 20)
#    0.000    1.000    3.333    3.000   11.667    1.333 
#    0.000    2.500    0.000    2.000    0.000    0.000 
#    0.000    0.000    0.000    0.000    0.000    0.000 
#
# Total GULP energy -133923.377300 kJ/mol
# GULP energy per Si atom -5580.140721 kJ/mol
# Density = 2.111856 g / cm^3
# Si number density = 21.166739 Si / 1000 Ang^3
#
#
#
# Elastic Constant Matrix: (Units=GPa)
#
#
# Indices 1 2 3 4 5 6 
#
# 1 68.6355 -2.7055 40.0084 0.0000 -6.3028 0.0000
# 2 -2.7055 50.6765 28.2961 0.0000 10.3242 0.0000
# 3 40.0084 28.2961 182.8323 0.0000 -12.2689 0.0000
# 4 0.0000 0.0000 0.0000 28.9785 0.0000 -12.2889
# 5 -6.3028 10.3242 -12.2689 0.0000 42.2989 0.0000
# 6 0.0000 0.0000 0.0000 -12.2889 0.0000 3.7461
#
#
#
# Elastic Compliance Matrix: (Units=1/GPa)
#
#
# Indices 1 2 3 4 5 6 
#
# 1 0.017203 0.003155 -0.004215 0.000000 0.000571 0.000000
# 2 0.003155 0.024001 -0.004861 0.000000 -0.006798 0.000000
# 3 -0.004215 -0.004861 0.007324 0.000000 0.002683 0.000000
# 4 0.000000 0.000000 0.000000 -0.088220 0.000000 -0.289406
# 5 0.000571 -0.006798 0.002683 0.000000 0.026164 0.000000
# 6 0.000000 0.000000 0.000000 -0.289406 0.000000 -0.682447
#
#
# Mechanical properties :
#
#
# Convention : Reuss Voigt Hill
#
# Bulk Modulus (GPa) = 27.25723 48.14915 37.70319
# Shear Modulus (GPa) = -7.44152 30.77438 11.66643
#
# Velocity S-wave (km/s) = -1.87704 3.81714 2.35024
# Velocity P-wave (km/s) = 2.86489 6.49803 5.02155
#
# Compressibility (1/GPa) = 0.03668752
#
# Stress axis : x y z
#
# Youngs Moduli (GPa) = 58.12859 41.66550 136.53513
#
# Poissons Ratio (x) = -0.13147 0.57544
# Poissons Ratio (y) = -0.18342 0.66372
# Poissons Ratio (z) = 0.24499 0.20254
#
# Static dielectric constant tensor:
#      x y z
#    x 1.878360 0.000000 -0.000900 
#    y 0.000000 1.783520 0.000000 
#    z -0.000900 0.000000 1.766480 
# 
# From -- ./inp_files/185230.got.cif
#   From: 2010.05.17/outbox.cif.g08.bks.cpg/sg15_93_cif.got.tgz:185230.got - 2010.06.03 18:47:42.
