data_PCOD9302580
_publ_section_title
;
Structure prediction by ZEFSAII (Michael W. Deem and Ramdas Pophale) SiO2 
 PCOD9302580
Probable space group: C 2/C
;
_chemical_formula_sum "Si O2"
_cell_formula_units_Z 56
_cell_length_a 18.661541
_cell_length_b 7.768575
_cell_length_c 25.334223
_cell_angle_alpha 90.000000
_cell_angle_beta 47.319054
_cell_angle_gamma 90.000000
_cell_volume 2700.017359
_symmetry_space_group_name_H-M "C 2/C"
_symmetry_group_IT_number 15
_symmetry_cell_setting 'monoclinic'
loop_
_space_group_symop_operation_xyz
x,y,z
-x,y,1/2-z
-x,-y,-z
x,-y,1/2+z
1/2+x,1/2+y,z
1/2-x,1/2+y,1/2-z
1/2-x,1/2-y,-z
1/2+x,1/2-y,1/2+z
loop_
_atom_site_type_symbol
_atom_site_label
_atom_site_fract_x
_atom_site_fract_y
_atom_site_fract_z
Si Si1 0.964532 0.845172 0.181811
Si Si2 0.138303 0.029029 0.950738
Si Si3 0.148966 0.078690 0.657657
Si Si4 0.314705 0.212860 0.913665
Si Si5 0.954950 0.860668 0.597886
Si Si6 0.677462 0.205268 0.987726
Si Si7 0.013348 0.481460 0.116969
O O1 0.887081 0.896784 0.265246
O O2 0.068201 0.834970 0.160279
O O3 0.954066 0.651413 0.164371
O O4 0.966346 0.002389 0.139650
O O5 0.122468 0.876658 0.000438
O O6 0.125007 0.947212 0.900144
O O7 0.242497 0.106897 0.912186
O O8 0.050022 0.153471 0.011611
O O9 0.253066 0.161039 0.595323
O O10 0.158345 0.886963 0.629901
O O11 0.414997 0.113176 0.876487
O O12 0.250000 0.250000 0.000000
O O13 0.947194 0.668874 0.625239
O O14 0.750000 0.250000 0.000000
O O15 0.598570 0.059225 0.037073
#
# Coordination Sequence:
#
# PCOD9302580 Si02
#       7
#     8   8   8   8   8   8   8
#     4  11  23  43  60  94 137 171 213 285 333 399
#     4  11  22  38  65  97 132 164 224 275 334 388
#     4  11  22  39  65  96 132 167 224 279 339 384
#     4  12  19  38  69 101 126 170 225 285 331 401
#     4  11  23  42  60  95 136 172 209 279 334 411
#     4  12  19  37  65  95 123 165 219 283 316 387
#     4  12  22  39  72  91 131 175 220 268 344 388
#
# _framework density 20.740607000000001
#
# number of rings (size 3 to 8) (size 9 to 14) (size 15 to 20)
#    0.000    0.571    8.571    0.000    0.000    0.571 
#   10.286    1.429    0.000    0.000    0.000    0.000 
#    0.000    0.000    0.000    0.000    0.000    0.000 
#
# Total GULP energy -156202.723000 kJ/mol
# GULP energy per Si atom -5578.668679 kJ/mol
# Density = 2.069340 g / cm^3
# Si number density = 20.740607 Si / 1000 Ang^3
#
#
#
# Elastic Constant Matrix: (Units=GPa)
#
#
# Indices 1 2 3 4 5 6 
#
# 1 59.3361 17.7841 15.8786 0.0002 19.1577 0.0013
# 2 17.7841 144.6816 46.4660 -0.0002 16.5857 0.0031
# 3 15.8786 46.4660 116.4218 0.0000 14.6055 0.0000
# 4 0.0002 -0.0002 0.0000 22.9570 -0.0001 5.9703
# 5 19.1577 16.5857 14.6055 -0.0001 15.7651 0.0000
# 6 0.0013 0.0031 0.0000 5.9703 0.0000 31.0428
#
#
#
# Elastic Compliance Matrix: (Units=1/GPa)
#
#
# Indices 1 2 3 4 5 6 
#
# 1 0.027782 0.000426 0.000376 0.000000 -0.034558 -0.000001
# 2 0.000426 0.008493 -0.002559 0.000000 -0.007081 -0.000001
# 3 0.000376 -0.002559 0.010500 0.000000 -0.007492 0.000000
# 4 0.000000 0.000000 0.000000 0.045853 0.000000 -0.008819
# 5 -0.034558 -0.007081 -0.007492 0.000000 0.119816 0.000002
# 6 -0.000001 -0.000001 0.000000 -0.008819 0.000002 0.033910
#
#
# Mechanical properties :
#
#
# Convention : Reuss Voigt Hill
#
# Bulk Modulus (GPa) = 23.11597 53.41076 38.26336
# Shear Modulus (GPa) = 18.91866 29.97369 24.44618
#
# Velocity S-wave (km/s) = 3.02347 3.80566 3.43689
# Velocity P-wave (km/s) = 4.83301 6.71703 5.85134
#
# Compressibility (1/GPa) = 0.04326014
#
# Stress axis : x y z
#
# Youngs Moduli (GPa) = 35.99404 117.74159 95.24224
#
# Poissons Ratio (x) = -0.05013 -0.03584
# Poissons Ratio (y) = -0.01532 0.24377
# Poissons Ratio (z) = -0.01354 0.30135
#
# Static dielectric constant tensor:
#      x y z
#    x 1.759940 0.000000 0.007650 
#    y 0.000000 1.799840 0.000000 
#    z 0.007650 0.000000 1.758330 
# 
# From -- ./inp_files/298105.got.cif
#   From: 2010.05.17/outbox.cif.g08.bks.cpg/sg15_150_cif.got.tgz:298105.got - 2010.06.03 18:47:42.
