data_PCOD9302529
_publ_section_title
;
Structure prediction by ZEFSAII (Michael W. Deem and Ramdas Pophale) SiO2 
 PCOD9302529
Probable space group: C 2/C
;
_chemical_formula_sum "Si O2"
_cell_formula_units_Z 56
_cell_length_a 5.156165
_cell_length_b 29.773140
_cell_length_c 20.742022
_cell_angle_alpha 90.000000
_cell_angle_beta 75.450617
_cell_angle_gamma 90.000000
_cell_volume 3082.103020
_symmetry_space_group_name_H-M "C 2/C"
_symmetry_group_IT_number 15
_symmetry_cell_setting 'monoclinic'
loop_
_space_group_symop_operation_xyz
x,y,z
-x,y,1/2-z
-x,-y,-z
x,-y,1/2+z
1/2+x,1/2+y,z
1/2-x,1/2+y,1/2-z
1/2-x,1/2-y,-z
1/2+x,1/2-y,1/2+z
loop_
_atom_site_type_symbol
_atom_site_label
_atom_site_fract_x
_atom_site_fract_y
_atom_site_fract_z
Si Si1 0.938215 0.734654 0.896057
Si Si2 0.914189 0.895507 0.358091
Si Si3 0.552155 0.954082 0.174729
Si Si4 0.260363 0.824414 0.529165
Si Si5 0.267100 0.616390 0.017210
Si Si6 0.794705 0.514407 0.456653
Si Si7 0.990400 0.792052 0.176943
O O1 0.846443 0.784734 0.918966
O O2 0.788022 0.718995 0.840666
O O3 0.258111 0.731084 0.874100
O O4 0.835687 0.700638 0.957726
O O5 0.701294 0.924559 0.331669
O O6 0.814150 0.891998 0.438049
O O7 0.951040 0.845177 0.330465
O O8 0.195775 0.920724 0.338379
O O9 0.500000 0.972510 0.250000
O O10 0.621708 0.989928 0.114720
O O11 0.521740 0.849296 0.539160
O O12 0.032669 0.860911 0.528887
O O13 0.205592 0.568020 0.050942
O O14 0.500000 0.500000 0.500000
O O15 0.000000 0.500000 0.500000
O O16 0.000000 0.777430 0.250000
#
# Coordination Sequence:
#
# PCOD9302529 Si02
#       7
#     8   8   8   8   8   8   8
#     4  11  22  38  58  84 116 154 196 232 293 351
#     4  12  22  38  59  90 124 157 188 235 305 362
#     4  12  24  40  58  85 124 164 199 238 293 369
#     4  11  22  38  61  85 114 152 191 251 292 335
#     4  12  21  38  61  87 123 148 195 250 299 343
#     4  12  23  38  61  89 119 157 199 247 299 347
#     4  12  23  36  56  86 122 156 189 235 291 364
#
# _framework density 18.169411
#
# number of rings (size 3 to 8) (size 9 to 14) (size 15 to 20)
#    0.000    0.286    5.714    5.143    0.000    2.286 
#    0.000    0.000    0.000    5.143    0.000    0.000 
#    0.000    0.000    0.000    0.000    0.000    0.000 
#
# Total GULP energy -156633.885044 kJ/mol
# GULP energy per Si atom -5594.067323 kJ/mol
# Density = 1.812806 g / cm^3
# Si number density = 18.169411 Si / 1000 Ang^3
#
#
#
# Elastic Constant Matrix: (Units=GPa)
#
#
# Indices 1 2 3 4 5 6 
#
# 1 92.5451 6.8321 2.6170 0.0000 -11.0233 0.0000
# 2 6.8321 71.8585 29.7526 0.0000 -17.4409 0.0000
# 3 2.6170 29.7526 76.8015 0.0000 1.2254 0.0000
# 4 0.0000 0.0000 0.0000 -3.0019 0.0000 1.3177
# 5 -11.0233 -17.4409 1.2254 0.0000 18.4321 0.0000
# 6 0.0000 0.0000 0.0000 1.3177 0.0000 31.5246
#
#
#
# Elastic Compliance Matrix: (Units=1/GPa)
#
#
# Indices 1 2 3 4 5 6 
#
# 1 0.011732 0.001353 -0.001058 0.000000 0.008367 0.000000
# 2 0.001353 0.023466 -0.009514 0.000000 0.023646 0.000000
# 3 -0.001058 -0.009514 0.016914 0.000000 -0.010759 0.000000
# 4 0.000000 0.000000 0.000000 -0.327125 0.000000 0.013673
# 5 0.008367 0.023646 -0.010759 0.000000 0.082347 0.000000
# 6 0.000000 0.000000 0.000000 0.013673 0.000000 0.031150
#
#
# Mechanical properties :
#
#
# Convention : Reuss Voigt Hill
#
# Bulk Modulus (GPa) = 29.69523 35.51207 32.60365
# Shear Modulus (GPa) = -37.92061 22.85786 -7.53137
#
# Velocity S-wave (km/s) = -4.57339 3.55074 -2.03816
# Velocity P-wave (km/s) = 3.39247 6.03305 3.52767
#
# Compressibility (1/GPa) = 0.03367544
#
# Stress axis : x y z
#
# Youngs Moduli (GPa) = 85.23559 42.61505 59.12268
#
# Poissons Ratio (x) = -0.05767 0.06252
# Poissons Ratio (y) = -0.11534 0.56249
# Poissons Ratio (z) = 0.09014 0.40544
#
# Static dielectric constant tensor:
#      x y z
#    x 1.612570 0.000000 -0.011220 
#    y 0.000000 1.687890 0.000000 
#    z -0.011220 0.000000 1.643060 
# 
# From -- ./inp_files/186489.got.cif
#   From: 2010.05.17/outbox.cif.g08.bks.cpg/sg15_94_cif.got.tgz:186489.got - 2010.06.03 18:47:42.
