data_PCOD9302223
_publ_section_title
;
Structure prediction by ZEFSAII (Michael W. Deem and Ramdas Pophale) SiO2 
 PCOD9302223
Probable space group: C 2/C
;
_chemical_formula_sum "Si O2"
_cell_formula_units_Z 44
_cell_length_a 16.000946
_cell_length_b 9.761591
_cell_length_c 19.222936
_cell_angle_alpha 90.000000
_cell_angle_beta 132.595245
_cell_angle_gamma 90.000000
_cell_volume 2210.315279
_symmetry_space_group_name_H-M "C 2/C"
_symmetry_group_IT_number 15
_symmetry_cell_setting 'monoclinic'
loop_
_space_group_symop_operation_xyz
x,y,z
-x,y,1/2-z
-x,-y,-z
x,-y,1/2+z
1/2+x,1/2+y,z
1/2-x,1/2+y,1/2-z
1/2-x,1/2-y,-z
1/2+x,1/2-y,1/2+z
loop_
_atom_site_type_symbol
_atom_site_label
_atom_site_fract_x
_atom_site_fract_y
_atom_site_fract_z
Si Si1 0.993236 0.418899 0.922441
Si Si2 0.358810 0.343133 0.549840
Si Si3 0.500000 0.230931 0.750000
Si Si4 0.572734 0.366337 0.059993
Si Si5 0.679573 0.018972 0.787157
Si Si6 0.288568 0.103726 0.049367
O O1 0.382554 0.034630 0.316511
O O2 0.102153 0.444324 0.933999
O O3 0.000000 0.500000 0.000000
O O4 0.983686 0.254219 0.927616
O O5 0.250000 0.250000 0.500000
O O6 0.448533 0.321427 0.660212
O O7 0.407645 0.298037 0.503851
O O8 0.313030 0.496639 0.519369
O O9 0.599671 0.136287 0.775332
O O10 0.695317 0.419214 0.155732
O O11 0.500000 0.500000 0.000000
O O12 0.687032 0.906997 0.853953
O O13 0.250000 0.250000 0.000000
#
# Coordination Sequence:
#
# PCOD9302223 Si02
#       6
#     8   8   4   8   8   8
#     4  12  24  41  68 100 129 173 218 271 334 386
#     4  11  21  43  70  93 121 179 223 260 314 394
#     4  12  20  40  74  94 122 170 238 262 304 390
#     4  11  25  44  64  96 140 165 211 279 333 381
#     4  11  23  43  69  94 132 179 218 273 326 391
#     4  11  23  44  66  93 137 173 217 268 329 395
#
# _framework density 19.906662000000001
#
# number of rings (size 3 to 8) (size 9 to 14) (size 15 to 20)
#    0.000    0.727    5.455    4.364    0.000    4.364 
#    6.545    0.000    0.000    0.000    0.000    0.000 
#    0.000    0.000    0.000    0.000    0.000    0.000 
#
# Total GULP energy -122912.462065 kJ/mol
# GULP energy per Si atom -5586.930094 kJ/mol
# Density = 1.986135 g / cm^3
# Si number density = 19.906662 Si / 1000 Ang^3
#
#
#
# Elastic Constant Matrix: (Units=GPa)
#
#
# Indices 1 2 3 4 5 6 
#
# 1 55.4795 5.3874 14.3743 0.0000 0.1899 0.0000
# 2 5.3874 87.7618 39.8610 0.0000 -5.6909 0.0000
# 3 14.3743 39.8610 155.1392 0.0000 -16.2387 0.0000
# 4 0.0000 0.0000 0.0000 19.4103 0.0000 6.1825
# 5 0.1899 -5.6909 -16.2387 0.0000 39.5062 0.0000
# 6 0.0000 0.0000 0.0000 6.1825 0.0000 32.8262
#
#
#
# Elastic Compliance Matrix: (Units=1/GPa)
#
#
# Indices 1 2 3 4 5 6 
#
# 1 0.018508 -0.000421 -0.001695 0.000000 -0.000846 0.000000
# 2 -0.000421 0.012920 -0.003224 0.000000 0.000538 0.000000
# 3 -0.001695 -0.003224 0.007716 0.000000 0.002715 0.000000
# 4 0.000000 0.000000 0.000000 0.054807 0.000000 -0.010322
# 5 -0.000846 0.000538 0.002715 0.000000 0.026510 0.000000
# 6 0.000000 0.000000 0.000000 -0.010322 0.000000 0.032408
#
#
# Mechanical properties :
#
#
# Convention : Reuss Voigt Hill
#
# Bulk Modulus (GPa) = 35.13477 46.40287 40.76882
# Shear Modulus (GPa) = 28.89579 34.26572 31.58075
#
# Velocity S-wave (km/s) = 3.81407 4.15338 3.98734
# Velocity P-wave (km/s) = 6.08969 6.80893 6.45933
#
# Compressibility (1/GPa) = 0.02846183
#
# Stress axis : x y z
#
# Youngs Moduli (GPa) = 54.03159 77.40159 129.60905
#
# Poissons Ratio (x) = 0.03259 0.21972
# Poissons Ratio (y) = 0.02275 0.41789
# Poissons Ratio (z) = 0.09160 0.24956
#
# Static dielectric constant tensor:
#      x y z
#    x 1.738440 0.000000 0.006650 
#    y 0.000000 1.738750 0.000000 
#    z 0.006650 0.000000 1.687850 
# 
# From -- ./inp_files/276669.got.cif
#   From: 2010.05.17/outbox.cif.g08.bks.cpg/sg15_139_cif.got.tgz:276669.got - 2010.06.03 18:47:42.
