data_PCOD9302455
_publ_section_title
;
Structure prediction by ZEFSAII (Michael W. Deem and Ramdas Pophale) SiO2 
 PCOD9302455
Probable space group: C 2/C
;
_chemical_formula_sum "Si O2"
_cell_formula_units_Z 48
_cell_length_a 5.282649
_cell_length_b 23.358323
_cell_length_c 18.543566
_cell_angle_alpha 90.000000
_cell_angle_beta 104.804101
_cell_angle_gamma 90.000000
_cell_volume 2212.206190
_symmetry_space_group_name_H-M "C 2/C"
_symmetry_group_IT_number 15
_symmetry_cell_setting 'monoclinic'
loop_
_space_group_symop_operation_xyz
x,y,z
-x,y,1/2-z
-x,-y,-z
x,-y,1/2+z
1/2+x,1/2+y,z
1/2-x,1/2+y,1/2-z
1/2-x,1/2-y,-z
1/2+x,1/2-y,1/2+z
loop_
_atom_site_type_symbol
_atom_site_label
_atom_site_fract_x
_atom_site_fract_y
_atom_site_fract_z
Si Si1 0.609346 0.437784 0.029591
Si Si2 0.790266 0.067504 0.792722
Si Si3 0.575679 0.130661 0.478655
Si Si4 0.917210 0.306913 0.662719
Si Si5 0.000649 0.266373 0.435272
Si Si6 0.771012 0.302176 0.186132
O O1 0.664316 0.442667 0.119407
O O2 0.500000 0.500000 0.000000
O O3 0.353582 0.399813 0.997480
O O4 0.856630 0.408860 0.003934
O O5 0.500000 0.048343 0.750000
O O6 0.797443 0.136808 0.787277
O O7 0.000000 0.044685 0.750000
O O8 0.487441 0.149017 0.391511
O O9 0.650893 0.191252 0.522770
O O10 0.624893 0.287900 0.615230
O O11 0.000000 0.325121 0.750000
O O12 0.045623 0.243882 0.664839
O O13 0.250000 0.250000 0.500000
O O14 0.102534 0.309930 0.381954
O O15 0.000000 0.274780 0.250000
#
# Coordination Sequence:
#
# PCOD9302455 Si02
#       6
#     8   8   8   8   8   8
#     4  12  27  50  74  98 129 177 236 296 351 396
#     4  11  24  42  69 103 135 173 221 285 344 400
#     4  12  26  45  70 101 138 178 229 286 340 401
#     4  12  25  40  64  99 146 189 223 259 328 421
#     4  12  23  40  63 102 143 187 221 268 325 417
#     4  11  22  36  63  97 144 179 221 263 334 402
#
# _framework density 21.697797000000001
#
# number of rings (size 3 to 8) (size 9 to 14) (size 15 to 20)
#    0.000    0.333    5.000    4.500    4.667    0.000 
#    0.000    2.500    0.000    0.000    0.000    0.000 
#    0.000    0.000    0.000    0.000    0.000    0.000 
#
# Total GULP energy -133873.681501 kJ/mol
# GULP energy per Si atom -5578.070063 kJ/mol
# Density = 2.164841 g / cm^3
# Si number density = 21.697797 Si / 1000 Ang^3
#
#
#
# Elastic Constant Matrix: (Units=GPa)
#
#
# Indices 1 2 3 4 5 6 
#
# 1 112.5658 30.1656 67.5641 0.0000 5.3285 0.0000
# 2 30.1656 57.0669 28.7239 0.0000 7.1398 0.0000
# 3 67.5641 28.7239 185.2879 0.0000 -4.3259 0.0000
# 4 0.0000 0.0000 0.0000 12.1672 0.0000 1.8819
# 5 5.3285 7.1398 -4.3259 0.0000 38.4779 0.0000
# 6 0.0000 0.0000 0.0000 1.8819 0.0000 25.1770
#
#
#
# Elastic Compliance Matrix: (Units=1/GPa)
#
#
# Indices 1 2 3 4 5 6 
#
# 1 0.012479 -0.004472 -0.003888 0.000000 -0.001335 0.000000
# 2 -0.004472 0.021201 -0.001738 0.000000 -0.003510 0.000000
# 3 -0.003888 -0.001738 0.007123 0.000000 0.001662 0.000000
# 4 0.000000 0.000000 0.000000 0.083149 0.000000 -0.006215
# 5 -0.001335 -0.003510 0.001662 0.000000 0.027012 0.000000
# 6 0.000000 0.000000 0.000000 -0.006215 0.000000 0.040183
#
#
# Mechanical properties :
#
#
# Convention : Reuss Voigt Hill
#
# Bulk Modulus (GPa) = 48.52820 67.53642 58.03231
# Shear Modulus (GPa) = 22.91329 30.39556 26.65443
#
# Velocity S-wave (km/s) = 3.25317 3.74687 3.50871
# Velocity P-wave (km/s) = 6.04358 7.06486 6.57408
#
# Compressibility (1/GPa) = 0.02060657
#
# Stress axis : x y z
#
# Youngs Moduli (GPa) = 80.13294 47.16713 140.38889
#
# Poissons Ratio (x) = 0.21095 0.54588
# Poissons Ratio (y) = 0.35838 0.24397
# Poissons Ratio (z) = 0.31159 0.08197
#
# Static dielectric constant tensor:
#      x y z
#    x 1.982210 0.000000 -0.011930 
#    y 0.000000 1.789960 0.000000 
#    z -0.011930 0.000000 1.854650 
# 
# From -- ./inp_files/185532.got.cif
#   From: 2010.05.17/outbox.cif.g08.bks.cpg/sg15_93_cif.got.tgz:185532.got - 2010.06.03 18:47:42.
