data_PCOD9302518
_publ_section_title
;
Structure prediction by ZEFSAII (Michael W. Deem and Ramdas Pophale) SiO2 
 PCOD9302518
Probable space group: C 2/C
;
_chemical_formula_sum "Si O2"
_cell_formula_units_Z 40
_cell_length_a 19.610123
_cell_length_b 7.705400
_cell_length_c 10.746321
_cell_angle_alpha 90.000000
_cell_angle_beta 61.123994
_cell_angle_gamma 90.000000
_cell_volume 1421.916905
_symmetry_space_group_name_H-M "C 2/C"
_symmetry_group_IT_number 15
_symmetry_cell_setting 'monoclinic'
loop_
_space_group_symop_operation_xyz
x,y,z
-x,y,1/2-z
-x,-y,-z
x,-y,1/2+z
1/2+x,1/2+y,z
1/2-x,1/2+y,1/2-z
1/2-x,1/2-y,-z
1/2+x,1/2-y,1/2+z
loop_
_atom_site_type_symbol
_atom_site_label
_atom_site_fract_x
_atom_site_fract_y
_atom_site_fract_z
Si Si1 0.808169 0.908065 0.297724
Si Si2 0.908951 0.335664 0.849843
Si Si3 0.718222 0.595415 0.946077
Si Si4 0.558174 0.780588 0.097825
Si Si5 0.433600 0.648423 0.069701
O O1 0.859503 0.735835 0.277038
O O2 0.768656 0.943678 0.465523
O O3 0.868338 0.068541 0.218829
O O4 0.754755 0.910699 0.221283
O O5 0.907316 0.540550 0.879699
O O6 0.000000 0.294109 0.750000
O O7 0.889498 0.220096 0.987962
O O8 0.627703 0.651213 0.005043
O O9 0.750000 0.750000 0.000000
O O10 0.500000 0.694547 0.250000
O O11 0.490775 0.808599 0.055600
O O12 0.500000 0.500000 0.000000
#
# Coordination Sequence:
#
# PCOD9302518 Si02
#       5
#     8   8   8   8   8
#     4  12  24  46  74 102 143 200 239 298 364 445
#     4  11  22  37  66 109 147 185 234 301 369 430
#     4  12  28  50  72 104 145 195 249 297 365 440
#     4  11  23  40  69 110 147 183 236 311 363 425
#     4  12  20  37  71 103 143 180 242 289 362 424
#
# _framework density 28.131039999999999
#
# number of rings (size 3 to 8) (size 9 to 14) (size 15 to 20)
#    0.000    0.400    8.000    0.600    0.000    3.200 
#    3.600    2.000    0.000    0.000    0.000    0.000 
#    0.000    0.000    0.000    0.000    0.000    0.000 
#
# Total GULP energy -111827.071822 kJ/mol
# GULP energy per Si atom -5591.353591 kJ/mol
# Density = 2.806701 g / cm^3
# Si number density = 28.131040 Si / 1000 Ang^3
#
#
#
# Elastic Constant Matrix: (Units=GPa)
#
#
# Indices 1 2 3 4 5 6 
#
# 1 114.9557 26.0269 43.3088 0.0000 39.8896 0.0000
# 2 26.0269 124.5439 28.2425 0.0000 9.5032 0.0000
# 3 43.3088 28.2425 118.1520 0.0000 32.6345 0.0000
# 4 0.0000 0.0000 0.0000 38.2435 0.0000 2.9988
# 5 39.8896 9.5032 32.6345 0.0000 64.4791 0.0000
# 6 0.0000 0.0000 0.0000 2.9988 0.0000 57.1970
#
#
#
# Elastic Compliance Matrix: (Units=1/GPa)
#
#
# Indices 1 2 3 4 5 6 
#
# 1 0.012026 -0.001513 -0.002387 0.000000 -0.006009 0.000000
# 2 -0.001513 0.008684 -0.001658 0.000000 0.000495 0.000000
# 3 -0.002387 -0.001658 0.010764 0.000000 -0.003727 0.000000
# 4 0.000000 0.000000 0.000000 0.026256 0.000000 -0.001377
# 5 -0.006009 0.000495 -0.003727 0.000000 0.021040 0.000000
# 6 0.000000 0.000000 0.000000 -0.001377 0.000000 0.017556
#
#
# Mechanical properties :
#
#
# Convention : Reuss Voigt Hill
#
# Bulk Modulus (GPa) = 49.12082 61.42312 55.27197
# Shear Modulus (GPa) = 43.77249 49.32215 46.54732
#
# Velocity S-wave (km/s) = 3.94892 4.19179 4.07216
# Velocity P-wave (km/s) = 6.18800 6.73128 6.46535
#
# Compressibility (1/GPa) = 0.02035796
#
# Stress axis : x y z
#
# Youngs Moduli (GPa) = 83.15435 115.15829 92.89983
#
# Poissons Ratio (x) = 0.17428 0.22172
# Poissons Ratio (y) = 0.12585 0.15401
# Poissons Ratio (z) = 0.19846 0.19091
#
# Static dielectric constant tensor:
#      x y z
#    x 2.357280 0.000000 0.226500 
#    y 0.000000 2.235890 0.000000 
#    z 0.226500 0.000000 2.476280 
# 
# From -- ./inp_files/109567.got.cif
#   From: 2010.05.17/outbox.cif.g08.bks.cpg/sg15_55_cif.got.tgz:109567.got - 2010.06.03 18:47:42.
