data_PCOD9302949
_publ_section_title
;
Structure prediction by ZEFSAII (Michael W. Deem and Ramdas Pophale) SiO2 
 PCOD9302949
Probable space group: C 2/C
;
_chemical_formula_sum "Si O2"
_cell_formula_units_Z 52
_cell_length_a 21.586661
_cell_length_b 13.789342
_cell_length_c 13.008720
_cell_angle_alpha 90.000000
_cell_angle_beta 41.330726
_cell_angle_gamma 90.000000
_cell_volume 2557.252275
_symmetry_space_group_name_H-M "C 2/C"
_symmetry_group_IT_number 15
_symmetry_cell_setting 'monoclinic'
loop_
_space_group_symop_operation_xyz
x,y,z
-x,y,1/2-z
-x,-y,-z
x,-y,1/2+z
1/2+x,1/2+y,z
1/2-x,1/2+y,1/2-z
1/2-x,1/2-y,-z
1/2+x,1/2-y,1/2+z
loop_
_atom_site_type_symbol
_atom_site_label
_atom_site_fract_x
_atom_site_fract_y
_atom_site_fract_z
Si Si1 0.926621 0.015018 0.499011
Si Si2 0.178330 0.640446 0.497770
Si Si3 0.500000 0.640001 0.750000
Si Si4 0.448259 0.740120 0.482473
Si Si5 0.665236 0.289010 0.174038
Si Si6 0.838000 0.702370 0.750732
Si Si7 0.264033 0.051983 0.674269
O O1 0.939220 0.128541 0.456878
O O2 0.817383 0.002098 0.658289
O O3 0.000000 0.000000 0.500000
O O4 0.951159 0.933267 0.388411
O O5 0.087997 0.694135 0.564561
O O6 0.178511 0.645000 0.621208
O O7 0.267406 0.705407 0.347305
O O8 0.178551 0.532600 0.451530
O O9 0.424195 0.703298 0.786693
O O10 0.375582 0.755960 0.668758
O O11 0.554228 0.762390 0.384742
O O12 0.703371 0.392794 0.163641
O O13 0.750000 0.250000 0.000000
O O14 0.814710 0.632325 0.682899
#
# Coordination Sequence:
#
# PCOD9302949 Si02
#       7
#     8   8   4   8   8   8   8
#     4  11  22  41  64 102 131 166 230 283 341 389
#     4  11  25  43  71 101 140 181 229 285 344 420
#     4  12  26  38  74 100 128 182 222 290 342 410
#     4  11  24  45  68  98 136 179 227 289 334 415
#     4  11  27  44  66 103 137 179 227 283 353 408
#     4  11  25  44  71 101 136 186 229 280 355 401
#     4  11  25  44  67 101 139 178 224 287 342 408
#
# _framework density 20.334323999999999
#
# number of rings (size 3 to 8) (size 9 to 14) (size 15 to 20)
#    0.000    0.923    6.154    1.385    8.615    0.615 
#    0.000    1.538    0.000    0.000    0.000    0.000 
#    0.000    0.000    0.000    0.000    0.000    0.000 
#
# Total GULP energy -145147.328135 kJ/mol
# GULP energy per Si atom -5582.589544 kJ/mol
# Density = 2.028804 g / cm^3
# Si number density = 20.334324 Si / 1000 Ang^3
#
#
#
# Elastic Constant Matrix: (Units=GPa)
#
#
# Indices 1 2 3 4 5 6 
#
# 1 91.4141 9.7014 2.9935 0.0000 -1.4248 0.0000
# 2 9.7014 43.1159 14.1210 0.0000 5.3477 0.0000
# 3 2.9935 14.1210 68.4663 0.0000 -18.8244 0.0000
# 4 0.0000 0.0000 0.0000 27.1780 0.0000 -4.8732
# 5 -1.4248 5.3477 -18.8244 0.0000 29.7065 0.0000
# 6 0.0000 0.0000 0.0000 -4.8732 0.0000 33.2492
#
#
#
# Elastic Compliance Matrix: (Units=1/GPa)
#
#
# Indices 1 2 3 4 5 6 
#
# 1 0.011248 -0.002851 0.000467 0.000000 0.001349 0.000000
# 2 -0.002851 0.027948 -0.008550 0.000000 -0.010586 0.000000
# 3 0.000467 -0.008550 0.020318 0.000000 0.014437 0.000000
# 4 0.000000 0.000000 0.000000 0.037788 0.000000 0.005538
# 5 0.001349 -0.010586 0.014437 0.000000 0.044781 0.000000
# 6 0.000000 0.000000 0.000000 0.005538 0.000000 0.030888
#
#
# Mechanical properties :
#
#
# Convention : Reuss Voigt Hill
#
# Bulk Modulus (GPa) = 26.56363 28.51425 27.53894
# Shear Modulus (GPa) = 24.10958 29.77210 26.94084
#
# Velocity S-wave (km/s) = 3.44708 3.83055 3.64386
# Velocity P-wave (km/s) = 5.37912 5.79804 5.59250
#
# Compressibility (1/GPa) = 0.03764546
#
# Stress axis : x y z
#
# Youngs Moduli (GPa) = 88.90850 35.78074 49.21744
#
# Poissons Ratio (x) = 0.10201 -0.02299
# Poissons Ratio (y) = 0.25348 0.42081
# Poissons Ratio (z) = -0.04152 0.30593
#
# Static dielectric constant tensor:
#      x y z
#    x 1.710500 0.000000 0.006560 
#    y 0.000000 1.716060 0.000000 
#    z 0.006560 0.000000 1.428440 
# 
# From -- ./inp_files/112659.got.cif
#   From: 2010.05.17/outbox.cif.g08.bks.cpg/sg15_57_cif.got.tgz:112659.got - 2010.06.03 18:47:42.
