data_PCOD9302272
_publ_section_title
;
Structure prediction by ZEFSAII (Michael W. Deem and Ramdas Pophale) SiO2 
 PCOD9302272
Probable space group: C 2/C
;
_chemical_formula_sum "Si O2"
_cell_formula_units_Z 48
_cell_length_a 9.646573
_cell_length_b 14.243514
_cell_length_c 26.191411
_cell_angle_alpha 90.000000
_cell_angle_beta 140.197403
_cell_angle_gamma 90.000000
_cell_volume 2303.706412
_symmetry_space_group_name_H-M "C 2/C"
_symmetry_group_IT_number 15
_symmetry_cell_setting 'monoclinic'
loop_
_space_group_symop_operation_xyz
x,y,z
-x,y,1/2-z
-x,-y,-z
x,-y,1/2+z
1/2+x,1/2+y,z
1/2-x,1/2+y,1/2-z
1/2-x,1/2-y,-z
1/2+x,1/2-y,1/2+z
loop_
_atom_site_type_symbol
_atom_site_label
_atom_site_fract_x
_atom_site_fract_y
_atom_site_fract_z
Si Si1 0.614223 0.742052 0.058632
Si Si2 0.850816 0.567600 0.489848
Si Si3 0.555456 0.813447 0.665938
Si Si4 0.760514 0.495115 0.078515
Si Si5 0.539173 0.667283 0.148226
Si Si6 0.220892 0.193955 0.616100
O O1 0.471437 0.833764 0.023571
O O2 0.576614 0.683394 0.099046
O O3 0.868181 0.761152 0.126547
O O4 0.510079 0.696633 0.978660
O O5 0.827651 0.543026 0.542109
O O6 0.620435 0.578337 0.396169
O O7 0.000000 0.500000 0.500000
O O8 0.737149 0.836492 0.758738
O O9 0.678922 0.761864 0.653341
O O10 0.404256 0.908638 0.621358
O O11 0.792998 0.416191 0.132803
O O12 0.500000 0.500000 0.000000
O O13 0.402061 0.752285 0.134042
#
# Coordination Sequence:
#
# PCOD9302272 Si02
#       6
#     8   8   8   8   8   8
#     4  11  21  44  69  88 132 181 225 271 348 423
#     4  11  23  42  71  96 129 180 234 275 337 430
#     4  12  26  41  69 103 141 175 232 296 353 405
#     4  12  23  42  70 102 134 178 239 283 335 430
#     4  11  22  46  64  96 138 181 219 291 357 399
#     4  11  22  43  70  96 133 186 229 278 348 423
#
# _framework density 20.835988
#
# number of rings (size 3 to 8) (size 9 to 14) (size 15 to 20)
#    0.000    0.667    5.000    4.500    2.333    0.000 
#    3.000    3.333    0.000    0.000    0.000    0.000 
#    0.000    0.000    0.000    0.000    0.000    0.000 
#
# Total GULP energy -133653.246858 kJ/mol
# GULP energy per Si atom -5568.885286 kJ/mol
# Density = 2.078856 g / cm^3
# Si number density = 20.835988 Si / 1000 Ang^3
#
#
#
# Elastic Constant Matrix: (Units=GPa)
#
#
# Indices 1 2 3 4 5 6 
#
# 1 69.4598 20.8010 9.5266 0.0000 -2.3862 0.0000
# 2 20.8010 76.3585 28.1925 0.0000 -8.2337 0.0000
# 3 9.5266 28.1925 147.0083 0.0000 6.0650 0.0000
# 4 0.0000 0.0000 0.0000 22.3064 0.0000 7.3247
# 5 -2.3862 -8.2337 6.0650 0.0000 25.7809 0.0000
# 6 0.0000 0.0000 0.0000 7.3247 0.0000 34.8282
#
#
#
# Elastic Compliance Matrix: (Units=1/GPa)
#
#
# Indices 1 2 3 4 5 6 
#
# 1 0.015682 -0.004171 -0.000223 0.000000 0.000172 0.000000
# 2 -0.004171 0.015926 -0.003007 0.000000 0.005408 0.000000
# 3 -0.000223 -0.003007 0.007507 0.000000 -0.002747 0.000000
# 4 0.000000 0.000000 0.000000 0.048156 0.000000 -0.010128
# 5 0.000172 0.005408 -0.002747 0.000000 0.041178 0.000000
# 6 0.000000 0.000000 0.000000 -0.010128 0.000000 0.030842
#
#
# Mechanical properties :
#
#
# Convention : Reuss Voigt Hill
#
# Bulk Modulus (GPa) = 41.13192 45.54076 43.33634
# Shear Modulus (GPa) = 27.44274 32.20353 29.82313
#
# Velocity S-wave (km/s) = 3.63310 3.93564 3.78739
# Velocity P-wave (km/s) = 6.11416 6.52354 6.32216
#
# Compressibility (1/GPa) = 0.02431202
#
# Stress axis : x y z
#
# Youngs Moduli (GPa) = 63.76545 62.79175 133.21246
#
# Poissons Ratio (x) = 0.26191 0.02977
# Poissons Ratio (y) = 0.26597 0.40056
# Poissons Ratio (z) = 0.01425 0.18881
#
# Static dielectric constant tensor:
#      x y z
#    x 1.765370 0.000000 0.005260 
#    y 0.000000 1.847950 0.000000 
#    z 0.005260 0.000000 1.746760 
# 
# From -- ./inp_files/289085.got.cif
#   From: 2010.05.17/outbox.cif.g08.bks.cpg/sg15_145_cif.got.tgz:289085.got - 2010.06.03 18:47:42.
