data_PCOD9302593
_publ_section_title
;
Structure prediction by ZEFSAII (Michael W. Deem and Ramdas Pophale) SiO2 
 PCOD9302593
Probable space group: C 2/C
;
_chemical_formula_sum "Si O2"
_cell_formula_units_Z 52
_cell_length_a 15.759129
_cell_length_b 9.771883
_cell_length_c 28.371459
_cell_angle_alpha 90.000000
_cell_angle_beta 142.189372
_cell_angle_gamma 90.000000
_cell_volume 2678.493485
_symmetry_space_group_name_H-M "C 2/C"
_symmetry_group_IT_number 15
_symmetry_cell_setting 'monoclinic'
loop_
_space_group_symop_operation_xyz
x,y,z
-x,y,1/2-z
-x,-y,-z
x,-y,1/2+z
1/2+x,1/2+y,z
1/2-x,1/2+y,1/2-z
1/2-x,1/2-y,-z
1/2+x,1/2-y,1/2+z
loop_
_atom_site_type_symbol
_atom_site_label
_atom_site_fract_x
_atom_site_fract_y
_atom_site_fract_z
Si Si1 0.669884 0.617518 0.948707
Si Si2 0.631470 0.335230 0.973307
Si Si3 0.381981 0.638149 0.295699
Si Si4 0.292100 0.939772 0.406415
Si Si5 0.870856 0.843592 0.329109
Si Si6 0.056685 0.721609 0.039242
Si Si7 0.500000 0.480262 0.750000
O O1 0.652914 0.498286 0.979291
O O2 0.753409 0.542590 0.944110
O O3 0.517627 0.668095 0.866007
O O4 0.750000 0.750000 0.000000
O O5 0.492850 0.307598 0.882219
O O6 0.750000 0.250000 0.000000
O O7 0.622997 0.290926 0.023214
O O8 0.254051 0.740207 0.234361
O O9 0.327783 0.495739 0.294608
O O10 0.463514 0.608178 0.281602
O O11 0.398981 0.814328 0.455022
O O12 0.369998 0.073467 0.420682
O O13 0.140883 0.932149 0.316958
O O14 0.919343 0.812471 0.404084
#
# Coordination Sequence:
#
# PCOD9302593 Si02
#       7
#     8   8   8   8   8   8   4
#     4  11  22  41  62  93 130 166 212 273 323 380
#     4  11  23  42  66  96 126 174 223 265 326 392
#     4  11  26  40  68  93 133 172 218 272 332 385
#     4  11  22  38  66  97 126 176 215 264 327 397
#     4  11  24  43  65  97 133 169 218 276 325 389
#     4  11  23  40  70  98 131 171 226 269 326 395
#     4  12  20  42  62  92 128 180 220 260 322 410
#
# _framework density 19.413899000000001
#
# number of rings (size 3 to 8) (size 9 to 14) (size 15 to 20)
#    0.000    0.923    7.692    0.000    2.154    3.692 
#    0.000    0.000    0.000    0.000    0.000    0.000 
#    0.000    0.000    0.000    0.000    0.000    0.000 
#
# Total GULP energy -144909.640723 kJ/mol
# GULP energy per Si atom -5573.447720 kJ/mol
# Density = 1.936971 g / cm^3
# Si number density = 19.413899 Si / 1000 Ang^3
#
#
#
# Elastic Constant Matrix: (Units=GPa)
#
#
# Indices 1 2 3 4 5 6 
#
# 1 77.8285 34.5441 9.8776 0.0000 4.0384 0.0000
# 2 34.5441 83.1002 44.7126 0.0000 17.0523 0.0000
# 3 9.8776 44.7126 74.3182 0.0000 24.7585 0.0000
# 4 0.0000 0.0000 0.0000 27.5032 0.0000 12.5521
# 5 4.0384 17.0523 24.7585 0.0000 45.0195 0.0000
# 6 0.0000 0.0000 0.0000 12.5521 0.0000 26.6188
#
#
#
# Elastic Compliance Matrix: (Units=1/GPa)
#
#
# Indices 1 2 3 4 5 6 
#
# 1 0.016140 -0.008220 0.002749 0.000000 0.000154 0.000000
# 2 -0.008220 0.022020 -0.011781 0.000000 -0.001124 0.000000
# 3 0.002749 -0.011781 0.022985 0.000000 -0.008425 0.000000
# 4 0.000000 0.000000 0.000000 0.046330 0.000000 -0.021847
# 5 0.000154 -0.001124 -0.008425 0.000000 0.027258 0.000000
# 6 0.000000 0.000000 0.000000 -0.021847 0.000000 0.047869
#
#
# Mechanical properties :
#
#
# Convention : Reuss Voigt Hill
#
# Bulk Modulus (GPa) = 37.53591 45.94616 41.74104
# Shear Modulus (GPa) = 22.12508 29.56913 25.84710
#
# Velocity S-wave (km/s) = 3.37953 3.90691 3.65275
# Velocity P-wave (km/s) = 5.88259 6.63852 6.27196
#
# Compressibility (1/GPa) = 0.02664115
#
# Stress axis : x y z
#
# Youngs Moduli (GPa) = 61.95630 45.41241 43.50675
#
# Poissons Ratio (x) = 0.37330 -0.11960
# Poissons Ratio (y) = 0.50929 0.51256
# Poissons Ratio (z) = -0.17032 0.53501
#
# Static dielectric constant tensor:
#      x y z
#    x 1.721250 0.000000 -0.003790 
#    y 0.000000 1.698450 0.000000 
#    z -0.003790 0.000000 1.723760 
# 
# From -- ./inp_files/273893.got.cif
#   From: 2010.05.17/outbox.cif.g08.bks.cpg/sg15_137_cif.got.tgz:273893.got - 2010.06.03 18:47:42.
