data_PCOD9302028
_publ_section_title
;
Structure prediction by ZEFSAII (Michael W. Deem and Ramdas Pophale) SiO2 
 PCOD9302028
Probable space group: C 2/C
;
_chemical_formula_sum "Si O2"
_cell_formula_units_Z 64
_cell_length_a 19.626718
_cell_length_b 9.172467
_cell_length_c 16.584994
_cell_angle_alpha 90.000000
_cell_angle_beta 83.073541
_cell_angle_gamma 90.000000
_cell_volume 2963.930050
_symmetry_space_group_name_H-M "C 2/C"
_symmetry_group_IT_number 15
_symmetry_cell_setting 'monoclinic'
loop_
_space_group_symop_operation_xyz
x,y,z
-x,y,1/2-z
-x,-y,-z
x,-y,1/2+z
1/2+x,1/2+y,z
1/2-x,1/2+y,1/2-z
1/2-x,1/2-y,-z
1/2+x,1/2-y,1/2+z
loop_
_atom_site_type_symbol
_atom_site_label
_atom_site_fract_x
_atom_site_fract_y
_atom_site_fract_z
Si Si1 0.857892 0.456803 0.095308
Si Si2 0.908064 0.435634 0.420367
Si Si3 0.759562 0.661090 0.915410
Si Si4 0.470583 0.719886 0.070014
Si Si5 0.344491 0.220375 0.195006
Si Si6 0.391748 0.734075 0.860426
Si Si7 0.220876 0.905835 0.025374
Si Si8 0.523472 0.611847 0.886002
O O1 0.897356 0.302922 0.086970
O O2 0.862742 0.551373 0.175120
O O3 0.778021 0.456598 0.081592
O O4 0.894196 0.548078 0.018193
O O5 0.840483 0.361668 0.392624
O O6 0.907829 0.602836 0.390106
O O7 0.974984 0.336445 0.401225
O O8 0.722719 0.733405 0.845085
O O9 0.750000 0.750000 0.000000
O O10 0.724935 0.508108 0.946785
O O11 0.469725 0.562031 0.110983
O O12 0.496788 0.679696 0.975620
O O13 0.343807 0.250051 0.289556
O O14 0.405459 0.315200 0.147835
O O15 0.353007 0.625264 0.927421
O O16 0.463848 0.659461 0.833689
O O17 0.250000 0.750000 0.000000
#
# Coordination Sequence:
#
# PCOD9302028 Si02
#       8
#     8   8   8   8   8   8   8   8
#     4  11  21  41  67  97 126 169 221 259 314 393
#     4  11  21  41  67  97 126 169 221 259 314 393
#     4  11  22  41  68  95 127 168 220 265 308 386
#     4  11  22  38  72  99 120 174 225 267 310 381
#     4  12  26  43  65  96 135 171 209 274 338 379
#     4  12  26  43  65  96 135 171 209 274 338 379
#     4  11  22  41  68  95 127 168 220 265 308 386
#     4  11  24  39  65 100 132 163 221 271 322 384
#
# _framework density 21.592952
#
# number of rings (size 3 to 8) (size 9 to 14) (size 15 to 20)
#    0.000    0.750    7.500    1.500    7.000    1.000 
#    0.000    2.500    0.000    0.000    0.000    0.000 
#    0.000    0.000    0.000    0.000    0.000    0.000 
#
# Total GULP energy -178744.003014 kJ/mol
# GULP energy per Si atom -5585.750094 kJ/mol
# Density = 2.154381 g / cm^3
# Si number density = 21.592952 Si / 1000 Ang^3
#
#
#
# Elastic Constant Matrix: (Units=GPa)
#
#
# Indices 1 2 3 4 5 6 
#
# 1 93.7370 27.7061 -4.9296 0.0000 10.4069 0.0000
# 2 27.7061 101.0632 1.7353 0.0000 11.3395 0.0000
# 3 -4.9296 1.7353 34.0682 0.0000 15.5377 0.0000
# 4 0.0000 0.0000 0.0000 13.7319 0.0000 7.4301
# 5 10.4069 11.3395 15.5377 0.0000 27.0697 0.0000
# 6 0.0000 0.0000 0.0000 7.4301 0.0000 40.1435
#
#
#
# Elastic Compliance Matrix: (Units=1/GPa)
#
#
# Indices 1 2 3 4 5 6 
#
# 1 0.012459 -0.002779 0.004874 0.000000 -0.006423 0.000000
# 2 -0.002779 0.011101 0.000902 0.000000 -0.004100 0.000000
# 3 0.004874 0.000902 0.042046 0.000000 -0.026386 0.000000
# 4 0.000000 0.000000 0.000000 0.080928 0.000000 -0.014979
# 5 -0.006423 -0.004100 -0.026386 0.000000 0.056274 0.000000
# 6 0.000000 0.000000 0.000000 -0.014979 0.000000 0.027683
#
#
# Mechanical properties :
#
#
# Convention : Reuss Voigt Hill
#
# Bulk Modulus (GPa) = 13.96620 30.87689 22.42155
# Shear Modulus (GPa) = 20.13191 29.81280 24.97235
#
# Velocity S-wave (km/s) = 3.05673 3.71977 3.40443
# Velocity P-wave (km/s) = 4.35203 5.72534 5.08525
#
# Compressibility (1/GPa) = 0.07160142
#
# Stress axis : x y z
#
# Youngs Moduli (GPa) = 80.26422 90.08154 23.78345
#
# Poissons Ratio (x) = 0.25029 -0.11592
# Poissons Ratio (y) = 0.22302 -0.02146
# Poissons Ratio (z) = -0.39120 -0.08129
#
# Static dielectric constant tensor:
#      x y z
#    x 1.814140 0.000000 0.075990 
#    y 0.000000 1.790620 0.000000 
#    z 0.075990 0.000000 1.808480 
# 
# From -- ./inp_files/213897.got.cif
#   From: 2010.05.17/outbox.cif.g08.bks.cpg/sg15_107_cif.got.tgz:213897.got - 2010.06.03 18:47:42.
