data_PCOD9302113
_publ_section_title
;
Structure prediction by ZEFSAII (Michael W. Deem and Ramdas Pophale) SiO2 
 PCOD9302113
Probable space group: C 2/C
;
_chemical_formula_sum "Si O2"
_cell_formula_units_Z 48
_cell_length_a 8.926414
_cell_length_b 16.955905
_cell_length_c 15.755406
_cell_angle_alpha 90.000000
_cell_angle_beta 95.949497
_cell_angle_gamma 90.000000
_cell_volume 2371.821556
_symmetry_space_group_name_H-M "C 2/C"
_symmetry_group_IT_number 15
_symmetry_cell_setting 'monoclinic'
loop_
_space_group_symop_operation_xyz
x,y,z
-x,y,1/2-z
-x,-y,-z
x,-y,1/2+z
1/2+x,1/2+y,z
1/2-x,1/2+y,1/2-z
1/2-x,1/2-y,-z
1/2+x,1/2-y,1/2+z
loop_
_atom_site_type_symbol
_atom_site_label
_atom_site_fract_x
_atom_site_fract_y
_atom_site_fract_z
Si Si1 0.663535 0.808826 0.670290
Si Si2 0.000000 0.960403 0.750000
Si Si3 0.480531 0.660253 0.914767
Si Si4 0.500000 0.052842 0.250000
Si Si5 0.249875 0.435005 0.280779
Si Si6 0.769317 0.706645 0.831324
Si Si7 0.991903 0.836434 0.610451
O O1 0.579883 0.749414 0.602306
O O2 0.580824 0.890233 0.686556
O O3 0.679032 0.764035 0.761554
O O4 0.829412 0.819487 0.641804
O O5 0.949257 0.905797 0.825009
O O6 0.858760 0.016128 0.723864
O O7 0.365864 0.604039 0.855198
O O8 0.649557 0.667688 0.888117
O O9 0.479649 0.638162 0.012802
O O10 0.623196 0.996345 0.301456
O O11 0.174225 0.363591 0.225356
O O12 0.900575 0.760066 0.877590
#
# Coordination Sequence:
#
# PCOD9302113 Si02
#       7
#     8   4   8   4   8   8   8
#     4  11  21  42  65  94 129 173 224 269 323 392
#     4  12  22  44  64  92 134 172 216 272 336 402
#     4  11  24  42  64  99 132 168 219 287 325 381
#     4  12  22  40  70  94 128 184 222 264 330 410
#     4  11  24  42  66  95 133 173 217 271 336 398
#     4  11  21  43  69  95 127 175 221 269 329 405
#     4  12  24  40  69  96 129 172 228 269 330 399
#
# _framework density 20.237611000000001
#
# number of rings (size 3 to 8) (size 9 to 14) (size 15 to 20)
#    0.000    0.667    6.667    2.000    4.667    0.667 
#    0.000    0.833    0.000    0.000    0.000    0.000 
#    0.000    0.000    0.000    0.000    0.000    0.000 
#
# Total GULP energy -133988.843196 kJ/mol
# GULP energy per Si atom -5582.868466 kJ/mol
# Density = 2.019155 g / cm^3
# Si number density = 20.237611 Si / 1000 Ang^3
#
#
#
# Elastic Constant Matrix: (Units=GPa)
#
#
# Indices 1 2 3 4 5 6 
#
# 1 112.7318 51.2165 27.8882 0.0000 -11.0048 0.0000
# 2 51.2165 120.8274 31.0108 0.0000 3.1497 0.0000
# 3 27.8882 31.0108 100.5671 0.0000 -7.1024 0.0000
# 4 0.0000 0.0000 0.0000 -1.2087 0.0000 -11.1101
# 5 -11.0048 3.1497 -7.1024 0.0000 17.0666 0.0000
# 6 0.0000 0.0000 0.0000 -11.1101 0.0000 40.9027
#
#
#
# Elastic Compliance Matrix: (Units=1/GPa)
#
#
# Indices 1 2 3 4 5 6 
#
# 1 0.012323 -0.005122 -0.001247 0.000000 0.008373 0.000000
# 2 -0.005122 0.011258 -0.002505 0.000000 -0.006423 0.000000
# 3 -0.001247 -0.002505 0.011372 0.000000 0.004391 0.000000
# 4 0.000000 0.000000 0.000000 -0.236604 0.000000 -0.064267
# 5 0.008373 -0.006423 0.004391 0.000000 0.067005 0.000000
# 6 0.000000 0.000000 0.000000 -0.064267 0.000000 0.006992
#
#
# Mechanical properties :
#
#
# Convention : Reuss Voigt Hill
#
# Bulk Modulus (GPa) = 58.11842 61.59528 59.85685
# Shear Modulus (GPa) = -47.99744 26.28619 -10.85563
#
# Velocity S-wave (km/s) = -4.87529 3.60790 -2.31856
# Velocity P-wave (km/s) = 1.70613 6.91795 4.74063
#
# Compressibility (1/GPa) = 0.01720625
#
# Stress axis : x y z
#
# Youngs Moduli (GPa) = 81.14658 88.82875 87.93727
#
# Poissons Ratio (x) = 0.45498 0.10963
# Poissons Ratio (y) = 0.41563 0.22025
# Poissons Ratio (z) = 0.10116 0.22248
#
# Static dielectric constant tensor:
#      x y z
#    x 1.767550 0.000000 0.000420 
#    y 0.000000 1.746150 0.000000 
#    z 0.000420 0.000000 1.684990 
# 
# From -- ./inp_files/134890.got.cif
#   From: 2010.05.17/outbox.cif.g08.bks.cpg/sg15_68_cif.got.tgz:134890.got - 2010.06.03 18:47:42.
