data_PCOD9302646
_publ_section_title
;
Structure prediction by ZEFSAII (Michael W. Deem and Ramdas Pophale) SiO2 
 PCOD9302646
Probable space group: C 2/C
;
_chemical_formula_sum "Si O2"
_cell_formula_units_Z 48
_cell_length_a 8.645586
_cell_length_b 22.603725
_cell_length_c 11.673742
_cell_angle_alpha 90.000000
_cell_angle_beta 105.736115
_cell_angle_gamma 90.000000
_cell_volume 2195.809954
_symmetry_space_group_name_H-M "C 2/C"
_symmetry_group_IT_number 15
_symmetry_cell_setting 'monoclinic'
loop_
_space_group_symop_operation_xyz
x,y,z
-x,y,1/2-z
-x,-y,-z
x,-y,1/2+z
1/2+x,1/2+y,z
1/2-x,1/2+y,1/2-z
1/2-x,1/2-y,-z
1/2+x,1/2-y,1/2+z
loop_
_atom_site_type_symbol
_atom_site_label
_atom_site_fract_x
_atom_site_fract_y
_atom_site_fract_z
Si Si1 0.667607 0.326256 0.725101
Si Si2 0.790992 0.597344 0.457869
Si Si3 0.136280 0.978664 0.359261
Si Si4 0.312952 0.278221 0.131619
Si Si5 0.601170 0.109769 0.655232
Si Si6 0.004688 0.866276 0.039367
O O1 0.500000 0.303853 0.750000
O O2 0.748591 0.371958 0.828891
O O3 0.792869 0.274844 0.717590
O O4 0.606043 0.355809 0.594841
O O5 0.722173 0.531056 0.443337
O O6 0.686471 0.631810 0.532439
O O7 0.976439 0.598902 0.526905
O O8 0.270281 0.943007 0.315281
O O9 0.050228 0.928207 0.417235
O O10 0.000000 0.005335 0.250000
O O11 0.194262 0.329956 0.148771
O O12 0.471844 0.313717 0.122904
O O13 0.250000 0.250000 0.000000
O O14 0.500000 0.112204 0.750000
#
# Coordination Sequence:
#
# PCOD9302646 Si02
#       6
#     8   8   8   8   8   8
#     4   9  18  36  61  88 122 163 207 253 304 364
#     4  11  22  39  62  94 124 157 204 257 307 358
#     4  11  22  40  64  90 123 165 204 246 302 373
#     4   9  19  40  61  84 121 162 205 249 296 360
#     4  11  24  41  61  92 126 160 202 257 310 357
#     4   9  19  36  62  90 119 163 209 248 301 364
#
# _framework density 21.859815000000001
#
# number of rings (size 3 to 8) (size 9 to 14) (size 15 to 20)
#    0.000    2.000    0.000    4.000    0.000    1.333 
#    0.000   34.167    0.000    0.000    0.000    0.000 
#    0.000    0.000    0.000    0.000    0.000    0.000 
#
# Total GULP energy -134193.460248 kJ/mol
# GULP energy per Si atom -5591.394177 kJ/mol
# Density = 2.181006 g / cm^3
# Si number density = 21.859815 Si / 1000 Ang^3
#
#
#
# Elastic Constant Matrix: (Units=GPa)
#
#
# Indices 1 2 3 4 5 6 
#
# 1 72.7573 14.4698 25.8402 0.0000 4.6011 0.0000
# 2 14.4698 67.7947 9.3135 0.0000 0.7678 0.0000
# 3 25.8402 9.3135 74.1330 0.0000 -2.0552 0.0000
# 4 0.0000 0.0000 0.0000 30.1579 0.0000 2.2355
# 5 4.6011 0.7678 -2.0552 0.0000 39.9844 0.0000
# 6 0.0000 0.0000 0.0000 2.2355 0.0000 23.8609
#
#
#
# Elastic Compliance Matrix: (Units=1/GPa)
#
#
# Indices 1 2 3 4 5 6 
#
# 1 0.016341 -0.002720 -0.005412 0.000000 -0.002106 0.000000
# 2 -0.002720 0.015468 -0.000996 0.000000 -0.000035 0.000000
# 3 -0.005412 -0.000996 0.015541 0.000000 0.001441 0.000000
# 4 0.000000 0.000000 0.000000 0.033391 0.000000 -0.003128
# 5 -0.002106 -0.000035 0.001441 0.000000 0.025327 0.000000
# 6 0.000000 0.000000 0.000000 -0.003128 0.000000 0.042203
#
#
# Mechanical properties :
#
#
# Convention : Reuss Voigt Hill
#
# Bulk Modulus (GPa) = 34.37338 34.88135 34.62736
# Shear Modulus (GPa) = 28.37276 29.80475 29.08875
#
# Velocity S-wave (km/s) = 3.60660 3.69650 3.65183
# Velocity P-wave (km/s) = 5.75344 5.84895 5.80139
#
# Compressibility (1/GPa) = 0.02909228
#
# Stress axis : x y z
#
# Youngs Moduli (GPa) = 61.19653 64.64853 64.34613
#
# Poissons Ratio (x) = 0.17586 0.34827
# Poissons Ratio (y) = 0.16647 0.06409
# Poissons Ratio (z) = 0.33122 0.06440
#
# Static dielectric constant tensor:
#      x y z
#    x 1.800690 0.000000 0.019610 
#    y 0.000000 1.764990 0.000000 
#    z 0.019610 0.000000 1.841820 
# 
# From -- ./inp_files/79100.got.cif
#   From: 2010.05.17/outbox.cif.g08.bks.cpg/sg15_40_cif.got.tgz:79100.got - 2010.06.03 18:47:42.
