data_PCOD9302456
_publ_section_title
;
Structure prediction by ZEFSAII (Michael W. Deem and Ramdas Pophale) SiO2 
 PCOD9302456
Probable space group: C 2/C
;
_chemical_formula_sum "Si O2"
_cell_formula_units_Z 56
_cell_length_a 9.045105
_cell_length_b 30.087986
_cell_length_c 10.681117
_cell_angle_alpha 90.000000
_cell_angle_beta 103.948833
_cell_angle_gamma 90.000000
_cell_volume 2821.136092
_symmetry_space_group_name_H-M "C 2/C"
_symmetry_group_IT_number 15
_symmetry_cell_setting 'monoclinic'
loop_
_space_group_symop_operation_xyz
x,y,z
-x,y,1/2-z
-x,-y,-z
x,-y,1/2+z
1/2+x,1/2+y,z
1/2-x,1/2+y,1/2-z
1/2-x,1/2-y,-z
1/2+x,1/2-y,1/2+z
loop_
_atom_site_type_symbol
_atom_site_label
_atom_site_fract_x
_atom_site_fract_y
_atom_site_fract_z
Si Si1 0.832125 0.282375 0.158423
Si Si2 0.093332 0.049345 0.137954
Si Si3 0.181042 0.141869 0.758671
Si Si4 0.723954 0.802450 0.979292
Si Si5 0.887472 0.951390 0.345915
Si Si6 0.160245 0.142514 0.212414
Si Si7 0.622199 0.795461 0.620512
O O1 0.735627 0.326865 0.158272
O O2 0.726088 0.244218 0.198632
O O3 0.000000 0.283090 0.250000
O O4 0.869950 0.279526 0.020625
O O5 0.193980 0.093315 0.168891
O O6 0.000000 0.048714 0.250000
O O7 0.175345 0.001423 0.145725
O O8 0.983487 0.056583 0.994126
O O9 0.211206 0.091150 0.718654
O O10 0.000000 0.144391 0.750000
O O11 0.262169 0.166039 0.894506
O O12 0.839767 0.824328 0.905043
O O13 0.553871 0.803711 0.888176
O O14 0.750000 0.750000 0.000000
O O15 0.000000 0.955731 0.250000
O O16 0.286658 0.159967 0.333077
O O17 0.000000 0.143648 0.250000
#
# Coordination Sequence:
#
# PCOD9302456 Si02
#       7
#     8   8   8   8   8   8   8
#     4  11  23  42  59  88 119 162 206 252 300 360
#     4   9  19  35  59  92 127 160 204 258 316 372
#     4  11  22  36  64  91 123 157 206 260 310 365
#     4  12  25  42  61  90 124 166 208 255 312 373
#     4   9  18  35  59  92 126 160 205 262 313 366
#     4  11  24  38  63  91 121 159 204 252 309 370
#     4  11  25  39  61  83 123 162 201 252 303 368
#
# _framework density 19.850159000000001
#
# number of rings (size 3 to 8) (size 9 to 14) (size 15 to 20)
#    0.000    1.429    1.429    4.286   10.000    0.000 
#    0.000    0.000    0.000    2.571    0.000    0.000 
#    0.000    0.000    0.000    0.000    0.000    0.000 
#
# Total GULP energy -155927.998569 kJ/mol
# GULP energy per Si atom -5568.857092 kJ/mol
# Density = 1.980498 g / cm^3
# Si number density = 19.850159 Si / 1000 Ang^3
#
#
#
# Elastic Constant Matrix: (Units=GPa)
#
#
# Indices 1 2 3 4 5 6 
#
# 1 69.6789 33.5739 6.8811 0.0000 13.0967 0.0000
# 2 33.5739 188.5176 28.5111 0.0000 22.4541 0.0000
# 3 6.8811 28.5111 84.4660 0.0000 4.1096 0.0000
# 4 0.0000 0.0000 0.0000 30.3932 0.0000 2.4578
# 5 13.0967 22.4541 4.1096 0.0000 32.8572 0.0000
# 6 0.0000 0.0000 0.0000 2.4578 0.0000 16.0916
#
#
#
# Elastic Compliance Matrix: (Units=1/GPa)
#
#
# Indices 1 2 3 4 5 6 
#
# 1 0.016413 -0.002286 -0.000325 0.000000 -0.004940 0.000000
# 2 -0.002286 0.006368 -0.001807 0.000000 -0.003215 0.000000
# 3 -0.000325 -0.001807 0.012485 0.000000 -0.000197 0.000000
# 4 0.000000 0.000000 0.000000 0.033314 0.000000 -0.005088
# 5 -0.004940 -0.003215 -0.000197 0.000000 0.034625 0.000000
# 6 0.000000 0.000000 0.000000 -0.005088 0.000000 0.062921
#
#
# Mechanical properties :
#
#
# Convention : Reuss Voigt Hill
#
# Bulk Modulus (GPa) = 37.83466 53.39942 45.61704
# Shear Modulus (GPa) = 27.20763 34.11483 30.66123
#
# Velocity S-wave (km/s) = 3.70625 4.15012 3.93445
# Velocity P-wave (km/s) = 6.11690 7.06571 6.60836
#
# Compressibility (1/GPa) = 0.02643079
#
# Stress axis : x y z
#
# Youngs Moduli (GPa) = 60.92590 157.04164 80.09579
#
# Poissons Ratio (x) = 0.35893 0.02606
# Poissons Ratio (y) = 0.13925 0.14472
# Poissons Ratio (z) = 0.01982 0.28374
#
# Static dielectric constant tensor:
#      x y z
#    x 1.746440 0.000000 -0.007230 
#    y 0.000000 1.781550 0.000000 
#    z -0.007230 0.000000 1.800520 
# 
# From -- ./inp_files/82284.got.cif
#   From: 2010.05.17/outbox.cif.g08.bks.cpg/sg15_42_cif.got.tgz:82284.got - 2010.06.03 18:47:42.
