data_PCOD9302961
_publ_section_title
;
Structure prediction by ZEFSAII (Michael W. Deem and Ramdas Pophale) SiO2 
 PCOD9302961
Probable space group: C 2/C
;
_chemical_formula_sum "Si O2"
_cell_formula_units_Z 40
_cell_length_a 13.680489
_cell_length_b 13.823014
_cell_length_c 13.596889
_cell_angle_alpha 90.000000
_cell_angle_beta 35.382301
_cell_angle_gamma 90.000000
_cell_volume 1488.827894
_symmetry_space_group_name_H-M "C 2/C"
_symmetry_group_IT_number 15
_symmetry_cell_setting 'monoclinic'
loop_
_space_group_symop_operation_xyz
x,y,z
-x,y,1/2-z
-x,-y,-z
x,-y,1/2+z
1/2+x,1/2+y,z
1/2-x,1/2+y,1/2-z
1/2-x,1/2-y,-z
1/2+x,1/2-y,1/2+z
loop_
_atom_site_type_symbol
_atom_site_label
_atom_site_fract_x
_atom_site_fract_y
_atom_site_fract_z
Si Si1 0.239554 0.339936 0.082713
Si Si2 0.197792 0.505899 0.815477
Si Si3 0.319912 0.975904 0.889487
Si Si4 0.099268 0.191024 0.353024
Si Si5 0.990204 0.151252 0.653519
O O1 0.170070 0.423553 0.061951
O O2 0.155135 0.283882 0.246483
O O3 0.250000 0.250000 0.000000
O O4 0.437905 0.358376 0.937805
O O5 0.201263 0.532741 0.696707
O O6 0.265787 0.395717 0.756411
O O7 0.325201 0.582229 0.765738
O O8 0.000000 0.500000 0.000000
O O9 0.500000 0.925860 0.750000
O O10 0.153051 0.916754 0.036995
O O11 0.040055 0.211365 0.515039
O O12 0.000000 0.206551 0.750000
#
# Coordination Sequence:
#
# PCOD9302961 Si02
#       5
#     8   8   8   8   8
#     4  12  25  41  67 103 148 184 218 284 371 432
#     4  11  23  42  70  98 138 186 238 300 347 411
#     4  11  22  41  65 107 136 178 235 289 363 420
#     4  11  25  44  64 103 144 186 232 288 354 426
#     4  11  23  45  72  97 140 187 245 296 339 414
#
# _framework density 26.866772999999998
#
# number of rings (size 3 to 8) (size 9 to 14) (size 15 to 20)
#    0.000    0.800    4.000    4.200    8.400    0.000 
#    0.000    1.000    0.000    1.200    0.000    0.000 
#    0.000    0.000    0.000    0.000    0.000    0.000 
#
# Total GULP energy -111578.306763 kJ/mol
# GULP energy per Si atom -5578.915338 kJ/mol
# Density = 2.680562 g / cm^3
# Si number density = 26.866773 Si / 1000 Ang^3
#
#
#
# Elastic Constant Matrix: (Units=GPa)
#
#
# Indices 1 2 3 4 5 6 
#
# 1 122.1889 0.9541 47.0055 -0.0002 -12.6913 0.0001
# 2 0.9541 117.6385 44.7334 -0.0001 -22.3275 0.0000
# 3 47.0055 44.7334 138.9720 -0.0003 -37.0447 0.0002
# 4 -0.0002 -0.0001 -0.0003 29.0268 0.0002 -3.2773
# 5 -12.6913 -22.3275 -37.0447 0.0002 79.5576 -0.0001
# 6 0.0001 0.0000 0.0002 -3.2773 -0.0001 12.3746
#
#
#
# Elastic Compliance Matrix: (Units=1/GPa)
#
#
# Indices 1 2 3 4 5 6 
#
# 1 0.009587 0.001339 -0.003614 0.000000 0.000222 0.000000
# 2 0.001339 0.010021 -0.003279 0.000000 0.001499 0.000000
# 3 -0.003614 -0.003279 0.010361 0.000000 0.003327 0.000000
# 4 0.000000 0.000000 0.000000 0.035513 0.000000 0.009405
# 5 0.000222 0.001499 0.003327 0.000000 0.014575 0.000000
# 6 0.000000 0.000000 0.000000 0.009405 0.000000 0.083302
#
#
# Mechanical properties :
#
#
# Convention : Reuss Voigt Hill
#
# Bulk Modulus (GPa) = 53.02263 62.68725 57.85494
# Shear Modulus (GPa) = 27.66185 43.26556 35.46371
#
# Velocity S-wave (km/s) = 3.21221 4.01730 3.63710
# Velocity P-wave (km/s) = 5.79102 6.70086 6.26249
#
# Compressibility (1/GPa) = 0.01885987
#
# Stress axis : x y z
#
# Youngs Moduli (GPa) = 104.30647 99.78900 96.51896
#
# Poissons Ratio (x) = -0.13360 0.34887
# Poissons Ratio (y) = -0.13965 0.31648
# Poissons Ratio (z) = 0.37701 0.32720
#
# Static dielectric constant tensor:
#      x y z
#    x 2.232740 0.000000 -0.177620 
#    y 0.000000 1.618890 0.000000 
#    z -0.177620 0.000000 2.225520 
# 
# From -- ./inp_files/155357.got.cif
#   From: 2010.05.17/outbox.cif.g08.bks.cpg/sg15_78_cif.got.tgz:155357.got - 2010.06.03 18:47:42.
