data_PCOD9302660
_publ_section_title
;
Structure prediction by ZEFSAII (Michael W. Deem and Ramdas Pophale) SiO2 
 PCOD9302660
Probable space group: C 2/C
;
_chemical_formula_sum "Si O2"
_cell_formula_units_Z 56
_cell_length_a 18.648279
_cell_length_b 18.855755
_cell_length_c 10.212233
_cell_angle_alpha 90.000000
_cell_angle_beta 132.226478
_cell_angle_gamma 90.000000
_cell_volume 2659.040793
_symmetry_space_group_name_H-M "C 2/C"
_symmetry_group_IT_number 15
_symmetry_cell_setting 'monoclinic'
loop_
_space_group_symop_operation_xyz
x,y,z
-x,y,1/2-z
-x,-y,-z
x,-y,1/2+z
1/2+x,1/2+y,z
1/2-x,1/2+y,1/2-z
1/2-x,1/2-y,-z
1/2+x,1/2-y,1/2+z
loop_
_atom_site_type_symbol
_atom_site_label
_atom_site_fract_x
_atom_site_fract_y
_atom_site_fract_z
Si Si1 0.465227 0.312933 0.398624
Si Si2 0.278381 0.844005 0.098516
Si Si3 0.271814 0.645600 0.510791
Si Si4 0.607697 0.246687 0.936052
Si Si5 0.706482 0.505309 0.534181
Si Si6 0.412744 0.551643 0.364335
Si Si7 0.654230 0.239856 0.565431
O O1 0.381021 0.349340 0.208248
O O2 0.404556 0.267958 0.429002
O O3 0.536276 0.371790 0.551498
O O4 0.542083 0.260568 0.426708
O O5 0.337925 0.824772 0.041540
O O6 0.323716 0.797018 0.270270
O O7 0.171563 0.810342 0.953192
O O8 0.272131 0.925336 0.132592
O O9 0.244478 0.563993 0.467151
O O10 0.286931 0.687748 0.393572
O O11 0.194597 0.687729 0.503129
O O12 0.500000 0.244762 0.750000
O O13 0.629369 0.534201 0.331069
O O14 0.662350 0.473272 0.614215
O O15 0.500000 0.500000 0.500000
#
# Coordination Sequence:
#
# PCOD9302660 Si02
#       7
#     8   8   8   8   8   8   8
#     4  12  22  41  68  98 137 176 228 283 340 411
#     4  11  24  41  65  98 138 182 226 280 345 401
#     4  11  24  42  66  98 133 180 221 282 345 410
#     4  11  22  39  63  95 130 178 229 275 331 399
#     4  12  25  43  64  98 143 180 222 280 348 420
#     4  12  24  38  63 101 142 176 216 272 361 416
#     4  11  23  42  65  98 131 177 232 275 337 409
#
# _framework density 21.060224000000002
#
# number of rings (size 3 to 8) (size 9 to 14) (size 15 to 20)
#    0.000    0.571    5.714    3.429    2.000    0.000 
#    0.000    0.000    0.000    4.286    0.000    0.000 
#    0.000    0.000    0.000    0.000    0.000    0.000 
#
# Total GULP energy -156316.550115 kJ/mol
# GULP energy per Si atom -5582.733933 kJ/mol
# Density = 2.101229 g / cm^3
# Si number density = 21.060224 Si / 1000 Ang^3
#
#
#
# Elastic Constant Matrix: (Units=GPa)
#
#
# Indices 1 2 3 4 5 6 
#
# 1 108.9354 46.9353 9.9920 0.0000 12.1372 0.0000
# 2 46.9353 127.6113 7.9404 0.0000 13.4759 0.0000
# 3 9.9920 7.9404 63.3299 0.0000 -3.0990 0.0000
# 4 0.0000 0.0000 0.0000 28.4825 0.0000 2.8198
# 5 12.1372 13.4759 -3.0990 0.0000 29.5773 0.0000
# 6 0.0000 0.0000 0.0000 2.8198 0.0000 23.2019
#
#
#
# Elastic Compliance Matrix: (Units=1/GPa)
#
#
# Indices 1 2 3 4 5 6 
#
# 1 0.011262 -0.003726 -0.001460 0.000000 -0.003077 0.000000
# 2 -0.003726 0.009561 -0.000753 0.000000 -0.002906 0.000000
# 3 -0.001460 -0.000753 0.016245 0.000000 0.002644 0.000000
# 4 0.000000 0.000000 0.000000 0.035537 0.000000 -0.004319
# 5 -0.003077 -0.002906 0.002644 0.000000 0.036673 0.000000
# 6 0.000000 0.000000 0.000000 -0.004319 0.000000 0.043625
#
#
# Mechanical properties :
#
#
# Convention : Reuss Voigt Hill
#
# Bulk Modulus (GPa) = 39.70155 47.73465 43.71810
# Shear Modulus (GPa) = 28.87218 31.91959 30.39588
#
# Velocity S-wave (km/s) = 3.70663 3.89734 3.80318
# Velocity P-wave (km/s) = 6.10010 6.55495 6.33161
#
# Compressibility (1/GPa) = 0.02518793
#
# Stress axis : x y z
#
# Youngs Moduli (GPa) = 88.79408 104.59637 61.55924
#
# Poissons Ratio (x) = 0.38977 0.08989
# Poissons Ratio (y) = 0.33088 0.04635
# Poissons Ratio (z) = 0.12966 0.07876
#
# Static dielectric constant tensor:
#      x y z
#    x 1.845200 0.000000 -0.072270 
#    y 0.000000 1.764920 0.000000 
#    z -0.072270 0.000000 1.838820 
# 
# From -- ./inp_files/106749.got.cif
#   From: 2010.05.17/outbox.cif.g08.bks.cpg/sg15_54_cif.got.tgz:106749.got - 2010.06.03 18:47:42.
