data_PCOD9302169
_publ_section_title
;
Structure prediction by ZEFSAII (Michael W. Deem and Ramdas Pophale) SiO2 
 PCOD9302169
Probable space group: C 2/C
;
_chemical_formula_sum "Si O2"
_cell_formula_units_Z 40
_cell_length_a 9.015365
_cell_length_b 18.578082
_cell_length_c 12.512786
_cell_angle_alpha 90.000000
_cell_angle_beta 90.317608
_cell_angle_gamma 90.000000
_cell_volume 2095.711683
_symmetry_space_group_name_H-M "C 2/C"
_symmetry_group_IT_number 15
_symmetry_cell_setting 'monoclinic'
loop_
_space_group_symop_operation_xyz
x,y,z
-x,y,1/2-z
-x,-y,-z
x,-y,1/2+z
1/2+x,1/2+y,z
1/2-x,1/2+y,1/2-z
1/2-x,1/2-y,-z
1/2+x,1/2-y,1/2+z
loop_
_atom_site_type_symbol
_atom_site_label
_atom_site_fract_x
_atom_site_fract_y
_atom_site_fract_z
Si Si1 0.586369 0.749841 0.050028
Si Si2 0.212730 0.608738 0.139248
Si Si3 0.609600 0.273025 0.155027
Si Si4 0.000000 0.495456 0.250000
Si Si5 0.500000 0.653941 0.250000
Si Si6 0.372827 0.125162 0.599898
O O1 0.573672 0.703311 0.157760
O O2 0.522102 0.829132 0.075788
O O3 0.750000 0.750000 0.000000
O O4 0.473755 0.719700 0.959107
O O5 0.151225 0.688898 0.165469
O O6 0.375312 0.607584 0.190374
O O7 0.111439 0.547400 0.188315
O O8 0.202324 0.603288 0.011832
O O9 0.500000 0.293407 0.250000
O O10 0.758428 0.319896 0.155296
O O11 0.911958 0.443215 0.170036
#
# Coordination Sequence:
#
# PCOD9302169 Si02
#       6
#     8   8   8   4   4   8
#     4  11  23  37  71 108 130 175 230 298 340 396
#     4  11  23  45  65  98 136 184 218 286 344 410
#     4  11  21  42  71 100 139 175 238 285 339 398
#     4  12  27  44  70  93 144 192 218 274 363 424
#     4  12  21  42  68  97 140 172 232 284 345 394
#     4  11  24  46  66 101 138 180 234 287 337 413
#
# _framework density 19.086594999999999
#
# number of rings (size 3 to 8) (size 9 to 14) (size 15 to 20)
#    0.000    0.800    5.000    3.600    5.600    0.000 
#    1.800    1.000    0.000    0.000    0.000    0.000 
#    0.000    0.000    0.000    0.000    0.000    0.000 
#
# Total GULP energy -111841.695029 kJ/mol
# GULP energy per Si atom -5592.084751 kJ/mol
# Density = 1.904315 g / cm^3
# Si number density = 19.086595 Si / 1000 Ang^3
#
#
#
# Elastic Constant Matrix: (Units=GPa)
#
#
# Indices 1 2 3 4 5 6 
#
# 1 123.0377 68.4901 49.8234 0.0000 -3.9986 0.0000
# 2 68.4901 124.9427 68.2709 0.0000 -1.1809 0.0000
# 3 49.8234 68.2709 120.4024 0.0000 -1.7543 0.0000
# 4 0.0000 0.0000 0.0000 32.3640 0.0000 -6.6560
# 5 -3.9986 -1.1809 -1.7543 0.0000 41.6119 0.0000
# 6 0.0000 0.0000 0.0000 -6.6560 0.0000 23.5838
#
#
#
# Elastic Compliance Matrix: (Units=1/GPa)
#
#
# Indices 1 2 3 4 5 6 
#
# 1 0.011991 -0.005593 -0.001777 0.000000 0.000919 0.000000
# 2 -0.005593 0.014206 -0.005746 0.000000 -0.000377 0.000000
# 3 -0.001777 -0.005746 0.012302 0.000000 0.000185 0.000000
# 4 0.000000 0.000000 0.000000 0.032802 0.000000 0.009258
# 5 0.000919 -0.000377 0.000185 0.000000 0.024117 0.000000
# 6 0.000000 0.000000 0.000000 0.009258 0.000000 0.045015
#
#
# Mechanical properties :
#
#
# Convention : Reuss Voigt Hill
#
# Bulk Modulus (GPa) = 81.52829 82.39465 81.96147
# Shear Modulus (GPa) = 29.28204 31.63183 30.45694
#
# Velocity S-wave (km/s) = 3.92109 4.07539 3.99899
# Velocity P-wave (km/s) = 7.95661 8.08750 8.02232
#
# Compressibility (1/GPa) = 0.01226568
#
# Stress axis : x y z
#
# Youngs Moduli (GPa) = 83.39915 70.39318 81.29032
#
# Poissons Ratio (x) = 0.39373 0.14444
# Poissons Ratio (y) = 0.46647 0.46710
# Poissons Ratio (z) = 0.14819 0.40448
#
# Static dielectric constant tensor:
#      x y z
#    x 1.670130 0.000000 0.010820 
#    y 0.000000 1.627880 0.000000 
#    z 0.010820 0.000000 1.676620 
# 
# From -- ./inp_files/76760.got.cif
#   From: 2010.05.17/outbox.cif.g08.bks.cpg/sg15_39_cif.got.tgz:76760.got - 2010.06.03 18:47:42.
