data_PCOD9302082
_publ_section_title
;
Structure prediction by ZEFSAII (Michael W. Deem and Ramdas Pophale) SiO2 
 PCOD9302082
Probable space group: C 2/C
;
_chemical_formula_sum "Si O2"
_cell_formula_units_Z 40
_cell_length_a 17.804577
_cell_length_b 9.429655
_cell_length_c 11.270208
_cell_angle_alpha 90.000000
_cell_angle_beta 99.625876
_cell_angle_gamma 90.000000
_cell_volume 1865.526167
_symmetry_space_group_name_H-M "C 2/C"
_symmetry_group_IT_number 15
_symmetry_cell_setting 'monoclinic'
loop_
_space_group_symop_operation_xyz
x,y,z
-x,y,1/2-z
-x,-y,-z
x,-y,1/2+z
1/2+x,1/2+y,z
1/2-x,1/2+y,1/2-z
1/2-x,1/2-y,-z
1/2+x,1/2-y,1/2+z
loop_
_atom_site_type_symbol
_atom_site_label
_atom_site_fract_x
_atom_site_fract_y
_atom_site_fract_z
Si Si1 0.172175 0.437482 0.417968
Si Si2 0.330625 0.651800 0.214213
Si Si3 0.688905 0.355383 0.534991
Si Si4 0.588531 0.363915 0.282890
Si Si5 0.845185 0.595727 0.323928
O O1 0.167692 0.271737 0.384106
O O2 0.259956 0.499776 0.441894
O O3 0.134260 0.513703 0.292860
O O4 0.132612 0.453475 0.536993
O O5 0.335218 0.712296 0.347469
O O6 0.392026 0.527728 0.234766
O O7 0.246290 0.585495 0.189099
O O8 0.750000 0.250000 0.500000
O O9 0.620628 0.352353 0.424679
O O10 0.500000 0.333322 0.250000
O O11 0.631911 0.257413 0.204217
#
# Coordination Sequence:
#
# PCOD9302082 Si02
#       5
#     8   8   8   8   8
#     4  11  22  39  73 102 128 179 254 282 325 412
#     4  11  23  39  69  98 135 183 238 280 339 422
#     4  11  21  41  73 102 134 184 244 292 337 417
#     4  12  27  44  66 105 149 179 223 303 368 404
#     4  11  22  42  70 100 132 185 238 284 336 427
#
# _framework density 21.441670999999999
#
# number of rings (size 3 to 8) (size 9 to 14) (size 15 to 20)
#    0.000    0.800    6.000    4.200    2.800    0.800 
#    0.000    2.000    0.000    0.000    0.000    0.000 
#    0.000    0.000    0.000    0.000    0.000    0.000 
#
# Total GULP energy -111431.640000 kJ/mol
# GULP energy per Si atom -5571.582000 kJ/mol
# Density = 2.139287 g / cm^3
# Si number density = 21.441671 Si / 1000 Ang^3
#
#
#
# Elastic Constant Matrix: (Units=GPa)
#
#
# Indices 1 2 3 4 5 6 
#
# 1 35.2278 -2.1569 31.5935 0.0000 6.0076 0.0000
# 2 -2.1569 82.2722 45.9605 0.0000 -8.4987 0.0000
# 3 31.5935 45.9605 176.2838 0.0000 -13.5153 0.0000
# 4 0.0000 0.0000 0.0000 43.3435 0.0000 -5.4097
# 5 6.0076 -8.4987 -13.5153 0.0000 17.3785 0.0000
# 6 0.0000 0.0000 0.0000 -5.4097 0.0000 19.2104
#
#
#
# Elastic Compliance Matrix: (Units=1/GPa)
#
#
# Indices 1 2 3 4 5 6 
#
# 1 0.041108 0.004679 -0.010104 0.000000 -0.019780 0.000000
# 2 0.004679 0.015073 -0.004601 0.000000 0.002175 0.000000
# 3 -0.010104 -0.004601 0.009335 0.000000 0.008502 0.000000
# 4 0.000000 0.000000 0.000000 0.023912 0.000000 0.006734
# 5 -0.019780 0.002175 0.008502 0.000000 0.072056 0.000000
# 6 0.000000 0.000000 0.000000 0.006734 0.000000 0.053951
#
#
# Mechanical properties :
#
#
# Convention : Reuss Voigt Hill
#
# Bulk Modulus (GPa) = 21.99618 49.39755 35.69686
# Shear Modulus (GPa) = 19.94883 30.54560 25.24722
#
# Velocity S-wave (km/s) = 3.05352 3.77847 3.43517
# Velocity P-wave (km/s) = 4.76580 6.49029 5.69371
#
# Compressibility (1/GPa) = 0.04546245
#
# Stress axis : x y z
#
# Youngs Moduli (GPa) = 24.32644 66.34514 107.12409
#
# Poissons Ratio (x) = -0.31041 1.08234
# Poissons Ratio (y) = -0.11382 0.49293
# Poissons Ratio (z) = 0.24578 0.30529
#
# Static dielectric constant tensor:
#      x y z
#    x 1.765960 0.000000 0.007390 
#    y 0.000000 1.880530 0.000000 
#    z 0.007390 0.000000 1.906690 
# 
# From -- ./inp_files/102840.got.cif
#   From: 2010.05.17/outbox.cif.g08.bks.cpg/sg15_52_cif.got.tgz:102840.got - 2010.06.03 18:47:42.
