data_PCOD9302181
_publ_section_title
;
Structure prediction by ZEFSAII (Michael W. Deem and Ramdas Pophale) SiO2 
 PCOD9302181
Probable space group: C 2/C
;
_chemical_formula_sum "Si O2"
_cell_formula_units_Z 56
_cell_length_a 11.813966
_cell_length_b 19.146579
_cell_length_c 10.401452
_cell_angle_alpha 90.000000
_cell_angle_beta 66.423633
_cell_angle_gamma 90.000000
_cell_volume 2156.386028
_symmetry_space_group_name_H-M "C 2/C"
_symmetry_group_IT_number 15
_symmetry_cell_setting 'monoclinic'
loop_
_space_group_symop_operation_xyz
x,y,z
-x,y,1/2-z
-x,-y,-z
x,-y,1/2+z
1/2+x,1/2+y,z
1/2-x,1/2+y,1/2-z
1/2-x,1/2-y,-z
1/2+x,1/2-y,1/2+z
loop_
_atom_site_type_symbol
_atom_site_label
_atom_site_fract_x
_atom_site_fract_y
_atom_site_fract_z
Si Si1 0.970876 0.173881 0.390606
Si Si2 0.640865 0.480769 0.572116
Si Si3 0.432359 0.846294 0.656650
Si Si4 0.591622 0.638543 0.596699
Si Si5 0.348324 0.859498 0.130875
Si Si6 0.219107 0.242654 0.140715
Si Si7 0.301165 0.991896 0.750321
O O1 0.049532 0.178758 0.489382
O O2 0.092087 0.192482 0.239099
O O3 0.929553 0.091774 0.414832
O O4 0.838210 0.221779 0.483139
O O5 0.571520 0.554602 0.589287
O O6 0.304637 0.477915 0.808362
O O7 0.746333 0.489700 0.414894
O O8 0.500000 0.818747 0.750000
O O9 0.525504 0.841419 0.496039
O O10 0.313785 0.802639 0.678615
O O11 0.388566 0.925065 0.707440
O O12 0.500000 0.660498 0.750000
O O13 0.732360 0.646744 0.584441
O O14 0.321640 0.813173 0.268093
O O15 0.363557 0.938683 0.169104
#
# Coordination Sequence:
#
# PCOD9302181 Si02
#       7
#     8   8   8   8   8   8   8
#     4  12  25  42  75 109 155 199 255 323 388 468
#     4  11  21  42  74 115 152 196 251 320 395 462
#     4  12  28  52  81 115 157 209 266 331 391 476
#     4  11  23  44  75 109 153 198 255 321 393 467
#     4  11  28  50  80 114 155 211 264 324 399 472
#     4  12  29  52  74 113 158 209 268 318 401 472
#     4  11  23  47  79 115 155 201 262 332 390 466
#
# _framework density 25.969376
#
# number of rings (size 3 to 8) (size 9 to 14) (size 15 to 20)
#    0.000    0.571    1.429    7.286    4.000    2.286 
#    0.000    0.000    0.000    0.000    0.000    0.000 
#    0.000    0.000    0.000    0.000    0.000    0.000 
#
# Total GULP energy -156950.472633 kJ/mol
# GULP energy per Si atom -5605.374023 kJ/mol
# Density = 2.591027 g / cm^3
# Si number density = 25.969376 Si / 1000 Ang^3
#
#
#
# Elastic Constant Matrix: (Units=GPa)
#
#
# Indices 1 2 3 4 5 6 
#
# 1 149.4170 53.9920 37.3540 0.0000 -3.6660 0.0000
# 2 53.9920 167.2156 23.1593 0.0000 -7.1402 0.0000
# 3 37.3540 23.1593 166.0521 0.0000 2.1393 0.0000
# 4 0.0000 0.0000 0.0000 50.3610 0.0000 -2.3978
# 5 -3.6660 -7.1402 2.1393 0.0000 45.5782 0.0000
# 6 0.0000 0.0000 0.0000 -2.3978 0.0000 38.8213
#
#
#
# Elastic Compliance Matrix: (Units=1/GPa)
#
#
# Indices 1 2 3 4 5 6 
#
# 1 0.007910 -0.002338 -0.001458 0.000000 0.000338 0.000000
# 2 -0.002338 0.006835 -0.000439 0.000000 0.000903 0.000000
# 3 -0.001458 -0.000439 0.006418 0.000000 -0.000487 0.000000
# 4 0.000000 0.000000 0.000000 0.019915 0.000000 0.001230
# 5 0.000338 0.000903 -0.000487 0.000000 0.022132 0.000000
# 6 0.000000 0.000000 0.000000 0.001230 0.000000 0.025835
#
#
# Mechanical properties :
#
#
# Convention : Reuss Voigt Hill
#
# Bulk Modulus (GPa) = 78.78111 79.07728 78.92920
# Shear Modulus (GPa) = 49.14274 51.49740 50.32007
#
# Velocity S-wave (km/s) = 4.35482 4.45793 4.40667
# Velocity P-wave (km/s) = 7.46243 7.55075 7.50672
#
# Compressibility (1/GPa) = 0.01269340
#
# Stress axis : x y z
#
# Youngs Moduli (GPa) = 126.41963 146.31641 155.82087
#
# Poissons Ratio (x) = 0.34205 0.22715
# Poissons Ratio (y) = 0.29554 0.06840
# Poissons Ratio (z) = 0.18429 0.06423
#
# Static dielectric constant tensor:
#      x y z
#    x 2.151140 0.000000 -0.166560 
#    y 0.000000 1.966620 0.000000 
#    z -0.166560 0.000000 2.244100 
# 
# From -- ./inp_files/156179.got.cif
#   From: 2010.05.17/outbox.cif.g08.bks.cpg/sg15_79_cif.got.tgz:156179.got - 2010.06.03 18:47:42.
