data_PCOD9302981
_publ_section_title
;
Structure prediction by ZEFSAII (Michael W. Deem and Ramdas Pophale) SiO2 
 PCOD9302981
Probable space group: C 2/C
;
_chemical_formula_sum "Si O2"
_cell_formula_units_Z 52
_cell_length_a 12.284956
_cell_length_b 16.831929
_cell_length_c 14.437150
_cell_angle_alpha 90.000000
_cell_angle_beta 62.085671
_cell_angle_gamma 90.000000
_cell_volume 2637.962077
_symmetry_space_group_name_H-M "C 2/C"
_symmetry_group_IT_number 15
_symmetry_cell_setting 'monoclinic'
loop_
_space_group_symop_operation_xyz
x,y,z
-x,y,1/2-z
-x,-y,-z
x,-y,1/2+z
1/2+x,1/2+y,z
1/2-x,1/2+y,1/2-z
1/2-x,1/2-y,-z
1/2+x,1/2-y,1/2+z
loop_
_atom_site_type_symbol
_atom_site_label
_atom_site_fract_x
_atom_site_fract_y
_atom_site_fract_z
Si Si1 0.000000 0.246524 0.750000
Si Si2 0.876885 0.048853 0.074119
Si Si3 0.792143 0.164919 0.944103
Si Si4 0.075760 0.652596 0.901537
Si Si5 0.623007 0.994238 0.256532
Si Si6 0.106732 0.184957 0.282885
Si Si7 0.877706 0.651608 0.131328
O O1 0.893729 0.189112 0.829066
O O2 0.950796 0.300341 0.683866
O O3 0.903268 0.105250 0.151826
O O4 0.751856 0.999378 0.148484
O O5 0.842251 0.107658 0.003484
O O6 0.000000 0.000000 0.000000
O O7 0.675097 0.128405 0.939687
O O8 0.750000 0.250000 0.000000
O O9 0.093491 0.590911 0.811886
O O10 0.101190 0.740381 0.853910
O O11 0.947108 0.654410 0.006522
O O12 0.500000 0.017466 0.250000
O O13 0.633288 0.060750 0.331738
O O14 0.240593 0.185781 0.182542
O O15 0.000000 0.189807 0.250000
#
# Coordination Sequence:
#
# PCOD9302981 Si02
#       7
#     4   8   8   8   8   8   8
#     4  12  20  38  74  94 126 164 228 284 328 394
#     4  11  26  44  68  99 138 177 225 291 354 409
#     4  12  22  42  70  99 128 174 233 284 336 404
#     4  12  24  39  68  98 125 179 230 270 340 412
#     4  11  24  42  63  93 137 172 222 281 339 405
#     4  11  25  44  63  94 138 174 216 279 346 417
#     4  11  22  41  66  95 127 172 222 284 333 392
#
# _framework density 19.712185999999999
#
# number of rings (size 3 to 8) (size 9 to 14) (size 15 to 20)
#    0.000    0.615    5.385    2.769    2.154    5.538 
#    0.000    0.000    0.000    0.000    0.000    0.000 
#    0.000    0.000    0.000    0.000    0.000    0.000 
#
# Total GULP energy -145293.111280 kJ/mol
# GULP energy per Si atom -5588.196588 kJ/mol
# Density = 1.966732 g / cm^3
# Si number density = 19.712186 Si / 1000 Ang^3
#
#
#
# Elastic Constant Matrix: (Units=GPa)
#
#
# Indices 1 2 3 4 5 6 
#
# 1 117.8086 34.9855 41.1729 0.0000 -15.8212 0.0000
# 2 34.9855 72.1230 56.0741 0.0000 -19.6684 0.0000
# 3 41.1729 56.0741 120.2840 0.0000 -44.8776 0.0000
# 4 0.0000 0.0000 0.0000 24.8232 0.0000 3.6834
# 5 -15.8212 -19.6684 -44.8776 0.0000 49.7967 0.0000
# 6 0.0000 0.0000 0.0000 3.6834 0.0000 29.2033
#
#
#
# Elastic Compliance Matrix: (Units=1/GPa)
#
#
# Indices 1 2 3 4 5 6 
#
# 1 0.010176 -0.003502 -0.001748 0.000000 0.000274 0.000000
# 2 -0.003502 0.022975 -0.009855 0.000000 -0.000919 0.000000
# 3 -0.001748 -0.009855 0.017848 0.000000 0.011637 0.000000
# 4 0.000000 0.000000 0.000000 0.041053 0.000000 -0.005178
# 5 0.000274 -0.000919 0.011637 0.000000 0.030293 0.000000
# 6 0.000000 0.000000 0.000000 -0.005178 0.000000 0.034896
#
#
# Mechanical properties :
#
#
# Convention : Reuss Voigt Hill
#
# Bulk Modulus (GPa) = 48.10305 63.85339 55.97822
# Shear Modulus (GPa) = 25.72250 32.63016 29.17633
#
# Velocity S-wave (km/s) = 3.61626 4.07299 3.85140
# Velocity P-wave (km/s) = 6.47241 7.38797 6.94530
#
# Compressibility (1/GPa) = 0.02078870
#
# Stress axis : x y z
#
# Youngs Moduli (GPa) = 98.26804 43.52495 56.02863
#
# Poissons Ratio (x) = 0.15244 0.09795
# Poissons Ratio (y) = 0.34416 0.55216
# Poissons Ratio (z) = 0.17180 0.42893
#
# Static dielectric constant tensor:
#      x y z
#    x 1.567150 0.000000 0.185180 
#    y 0.000000 1.691160 0.000000 
#    z 0.185180 0.000000 1.549170 
# 
# From -- ./inp_files/144188.got.cif
#   From: 2010.05.17/outbox.cif.g08.bks.cpg/sg15_73_cif.got.tgz:144188.got - 2010.06.03 18:47:42.
