data_PCOD9302464
_publ_section_title
;
Structure prediction by ZEFSAII (Michael W. Deem and Ramdas Pophale) SiO2 
 PCOD9302464
Probable space group: C 2/C
;
_chemical_formula_sum "Si O2"
_cell_formula_units_Z 64
_cell_length_a 14.902502
_cell_length_b 29.051395
_cell_length_c 8.360882
_cell_angle_alpha 90.000000
_cell_angle_beta 90.000131
_cell_angle_gamma 90.000000
_cell_volume 3619.747478
_symmetry_space_group_name_H-M "C 2/C"
_symmetry_group_IT_number 15
_symmetry_cell_setting 'monoclinic'
loop_
_space_group_symop_operation_xyz
x,y,z
-x,y,1/2-z
-x,-y,-z
x,-y,1/2+z
1/2+x,1/2+y,z
1/2-x,1/2+y,1/2-z
1/2-x,1/2-y,-z
1/2+x,1/2-y,1/2+z
loop_
_atom_site_type_symbol
_atom_site_label
_atom_site_fract_x
_atom_site_fract_y
_atom_site_fract_z
Si Si1 0.146435 0.233129 0.182160
Si Si2 0.789824 0.862233 0.193858
Si Si3 0.101324 0.050833 0.309933
Si Si4 0.146435 0.233129 0.817839
Si Si5 0.406216 0.830098 0.306303
Si Si6 0.898676 0.949167 0.309933
Si Si7 0.093784 0.669902 0.306304
Si Si8 0.710176 0.637767 0.193857
O O1 0.250000 0.250000 0.171234
O O2 0.099157 0.277296 0.258236
O O3 0.152962 0.182200 0.254271
O O4 0.111894 0.228241 0.999999
O O5 0.847037 0.817800 0.254272
O O6 0.685884 0.855230 0.243173
O O7 0.833341 0.909435 0.248393
O O8 0.791357 0.859801 0.000000
O O9 0.100448 0.050637 0.500000
O O10 0.166659 0.090565 0.248393
O O11 0.000000 0.059740 0.250000
O O12 0.127398 0.000000 0.250000
O O13 0.099156 0.277296 0.741763
O O14 0.500000 0.850957 0.250000
O O15 0.404928 0.828050 0.500000
O O16 0.000000 0.940260 0.250000
O O17 0.185885 0.644771 0.256828
O O18 0.000000 0.649043 0.250000
#
# Coordination Sequence:
#
# PCOD9302464 Si02
#       8
#     8   8   8   8   8   8   8   8
#     4   7  12  25  44  65  92 129 168 202 237 278
#     4   9  17  32  52  73 100 134 170 206 247 293
#     4  11  22  37  56  77 100 125 157 199 249 302
#     4   7  12  25  44  65  92 129 168 202 237 278
#     4   9  17  29  47  71 102 139 174 207 242 285
#     4  11  22  37  56  77 100 125 157 199 249 302
#     4   9  17  29  47  71 102 139 174 207 242 285
#     4   9  17  32  52  73 100 134 170 206 247 293
#
# _framework density 17.680792
#
# number of rings (size 3 to 8) (size 9 to 14) (size 15 to 20)
#    0.000    3.000    0.000    6.000    0.000    2.000 
#    0.000    3.750    0.000    5.250    0.000    5.250 
#    0.000    0.000    0.000    0.000    0.000    0.000 
#
# Total GULP energy -178167.358143 kJ/mol
# GULP energy per Si atom -5567.729942 kJ/mol
# Density = 1.764055 g / cm^3
# Si number density = 17.680792 Si / 1000 Ang^3
#
#
#
# Elastic Constant Matrix: (Units=GPa)
#
#
# Indices 1 2 3 4 5 6 
#
# 1 93.7388 80.1704 19.2105 0.0000 -2.7980 0.0000
# 2 80.1704 143.3723 26.4910 0.0000 -4.8953 0.0000
# 3 19.2105 26.4910 35.9552 0.0000 -2.4717 0.0000
# 4 0.0000 0.0000 0.0000 12.1936 0.0000 -1.1236
# 5 -2.7980 -4.8953 -2.4717 0.0000 21.9536 0.0000
# 6 0.0000 0.0000 0.0000 -1.1236 0.0000 24.5116
#
#
#
# Elastic Compliance Matrix: (Units=1/GPa)
#
#
# Indices 1 2 3 4 5 6 
#
# 1 0.020710 -0.011043 -0.002940 0.000000 -0.000154 0.000000
# 2 -0.011043 0.013990 -0.004324 0.000000 0.001225 0.000000
# 3 -0.002940 -0.004324 0.032730 0.000000 0.002346 0.000000
# 4 0.000000 0.000000 0.000000 0.082358 0.000000 0.003775
# 5 -0.000154 0.001225 0.002346 0.000000 0.046068 0.000000
# 6 0.000000 0.000000 0.000000 0.003775 0.000000 0.040970
#
#
# Mechanical properties :
#
#
# Convention : Reuss Voigt Hill
#
# Bulk Modulus (GPa) = 32.44823 58.31222 45.38023
# Shear Modulus (GPa) = 17.62355 21.54474 19.58415
#
# Velocity S-wave (km/s) = 3.16058 3.49455 3.33175
# Velocity P-wave (km/s) = 5.63126 7.02386 6.36576
#
# Compressibility (1/GPa) = 0.03081832
#
# Stress axis : x y z
#
# Youngs Moduli (GPa) = 48.28570 71.47795 30.55315
#
# Poissons Ratio (x) = 0.78931 0.08982
# Poissons Ratio (y) = 0.53320 0.13210
# Poissons Ratio (z) = 0.14195 0.30904
#
# Static dielectric constant tensor:
#      x y z
#    x 1.614170 0.000000 0.000790 
#    y 0.000000 1.623180 0.000000 
#    z 0.000790 0.000000 1.622840 
# 
# From -- ./inp_files/43544.got.cif
#   From: 2010.05.17/outbox.cif.g08.bks.cpg/sg15_22_cif.got.tgz:43544.got - 2010.06.03 18:47:42.
