data_PCOD9302694
_publ_section_title
;
Structure prediction by ZEFSAII (Michael W. Deem and Ramdas Pophale) SiO2 
 PCOD9302694
Probable space group: C 2/C
;
_chemical_formula_sum "Si O2"
_cell_formula_units_Z 64
_cell_length_a 18.250411
_cell_length_b 9.074479
_cell_length_c 31.115744
_cell_angle_alpha 90.000000
_cell_angle_beta 144.080483
_cell_angle_gamma 90.000000
_cell_volume 3023.098654
_symmetry_space_group_name_H-M "C 2/C"
_symmetry_group_IT_number 15
_symmetry_cell_setting 'monoclinic'
loop_
_space_group_symop_operation_xyz
x,y,z
-x,y,1/2-z
-x,-y,-z
x,-y,1/2+z
1/2+x,1/2+y,z
1/2-x,1/2+y,1/2-z
1/2-x,1/2-y,-z
1/2+x,1/2-y,1/2+z
loop_
_atom_site_type_symbol
_atom_site_label
_atom_site_fract_x
_atom_site_fract_y
_atom_site_fract_z
Si Si1 0.630906 0.301716 0.124650
Si Si2 0.383314 0.233084 0.787341
Si Si3 0.018967 0.986392 0.810197
Si Si4 0.003826 0.561210 0.377696
Si Si5 0.769090 0.635904 0.968216
Si Si6 0.457949 0.170561 0.980725
Si Si7 0.067541 0.282959 0.736922
Si Si8 0.661916 0.367415 0.646573
O O1 0.778097 0.289143 0.201651
O O2 0.565648 0.184785 0.126134
O O3 0.598313 0.473028 0.115267
O O4 0.580340 0.256068 0.054551
O O5 0.493325 0.332726 0.820916
O O6 0.322990 0.325565 0.796950
O O7 0.425561 0.082236 0.829186
O O8 0.000000 0.962984 0.750000
O O9 0.146885 0.059110 0.889482
O O10 0.915607 0.114084 0.771070
O O11 0.019719 0.637401 0.339003
O O12 0.131997 0.523837 0.462763
O O13 0.848693 0.695871 0.964868
O O14 0.750000 0.750000 0.000000
O O15 0.410621 0.241873 0.914268
O O16 0.500000 0.000000 0.000000
O O17 0.197231 0.366015 0.804007
O O18 0.000000 0.274221 0.750000
#
# Coordination Sequence:
#
# PCOD9302694 Si02
#       8
#     8   8   8   8   8   8   8   8
#     4  11  23  43  67  99 135 177 233 283 343 428
#     4  12  25  42  71 102 138 180 230 297 347 421
#     4  11  26  45  71 101 139 186 236 282 358 432
#     4  11  23  44  67 100 135 181 232 292 350 412
#     4  11  24  46  72 100 138 191 233 292 354 431
#     4  11  26  44  70 102 144 180 236 295 356 419
#     4  11  22  39  65  97 134 179 233 281 347 419
#     4  12  24  42  70 102 135 185 232 287 354 414
#
# _framework density 21.170331000000001
#
# number of rings (size 3 to 8) (size 9 to 14) (size 15 to 20)
#    0.000    0.750    3.750    4.125    7.000    1.000 
#    0.000    0.000    0.000    0.000    0.000    0.000 
#    0.000    0.000    0.000    0.000    0.000    0.000 
#
# Total GULP energy -178496.227730 kJ/mol
# GULP energy per Si atom -5578.007117 kJ/mol
# Density = 2.112215 g / cm^3
# Si number density = 21.170331 Si / 1000 Ang^3
#
#
#
# Elastic Constant Matrix: (Units=GPa)
#
#
# Indices 1 2 3 4 5 6 
#
# 1 52.2704 26.2249 20.9126 0.0000 -2.7895 0.0000
# 2 26.2249 109.1247 28.4895 0.0000 7.2971 0.0000
# 3 20.9126 28.4895 154.9241 0.0000 1.4565 0.0000
# 4 0.0000 0.0000 0.0000 30.4743 0.0000 -6.6491
# 5 -2.7895 7.2971 1.4565 0.0000 24.7602 0.0000
# 6 0.0000 0.0000 0.0000 -6.6491 0.0000 28.1316
#
#
#
# Elastic Compliance Matrix: (Units=1/GPa)
#
#
# Indices 1 2 3 4 5 6 
#
# 1 0.022835 -0.005206 -0.002165 0.000000 0.004234 0.000000
# 2 -0.005206 0.011001 -0.001285 0.000000 -0.003753 0.000000
# 3 -0.002165 -0.001285 0.006986 0.000000 -0.000276 0.000000
# 4 0.000000 0.000000 0.000000 0.034599 0.000000 0.008178
# 5 0.004234 -0.003753 -0.000276 0.000000 0.041987 0.000000
# 6 0.000000 0.000000 0.000000 0.008178 0.000000 0.037480
#
#
# Mechanical properties :
#
#
# Convention : Reuss Voigt Hill
#
# Bulk Modulus (GPa) = 42.53333 51.95259 47.24296
# Shear Modulus (GPa) = 27.77216 32.71937 30.24577
#
# Velocity S-wave (km/s) = 3.62587 3.93559 3.78390
# Velocity P-wave (km/s) = 6.13709 6.72647 6.43852
#
# Compressibility (1/GPa) = 0.02351098
#
# Stress axis : x y z
#
# Youngs Moduli (GPa) = 43.79209 90.89811 143.14489
#
# Poissons Ratio (x) = 0.47319 0.30990
# Poissons Ratio (y) = 0.22797 0.18395
# Poissons Ratio (z) = 0.09481 0.11681
#
# Static dielectric constant tensor:
#      x y z
#    x 1.870730 0.000000 0.100780 
#    y 0.000000 1.830800 0.000000 
#    z 0.100780 0.000000 1.892740 
# 
# From -- ./inp_files/315749.got.cif
#   From: 2010.05.17/outbox.cif.g08.bks.cpg/sg15_158_cif.got.tgz:315749.got - 2010.06.03 18:47:42.
