data_PCOD9302216
_publ_section_title
;
Structure prediction by ZEFSAII (Michael W. Deem and Ramdas Pophale) SiO2 
 PCOD9302216
Probable space group: C 2/C
;
_chemical_formula_sum "Si O2"
_cell_formula_units_Z 48
_cell_length_a 29.182460
_cell_length_b 8.517738
_cell_length_c 15.146078
_cell_angle_alpha 90.000000
_cell_angle_beta 146.965317
_cell_angle_gamma 90.000000
_cell_volume 2052.389012
_symmetry_space_group_name_H-M "C 2/C"
_symmetry_group_IT_number 15
_symmetry_cell_setting 'monoclinic'
loop_
_space_group_symop_operation_xyz
x,y,z
-x,y,1/2-z
-x,-y,-z
x,-y,1/2+z
1/2+x,1/2+y,z
1/2-x,1/2+y,1/2-z
1/2-x,1/2-y,-z
1/2+x,1/2-y,1/2+z
loop_
_atom_site_type_symbol
_atom_site_label
_atom_site_fract_x
_atom_site_fract_y
_atom_site_fract_z
Si Si1 0.662366 0.287996 0.403356
Si Si2 0.677359 0.617265 0.367613
Si Si3 0.995921 0.252604 0.349382
Si Si4 0.661905 0.435222 0.154941
Si Si5 0.327977 0.225846 0.890365
Si Si6 0.000348 0.625277 0.355938
O O1 0.750000 0.250000 0.500000
O O2 0.671565 0.474337 0.427922
O O3 0.664055 0.184264 0.494171
O O4 0.573048 0.230684 0.218975
O O5 0.750000 0.750000 0.500000
O O6 0.586633 0.693683 0.234159
O O7 0.682706 0.520018 0.283375
O O8 0.078372 0.168950 0.522353
O O9 0.989796 0.440355 0.347484
O O10 0.000000 0.217522 0.250000
O O11 0.654565 0.591027 0.085857
O O12 0.733582 0.329795 0.222989
O O13 0.403936 0.153861 0.957848
O O14 0.000000 0.668053 0.250000
#
# Coordination Sequence:
#
# PCOD9302216 Si02
#       6
#     8   8   8   8   8   8
#     4  11  21  43  69  98 135 184 234 294 360 426
#     4  12  27  44  71 102 144 186 241 298 365 429
#     4  11  24  45  73 101 143 186 240 293 369 427
#     4  12  26  44  68 105 144 185 245 300 354 440
#     4  11  24  42  69  97 141 181 238 289 362 424
#     4   9  21  41  70  99 134 183 234 289 353 437
#
# _framework density 23.387378999999999
#
# number of rings (size 3 to 8) (size 9 to 14) (size 15 to 20)
#    0.000    1.000    1.667    4.500    9.333    1.333 
#    0.000    1.667    0.000    0.000    0.000    0.000 
#    0.000    0.000    0.000    0.000    0.000    0.000 
#
# Total GULP energy -133725.536236 kJ/mol
# GULP energy per Si atom -5571.897343 kJ/mol
# Density = 2.333415 g / cm^3
# Si number density = 23.387379 Si / 1000 Ang^3
#
#
#
# Elastic Constant Matrix: (Units=GPa)
#
#
# Indices 1 2 3 4 5 6 
#
# 1 98.9195 36.5520 53.7308 0.0000 22.7701 0.0000
# 2 36.5520 109.7756 64.6391 0.0000 31.7089 0.0000
# 3 53.7308 64.6391 127.6061 0.0000 59.6605 0.0000
# 4 0.0000 0.0000 0.0000 43.3382 0.0000 -6.0078
# 5 22.7701 31.7089 59.6605 0.0000 59.9982 0.0000
# 6 0.0000 0.0000 0.0000 -6.0078 0.0000 8.9796
#
#
#
# Elastic Compliance Matrix: (Units=1/GPa)
#
#
# Indices 1 2 3 4 5 6 
#
# 1 0.013340 -0.001637 -0.005280 0.000000 0.001053 0.000000
# 2 -0.001637 0.013194 -0.005652 0.000000 -0.000731 0.000000
# 3 -0.005280 -0.005652 0.019790 0.000000 -0.014688 0.000000
# 4 0.000000 0.000000 0.000000 0.025433 0.000000 0.017016
# 5 0.001053 -0.000731 -0.014688 0.000000 0.031259 0.000000
# 6 0.000000 0.000000 0.000000 0.017016 0.000000 0.122748
#
#
# Mechanical properties :
#
#
# Convention : Reuss Voigt Hill
#
# Bulk Modulus (GPa) = 47.20210 71.79389 59.49800
# Shear Modulus (GPa) = 19.38257 34.55515 26.96886
#
# Velocity S-wave (km/s) = 2.88195 3.84801 3.39947
# Velocity P-wave (km/s) = 5.59470 7.10685 6.39562
#
# Compressibility (1/GPa) = 0.02118550
#
# Stress axis : x y z
#
# Youngs Moduli (GPa) = 74.96430 75.79208 50.53057
#
# Poissons Ratio (x) = 0.12406 0.26680
# Poissons Ratio (y) = 0.12270 0.28562
# Poissons Ratio (z) = 0.39581 0.42840
#
# Static dielectric constant tensor:
#      x y z
#    x 1.880660 0.000000 -0.071230 
#    y 0.000000 1.934710 0.000000 
#    z -0.071230 0.000000 2.177220 
# 
# From -- ./inp_files/224706.got.cif
#   From: 2010.05.17/outbox.cif.g08.bks.cpg/sg15_113_cif.got.tgz:224706.got - 2010.06.03 18:47:42.
