data_PCOD9302895
_publ_section_title
;
Structure prediction by ZEFSAII (Michael W. Deem and Ramdas Pophale) SiO2 
 PCOD9302895
Probable space group: C 2/C
;
_chemical_formula_sum "Si O2"
_cell_formula_units_Z 44
_cell_length_a 13.970217
_cell_length_b 6.648919
_cell_length_c 22.839945
_cell_angle_alpha 90.000000
_cell_angle_beta 61.239158
_cell_angle_gamma 90.000000
_cell_volume 1859.809288
_symmetry_space_group_name_H-M "C 2/C"
_symmetry_group_IT_number 15
_symmetry_cell_setting 'monoclinic'
loop_
_space_group_symop_operation_xyz
x,y,z
-x,y,1/2-z
-x,-y,-z
x,-y,1/2+z
1/2+x,1/2+y,z
1/2-x,1/2+y,1/2-z
1/2-x,1/2-y,-z
1/2+x,1/2-y,1/2+z
loop_
_atom_site_type_symbol
_atom_site_label
_atom_site_fract_x
_atom_site_fract_y
_atom_site_fract_z
Si Si1 0.120357 0.424758 0.827610
Si Si2 0.000000 0.727482 0.250000
Si Si3 0.818017 0.568686 0.509136
Si Si4 0.178494 0.043014 0.162461
Si Si5 0.503886 0.625358 0.557962
Si Si6 0.432615 0.234348 0.893247
O O1 0.249304 0.451046 0.799874
O O2 0.070208 0.384388 0.778591
O O3 0.048157 0.621123 0.866211
O O4 0.091899 0.229104 0.876377
O O5 0.089984 0.867707 0.192665
O O6 0.750000 0.750000 0.500000
O O7 0.765422 0.500214 0.585032
O O8 0.843880 0.391277 0.456151
O O9 0.932430 0.678567 0.482669
O O10 0.112256 0.239021 0.159728
O O11 0.500000 0.500000 0.500000
O O12 0.558427 0.460295 0.584605
#
# Coordination Sequence:
#
# PCOD9302895 Si02
#       6
#     8   4   8   8   8   8
#     4  11  27  48  72 105 144 190 240 303 352 424
#     4  12  28  54  66 102 146 188 262 294 330 438
#     4  11  22  40  69 113 147 179 227 298 363 431
#     4  12  25  47  76 101 142 197 240 286 371 417
#     4  11  22  42  72 108 147 177 231 298 366 434
#     4  11  23  45  73 108 147 180 233 301 362 435
#
# _framework density 23.658341
#
# number of rings (size 3 to 8) (size 9 to 14) (size 15 to 20)
#    0.000    0.727    3.636    3.818    2.545    6.545 
#    6.545    0.000    0.000    0.000    0.000    0.000 
#    0.000    0.000    0.000    0.000    0.000    0.000 
#
# Total GULP energy -122820.964801 kJ/mol
# GULP energy per Si atom -5582.771127 kJ/mol
# Density = 2.360449 g / cm^3
# Si number density = 23.658341 Si / 1000 Ang^3
#
#
#
# Elastic Constant Matrix: (Units=GPa)
#
#
# Indices 1 2 3 4 5 6 
#
# 1 135.8058 32.2717 12.3775 0.0000 29.5063 0.0000
# 2 32.2717 94.1348 12.0126 0.0000 3.5667 0.0000
# 3 12.3775 12.0126 42.4859 0.0000 18.3238 0.0000
# 4 0.0000 0.0000 0.0000 0.2246 0.0000 1.4006
# 5 29.5063 3.5667 18.3238 0.0000 32.5118 0.0000
# 6 0.0000 0.0000 0.0000 1.4006 0.0000 41.5313
#
#
#
# Elastic Compliance Matrix: (Units=1/GPa)
#
#
# Indices 1 2 3 4 5 6 
#
# 1 0.010173 -0.003408 0.002405 0.000001 -0.010215 0.000000
# 2 -0.003408 0.012175 -0.004237 0.000001 0.004145 0.000000
# 3 0.002405 -0.004237 0.032732 0.000007 -0.020166 0.000000
# 4 0.000001 0.000001 0.000007 5.637834 -0.000003 -0.190133
# 5 -0.010215 0.004145 -0.020166 -0.000003 0.050939 0.000000
# 6 0.000000 0.000000 0.000000 -0.190133 0.000000 0.030490
#
#
# Mechanical properties :
#
#
# Convention : Reuss Voigt Hill
#
# Bulk Modulus (GPa) = 22.42126 42.86112 32.64119
# Shear Modulus (GPa) = 0.86211 29.23785 15.04998
#
# Velocity S-wave (km/s) = 0.60431 3.51926 2.52492
# Velocity P-wave (km/s) = 3.15984 5.88809 4.72516
#
# Compressibility (1/GPa) = 0.04460053
#
# Stress axis : x y z
#
# Youngs Moduli (GPa) = 98.29656 82.13599 30.55116
#
# Poissons Ratio (x) = 0.27988 -0.07348
# Poissons Ratio (y) = 0.33495 0.12946
# Poissons Ratio (z) = -0.23641 0.34804
#
# Static dielectric constant tensor:
#      x y z
#    x 2.066770 0.000000 -0.055890 
#    y 0.000000 1.982830 0.000000 
#    z -0.055890 0.000000 3.012390 
# 
# From -- ./inp_files/294376.got.cif
#   From: 2010.05.17/outbox.cif.g08.bks.cpg/sg15_148_cif.got.tgz:294376.got - 2010.06.03 18:47:42.
