data_PCOD9302405
_publ_section_title
;
Structure prediction by ZEFSAII (Michael W. Deem and Ramdas Pophale) SiO2 
 PCOD9302405
Probable space group: C 2/C
;
_chemical_formula_sum "Si O2"
_cell_formula_units_Z 48
_cell_length_a 13.117356
_cell_length_b 13.088111
_cell_length_c 25.243985
_cell_angle_alpha 90.000000
_cell_angle_beta 39.036818
_cell_angle_gamma 90.000000
_cell_volume 2729.589856
_symmetry_space_group_name_H-M "C 2/C"
_symmetry_group_IT_number 15
_symmetry_cell_setting 'monoclinic'
loop_
_space_group_symop_operation_xyz
x,y,z
-x,y,1/2-z
-x,-y,-z
x,-y,1/2+z
1/2+x,1/2+y,z
1/2-x,1/2+y,1/2-z
1/2-x,1/2-y,-z
1/2+x,1/2-y,1/2+z
loop_
_atom_site_type_symbol
_atom_site_label
_atom_site_fract_x
_atom_site_fract_y
_atom_site_fract_z
Si Si1 0.853615 0.798650 0.847682
Si Si2 0.798385 0.135218 0.994326
Si Si3 0.181821 0.125843 0.845214
Si Si4 0.474291 0.867374 0.156010
Si Si5 0.376432 0.038113 0.005954
Si Si6 0.644427 0.957301 0.658397
O O1 0.742403 0.718796 0.858945
O O2 0.937149 0.735364 0.861308
O O3 0.000000 0.831176 0.750000
O O4 0.752940 0.890180 0.912712
O O5 0.991701 0.126243 0.913340
O O6 0.750000 0.250000 0.000000
O O7 0.738486 0.110170 0.078110
O O8 0.711306 0.053734 0.990518
O O9 0.287447 0.136925 0.748954
O O10 0.235325 0.020146 0.852020
O O11 0.520972 0.897036 0.078263
O O12 0.551356 0.954923 0.162552
O O13 0.500000 0.000000 0.000000
O O14 0.500000 0.904699 0.750000
#
# Coordination Sequence:
#
# PCOD9302405 Si02
#       6
#     8   8   8   8   8   8
#     4   9  18  35  58  80 102 131 171 217 263 312
#     4  11  22  35  50  76 110 139 168 210 261 307
#     4   9  17  35  59  79  98 130 174 218 256 305
#     4   8  17  34  57  79 101 131 173 216 257 306
#     4  11  22  35  52  76 109 143 173 213 259 308
#     4   8  16  34  58  78  97 130 176 216 251 300
#
# _framework density 17.585059999999999
#
# number of rings (size 3 to 8) (size 9 to 14) (size 15 to 20)
#    0.000    2.667    0.000    4.000    0.000    1.333 
#    0.000   10.833    0.000    0.000    0.000    0.000 
#    0.000    0.000    0.000    0.000    0.000    0.000 
#
# Total GULP energy -133815.830142 kJ/mol
# GULP energy per Si atom -5575.659589 kJ/mol
# Density = 1.754504 g / cm^3
# Si number density = 17.585060 Si / 1000 Ang^3
#
#
#
# Elastic Constant Matrix: (Units=GPa)
#
#
# Indices 1 2 3 4 5 6 
#
# 1 99.6080 43.5210 98.4333 0.0000 -3.7090 0.0000
# 2 43.5210 100.1814 91.7578 0.0000 3.8352 0.0000
# 3 98.4333 91.7578 181.0100 -0.0001 -9.9195 0.0000
# 4 0.0000 0.0000 -0.0001 31.6940 0.0000 -1.3149
# 5 -3.7090 3.8352 -9.9195 0.0000 31.6725 0.0000
# 6 0.0000 0.0000 0.0000 -1.3149 0.0000 15.3751
#
#
#
# Elastic Compliance Matrix: (Units=1/GPa)
#
#
# Indices 1 2 3 4 5 6 
#
# 1 0.022188 0.002975 -0.013686 0.000000 -0.002048 0.000000
# 2 0.002975 0.019952 -0.012052 0.000000 -0.005842 0.000000
# 3 -0.013686 -0.012052 0.019401 0.000000 0.005933 0.000000
# 4 0.000000 0.000000 0.000000 0.031664 0.000000 0.002708
# 5 -0.002048 -0.005842 0.005933 0.000000 0.033899 0.000000
# 6 0.000000 0.000000 0.000000 0.002708 0.000000 0.065272
#
#
# Mechanical properties :
#
#
# Convention : Reuss Voigt Hill
#
# Bulk Modulus (GPa) = 62.44140 94.24706 78.34423
# Shear Modulus (GPa) = 20.55581 25.55413 23.05497
#
# Velocity S-wave (km/s) = 3.42268 3.81619 3.62478
# Velocity P-wave (km/s) = 7.15576 8.55155 7.88460
#
# Compressibility (1/GPa) = 0.01601502
#
# Stress axis : x y z
#
# Youngs Moduli (GPa) = 45.06940 50.12122 51.54255
#
# Poissons Ratio (x) = -0.14910 0.70541
# Poissons Ratio (y) = -0.13407 0.62118
# Poissons Ratio (z) = 0.61682 0.60405
#
# Static dielectric constant tensor:
#      x y z
#    x 1.589020 0.000000 0.008900 
#    y 0.000000 1.587230 0.000000 
#    z 0.008900 0.000000 1.609330 
# 
# From -- ./inp_files/196511.got.cif
#   From: 2010.05.17/outbox.cif.g08.bks.cpg/sg15_99_cif.got.tgz:196511.got - 2010.06.03 18:47:42.
