data_PCOD9302298
_publ_section_title
;
Structure prediction by ZEFSAII (Michael W. Deem and Ramdas Pophale) SiO2 
 PCOD9302298
Probable space group: C 2/C
;
_chemical_formula_sum "Si O2"
_cell_formula_units_Z 40
_cell_length_a 18.178399
_cell_length_b 8.678629
_cell_length_c 9.360326
_cell_angle_alpha 90.000000
_cell_angle_beta 112.061099
_cell_angle_gamma 90.000000
_cell_volume 1368.598907
_symmetry_space_group_name_H-M "C 2/C"
_symmetry_group_IT_number 15
_symmetry_cell_setting 'monoclinic'
loop_
_space_group_symop_operation_xyz
x,y,z
-x,y,1/2-z
-x,-y,-z
x,-y,1/2+z
1/2+x,1/2+y,z
1/2-x,1/2+y,1/2-z
1/2-x,1/2-y,-z
1/2+x,1/2-y,1/2+z
loop_
_atom_site_type_symbol
_atom_site_label
_atom_site_fract_x
_atom_site_fract_y
_atom_site_fract_z
Si Si1 0.841198 0.704057 0.097859
Si Si2 0.673777 0.491782 0.284195
Si Si3 0.214996 0.410771 0.374494
Si Si4 0.526789 0.650458 0.103341
Si Si5 0.066470 0.433214 0.414763
O O1 0.826526 0.573339 0.206595
O O2 0.886814 0.593809 0.018645
O O3 0.879612 0.862491 0.174542
O O4 0.750000 0.750000 0.000000
O O5 0.723878 0.389170 0.208054
O O6 0.730445 0.566036 0.444582
O O7 0.622428 0.621089 0.167107
O O8 0.136223 0.338408 0.385191
O O9 0.500000 0.639125 0.250000
O O10 0.480090 0.808115 0.023320
O O11 0.500000 0.500000 0.000000
O O12 0.000000 0.479832 0.250000
#
# Coordination Sequence:
#
# PCOD9302298 Si02
#       5
#     8   8   8   8   8
#     4   8  19  41  72 107 151 206 263 318 404 479
#     4  11  21  44  77 112 148 206 272 320 399 489
#     4   9  22  42  77 110 151 205 269 322 394 483
#     4  11  25  45  74 116 161 207 261 334 405 472
#     4   9  21  46  74 113 156 207 261 338 408 472
#
# _framework density 29.226972
#
# number of rings (size 3 to 8) (size 9 to 14) (size 15 to 20)
#    1.200    1.200    0.000    1.200    0.000    5.600 
#    0.000   11.000    4.400    0.000    0.000    0.000 
#    0.000    0.000    0.000    0.000    0.000    0.000 
#
# Total GULP energy -111356.037614 kJ/mol
# GULP energy per Si atom -5567.801881 kJ/mol
# Density = 2.916045 g / cm^3
# Si number density = 29.226972 Si / 1000 Ang^3
#
#
#
# Elastic Constant Matrix: (Units=GPa)
#
#
# Indices 1 2 3 4 5 6 
#
# 1 198.1462 91.1139 60.7195 0.0000 5.3651 0.0000
# 2 91.1139 150.0497 23.8690 0.0000 21.7700 0.0000
# 3 60.7195 23.8690 109.4289 0.0000 6.2248 0.0000
# 4 0.0000 0.0000 0.0000 48.8788 0.0000 3.6154
# 5 5.3651 21.7700 6.2248 0.0000 53.7121 0.0000
# 6 0.0000 0.0000 0.0000 3.6154 0.0000 56.0070
#
#
#
# Elastic Compliance Matrix: (Units=1/GPa)
#
#
# Indices 1 2 3 4 5 6 
#
# 1 0.008267 -0.004654 -0.003656 0.000000 0.001484 0.000000
# 2 -0.004654 0.009917 0.000625 0.000000 -0.003627 0.000000
# 3 -0.003656 0.000625 0.011098 0.000000 -0.001174 0.000000
# 4 0.000000 0.000000 0.000000 0.020557 0.000000 -0.001327
# 5 0.001484 -0.003627 -0.001174 0.000000 0.020076 0.000000
# 6 0.000000 0.000000 0.000000 -0.001327 0.000000 0.017941
#
#
# Mechanical properties :
#
#
# Convention : Reuss Voigt Hill
#
# Bulk Modulus (GPa) = 71.87961 89.89217 80.88589
# Shear Modulus (GPa) = 46.35572 50.51443 48.43508
#
# Velocity S-wave (km/s) = 3.98686 4.16185 4.07529
# Velocity P-wave (km/s) = 6.77055 7.34289 7.06252
#
# Compressibility (1/GPa) = 0.01391215
#
# Stress axis : x y z
#
# Youngs Moduli (GPa) = 120.96380 100.83719 90.10912
#
# Poissons Ratio (x) = 0.46925 0.32948
# Poissons Ratio (y) = 0.56291 -0.05635
# Poissons Ratio (z) = 0.44230 -0.06306
#
# Static dielectric constant tensor:
#      x y z
#    x 2.294750 0.000000 0.000390 
#    y 0.000000 2.561250 0.000000 
#    z 0.000390 0.000000 2.395830 
# 
# From -- ./inp_files/116555.got.cif
#   From: 2010.05.17/outbox.cif.g08.bks.cpg/sg15_59_cif.got.tgz:116555.got - 2010.06.03 18:47:42.
