data_PCOD9302155
_publ_section_title
;
Structure prediction by ZEFSAII (Michael W. Deem and Ramdas Pophale) SiO2 
 PCOD9302155
Probable space group: C 2/C
;
_chemical_formula_sum "Si O2"
_cell_formula_units_Z 40
_cell_length_a 12.579312
_cell_length_b 8.352838
_cell_length_c 18.510615
_cell_angle_alpha 90.000000
_cell_angle_beta 106.165667
_cell_angle_gamma 90.000000
_cell_volume 1868.062450
_symmetry_space_group_name_H-M "C 2/C"
_symmetry_group_IT_number 15
_symmetry_cell_setting 'monoclinic'
loop_
_space_group_symop_operation_xyz
x,y,z
-x,y,1/2-z
-x,-y,-z
x,-y,1/2+z
1/2+x,1/2+y,z
1/2-x,1/2+y,1/2-z
1/2-x,1/2-y,-z
1/2+x,1/2-y,1/2+z
loop_
_atom_site_type_symbol
_atom_site_label
_atom_site_fract_x
_atom_site_fract_y
_atom_site_fract_z
Si Si1 0.201240 0.083171 0.014906
Si Si2 0.224185 0.563711 0.167335
Si Si3 0.821086 0.816864 0.827906
Si Si4 0.399674 0.123779 0.489303
Si Si5 0.060146 0.906598 0.890505
O O1 0.194927 0.092473 0.099290
O O2 0.250000 0.250000 0.000000
O O3 0.290879 0.954423 0.005336
O O4 0.087770 0.055195 0.949182
O O5 0.189891 0.375268 0.162231
O O6 0.236003 0.630259 0.250030
O O7 0.139377 0.659851 0.099763
O O8 0.342428 0.585381 0.149948
O O9 0.943755 0.876813 0.830404
O O10 0.432390 0.263234 0.549603
O O11 0.500000 0.000000 0.500000
#
# Coordination Sequence:
#
# PCOD9302155 Si02
#       5
#     8   8   8   8   8
#     4  11  21  42  69  97 131 173 231 279 330 417
#     4  11  25  43  65 101 137 175 225 284 346 412
#     4  12  25  44  66  98 139 175 224 285 350 401
#     4  11  22  44  70  97 129 182 233 276 341 411
#     4  11  23  45  71  94 134 182 226 279 348 408
#
# _framework density 21.412559999999999
#
# number of rings (size 3 to 8) (size 9 to 14) (size 15 to 20)
#    0.000    0.800    6.000    3.600    5.600    0.000 
#    0.000    1.000    0.000    0.000    0.000    0.000 
#    0.000    0.000    0.000    0.000    0.000    0.000 
#
# Total GULP energy -111685.415620 kJ/mol
# GULP energy per Si atom -5584.270781 kJ/mol
# Density = 2.136382 g / cm^3
# Si number density = 21.412560 Si / 1000 Ang^3
#
#
#
# Elastic Constant Matrix: (Units=GPa)
#
#
# Indices 1 2 3 4 5 6 
#
# 1 76.8276 2.6891 9.3659 0.0000 4.3538 0.0000
# 2 2.6891 69.9210 8.4723 0.0000 7.0979 0.0000
# 3 9.3659 8.4723 133.3323 0.0000 12.9383 0.0000
# 4 0.0000 0.0000 0.0000 28.4183 0.0000 1.5900
# 5 4.3538 7.0979 12.9383 0.0000 35.1685 0.0000
# 6 0.0000 0.0000 0.0000 1.5900 0.0000 39.8262
#
#
#
# Elastic Compliance Matrix: (Units=1/GPa)
#
#
# Indices 1 2 3 4 5 6 
#
# 1 0.013195 -0.000282 -0.000784 0.000000 -0.001288 0.000000
# 2 -0.000282 0.014664 -0.000651 0.000000 -0.002685 0.000000
# 3 -0.000784 -0.000651 0.007855 0.000000 -0.002661 0.000000
# 4 0.000000 0.000000 0.000000 0.035267 0.000000 -0.001408
# 5 -0.001288 -0.002685 -0.002661 0.000000 0.030115 0.000000
# 6 0.000000 0.000000 0.000000 -0.001408 0.000000 0.025165
#
#
# Mechanical properties :
#
#
# Convention : Reuss Voigt Hill
#
# Bulk Modulus (GPa) = 30.97955 35.68170 33.33063
# Shear Modulus (GPa) = 35.59855 37.98618 36.79237
#
# Velocity S-wave (km/s) = 4.08181 4.21647 4.14969
# Velocity P-wave (km/s) = 6.05923 6.35649 6.20964
#
# Compressibility (1/GPa) = 0.03227936
#
# Stress axis : x y z
#
# Youngs Moduli (GPa) = 75.78868 68.19328 127.31139
#
# Poissons Ratio (x) = 0.01921 0.09981
# Poissons Ratio (y) = 0.02135 0.08294
# Poissons Ratio (z) = 0.05941 0.04443
#
# Static dielectric constant tensor:
#      x y z
#    x 1.796300 0.000000 0.018110 
#    y 0.000000 1.750370 0.000000 
#    z 0.018110 0.000000 1.756530 
# 
# From -- ./inp_files/195223.got.cif
#   From: 2010.05.17/outbox.cif.g08.bks.cpg/sg15_98_cif.got.tgz:195223.got - 2010.06.03 18:47:42.
