data_PCOD9302161
_publ_section_title
;
Structure prediction by ZEFSAII (Michael W. Deem and Ramdas Pophale) SiO2 
 PCOD9302161
Probable space group: C 2/C
;
_chemical_formula_sum "Si O2"
_cell_formula_units_Z 48
_cell_length_a 35.442681
_cell_length_b 8.094263
_cell_length_c 19.990383
_cell_angle_alpha 90.000000
_cell_angle_beta 23.673346
_cell_angle_gamma 90.000000
_cell_volume 2302.682636
_symmetry_space_group_name_H-M "C 2/C"
_symmetry_group_IT_number 15
_symmetry_cell_setting 'monoclinic'
loop_
_space_group_symop_operation_xyz
x,y,z
-x,y,1/2-z
-x,-y,-z
x,-y,1/2+z
1/2+x,1/2+y,z
1/2-x,1/2+y,1/2-z
1/2-x,1/2-y,-z
1/2+x,1/2-y,1/2+z
loop_
_atom_site_type_symbol
_atom_site_label
_atom_site_fract_x
_atom_site_fract_y
_atom_site_fract_z
Si Si1 0.172886 0.596900 0.202484
Si Si2 0.771199 0.229695 0.543767
Si Si3 0.809332 0.513868 0.581666
Si Si4 0.872765 0.712141 0.362764
Si Si5 0.363161 0.748637 0.605304
Si Si6 0.468386 0.542240 0.226143
O O1 0.202236 0.415805 0.178674
O O2 0.127243 0.599361 0.203256
O O3 0.117706 0.682510 0.351717
O O4 0.269848 0.701528 0.037035
O O5 0.750000 0.250000 0.500000
O O6 0.761313 0.392041 0.604631
O O7 0.876785 0.159061 0.377665
O O8 0.883217 0.613680 0.415244
O O9 0.733111 0.641183 0.735285
O O10 0.850426 0.396750 0.572625
O O11 0.941547 0.865084 0.239929
O O12 0.447615 0.632201 0.447017
O O13 0.500000 0.510914 0.250000
#
# Coordination Sequence:
#
# PCOD9302161 Si02
#       6
#     8   8   8   8   8   8
#     4   9  19  39  64  92 124 169 216 265 325 399
#     4  11  21  42  70  92 130 181 221 263 337 407
#     4  11  22  41  66  96 127 178 218 267 334 402
#     4   9  20  39  65  88 124 173 216 256 334 398
#     4  11  24  40  65  98 134 166 222 283 328 387
#     4  11  24  43  62  95 134 173 221 283 330 391
#
# _framework density 20.845251000000001
#
# number of rings (size 3 to 8) (size 9 to 14) (size 15 to 20)
#    0.000    1.667    3.333    1.000    7.000    0.667 
#    3.000    0.833    0.000    0.000    0.000    0.000 
#    0.000    0.000    0.000    0.000    0.000    0.000 
#
# Total GULP energy -134072.605347 kJ/mol
# GULP energy per Si atom -5586.358556 kJ/mol
# Density = 2.079781 g / cm^3
# Si number density = 20.845251 Si / 1000 Ang^3
#
#
#
# Elastic Constant Matrix: (Units=GPa)
#
#
# Indices 1 2 3 4 5 6 
#
# 1 73.0110 11.5686 25.9017 0.0000 12.1141 0.0000
# 2 11.5686 82.0780 29.8606 0.0001 14.4898 0.0000
# 3 25.9017 29.8606 63.6304 0.0000 16.0271 0.0000
# 4 0.0000 0.0001 0.0000 -190.8613 0.0000 56.0802
# 5 12.1141 14.4898 16.0271 0.0000 26.9627 0.0000
# 6 0.0000 0.0000 0.0000 56.0802 0.0000 31.4324
#
#
#
# Elastic Compliance Matrix: (Units=1/GPa)
#
#
# Indices 1 2 3 4 5 6 
#
# 1 0.016387 0.000568 -0.005887 0.000000 -0.004168 0.000000
# 2 0.000568 0.015183 -0.006159 0.000000 -0.004754 0.000000
# 3 -0.005887 -0.006159 0.022937 0.000000 -0.007679 0.000000
# 4 0.000000 0.000000 0.000000 -0.003437 0.000000 0.006133
# 5 -0.004168 -0.004754 -0.007679 0.000000 0.046080 0.000000
# 6 0.000000 0.000000 0.000000 0.006133 0.000000 0.020872
#
#
# Mechanical properties :
#
#
# Convention : Reuss Voigt Hill
#
# Bulk Modulus (GPa) = 31.69541 39.26457 35.47999
# Shear Modulus (GPa) = 33.00430 -16.40066 8.30182
#
# Velocity S-wave (km/s) = 3.98339 -2.80801 1.99781
# Velocity P-wave (km/s) = 6.03280 2.89204 4.73067
#
# Compressibility (1/GPa) = 0.03155031
#
# Stress axis : x y z
#
# Youngs Moduli (GPa) = 61.02510 65.86130 43.59815
#
# Poissons Ratio (x) = -0.03741 0.25667
# Poissons Ratio (y) = -0.03466 0.26853
# Poissons Ratio (z) = 0.35926 0.40565
#
# Static dielectric constant tensor:
#      x y z
#    x 1.746230 0.000000 -0.004120 
#    y 0.000000 1.793530 0.000000 
#    z -0.004120 0.000000 1.716950 
# 
# From -- ./inp_files/224540.got.cif
#   From: 2010.05.17/outbox.cif.g08.bks.cpg/sg15_113_cif.got.tgz:224540.got - 2010.06.03 18:47:42.
