data_PCOD9302351
_publ_section_title
;
Structure prediction by ZEFSAII (Michael W. Deem and Ramdas Pophale) SiO2 
 PCOD9302351
Probable space group: C 2/C
;
_chemical_formula_sum "Si O2"
_cell_formula_units_Z 64
_cell_length_a 25.347746
_cell_length_b 9.520397
_cell_length_c 16.500391
_cell_angle_alpha 90.000000
_cell_angle_beta 134.374353
_cell_angle_gamma 90.000000
_cell_volume 2846.194361
_symmetry_space_group_name_H-M "C 2/C"
_symmetry_group_IT_number 15
_symmetry_cell_setting 'monoclinic'
loop_
_space_group_symop_operation_xyz
x,y,z
-x,y,1/2-z
-x,-y,-z
x,-y,1/2+z
1/2+x,1/2+y,z
1/2-x,1/2+y,1/2-z
1/2-x,1/2-y,-z
1/2+x,1/2-y,1/2+z
loop_
_atom_site_type_symbol
_atom_site_label
_atom_site_fract_x
_atom_site_fract_y
_atom_site_fract_z
Si Si1 0.248299 0.946022 0.065218
Si Si2 0.488734 0.299760 0.835412
Si Si3 0.854863 0.698214 0.148668
Si Si4 0.379379 0.522621 0.946822
Si Si5 0.878359 0.721090 0.984535
Si Si6 0.992104 0.525810 0.339881
Si Si7 0.177513 0.167726 0.329105
Si Si8 0.782158 0.897102 0.199060
O O1 0.190568 0.997263 0.068747
O O2 0.302365 0.829492 0.161388
O O3 0.296760 0.070321 0.080327
O O4 0.200617 0.869374 0.945451
O O5 0.500000 0.304170 0.750000
O O6 0.408816 0.361470 0.771513
O O7 0.486109 0.136140 0.858496
O O8 0.554731 0.387420 0.945186
O O9 0.922445 0.630042 0.271353
O O10 0.817663 0.821699 0.159290
O O11 0.875924 0.745733 0.080442
O O12 0.403267 0.360073 0.963200
O O13 0.343409 0.606284 0.834284
O O14 0.797005 0.671862 0.870174
O O15 0.937873 0.597071 0.042707
O O16 0.000000 0.519581 0.250000
O O17 0.225652 0.063276 0.326564
#
# Coordination Sequence:
#
# PCOD9302351 Si02
#       8
#     8   8   8   8   8   8   8   8
#     4  11  22  42  71  99 128 171 228 267 330 389
#     4  11  23  42  67  98 134 170 219 272 336 392
#     4  11  21  46  71  99 126 178 229 270 318 401
#     4  12  28  42  63  99 134 175 215 278 338 391
#     4  11  24  44  69  96 134 174 222 271 331 391
#     4   9  22  40  68  99 127 166 218 277 326 385
#     4  11  24  40  69 100 131 171 218 279 320 397
#     4  12  27  42  66  95 135 174 225 274 330 396
#
# _framework density 22.486167999999999
#
# number of rings (size 3 to 8) (size 9 to 14) (size 15 to 20)
#    0.000    1.000    5.000    1.125    5.250    1.000 
#    0.000    0.625    0.000    0.000    0.000    0.000 
#    0.000    0.000    0.000    0.000    0.000    0.000 
#
# Total GULP energy -178943.752603 kJ/mol
# GULP energy per Si atom -5591.992269 kJ/mol
# Density = 2.243499 g / cm^3
# Si number density = 22.486168 Si / 1000 Ang^3
#
#
#
# Elastic Constant Matrix: (Units=GPa)
#
#
# Indices 1 2 3 4 5 6 
#
# 1 25.1383 11.8428 22.0870 0.0000 17.1771 0.0000
# 2 11.8428 114.2508 60.2777 0.0000 15.1169 0.0000
# 3 22.0870 60.2777 135.3117 0.0000 24.6192 0.0000
# 4 0.0000 0.0000 0.0000 19.6484 0.0000 12.4952
# 5 17.1771 15.1169 24.6192 0.0000 27.2825 0.0000
# 6 0.0000 0.0000 0.0000 12.4952 0.0000 16.2671
#
#
#
# Elastic Compliance Matrix: (Units=1/GPa)
#
#
# Indices 1 2 3 4 5 6 
#
# 1 0.071745 0.000324 -0.004312 0.000000 -0.041459 0.000000
# 2 0.000324 0.011543 -0.004779 0.000000 -0.002287 0.000000
# 3 -0.004312 -0.004779 0.011064 0.000000 -0.004621 0.000000
# 4 0.000000 0.000000 0.000000 0.099498 0.000000 -0.076427
# 5 -0.041459 -0.002287 -0.004621 0.000000 0.068194 0.000000
# 6 0.000000 0.000000 0.000000 -0.076427 0.000000 0.120180
#
#
# Mechanical properties :
#
#
# Convention : Reuss Voigt Hill
#
# Bulk Modulus (GPa) = 13.01777 51.45731 32.23754
# Shear Modulus (GPa) = 11.75465 24.67249 18.21357
#
# Velocity S-wave (km/s) = 2.28885 3.31604 2.84912
# Velocity P-wave (km/s) = 3.57588 6.13149 5.01907
#
# Compressibility (1/GPa) = 0.07681809
#
# Stress axis : x y z
#
# Youngs Moduli (GPa) = 13.93818 86.63266 90.38516
#
# Poissons Ratio (x) = -0.02804 0.38974
# Poissons Ratio (y) = -0.00451 0.43193
# Poissons Ratio (z) = 0.06010 0.41400
#
# Static dielectric constant tensor:
#      x y z
#    x 1.832780 0.000000 -0.031750 
#    y 0.000000 1.826970 0.000000 
#    z -0.031750 0.000000 1.850420 
# 
# From -- ./inp_files/224655.got.cif
#   From: 2010.05.17/outbox.cif.g08.bks.cpg/sg15_113_cif.got.tgz:224655.got - 2010.06.03 18:47:42.
