data_PCOD9302736
_publ_section_title
;
Structure prediction by ZEFSAII (Michael W. Deem and Ramdas Pophale) SiO2 
 PCOD9302736
Probable space group: C 2/C
;
_chemical_formula_sum "Si O2"
_cell_formula_units_Z 32
_cell_length_a 15.050896
_cell_length_b 19.315305
_cell_length_c 14.790170
_cell_angle_alpha 90.000000
_cell_angle_beta 160.046179
_cell_angle_gamma 90.000000
_cell_volume 1467.323478
_symmetry_space_group_name_H-M "C 2/C"
_symmetry_group_IT_number 15
_symmetry_cell_setting 'monoclinic'
loop_
_space_group_symop_operation_xyz
x,y,z
-x,y,1/2-z
-x,-y,-z
x,-y,1/2+z
1/2+x,1/2+y,z
1/2-x,1/2+y,1/2-z
1/2-x,1/2-y,-z
1/2+x,1/2-y,1/2+z
loop_
_atom_site_type_symbol
_atom_site_label
_atom_site_fract_x
_atom_site_fract_y
_atom_site_fract_z
Si Si1 0.500000 0.813495 0.750000
Si Si2 0.203031 0.935888 0.692507
Si Si3 0.880411 0.507614 0.535198
Si Si4 0.500000 0.410579 0.250000
Si Si5 0.779143 0.281809 0.728605
O O1 0.252190 0.862959 0.498563
O O2 0.399408 0.772655 0.741824
O O3 0.144276 0.857123 0.607515
O O4 0.421902 0.959220 0.830657
O O5 0.321479 0.931559 0.907818
O O6 0.000000 0.000000 0.500000
O O7 0.610491 0.465422 0.284026
O O8 0.000000 0.521677 0.750000
O O9 0.554484 0.228358 0.542559
#
# Coordination Sequence:
#
# PCOD9302736 Si02
#       5
#     4   8   8   4   8
#     4  12  22  39  64  90 144 181 222 254 342 425
#     4  11  25  42  70  99 138 180 233 284 341 400
#     4  11  22  39  68 101 134 174 229 289 340 398
#     4  12  20  39  66 102 132 175 224 282 324 409
#     4  12  26  42  63  96 138 182 224 277 340 411
#
# _framework density 21.808416000000001
#
# number of rings (size 3 to 8) (size 9 to 14) (size 15 to 20)
#    0.000    0.500    3.750    5.250    7.000    0.000 
#    0.000    0.000    0.000    1.500    0.000    0.000 
#    0.000    0.000    0.000    0.000    0.000    0.000 
#
# Total GULP energy -89073.188720 kJ/mol
# GULP energy per Si atom -5567.074295 kJ/mol
# Density = 2.175878 g / cm^3
# Si number density = 21.808416 Si / 1000 Ang^3
#
#
#
# Elastic Constant Matrix: (Units=GPa)
#
#
# Indices 1 2 3 4 5 6 
#
# 1 111.2599 27.8187 48.6666 0.0000 0.0575 0.0000
# 2 27.8187 74.7562 33.0189 -0.0002 17.4690 0.0000
# 3 48.6666 33.0189 127.9562 0.0002 31.5697 -0.0004
# 4 0.0000 -0.0002 0.0002 36.1546 -0.0001 3.6728
# 5 0.0575 17.4690 31.5697 -0.0001 54.4419 0.0000
# 6 0.0000 0.0000 -0.0004 3.6728 0.0000 23.3688
#
#
#
# Elastic Compliance Matrix: (Units=1/GPa)
#
#
# Indices 1 2 3 4 5 6 
#
# 1 0.011785 -0.003231 -0.004553 0.000000 0.003664 0.000000
# 2 -0.003231 0.016420 -0.001995 0.000000 -0.004109 0.000000
# 3 -0.004553 -0.001995 0.011556 0.000000 -0.006056 0.000000
# 4 0.000000 0.000000 0.000000 0.028108 0.000000 -0.004418
# 5 0.003664 -0.004109 -0.006056 0.000000 0.023195 0.000000
# 6 0.000000 0.000000 0.000000 -0.004418 0.000000 0.043486
#
#
# Mechanical properties :
#
#
# Convention : Reuss Voigt Hill
#
# Bulk Modulus (GPa) = 49.49384 59.22007 54.35696
# Shear Modulus (GPa) = 31.08648 36.42426 33.75537
#
# Velocity S-wave (km/s) = 3.77959 4.09123 3.93849
# Velocity P-wave (km/s) = 6.46461 7.03784 6.75731
#
# Compressibility (1/GPa) = 0.02020453
#
# Stress axis : x y z
#
# Youngs Moduli (GPa) = 84.85101 60.90022 86.53791
#
# Poissons Ratio (x) = 0.19677 0.39398
# Poissons Ratio (y) = 0.27416 0.17261
# Poissons Ratio (z) = 0.38630 0.12147
#
# Static dielectric constant tensor:
#      x y z
#    x 1.884380 0.000000 -0.151950 
#    y 0.000000 1.799050 0.000000 
#    z -0.151950 0.000000 1.989410 
# 
# From -- ./inp_files/156409.got.cif
#   From: 2010.05.17/outbox.cif.g08.bks.cpg/sg15_79_cif.got.tgz:156409.got - 2010.06.03 18:47:42.
