data_PCOD9302413
_publ_section_title
;
Structure prediction by ZEFSAII (Michael W. Deem and Ramdas Pophale) SiO2 
 PCOD9302413
Probable space group: C 2/C
;
_chemical_formula_sum "Si O2"
_cell_formula_units_Z 64
_cell_length_a 9.877941
_cell_length_b 19.366700
_cell_length_c 24.445731
_cell_angle_alpha 90.000000
_cell_angle_beta 125.736133
_cell_angle_gamma 90.000000
_cell_volume 3796.023097
_symmetry_space_group_name_H-M "C 2/C"
_symmetry_group_IT_number 15
_symmetry_cell_setting 'monoclinic'
loop_
_space_group_symop_operation_xyz
x,y,z
-x,y,1/2-z
-x,-y,-z
x,-y,1/2+z
1/2+x,1/2+y,z
1/2-x,1/2+y,1/2-z
1/2-x,1/2-y,-z
1/2+x,1/2-y,1/2+z
loop_
_atom_site_type_symbol
_atom_site_label
_atom_site_fract_x
_atom_site_fract_y
_atom_site_fract_z
Si Si1 0.237467 0.968526 0.923257
Si Si2 0.957767 0.470339 0.078589
Si Si3 0.261773 0.663761 0.789324
Si Si4 0.252687 0.818374 0.773224
Si Si5 0.070623 0.453182 0.707124
Si Si6 0.425707 0.471109 0.292409
Si Si7 0.915452 0.664155 0.639758
Si Si8 0.898919 0.177309 0.140558
O O1 0.201436 0.885817 0.910382
O O2 0.371403 0.003091 0.911912
O O3 0.313716 0.983472 0.000542
O O4 0.058774 0.000150 0.866624
O O5 0.955387 0.514295 0.133447
O O6 0.937362 0.391529 0.096375
O O7 0.319610 0.740856 0.789462
O O8 0.387337 0.607519 0.797061
O O9 0.220177 0.650872 0.843753
O O10 0.088401 0.659623 0.714641
O O11 0.394344 0.873750 0.797112
O O12 0.171859 0.824449 0.814296
O O13 0.099093 0.832366 0.695107
O O14 0.249973 0.490086 0.749368
O O15 0.000000 0.464191 0.750000
O O16 0.500000 0.480284 0.250000
O O17 0.882799 0.744042 0.614695
#
# Coordination Sequence:
#
# PCOD9302413 Si02
#       8
#     8   8   8   8   8   8   8   8
#     4  11  22  35  57  85 112 152 190 242 282 339
#     4  11  22  36  53  86 119 146 190 238 298 330
#     4   9  18  31  56  83 111 140 184 236 283 330
#     4   9  17  32  55  84 108 141 184 233 281 330
#     4  12  22  35  58  83 114 147 187 237 285 339
#     4  12  20  35  59  82 109 146 195 230 277 339
#     4   9  17  33  53  83 114 146 178 233 289 339
#     4   9  16  32  58  81 109 142 191 228 273 342
#
# _framework density 16.859749000000001
#
# number of rings (size 3 to 8) (size 9 to 14) (size 15 to 20)
#    0.000    1.750    5.000    2.250    0.000    1.000 
#    0.000    2.500    0.000    0.750    0.000    0.000 
#    0.000    0.000    0.000    0.000    0.000    0.000 
#
# Total GULP energy -178173.164364 kJ/mol
# GULP energy per Si atom -5567.911386 kJ/mol
# Density = 1.682138 g / cm^3
# Si number density = 16.859749 Si / 1000 Ang^3
#
#
#
# Elastic Constant Matrix: (Units=GPa)
#
#
# Indices 1 2 3 4 5 6 
#
# 1 57.8302 54.4729 24.6253 0.0000 -10.7381 0.0000
# 2 54.4729 97.9536 60.6743 0.0000 -7.4357 0.0000
# 3 24.6253 60.6743 94.5037 0.0000 -6.8374 0.0000
# 4 0.0000 0.0000 0.0000 -30.8870 0.0000 30.6401
# 5 -10.7381 -7.4357 -6.8374 0.0000 16.6502 0.0000
# 6 0.0000 0.0000 0.0000 30.6401 0.0000 2.6935
#
#
#
# Elastic Compliance Matrix: (Units=1/GPa)
#
#
# Indices 1 2 3 4 5 6 
#
# 1 0.043386 -0.027457 0.007689 0.000000 0.018876 0.000000
# 2 -0.027457 0.034492 -0.015621 0.000000 -0.008719 0.000000
# 3 0.007689 -0.015621 0.019027 0.000000 0.005796 0.000000
# 4 0.000000 0.000000 0.000000 -0.002635 0.000000 0.029980
# 5 0.018876 -0.008719 0.005796 0.000000 0.070719 0.000000
# 6 0.000000 0.000000 0.000000 0.029980 0.000000 0.030222
#
#
# Mechanical properties :
#
#
# Convention : Reuss Voigt Hill
#
# Bulk Modulus (GPa) = 38.27638 58.87028 48.57333
# Shear Modulus (GPa) = 18.20173 5.05898 11.63036
#
# Velocity S-wave (km/s) = 3.28929 1.73411 2.62931
# Velocity P-wave (km/s) = 6.09737 6.24524 6.17175
#
# Compressibility (1/GPa) = 0.02612578
#
# Stress axis : x y z
#
# Youngs Moduli (GPa) = 23.04892 28.99196 52.55729
#
# Poissons Ratio (x) = 0.79603 -0.40409
# Poissons Ratio (y) = 0.63285 0.82102
# Poissons Ratio (z) = -0.17721 0.45289
#
# Static dielectric constant tensor:
#      x y z
#    x 1.560230 0.000000 -0.005720 
#    y 0.000000 1.631770 0.000000 
#    z -0.005720 0.000000 1.553650 
# 
# From -- ./inp_files/265948.got.cif
#   From: 2010.05.17/outbox.cif.g08.bks.cpg/sg15_133_cif.got.tgz:265948.got - 2010.06.03 18:47:42.
