data_PCOD9302444
_publ_section_title
;
Structure prediction by ZEFSAII (Michael W. Deem and Ramdas Pophale) SiO2 
 PCOD9302444
Probable space group: C 2/C
;
_chemical_formula_sum "Si O2"
_cell_formula_units_Z 56
_cell_length_a 10.429337
_cell_length_b 29.454788
_cell_length_c 11.751240
_cell_angle_alpha 90.000000
_cell_angle_beta 51.442932
_cell_angle_gamma 90.000000
_cell_volume 2822.904827
_symmetry_space_group_name_H-M "C 2/C"
_symmetry_group_IT_number 15
_symmetry_cell_setting 'monoclinic'
loop_
_space_group_symop_operation_xyz
x,y,z
-x,y,1/2-z
-x,-y,-z
x,-y,1/2+z
1/2+x,1/2+y,z
1/2-x,1/2+y,1/2-z
1/2-x,1/2-y,-z
1/2+x,1/2-y,1/2+z
loop_
_atom_site_type_symbol
_atom_site_label
_atom_site_fract_x
_atom_site_fract_y
_atom_site_fract_z
Si Si1 0.350425 0.614975 0.623970
Si Si2 0.092959 0.297673 0.010688
Si Si3 0.189796 0.884130 0.617552
Si Si4 0.855229 0.456185 0.677780
Si Si5 0.246920 0.712902 0.680086
Si Si6 0.188774 0.446730 0.396679
Si Si7 0.890453 0.039217 0.996713
O O1 0.290516 0.606752 0.527992
O O2 0.360473 0.668812 0.632912
O O3 0.236607 0.592949 0.783794
O O4 0.514664 0.586388 0.544269
O O5 0.177364 0.345053 0.926610
O O6 0.154263 0.259654 0.887588
O O7 0.169157 0.291110 0.095859
O O8 0.899745 0.291857 0.146508
O O9 0.230207 0.929356 0.664844
O O10 0.000000 0.870204 0.750000
O O11 0.862887 0.509447 0.646543
O O12 0.778031 0.455481 0.843351
O O13 0.030376 0.434308 0.557569
O O14 0.335579 0.464279 0.396316
O O15 0.000000 0.000000 0.000000
#
# Coordination Sequence:
#
# PCOD9302444 Si02
#       7
#     8   8   8   8   8   8   8
#     4  11  22  37  60  87 124 161 205 247 311 365
#     4   9  19  32  54  81 126 153 196 242 309 365
#     4  11  22  36  59  91 125 161 203 253 310 378
#     4  11  24  39  59  87 121 164 208 255 305 361
#     4   9  19  33  53  86 116 162 192 244 303 371
#     4  11  25  40  59  86 122 165 207 259 308 358
#     4  12  23  40  61  86 119 163 212 257 300 363
#
# _framework density 19.837723
#
# number of rings (size 3 to 8) (size 9 to 14) (size 15 to 20)
#    0.000    1.429    2.857    2.571    6.000    1.714 
#    0.000    0.000    0.000    0.000    0.000   18.000 
#    0.000    0.000    0.000    0.000    0.000    0.000 
#
# Total GULP energy -156029.178025 kJ/mol
# GULP energy per Si atom -5572.470644 kJ/mol
# Density = 1.979257 g / cm^3
# Si number density = 19.837723 Si / 1000 Ang^3
#
#
#
# Elastic Constant Matrix: (Units=GPa)
#
#
# Indices 1 2 3 4 5 6 
#
# 1 40.0878 12.0741 27.7477 0.0000 -0.7570 0.0000
# 2 12.0741 83.3116 27.7104 0.0000 -11.5568 0.0000
# 3 27.7477 27.7104 123.1312 0.0000 -22.0368 0.0000
# 4 0.0000 0.0000 0.0000 26.6791 0.0000 -6.3834
# 5 -0.7570 -11.5568 -22.0368 0.0000 21.6875 0.0000
# 6 0.0000 0.0000 0.0000 -6.3834 0.0000 20.5935
#
#
#
# Elastic Compliance Matrix: (Units=1/GPa)
#
#
# Indices 1 2 3 4 5 6 
#
# 1 0.031149 -0.003087 -0.007853 0.000000 -0.008537 0.000000
# 2 -0.003087 0.013707 -0.001346 0.000000 0.005829 0.000000
# 3 -0.007853 -0.001346 0.012243 0.000000 0.011449 0.000000
# 4 0.000000 0.000000 0.000000 0.040485 0.000000 0.012549
# 5 -0.008537 0.005829 0.011449 0.000000 0.060550 0.000000
# 6 0.000000 0.000000 0.000000 0.012549 0.000000 0.052449
#
#
# Mechanical properties :
#
#
# Convention : Reuss Voigt Hill
#
# Bulk Modulus (GPa) = 30.74250 42.39943 36.57097
# Shear Modulus (GPa) = 20.32553 25.72527 23.02540
#
# Velocity S-wave (km/s) = 3.20439 3.60500 3.41058
# Velocity P-wave (km/s) = 5.40569 6.22475 5.82962
#
# Compressibility (1/GPa) = 0.03252826
#
# Stress axis : x y z
#
# Youngs Moduli (GPa) = 32.10368 72.95708 81.68011
#
# Poissons Ratio (x) = 0.22519 0.64140
# Poissons Ratio (y) = 0.09909 0.10994
# Poissons Ratio (z) = 0.25210 0.09819
#
# Static dielectric constant tensor:
#      x y z
#    x 1.716980 0.000000 -0.009200 
#    y 0.000000 1.674400 0.000000 
#    z -0.009200 0.000000 1.690560 
# 
# From -- ./inp_files/91964.got.cif
#   From: 2010.05.17/outbox.cif.g08.bks.cpg/sg15_46_cif.got.tgz:91964.got - 2010.06.03 18:47:42.
