data_PCOD9302343
_publ_section_title
;
Structure prediction by ZEFSAII (Michael W. Deem and Ramdas Pophale) SiO2 
 PCOD9302343
Probable space group: C 2/C
;
_chemical_formula_sum "Si O2"
_cell_formula_units_Z 64
_cell_length_a 23.802567
_cell_length_b 11.967594
_cell_length_c 11.233517
_cell_angle_alpha 90.000000
_cell_angle_beta 82.674063
_cell_angle_gamma 90.000000
_cell_volume 3173.851606
_symmetry_space_group_name_H-M "C 2/C"
_symmetry_group_IT_number 15
_symmetry_cell_setting 'monoclinic'
loop_
_space_group_symop_operation_xyz
x,y,z
-x,y,1/2-z
-x,-y,-z
x,-y,1/2+z
1/2+x,1/2+y,z
1/2-x,1/2+y,1/2-z
1/2-x,1/2-y,-z
1/2+x,1/2-y,1/2+z
loop_
_atom_site_type_symbol
_atom_site_label
_atom_site_fract_x
_atom_site_fract_y
_atom_site_fract_z
Si Si1 0.026720 0.952606 0.870686
Si Si2 0.819869 0.723438 0.786782
Si Si3 0.887360 0.334288 0.498010
Si Si4 0.154819 0.062805 0.372981
Si Si5 0.313746 0.270038 0.434857
Si Si6 0.195111 0.175622 0.839171
Si Si7 0.130676 0.411911 0.438863
Si Si8 0.011778 0.315226 0.383232
O O1 0.092735 0.981332 0.858431
O O2 0.023052 0.817717 0.876317
O O3 0.000000 0.987843 0.750000
O O4 0.000000 0.000000 0.000000
O O5 0.866804 0.693940 0.870525
O O6 0.828854 0.845886 0.729992
O O7 0.757309 0.718463 0.856581
O O8 0.828918 0.635188 0.677040
O O9 0.855870 0.241071 0.584307
O O10 0.866585 0.456658 0.542258
O O11 0.955368 0.333129 0.476408
O O12 0.157802 0.131976 0.494679
O O13 0.193983 0.955408 0.367369
O O14 0.250000 0.250000 0.500000
O O15 0.311133 0.303251 0.299380
O O16 0.349127 0.157610 0.451272
O O17 0.067080 0.375348 0.420386
O O18 0.000000 0.352354 0.250000
#
# Coordination Sequence:
#
# PCOD9302343 Si02
#       8
#     8   8   8   8   8   8   8   8
#     4  11  23  41  69  96 135 180 226 280 339 408
#     4  11  24  46  67  97 134 186 217 274 356 403
#     4  12  27  42  70 106 134 169 238 284 331 405
#     4  11  25  45  69  96 136 179 224 272 345 409
#     4  11  24  46  68  96 136 184 221 271 350 406
#     4  12  28  40  71 105 135 172 233 287 329 404
#     4  11  24  44  72  95 134 184 220 277 340 409
#     4  11  21  46  69  96 134 181 224 271 349 409
#
# _framework density 20.164774000000001
#
# number of rings (size 3 to 8) (size 9 to 14) (size 15 to 20)
#    0.000    0.750    6.250    2.250    8.750    0.000 
#    0.000    0.625    0.000    0.000    0.000    0.000 
#    0.000    0.000    0.000    0.000    0.000    0.000 
#
# Total GULP energy -178893.051490 kJ/mol
# GULP energy per Si atom -5590.407859 kJ/mol
# Density = 2.011888 g / cm^3
# Si number density = 20.164774 Si / 1000 Ang^3
#
#
#
# Elastic Constant Matrix: (Units=GPa)
#
#
# Indices 1 2 3 4 5 6 
#
# 1 91.7240 -3.4395 -0.5228 0.0000 -7.9724 0.0000
# 2 -3.4395 92.3800 10.9674 0.0000 -8.2615 0.0000
# 3 -0.5228 10.9674 48.6585 0.0000 -6.3630 0.0000
# 4 0.0000 0.0000 0.0000 1.8200 0.0000 -4.1462
# 5 -7.9724 -8.2615 -6.3630 0.0000 36.5344 0.0000
# 6 0.0000 0.0000 0.0000 -4.1462 0.0000 26.2441
#
#
#
# Elastic Compliance Matrix: (Units=1/GPa)
#
#
# Indices 1 2 3 4 5 6 
#
# 1 0.011156 0.000612 0.000326 0.000000 0.002629 0.000000
# 2 0.000612 0.011320 -0.002244 0.000000 0.002303 0.000000
# 3 0.000326 -0.002244 0.021493 0.000000 0.003307 0.000000
# 4 0.000000 0.000000 0.000000 0.858386 0.000000 0.135613
# 5 0.002629 0.002303 0.003307 0.000000 0.029042 0.000000
# 6 0.000000 0.000000 0.000000 0.135613 0.000000 0.059529
#
#
# Mechanical properties :
#
#
# Convention : Reuss Voigt Hill
#
# Bulk Modulus (GPa) = 24.18009 27.41917 25.79963
# Shear Modulus (GPa) = 4.96365 27.97018 16.46692
#
# Velocity S-wave (km/s) = 1.57063 3.72839 2.86075
# Velocity P-wave (km/s) = 3.91235 5.67112 4.87176
#
# Compressibility (1/GPa) = 0.04135633
#
# Stress axis : x y z
#
# Youngs Moduli (GPa) = 89.64094 88.33976 46.52654
#
# Poissons Ratio (x) = -0.05405 -0.01516
# Poissons Ratio (y) = -0.05484 0.10440
# Poissons Ratio (z) = -0.02921 0.19822
#
# Static dielectric constant tensor:
#      x y z
#    x 1.732700 0.000000 0.001560 
#    y 0.000000 1.693570 0.000000 
#    z 0.001560 0.000000 1.724960 
# 
# From -- ./inp_files/117543.got.cif
#   From: 2010.05.17/outbox.cif.g08.bks.cpg/sg15_59_cif.got.tgz:117543.got - 2010.06.03 18:47:42.
