data_PCOD9302097
_publ_section_title
;
Structure prediction by ZEFSAII (Michael W. Deem and Ramdas Pophale) SiO2 
 PCOD9302097
Probable space group: C 2/C
;
_chemical_formula_sum "Si O2"
_cell_formula_units_Z 44
_cell_length_a 18.032854
_cell_length_b 5.298943
_cell_length_c 23.747463
_cell_angle_alpha 90.000000
_cell_angle_beta 109.784020
_cell_angle_gamma 90.000000
_cell_volume 2135.251891
_symmetry_space_group_name_H-M "C 2/C"
_symmetry_group_IT_number 15
_symmetry_cell_setting 'monoclinic'
loop_
_space_group_symop_operation_xyz
x,y,z
-x,y,1/2-z
-x,-y,-z
x,-y,1/2+z
1/2+x,1/2+y,z
1/2-x,1/2+y,1/2-z
1/2-x,1/2-y,-z
1/2+x,1/2-y,1/2+z
loop_
_atom_site_type_symbol
_atom_site_label
_atom_site_fract_x
_atom_site_fract_y
_atom_site_fract_z
Si Si1 0.473456 0.249151 0.960714
Si Si2 0.500000 0.888731 0.250000
Si Si3 0.806771 0.732063 0.864517
Si Si4 0.365735 0.731204 0.680766
Si Si5 0.853925 0.775095 0.310809
Si Si6 0.994977 0.060041 0.150166
O O1 0.379422 0.241751 0.926612
O O2 0.510314 0.280245 0.907687
O O3 0.500000 0.500000 0.000000
O O4 0.500000 0.000000 0.000000
O O5 0.537029 0.721419 0.210043
O O6 0.568996 0.048319 0.296988
O O7 0.720038 0.746539 0.868791
O O8 0.822239 0.480729 0.830857
O O9 0.813931 0.983895 0.829053
O O10 0.344578 0.702665 0.741464
O O11 0.414521 0.521516 0.659251
O O12 0.947543 0.821895 0.346492
#
# Coordination Sequence:
#
# PCOD9302097 Si02
#       6
#     8   4   8   8   8   8
#     4  11  25  48  70  89 128 181 236 278 325 391
#     4  12  22  40  70 102 154 166 216 260 366 410
#     4  11  26  40  68  98 133 174 229 273 331 394
#     4  12  23  38  64 103 139 173 213 275 336 412
#     4  11  21  42  62 101 140 176 208 265 343 419
#     4  11  24  40  70 101 132 184 220 270 341 409
#
# _framework density 20.606469000000001
#
# number of rings (size 3 to 8) (size 9 to 14) (size 15 to 20)
#    0.000    0.727    3.636    5.455    5.091    0.000 
#    0.000    1.818    0.000    0.000    0.000    0.000 
#    0.000    0.000    0.000    0.000    0.000    0.000 
#
# Total GULP energy -122817.587348 kJ/mol
# GULP energy per Si atom -5582.617607 kJ/mol
# Density = 2.055957 g / cm^3
# Si number density = 20.606469 Si / 1000 Ang^3
#
#
#
# Elastic Constant Matrix: (Units=GPa)
#
#
# Indices 1 2 3 4 5 6 
#
# 1 136.2429 50.9440 34.7563 0.0000 25.8814 0.0000
# 2 50.9440 141.2440 45.7250 -0.0002 3.3065 0.0001
# 3 34.7563 45.7250 95.7410 0.0000 0.7753 0.0000
# 4 0.0000 -0.0002 0.0000 29.3619 0.0000 -5.3255
# 5 25.8814 3.3065 0.7753 0.0000 30.9771 0.0000
# 6 0.0000 0.0001 0.0000 -5.3255 0.0000 19.0834
#
#
#
# Elastic Compliance Matrix: (Units=1/GPa)
#
#
# Indices 1 2 3 4 5 6 
#
# 1 0.010648 -0.002853 -0.002434 0.000000 -0.008531 0.000000
# 2 -0.002853 0.009159 -0.003351 0.000000 0.001490 0.000000
# 3 -0.002434 -0.003351 0.012912 0.000000 0.002068 0.000000
# 4 0.000000 0.000000 0.000000 0.035874 0.000000 0.010011
# 5 -0.008531 0.001490 0.002068 0.000000 0.039199 0.000000
# 6 0.000000 0.000000 0.000000 0.010011 0.000000 0.055195
#
#
# Mechanical properties :
#
#
# Convention : Reuss Voigt Hill
#
# Bulk Modulus (GPa) = 64.75008 70.67539 67.71274
# Shear Modulus (GPa) = 26.96738 32.00463 29.48600
#
# Velocity S-wave (km/s) = 3.62150 3.94526 3.78684
# Velocity P-wave (km/s) = 6.99839 7.42466 7.21467
#
# Compressibility (1/GPa) = 0.01544400
#
# Stress axis : x y z
#
# Youngs Moduli (GPa) = 93.91328 109.18547 77.44827
#
# Poissons Ratio (x) = 0.31150 0.18850
# Poissons Ratio (y) = 0.26793 0.25949
# Poissons Ratio (z) = 0.22858 0.36583
#
# Static dielectric constant tensor:
#      x y z
#    x 1.830130 0.000000 0.056670 
#    y 0.000000 1.798250 0.000000 
#    z 0.056670 0.000000 1.763480 
# 
# From -- ./inp_files/275733.got.cif
#   From: 2010.05.17/outbox.cif.g08.bks.cpg/sg15_138_cif.got.tgz:275733.got - 2010.06.03 18:47:42.
