data_PCOD9302334
_publ_section_title
;
Structure prediction by ZEFSAII (Michael W. Deem and Ramdas Pophale) SiO2 
 PCOD9302334
Probable space group: C 2/C
;
_chemical_formula_sum "Si O2"
_cell_formula_units_Z 52
_cell_length_a 16.312242
_cell_length_b 23.623761
_cell_length_c 9.926690
_cell_angle_alpha 90.000000
_cell_angle_beta 40.119552
_cell_angle_gamma 90.000000
_cell_volume 2464.973878
_symmetry_space_group_name_H-M "C 2/C"
_symmetry_group_IT_number 15
_symmetry_cell_setting 'monoclinic'
loop_
_space_group_symop_operation_xyz
x,y,z
-x,y,1/2-z
-x,-y,-z
x,-y,1/2+z
1/2+x,1/2+y,z
1/2-x,1/2+y,1/2-z
1/2-x,1/2-y,-z
1/2+x,1/2-y,1/2+z
loop_
_atom_site_type_symbol
_atom_site_label
_atom_site_fract_x
_atom_site_fract_y
_atom_site_fract_z
Si Si1 0.429687 0.265593 0.111893
Si Si2 0.768366 0.936725 0.572206
Si Si3 0.783544 0.855501 0.173182
Si Si4 0.000000 0.853655 0.250000
Si Si5 0.136509 0.664353 0.139625
Si Si6 0.855521 0.977157 0.172905
Si Si7 0.126272 0.710575 0.689127
O O1 0.379355 0.302376 0.049893
O O2 0.455174 0.312285 0.191019
O O3 0.339941 0.216183 0.286183
O O4 0.560753 0.237806 0.902443
O O5 0.886282 0.893349 0.441554
O O6 0.649147 0.894980 0.702700
O O7 0.799852 0.968442 0.392441
O O8 0.771885 0.979630 0.690553
O O9 0.717835 0.844425 0.401721
O O10 0.849389 0.916204 0.105909
O O11 0.688276 0.847891 0.167467
O O12 0.000000 0.676257 0.250000
O O13 0.000000 0.000000 0.000000
O O14 0.250000 0.750000 0.500000
O O15 0.000000 0.703098 0.750000
#
# Coordination Sequence:
#
# PCOD9302334 Si02
#       7
#     8   8   8   4   8   8   8
#     4  12  22  40  70 101 137 175 224 285 353 408
#     4  11  24  40  65 100 130 170 227 283 342 406
#     4  11  23  43  67  98 133 182 229 288 345 417
#     4  12  20  38  70 104 126 162 224 292 344 392
#     4  11  22  39  68  97 131 169 223 282 342 407
#     4  11  21  46  65  94 132 171 231 288 341 401
#     4  12  26  45  62  98 151 190 228 274 348 440
#
# _framework density 21.095559999999999
#
# number of rings (size 3 to 8) (size 9 to 14) (size 15 to 20)
#    0.000    0.615    8.462    0.462    2.154    0.000 
#   11.077    3.846    0.000    0.000    0.000    0.000 
#    0.000    0.000    0.000    0.000    0.000    0.000 
#
# Total GULP energy -144938.763052 kJ/mol
# GULP energy per Si atom -5574.567810 kJ/mol
# Density = 2.104755 g / cm^3
# Si number density = 21.095560 Si / 1000 Ang^3
#
#
#
# Elastic Constant Matrix: (Units=GPa)
#
#
# Indices 1 2 3 4 5 6 
#
# 1 135.8576 60.7482 4.5334 0.0000 -0.8828 0.0000
# 2 60.7482 131.4198 21.7991 0.0000 10.1686 0.0000
# 3 4.5334 21.7991 47.5493 0.0000 1.7239 0.0000
# 4 0.0000 0.0000 0.0000 18.6477 0.0000 -11.3379
# 5 -0.8828 10.1686 1.7239 0.0000 15.4953 0.0000
# 6 0.0000 0.0000 0.0000 -11.3379 0.0000 55.1001
#
#
#
# Elastic Compliance Matrix: (Units=1/GPa)
#
#
# Indices 1 2 3 4 5 6 
#
# 1 0.009527 -0.004882 0.001199 0.000000 0.003613 0.000000
# 2 -0.004882 0.011143 -0.004386 0.000000 -0.007103 0.000000
# 3 0.001199 -0.004386 0.022913 0.000000 0.000397 0.000000
# 4 0.000000 0.000000 0.000000 0.061294 0.000000 0.012612
# 5 0.003613 -0.007103 0.000397 0.000000 0.069359 0.000000
# 6 0.000000 0.000000 0.000000 0.012612 0.000000 0.020744
#
#
# Mechanical properties :
#
#
# Convention : Reuss Voigt Hill
#
# Bulk Modulus (GPa) = 36.43638 54.33201 45.38420
# Shear Modulus (GPa) = 22.69978 33.03168 27.86573
#
# Velocity S-wave (km/s) = 3.28387 3.96133 3.63840
# Velocity P-wave (km/s) = 5.62921 6.83622 6.26186
#
# Compressibility (1/GPa) = 0.02744509
#
# Stress axis : x y z
#
# Youngs Moduli (GPa) = 104.96188 89.74158 43.64393
#
# Poissons Ratio (x) = 0.43816 -0.05233
# Poissons Ratio (y) = 0.51247 0.19140
# Poissons Ratio (z) = -0.12585 0.39357
#
# Static dielectric constant tensor:
#      x y z
#    x 2.004240 0.000000 0.039080 
#    y 0.000000 1.767880 0.000000 
#    z 0.039080 0.000000 1.833080 
# 
# From -- ./inp_files/107475.got.cif
#   From: 2010.05.17/outbox.cif.g08.bks.cpg/sg15_54_cif.got.tgz:107475.got - 2010.06.03 18:47:42.
