data_PCOD9302830
_publ_section_title
;
Structure prediction by ZEFSAII (Michael W. Deem and Ramdas Pophale) SiO2 
 PCOD9302830
Probable space group: C 2/C
;
_chemical_formula_sum "Si O2"
_cell_formula_units_Z 32
_cell_length_a 22.620421
_cell_length_b 5.400109
_cell_length_c 11.619412
_cell_angle_alpha 90.000000
_cell_angle_beta 114.443248
_cell_angle_gamma 90.000000
_cell_volume 1292.129534
_symmetry_space_group_name_H-M "C 2/C"
_symmetry_group_IT_number 15
_symmetry_cell_setting 'monoclinic'
loop_
_space_group_symop_operation_xyz
x,y,z
-x,y,1/2-z
-x,-y,-z
x,-y,1/2+z
1/2+x,1/2+y,z
1/2-x,1/2+y,1/2-z
1/2-x,1/2-y,-z
1/2+x,1/2-y,1/2+z
loop_
_atom_site_type_symbol
_atom_site_label
_atom_site_fract_x
_atom_site_fract_y
_atom_site_fract_z
Si Si1 0.736141 0.550526 0.585937
Si Si2 0.440575 0.048733 0.537665
Si Si3 0.160012 0.744748 0.221697
Si Si4 0.403217 0.446761 0.126410
O O1 0.750000 0.750000 0.500000
O O2 0.803347 0.407022 0.650645
O O3 0.719665 0.637682 0.700991
O O4 0.666724 0.442511 0.493500
O O5 0.379285 0.083548 0.401920
O O6 0.439113 0.305421 0.610083
O O7 0.500000 0.000000 0.500000
O O8 0.436470 0.808760 0.615388
O O9 0.112596 0.934564 0.249949
#
# Coordination Sequence:
#
# PCOD9302830 Si02
#       4
#     8   8   8   8
#     4  11  22  40  66 101 138 174 221 275 336 407
#     4  11  26  47  69  97 135 176 229 277 326 398
#     4  11  22  40  68  99 136 179 217 277 339 391
#     4  11  24  43  68 100 132 174 225 276 333 398
#
# _framework density 24.765318000000001
#
# number of rings (size 3 to 8) (size 9 to 14) (size 15 to 20)
#    0.000    1.000    0.000    7.500    0.000    7.000 
#    0.000    5.000    0.000    0.000    0.000    0.000 
#    0.000    0.000    0.000    0.000    0.000    0.000 
#
# Total GULP energy -89479.226373 kJ/mol
# GULP energy per Si atom -5592.451648 kJ/mol
# Density = 2.470895 g / cm^3
# Si number density = 24.765318 Si / 1000 Ang^3
#
#
#
# Elastic Constant Matrix: (Units=GPa)
#
#
# Indices 1 2 3 4 5 6 
#
# 1 132.8002 75.4757 21.1591 0.0000 -32.3727 0.0000
# 2 75.4757 179.6740 43.1311 0.0000 -39.3053 0.0000
# 3 21.1591 43.1311 61.8838 0.0000 -15.8977 0.0000
# 4 0.0000 0.0000 0.0000 17.9989 0.0000 -33.6275
# 5 -32.3727 -39.3053 -15.8977 0.0000 61.3944 0.0000
# 6 0.0000 0.0000 0.0000 -33.6275 0.0000 16.5804
#
#
#
# Elastic Compliance Matrix: (Units=1/GPa)
#
#
# Indices 1 2 3 4 5 6 
#
# 1 0.010384 -0.003631 -0.000225 0.000000 0.003092 0.000000
# 2 -0.003631 0.008639 -0.004125 0.000000 0.002548 0.000000
# 3 -0.000225 -0.004125 0.019714 0.000000 0.002345 0.000000
# 4 0.000000 0.000000 0.000000 -0.019919 0.000000 -0.040399
# 5 0.003092 0.002548 0.002345 0.000000 0.020157 0.000000
# 6 0.000000 0.000000 0.000000 -0.040399 0.000000 -0.021623
#
#
# Mechanical properties :
#
#
# Convention : Reuss Voigt Hill
#
# Bulk Modulus (GPa) = 43.91078 72.65442 58.28260
# Shear Modulus (GPa) = 122.23959 34.83422 78.53691
#
# Velocity S-wave (km/s) = 7.03323 3.75450 5.63749
# Velocity P-wave (km/s) = 9.15010 6.94232 8.12158
#
# Compressibility (1/GPa) = 0.02277345
#
# Stress axis : x y z
#
# Youngs Moduli (GPa) = 96.30591 115.76039 50.72657
#
# Poissons Ratio (x) = 0.42037 0.01141
# Poissons Ratio (y) = 0.34973 0.20923
# Poissons Ratio (z) = 0.02167 0.47747
#
# Static dielectric constant tensor:
#      x y z
#    x 1.875400 0.000000 -0.024990 
#    y 0.000000 2.211880 0.000000 
#    z -0.024990 0.000000 1.956540 
# 
# From -- ./inp_files/109055.got.cif
#   From: 2010.05.17/outbox.cif.g08.bks.cpg/sg15_55_cif.got.tgz:109055.got - 2010.06.03 18:47:42.
