data_PCOD9302283
_publ_section_title
;
Structure prediction by ZEFSAII (Michael W. Deem and Ramdas Pophale) SiO2 
 PCOD9302283
Probable space group: C 2/C
;
_chemical_formula_sum "Si O2"
_cell_formula_units_Z 44
_cell_length_a 9.753877
_cell_length_b 21.357713
_cell_length_c 11.317647
_cell_angle_alpha 90.000000
_cell_angle_beta 123.519896
_cell_angle_gamma 90.000000
_cell_volume 1965.598893
_symmetry_space_group_name_H-M "C 2/C"
_symmetry_group_IT_number 15
_symmetry_cell_setting 'monoclinic'
loop_
_space_group_symop_operation_xyz
x,y,z
-x,y,1/2-z
-x,-y,-z
x,-y,1/2+z
1/2+x,1/2+y,z
1/2-x,1/2+y,1/2-z
1/2-x,1/2-y,-z
1/2+x,1/2-y,1/2+z
loop_
_atom_site_type_symbol
_atom_site_label
_atom_site_fract_x
_atom_site_fract_y
_atom_site_fract_z
Si Si1 0.000000 0.029796 0.250000
Si Si2 0.153488 0.121902 0.132713
Si Si3 0.071462 0.572637 0.671331
Si Si4 0.194919 0.747398 0.335896
Si Si5 0.181465 0.459939 0.981721
Si Si6 0.885324 0.872166 0.310540
O O1 0.095019 0.075981 0.206422
O O2 0.146762 0.991996 0.389598
O O3 0.232002 0.188521 0.198743
O O4 0.276655 0.082812 0.108648
O O5 0.000709 0.139269 0.975571
O O6 0.094936 0.583158 0.541436
O O7 0.267190 0.570452 0.790249
O O8 0.000000 0.610815 0.750000
O O9 0.948642 0.513873 0.609381
O O10 0.250000 0.750000 0.500000
O O11 0.222743 0.812046 0.277990
O O12 0.000000 0.740262 0.250000
O O13 0.000000 0.881623 0.250000
#
# Coordination Sequence:
#
# PCOD9302283 Si02
#       6
#     4   8   8   8   8   8
#     4  12  26  42  66 106 146 190 238 298 376 444
#     4  12  24  45  70 103 142 194 243 305 361 440
#     4  11  22  38  65 101 133 178 234 287 357 431
#     4  11  22  42  73 104 134 190 254 296 357 436
#     4  11  23  41  65  97 145 186 237 292 365 437
#     4  11  21  44  71  98 139 191 239 289 370 426
#
# _framework density 22.385034000000001
#
# number of rings (size 3 to 8) (size 9 to 14) (size 15 to 20)
#    0.000    0.727    5.455    3.818    0.000    5.091 
#    1.636    0.909    0.000    0.000    0.000    0.000 
#    0.000    0.000    0.000    0.000    0.000    0.000 
#
# Total GULP energy -122624.622404 kJ/mol
# GULP energy per Si atom -5573.846473 kJ/mol
# Density = 2.233408 g / cm^3
# Si number density = 22.385034 Si / 1000 Ang^3
#
#
#
# Elastic Constant Matrix: (Units=GPa)
#
#
# Indices 1 2 3 4 5 6 
#
# 1 133.4571 40.0124 15.4581 0.0000 -20.1378 0.0000
# 2 40.0124 127.1442 20.9230 0.0000 7.4364 0.0000
# 3 15.4581 20.9230 61.5250 0.0000 11.2637 0.0000
# 4 0.0000 0.0000 0.0000 257.1364 0.0000 155.5863
# 5 -20.1378 7.4364 11.2637 0.0000 54.0878 0.0000
# 6 0.0000 0.0000 0.0000 155.5863 0.0000 119.1683
#
#
#
# Elastic Compliance Matrix: (Units=1/GPa)
#
#
# Indices 1 2 3 4 5 6 
#
# 1 0.009225 -0.002799 -0.002147 0.000000 0.004266 0.000000
# 2 -0.002799 0.009198 -0.002082 0.000000 -0.001873 0.000000
# 3 -0.002147 -0.002082 0.018292 0.000000 -0.004322 0.000000
# 4 0.000000 0.000000 0.000000 0.018518 0.000000 -0.024177
# 5 0.004266 -0.001873 -0.004322 0.000000 0.021235 0.000000
# 6 0.000000 0.000000 0.000000 -0.024177 0.000000 0.039956
#
#
# Mechanical properties :
#
#
# Convention : Reuss Voigt Hill
#
# Bulk Modulus (GPa) = 44.13186 52.76815 48.45000
# Shear Modulus (GPa) = 36.22332 102.46069 69.34201
#
# Velocity S-wave (km/s) = 4.02704 6.77284 5.57173
# Velocity P-wave (km/s) = 6.43276 9.20793 7.94249
#
# Compressibility (1/GPa) = 0.02265937
#
# Stress axis : x y z
#
# Youngs Moduli (GPa) = 108.40392 108.71730 54.66804
#
# Poissons Ratio (x) = 0.30433 0.11736
# Poissons Ratio (y) = 0.30345 0.11381
# Poissons Ratio (z) = 0.23272 0.22632
#
# Static dielectric constant tensor:
#      x y z
#    x 1.865840 0.000000 -0.024750 
#    y 0.000000 1.916300 0.000000 
#    z -0.024750 0.000000 1.946830 
# 
# From -- ./inp_files/79970.got.cif
#   From: 2010.05.17/outbox.cif.g08.bks.cpg/sg15_40_cif.got.tgz:79970.got - 2010.06.03 18:47:42.
