data_PCOD9302998
_publ_section_title
;
Structure prediction by ZEFSAII (Michael W. Deem and Ramdas Pophale) SiO2 
 PCOD9302998
Probable space group: C 2/C
;
_chemical_formula_sum "Si O2"
_cell_formula_units_Z 48
_cell_length_a 7.893072
_cell_length_b 10.775579
_cell_length_c 26.836334
_cell_angle_alpha 90.000000
_cell_angle_beta 69.730942
_cell_angle_gamma 90.000000
_cell_volume 2141.154301
_symmetry_space_group_name_H-M "C 2/C"
_symmetry_group_IT_number 15
_symmetry_cell_setting 'monoclinic'
loop_
_space_group_symop_operation_xyz
x,y,z
-x,y,1/2-z
-x,-y,-z
x,-y,1/2+z
1/2+x,1/2+y,z
1/2-x,1/2+y,1/2-z
1/2-x,1/2-y,-z
1/2+x,1/2-y,1/2+z
loop_
_atom_site_type_symbol
_atom_site_label
_atom_site_fract_x
_atom_site_fract_y
_atom_site_fract_z
Si Si1 0.462501 0.966611 0.370311
Si Si2 0.262323 0.388127 0.019153
Si Si3 0.834358 0.695468 0.793586
Si Si4 0.803302 0.074923 0.784420
Si Si5 0.359938 0.361662 0.460436
Si Si6 0.922916 0.264077 0.848701
O O1 0.410498 0.922555 0.429959
O O2 0.395711 0.859801 0.339674
O O3 0.673251 0.988291 0.337538
O O4 0.366648 0.096307 0.367190
O O5 0.440186 0.380107 0.036226
O O6 0.250000 0.250000 0.000000
O O7 0.277618 0.501481 0.978511
O O8 0.800615 0.585325 0.756980
O O9 0.638730 0.755975 0.818312
O O10 0.000000 0.765895 0.750000
O O11 0.834710 0.208786 0.807835
O O12 0.000000 0.028901 0.750000
O O13 0.250000 0.250000 0.500000
O O14 0.377048 0.320437 0.401345
#
# Coordination Sequence:
#
# PCOD9302998 Si02
#       6
#     8   8   8   8   8   8
#     4  11  22  41  67  92 131 172 211 267 328 390
#     4  11  26  43  67  98 131 175 221 275 333 393
#     4   9  20  41  61  91 131 164 214 263 321 390
#     4   9  22  39  62  95 127 164 214 262 320 390
#     4  11  24  44  66  96 133 169 221 276 327 393
#     4  11  22  41  67  94 128 172 216 266 335 389
#
# _framework density 22.417815000000001
#
# number of rings (size 3 to 8) (size 9 to 14) (size 15 to 20)
#    0.000    1.667    3.333    0.000    2.333    8.667 
#    0.000    3.333    0.000    0.000    0.000    0.000 
#    0.000    0.000    0.000    0.000    0.000    0.000 
#
# Total GULP energy -133892.313411 kJ/mol
# GULP energy per Si atom -5578.846392 kJ/mol
# Density = 2.236679 g / cm^3
# Si number density = 22.417815 Si / 1000 Ang^3
#
#
#
# Elastic Constant Matrix: (Units=GPa)
#
#
# Indices 1 2 3 4 5 6 
#
# 1 60.1919 -1.7148 24.4068 0.0000 -14.3608 0.0000
# 2 -1.7148 133.9554 44.8641 0.0000 -4.4525 0.0000
# 3 24.4068 44.8641 137.1521 0.0000 -24.3529 0.0000
# 4 0.0000 0.0000 0.0000 -51.2574 0.0000 -17.8854
# 5 -14.3608 -4.4525 -24.3529 0.0000 32.1135 0.0000
# 6 0.0000 0.0000 0.0000 -17.8854 0.0000 11.9373
#
#
#
# Elastic Compliance Matrix: (Units=1/GPa)
#
#
# Indices 1 2 3 4 5 6 
#
# 1 0.019368 0.001374 -0.002686 0.000000 0.006815 0.000000
# 2 0.001374 0.008512 -0.003132 0.000000 -0.000581 0.000000
# 3 -0.002686 -0.003132 0.009826 0.000000 0.005816 0.000000
# 4 0.000000 0.000000 0.000000 -0.012812 0.000000 -0.019195
# 5 0.006815 -0.000581 0.005816 0.000000 0.038517 0.000000
# 6 0.000000 0.000000 0.000000 -0.019195 0.000000 0.055011
#
#
# Mechanical properties :
#
#
# Convention : Reuss Voigt Hill
#
# Bulk Modulus (GPa) = 34.70001 51.82351 43.26176
# Shear Modulus (GPa) = 36.51818 16.14155 26.32987
#
# Velocity S-wave (km/s) = 4.04044 2.68625 3.43083
# Velocity P-wave (km/s) = 6.10567 5.72613 5.91895
#
# Compressibility (1/GPa) = 0.02881844
#
# Stress axis : x y z
#
# Youngs Moduli (GPa) = 51.63242 117.47466 101.76583
#
# Poissons Ratio (x) = -0.16141 0.27334
# Poissons Ratio (y) = -0.07094 0.31874
# Poissons Ratio (z) = 0.13869 0.36795
#
# Static dielectric constant tensor:
#      x y z
#    x 1.867640 0.000000 -0.081360 
#    y 0.000000 1.824120 0.000000 
#    z -0.081360 0.000000 1.809390 
# 
# From -- ./inp_files/287543.got.cif
#   From: 2010.05.17/outbox.cif.g08.bks.cpg/sg15_144_cif.got.tgz:287543.got - 2010.06.03 18:47:42.
