data_PCOD9302479
_publ_section_title
;
Structure prediction by ZEFSAII (Michael W. Deem and Ramdas Pophale) SiO2 
 PCOD9302479
Probable space group: C 2/C
;
_chemical_formula_sum "Si O2"
_cell_formula_units_Z 40
_cell_length_a 12.356244
_cell_length_b 27.487425
_cell_length_c 8.864762
_cell_angle_alpha 90.000000
_cell_angle_beta 137.422411
_cell_angle_gamma 90.000000
_cell_volume 2037.097905
_symmetry_space_group_name_H-M "C 2/C"
_symmetry_group_IT_number 15
_symmetry_cell_setting 'monoclinic'
loop_
_space_group_symop_operation_xyz
x,y,z
-x,y,1/2-z
-x,-y,-z
x,-y,1/2+z
1/2+x,1/2+y,z
1/2-x,1/2+y,1/2-z
1/2-x,1/2-y,-z
1/2+x,1/2-y,1/2+z
loop_
_atom_site_type_symbol
_atom_site_label
_atom_site_fract_x
_atom_site_fract_y
_atom_site_fract_z
Si Si1 0.822802 0.445061 0.502576
Si Si2 0.419927 0.157040 0.019699
Si Si3 0.678398 0.481528 0.653027
Si Si4 0.351109 0.893341 0.989517
Si Si5 0.318929 0.800773 0.123173
O O1 0.809850 0.387713 0.460134
O O2 0.704272 0.465071 0.508157
O O3 0.793394 0.474010 0.318809
O O4 0.000000 0.453352 0.750000
O O5 0.500000 0.179680 0.250000
O O6 0.559977 0.131057 0.063621
O O7 0.326990 0.192021 0.810791
O O8 0.500000 0.500000 0.500000
O O9 0.738743 0.436641 0.818772
O O10 0.500000 0.909514 0.250000
O O11 0.256536 0.850593 0.981629
O O12 0.500000 0.800367 0.250000
O O13 0.250000 0.750000 0.000000
#
# Coordination Sequence:
#
# PCOD9302479 Si02
#       5
#     8   8   8   8   8
#     4  11  22  37  60  82 115 169 218 239 293 377
#     4   9  17  36  64  86 113 157 221 249 285 369
#     4  12  24  37  54  89 130 159 204 265 316 353
#     4   9  19  37  62  83 117 165 213 248 306 384
#     4   9  20  39  64  90 118 153 205 259 323 379
#
# _framework density 19.635776
#
# number of rings (size 3 to 8) (size 9 to 14) (size 15 to 20)
#    0.000    2.400    4.000    1.800    5.600    0.000 
#    3.600    4.000    0.000    0.000    0.000    0.000 
#    0.000    0.000    0.000    0.000    0.000    0.000 
#
# Total GULP energy -111543.869275 kJ/mol
# GULP energy per Si atom -5577.193464 kJ/mol
# Density = 1.959108 g / cm^3
# Si number density = 19.635776 Si / 1000 Ang^3
#
#
#
# Elastic Constant Matrix: (Units=GPa)
#
#
# Indices 1 2 3 4 5 6 
#
# 1 76.6113 16.4846 31.8422 0.0000 -18.1147 0.0000
# 2 16.4846 99.3286 53.5002 0.0000 -11.5333 0.0000
# 3 31.8422 53.5002 87.8929 0.0000 -22.1241 0.0000
# 4 0.0000 0.0000 0.0000 50.6767 0.0000 -7.5331
# 5 -18.1147 -11.5333 -22.1241 0.0000 38.1290 0.0000
# 6 0.0000 0.0000 0.0000 -7.5331 0.0000 18.6706
#
#
#
# Elastic Compliance Matrix: (Units=1/GPa)
#
#
# Indices 1 2 3 4 5 6 
#
# 1 0.016165 0.000557 -0.004942 0.000000 0.004981 0.000000
# 2 0.000557 0.015023 -0.009528 0.000000 -0.000719 0.000000
# 3 -0.004942 -0.009528 0.020670 0.000000 0.006764 0.000000
# 4 0.000000 0.000000 0.000000 0.020992 0.000000 0.008470
# 5 0.004981 -0.000719 0.006764 0.000000 0.032300 0.000000
# 6 0.000000 0.000000 0.000000 0.008470 0.000000 0.056978
#
#
# Mechanical properties :
#
#
# Convention : Reuss Voigt Hill
#
# Bulk Modulus (GPa) = 41.60806 51.94298 46.77552
# Shear Modulus (GPa) = 25.25726 32.29564 28.77645
#
# Velocity S-wave (km/s) = 3.59038 4.05993 3.83235
# Velocity P-wave (km/s) = 6.19868 6.96334 6.59211
#
# Compressibility (1/GPa) = 0.02403381
#
# Stress axis : x y z
#
# Youngs Moduli (GPa) = 61.86348 66.56308 48.37967
#
# Poissons Ratio (x) = -0.03710 0.23908
# Poissons Ratio (y) = -0.03448 0.46095
# Poissons Ratio (z) = 0.30571 0.63419
#
# Static dielectric constant tensor:
#      x y z
#    x 1.731340 0.000000 -0.033650 
#    y 0.000000 1.768350 0.000000 
#    z -0.033650 0.000000 1.721020 
# 
# From -- ./inp_files/34715.got.cif
#   From: 2010.05.17/outbox.cif.g08.bks.cpg/sg15_18_cif.got.tgz:34715.got - 2010.06.03 18:47:42.
