data_PCOD9302941
_publ_section_title
;
Structure prediction by ZEFSAII (Michael W. Deem and Ramdas Pophale) SiO2 
 PCOD9302941
Probable space group: C 2/C
;
_chemical_formula_sum "Si O2"
_cell_formula_units_Z 32
_cell_length_a 24.056843
_cell_length_b 9.511470
_cell_length_c 8.111216
_cell_angle_alpha 90.000000
_cell_angle_beta 42.794703
_cell_angle_gamma 90.000000
_cell_volume 1260.900524
_symmetry_space_group_name_H-M "C 2/C"
_symmetry_group_IT_number 15
_symmetry_cell_setting 'monoclinic'
loop_
_space_group_symop_operation_xyz
x,y,z
-x,y,1/2-z
-x,-y,-z
x,-y,1/2+z
1/2+x,1/2+y,z
1/2-x,1/2+y,1/2-z
1/2-x,1/2-y,-z
1/2+x,1/2-y,1/2+z
loop_
_atom_site_type_symbol
_atom_site_label
_atom_site_fract_x
_atom_site_fract_y
_atom_site_fract_z
Si Si1 0.919241 0.434411 0.027627
Si Si2 0.405289 0.528104 0.241614
Si Si3 0.623308 0.801927 0.035672
Si Si4 0.682262 0.306579 0.867149
O O1 0.905029 0.600777 0.051983
O O2 0.000000 0.394592 0.750000
O O3 0.917539 0.377014 0.215991
O O4 0.845490 0.353966 0.095270
O O5 0.401043 0.639747 0.402891
O O6 0.357713 0.386775 0.392324
O O7 0.357331 0.611862 0.202908
O O8 0.500000 0.500000 0.000000
O O9 0.720740 0.813689 0.840292
#
# Coordination Sequence:
#
# PCOD9302941 Si02
#       4
#     8   8   8   8
#     4  11  23  40  60  87 122 159 199 251 304 357
#     4  11  23  40  63  92 124 161 203 252 304 361
#     4  11  23  41  62  90 122 159 203 251 302 361
#     4  11  22  41  63  89 122 161 202 250 302 359
#
# _framework density 25.378689999999999
#
# number of rings (size 3 to 8) (size 9 to 14) (size 15 to 20)
#    0.000    1.000    0.000   10.500    0.000    4.000 
#    0.000    5.000    0.000    0.000    0.000    0.000 
#    0.000    0.000    0.000    0.000    0.000    0.000 
#
# Total GULP energy -89753.157460 kJ/mol
# GULP energy per Si atom -5609.572341 kJ/mol
# Density = 2.532093 g / cm^3
# Si number density = 25.378690 Si / 1000 Ang^3
#
#
#
# Elastic Constant Matrix: (Units=GPa)
#
#
# Indices 1 2 3 4 5 6 
#
# 1 54.5349 6.4048 45.7432 0.0000 -25.1860 0.0000
# 2 6.4048 126.0503 35.9906 0.0000 -5.6227 0.0000
# 3 45.7432 35.9906 175.7214 0.0000 -40.0769 0.0000
# 4 0.0000 0.0000 0.0000 49.4694 0.0000 21.2266
# 5 -25.1860 -5.6227 -40.0769 0.0000 46.9477 0.0000
# 6 0.0000 0.0000 0.0000 21.2266 0.0000 109.2443
#
#
#
# Elastic Compliance Matrix: (Units=1/GPa)
#
#
# Indices 1 2 3 4 5 6 
#
# 1 0.027146 0.000448 -0.004749 0.000000 0.010562 0.000000
# 2 0.000448 0.008446 -0.001938 0.000000 -0.000403 0.000000
# 3 -0.004749 -0.001938 0.008308 0.000000 0.004312 0.000000
# 4 0.000000 0.000000 0.000000 0.022053 0.000000 -0.004285
# 5 0.010562 -0.000403 0.004312 0.000000 0.030599 0.000000
# 6 0.000000 0.000000 0.000000 -0.004285 0.000000 0.009986
#
#
# Mechanical properties :
#
#
# Convention : Reuss Voigt Hill
#
# Bulk Modulus (GPa) = 31.82684 59.17598 45.50141
# Shear Modulus (GPa) = 38.61265 59.01016 48.81140
#
# Velocity S-wave (km/s) = 3.90482 4.82725 4.39033
# Velocity P-wave (km/s) = 5.73569 7.37818 6.60817
#
# Compressibility (1/GPa) = 0.03142002
#
# Stress axis : x y z
#
# Youngs Moduli (GPa) = 36.83782 118.39836 120.37266
#
# Poissons Ratio (x) = -0.05303 0.57169
# Poissons Ratio (y) = -0.01650 0.23333
# Poissons Ratio (z) = 0.17495 0.22950
#
# Static dielectric constant tensor:
#      x y z
#    x 2.054090 0.000000 0.081580 
#    y 0.000000 2.015940 0.000000 
#    z 0.081580 0.000000 1.939280 
# 
# From -- ./inp_files/36810.got.cif
#   From: 2010.05.17/outbox.cif.g08.bks.cpg/sg15_19_cif.got.tgz:36810.got - 2010.06.03 18:47:42.
