data_PCOD9302933
_publ_section_title
;
Structure prediction by ZEFSAII (Michael W. Deem and Ramdas Pophale) SiO2 
 PCOD9302933
Probable space group: C 2/C
;
_chemical_formula_sum "Si O2"
_cell_formula_units_Z 56
_cell_length_a 9.409876
_cell_length_b 28.869014
_cell_length_c 12.099908
_cell_angle_alpha 90.000000
_cell_angle_beta 126.249309
_cell_angle_gamma 90.000000
_cell_volume 2650.795964
_symmetry_space_group_name_H-M "C 2/C"
_symmetry_group_IT_number 15
_symmetry_cell_setting 'monoclinic'
loop_
_space_group_symop_operation_xyz
x,y,z
-x,y,1/2-z
-x,-y,-z
x,-y,1/2+z
1/2+x,1/2+y,z
1/2-x,1/2+y,1/2-z
1/2-x,1/2-y,-z
1/2+x,1/2-y,1/2+z
loop_
_atom_site_type_symbol
_atom_site_label
_atom_site_fract_x
_atom_site_fract_y
_atom_site_fract_z
Si Si1 0.586577 0.377045 0.051122
Si Si2 0.644600 0.923186 0.169413
Si Si3 0.500000 0.472450 0.750000
Si Si4 0.233556 0.294499 0.647564
Si Si5 0.500000 0.005054 0.250000
Si Si6 0.264591 0.897253 0.901441
Si Si7 0.174782 0.048053 0.970132
Si Si8 0.003302 0.222408 0.441437
O O1 0.759058 0.387241 0.205075
O O2 0.440071 0.413582 0.021407
O O3 0.642031 0.387784 0.951308
O O4 0.523864 0.323941 0.023528
O O5 0.768705 0.932213 0.122849
O O6 0.605573 0.970511 0.217089
O O7 0.456829 0.907746 0.036111
O O8 0.669358 0.440440 0.800504
O O9 0.558351 0.503322 0.881865
O O10 0.225857 0.349535 0.660575
O O11 0.058048 0.268077 0.532072
O O12 0.362563 0.285372 0.601319
O O13 0.317343 0.273459 0.795846
O O14 0.647323 0.033684 0.384129
#
# Coordination Sequence:
#
# PCOD9302933 Si02
#       8
#     8   8   4   8   4   8   8   8
#     4  11  22  41  61  93 127 172 211 266 327 389
#     4  12  23  42  60  97 124 175 222 271 314 380
#     4  12  22  40  60  89 128 177 212 266 310 386
#     4   9  19  36  57  97 122 163 202 274 328 385
#     4  12  26  42  62  93 132 171 228 276 312 374
#     4  11  23  36  64  89 131 163 219 266 323 378
#     4  12  27  40  65  89 133 177 224 260 325 382
#     4   9  19  35  62  90 129 157 210 262 337 385
#
# _framework density 21.125729
#
# number of rings (size 3 to 8) (size 9 to 14) (size 15 to 20)
#    0.000    1.143    4.286    2.143    4.000    2.286 
#    0.000    0.000    0.000    0.857    0.000    0.000 
#    0.000    0.000    0.000    0.000    0.000    0.000 
#
# Total GULP energy -156584.596237 kJ/mol
# GULP energy per Si atom -5592.307008 kJ/mol
# Density = 2.107765 g / cm^3
# Si number density = 21.125729 Si / 1000 Ang^3
#
#
#
# Elastic Constant Matrix: (Units=GPa)
#
#
# Indices 1 2 3 4 5 6 
#
# 1 48.7205 25.5164 14.7450 0.0000 -3.6401 0.0000
# 2 25.5164 94.6539 51.3310 0.0000 6.9858 0.0000
# 3 14.7450 51.3310 135.2679 0.0000 29.6718 0.0000
# 4 0.0000 0.0000 0.0000 28.6431 0.0000 8.5197
# 5 -3.6401 6.9858 29.6718 0.0000 21.4170 0.0000
# 6 0.0000 0.0000 0.0000 8.5197 0.0000 1.9235
#
#
#
# Elastic Compliance Matrix: (Units=1/GPa)
#
#
# Indices 1 2 3 4 5 6 
#
# 1 0.025261 -0.006132 -0.002596 0.000000 0.009891 0.000000
# 2 -0.006132 0.015011 -0.005352 0.000000 0.001476 0.000000
# 3 -0.002596 -0.005352 0.013533 0.000000 -0.017445 0.000000
# 4 0.000000 0.000000 0.000000 -0.109970 0.000000 0.487094
# 5 0.009891 0.001476 -0.017445 0.000000 0.072060 0.000000
# 6 0.000000 0.000000 0.000000 0.487094 0.000000 -1.637606
#
#
# Mechanical properties :
#
#
# Convention : Reuss Voigt Hill
#
# Bulk Modulus (GPa) = 38.99232 51.31413 45.15322
# Shear Modulus (GPa) = -3.15457 22.86670 9.85606
#
# Velocity S-wave (km/s) = -1.22331 3.29357 2.16230
# Velocity P-wave (km/s) = 4.06227 6.22945 5.25871
#
# Compressibility (1/GPa) = 0.02564608
#
# Stress axis : x y z
#
# Youngs Moduli (GPa) = 39.58606 66.61722 73.89194
#
# Poissons Ratio (x) = 0.40849 0.19185
# Poissons Ratio (y) = 0.24274 0.39545
# Poissons Ratio (z) = 0.10278 0.35652
#
# Static dielectric constant tensor:
#      x y z
#    x 1.757730 0.000000 0.010460 
#    y 0.000000 1.775450 0.000000 
#    z 0.010460 0.000000 1.773310 
# 
# From -- ./inp_files/82721.got.cif
#   From: 2010.05.17/outbox.cif.g08.bks.cpg/sg15_42_cif.got.tgz:82721.got - 2010.06.03 18:47:42.
