data_PCOD9302692
_publ_section_title
;
Structure prediction by ZEFSAII (Michael W. Deem and Ramdas Pophale) SiO2 
 PCOD9302692
Probable space group: C 2/C
;
_chemical_formula_sum "Si O2"
_cell_formula_units_Z 24
_cell_length_a 7.622090
_cell_length_b 27.918167
_cell_length_c 6.860185
_cell_angle_alpha 90.000000
_cell_angle_beta 141.010100
_cell_angle_gamma 90.000000
_cell_volume 918.489187
_symmetry_space_group_name_H-M "C 2/C"
_symmetry_group_IT_number 15
_symmetry_cell_setting 'monoclinic'
loop_
_space_group_symop_operation_xyz
x,y,z
-x,y,1/2-z
-x,-y,-z
x,-y,1/2+z
1/2+x,1/2+y,z
1/2-x,1/2+y,1/2-z
1/2-x,1/2-y,-z
1/2+x,1/2-y,1/2+z
loop_
_atom_site_type_symbol
_atom_site_label
_atom_site_fract_x
_atom_site_fract_y
_atom_site_fract_z
Si Si1 0.281115 0.536506 0.410994
Si Si2 0.289582 0.873720 0.894039
Si Si3 0.913239 0.777834 0.905669
O O1 0.500000 0.500000 0.500000
O O2 0.145377 0.578035 0.163546
O O3 0.000000 0.511127 0.250000
O O4 0.500000 0.560734 0.750000
O O5 0.232563 0.828972 0.702355
O O6 0.000000 0.884699 0.750000
O O7 0.500000 0.860994 0.250000
O O8 0.700110 0.734430 0.757178
O O9 0.000000 0.777298 0.750000
#
# Coordination Sequence:
#
# PCOD9302692 Si02
#       3
#     8   8   8
#     4  12  27  47  69  94 128 169 218 271 330 393
#     4  11  22  39  65  96 129 166 213 265 318 375
#     4   9  16  29  54  90 126 161 206 257 303 360
#
# _framework density 26.129868999999999
#
# number of rings (size 3 to 8) (size 9 to 14) (size 15 to 20)
#    0.000    1.333    0.000    9.000    0.000    2.667 
#    0.000    0.000    0.000    6.000    0.000    0.000 
#    0.000    0.000    0.000    0.000    0.000    0.000 
#
# Total GULP energy -67123.030550 kJ/mol
# GULP energy per Si atom -5593.585879 kJ/mol
# Density = 2.607040 g / cm^3
# Si number density = 26.129869 Si / 1000 Ang^3
#
#
#
# Elastic Constant Matrix: (Units=GPa)
#
#
# Indices 1 2 3 4 5 6 
#
# 1 74.2091 31.2472 27.5735 0.0000 30.7182 0.0000
# 2 31.2472 154.5038 33.4976 0.0000 -0.7604 0.0000
# 3 27.5735 33.4976 133.2950 0.0000 18.8549 0.0000
# 4 0.0000 0.0000 0.0000 43.2591 0.0000 -0.8493
# 5 30.7182 -0.7604 18.8549 0.0000 51.2904 0.0000
# 6 0.0000 0.0000 0.0000 -0.8493 0.0000 27.3809
#
#
#
# Elastic Compliance Matrix: (Units=1/GPa)
#
#
# Indices 1 2 3 4 5 6 
#
# 1 0.020588 -0.003871 -0.001618 0.000000 -0.011793 0.000000
# 2 -0.003871 0.007602 -0.001533 0.000000 0.002995 0.000000
# 3 -0.001618 -0.001533 0.008532 0.000000 -0.002190 0.000000
# 4 0.000000 0.000000 0.000000 0.023131 0.000000 0.000717
# 5 -0.011793 0.002995 -0.002190 0.000000 0.027409 0.000000
# 6 0.000000 0.000000 0.000000 0.000717 0.000000 0.036544
#
#
# Mechanical properties :
#
#
# Convention : Reuss Voigt Hill
#
# Bulk Modulus (GPa) = 44.09576 60.73826 52.41701
# Shear Modulus (GPa) = 34.38539 42.36541 38.37540
#
# Velocity S-wave (km/s) = 3.63153 4.03096 3.83644
# Velocity P-wave (km/s) = 5.87335 6.70522 6.30303
#
# Compressibility (1/GPa) = 0.02267792
#
# Stress axis : x y z
#
# Youngs Moduli (GPa) = 48.57145 131.53719 117.20591
#
# Poissons Ratio (x) = 0.50919 0.18963
# Poissons Ratio (y) = 0.18802 0.17972
# Poissons Ratio (z) = 0.07858 0.20169
#
# Static dielectric constant tensor:
#      x y z
#    x 2.305340 0.000000 -0.098460 
#    y 0.000000 2.055530 0.000000 
#    z -0.098460 0.000000 1.999810 
# 
# From -- ./inp_files/25224.got.cif
#   From: 2010.05.17/outbox.cif.g08.bks.cpg/sg15_13_cif.got.tgz:25224.got - 2010.06.03 18:47:42.
