data_PCOD9302202
_publ_section_title
;
Structure prediction by ZEFSAII (Michael W. Deem and Ramdas Pophale) SiO2 
 PCOD9302202
Probable space group: C 2/C
;
_chemical_formula_sum "Si O2"
_cell_formula_units_Z 48
_cell_length_a 10.326989
_cell_length_b 23.202398
_cell_length_c 11.686370
_cell_angle_alpha 90.000000
_cell_angle_beta 49.995910
_cell_angle_gamma 90.000000
_cell_volume 2144.935169
_symmetry_space_group_name_H-M "C 2/C"
_symmetry_group_IT_number 15
_symmetry_cell_setting 'monoclinic'
loop_
_space_group_symop_operation_xyz
x,y,z
-x,y,1/2-z
-x,-y,-z
x,-y,1/2+z
1/2+x,1/2+y,z
1/2-x,1/2+y,1/2-z
1/2-x,1/2-y,-z
1/2+x,1/2-y,1/2+z
loop_
_atom_site_type_symbol
_atom_site_label
_atom_site_fract_x
_atom_site_fract_y
_atom_site_fract_z
Si Si1 0.900908 0.501422 0.932214
Si Si2 0.670844 0.845446 0.764867
Si Si3 0.334973 0.393104 0.896021
Si Si4 0.781246 0.381980 0.992765
Si Si5 0.216915 0.722834 0.847108
Si Si6 0.140879 0.214756 0.970613
O O1 0.768723 0.448884 0.027625
O O2 0.000000 0.493782 0.750000
O O3 0.801955 0.561755 0.981880
O O4 0.000000 0.500000 0.000000
O O5 0.751137 0.855446 0.841855
O O6 0.484021 0.870928 0.879125
O O7 0.773930 0.877076 0.606740
O O8 0.671631 0.780589 0.716328
O O9 0.500000 0.423456 0.750000
O O10 0.398824 0.346142 0.949854
O O11 0.723729 0.327974 0.102395
O O12 0.242584 0.701495 0.704057
O O13 0.026031 0.747918 0.967045
O O14 0.250000 0.250000 0.000000
#
# Coordination Sequence:
#
# PCOD9302202 Si02
#       6
#     8   8   8   8   8   8
#     4  12  26  47  74 101 135 193 250 288 337 422
#     4  11  21  43  67  96 137 180 214 289 346 419
#     4  12  24  44  70 103 145 178 227 301 360 405
#     4  11  23  44  69  95 137 180 238 274 338 420
#     4  12  23  41  68 103 134 179 222 281 359 418
#     4  12  23  38  66 101 141 172 221 286 353 415
#
# _framework density 22.378299999999999
#
# number of rings (size 3 to 8) (size 9 to 14) (size 15 to 20)
#    0.000    0.333    8.333    1.000    2.333    0.000 
#    0.000    5.000    0.000    0.000    0.000    0.000 
#    0.000    0.000    0.000    0.000    0.000    0.000 
#
# Total GULP energy -133797.507545 kJ/mol
# GULP energy per Si atom -5574.896148 kJ/mol
# Density = 2.232737 g / cm^3
# Si number density = 22.378300 Si / 1000 Ang^3
#
#
#
# Elastic Constant Matrix: (Units=GPa)
#
#
# Indices 1 2 3 4 5 6 
#
# 1 62.5702 8.9913 14.8374 0.0000 1.5167 0.0000
# 2 8.9913 129.1205 26.4938 0.0000 5.9875 0.0000
# 3 14.8374 26.4938 95.1377 0.0000 6.6414 0.0000
# 4 0.0000 0.0000 0.0000 35.9613 0.0000 3.3916
# 5 1.5167 5.9875 6.6414 0.0000 32.2798 0.0000
# 6 0.0000 0.0000 0.0000 3.3916 0.0000 25.7724
#
#
#
# Elastic Compliance Matrix: (Units=1/GPa)
#
#
# Indices 1 2 3 4 5 6 
#
# 1 0.016650 -0.000659 -0.002402 0.000000 -0.000166 0.000000
# 2 -0.000659 0.008277 -0.002128 0.000000 -0.001066 0.000000
# 3 -0.002402 -0.002128 0.011609 0.000000 -0.001881 0.000000
# 4 0.000000 0.000000 0.000000 0.028157 0.000000 -0.003705
# 5 -0.000166 -0.001066 -0.001881 0.000000 0.031572 0.000000
# 6 0.000000 0.000000 0.000000 -0.003705 0.000000 0.039289
#
#
# Mechanical properties :
#
#
# Convention : Reuss Voigt Hill
#
# Bulk Modulus (GPa) = 38.22652 43.05261 40.63957
# Shear Modulus (GPa) = 32.33096 34.56976 33.45036
#
# Velocity S-wave (km/s) = 3.80511 3.93464 3.87042
# Velocity P-wave (km/s) = 6.03524 6.31840 6.17845
#
# Compressibility (1/GPa) = 0.02615985
#
# Stress axis : x y z
#
# Youngs Moduli (GPa) = 60.05912 120.82250 86.13673
#
# Poissons Ratio (x) = 0.07962 0.20687
# Poissons Ratio (y) = 0.03958 0.18327
# Poissons Ratio (z) = 0.14424 0.25707
#
# Static dielectric constant tensor:
#      x y z
#    x 1.858650 0.000000 0.013580 
#    y 0.000000 1.860260 0.000000 
#    z 0.013580 0.000000 1.907750 
# 
# From -- ./inp_files/90617.got.cif
#   From: 2010.05.17/outbox.cif.g08.bks.cpg/sg15_46_cif.got.tgz:90617.got - 2010.06.03 18:47:42.
