data_PCOD9302324
_publ_section_title
;
Structure prediction by ZEFSAII (Michael W. Deem and Ramdas Pophale) SiO2 
 PCOD9302324
Probable space group: C 2/C
;
_chemical_formula_sum "Si O2"
_cell_formula_units_Z 40
_cell_length_a 9.379387
_cell_length_b 24.531350
_cell_length_c 18.024935
_cell_angle_alpha 90.000000
_cell_angle_beta 25.887965
_cell_angle_gamma 90.000000
_cell_volume 1810.781719
_symmetry_space_group_name_H-M "C 2/C"
_symmetry_group_IT_number 15
_symmetry_cell_setting 'monoclinic'
loop_
_space_group_symop_operation_xyz
x,y,z
-x,y,1/2-z
-x,-y,-z
x,-y,1/2+z
1/2+x,1/2+y,z
1/2-x,1/2+y,1/2-z
1/2-x,1/2-y,-z
1/2+x,1/2-y,1/2+z
loop_
_atom_site_type_symbol
_atom_site_label
_atom_site_fract_x
_atom_site_fract_y
_atom_site_fract_z
Si Si1 0.169052 0.268417 0.953468
Si Si2 0.861740 0.048133 0.112774
Si Si3 0.110342 0.155955 0.922460
Si Si4 0.752982 0.041180 0.424861
Si Si5 0.247114 0.871865 0.195704
O O1 0.500000 0.280127 0.750000
O O2 0.992592 0.216430 0.998108
O O3 0.250000 0.250000 0.000000
O O4 0.931348 0.319549 0.075061
O O5 0.500000 0.051760 0.250000
O O6 0.973764 0.026518 0.141182
O O7 0.993167 0.108416 0.031504
O O8 0.000000 0.000000 0.000000
O O9 0.500000 0.159626 0.750000
O O10 0.064116 0.141219 0.857962
O O11 0.519075 0.082325 0.577676
O O12 0.000000 0.068009 0.250000
O O13 0.500000 0.000000 0.500000
O O14 0.000000 0.893213 0.250000
#
# Coordination Sequence:
#
# PCOD9302324 Si02
#       5
#     8   8   8   8   8
#     4  11  21  45  74 101 140 189 240 294 355 423
#     4  12  27  45  75 103 137 187 238 293 353 426
#     4  11  23  47  72 101 142 188 236 286 359 425
#     4  12  27  47  70 104 143 184 235 292 357 428
#     4  12  27  44  72 105 145 187 233 297 352 425
#
# _framework density 22.089907
#
# number of rings (size 3 to 8) (size 9 to 14) (size 15 to 20)
#    0.000    0.400    6.000    3.000    8.400    1.600 
#    0.000    0.000    0.000    0.000    0.000    0.000 
#    0.000    0.000    0.000    0.000    0.000    0.000 
#
# Total GULP energy -111492.919910 kJ/mol
# GULP energy per Si atom -5574.645996 kJ/mol
# Density = 2.203963 g / cm^3
# Si number density = 22.089907 Si / 1000 Ang^3
#
#
#
# Elastic Constant Matrix: (Units=GPa)
#
#
# Indices 1 2 3 4 5 6 
#
# 1 150.1497 -7.2803 21.1048 -0.0136 4.6176 -0.0045
# 2 -7.2803 86.1937 14.7789 -0.0305 -6.7112 -0.0094
# 3 21.1048 14.7789 58.8629 -0.1982 -1.7279 0.0029
# 4 -0.0136 -0.0305 -0.1982 36.4592 0.0032 4.4023
# 5 4.6176 -6.7112 -1.7279 0.0032 46.3046 0.0115
# 6 -0.0045 -0.0094 0.0029 4.4023 0.0115 26.2011
#
#
#
# Elastic Compliance Matrix: (Units=1/GPa)
#
#
# Indices 1 2 3 4 5 6 
#
# 1 0.007129 0.001037 -0.002836 -0.000012 -0.000667 0.000004
# 2 0.001037 0.012401 -0.003439 -0.000009 0.001566 0.000006
# 3 -0.002836 -0.003439 0.018884 0.000101 0.000489 -0.000021
# 4 -0.000012 -0.000009 0.000101 0.027996 0.000003 -0.004704
# 5 -0.000667 0.001566 0.000489 0.000003 0.021908 -0.000010
# 6 0.000004 0.000006 -0.000021 -0.004704 -0.000010 0.038957
#
#
# Mechanical properties :
#
#
# Convention : Reuss Voigt Hill
#
# Bulk Modulus (GPa) = 35.79549 39.15703 37.47626
# Shear Modulus (GPa) = 33.99866 39.56650 36.78258
#
# Velocity S-wave (km/s) = 3.92740 4.23680 4.08503
# Velocity P-wave (km/s) = 6.06676 6.45745 6.26515
#
# Compressibility (1/GPa) = 0.02793648
#
# Stress axis : x y z
#
# Youngs Moduli (GPa) = 140.26409 80.63911 52.95582
#
# Poissons Ratio (x) = -0.08359 0.15019
# Poissons Ratio (y) = -0.14539 0.18213
# Poissons Ratio (z) = 0.39780 0.27734
#
# Static dielectric constant tensor:
#      x y z
#    x 1.798590 -0.000130 0.056850 
#    y -0.000130 1.870590 0.000020 
#    z 0.056850 0.000020 1.866230 
# 
# From -- ./inp_files/193417.got.cif
#   From: 2010.05.17/outbox.cif.g08.bks.cpg/sg15_97_cif.got.tgz:193417.got - 2010.06.03 18:47:42.
