data_PCOD9302275
_publ_section_title
;
Structure prediction by ZEFSAII (Michael W. Deem and Ramdas Pophale) SiO2 
 PCOD9302275
Probable space group: C 2/C
;
_chemical_formula_sum "Si O2"
_cell_formula_units_Z 40
_cell_length_a 11.082227
_cell_length_b 26.075394
_cell_length_c 7.149285
_cell_angle_alpha 90.000000
_cell_angle_beta 135.369616
_cell_angle_gamma 90.000000
_cell_volume 1451.395396
_symmetry_space_group_name_H-M "C 2/C"
_symmetry_group_IT_number 15
_symmetry_cell_setting 'monoclinic'
loop_
_space_group_symop_operation_xyz
x,y,z
-x,y,1/2-z
-x,-y,-z
x,-y,1/2+z
1/2+x,1/2+y,z
1/2-x,1/2+y,1/2-z
1/2-x,1/2-y,-z
1/2+x,1/2-y,1/2+z
loop_
_atom_site_type_symbol
_atom_site_label
_atom_site_fract_x
_atom_site_fract_y
_atom_site_fract_z
Si Si1 0.639262 0.357617 0.631382
Si Si2 0.067423 0.713458 0.129925
Si Si3 0.114577 0.454631 0.037937
Si Si4 0.808065 0.952530 0.609418
Si Si5 0.803056 0.818800 0.382450
O O1 0.771757 0.323904 0.660457
O O2 0.699213 0.416133 0.717717
O O3 0.432973 0.351401 0.390388
O O4 0.669323 0.335527 0.874514
O O5 0.130533 0.760463 0.074379
O O6 0.000000 0.736374 0.250000
O O7 0.901040 0.683037 0.874982
O O8 0.189990 0.430284 0.309859
O O9 0.261983 0.489020 0.104018
O O10 0.000000 0.428289 0.750000
O O11 0.000000 0.500000 0.000000
O O12 0.000000 0.949602 0.750000
#
# Coordination Sequence:
#
# PCOD9302275 Si02
#       5
#     8   8   8   8   8
#     4  11  25  42  68 102 135 181 241 285 338 430
#     4  12  25  41  70  97 137 187 233 296 361 416
#     4   9  21  40  71 102 135 178 219 285 357 422
#     4  11  21  44  70 102 139 183 231 285 351 427
#     4  11  23  41  66  97 133 186 232 283 353 416
#
# _framework density 27.559685000000002
#
# number of rings (size 3 to 8) (size 9 to 14) (size 15 to 20)
#    0.000    1.200    4.000    2.400    2.800    4.800 
#    0.000    8.000    8.800    0.000    0.000    0.000 
#    0.000    0.000    0.000    0.000    0.000    0.000 
#
# Total GULP energy -112008.357534 kJ/mol
# GULP energy per Si atom -5600.417877 kJ/mol
# Density = 2.749696 g / cm^3
# Si number density = 27.559685 Si / 1000 Ang^3
#
#
#
# Elastic Constant Matrix: (Units=GPa)
#
#
# Indices 1 2 3 4 5 6 
#
# 1 106.6609 23.5384 15.2049 0.0000 20.5824 0.0000
# 2 23.5384 97.4293 19.9665 0.0000 3.2302 0.0000
# 3 15.2049 19.9665 150.8405 0.0000 16.9066 0.0000
# 4 0.0000 0.0000 0.0000 26.0061 0.0000 -1.2224
# 5 20.5824 3.2302 16.9066 0.0000 34.5627 0.0000
# 6 0.0000 0.0000 0.0000 -1.2224 0.0000 26.3247
#
#
#
# Elastic Compliance Matrix: (Units=1/GPa)
#
#
# Indices 1 2 3 4 5 6 
#
# 1 0.011162 -0.002468 -0.000084 0.000000 -0.006376 0.000000
# 2 -0.002468 0.011099 -0.001342 0.000000 0.001089 0.000000
# 3 -0.000084 -0.001342 0.007190 0.000000 -0.003342 0.000000
# 4 0.000000 0.000000 0.000000 0.038537 0.000000 0.001789
# 5 -0.006376 0.001089 -0.003342 0.000000 0.034262 0.000000
# 6 0.000000 0.000000 0.000000 0.001789 0.000000 0.038070
#
#
# Mechanical properties :
#
#
# Convention : Reuss Voigt Hill
#
# Bulk Modulus (GPa) = 46.16224 52.48338 49.32281
# Shear Modulus (GPa) = 32.18928 37.12677 34.65803
#
# Velocity S-wave (km/s) = 3.42129 3.67432 3.55006
# Velocity P-wave (km/s) = 5.69150 6.08981 5.89402
#
# Compressibility (1/GPa) = 0.02166273
#
# Stress axis : x y z
#
# Youngs Moduli (GPa) = 89.58590 90.09687 139.07782
#
# Poissons Ratio (x) = 0.22238 0.01167
# Poissons Ratio (y) = 0.22112 0.18671
# Poissons Ratio (z) = 0.00751 0.12095
#
# Static dielectric constant tensor:
#      x y z
#    x 2.222750 0.000000 -0.049070 
#    y 0.000000 2.188360 0.000000 
#    z -0.049070 0.000000 2.216150 
# 
# From -- ./inp_files/35466.got.cif
#   From: 2010.05.17/outbox.cif.g08.bks.cpg/sg15_18_cif.got.tgz:35466.got - 2010.06.03 18:47:42.
