data_PCOD9302154
_publ_section_title
;
Structure prediction by ZEFSAII (Michael W. Deem and Ramdas Pophale) SiO2 
 PCOD9302154
Probable space group: C 2/C
;
_chemical_formula_sum "Si O2"
_cell_formula_units_Z 56
_cell_length_a 8.874419
_cell_length_b 18.062728
_cell_length_c 17.914281
_cell_angle_alpha 90.000000
_cell_angle_beta 103.595071
_cell_angle_gamma 90.000000
_cell_volume 2791.132993
_symmetry_space_group_name_H-M "C 2/C"
_symmetry_group_IT_number 15
_symmetry_cell_setting 'monoclinic'
loop_
_space_group_symop_operation_xyz
x,y,z
-x,y,1/2-z
-x,-y,-z
x,-y,1/2+z
1/2+x,1/2+y,z
1/2-x,1/2+y,1/2-z
1/2-x,1/2-y,-z
1/2+x,1/2-y,1/2+z
loop_
_atom_site_type_symbol
_atom_site_label
_atom_site_fract_x
_atom_site_fract_y
_atom_site_fract_z
Si Si1 0.817198 0.779459 0.871956
Si Si2 0.915100 0.751082 0.479287
Si Si3 0.500000 0.597224 0.750000
Si Si4 0.035875 0.529270 0.841218
Si Si5 0.750100 0.890906 0.115573
Si Si6 0.229043 0.151040 0.657656
Si Si7 0.603537 0.115844 0.439381
Si Si8 0.000000 0.246795 0.250000
O O1 0.740066 0.697929 0.870472
O O2 0.696988 0.839762 0.886742
O O3 0.894212 0.793156 0.799961
O O4 0.955499 0.776650 0.947920
O O5 0.750000 0.750000 0.500000
O O6 0.889728 0.809786 0.411176
O O7 0.971017 0.671687 0.454558
O O8 0.602911 0.565820 0.831232
O O9 0.634968 0.639135 0.722030
O O10 0.197235 0.574457 0.862096
O O11 0.040871 0.457894 0.894049
O O12 0.000000 0.512819 0.750000
O O13 0.901404 0.581708 0.857605
O O14 0.713322 0.901398 0.023604
O O15 0.377678 0.202789 0.690555
#
# Coordination Sequence:
#
# PCOD9302154 Si02
#       8
#     8   8   4   8   8   8   8   4
#     4  11  21  43  62 101 134 169 221 275 328 398
#     4  11  22  40  66  99 132 168 222 275 332 395
#     4  12  20  34  69  95 120 160 242 270 298 386
#     4  12  23  47  66  94 136 180 224 270 336 410
#     4  11  21  42  69  96 126 178 228 262 325 410
#     4  12  21  39  67  96 121 180 225 269 316 406
#     4  11  26  42  68 101 138 171 213 290 340 392
#     4  12  20  38  69  91 136 176 226 262 332 404
#
# _framework density 20.063537
#
# number of rings (size 3 to 8) (size 9 to 14) (size 15 to 20)
#    0.000    0.571    6.429    4.714    0.000    1.143 
#    1.286    5.000    0.000    0.000    0.000    0.000 
#    0.000    0.000    0.000    0.000    0.000    0.000 
#
# Total GULP energy -156288.093987 kJ/mol
# GULP energy per Si atom -5581.717642 kJ/mol
# Density = 2.001787 g / cm^3
# Si number density = 20.063537 Si / 1000 Ang^3
#
#
#
# Elastic Constant Matrix: (Units=GPa)
#
#
# Indices 1 2 3 4 5 6 
#
# 1 99.9751 26.4471 14.5247 0.0000 -8.4596 0.0000
# 2 26.4471 57.2936 44.7508 0.0000 6.9403 0.0000
# 3 14.5247 44.7508 103.4010 0.0000 -6.6134 0.0000
# 4 0.0000 0.0000 0.0000 4.2152 0.0000 8.9251
# 5 -8.4596 6.9403 -6.6134 0.0000 37.7296 0.0000
# 6 0.0000 0.0000 0.0000 8.9251 0.0000 6.6122
#
#
#
# Elastic Compliance Matrix: (Units=1/GPa)
#
#
# Indices 1 2 3 4 5 6 
#
# 1 0.012114 -0.007587 0.001866 0.000000 0.004439 0.000000
# 2 -0.007587 0.033040 -0.013887 0.000000 -0.010213 0.000000
# 3 0.001866 -0.013887 0.015786 0.000000 0.005740 0.000000
# 4 0.000000 0.000000 0.000000 -0.127685 0.000000 0.172348
# 5 0.004439 -0.010213 0.005740 0.000000 0.030384 0.000000
# 6 0.000000 0.000000 0.000000 0.172348 0.000000 -0.081397
#
#
# Mechanical properties :
#
#
# Convention : Reuss Voigt Hill
#
# Bulk Modulus (GPa) = 46.03147 48.01276 47.02212
# Shear Modulus (GPa) = -70.12533 21.37455 -24.37539
#
# Velocity S-wave (km/s) = -5.91840 3.26750 -3.48934
# Velocity P-wave (km/s) = 4.86936 6.18205 2.69324
#
# Compressibility (1/GPa) = 0.02172427
#
# Stress axis : x y z
#
# Youngs Moduli (GPa) = 82.54877 30.26636 63.34662
#
# Poissons Ratio (x) = 0.22963 -0.11819
# Poissons Ratio (y) = 0.62629 0.87968
# Poissons Ratio (z) = -0.15402 0.42030
#
# Static dielectric constant tensor:
#      x y z
#    x 1.658700 0.000000 0.083090 
#    y 0.000000 1.693050 0.000000 
#    z 0.083090 0.000000 1.610180 
# 
# From -- ./inp_files/191102.got.cif
#   From: 2010.05.17/outbox.cif.g08.bks.cpg/sg15_96_cif.got.tgz:191102.got - 2010.06.03 18:47:42.
