data_PCOD9302389
_publ_section_title
;
Structure prediction by ZEFSAII (Michael W. Deem and Ramdas Pophale) SiO2 
 PCOD9302389
Probable space group: C 2/C
;
_chemical_formula_sum "Si O2"
_cell_formula_units_Z 48
_cell_length_a 8.090615
_cell_length_b 17.133653
_cell_length_c 16.602658
_cell_angle_alpha 90.000000
_cell_angle_beta 109.517974
_cell_angle_gamma 90.000000
_cell_volume 2169.239014
_symmetry_space_group_name_H-M "C 2/C"
_symmetry_group_IT_number 15
_symmetry_cell_setting 'monoclinic'
loop_
_space_group_symop_operation_xyz
x,y,z
-x,y,1/2-z
-x,-y,-z
x,-y,1/2+z
1/2+x,1/2+y,z
1/2-x,1/2+y,1/2-z
1/2-x,1/2-y,-z
1/2+x,1/2-y,1/2+z
loop_
_atom_site_type_symbol
_atom_site_label
_atom_site_fract_x
_atom_site_fract_y
_atom_site_fract_z
Si Si1 0.722210 0.687341 0.347296
Si Si2 0.329196 0.444915 0.983275
Si Si3 0.650459 0.903406 0.476486
Si Si4 0.039938 0.815453 0.072216
Si Si5 0.081607 0.723694 0.602847
Si Si6 0.301206 0.150685 0.193610
O O1 0.803286 0.630592 0.428016
O O2 0.862723 0.756865 0.352081
O O3 0.558427 0.732191 0.360938
O O4 0.697544 0.641665 0.260697
O O5 0.174896 0.504360 0.979347
O O6 0.275759 0.401599 0.891526
O O7 0.500000 0.500000 0.000000
O O8 0.388641 0.379864 0.058109
O O9 0.801472 0.863550 0.444815
O O10 0.472756 0.866160 0.412096
O O11 0.961325 0.758011 0.991855
O O12 0.265474 0.760133 0.658421
O O13 0.000000 0.633109 0.250000
#
# Coordination Sequence:
#
# PCOD9302389 Si02
#       6
#     8   8   8   8   8   8
#     4   9  16  31  56  79 103 144 200 240 266 330
#     4   9  17  33  55  79 114 154 184 225 295 356
#     4   8  14  29  55  80 101 141 192 230 272 342
#     4   7  13  27  51  81 104 132 181 234 277 327
#     4   8  15  30  53  79 103 138 192 232 268 336
#     4  11  22  34  50  82 120 149 185 247 301 331
#
# _framework density 22.127576999999999
#
# number of rings (size 3 to 8) (size 9 to 14) (size 15 to 20)
#    0.000    3.333    0.000    3.500    0.000    0.000 
#    0.000   13.333    0.000    6.000    0.000    0.000 
#    0.000    0.000    0.000    0.000    0.000    0.000 
#
# Total GULP energy -133673.935978 kJ/mol
# GULP energy per Si atom -5569.747332 kJ/mol
# Density = 2.207721 g / cm^3
# Si number density = 22.127577 Si / 1000 Ang^3
#
#
#
# Elastic Constant Matrix: (Units=GPa)
#
#
# Indices 1 2 3 4 5 6 
#
# 1 90.6788 28.2930 20.1165 0.0000 12.9037 0.0000
# 2 28.2930 124.9015 43.7331 0.0000 3.4028 0.0000
# 3 20.1165 43.7331 68.7176 0.0000 20.4592 0.0000
# 4 0.0000 0.0000 0.0000 23.4382 0.0000 6.6083
# 5 12.9037 3.4028 20.4592 0.0000 24.8318 0.0000
# 6 0.0000 0.0000 0.0000 6.6083 0.0000 28.9953
#
#
#
# Elastic Compliance Matrix: (Units=1/GPa)
#
#
# Indices 1 2 3 4 5 6 
#
# 1 0.012771 -0.002639 -0.000253 0.000000 -0.006066 0.000000
# 2 -0.002639 0.011399 -0.008514 0.000000 0.006824 0.000000
# 3 -0.000253 -0.008514 0.026048 0.000000 -0.020163 0.000000
# 4 0.000000 0.000000 0.000000 0.045595 0.000000 -0.010392
# 5 -0.006066 0.006824 -0.020163 0.000000 0.059100 0.000000
# 6 0.000000 0.000000 0.000000 -0.010392 0.000000 0.036857
#
#
# Mechanical properties :
#
#
# Convention : Reuss Voigt Hill
#
# Bulk Modulus (GPa) = 36.48807 52.06480 44.27643
# Shear Modulus (GPa) = 22.34970 28.26344 25.30657
#
# Velocity S-wave (km/s) = 3.18156 3.57780 3.38548
# Velocity P-wave (km/s) = 5.47924 6.37558 5.94433
#
# Compressibility (1/GPa) = 0.02740622
#
# Stress axis : x y z
#
# Youngs Moduli (GPa) = 78.30438 87.72532 38.39110
#
# Poissons Ratio (x) = 0.23151 0.00971
# Poissons Ratio (y) = 0.20665 0.32685
# Poissons Ratio (z) = 0.01980 0.74687
#
# Static dielectric constant tensor:
#      x y z
#    x 1.973180 0.000000 -0.001660 
#    y 0.000000 1.835930 0.000000 
#    z -0.001660 0.000000 1.806340 
# 
# From -- ./inp_files/198533.got.cif
#   From: 2010.05.17/outbox.cif.g08.bks.cpg/sg15_100_cif.got.tgz:198533.got - 2010.06.03 18:47:42.
