data_PCOD9302825
_publ_section_title
;
Structure prediction by ZEFSAII (Michael W. Deem and Ramdas Pophale) SiO2 
 PCOD9302825
Probable space group: C 2/C
;
_chemical_formula_sum "Si O2"
_cell_formula_units_Z 52
_cell_length_a 12.769513
_cell_length_b 21.893549
_cell_length_c 8.918606
_cell_angle_alpha 90.000000
_cell_angle_beta 71.492185
_cell_angle_gamma 90.000000
_cell_volume 2364.417905
_symmetry_space_group_name_H-M "C 2/C"
_symmetry_group_IT_number 15
_symmetry_cell_setting 'monoclinic'
loop_
_space_group_symop_operation_xyz
x,y,z
-x,y,1/2-z
-x,-y,-z
x,-y,1/2+z
1/2+x,1/2+y,z
1/2-x,1/2+y,1/2-z
1/2-x,1/2-y,-z
1/2+x,1/2-y,1/2+z
loop_
_atom_site_type_symbol
_atom_site_label
_atom_site_fract_x
_atom_site_fract_y
_atom_site_fract_z
Si Si1 0.086451 0.631831 0.833066
Si Si2 0.495153 0.768376 0.912043
Si Si3 0.829865 0.821827 0.591329
Si Si4 0.769516 0.065401 0.903080
Si Si5 0.885119 0.962965 0.033283
Si Si6 0.723651 0.728498 0.845751
Si Si7 0.500000 0.374585 0.750000
O O1 0.145813 0.579323 0.902294
O O2 0.192031 0.673561 0.730363
O O3 0.000000 0.608038 0.750000
O O4 0.013677 0.680691 0.958138
O O5 0.500000 0.799667 0.750000
O O6 0.592837 0.719474 0.892971
O O7 0.383374 0.729971 0.965229
O O8 0.799553 0.877723 0.498358
O O9 0.740397 0.787377 0.731584
O O10 0.921793 0.838727 0.672731
O O11 0.843278 0.058752 0.716442
O O12 0.795157 0.006621 0.994196
O O13 0.918291 0.912693 0.895373
O O14 0.000000 0.000000 0.000000
O O15 0.750000 0.750000 0.000000
#
# Coordination Sequence:
#
# PCOD9302825 Si02
#       7
#     8   8   8   8   8   8   4
#     4  11  25  44  65  99 137 184 234 275 336 414
#     4  11  23  40  64  98 143 180 220 277 324 418
#     4  11  25  38  65 108 134 179 227 268 349 421
#     4  12  25  45  69  96 137 175 229 294 357 404
#     4  12  24  43  66  99 132 167 224 298 350 413
#     4  11  22  40  65  98 143 181 221 270 331 411
#     4  12  24  38  66  96 136 168 218 280 348 412
#
# _framework density 21.992729000000001
#
# number of rings (size 3 to 8) (size 9 to 14) (size 15 to 20)
#    0.000    0.615    4.615    2.769    8.615    2.462 
#    0.000    0.769    0.000    0.000    0.000    0.000 
#    0.000    0.000    0.000    0.000    0.000    0.000 
#
# Total GULP energy -145229.048332 kJ/mol
# GULP energy per Si atom -5585.732628 kJ/mol
# Density = 2.194267 g / cm^3
# Si number density = 21.992729 Si / 1000 Ang^3
#
#
#
# Elastic Constant Matrix: (Units=GPa)
#
#
# Indices 1 2 3 4 5 6 
#
# 1 135.0021 24.8344 31.0790 0.0000 28.2918 0.0000
# 2 24.8344 56.9678 25.9955 0.0000 11.5515 0.0000
# 3 31.0790 25.9955 117.5507 0.0000 14.0016 0.0000
# 4 0.0000 0.0000 0.0000 28.8173 0.0000 8.7218
# 5 28.2918 11.5515 14.0016 0.0000 34.6164 0.0000
# 6 0.0000 0.0000 0.0000 8.7218 0.0000 38.5731
#
#
#
# Elastic Compliance Matrix: (Units=1/GPa)
#
#
# Indices 1 2 3 4 5 6 
#
# 1 0.009464 -0.002248 -0.001232 0.000000 -0.006486 0.000000
# 2 -0.002248 0.020922 -0.003593 0.000000 -0.003691 0.000000
# 3 -0.001232 -0.003593 0.009839 0.000000 -0.001773 0.000000
# 4 0.000000 0.000000 0.000000 0.037251 0.000000 -0.008423
# 5 -0.006486 -0.003691 -0.001773 0.000000 0.036138 0.000000
# 6 0.000000 0.000000 0.000000 -0.008423 0.000000 0.027829
#
#
# Mechanical properties :
#
#
# Convention : Reuss Voigt Hill
#
# Bulk Modulus (GPa) = 38.34698 52.59314 45.47006
# Shear Modulus (GPa) = 30.43571 35.57548 33.00560
#
# Velocity S-wave (km/s) = 3.72411 4.02631 3.87815
# Velocity P-wave (km/s) = 5.99717 6.75134 6.38540
#
# Compressibility (1/GPa) = 0.02607768
#
# Stress axis : x y z
#
# Youngs Moduli (GPa) = 105.66579 47.79743 101.64129
#
# Poissons Ratio (x) = 0.10745 0.12526
# Poissons Ratio (y) = 0.23754 0.36516
# Poissons Ratio (z) = 0.13022 0.17172
#
# Static dielectric constant tensor:
#      x y z
#    x 0.983250 0.000000 -0.411570 
#    y 0.000000 1.851830 0.000000 
#    z -0.411570 0.000000 1.739340 
# 
# From -- ./inp_files/33492.got.cif
#   From: 2010.05.17/outbox.cif.g08.bks.cpg/sg15_17_cif.got.tgz:33492.got - 2010.06.03 18:47:42.
