data_PCOD9302581
_publ_section_title
;
Structure prediction by ZEFSAII (Michael W. Deem and Ramdas Pophale) SiO2 
 PCOD9302581
Probable space group: C 2/C
;
_chemical_formula_sum "Si O2"
_cell_formula_units_Z 60
_cell_length_a 11.882148
_cell_length_b 20.664262
_cell_length_c 12.840072
_cell_angle_alpha 90.000000
_cell_angle_beta 110.644087
_cell_angle_gamma 90.000000
_cell_volume 2950.258250
_symmetry_space_group_name_H-M "C 2/C"
_symmetry_group_IT_number 15
_symmetry_cell_setting 'monoclinic'
loop_
_space_group_symop_operation_xyz
x,y,z
-x,y,1/2-z
-x,-y,-z
x,-y,1/2+z
1/2+x,1/2+y,z
1/2-x,1/2+y,1/2-z
1/2-x,1/2-y,-z
1/2+x,1/2-y,1/2+z
loop_
_atom_site_type_symbol
_atom_site_label
_atom_site_fract_x
_atom_site_fract_y
_atom_site_fract_z
Si Si1 0.278116 0.070138 0.633928
Si Si2 0.978949 0.725668 0.945786
Si Si3 0.300272 0.716253 0.691248
Si Si4 0.640043 0.565937 0.787741
Si Si5 0.936485 0.339304 0.629140
Si Si6 0.000000 0.645411 0.750000
Si Si7 0.369089 0.029230 0.998618
Si Si8 0.182924 0.799982 0.053235
O O1 0.173694 0.053720 0.678691
O O2 0.386237 0.101174 0.736995
O O3 0.230576 0.128742 0.548605
O O4 0.333454 0.015308 0.583205
O O5 0.835845 0.724447 0.893195
O O6 0.022399 0.689437 0.856928
O O7 0.018680 0.689127 0.063719
O O8 0.042457 0.794174 0.978728
O O9 0.349773 0.643817 0.683349
O O10 0.370214 0.775900 0.658348
O O11 0.297815 0.716127 0.817437
O O12 0.500000 0.546988 0.750000
O O13 0.750909 0.531149 0.884943
O O14 0.875967 0.397957 0.546775
O O15 0.000000 0.369604 0.750000
O O16 0.500000 0.000000 0.000000
O O17 0.250000 0.750000 0.000000
#
# Coordination Sequence:
#
# PCOD9302581 Si02
#       8
#     8   8   8   8   8   4   8   8
#     4  11  24  43  68  98 142 189 238 285 361 440
#     4  12  21  40  68  99 138 176 234 291 363 426
#     4  11  23  42  67 104 139 181 233 303 369 422
#     4  11  25  46  74 100 138 195 241 292 364 445
#     4  12  25  40  68 108 139 174 235 315 357 420
#     4  12  20  42  70 100 136 190 234 286 366 444
#     4  12  28  46  73 105 144 194 248 302 360 436
#     4  11  22  38  65  97 135 180 224 287 355 431
#
# _framework density 20.337202999999999
#
# number of rings (size 3 to 8) (size 9 to 14) (size 15 to 20)
#    0.000    0.533    6.667    2.400    4.667    0.533 
#    0.000    0.000    1.467    0.000    0.000    0.000 
#    0.000    0.000    0.000    0.000    0.000    0.000 
#
# Total GULP energy -167134.912025 kJ/mol
# GULP energy per Si atom -5571.163734 kJ/mol
# Density = 2.029091 g / cm^3
# Si number density = 20.337203 Si / 1000 Ang^3
#
#
#
# Elastic Constant Matrix: (Units=GPa)
#
#
# Indices 1 2 3 4 5 6 
#
# 1 123.6480 26.8097 33.4264 0.0000 3.0910 0.0000
# 2 26.8097 72.8647 10.5772 0.0000 -4.0639 0.0000
# 3 33.4264 10.5772 70.2051 0.0000 -2.3406 0.0000
# 4 0.0000 0.0000 0.0000 20.2188 0.0000 -8.7708
# 5 3.0910 -4.0639 -2.3406 0.0000 42.9305 0.0000
# 6 0.0000 0.0000 0.0000 -8.7708 0.0000 14.9859
#
#
#
# Elastic Compliance Matrix: (Units=1/GPa)
#
#
# Indices 1 2 3 4 5 6 
#
# 1 0.009959 -0.003107 -0.004315 0.000000 -0.001246 0.000000
# 2 -0.003107 0.015064 -0.000736 0.000000 0.001610 0.000000
# 3 -0.004315 -0.000736 0.016447 0.000000 0.001138 0.000000
# 4 0.000000 0.000000 0.000000 0.066289 0.000000 0.038797
# 5 -0.001246 0.001610 0.001138 0.000000 0.023598 0.000000
# 6 0.000000 0.000000 0.000000 0.038797 0.000000 0.089436
#
#
# Mechanical properties :
#
#
# Convention : Reuss Voigt Hill
#
# Bulk Modulus (GPa) = 39.75732 45.37159 42.56446
# Shear Modulus (GPa) = 20.36707 28.68734 24.52721
#
# Velocity S-wave (km/s) = 3.16803 3.75985 3.47656
# Velocity P-wave (km/s) = 5.74225 6.41924 6.09016
#
# Compressibility (1/GPa) = 0.02515260
#
# Stress axis : x y z
#
# Youngs Moduli (GPa) = 100.41267 66.38315 60.80000
#
# Poissons Ratio (x) = 0.20628 0.26236
# Poissons Ratio (y) = 0.31202 0.04477
# Poissons Ratio (z) = 0.43329 0.04889
#
# Static dielectric constant tensor:
#      x y z
#    x 1.784780 0.000000 0.050970 
#    y 0.000000 1.754800 0.000000 
#    z 0.050970 0.000000 1.754930 
# 
# From -- ./inp_files/90882.got.cif
#   From: 2010.05.17/outbox.cif.g08.bks.cpg/sg15_46_cif.got.tgz:90882.got - 2010.06.03 18:47:42.
