data_PCOD9302244
_publ_section_title
;
Structure prediction by ZEFSAII (Michael W. Deem and Ramdas Pophale) SiO2 
 PCOD9302244
Probable space group: C 2/C
;
_chemical_formula_sum "Si O2"
_cell_formula_units_Z 48
_cell_length_a 21.487754
_cell_length_b 11.876639
_cell_length_c 11.947694
_cell_angle_alpha 90.000000
_cell_angle_beta 137.613627
_cell_angle_gamma 90.000000
_cell_volume 2055.465647
_symmetry_space_group_name_H-M "C 2/C"
_symmetry_group_IT_number 15
_symmetry_cell_setting 'monoclinic'
loop_
_space_group_symop_operation_xyz
x,y,z
-x,y,1/2-z
-x,-y,-z
x,-y,1/2+z
1/2+x,1/2+y,z
1/2-x,1/2+y,1/2-z
1/2-x,1/2-y,-z
1/2+x,1/2-y,1/2+z
loop_
_atom_site_type_symbol
_atom_site_label
_atom_site_fract_x
_atom_site_fract_y
_atom_site_fract_z
Si Si1 0.912905 0.779055 0.885362
Si Si2 0.394427 0.282915 0.607572
Si Si3 0.593013 0.462127 0.437255
Si Si4 0.772201 0.379397 0.554953
Si Si5 0.093870 0.641408 0.061485
Si Si6 0.087224 0.588990 0.441520
O O1 0.867454 0.787298 0.701742
O O2 0.906916 0.896395 0.944801
O O3 0.878804 0.682889 0.925436
O O4 0.016736 0.730206 0.001259
O O5 0.500000 0.236349 0.750000
O O6 0.402667 0.402942 0.557557
O O7 0.346261 0.199165 0.457906
O O8 0.500000 0.428104 0.250000
O O9 0.677612 0.430895 0.470589
O O10 0.750000 0.250000 0.500000
O O11 0.842050 0.387251 0.750494
O O12 0.825702 0.433993 0.522415
O O13 0.055627 0.524325 0.961754
O O14 0.000000 0.629444 0.250000
#
# Coordination Sequence:
#
# PCOD9302244 Si02
#       6
#     8   8   8   8   8   8
#     4  11  21  43  73 101 140 186 231 286 355 420
#     4   9  23  42  69 104 137 183 233 288 351 423
#     4  11  24  46  71  99 136 191 238 296 352 414
#     4  12  26  44  68 105 141 185 242 291 354 423
#     4  11  25  43  72 107 143 181 234 292 354 429
#     4  12  24  44  74 107 146 188 228 293 358 427
#
# _framework density 23.352371999999999
#
# number of rings (size 3 to 8) (size 9 to 14) (size 15 to 20)
#    0.000    1.000    3.333    3.500    2.333   10.000 
#    0.000    1.667    0.000    0.000    0.000    0.000 
#    0.000    0.000    0.000    0.000    0.000    0.000 
#
# Total GULP energy -134143.698315 kJ/mol
# GULP energy per Si atom -5589.320763 kJ/mol
# Density = 2.329922 g / cm^3
# Si number density = 23.352372 Si / 1000 Ang^3
#
#
#
# Elastic Constant Matrix: (Units=GPa)
#
#
# Indices 1 2 3 4 5 6 
#
# 1 148.7695 23.1269 56.6807 0.0000 -19.7201 0.0000
# 2 23.1269 100.9218 38.9601 0.0000 -31.5096 0.0000
# 3 56.6807 38.9601 43.9264 0.0000 -34.4155 0.0000
# 4 0.0000 0.0000 0.0000 19.0376 0.0000 -9.5489
# 5 -19.7201 -31.5096 -34.4155 0.0000 51.6787 0.0000
# 6 0.0000 0.0000 0.0000 -9.5489 0.0000 12.2364
#
#
#
# Elastic Compliance Matrix: (Units=1/GPa)
#
#
# Indices 1 2 3 4 5 6 
#
# 1 0.024600 0.009703 -0.059299 0.000000 -0.024187 0.000000
# 2 0.009703 0.018904 -0.036291 0.000000 -0.008939 0.000000
# 3 -0.059299 -0.036291 0.201583 0.000000 0.089490 0.000000
# 4 0.000000 0.000000 0.000000 0.086312 0.000000 0.067355
# 5 -0.024187 -0.008939 0.089490 0.000000 0.064266 0.000000
# 6 0.000000 0.000000 0.000000 0.067355 0.000000 0.134285
#
#
# Mechanical properties :
#
#
# Convention : Reuss Voigt Hill
#
# Bulk Modulus (GPa) = 13.63992 59.01701 36.32847
# Shear Modulus (GPa) = 6.88552 28.24718 17.56635
#
# Velocity S-wave (km/s) = 1.71899 3.48171 2.74566
# Velocity P-wave (km/s) = 3.12946 6.44130 5.06379
#
# Compressibility (1/GPa) = 0.07331419
#
# Stress axis : x y z
#
# Youngs Moduli (GPa) = 40.65042 52.89886 4.96073
#
# Poissons Ratio (x) = -0.51328 0.29417
# Poissons Ratio (y) = -0.39443 0.18003
# Poissons Ratio (z) = 2.41052 1.91974
#
# Static dielectric constant tensor:
#      x y z
#    x 1.940560 0.000000 -0.035760 
#    y 0.000000 1.887900 0.000000 
#    z -0.035760 0.000000 1.869080 
# 
# From -- ./inp_files/111783.got.cif
#   From: 2010.05.17/outbox.cif.g08.bks.cpg/sg15_56_cif.got.tgz:111783.got - 2010.06.03 18:47:42.
