data_PCOD9302724
_publ_section_title
;
Structure prediction by ZEFSAII (Michael W. Deem and Ramdas Pophale) SiO2 
 PCOD9302724
Probable space group: C 2/C
;
_chemical_formula_sum "Si O2"
_cell_formula_units_Z 40
_cell_length_a 20.760532
_cell_length_b 8.728051
_cell_length_c 19.782801
_cell_angle_alpha 90.000000
_cell_angle_beta 26.614000
_cell_angle_gamma 90.000000
_cell_volume 1605.830837
_symmetry_space_group_name_H-M "C 2/C"
_symmetry_group_IT_number 15
_symmetry_cell_setting 'monoclinic'
loop_
_space_group_symop_operation_xyz
x,y,z
-x,y,1/2-z
-x,-y,-z
x,-y,1/2+z
1/2+x,1/2+y,z
1/2-x,1/2+y,1/2-z
1/2-x,1/2-y,-z
1/2+x,1/2-y,1/2+z
loop_
_atom_site_type_symbol
_atom_site_label
_atom_site_fract_x
_atom_site_fract_y
_atom_site_fract_z
Si Si1 0.351349 0.303245 0.127229
Si Si2 0.720252 0.532919 0.182946
Si Si3 0.666066 0.114163 0.119494
Si Si4 0.987563 0.655957 0.413042
Si Si5 0.577630 0.496969 0.067914
O O1 0.305448 0.412081 0.231878
O O2 0.230874 0.198740 0.206243
O O3 0.461973 0.183466 0.057701
O O4 0.410031 0.407158 0.012265
O O5 0.587347 0.523423 0.255998
O O6 0.872512 0.478312 0.010400
O O7 0.500000 0.095407 0.250000
O O8 0.627168 0.136688 0.235447
O O9 0.750000 0.250000 0.000000
O O10 0.786261 0.980445 0.011201
O O11 0.920990 0.817202 0.452307
#
# Coordination Sequence:
#
# PCOD9302724 Si02
#       5
#     8   8   8   8   8
#     4  11  22  39  69 109 150 185 224 295 353 422
#     4  11  22  39  67 103 150 185 227 284 356 423
#     4  12  26  43  72 104 138 180 241 295 342 421
#     4  11  22  40  68 107 141 184 234 288 353 417
#     4  11  23  41  63 103 138 181 237 287 351 405
#
# _framework density 24.909223000000001
#
# number of rings (size 3 to 8) (size 9 to 14) (size 15 to 20)
#    0.000    0.800    2.000    9.000    0.000    1.600 
#    0.000    0.000    0.000    4.800    5.200    0.000 
#    0.000    0.000    0.000    0.000    0.000    0.000 
#
# Total GULP energy -111685.669156 kJ/mol
# GULP energy per Si atom -5584.283458 kJ/mol
# Density = 2.485253 g / cm^3
# Si number density = 24.909223 Si / 1000 Ang^3
#
#
#
# Elastic Constant Matrix: (Units=GPa)
#
#
# Indices 1 2 3 4 5 6 
#
# 1 95.3747 9.9979 62.8260 0.0000 -16.9329 0.0000
# 2 9.9979 44.5875 21.8871 -0.0001 4.3887 0.0001
# 3 62.8260 21.8871 178.6840 0.0000 -14.3512 0.0000
# 4 0.0000 -0.0001 0.0000 29.0594 0.0000 -2.6796
# 5 -16.9329 4.3887 -14.3512 0.0000 51.8489 0.0000
# 6 0.0000 0.0001 0.0000 -2.6796 0.0000 21.6351
#
#
#
# Elastic Compliance Matrix: (Units=1/GPa)
#
#
# Indices 1 2 3 4 5 6 
#
# 1 0.014254 -0.001296 -0.004572 0.000000 0.003499 0.000000
# 2 -0.001296 0.024413 -0.002797 0.000000 -0.003264 0.000000
# 3 -0.004572 -0.002797 0.007615 0.000000 0.000851 0.000000
# 4 0.000000 0.000000 0.000000 0.034810 0.000000 0.004311
# 5 0.003499 -0.003264 0.000851 0.000000 0.020942 0.000000
# 6 0.000000 0.000000 0.000000 0.004311 0.000000 0.046755
#
#
# Mechanical properties :
#
#
# Convention : Reuss Voigt Hill
#
# Bulk Modulus (GPa) = 34.54046 56.45201 45.49624
# Shear Modulus (GPa) = 28.44662 35.43769 31.94215
#
# Velocity S-wave (km/s) = 3.38303 3.77593 3.58487
# Velocity P-wave (km/s) = 5.39968 6.45929 5.95311
#
# Compressibility (1/GPa) = 0.02895155
#
# Stress axis : x y z
#
# Youngs Moduli (GPa) = 70.15720 40.96251 131.32178
#
# Poissons Ratio (x) = 0.05310 0.60038
# Poissons Ratio (y) = 0.09095 0.36726
# Poissons Ratio (z) = 0.32075 0.11456
#
# Static dielectric constant tensor:
#      x y z
#    x 2.108610 0.000000 -0.110410 
#    y 0.000000 1.945870 0.000000 
#    z -0.110410 0.000000 2.080560 
# 
# From -- ./inp_files/303076.got.cif
#   From: 2010.05.17/outbox.cif.g08.bks.cpg/sg15_152_cif.got.tgz:303076.got - 2010.06.03 18:47:42.
