data_PCOD9302424
_publ_section_title
;
Structure prediction by ZEFSAII (Michael W. Deem and Ramdas Pophale) SiO2 
 PCOD9302424
Probable space group: C 2/C
;
_chemical_formula_sum "Si O2"
_cell_formula_units_Z 52
_cell_length_a 25.463353
_cell_length_b 12.654678
_cell_length_c 8.294959
_cell_angle_alpha 90.000000
_cell_angle_beta 116.871105
_cell_angle_gamma 90.000000
_cell_volume 2384.285427
_symmetry_space_group_name_H-M "C 2/C"
_symmetry_group_IT_number 15
_symmetry_cell_setting 'monoclinic'
loop_
_space_group_symop_operation_xyz
x,y,z
-x,y,1/2-z
-x,-y,-z
x,-y,1/2+z
1/2+x,1/2+y,z
1/2-x,1/2+y,1/2-z
1/2-x,1/2-y,-z
1/2+x,1/2-y,1/2+z
loop_
_atom_site_type_symbol
_atom_site_label
_atom_site_fract_x
_atom_site_fract_y
_atom_site_fract_z
Si Si1 0.324813 0.926980 0.265208
Si Si2 0.203796 0.967874 0.553274
Si Si3 0.152099 0.153306 0.676066
Si Si4 0.029507 0.264059 0.458370
Si Si5 0.408012 0.039193 0.607603
Si Si6 0.500000 0.852621 0.750000
Si Si7 0.741796 0.273513 0.799303
O O1 0.379792 0.905818 0.224053
O O2 0.301882 0.820416 0.315447
O O3 0.268024 0.982293 0.106027
O O4 0.351351 0.006946 0.428569
O O5 0.174595 0.902357 0.369656
O O6 0.215148 0.884902 0.713770
O O7 0.164042 0.065266 0.555787
O O8 0.085889 0.193601 0.581673
O O9 0.196011 0.250602 0.699256
O O10 0.052303 0.379749 0.435055
O O11 0.000000 0.222989 0.250000
O O12 0.994654 0.284716 0.577616
O O13 0.444691 0.932747 0.692198
O O14 0.750000 0.250000 0.000000
#
# Coordination Sequence:
#
# PCOD9302424 Si02
#       7
#     8   8   8   8   8   4   8
#     4  11  22  35  66  99 136 180 218 280 355 424
#     4  11  23  44  65 103 143 179 236 281 350 435
#     4  11  25  44  70  99 139 187 228 295 353 413
#     4  12  26  48  71 101 138 182 243 298 354 415
#     4  12  22  41  65 100 140 174 224 287 360 424
#     4  12  26  44  70 106 138 186 234 292 358 418
#     4  11  22  38  65 105 140 182 225 278 350 435
#
# _framework density 21.809470000000001
#
# number of rings (size 3 to 8) (size 9 to 14) (size 15 to 20)
#    0.000    0.615    2.308    8.308    2.154    0.000 
#    2.769    0.769    0.000    0.000    0.000    0.000 
#    0.000    0.000    0.000    0.000    0.000    0.000 
#
# Total GULP energy -145374.144090 kJ/mol
# GULP energy per Si atom -5591.313234 kJ/mol
# Density = 2.175983 g / cm^3
# Si number density = 21.809470 Si / 1000 Ang^3
#
#
#
# Elastic Constant Matrix: (Units=GPa)
#
#
# Indices 1 2 3 4 5 6 
#
# 1 85.8339 15.8086 34.1616 0.0000 -1.3877 0.0000
# 2 15.8086 69.2729 18.6984 0.0000 7.6612 0.0000
# 3 34.1616 18.6984 101.7785 0.0000 7.4513 0.0000
# 4 0.0000 0.0000 0.0000 28.9925 0.0000 2.8242
# 5 -1.3877 7.6612 7.4513 0.0000 33.8403 0.0000
# 6 0.0000 0.0000 0.0000 2.8242 0.0000 37.0968
#
#
#
# Elastic Compliance Matrix: (Units=1/GPa)
#
#
# Indices 1 2 3 4 5 6 
#
# 1 0.013835 -0.002197 -0.004389 0.000000 0.002031 0.000000
# 2 -0.002197 0.015817 -0.001931 0.000000 -0.003246 0.000000
# 3 -0.004389 -0.001931 0.011825 0.000000 -0.002347 0.000000
# 4 0.000000 0.000000 0.000000 0.034749 0.000000 -0.002645
# 5 0.002031 -0.003246 -0.002347 0.000000 0.030885 0.000000
# 6 0.000000 0.000000 0.000000 -0.002645 0.000000 0.027158
#
#
# Mechanical properties :
#
#
# Convention : Reuss Voigt Hill
#
# Bulk Modulus (GPa) = 40.91069 43.80250 42.35659
# Shear Modulus (GPa) = 31.35778 32.53370 31.94574
#
# Velocity S-wave (km/s) = 3.79595 3.86647 3.83138
# Velocity P-wave (km/s) = 6.16533 6.32934 6.24788
#
# Compressibility (1/GPa) = 0.02444349
#
# Stress axis : x y z
#
# Youngs Moduli (GPa) = 72.28280 63.22228 84.56820
#
# Poissons Ratio (x) = 0.13891 0.37113
# Poissons Ratio (y) = 0.15882 0.16328
# Poissons Ratio (z) = 0.31722 0.12207
#
# Static dielectric constant tensor:
#      x y z
#    x 1.825310 0.000000 -0.045320 
#    y 0.000000 1.786700 0.000000 
#    z -0.045320 0.000000 1.865640 
# 
# From -- ./inp_files/65593.got.cif
#   From: 2010.05.17/outbox.cif.g08.bks.cpg/sg15_33_cif.got.tgz:65593.got - 2010.06.03 18:47:42.
