data_PCOD9302624
_publ_section_title
;
Structure prediction by ZEFSAII (Michael W. Deem and Ramdas Pophale) SiO2 
 PCOD9302624
Probable space group: C 2/C
;
_chemical_formula_sum "Si O2"
_cell_formula_units_Z 40
_cell_length_a 11.197913
_cell_length_b 8.820677
_cell_length_c 18.830909
_cell_angle_alpha 90.000000
_cell_angle_beta 116.690849
_cell_angle_gamma 90.000000
_cell_volume 1661.794095
_symmetry_space_group_name_H-M "C 2/C"
_symmetry_group_IT_number 15
_symmetry_cell_setting 'monoclinic'
loop_
_space_group_symop_operation_xyz
x,y,z
-x,y,1/2-z
-x,-y,-z
x,-y,1/2+z
1/2+x,1/2+y,z
1/2-x,1/2+y,1/2-z
1/2-x,1/2-y,-z
1/2+x,1/2-y,1/2+z
loop_
_atom_site_type_symbol
_atom_site_label
_atom_site_fract_x
_atom_site_fract_y
_atom_site_fract_z
Si Si1 0.950803 0.503533 0.136248
Si Si2 0.941583 0.730817 0.518233
Si Si3 0.241777 0.018764 0.769064
Si Si4 0.682019 0.298974 0.873217
Si Si5 0.781892 0.826723 0.862497
O O1 0.941326 0.437089 0.053944
O O2 0.896829 0.355110 0.164500
O O3 0.848607 0.634809 0.127272
O O4 0.103338 0.535802 0.194059
O O5 0.839687 0.733031 0.426647
O O6 0.873670 0.834250 0.562582
O O7 0.093638 0.782309 0.554797
O O8 0.167899 0.926280 0.811266
O O9 0.180312 0.969148 0.677857
O O10 0.253997 0.190425 0.799407
#
# Coordination Sequence:
#
# PCOD9302624 Si02
#       5
#     8   8   8   8   8
#     4   9  20  40  58  83 119 152 190 245 290 345
#     4   8  20  41  64  85 118 158 197 242 300 348
#     4  11  23  39  59  87 121 157 196 246 295 353
#     4   9  19  44  63  84 121 157 195 247 298 348
#     4  11  22  39  60  89 121 158 197 244 298 349
#
# _framework density 24.07037
#
# number of rings (size 3 to 8) (size 9 to 14) (size 15 to 20)
#    1.200    1.200    0.000    1.800    0.000    6.400 
#   10.800    2.000    0.000    0.000    0.000    0.000 
#    0.000    0.000    0.000    0.000    0.000    0.000 
#
# Total GULP energy -111673.794932 kJ/mol
# GULP energy per Si atom -5583.689747 kJ/mol
# Density = 2.401559 g / cm^3
# Si number density = 24.070370 Si / 1000 Ang^3
#
#
#
# Elastic Constant Matrix: (Units=GPa)
#
#
# Indices 1 2 3 4 5 6 
#
# 1 81.1537 42.7740 21.5499 0.0000 22.1808 0.0000
# 2 42.7740 48.6587 14.4558 0.0000 7.2224 0.0000
# 3 21.5499 14.4558 71.0848 0.0000 11.3933 0.0000
# 4 0.0000 0.0000 0.0000 25.2548 0.0000 6.7471
# 5 22.1808 7.2224 11.3933 0.0000 34.3595 0.0000
# 6 0.0000 0.0000 0.0000 6.7471 0.0000 34.5218
#
#
#
# Elastic Compliance Matrix: (Units=1/GPa)
#
#
# Indices 1 2 3 4 5 6 
#
# 1 0.027999 -0.022141 -0.001938 0.000000 -0.012778 0.000000
# 2 -0.022141 0.039740 -0.002452 0.000000 0.006752 0.000000
# 3 -0.001938 -0.002452 0.015705 0.000000 -0.003442 0.000000
# 4 0.000000 0.000000 0.000000 0.041778 0.000000 -0.008165
# 5 -0.012778 0.006752 -0.003442 0.000000 0.037075 0.000000
# 6 0.000000 0.000000 0.000000 -0.008165 0.000000 0.030563
#
#
# Mechanical properties :
#
#
# Convention : Reuss Voigt Hill
#
# Bulk Modulus (GPa) = 32.91102 39.82850 36.36976
# Shear Modulus (GPa) = 19.52750 26.96838 23.24794
#
# Velocity S-wave (km/s) = 2.85136 3.35086 3.11116
# Velocity P-wave (km/s) = 4.95408 5.61727 5.29606
#
# Compressibility (1/GPa) = 0.03038496
#
# Stress axis : x y z
#
# Youngs Moduli (GPa) = 35.71538 25.16326 63.67285
#
# Poissons Ratio (x) = 0.55713 0.12337
# Poissons Ratio (y) = 0.79076 0.15611
# Poissons Ratio (z) = 0.06920 0.06169
#
# Static dielectric constant tensor:
#      x y z
#    x 1.954250 0.000000 -0.044720 
#    y 0.000000 1.948240 0.000000 
#    z -0.044720 0.000000 1.936030 
# 
# From -- ./inp_files/267889.got.cif
#   From: 2010.05.17/outbox.cif.g08.bks.cpg/sg15_134_cif.got.tgz:267889.got - 2010.06.03 18:47:42.
