data_PCOD9302684
_publ_section_title
;
Structure prediction by ZEFSAII (Michael W. Deem and Ramdas Pophale) SiO2 
 PCOD9302684
Probable space group: C 2/C
;
_chemical_formula_sum "Si O2"
_cell_formula_units_Z 40
_cell_length_a 22.277180
_cell_length_b 20.176506
_cell_length_c 5.385537
_cell_angle_alpha 90.000000
_cell_angle_beta 117.178046
_cell_angle_gamma 90.000000
_cell_volume 2153.405366
_symmetry_space_group_name_H-M "C 2/C"
_symmetry_group_IT_number 15
_symmetry_cell_setting 'monoclinic'
loop_
_space_group_symop_operation_xyz
x,y,z
-x,y,1/2-z
-x,-y,-z
x,-y,1/2+z
1/2+x,1/2+y,z
1/2-x,1/2+y,1/2-z
1/2-x,1/2-y,-z
1/2+x,1/2-y,1/2+z
loop_
_atom_site_type_symbol
_atom_site_label
_atom_site_fract_x
_atom_site_fract_y
_atom_site_fract_z
Si Si1 0.362902 0.730168 0.254505
Si Si2 0.000000 0.960438 0.250000
Si Si3 0.243039 0.689086 0.680623
Si Si4 0.000000 0.204040 0.250000
Si Si5 0.227624 0.956662 0.366540
Si Si6 0.104402 0.125652 0.780457
O O1 0.319409 0.794080 0.254241
O O2 0.439541 0.740251 0.295401
O O3 0.363049 0.684189 0.499014
O O4 0.314069 0.693509 0.964669
O O5 0.934150 0.916643 0.089897
O O6 0.000000 0.000000 0.500000
O O7 0.250000 0.750000 0.500000
O O8 0.233554 0.614700 0.558537
O O9 0.046024 0.158092 0.507945
O O10 0.151865 0.927071 0.235313
O O11 0.238927 0.001019 0.635931
#
# Coordination Sequence:
#
# PCOD9302684 Si02
#       6
#     8   4   8   4   8   8
#     4  11  22  39  65  89 126 170 228 272 326 374
#     4  12  25  36  52  80 130 185 216 244 304 375
#     4  11  23  42  67  88 124 177 225 279 328 387
#     4  12  21  38  62  92 132 171 222 270 308 399
#     4  12  26  42  64  96 133 175 225 274 327 392
#     4  12  23  38  57  89 130 175 218 261 310 387
#
# _framework density 18.575230000000001
#
# number of rings (size 3 to 8) (size 9 to 14) (size 15 to 20)
#    0.000    0.400    6.000    3.000    2.800    0.000 
#    0.000    0.000    0.000    0.000    0.000    1.400 
#    0.000    0.000    0.000    0.000    0.000    0.000 
#
# Total GULP energy -111402.267514 kJ/mol
# GULP energy per Si atom -5570.113376 kJ/mol
# Density = 1.853295 g / cm^3
# Si number density = 18.575230 Si / 1000 Ang^3
#
#
#
# Elastic Constant Matrix: (Units=GPa)
#
#
# Indices 1 2 3 4 5 6 
#
# 1 115.7882 54.9196 5.5198 0.0000 -10.5003 0.0000
# 2 54.9196 110.8618 35.2030 0.0000 -14.2131 0.0000
# 3 5.5198 35.2030 111.1428 0.0000 -10.5103 0.0000
# 4 0.0000 0.0000 0.0000 14.9071 0.0000 -9.3647
# 5 -10.5003 -14.2131 -10.5103 0.0000 26.3267 0.0000
# 6 0.0000 0.0000 0.0000 -9.3647 0.0000 50.1085
#
#
#
# Elastic Compliance Matrix: (Units=1/GPa)
#
#
# Indices 1 2 3 4 5 6 
#
# 1 0.011569 -0.005951 0.001499 0.000000 0.002000 0.000000
# 2 -0.005951 0.013583 -0.003677 0.000000 0.003492 0.000000
# 3 0.001499 -0.003677 0.010347 0.000000 0.002744 0.000000
# 4 0.000000 0.000000 0.000000 0.076006 0.000000 0.014205
# 5 0.002000 0.003492 0.002744 0.000000 0.041763 0.000000
# 6 0.000000 0.000000 0.000000 0.014205 0.000000 0.022611
#
#
# Mechanical properties :
#
#
# Convention : Reuss Voigt Hill
#
# Bulk Modulus (GPa) = 51.96611 58.78641 55.37626
# Shear Modulus (GPa) = 25.18269 34.41183 29.79726
#
# Velocity S-wave (km/s) = 3.68600 4.30881 4.00952
# Velocity P-wave (km/s) = 6.79354 7.51471 7.16321
#
# Compressibility (1/GPa) = 0.01924331
#
# Stress axis : x y z
#
# Youngs Moduli (GPa) = 86.43875 73.61954 96.64672
#
# Poissons Ratio (x) = 0.43809 -0.14491
# Poissons Ratio (y) = 0.51438 0.35533
# Poissons Ratio (z) = -0.12961 0.27067
#
# Static dielectric constant tensor:
#      x y z
#    x 1.744390 0.000000 -0.061580 
#    y 0.000000 1.690430 0.000000 
#    z -0.061580 0.000000 1.635680 
# 
# From -- ./inp_files/12798.got.cif
#   From: 2010.05.17/outbox.cif.g08.bks.cpg/sg15_7_cif.got.tgz:12798.got - 2010.06.03 18:47:42.
