data_PCOD9302635
_publ_section_title
;
Structure prediction by ZEFSAII (Michael W. Deem and Ramdas Pophale) SiO2 
 PCOD9302635
Probable space group: C 2/C
;
_chemical_formula_sum "Si O2"
_cell_formula_units_Z 36
_cell_length_a 11.427688
_cell_length_b 23.563940
_cell_length_c 9.951889
_cell_angle_alpha 90.000000
_cell_angle_beta 35.513419
_cell_angle_gamma 90.000000
_cell_volume 1556.712475
_symmetry_space_group_name_H-M "C 2/C"
_symmetry_group_IT_number 15
_symmetry_cell_setting 'monoclinic'
loop_
_space_group_symop_operation_xyz
x,y,z
-x,y,1/2-z
-x,-y,-z
x,-y,1/2+z
1/2+x,1/2+y,z
1/2-x,1/2+y,1/2-z
1/2-x,1/2-y,-z
1/2+x,1/2-y,1/2+z
loop_
_atom_site_type_symbol
_atom_site_label
_atom_site_fract_x
_atom_site_fract_y
_atom_site_fract_z
Si Si1 0.747374 0.937234 0.296224
Si Si2 0.690693 0.802382 0.653191
Si Si3 0.131644 0.946502 0.752644
Si Si4 0.000000 0.876840 0.250000
Si Si5 0.564415 0.847570 0.043381
O O1 0.599834 0.893149 0.361339
O O2 0.809316 0.912691 0.382070
O O3 0.712414 0.004499 0.347542
O O4 0.963886 0.936635 0.020803
O O5 0.500000 0.827758 0.750000
O O6 0.750000 0.750000 0.500000
O O7 0.899621 0.836965 0.456155
O O8 0.614807 0.802005 0.878853
O O9 0.244504 0.888696 0.613127
O O10 0.000000 0.967170 0.750000
O O11 0.500000 0.824996 0.250000
#
# Coordination Sequence:
#
# PCOD9302635 Si02
#       5
#     8   8   8   4   8
#     4  11  23  39  65 102 144 190 234 275 337 424
#     4  12  26  46  74  98 130 179 244 301 357 421
#     4  11  22  39  62 100 150 193 226 272 340 424
#     4  12  22  42  72  96 134 186 238 284 342 416
#     4  12  25  43  68 105 143 185 232 298 359 417
#
# _framework density 23.125657
#
# number of rings (size 3 to 8) (size 9 to 14) (size 15 to 20)
#    0.000    0.444    8.889    0.667    0.000    0.000 
#    4.000    1.111    0.000    0.000    0.000    0.000 
#    0.000    0.000    0.000    0.000    0.000    0.000 
#
# Total GULP energy -100265.933193 kJ/mol
# GULP energy per Si atom -5570.329622 kJ/mol
# Density = 2.307302 g / cm^3
# Si number density = 23.125657 Si / 1000 Ang^3
#
#
#
# Elastic Constant Matrix: (Units=GPa)
#
#
# Indices 1 2 3 4 5 6 
#
# 1 80.6688 13.6757 25.0975 0.0000 6.7467 0.0000
# 2 13.6757 70.1100 47.1770 0.0000 13.3009 0.0000
# 3 25.0975 47.1770 121.2270 0.0000 32.2908 0.0000
# 4 0.0000 0.0000 0.0000 23.8382 0.0000 -0.0509
# 5 6.7467 13.3009 32.2908 0.0000 47.9412 0.0000
# 6 0.0000 0.0000 0.0000 -0.0509 0.0000 25.2126
#
#
#
# Elastic Compliance Matrix: (Units=1/GPa)
#
#
# Indices 1 2 3 4 5 6 
#
# 1 0.013302 -0.001005 -0.002362 0.000000 -0.000002 0.000000
# 2 -0.001005 0.019405 -0.007247 0.000000 -0.000361 0.000000
# 3 -0.002362 -0.007247 0.013325 0.000000 -0.006632 0.000000
# 4 0.000000 0.000000 0.000000 0.041950 0.000000 0.000085
# 5 -0.000002 -0.000361 -0.006632 0.000000 0.025426 0.000000
# 6 0.000000 0.000000 0.000000 0.000085 0.000000 0.039663
#
#
# Mechanical properties :
#
#
# Convention : Reuss Voigt Hill
#
# Bulk Modulus (GPa) = 40.31856 49.32292 44.82074
# Shear Modulus (GPa) = 27.38731 31.80211 29.59471
#
# Velocity S-wave (km/s) = 3.44507 3.71238 3.58122
# Velocity P-wave (km/s) = 5.77037 6.30477 6.04348
#
# Compressibility (1/GPa) = 0.02480247
#
# Stress axis : x y z
#
# Youngs Moduli (GPa) = 75.17767 51.53441 75.04693
#
# Poissons Ratio (x) = 0.05177 0.17729
# Poissons Ratio (y) = 0.07553 0.54390
# Poissons Ratio (z) = 0.17760 0.37349
#
# Static dielectric constant tensor:
#      x y z
#    x 2.088000 0.000000 0.258260 
#    y 0.000000 1.943510 0.000000 
#    z 0.258260 0.000000 2.137160 
# 
# From -- ./inp_files/33259.got.cif
#   From: 2010.05.17/outbox.cif.g08.bks.cpg/sg15_17_cif.got.tgz:33259.got - 2010.06.03 18:47:42.
