data_PCOD9302313
_publ_section_title
;
Structure prediction by ZEFSAII (Michael W. Deem and Ramdas Pophale) SiO2 
 PCOD9302313
Probable space group: C 2/C
;
_chemical_formula_sum "Si O2"
_cell_formula_units_Z 44
_cell_length_a 16.356853
_cell_length_b 8.493307
_cell_length_c 27.994488
_cell_angle_alpha 90.000000
_cell_angle_beta 26.672395
_cell_angle_gamma 90.000000
_cell_volume 1745.772317
_symmetry_space_group_name_H-M "C 2/C"
_symmetry_group_IT_number 15
_symmetry_cell_setting 'monoclinic'
loop_
_space_group_symop_operation_xyz
x,y,z
-x,y,1/2-z
-x,-y,-z
x,-y,1/2+z
1/2+x,1/2+y,z
1/2-x,1/2+y,1/2-z
1/2-x,1/2-y,-z
1/2+x,1/2-y,1/2+z
loop_
_atom_site_type_symbol
_atom_site_label
_atom_site_fract_x
_atom_site_fract_y
_atom_site_fract_z
Si Si1 0.040947 0.637106 0.899764
Si Si2 0.399805 0.930240 0.233851
Si Si3 0.691313 0.563392 0.584609
Si Si4 0.000000 0.813632 0.750000
Si Si5 0.839291 0.974165 0.002272
Si Si6 0.777684 0.197990 0.112753
O O1 0.155093 0.609337 0.791598
O O2 0.139920 0.662416 0.898270
O O3 0.934820 0.804320 0.948936
O O4 0.901759 0.491469 0.974522
O O5 0.360187 0.794464 0.293262
O O6 0.318637 0.087381 0.298282
O O7 0.621361 0.941533 0.118619
O O8 0.590941 0.421696 0.663181
O O9 0.627868 0.570652 0.563401
O O10 0.663456 0.716253 0.630912
O O11 0.895867 0.080273 0.017709
#
# Coordination Sequence:
#
# PCOD9302313 Si02
#       6
#     8   8   8   4   8   8
#     4  11  23  46  68  99 138 183 218 277 346 406
#     4  11  22  43  68  98 132 181 227 273 327 413
#     4  11  24  41  68  99 133 184 228 272 333 409
#     4  12  20  40  72  92 132 176 240 268 326 404
#     4  11  21  45  70  94 131 184 228 267 334 412
#     4  12  25  40  68 105 141 166 225 294 335 383
#
# _framework density 25.203745000000001
#
# number of rings (size 3 to 8) (size 9 to 14) (size 15 to 20)
#    0.000    0.727    5.455    2.727    2.545    1.455 
#    0.000    3.636    0.000    0.000    0.000    0.000 
#    0.000    0.000    0.000    0.000    0.000    0.000 
#
# Total GULP energy -123171.860307 kJ/mol
# GULP energy per Si atom -5598.720923 kJ/mol
# Density = 2.514638 g / cm^3
# Si number density = 25.203745 Si / 1000 Ang^3
#
#
#
# Elastic Constant Matrix: (Units=GPa)
#
#
# Indices 1 2 3 4 5 6 
#
# 1 141.6057 27.3510 47.7779 0.0006 51.8218 0.0002
# 2 27.3510 94.1244 19.8122 0.0006 16.2031 -0.0005
# 3 47.7779 19.8122 61.2192 0.0001 35.3501 -0.0003
# 4 0.0006 0.0006 0.0001 39.5981 -0.0004 13.6854
# 5 51.8218 16.2031 35.3501 -0.0004 45.1144 0.0002
# 6 0.0002 -0.0005 -0.0003 13.6854 0.0002 50.5359
#
#
#
# Elastic Compliance Matrix: (Units=1/GPa)
#
#
# Indices 1 2 3 4 5 6 
#
# 1 0.012509 -0.001040 -0.002456 0.000000 -0.012071 0.000000
# 2 -0.001040 0.011608 -0.002242 0.000000 -0.001218 0.000000
# 3 -0.002456 -0.002242 0.030834 0.000000 -0.020535 0.000000
# 4 0.000000 0.000000 0.000000 0.027861 0.000001 -0.007545
# 5 -0.012071 -0.001218 -0.020535 0.000001 0.052559 -0.000001
# 6 0.000000 0.000000 0.000000 -0.007545 -0.000001 0.021831
#
#
# Mechanical properties :
#
#
# Convention : Reuss Voigt Hill
#
# Bulk Modulus (GPa) = 23.00111 54.09238 38.54675
# Shear Modulus (GPa) = 27.29717 40.51690 33.90704
#
# Velocity S-wave (km/s) = 3.29456 4.01381 3.67184
# Velocity P-wave (km/s) = 4.85984 6.55664 5.77094
#
# Compressibility (1/GPa) = 0.04347616
#
# Stress axis : x y z
#
# Youngs Moduli (GPa) = 79.94466 86.14778 32.43151
#
# Poissons Ratio (x) = 0.08959 0.07964
# Poissons Ratio (y) = 0.08314 0.07270
# Poissons Ratio (z) = 0.19631 0.19312
#
# Static dielectric constant tensor:
#      x y z
#    x 2.010530 0.000000 -0.032360 
#    y 0.000000 1.966160 0.000000 
#    z -0.032360 0.000000 2.056980 
# 
# From -- ./inp_files/315473.got.cif
#   From: 2010.05.17/outbox.cif.g08.bks.cpg/sg15_158_cif.got.tgz:315473.got - 2010.06.03 18:47:42.
