data_PCOD9302727
_publ_section_title
;
Structure prediction by ZEFSAII (Michael W. Deem and Ramdas Pophale) SiO2 
 PCOD9302727
Probable space group: C 2/C
;
_chemical_formula_sum "Si O2"
_cell_formula_units_Z 40
_cell_length_a 20.693622
_cell_length_b 16.991327
_cell_length_c 11.057391
_cell_angle_alpha 90.000000
_cell_angle_beta 30.038701
_cell_angle_gamma 90.000000
_cell_volume 1946.230076
_symmetry_space_group_name_H-M "C 2/C"
_symmetry_group_IT_number 15
_symmetry_cell_setting 'monoclinic'
loop_
_space_group_symop_operation_xyz
x,y,z
-x,y,1/2-z
-x,-y,-z
x,-y,1/2+z
1/2+x,1/2+y,z
1/2-x,1/2+y,1/2-z
1/2-x,1/2-y,-z
1/2+x,1/2-y,1/2+z
loop_
_atom_site_type_symbol
_atom_site_label
_atom_site_fract_x
_atom_site_fract_y
_atom_site_fract_z
Si Si1 0.628612 0.362748 0.603595
Si Si2 0.325088 0.541013 0.979524
Si Si3 0.121389 0.309044 0.421698
Si Si4 0.577020 0.370462 0.969864
Si Si5 0.906019 0.414322 0.809606
O O1 0.500000 0.329776 0.750000
O O2 0.649181 0.451816 0.523506
O O3 0.753568 0.313771 0.363765
O O4 0.608626 0.373014 0.778207
O O5 0.446769 0.580675 0.712005
O O6 0.315140 0.591289 0.118192
O O7 0.202197 0.544312 0.091591
O O8 0.069235 0.221248 0.515439
O O9 0.151754 0.348180 0.504125
O O10 0.006563 0.366390 0.563067
O O11 0.000000 0.462098 0.750000
#
# Coordination Sequence:
#
# PCOD9302727 Si02
#       5
#     8   8   8   8   8
#     4  12  24  39  64  94 135 166 212 270 326 371
#     4  11  22  39  67  94 123 171 221 263 311 387
#     4   9  22  41  60  95 126 169 213 257 325 380
#     4  11  23  38  64  96 126 163 220 260 321 381
#     4   8  20  40  65  84 128 166 210 258 316 378
#
# _framework density 20.552555000000002
#
# number of rings (size 3 to 8) (size 9 to 14) (size 15 to 20)
#    1.200    0.400    2.000    4.800    2.800    5.600 
#    0.000    1.000    0.000    0.000    0.000    0.000 
#    0.000    0.000    0.000    0.000    0.000    0.000 
#
# Total GULP energy -111473.582502 kJ/mol
# GULP energy per Si atom -5573.679125 kJ/mol
# Density = 2.050578 g / cm^3
# Si number density = 20.552555 Si / 1000 Ang^3
#
#
#
# Elastic Constant Matrix: (Units=GPa)
#
#
# Indices 1 2 3 4 5 6 
#
# 1 102.5255 -14.2702 23.3212 -0.0001 -10.3186 0.0001
# 2 -14.2702 34.8670 -1.2068 0.0000 -17.2852 0.0000
# 3 23.3212 -1.2068 88.6295 -0.0001 4.3538 0.0000
# 4 -0.0001 0.0000 -0.0001 -22.9210 0.0001 7.1302
# 5 -10.3186 -17.2852 4.3538 0.0001 32.6249 0.0000
# 6 0.0001 0.0000 0.0000 7.1302 0.0000 13.6227
#
#
#
# Elastic Compliance Matrix: (Units=1/GPa)
#
#
# Indices 1 2 3 4 5 6 
#
# 1 0.013039 0.010172 -0.003784 0.000000 0.010018 0.000000
# 2 0.010172 0.046853 -0.003439 0.000000 0.028499 0.000000
# 3 -0.003784 -0.003439 0.012462 0.000000 -0.004682 0.000000
# 4 0.000000 0.000000 0.000000 -0.037519 0.000000 0.019638
# 5 0.010018 0.028499 -0.004682 0.000000 0.049544 0.000000
# 6 0.000000 0.000000 0.000000 0.019638 0.000000 0.063128
#
#
# Mechanical properties :
#
#
# Convention : Reuss Voigt Hill
#
# Bulk Modulus (GPa) = 12.77942 26.85671 19.81806
# Shear Modulus (GPa) = 29.81646 19.21051 24.51349
#
# Velocity S-wave (km/s) = 3.81299 3.06061 3.45733
# Velocity P-wave (km/s) = 5.06129 5.05821 5.05975
#
# Compressibility (1/GPa) = 0.07825082
#
# Stress axis : x y z
#
# Youngs Moduli (GPa) = 76.69563 21.34339 80.24450
#
# Poissons Ratio (x) = -0.21710 0.30368
# Poissons Ratio (y) = -0.78013 0.27593
# Poissons Ratio (z) = 0.29025 0.07339
#
# Static dielectric constant tensor:
#      x y z
#    x 1.726910 0.000000 -0.001190 
#    y 0.000000 1.709550 0.000000 
#    z -0.001190 0.000000 1.774830 
# 
# From -- ./inp_files/49981.got.cif
#   From: 2010.05.17/outbox.cif.g08.bks.cpg/sg15_25_cif.got.tgz:49981.got - 2010.06.03 18:47:42.
