data_PCOD9302846
_publ_section_title
;
Structure prediction by ZEFSAII (Michael W. Deem and Ramdas Pophale) SiO2 
 PCOD9302846
Probable space group: C 2/C
;
_chemical_formula_sum "Si O2"
_cell_formula_units_Z 64
_cell_length_a 18.916706
_cell_length_b 10.024091
_cell_length_c 33.418804
_cell_angle_alpha 90.000000
_cell_angle_beta 150.666998
_cell_angle_gamma 90.000000
_cell_volume 3104.382834
_symmetry_space_group_name_H-M "C 2/C"
_symmetry_group_IT_number 15
_symmetry_cell_setting 'monoclinic'
loop_
_space_group_symop_operation_xyz
x,y,z
-x,y,1/2-z
-x,-y,-z
x,-y,1/2+z
1/2+x,1/2+y,z
1/2-x,1/2+y,1/2-z
1/2-x,1/2-y,-z
1/2+x,1/2-y,1/2+z
loop_
_atom_site_type_symbol
_atom_site_label
_atom_site_fract_x
_atom_site_fract_y
_atom_site_fract_z
Si Si1 0.711211 0.800006 0.727310
Si Si2 0.662819 0.306610 0.341522
Si Si3 0.027865 0.492246 0.388642
Si Si4 0.936145 0.918190 0.505397
Si Si5 0.204024 0.876889 0.450582
Si Si6 0.610717 0.993205 0.337712
Si Si7 0.869277 0.309155 0.375270
Si Si8 0.585591 0.530204 0.659099
O O1 0.560097 0.872281 0.645863
O O2 0.750375 0.781810 0.793480
O O3 0.696201 0.650396 0.702852
O O4 0.833611 0.909994 0.777901
O O5 0.500000 0.347250 0.250000
O O6 0.724056 0.352468 0.414063
O O7 0.769803 0.366643 0.360927
O O8 0.652094 0.144278 0.342999
O O9 0.192779 0.505097 0.483788
O O10 0.034697 0.484094 0.343820
O O11 0.946610 0.386867 0.377093
O O12 0.764256 0.920740 0.417982
O O13 0.006891 0.773077 0.541434
O O14 0.000000 0.000000 0.500000
O O15 0.998980 0.982483 0.577303
O O16 0.250000 0.750000 0.500000
O O17 0.036384 0.906809 0.373493
O O18 0.500000 0.939342 0.250000
#
# Coordination Sequence:
#
# PCOD9302846 Si02
#       8
#     8   8   8   8   8   8   8   8
#     4  11  22  40  67  98 140 177 230 280 353 419
#     4  11  22  40  68  96 137 176 242 291 343 420
#     4  12  24  40  68 104 138 179 239 296 360 414
#     4  11  23  41  68  96 138 180 235 292 350 422
#     4  12  22  40  68  98 133 188 237 290 351 437
#     4  11  22  40  66  99 131 181 239 298 346 423
#     4  11  25  41  64 106 138 179 229 300 355 417
#     4  11  22  41  66 104 134 181 232 289 344 426
#
# _framework density 20.616012999999999
#
# number of rings (size 3 to 8) (size 9 to 14) (size 15 to 20)
#    0.000    0.750    6.250    2.250    1.750    1.000 
#    0.000    0.000    0.000    0.000    0.000    0.000 
#    0.000    0.000    0.000    0.000    0.000    0.000 
#
# Total GULP energy -178342.348393 kJ/mol
# GULP energy per Si atom -5573.198387 kJ/mol
# Density = 2.056909 g / cm^3
# Si number density = 20.616013 Si / 1000 Ang^3
#
#
#
# Elastic Constant Matrix: (Units=GPa)
#
#
# Indices 1 2 3 4 5 6 
#
# 1 105.6133 18.7660 28.0320 0.0000 7.6735 0.0000
# 2 18.7660 42.0650 30.1019 0.0000 16.0427 0.0000
# 3 28.0320 30.1019 128.5459 0.0000 7.6318 0.0000
# 4 0.0000 0.0000 0.0000 31.3538 0.0000 1.3353
# 5 7.6735 16.0427 7.6318 0.0000 29.2666 0.0000
# 6 0.0000 0.0000 0.0000 1.3353 0.0000 25.6459
#
#
#
# Elastic Compliance Matrix: (Units=1/GPa)
#
#
# Indices 1 2 3 4 5 6 
#
# 1 0.010504 -0.003467 -0.001451 0.000000 -0.000476 0.000000
# 2 -0.003467 0.036906 -0.006845 0.000000 -0.017536 0.000000
# 3 -0.001451 -0.006845 0.009602 0.000000 0.001629 0.000000
# 4 0.000000 0.000000 0.000000 0.031965 0.000000 -0.001664
# 5 -0.000476 -0.017536 0.001629 0.000000 0.043481 0.000000
# 6 0.000000 0.000000 0.000000 -0.001664 0.000000 0.039079
#
#
# Mechanical properties :
#
#
# Convention : Reuss Voigt Hill
#
# Bulk Modulus (GPa) = 29.86258 47.78046 38.82152
# Shear Modulus (GPa) = 24.24548 30.54154 27.39351
#
# Velocity S-wave (km/s) = 3.43308 3.85313 3.64916
# Velocity P-wave (km/s) = 5.49830 6.55913 6.05200
#
# Compressibility (1/GPa) = 0.03348673
#
# Stress axis : x y z
#
# Youngs Moduli (GPa) = 95.20134 27.09616 104.14596
#
# Poissons Ratio (x) = 0.09393 0.15107
# Poissons Ratio (y) = 0.33003 0.71290
# Poissons Ratio (z) = 0.13810 0.18548
#
# Static dielectric constant tensor:
#      x y z
#    x 1.869220 0.000000 0.022280 
#    y 0.000000 1.831550 0.000000 
#    z 0.022280 0.000000 1.733830 
# 
# From -- ./inp_files/316238.got.cif
#   From: 2010.05.17/outbox.cif.g08.bks.cpg/sg15_159_cif.got.tgz:316238.got - 2010.06.03 18:47:42.
