data_PCOD9302856
_publ_section_title
;
Structure prediction by ZEFSAII (Michael W. Deem and Ramdas Pophale) SiO2 
 PCOD9302856
Probable space group: C 2/C
;
_chemical_formula_sum "Si O2"
_cell_formula_units_Z 40
_cell_length_a 12.384076
_cell_length_b 27.805517
_cell_length_c 9.594665
_cell_angle_alpha 90.000000
_cell_angle_beta 40.196517
_cell_angle_gamma 90.000000
_cell_volume 2132.361997
_symmetry_space_group_name_H-M "C 2/C"
_symmetry_group_IT_number 15
_symmetry_cell_setting 'monoclinic'
loop_
_space_group_symop_operation_xyz
x,y,z
-x,y,1/2-z
-x,-y,-z
x,-y,1/2+z
1/2+x,1/2+y,z
1/2-x,1/2+y,1/2-z
1/2-x,1/2-y,-z
1/2+x,1/2-y,1/2+z
loop_
_atom_site_type_symbol
_atom_site_label
_atom_site_fract_x
_atom_site_fract_y
_atom_site_fract_z
Si Si1 0.000000 0.897603 0.750000
Si Si2 0.386435 0.771247 0.471702
Si Si3 0.000000 0.870437 0.250000
Si Si4 0.827954 0.022161 0.604717
Si Si5 0.689645 0.943189 0.527272
Si Si6 0.401558 0.319019 0.626191
O O1 0.118982 0.932119 0.541420
O O2 0.088919 0.861804 0.770576
O O3 0.250000 0.750000 0.500000
O O4 0.485434 0.726290 0.437932
O O5 0.289358 0.800875 0.683317
O O6 0.500000 0.800612 0.250000
O O7 0.834258 0.902931 0.395488
O O8 0.968985 0.838570 0.415767
O O9 0.742934 0.983767 0.586546
O O10 0.710637 0.036159 0.850078
O O11 0.000000 0.000000 0.500000
O O12 0.500000 0.927777 0.750000
#
# Coordination Sequence:
#
# PCOD9302856 Si02
#       6
#     4   8   4   8   8   8
#     4  12  19  36  70  90 120 178 218 250 325 386
#     4   9  18  39  64  88 120 163 208 266 318 385
#     4  12  25  44  64  96 140 164 214 278 319 392
#     4  12  21  42  70  89 135 180 212 268 330 378
#     4  12  25  44  66  96 135 175 220 268 325 385
#     4  11  22  40  67  91 126 172 211 264 334 380
#
# _framework density 18.758541999999998
#
# number of rings (size 3 to 8) (size 9 to 14) (size 15 to 20)
#    0.000    0.800    9.000    0.600    0.000    0.800 
#   10.800    0.000    0.000    0.000    0.000    0.000 
#    0.000    0.000    0.000    0.000    0.000    0.000 
#
# Total GULP energy -111567.293584 kJ/mol
# GULP energy per Si atom -5578.364679 kJ/mol
# Density = 1.871585 g / cm^3
# Si number density = 18.758542 Si / 1000 Ang^3
#
#
#
# Elastic Constant Matrix: (Units=GPa)
#
#
# Indices 1 2 3 4 5 6 
#
# 1 64.0007 44.0904 66.5491 0.0000 12.9240 0.0000
# 2 44.0904 98.1898 74.8278 0.0000 4.8106 0.0000
# 3 66.5491 74.8278 198.6203 0.0000 8.0097 0.0000
# 4 0.0000 0.0000 0.0000 32.1753 0.0000 14.3705
# 5 12.9240 4.8106 8.0097 0.0000 40.7657 0.0000
# 6 0.0000 0.0000 0.0000 14.3705 0.0000 13.1729
#
#
#
# Elastic Compliance Matrix: (Units=1/GPa)
#
#
# Indices 1 2 3 4 5 6 
#
# 1 0.029256 -0.007768 -0.006591 0.000000 -0.007063 0.000000
# 2 -0.007768 0.016365 -0.003613 0.000000 0.001241 0.000000
# 3 -0.006591 -0.003613 0.008571 0.000000 0.000832 0.000000
# 4 0.000000 0.000000 0.000000 0.060612 0.000000 -0.066122
# 5 -0.007063 0.001241 0.000832 0.000000 0.026460 0.000000
# 6 0.000000 0.000000 0.000000 -0.066122 0.000000 0.148047
#
#
# Mechanical properties :
#
#
# Convention : Reuss Voigt Hill
#
# Bulk Modulus (GPa) = 54.80031 81.30502 68.05267
# Shear Modulus (GPa) = 15.09041 28.91236 22.00138
#
# Velocity S-wave (km/s) = 2.83937 3.93019 3.42844
# Velocity P-wave (km/s) = 6.32663 8.00201 7.21313
#
# Compressibility (1/GPa) = 0.01824807
#
# Stress axis : x y z
#
# Youngs Moduli (GPa) = 34.18089 61.10750 116.67851
#
# Poissons Ratio (x) = 0.47468 0.76904
# Poissons Ratio (y) = 0.26552 0.42150
# Poissons Ratio (z) = 0.22529 0.22075
#
# Static dielectric constant tensor:
#      x y z
#    x 1.648190 0.000000 -0.015800 
#    y 0.000000 1.663270 0.000000 
#    z -0.015800 0.000000 1.702460 
# 
# From -- ./inp_files/35014.got.cif
#   From: 2010.05.17/outbox.cif.g08.bks.cpg/sg15_18_cif.got.tgz:35014.got - 2010.06.03 18:47:42.
