data_PCOD9302864
_publ_section_title
;
Structure prediction by ZEFSAII (Michael W. Deem and Ramdas Pophale) SiO2 
 PCOD9302864
Probable space group: C 2/C
;
_chemical_formula_sum "Si O2"
_cell_formula_units_Z 60
_cell_length_a 17.854342
_cell_length_b 6.932602
_cell_length_c 20.410422
_cell_angle_alpha 90.000000
_cell_angle_beta 80.859239
_cell_angle_gamma 90.000000
_cell_volume 2494.259854
_symmetry_space_group_name_H-M "C 2/C"
_symmetry_group_IT_number 15
_symmetry_cell_setting 'monoclinic'
loop_
_space_group_symop_operation_xyz
x,y,z
-x,y,1/2-z
-x,-y,-z
x,-y,1/2+z
1/2+x,1/2+y,z
1/2-x,1/2+y,1/2-z
1/2-x,1/2-y,-z
1/2+x,1/2-y,1/2+z
loop_
_atom_site_type_symbol
_atom_site_label
_atom_site_fract_x
_atom_site_fract_y
_atom_site_fract_z
Si Si1 0.636358 0.985892 0.766279
Si Si2 0.742323 0.267918 0.832944
Si Si3 0.658569 0.292991 0.070202
Si Si4 0.618976 0.600228 0.429475
Si Si5 0.472383 0.537060 0.382032
Si Si6 0.401381 0.093101 0.954005
Si Si7 0.430490 0.954209 0.588916
Si Si8 0.000000 0.745268 0.750000
O O1 0.696843 0.133133 0.789784
O O2 0.594129 0.892134 0.835336
O O3 0.573095 0.107676 0.736406
O O4 0.683694 0.847275 0.713358
O O5 0.770271 0.155422 0.894502
O O6 0.686480 0.434410 0.868642
O O7 0.583745 0.360790 0.119263
O O8 0.660227 0.061258 0.060383
O O9 0.648003 0.388873 0.000028
O O10 0.540089 0.493621 0.423721
O O11 0.594864 0.821830 0.415753
O O12 0.418249 0.712236 0.413600
O O13 0.508880 0.619057 0.311348
O O14 0.479566 0.969369 0.935231
O O15 0.392063 0.144548 0.031711
#
# Coordination Sequence:
#
# PCOD9302864 Si02
#       8
#     8   8   8   8   8   8   8   4
#     4  11  24  44  65  90 135 177 216 265 333 385
#     4  11  24  43  63  96 132 178 210 267 334 394
#     4  11  23  38  69  99 126 166 226 267 321 388
#     4   9  19  42  64  89 133 173 207 271 333 373
#     4  11  22  40  67  96 131 169 218 269 322 384
#     4   9  17  38  63  95 123 163 212 268 322 367
#     4   8  16  35  64  84 124 171 206 261 322 370
#     4  12  22  44  68  86 134 182 210 266 328 390
#
# _framework density 24.055233000000001
#
# number of rings (size 3 to 8) (size 9 to 14) (size 15 to 20)
#    0.000    1.867    4.000    2.400    1.867    0.000 
#    7.200    0.000    0.000    4.000    0.000    0.000 
#    0.000    0.000    0.000    0.000    0.000    0.000 
#
# Total GULP energy -167653.843574 kJ/mol
# GULP energy per Si atom -5588.461452 kJ/mol
# Density = 2.400048 g / cm^3
# Si number density = 24.055233 Si / 1000 Ang^3
#
#
#
# Elastic Constant Matrix: (Units=GPa)
#
#
# Indices 1 2 3 4 5 6 
#
# 1 113.4559 14.0156 29.6383 0.0000 20.7314 0.0000
# 2 14.0156 47.5009 5.1581 0.0000 12.8026 0.0000
# 3 29.6383 5.1581 103.9704 0.0000 -2.8349 0.0000
# 4 0.0000 0.0000 0.0000 23.0818 0.0000 -6.4541
# 5 20.7314 12.8026 -2.8349 0.0000 44.7191 0.0000
# 6 0.0000 0.0000 0.0000 -6.4541 0.0000 29.6299
#
#
#
# Elastic Compliance Matrix: (Units=1/GPa)
#
#
# Indices 1 2 3 4 5 6 
#
# 1 0.010672 -0.001546 -0.003094 0.000000 -0.004701 0.000000
# 2 -0.001546 0.023217 -0.000874 0.000000 -0.005985 0.000000
# 3 -0.003094 -0.000874 0.010608 0.000000 0.002357 0.000000
# 4 0.000000 0.000000 0.000000 0.046134 0.000000 0.010049
# 5 -0.004701 -0.005985 0.002357 0.000000 0.026404 0.000000
# 6 0.000000 0.000000 0.000000 0.010049 0.000000 0.035939
#
#
# Mechanical properties :
#
#
# Convention : Reuss Voigt Hill
#
# Bulk Modulus (GPa) = 29.87895 40.28348 35.08122
# Shear Modulus (GPa) = 28.54576 33.89383 31.21980
#
# Velocity S-wave (km/s) = 3.44855 3.75774 3.60646
# Velocity P-wave (km/s) = 5.32021 5.96742 5.65308
#
# Compressibility (1/GPa) = 0.03346838
#
# Stress axis : x y z
#
# Youngs Moduli (GPa) = 93.70162 43.07280 94.27131
#
# Poissons Ratio (x) = 0.06659 0.29165
# Poissons Ratio (y) = 0.14486 0.08242
# Poissons Ratio (z) = 0.28989 0.03766
#
# Static dielectric constant tensor:
#      x y z
#    x 1.950940 0.000000 -0.031520 
#    y 0.000000 1.939470 0.000000 
#    z -0.031520 0.000000 1.954360 
# 
# From -- ./inp_files/247426.got.cif
#   From: 2010.05.17/outbox.cif.g08.bks.cpg/sg15_124_cif.got.tgz:247426.got - 2010.06.03 18:47:42.
