data_PCOD9302790
_publ_section_title
;
Structure prediction by ZEFSAII (Michael W. Deem and Ramdas Pophale) SiO2 
 PCOD9302790
Probable space group: C 2/C
;
_chemical_formula_sum "Si O2"
_cell_formula_units_Z 48
_cell_length_a 14.755738
_cell_length_b 27.136243
_cell_length_c 11.012044
_cell_angle_alpha 90.000000
_cell_angle_beta 151.271500
_cell_angle_gamma 90.000000
_cell_volume 2119.416673
_symmetry_space_group_name_H-M "C 2/C"
_symmetry_group_IT_number 15
_symmetry_cell_setting 'monoclinic'
loop_
_space_group_symop_operation_xyz
x,y,z
-x,y,1/2-z
-x,-y,-z
x,-y,1/2+z
1/2+x,1/2+y,z
1/2-x,1/2+y,1/2-z
1/2-x,1/2-y,-z
1/2+x,1/2-y,1/2+z
loop_
_atom_site_type_symbol
_atom_site_label
_atom_site_fract_x
_atom_site_fract_y
_atom_site_fract_z
Si Si1 0.365463 0.940198 0.190284
Si Si2 0.633037 0.302637 0.233075
Si Si3 0.300078 0.091006 0.281211
Si Si4 0.284869 0.950544 0.511894
Si Si5 0.207296 0.691830 0.323541
Si Si6 0.589648 0.599062 0.555269
O O1 0.500000 0.912579 0.250000
O O2 0.528090 0.945104 0.484911
O O3 0.186824 0.916370 0.044711
O O4 0.299219 0.991259 0.053377
O O5 0.784215 0.309428 0.519666
O O6 0.638698 0.245550 0.203112
O O7 0.652815 0.345000 0.157827
O O8 0.425594 0.311698 0.042141
O O9 0.209827 0.073718 0.047637
O O10 0.383477 0.145039 0.348165
O O11 0.135479 0.093897 0.188725
O O12 0.500000 0.932476 0.750000
O O13 0.174651 0.935138 0.262637
#
# Coordination Sequence:
#
# PCOD9302790 Si02
#       6
#     8   8   8   8   8   8
#     4  11  27  44  60  88 125 166 225 260 301 371
#     4   9  18  32  55  95 127 150 192 244 317 386
#     4  11  22  41  64  92 128 165 206 255 316 379
#     4  11  22  40  63  90 125 160 207 261 316 378
#     4   9  18  31  56  94 127 152 189 245 315 384
#     4  11  23  42  65  92 126 166 205 260 322 369
#
# _framework density 22.647741
#
# number of rings (size 3 to 8) (size 9 to 14) (size 15 to 20)
#    0.000    1.667    3.333    1.000    4.667    1.333 
#    6.000    0.000    0.000    1.000    0.000    0.000 
#    0.000    0.000    0.000    0.000    0.000    0.000 
#
# Total GULP energy -134071.787592 kJ/mol
# GULP energy per Si atom -5586.324483 kJ/mol
# Density = 2.259619 g / cm^3
# Si number density = 22.647741 Si / 1000 Ang^3
#
#
#
# Elastic Constant Matrix: (Units=GPa)
#
#
# Indices 1 2 3 4 5 6 
#
# 1 110.7564 16.2986 -4.9306 0.0000 14.5226 0.0000
# 2 16.2986 129.6438 8.9765 0.0000 -9.1691 0.0000
# 3 -4.9306 8.9765 65.1029 0.0000 7.8679 0.0000
# 4 0.0000 0.0000 0.0000 14.0881 0.0000 6.8566
# 5 14.5226 -9.1691 7.8679 0.0000 30.0825 0.0000
# 6 0.0000 0.0000 0.0000 6.8566 0.0000 21.3730
#
#
#
# Elastic Compliance Matrix: (Units=1/GPa)
#
#
# Indices 1 2 3 4 5 6 
#
# 1 0.010147 -0.001813 0.001732 0.000000 -0.005904 0.000000
# 2 -0.001813 0.008337 -0.001755 0.000000 0.003876 0.000000
# 3 0.001732 -0.001755 0.016418 0.000000 -0.005665 0.000000
# 4 0.000000 0.000000 0.000000 0.084115 0.000000 -0.026985
# 5 -0.005904 0.003876 -0.005665 0.000000 0.038755 0.000000
# 6 0.000000 0.000000 0.000000 -0.026985 0.000000 0.055445
#
#
# Mechanical properties :
#
#
# Convention : Reuss Voigt Hill
#
# Bulk Modulus (GPa) = 32.02111 38.46579 35.24345
# Shear Modulus (GPa) = 21.99737 32.11929 27.05833
#
# Velocity S-wave (km/s) = 3.11992 3.77000 3.46026
# Velocity P-wave (km/s) = 5.21038 5.99765 5.61782
#
# Compressibility (1/GPa) = 0.03122940
#
# Stress axis : x y z
#
# Youngs Moduli (GPa) = 98.55206 119.94697 60.90819
#
# Poissons Ratio (x) = 0.21748 -0.10549
# Poissons Ratio (y) = 0.17869 0.10691
# Poissons Ratio (z) = -0.17069 0.21053
#
# Static dielectric constant tensor:
#      x y z
#    x 1.930070 0.000000 -0.023630 
#    y 0.000000 1.868060 0.000000 
#    z -0.023630 0.000000 1.887580 
# 
# From -- ./inp_files/101405.got.cif
#   From: 2010.05.17/outbox.cif.g08.bks.cpg/sg15_51_cif.got.tgz:101405.got - 2010.06.03 18:47:42.
