data_PCOD9302880
_publ_section_title
;
Structure prediction by ZEFSAII (Michael W. Deem and Ramdas Pophale) SiO2 
 PCOD9302880
Probable space group: C 2/C
;
_chemical_formula_sum "Si O2"
_cell_formula_units_Z 56
_cell_length_a 18.529264
_cell_length_b 13.668772
_cell_length_c 15.042908
_cell_angle_alpha 90.000000
_cell_angle_beta 52.309774
_cell_angle_gamma 90.000000
_cell_volume 3014.920838
_symmetry_space_group_name_H-M "C 2/C"
_symmetry_group_IT_number 15
_symmetry_cell_setting 'monoclinic'
loop_
_space_group_symop_operation_xyz
x,y,z
-x,y,1/2-z
-x,-y,-z
x,-y,1/2+z
1/2+x,1/2+y,z
1/2-x,1/2+y,1/2-z
1/2-x,1/2-y,-z
1/2+x,1/2-y,1/2+z
loop_
_atom_site_type_symbol
_atom_site_label
_atom_site_fract_x
_atom_site_fract_y
_atom_site_fract_z
Si Si1 0.517390 0.733595 0.838626
Si Si2 0.798137 0.334362 0.735688
Si Si3 0.554905 0.483073 0.367103
Si Si4 0.763854 0.446303 0.264616
Si Si5 0.293242 0.281082 0.060956
Si Si6 0.998506 0.807519 0.650210
Si Si7 0.873653 0.717340 0.593233
O O1 0.500000 0.757594 0.750000
O O2 0.614932 0.774350 0.796307
O O3 0.518177 0.616438 0.851744
O O4 0.439674 0.778461 0.959918
O O5 0.809130 0.448792 0.743811
O O6 0.785506 0.303948 0.641506
O O7 0.706458 0.297603 0.852934
O O8 0.500000 0.500000 0.500000
O O9 0.661520 0.467129 0.307138
O O10 0.538868 0.581421 0.323479
O O11 0.753102 0.376167 0.358735
O O12 0.822077 0.383693 0.150629
O O13 0.250000 0.250000 0.000000
O O14 0.399480 0.304665 0.965341
O O15 0.000000 0.770862 0.750000
O O16 0.934377 0.745381 0.633398
#
# Coordination Sequence:
#
# PCOD9302880 Si02
#       7
#     8   8   8   8   8   8   8
#     4  12  25  44  63  92 133 177 217 267 329 395
#     4  11  22  45  65  91 135 170 216 274 331 392
#     4  12  19  41  67  94 129 166 217 281 324 379
#     4  11  22  40  68  95 129 172 213 265 339 384
#     4  11  23  43  66 101 134 167 221 281 328 396
#     4  12  22  38  68  99 126 171 219 272 336 387
#     4  11  22  43  67  91 133 169 215 277 321 390
#
# _framework density 18.574285
#
# number of rings (size 3 to 8) (size 9 to 14) (size 15 to 20)
#    0.000    0.571    8.571    2.143    0.000    1.143 
#    2.571    0.714    0.000    0.000    0.000    0.000 
#    0.000    0.000    0.000    0.000    0.000    0.000 
#
# Total GULP energy -156484.053715 kJ/mol
# GULP energy per Si atom -5588.716204 kJ/mol
# Density = 1.853201 g / cm^3
# Si number density = 18.574285 Si / 1000 Ang^3
#
#
#
# Elastic Constant Matrix: (Units=GPa)
#
#
# Indices 1 2 3 4 5 6 
#
# 1 97.8674 24.7032 63.5380 0.0000 -2.2295 0.0000
# 2 24.7032 95.5392 25.0837 0.0000 -3.9392 0.0000
# 3 63.5380 25.0837 121.7495 0.0000 1.9301 0.0000
# 4 0.0000 0.0000 0.0000 25.5433 0.0000 -7.2858
# 5 -2.2295 -3.9392 1.9301 0.0000 33.5106 0.0000
# 6 0.0000 0.0000 0.0000 -7.2858 0.0000 9.1949
#
#
#
# Elastic Compliance Matrix: (Units=1/GPa)
#
#
# Indices 1 2 3 4 5 6 
#
# 1 0.015873 -0.001978 -0.007896 0.000000 0.001278 0.000000
# 2 -0.001978 0.011381 -0.001333 0.000000 0.001283 0.000000
# 3 -0.007896 -0.001333 0.012631 0.000000 -0.001410 0.000000
# 4 0.000000 0.000000 0.000000 0.050581 0.000000 0.040079
# 5 0.001278 0.001283 -0.001410 0.000000 0.030158 0.000000
# 6 0.000000 0.000000 0.000000 0.040079 0.000000 0.140514
#
#
# Mechanical properties :
#
#
# Convention : Reuss Voigt Hill
#
# Bulk Modulus (GPa) = 57.23858 60.20066 58.71962
# Shear Modulus (GPa) = 17.27848 27.10515 22.19182
#
# Velocity S-wave (km/s) = 3.05329 3.82420 3.46028
# Velocity P-wave (km/s) = 6.58126 7.20975 6.90266
#
# Compressibility (1/GPa) = 0.01747073
#
# Stress axis : x y z
#
# Youngs Moduli (GPa) = 63.00042 87.86385 79.16760
#
# Poissons Ratio (x) = 0.17382 0.62514
# Poissons Ratio (y) = 0.12464 0.10551
# Poissons Ratio (z) = 0.49747 0.11710
#
# Static dielectric constant tensor:
#      x y z
#    x 1.633900 0.000000 0.000430 
#    y 0.000000 1.661000 0.000000 
#    z 0.000430 0.000000 1.639570 
# 
# From -- ./inp_files/162197.got.cif
#   From: 2010.05.17/outbox.cif.g08.bks.cpg/sg15_82_cif.got.tgz:162197.got - 2010.06.03 18:47:42.
