data_PCOD9302199
_publ_section_title
;
Structure prediction by ZEFSAII (Michael W. Deem and Ramdas Pophale) SiO2 
 PCOD9302199
Probable space group: C 2/C
;
_chemical_formula_sum "Si O2"
_cell_formula_units_Z 52
_cell_length_a 9.201338
_cell_length_b 17.197572
_cell_length_c 19.683782
_cell_angle_alpha 90.000000
_cell_angle_beta 134.360693
_cell_angle_gamma 90.000000
_cell_volume 2226.916125
_symmetry_space_group_name_H-M "C 2/C"
_symmetry_group_IT_number 15
_symmetry_cell_setting 'monoclinic'
loop_
_space_group_symop_operation_xyz
x,y,z
-x,y,1/2-z
-x,-y,-z
x,-y,1/2+z
1/2+x,1/2+y,z
1/2-x,1/2+y,1/2-z
1/2-x,1/2-y,-z
1/2+x,1/2-y,1/2+z
loop_
_atom_site_type_symbol
_atom_site_label
_atom_site_fract_x
_atom_site_fract_y
_atom_site_fract_z
Si Si1 0.500000 0.187359 0.750000
Si Si2 0.754704 0.341749 0.665735
Si Si3 0.822217 0.865290 0.260757
Si Si4 0.651898 0.456801 0.737538
Si Si5 0.650857 0.706704 0.404183
Si Si6 0.442857 0.081471 0.445900
Si Si7 0.227114 0.799107 0.407757
O O1 0.386399 0.136064 0.767502
O O2 0.337519 0.241570 0.658777
O O3 0.685540 0.426181 0.670896
O O4 0.592978 0.300507 0.664814
O O5 0.710709 0.290855 0.583279
O O6 0.000000 0.335398 0.750000
O O7 0.779482 0.835727 0.170774
O O8 0.993247 0.810983 0.350796
O O9 0.900214 0.953045 0.285359
O O10 0.500000 0.427722 0.750000
O O11 0.863597 0.438374 0.844910
O O12 0.750000 0.750000 0.500000
O O13 0.767977 0.625692 0.432606
O O14 0.621123 0.145320 0.502925
O O15 0.500000 0.000000 0.500000
#
# Coordination Sequence:
#
# PCOD9302199 Si02
#       7
#     4   8   8   8   8   8   8
#     4  12  24  44  72 104 138 184 242 284 360 424
#     4  12  24  43  66 100 139 179 229 290 352 414
#     4  11  22  43  69  95 134 184 230 284 352 418
#     4  12  24  42  68  97 135 184 234 282 351 428
#     4  12  24  43  71 103 141 187 234 296 353 421
#     4  12  23  39  67 101 131 175 233 282 343 413
#     4  11  21  43  67  94 136 181 222 290 350 408
#
# _framework density 23.350677999999998
#
# number of rings (size 3 to 8) (size 9 to 14) (size 15 to 20)
#    0.000    0.308    9.231    0.923    1.077    0.000 
#    2.769    1.538    0.000    2.769    0.000    0.000 
#    0.000    0.000    0.000    0.000    0.000    0.000 
#
# Total GULP energy -144795.677952 kJ/mol
# GULP energy per Si atom -5569.064537 kJ/mol
# Density = 2.329753 g / cm^3
# Si number density = 23.350678 Si / 1000 Ang^3
#
#
#
# Elastic Constant Matrix: (Units=GPa)
#
#
# Indices 1 2 3 4 5 6 
#
# 1 125.2762 36.1144 17.2604 0.0000 21.6085 0.0000
# 2 36.1144 104.3177 11.2785 0.0000 -12.5625 0.0000
# 3 17.2604 11.2785 58.4569 0.0000 -6.4332 0.0000
# 4 0.0000 0.0000 0.0000 27.6420 0.0000 9.4046
# 5 21.6085 -12.5625 -6.4332 0.0000 25.4611 0.0000
# 6 0.0000 0.0000 0.0000 9.4046 0.0000 18.9295
#
#
#
# Elastic Compliance Matrix: (Units=1/GPa)
#
#
# Indices 1 2 3 4 5 6 
#
# 1 0.012770 -0.005734 -0.004288 0.000000 -0.014750 0.000000
# 2 -0.005734 0.012888 0.000454 0.000000 0.011340 0.000000
# 3 -0.004288 0.000454 0.019245 0.000000 0.008726 0.000000
# 4 0.000000 0.000000 0.000000 0.043536 0.000000 -0.021630
# 5 -0.014750 0.011340 0.008726 0.000000 0.059594 0.000000
# 6 0.000000 0.000000 0.000000 -0.021630 0.000000 0.063574
#
#
# Mechanical properties :
#
#
# Convention : Reuss Voigt Hill
#
# Bulk Modulus (GPa) = 38.80619 46.37305 42.58962
# Shear Modulus (GPa) = 20.89166 29.29968 25.09567
#
# Velocity S-wave (km/s) = 2.99438 3.54611 3.28186
# Velocity P-wave (km/s) = 5.34884 6.05550 5.71311
#
# Compressibility (1/GPa) = 0.02576908
#
# Stress axis : x y z
#
# Youngs Moduli (GPa) = 78.30687 77.59417 51.96091
#
# Poissons Ratio (x) = 0.44491 0.22279
# Poissons Ratio (y) = 0.44899 -0.02361
# Poissons Ratio (z) = 0.33575 -0.03526
#
# Static dielectric constant tensor:
#      x y z
#    x 1.985900 0.000000 0.072360 
#    y 0.000000 1.951020 0.000000 
#    z 0.072360 0.000000 1.938070 
# 
# From -- ./inp_files/233111.got.cif
#   From: 2010.05.17/outbox.cif.g08.bks.cpg/sg15_117_cif.got.tgz:233111.got - 2010.06.03 18:47:42.
