data_PCOD9302175
_publ_section_title
;
Structure prediction by ZEFSAII (Michael W. Deem and Ramdas Pophale) SiO2 
 PCOD9302175
Probable space group: C 2/C
;
_chemical_formula_sum "Si O2"
_cell_formula_units_Z 60
_cell_length_a 15.723575
_cell_length_b 16.633928
_cell_length_c 10.409266
_cell_angle_alpha 90.000000
_cell_angle_beta 91.862720
_cell_angle_gamma 90.000000
_cell_volume 2721.050919
_symmetry_space_group_name_H-M "C 2/C"
_symmetry_group_IT_number 15
_symmetry_cell_setting 'monoclinic'
loop_
_space_group_symop_operation_xyz
x,y,z
-x,y,1/2-z
-x,-y,-z
x,-y,1/2+z
1/2+x,1/2+y,z
1/2-x,1/2+y,1/2-z
1/2-x,1/2-y,-z
1/2+x,1/2-y,1/2+z
loop_
_atom_site_type_symbol
_atom_site_label
_atom_site_fract_x
_atom_site_fract_y
_atom_site_fract_z
Si Si1 0.152411 0.548536 0.591455
Si Si2 0.712652 0.180225 0.409019
Si Si3 0.830772 0.947156 0.253876
Si Si4 0.000000 0.392801 0.250000
Si Si5 0.899303 0.730381 0.589295
Si Si6 0.276196 0.900586 0.019569
Si Si7 0.155420 0.879038 0.775330
Si Si8 0.094137 0.774194 0.209723
O O1 0.154147 0.619776 0.487628
O O2 0.246143 0.554286 0.661065
O O3 0.150629 0.462573 0.520312
O O4 0.079218 0.558327 0.694348
O O5 0.750000 0.250000 0.500000
O O6 0.794098 0.135379 0.353383
O O7 0.659986 0.218951 0.290085
O O8 0.789985 0.946513 0.393665
O O9 0.884214 0.865917 0.249666
O O10 0.879128 0.030269 0.228163
O O11 0.030486 0.333912 0.365609
O O12 0.812793 0.677108 0.594106
O O13 0.902391 0.804358 0.688141
O O14 0.902104 0.761404 0.443515
O O15 0.226326 0.875500 0.890776
O O16 0.000000 0.753646 0.250000
#
# Coordination Sequence:
#
# PCOD9302175 Si02
#       8
#     8   8   8   4   8   8   8   8
#     4  11  24  41  66 102 137 177 223 281 342 404
#     4  12  22  40  69 100 135 174 233 285 335 400
#     4  11  22  45  70  98 132 175 228 284 339 400
#     4  12  26  44  64 102 146 182 224 282 344 412
#     4  12  24  45  67  97 140 183 227 276 345 413
#     4  11  21  42  72  96 130 178 229 283 334 412
#     4  11  23  40  74 100 124 179 232 278 336 410
#     4  12  26  45  69 101 139 182 230 281 343 408
#
# _framework density 22.050304000000001
#
# number of rings (size 3 to 8) (size 9 to 14) (size 15 to 20)
#    0.000    0.533    6.667    2.800    0.000    0.533 
#    2.400    0.667    0.000    0.000    0.000    0.000 
#    0.000    0.000    0.000    0.000    0.000    0.000 
#
# Total GULP energy -167730.397052 kJ/mol
# GULP energy per Si atom -5591.013235 kJ/mol
# Density = 2.200012 g / cm^3
# Si number density = 22.050304 Si / 1000 Ang^3
#
#
#
# Elastic Constant Matrix: (Units=GPa)
#
#
# Indices 1 2 3 4 5 6 
#
# 1 38.8777 13.2097 8.0865 0.0000 -4.3958 0.0000
# 2 13.2097 97.6961 12.8338 0.0000 -4.0983 0.0000
# 3 8.0865 12.8338 71.9176 0.0000 -9.2719 0.0000
# 4 0.0000 0.0000 0.0000 33.6566 0.0000 -0.4274
# 5 -4.3958 -4.0983 -9.2719 0.0000 31.5845 0.0000
# 6 0.0000 0.0000 0.0000 -0.4274 0.0000 12.4772
#
#
#
# Elastic Compliance Matrix: (Units=1/GPa)
#
#
# Indices 1 2 3 4 5 6 
#
# 1 0.027617 -0.003335 -0.002152 0.000000 0.002779 0.000000
# 2 -0.003335 0.010906 -0.001506 0.000000 0.000509 0.000000
# 3 -0.002152 -0.001506 0.014916 0.000000 0.003884 0.000000
# 4 0.000000 0.000000 0.000000 0.029725 0.000000 0.001018
# 5 0.002779 0.000509 0.003884 0.000000 0.033254 0.000000
# 6 0.000000 0.000000 0.000000 0.001018 0.000000 0.080181
#
#
# Mechanical properties :
#
#
# Convention : Reuss Voigt Hill
#
# Bulk Modulus (GPa) = 25.34589 30.75015 28.04802
# Shear Modulus (GPa) = 22.34791 27.16773 24.75782
#
# Velocity S-wave (km/s) = 3.18700 3.51391 3.35444
# Velocity P-wave (km/s) = 5.00621 5.51717 5.26789
#
# Compressibility (1/GPa) = 0.03945413
#
# Stress axis : x y z
#
# Youngs Moduli (GPa) = 36.21011 91.69372 67.04137
#
# Poissons Ratio (x) = 0.30579 0.14426
# Poissons Ratio (y) = 0.12076 0.10093
# Poissons Ratio (z) = 0.07792 0.13805
#
# Static dielectric constant tensor:
#      x y z
#    x 1.800840 0.000000 0.000800 
#    y 0.000000 1.846150 0.000000 
#    z 0.000800 0.000000 1.815560 
# 
# From -- ./inp_files/105360.got.cif
#   From: 2010.05.17/outbox.cif.g08.bks.cpg/sg15_53_cif.got.tgz:105360.got - 2010.06.03 18:47:42.
