data_PCOD9302594
_publ_section_title
;
Structure prediction by ZEFSAII (Michael W. Deem and Ramdas Pophale) SiO2 
 PCOD9302594
Probable space group: C 2/C
;
_chemical_formula_sum "Si O2"
_cell_formula_units_Z 48
_cell_length_a 13.421460
_cell_length_b 18.275241
_cell_length_c 15.261727
_cell_angle_alpha 90.000000
_cell_angle_beta 36.349008
_cell_angle_gamma 90.000000
_cell_volume 2218.723470
_symmetry_space_group_name_H-M "C 2/C"
_symmetry_group_IT_number 15
_symmetry_cell_setting 'monoclinic'
loop_
_space_group_symop_operation_xyz
x,y,z
-x,y,1/2-z
-x,-y,-z
x,-y,1/2+z
1/2+x,1/2+y,z
1/2-x,1/2+y,1/2-z
1/2-x,1/2-y,-z
1/2+x,1/2-y,1/2+z
loop_
_atom_site_type_symbol
_atom_site_label
_atom_site_fract_x
_atom_site_fract_y
_atom_site_fract_z
Si Si1 0.319964 0.740205 0.854558
Si Si2 0.775578 0.106224 0.146268
Si Si3 0.420933 0.196721 0.625512
Si Si4 0.640634 0.942552 0.928717
Si Si5 0.385499 0.341374 0.035721
Si Si6 0.807240 0.469629 0.416685
O O1 0.500000 0.706161 0.750000
O O2 0.330877 0.820156 0.799220
O O3 0.185351 0.699044 0.889722
O O4 0.250000 0.750000 0.000000
O O5 0.744391 0.078593 0.268139
O O6 0.730829 0.042934 0.110425
O O7 0.971902 0.126920 0.000365
O O8 0.551656 0.131166 0.526165
O O9 0.520028 0.271876 0.572023
O O10 0.278488 0.186119 0.798177
O O11 0.717540 0.977767 0.961782
O O12 0.500000 0.000000 0.000000
O O13 0.319386 0.405667 0.021736
O O14 0.000000 0.450655 0.250000
#
# Coordination Sequence:
#
# PCOD9302594 Si02
#       6
#     8   8   8   8   8   8
#     4  11  22  38  66  99 133 182 228 283 357 410
#     4  11  24  45  70 104 144 178 234 300 346 426
#     4  11  23  43  66 100 141 181 233 298 344 416
#     4  12  25  44  72 101 142 189 234 290 359 416
#     4  11  24  46  71 100 141 182 234 297 348 418
#     4  12  24  45  72 103 139 189 234 283 356 420
#
# _framework density 21.634063000000001
#
# number of rings (size 3 to 8) (size 9 to 14) (size 15 to 20)
#    0.000    0.667    3.333    6.000    2.333    1.333 
#    0.000    0.000    0.000    0.000    0.000    0.000 
#    0.000    0.000    0.000    0.000    0.000    0.000 
#
# Total GULP energy -134118.642029 kJ/mol
# GULP energy per Si atom -5588.276751 kJ/mol
# Density = 2.158482 g / cm^3
# Si number density = 21.634063 Si / 1000 Ang^3
#
#
#
# Elastic Constant Matrix: (Units=GPa)
#
#
# Indices 1 2 3 4 5 6 
#
# 1 67.4486 21.7832 2.9109 0.0009 9.1633 -0.0001
# 2 21.7832 71.2017 0.4619 0.0022 -9.9812 -0.0005
# 3 2.9109 0.4619 57.6336 0.0055 9.0967 -0.0012
# 4 0.0009 0.0022 0.0055 25.9765 -0.0023 2.7253
# 5 9.1633 -9.9812 9.0967 -0.0023 43.9655 0.0004
# 6 -0.0001 -0.0005 -0.0012 2.7253 0.0004 21.4312
#
#
#
# Elastic Compliance Matrix: (Units=1/GPa)
#
#
# Indices 1 2 3 4 5 6 
#
# 1 0.017459 -0.006042 -0.000044 -0.000001 -0.005001 0.000000
# 2 -0.006042 0.016621 -0.000643 -0.000001 0.005166 0.000000
# 3 -0.000044 -0.000643 0.017967 -0.000004 -0.003854 0.000002
# 4 -0.000001 -0.000001 -0.000004 0.039017 0.000003 -0.004962
# 5 -0.005001 0.005166 -0.003854 0.000003 0.025758 -0.000001
# 6 0.000000 0.000000 0.000002 -0.004962 -0.000001 0.047292
#
#
# Mechanical properties :
#
#
# Convention : Reuss Voigt Hill
#
# Bulk Modulus (GPa) = 25.91478 27.39955 26.65716
# Shear Modulus (GPa) = 26.25566 29.68316 27.96941
#
# Velocity S-wave (km/s) = 3.48749 3.70815 3.59951
# Velocity P-wave (km/s) = 5.31239 5.57013 5.44278
#
# Compressibility (1/GPa) = 0.03858802
#
# Stress axis : x y z
#
# Youngs Moduli (GPa) = 57.27761 60.16318 55.65846
#
# Poissons Ratio (x) = 0.36351 0.00245
# Poissons Ratio (y) = 0.34608 0.03581
# Poissons Ratio (z) = 0.00252 0.03871
#
# Static dielectric constant tensor:
#      x y z
#    x 1.800430 0.000000 0.016440 
#    y 0.000000 1.799420 0.000000 
#    z 0.016440 0.000000 1.758280 
# 
# From -- ./inp_files/147350.got.cif
#   From: 2010.05.17/outbox.cif.g08.bks.cpg/sg15_74_cif.got.tgz:147350.got - 2010.06.03 18:47:42.
