data_PCOD9302057
_publ_section_title
;
Structure prediction by ZEFSAII (Michael W. Deem and Ramdas Pophale) SiO2 
 PCOD9302057
Probable space group: C 2/C
;
_chemical_formula_sum "Si O2"
_cell_formula_units_Z 28
_cell_length_a 11.865223
_cell_length_b 13.860762
_cell_length_c 13.304548
_cell_angle_alpha 90.000000
_cell_angle_beta 33.672516
_cell_angle_gamma 90.000000
_cell_volume 1213.170474
_symmetry_space_group_name_H-M "C 2/C"
_symmetry_group_IT_number 15
_symmetry_cell_setting 'monoclinic'
loop_
_space_group_symop_operation_xyz
x,y,z
-x,y,1/2-z
-x,-y,-z
x,-y,1/2+z
1/2+x,1/2+y,z
1/2-x,1/2+y,1/2-z
1/2-x,1/2-y,-z
1/2+x,1/2-y,1/2+z
loop_
_atom_site_type_symbol
_atom_site_label
_atom_site_fract_x
_atom_site_fract_y
_atom_site_fract_z
Si Si1 0.000000 0.512109 0.250000
Si Si2 0.769171 0.949848 0.379865
Si Si3 0.156189 0.847898 0.727059
Si Si4 0.310048 0.367528 0.131656
O O1 0.888502 0.577025 0.416405
O O2 0.831193 0.440626 0.327109
O O3 0.780456 0.890882 0.269758
O O4 0.000000 0.952242 0.250000
O O5 0.706403 0.939571 0.900132
O O6 0.534719 0.623268 0.417911
O O7 0.258311 0.744718 0.655720
O O8 0.000000 0.839714 0.750000
#
# Coordination Sequence:
#
# PCOD9302057 Si02
#       4
#     4   8   8   8
#     4  12  22  40  70  98 128 166 222 266 326 376
#     4  11  25  44  68  96 132 172 214 268 324 387
#     4  11  21  41  69  95 129 166 218 274 311 373
#     4  12  23  41  69 100 130 167 221 270 321 380
#
# _framework density 23.080023000000001
#
# number of rings (size 3 to 8) (size 9 to 14) (size 15 to 20)
#    0.000    0.571    7.143    4.286    0.000    0.000 
#    0.000    1.429    3.143    0.000    0.000    0.000 
#    0.000    0.000    0.000    0.000    0.000    0.000 
#
# Total GULP energy -78399.337620 kJ/mol
# GULP energy per Si atom -5599.952687 kJ/mol
# Density = 2.302749 g / cm^3
# Si number density = 23.080023 Si / 1000 Ang^3
#
#
#
# Elastic Constant Matrix: (Units=GPa)
#
#
# Indices 1 2 3 4 5 6 
#
# 1 39.9932 8.0572 15.0855 -0.0011 18.5704 0.0006
# 2 8.0572 41.1579 -12.6897 -0.0011 15.3739 0.0009
# 3 15.0855 -12.6897 170.8371 -0.0018 33.2762 0.0014
# 4 -0.0011 -0.0011 -0.0018 16.5022 0.0012 12.9578
# 5 18.5704 15.3739 33.2762 0.0012 38.0416 -0.0005
# 6 0.0006 0.0009 0.0014 12.9578 -0.0005 4.6352
#
#
#
# Elastic Compliance Matrix: (Units=1/GPa)
#
#
# Indices 1 2 3 4 5 6 
#
# 1 0.032347 -0.000364 0.000197 -0.000007 -0.015816 0.000013
# 2 -0.000364 0.033200 0.006120 -0.000010 -0.018593 0.000018
# 3 0.000197 0.006120 0.008186 -0.000005 -0.009730 0.000009
# 4 -0.000007 -0.000010 -0.000005 -0.050706 0.000015 0.141749
# 5 -0.015816 -0.018593 -0.009730 0.000015 0.050033 -0.000028
# 6 0.000013 0.000018 0.000009 0.141749 -0.000028 -0.180521
#
#
# Mechanical properties :
#
#
# Convention : Reuss Voigt Hill
#
# Bulk Modulus (GPa) = 11.67680 30.32156 20.99918
# Shear Modulus (GPa) = -55.05293 27.93815 -13.55739
#
# Velocity S-wave (km/s) = -4.88926 3.48298 -2.42628
# Velocity P-wave (km/s) = 5.17715 5.41673 1.12653
#
# Compressibility (1/GPa) = 0.08563990
#
# Stress axis : x y z
#
# Youngs Moduli (GPa) = 30.91466 30.12071 122.16094
#
# Poissons Ratio (x) = 0.01095 -0.02411
# Poissons Ratio (y) = 0.01124 -0.74759
# Poissons Ratio (z) = -0.00610 -0.18433
#
# Static dielectric constant tensor:
#      x y z
#    x 1.900950 0.000000 0.004850 
#    y 0.000000 1.821320 0.000000 
#    z 0.004850 0.000000 1.889370 
# 
# From -- ./inp_files/6976.got.cif
#   From: 2010.05.17/outbox.cif.g08.bks.cpg/sg15_4_cif.got.tgz:6976.got - 2010.06.03 18:47:42.
