data_PCOD9302505
_publ_section_title
;
Structure prediction by ZEFSAII (Michael W. Deem and Ramdas Pophale) SiO2 
 PCOD9302505
Probable space group: C 2/C
;
_chemical_formula_sum "Si O2"
_cell_formula_units_Z 56
_cell_length_a 21.256743
_cell_length_b 13.751013
_cell_length_c 9.164546
_cell_angle_alpha 90.000000
_cell_angle_beta 121.398359
_cell_angle_gamma 90.000000
_cell_volume 2286.542798
_symmetry_space_group_name_H-M "C 2/C"
_symmetry_group_IT_number 15
_symmetry_cell_setting 'monoclinic'
loop_
_space_group_symop_operation_xyz
x,y,z
-x,y,1/2-z
-x,-y,-z
x,-y,1/2+z
1/2+x,1/2+y,z
1/2-x,1/2+y,1/2-z
1/2-x,1/2-y,-z
1/2+x,1/2-y,1/2+z
loop_
_atom_site_type_symbol
_atom_site_label
_atom_site_fract_x
_atom_site_fract_y
_atom_site_fract_z
Si Si1 0.882841 0.968112 0.991896
Si Si2 0.578542 0.726987 0.793575
Si Si3 0.432320 0.679949 0.060556
Si Si4 0.446107 0.987983 0.070396
Si Si5 0.840988 0.329809 0.083127
Si Si6 0.180649 0.639300 0.606899
Si Si7 0.214936 0.981189 0.877843
O O1 0.857799 0.948652 0.797035
O O2 0.913665 0.877515 0.117579
O O3 0.932168 0.063589 0.051162
O O4 0.807262 0.996388 0.983912
O O5 0.500000 0.765903 0.750000
O O6 0.570786 0.718414 0.609740
O O7 0.646175 0.790527 0.940716
O O8 0.500000 0.707053 0.250000
O O9 0.357703 0.724070 0.039730
O O10 0.500000 0.034739 0.250000
O O11 0.413045 0.891206 0.110368
O O12 0.500000 0.000000 0.000000
O O13 0.374973 0.049222 0.949118
O O14 0.825995 0.318421 0.238000
O O15 0.774288 0.395254 0.942471
O O16 0.255313 0.585537 0.647085
#
# Coordination Sequence:
#
# PCOD9302505 Si02
#       7
#     8   8   8   8   8   8   8
#     4  12  27  51  74 101 143 190 245 299 349 421
#     4  12  29  47  74 107 142 188 242 298 361 421
#     4  12  29  47  75 107 142 187 243 297 362 421
#     4  11  22  37  63  96 141 188 234 285 350 417
#     4  11  25  43  68 104 147 186 232 294 352 427
#     4  11  25  43  69 106 145 186 232 294 354 428
#     4  11  26  48  73 107 144 189 240 288 360 426
#
# _framework density 24.491123000000002
#
# number of rings (size 3 to 8) (size 9 to 14) (size 15 to 20)
#    0.000    0.571    4.286    2.143   10.000    3.429 
#    0.000    0.000    0.000    0.000    0.000    0.000 
#    0.000    0.000    0.000    0.000    0.000    0.000 
#
# Total GULP energy -156417.334762 kJ/mol
# GULP energy per Si atom -5586.333384 kJ/mol
# Density = 2.443538 g / cm^3
# Si number density = 24.491123 Si / 1000 Ang^3
#
#
#
# Elastic Constant Matrix: (Units=GPa)
#
#
# Indices 1 2 3 4 5 6 
#
# 1 52.2213 13.5804 25.2579 0.0000 -9.7771 0.0000
# 2 13.5804 100.6046 46.2509 0.0000 4.7713 0.0000
# 3 25.2579 46.2509 161.9699 0.0000 -21.7990 0.0000
# 4 0.0000 0.0000 0.0000 39.5365 0.0000 0.8056
# 5 -9.7771 4.7713 -21.7990 0.0000 44.2183 0.0000
# 6 0.0000 0.0000 0.0000 0.8056 0.0000 46.7361
#
#
#
# Elastic Compliance Matrix: (Units=1/GPa)
#
#
# Indices 1 2 3 4 5 6 
#
# 1 0.021493 -0.002053 -0.002245 0.000000 0.003867 0.000000
# 2 -0.002053 0.012035 -0.003591 0.000000 -0.003523 0.000000
# 3 -0.002245 -0.003591 0.008070 0.000000 0.003869 0.000000
# 4 0.000000 0.000000 0.000000 0.025302 0.000000 -0.000436
# 5 0.003867 -0.003523 0.003869 0.000000 0.025758 0.000000
# 6 0.000000 0.000000 0.000000 -0.000436 0.000000 0.021404
#
#
# Mechanical properties :
#
#
# Convention : Reuss Voigt Hill
#
# Bulk Modulus (GPa) = 38.72753 53.88601 46.30677
# Shear Modulus (GPa) = 36.11536 41.41197 38.76367
#
# Velocity S-wave (km/s) = 3.84426 4.11651 3.98271
# Velocity P-wave (km/s) = 5.96252 6.68164 6.33229
#
# Compressibility (1/GPa) = 0.02582142
#
# Stress axis : x y z
#
# Youngs Moduli (GPa) = 46.52698 83.09299 123.91327
#
# Poissons Ratio (x) = 0.17055 0.27820
# Poissons Ratio (y) = 0.09550 0.44492
# Poissons Ratio (z) = 0.10446 0.29835
#
# Static dielectric constant tensor:
#      x y z
#    x 1.982520 0.000000 0.000970 
#    y 0.000000 1.300170 0.000000 
#    z 0.000970 0.000000 1.896530 
# 
# From -- ./inp_files/62007.got.cif
#   From: 2010.05.17/outbox.cif.g08.bks.cpg/sg15_32_cif.got.tgz:62007.got - 2010.06.03 18:47:42.
