data_PCOD9302828
_publ_section_title
;
Structure prediction by ZEFSAII (Michael W. Deem and Ramdas Pophale) SiO2 
 PCOD9302828
Probable space group: C 2/C
;
_chemical_formula_sum "Si O2"
_cell_formula_units_Z 56
_cell_length_a 11.449182
_cell_length_b 15.385901
_cell_length_c 28.795302
_cell_angle_alpha 90.000000
_cell_angle_beta 31.190555
_cell_angle_gamma 90.000000
_cell_volume 2626.958429
_symmetry_space_group_name_H-M "C 2/C"
_symmetry_group_IT_number 15
_symmetry_cell_setting 'monoclinic'
loop_
_space_group_symop_operation_xyz
x,y,z
-x,y,1/2-z
-x,-y,-z
x,-y,1/2+z
1/2+x,1/2+y,z
1/2-x,1/2+y,1/2-z
1/2-x,1/2-y,-z
1/2+x,1/2-y,1/2+z
loop_
_atom_site_type_symbol
_atom_site_label
_atom_site_fract_x
_atom_site_fract_y
_atom_site_fract_z
Si Si1 0.631626 0.797937 0.082401
Si Si2 0.343424 0.548569 0.207261
Si Si3 0.504869 0.759331 0.898762
Si Si4 0.339645 0.008656 0.899103
Si Si5 0.164160 0.833657 0.655036
Si Si6 0.560919 0.569153 0.909341
Si Si7 0.157145 0.728315 0.241024
O O1 0.703836 0.896976 0.063433
O O2 0.689836 0.736649 0.106086
O O3 0.361383 0.796151 0.169689
O O4 0.750000 0.750000 0.000000
O O5 0.531369 0.583388 0.179662
O O6 0.447539 0.478996 0.137023
O O7 0.275344 0.634030 0.200933
O O8 0.103823 0.515453 0.309174
O O9 0.608003 0.839700 0.893028
O O10 0.613140 0.668993 0.880208
O O11 0.541203 0.766719 0.831201
O O12 0.250000 0.750000 0.000000
O O13 0.250769 0.022922 0.876665
O O14 0.172171 0.942400 0.982390
O O15 0.000000 0.795928 0.750000
O O16 0.000000 0.737756 0.250000
#
# Coordination Sequence:
#
# PCOD9302828 Si02
#       7
#     8   8   8   8   8   8   8
#     4  11  23  40  71  98 135 180 235 285 349 408
#     4  11  23  40  69  98 138 171 228 293 354 398
#     4  12  25  44  73  98 135 189 241 282 346 429
#     4  11  22  40  66 100 138 178 232 293 349 409
#     4  11  23  45  69  97 134 187 232 279 346 429
#     4  11  24  40  66 103 135 177 240 288 341 418
#     4  11  24  42  63  99 136 176 232 282 344 415
#
# _framework density 21.317429000000001
#
# number of rings (size 3 to 8) (size 9 to 14) (size 15 to 20)
#    0.000    0.857    4.286    4.714    2.000    2.286 
#    0.000    3.571    0.000    0.000    0.000    0.000 
#    0.000    0.000    0.000    0.000    0.000    0.000 
#
# Total GULP energy -156408.427040 kJ/mol
# GULP energy per Si atom -5586.015251 kJ/mol
# Density = 2.126891 g / cm^3
# Si number density = 21.317429 Si / 1000 Ang^3
#
#
#
# Elastic Constant Matrix: (Units=GPa)
#
#
# Indices 1 2 3 4 5 6 
#
# 1 163.3129 25.8855 65.2681 0.0054 8.2694 0.0050
# 2 25.8855 71.1475 7.8964 -0.0023 12.3913 0.0013
# 3 65.2681 7.8964 80.6686 0.0384 -0.8851 0.0390
# 4 0.0054 -0.0023 0.0384 -0.8727 -0.0118 -18.7451
# 5 8.2694 12.3913 -0.8851 -0.0118 36.5546 -0.0094
# 6 0.0050 0.0013 0.0390 -18.7451 -0.0094 18.1285
#
#
#
# Elastic Compliance Matrix: (Units=1/GPa)
#
#
# Indices 1 2 3 4 5 6 
#
# 1 0.009596 -0.002384 -0.007547 -0.000023 -0.001545 -0.000010
# 2 -0.002384 0.015718 0.000338 0.000004 -0.004780 0.000001
# 3 -0.007547 0.000338 0.018492 0.000066 0.002041 0.000031
# 4 -0.000023 0.000004 0.000066 -0.049369 -0.000024 -0.051049
# 5 -0.001545 -0.004780 0.002041 -0.000024 0.029376 -0.000013
# 6 -0.000010 0.000001 0.000031 -0.051049 -0.000013 0.002377
#
#
# Mechanical properties :
#
#
# Convention : Reuss Voigt Hill
#
# Bulk Modulus (GPa) = 40.61979 57.02544 48.82262
# Shear Modulus (GPa) = 93.31476 25.16734 59.24105
#
# Velocity S-wave (km/s) = 6.62336 3.43971 5.27734
# Velocity P-wave (km/s) = 8.80841 6.52566 7.75152
#
# Compressibility (1/GPa) = 0.02461854
#
# Stress axis : x y z
#
# Youngs Moduli (GPa) = 104.21368 63.62184 54.07723
#
# Poissons Ratio (x) = 0.15170 0.40814
# Poissons Ratio (y) = 0.24849 -0.01829
# Poissons Ratio (z) = 0.78653 -0.02151
#
# Static dielectric constant tensor:
#      x y z
#    x 1.751630 0.000010 0.013120 
#    y 0.000010 1.772670 -0.000010 
#    z 0.013120 -0.000010 1.700400 
# 
# From -- ./inp_files/311311.got.cif
#   From: 2010.05.17/outbox.cif.g08.bks.cpg/sg15_156_cif.got.tgz:311311.got - 2010.06.03 18:47:42.
