data_PCOD9302751
_publ_section_title
;
Structure prediction by ZEFSAII (Michael W. Deem and Ramdas Pophale) SiO2 
 PCOD9302751
Probable space group: C 2/C
;
_chemical_formula_sum "Si O2"
_cell_formula_units_Z 56
_cell_length_a 18.577865
_cell_length_b 6.793056
_cell_length_c 23.658981
_cell_angle_alpha 90.000000
_cell_angle_beta 105.813443
_cell_angle_gamma 90.000000
_cell_volume 2872.775315
_symmetry_space_group_name_H-M "C 2/C"
_symmetry_group_IT_number 15
_symmetry_cell_setting 'monoclinic'
loop_
_space_group_symop_operation_xyz
x,y,z
-x,y,1/2-z
-x,-y,-z
x,-y,1/2+z
1/2+x,1/2+y,z
1/2-x,1/2+y,1/2-z
1/2-x,1/2-y,-z
1/2+x,1/2-y,1/2+z
loop_
_atom_site_type_symbol
_atom_site_label
_atom_site_fract_x
_atom_site_fract_y
_atom_site_fract_z
Si Si1 0.763608 0.876272 0.664282
Si Si2 0.864411 0.325166 0.385278
Si Si3 0.989790 0.860535 0.314211
Si Si4 0.928366 0.874705 0.006007
Si Si5 0.894791 0.862415 0.600819
Si Si6 0.322178 0.527997 0.796425
Si Si7 0.475320 0.028139 0.097224
O O1 0.828725 0.863915 0.631987
O O2 0.733394 0.665549 0.679614
O O3 0.792730 0.986655 0.727075
O O4 0.696309 0.002980 0.623479
O O5 0.876995 0.192470 0.443403
O O6 0.837984 0.178733 0.330293
O O7 0.944435 0.424769 0.390773
O O8 0.000000 0.875644 0.250000
O O9 0.025116 0.661875 0.346777
O O10 0.902437 0.864901 0.310356
O O11 0.032345 0.040798 0.353466
O O12 0.960241 0.679844 0.043346
O O13 0.884472 0.002808 0.043234
O O14 0.000000 0.000000 0.000000
O O15 0.914419 0.642576 0.586492
#
# Coordination Sequence:
#
# PCOD9302751 Si02
#       7
#     8   8   8   8   8   8   8
#     4  12  27  42  67 101 144 174 223 277 347 410
#     4  12  24  42  71  96 134 182 225 273 347 408
#     4  11  22  39  69  99 133 173 236 278 332 406
#     4  11  24  44  74 100 132 176 238 288 335 407
#     4  11  25  43  66 104 135 174 229 293 327 403
#     4  12  24  43  67 100 136 183 220 273 344 412
#     4  11  23  41  71 101 127 177 231 281 335 396
#
# _framework density 19.493344
#
# number of rings (size 3 to 8) (size 9 to 14) (size 15 to 20)
#    0.000    0.571    7.143    1.286    0.000    5.714 
#    0.000    1.429    0.000    0.000    0.000    0.000 
#    0.000    0.000    0.000    0.000    0.000    0.000 
#
# Total GULP energy -156560.263855 kJ/mol
# GULP energy per Si atom -5591.437995 kJ/mol
# Density = 1.944898 g / cm^3
# Si number density = 19.493344 Si / 1000 Ang^3
#
#
#
# Elastic Constant Matrix: (Units=GPa)
#
#
# Indices 1 2 3 4 5 6 
#
# 1 104.3334 40.9963 30.6534 0.0000 -17.6556 0.0000
# 2 40.9963 116.0455 40.3708 0.0000 -13.2815 0.0000
# 3 30.6534 40.3708 98.8440 0.0000 -12.1375 0.0000
# 4 0.0000 0.0000 0.0000 31.5699 0.0000 0.1309
# 5 -17.6556 -13.2815 -12.1375 0.0000 27.3416 0.0000
# 6 0.0000 0.0000 0.0000 0.1309 0.0000 25.2264
#
#
#
# Elastic Compliance Matrix: (Units=1/GPa)
#
#
# Indices 1 2 3 4 5 6 
#
# 1 0.012283 -0.003043 -0.001876 0.000000 0.005620 0.000000
# 2 -0.003043 0.011076 -0.003343 0.000000 0.001931 0.000000
# 3 -0.001876 -0.003343 0.012391 0.000000 0.002666 0.000000
# 4 0.000000 0.000000 0.000000 0.031676 0.000000 -0.000164
# 5 0.005620 0.001931 0.002666 0.000000 0.042325 0.000000
# 6 0.000000 0.000000 0.000000 -0.000164 0.000000 0.039642
#
#
# Mechanical properties :
#
#
# Convention : Reuss Voigt Hill
#
# Bulk Modulus (GPa) = 52.01289 60.36266 56.18777
# Shear Modulus (GPa) = 29.01457 30.64109 29.82783
#
# Velocity S-wave (km/s) = 3.86221 3.96899 3.91596
# Velocity P-wave (km/s) = 6.82856 7.21366 7.02375
#
# Compressibility (1/GPa) = 0.01922600
#
# Stress axis : x y z
#
# Youngs Moduli (GPa) = 81.41495 90.28137 80.70099
#
# Poissons Ratio (x) = 0.27476 0.15139
# Poissons Ratio (y) = 0.24777 0.26978
# Poissons Ratio (z) = 0.15273 0.30181
#
# Static dielectric constant tensor:
#      x y z
#    x 1.651800 0.000000 0.005070 
#    y 0.000000 1.680240 0.000000 
#    z 0.005070 0.000000 1.680360 
# 
# From -- ./inp_files/278685.got.cif
#   From: 2010.05.17/outbox.cif.g08.bks.cpg/sg15_140_cif.got.tgz:278685.got - 2010.06.03 18:47:42.
