data_PCOD9302842
_publ_section_title
;
Structure prediction by ZEFSAII (Michael W. Deem and Ramdas Pophale) SiO2 
 PCOD9302842
Probable space group: C 2/C
;
_chemical_formula_sum "Si O2"
_cell_formula_units_Z 60
_cell_length_a 11.748368
_cell_length_b 8.061761
_cell_length_c 26.535682
_cell_angle_alpha 90.000000
_cell_angle_beta 89.750606
_cell_angle_gamma 90.000000
_cell_volume 2513.237900
_symmetry_space_group_name_H-M "C 2/C"
_symmetry_group_IT_number 15
_symmetry_cell_setting 'monoclinic'
loop_
_space_group_symop_operation_xyz
x,y,z
-x,y,1/2-z
-x,-y,-z
x,-y,1/2+z
1/2+x,1/2+y,z
1/2-x,1/2+y,1/2-z
1/2-x,1/2-y,-z
1/2+x,1/2-y,1/2+z
loop_
_atom_site_type_symbol
_atom_site_label
_atom_site_fract_x
_atom_site_fract_y
_atom_site_fract_z
Si Si1 0.325121 0.622007 0.818184
Si Si2 0.391477 0.381402 0.992102
Si Si3 0.500000 0.198478 0.750000
Si Si4 0.071806 0.969374 0.824897
Si Si5 0.510252 0.887213 0.949178
Si Si6 0.714444 0.664039 0.564326
Si Si7 0.044903 0.276766 0.416314
Si Si8 0.207832 0.492869 0.721399
O O1 0.457896 0.572917 0.817266
O O2 0.284472 0.614156 0.876243
O O3 0.253878 0.510203 0.778831
O O4 0.314596 0.807772 0.797317
O O5 0.296781 0.504986 0.972073
O O6 0.429290 0.269366 0.944910
O O7 0.500000 0.500000 0.000000
O O8 0.394957 0.255372 0.039293
O O9 0.571198 0.320917 0.784566
O O10 0.590039 0.091527 0.718928
O O11 0.060965 0.866242 0.875672
O O12 0.190054 0.061751 0.814309
O O13 0.392801 0.788519 0.939866
O O14 0.536602 0.025048 0.906648
O O15 0.500000 0.000000 0.000000
O O16 0.837418 0.740912 0.552793
#
# Coordination Sequence:
#
# PCOD9302842 Si02
#       8
#     8   8   4   8   8   8   8   8
#     4  12  24  45  68  97 138 181 229 280 341 404
#     4   9  20  40  65  92 131 172 221 272 331 397
#     4  12  26  42  70  94 140 172 222 288 332 408
#     4  12  24  44  66  96 136 179 228 283 339 401
#     4   9  22  41  64  98 132 173 222 273 336 400
#     4  11  22  42  67  97 133 175 221 276 336 399
#     4  11  22  40  66  96 131 172 223 276 329 402
#     4  12  25  45  67 102 131 182 225 276 345 401
#
# _framework density 23.873586
#
# number of rings (size 3 to 8) (size 9 to 14) (size 15 to 20)
#    0.000    1.067    5.333    0.000    3.733    5.333 
#    0.000    4.000    0.000    0.000    0.000    0.000 
#    0.000    0.000    0.000    0.000    0.000    0.000 
#
# Total GULP energy -167523.856095 kJ/mol
# GULP energy per Si atom -5584.128537 kJ/mol
# Density = 2.381925 g / cm^3
# Si number density = 23.873586 Si / 1000 Ang^3
#
#
#
# Elastic Constant Matrix: (Units=GPa)
#
#
# Indices 1 2 3 4 5 6 
#
# 1 76.5249 26.9648 -11.2184 0.0000 -13.7211 0.0000
# 2 26.9648 73.1050 5.1813 0.0000 6.6120 0.0000
# 3 -11.2184 5.1813 40.2066 0.0000 -3.7930 0.0000
# 4 0.0000 0.0000 0.0000 39.3075 0.0000 10.9702
# 5 -13.7211 6.6120 -3.7930 0.0000 24.1710 0.0000
# 6 0.0000 0.0000 0.0000 10.9702 0.0000 45.9951
#
#
#
# Elastic Compliance Matrix: (Units=1/GPa)
#
#
# Indices 1 2 3 4 5 6 
#
# 1 0.020447 -0.009542 0.008400 0.000000 0.015536 0.000000
# 2 -0.009542 0.018674 -0.006153 0.000000 -0.011491 0.000000
# 3 0.008400 -0.006153 0.029047 0.000000 0.011010 0.000000
# 4 0.000000 0.000000 0.000000 0.027255 0.000000 -0.006500
# 5 0.015536 -0.011491 0.011010 0.000000 0.055062 0.000000
# 6 0.000000 0.000000 0.000000 -0.006500 0.000000 0.023292
#
#
# Mechanical properties :
#
#
# Convention : Reuss Voigt Hill
#
# Bulk Modulus (GPa) = 18.66431 25.74356 22.20393
# Shear Modulus (GPa) = 24.24520 33.15530 28.70025
#
# Velocity S-wave (km/s) = 3.19025 3.73068 3.47100
# Velocity P-wave (km/s) = 4.62658 5.41886 5.03832
#
# Compressibility (1/GPa) = 0.05357819
#
# Stress axis : x y z
#
# Youngs Moduli (GPa) = 48.90647 53.55017 34.42700
#
# Poissons Ratio (x) = 0.51100 -0.28920
# Poissons Ratio (y) = 0.46669 0.21183
# Poissons Ratio (z) = -0.41084 0.32949
#
# Static dielectric constant tensor:
#      x y z
#    x 2.003610 0.000000 -0.004140 
#    y 0.000000 1.938560 0.000000 
#    z -0.004140 0.000000 2.071030 
# 
# From -- ./inp_files/310020.got.cif
#   From: 2010.05.17/outbox.cif.g08.bks.cpg/sg15_156_cif.got.tgz:310020.got - 2010.06.03 18:47:42.
