data_PCOD9302591
_publ_section_title
;
Structure prediction by ZEFSAII (Michael W. Deem and Ramdas Pophale) SiO2 
 PCOD9302591
Probable space group: C 2/C
;
_chemical_formula_sum "Si O2"
_cell_formula_units_Z 36
_cell_length_a 16.224332
_cell_length_b 21.725387
_cell_length_c 5.170429
_cell_angle_alpha 90.000000
_cell_angle_beta 100.601362
_cell_angle_gamma 90.000000
_cell_volume 1791.364431
_symmetry_space_group_name_H-M "C 2/C"
_symmetry_group_IT_number 15
_symmetry_cell_setting 'monoclinic'
loop_
_space_group_symop_operation_xyz
x,y,z
-x,y,1/2-z
-x,-y,-z
x,-y,1/2+z
1/2+x,1/2+y,z
1/2-x,1/2+y,1/2-z
1/2-x,1/2-y,-z
1/2+x,1/2-y,1/2+z
loop_
_atom_site_type_symbol
_atom_site_label
_atom_site_fract_x
_atom_site_fract_y
_atom_site_fract_z
Si Si1 0.181228 0.042603 0.809489
Si Si2 0.000000 0.779197 0.250000
Si Si3 0.217924 0.147283 0.483004
Si Si4 0.823028 0.731703 0.245649
Si Si5 0.941942 0.104362 0.429028
O O1 0.230384 0.103434 0.738513
O O2 0.196003 0.996932 0.576489
O O3 0.088678 0.070292 0.826224
O O4 0.917279 0.737517 0.200436
O O5 0.016221 0.829937 0.483596
O O6 0.181027 0.212303 0.553445
O O7 0.298559 0.167589 0.365821
O O8 0.146800 0.117448 0.263470
O O9 0.750000 0.750000 0.000000
O O10 0.000000 0.071302 0.250000
#
# Coordination Sequence:
#
# PCOD9302591 Si02
#       5
#     8   4   8   8   8
#     4  12  25  42  63  90 129 180 225 264 317 381
#     4  12  22  38  64  96 132 176 210 266 326 384
#     4  11  22  41  60  92 127 170 221 266 319 373
#     4  11  22  38  66  92 130 171 213 272 323 385
#     4  12  22  40  59  89 135 170 219 261 313 382
#
# _framework density 20.096412999999998
#
# number of rings (size 3 to 8) (size 9 to 14) (size 15 to 20)
#    0.000    0.444    8.889    0.000    0.000    0.889 
#    0.000    0.000    0.000    0.000    0.000    1.556 
#    0.000    0.222    0.000    0.000    0.000    0.000 
#
# Total GULP energy -100288.342955 kJ/mol
# GULP energy per Si atom -5571.574609 kJ/mol
# Density = 2.005067 g / cm^3
# Si number density = 20.096413 Si / 1000 Ang^3
#
#
#
# Elastic Constant Matrix: (Units=GPa)
#
#
# Indices 1 2 3 4 5 6 
#
# 1 105.2645 32.4359 31.6411 0.0000 -10.9129 0.0000
# 2 32.4359 81.5841 30.7761 0.0000 -19.4503 0.0000
# 3 31.6411 30.7761 114.7707 0.0000 -24.5750 0.0000
# 4 0.0000 0.0000 0.0000 38.5852 0.0000 -21.0147
# 5 -10.9129 -19.4503 -24.5750 0.0000 30.9548 0.0000
# 6 0.0000 0.0000 0.0000 -21.0147 0.0000 29.7546
#
#
#
# Elastic Compliance Matrix: (Units=1/GPa)
#
#
# Indices 1 2 3 4 5 6 
#
# 1 0.011272 -0.003687 -0.002125 0.000000 -0.000030 0.000000
# 2 -0.003687 0.016155 -0.001711 0.000000 0.007493 0.000000
# 3 -0.002125 -0.001711 0.011286 0.000000 0.007135 0.000000
# 4 0.000000 0.000000 0.000000 0.042117 0.000000 0.029746
# 5 -0.000030 0.007493 0.007135 0.000000 0.042667 0.000000
# 6 0.000000 0.000000 0.000000 0.029746 0.000000 0.054617
#
#
# Mechanical properties :
#
#
# Convention : Reuss Voigt Hill
#
# Bulk Modulus (GPa) = 42.25569 54.59174 48.42371
# Shear Modulus (GPa) = 24.86963 33.64334 29.25649
#
# Velocity S-wave (km/s) = 3.52165 4.09601 3.81964
# Velocity P-wave (km/s) = 6.13255 7.04228 6.60310
#
# Compressibility (1/GPa) = 0.02366545
#
# Stress axis : x y z
#
# Youngs Moduli (GPa) = 88.71828 61.90084 88.60829
#
# Poissons Ratio (x) = 0.22822 0.18832
# Poissons Ratio (y) = 0.32709 0.15163
# Poissons Ratio (z) = 0.18855 0.10593
#
# Static dielectric constant tensor:
#      x y z
#    x 1.765900 0.000000 -0.031580 
#    y 0.000000 1.768570 0.000000 
#    z -0.031580 0.000000 1.917930 
# 
# From -- ./inp_files/6916.got.cif
#   From: 2010.05.17/outbox.cif.g08.bks.cpg/sg15_4_cif.got.tgz:6916.got - 2010.06.03 18:47:42.
