data_PCOD9302738
_publ_section_title
;
Structure prediction by ZEFSAII (Michael W. Deem and Ramdas Pophale) SiO2 
 PCOD9302738
Probable space group: C 2/C
;
_chemical_formula_sum "Si O2"
_cell_formula_units_Z 40
_cell_length_a 9.173044
_cell_length_b 11.085779
_cell_length_c 17.613899
_cell_angle_alpha 90.000000
_cell_angle_beta 74.764715
_cell_angle_gamma 90.000000
_cell_volume 1728.212639
_symmetry_space_group_name_H-M "C 2/C"
_symmetry_group_IT_number 15
_symmetry_cell_setting 'monoclinic'
loop_
_space_group_symop_operation_xyz
x,y,z
-x,y,1/2-z
-x,-y,-z
x,-y,1/2+z
1/2+x,1/2+y,z
1/2-x,1/2+y,1/2-z
1/2-x,1/2-y,-z
1/2+x,1/2-y,1/2+z
loop_
_atom_site_type_symbol
_atom_site_label
_atom_site_fract_x
_atom_site_fract_y
_atom_site_fract_z
Si Si1 0.433031 0.380537 0.474302
Si Si2 0.822926 0.601268 0.279579
Si Si3 0.618845 0.068585 0.063283
Si Si4 0.129011 0.855170 0.295399
Si Si5 0.406185 0.820222 0.481882
O O1 0.500000 0.500000 0.500000
O O2 0.255956 0.404140 0.485801
O O3 0.537110 0.351084 0.387532
O O4 0.466261 0.280332 0.533744
O O5 0.821303 0.630907 0.369503
O O6 0.793424 0.723931 0.234482
O O7 0.727070 0.479113 0.278405
O O8 0.000000 0.569654 0.250000
O O9 0.604593 0.925580 0.077898
O O10 0.458342 0.108611 0.051235
O O11 0.000000 0.866095 0.250000
O O12 0.250000 0.750000 0.500000
#
# Coordination Sequence:
#
# PCOD9302738 Si02
#       5
#     8   8   8   8   8
#     4  12  23  46  73 103 143 185 252 306 365 440
#     4  11  25  47  68 102 146 188 240 300 371 448
#     4  11  25  44  70 102 142 190 239 310 369 430
#     4  11  26  47  72 103 143 193 241 303 369 447
#     4  11  22  39  68 106 137 178 238 299 365 436
#
# _framework density 23.145299999999999
#
# number of rings (size 3 to 8) (size 9 to 14) (size 15 to 20)
#    0.000    0.800    4.000    3.000    0.000    7.200 
#    3.600    0.000    0.000    0.000    0.000    0.000 
#    0.000    0.000    0.000    0.000    0.000    0.000 
#
# Total GULP energy -111448.846575 kJ/mol
# GULP energy per Si atom -5572.442329 kJ/mol
# Density = 2.309262 g / cm^3
# Si number density = 23.145300 Si / 1000 Ang^3
#
#
#
# Elastic Constant Matrix: (Units=GPa)
#
#
# Indices 1 2 3 4 5 6 
#
# 1 135.2072 69.6174 27.8757 0.0000 -5.2614 0.0000
# 2 69.6174 185.6648 52.4423 0.0000 -4.9305 0.0000
# 3 27.8757 52.4423 98.3929 0.0000 -7.9846 0.0000
# 4 0.0000 0.0000 0.0000 35.7055 0.0000 9.2625
# 5 -5.2614 -4.9305 -7.9846 0.0000 24.8497 0.0000
# 6 0.0000 0.0000 0.0000 9.2625 0.0000 56.8911
#
#
#
# Elastic Compliance Matrix: (Units=1/GPa)
#
#
# Indices 1 2 3 4 5 6 
#
# 1 0.009261 -0.003211 -0.000826 0.000000 0.001058 0.000000
# 2 -0.003211 0.007455 -0.003079 0.000000 -0.000190 0.000000
# 3 -0.000826 -0.003079 0.012295 0.000000 0.003165 0.000000
# 4 0.000000 0.000000 0.000000 0.029242 0.000000 -0.004761
# 5 0.001058 -0.000190 0.003165 0.000000 0.041445 0.000000
# 6 0.000000 0.000000 0.000000 -0.004761 0.000000 0.018353
#
#
# Mechanical properties :
#
#
# Convention : Reuss Voigt Hill
#
# Bulk Modulus (GPa) = 67.66725 79.90396 73.78560
# Shear Modulus (GPa) = 36.44061 41.44455 38.94258
#
# Velocity S-wave (km/s) = 3.97221 4.23617 4.10631
# Velocity P-wave (km/s) = 7.09488 7.65013 7.37773
#
# Compressibility (1/GPa) = 0.01477820
#
# Stress axis : x y z
#
# Youngs Moduli (GPa) = 107.98049 134.14396 81.33148
#
# Poissons Ratio (x) = 0.43073 0.06721
# Poissons Ratio (y) = 0.34672 0.25042
# Poissons Ratio (z) = 0.08924 0.41303
#
# Static dielectric constant tensor:
#      x y z
#    x 1.916720 0.000000 -0.055470 
#    y 0.000000 1.960110 0.000000 
#    z -0.055470 0.000000 2.047800 
# 
# From -- ./inp_files/187817.got.cif
#   From: 2010.05.17/outbox.cif.g08.bks.cpg/sg15_94_cif.got.tgz:187817.got - 2010.06.03 18:47:42.
