data_PCOD9302719
_publ_section_title
;
Structure prediction by ZEFSAII (Michael W. Deem and Ramdas Pophale) SiO2 
 PCOD9302719
Probable space group: C 2/C
;
_chemical_formula_sum "Si O2"
_cell_formula_units_Z 48
_cell_length_a 8.124769
_cell_length_b 21.153149
_cell_length_c 18.022500
_cell_angle_alpha 90.000000
_cell_angle_beta 44.101465
_cell_angle_gamma 90.000000
_cell_volume 2155.595985
_symmetry_space_group_name_H-M "C 2/C"
_symmetry_group_IT_number 15
_symmetry_cell_setting 'monoclinic'
loop_
_space_group_symop_operation_xyz
x,y,z
-x,y,1/2-z
-x,-y,-z
x,-y,1/2+z
1/2+x,1/2+y,z
1/2-x,1/2+y,1/2-z
1/2-x,1/2-y,-z
1/2+x,1/2-y,1/2+z
loop_
_atom_site_type_symbol
_atom_site_label
_atom_site_fract_x
_atom_site_fract_y
_atom_site_fract_z
Si Si1 0.235178 0.680058 0.967903
Si Si2 0.624649 0.997937 0.880944
Si Si3 0.000000 0.884835 0.750000
Si Si4 0.566321 0.397811 0.967514
Si Si5 0.000000 0.111182 0.750000
Si Si6 0.740082 0.318960 0.540498
Si Si7 0.217486 0.510033 0.639255
O O1 0.262103 0.640663 0.035251
O O2 0.433665 0.655528 0.843198
O O3 0.250000 0.750000 0.000000
O O4 0.991428 0.672094 0.000665
O O5 0.782270 0.934947 0.820458
O O6 0.401686 0.997098 0.900003
O O7 0.782538 0.060708 0.813724
O O8 0.500000 0.000000 0.000000
O O9 0.046931 0.837708 0.665685
O O10 0.439889 0.446273 0.064163
O O11 0.349542 0.362181 0.998609
O O12 0.698749 0.440636 0.863010
O O13 0.750000 0.250000 0.500000
O O14 0.000000 0.540982 0.750000
#
# Coordination Sequence:
#
# PCOD9302719 Si02
#       7
#     8   8   4   8   4   8   8
#     4  12  26  48  68  99 142 189 238 289 337 421
#     4  11  22  43  72 107 142 176 230 302 358 418
#     4  11  24  42  74 106 140 189 234 286 368 415
#     4  11  24  44  68 100 138 175 232 286 346 407
#     4  11  24  42  74 106 140 189 234 286 368 415
#     4  12  26  48  68  99 142 189 238 289 337 421
#     4  11  22  39  67 101 134 172 222 291 349 412
#
# _framework density 22.267624000000001
#
# number of rings (size 3 to 8) (size 9 to 14) (size 15 to 20)
#    0.000    0.667    1.667    7.000    0.000    6.667 
#    3.000    2.500    0.000    0.000    0.000    0.000 
#    0.000    0.000    0.000    0.000    0.000    0.000 
#
# Total GULP energy -133740.763654 kJ/mol
# GULP energy per Si atom -5572.531819 kJ/mol
# Density = 2.221694 g / cm^3
# Si number density = 22.267624 Si / 1000 Ang^3
#
#
#
# Elastic Constant Matrix: (Units=GPa)
#
#
# Indices 1 2 3 4 5 6 
#
# 1 136.7581 37.1785 19.3983 0.0000 -11.6293 0.0000
# 2 37.1785 137.3141 43.5355 0.0000 -2.8757 0.0000
# 3 19.3983 43.5355 117.6674 0.0000 -2.6334 0.0000
# 4 0.0000 0.0000 0.0000 34.1652 0.0000 0.0572
# 5 -11.6293 -2.8757 -2.6334 0.0000 37.2016 0.0000
# 6 0.0000 0.0000 0.0000 0.0572 0.0000 15.4647
#
#
#
# Elastic Compliance Matrix: (Units=1/GPa)
#
#
# Indices 1 2 3 4 5 6 
#
# 1 0.008128 -0.001975 -0.000557 0.000000 0.002349 0.000000
# 2 -0.001975 0.008737 -0.002910 0.000000 -0.000148 0.000000
# 3 -0.000557 -0.002910 0.009673 0.000000 0.000286 0.000000
# 4 0.000000 0.000000 0.000000 0.029270 0.000000 -0.000108
# 5 0.002349 -0.000148 0.000286 0.000000 0.027624 0.000000
# 6 0.000000 0.000000 0.000000 -0.000108 0.000000 0.064664
#
#
# Mechanical properties :
#
#
# Convention : Reuss Voigt Hill
#
# Bulk Modulus (GPa) = 63.87994 65.77380 64.82687
# Shear Modulus (GPa) = 30.45118 36.80810 33.62964
#
# Velocity S-wave (km/s) = 3.70200 4.07011 3.89041
# Velocity P-wave (km/s) = 6.85731 7.18955 7.02539
#
# Compressibility (1/GPa) = 0.01565437
#
# Stress axis : x y z
#
# Youngs Moduli (GPa) = 123.03503 114.45694 103.37567
#
# Poissons Ratio (x) = 0.22605 0.05754
# Poissons Ratio (y) = 0.24299 0.30085
# Poissons Ratio (z) = 0.06849 0.33310
#
# Static dielectric constant tensor:
#      x y z
#    x 1.747890 0.000000 0.010150 
#    y 0.000000 1.933010 0.000000 
#    z 0.010150 0.000000 1.987710 
# 
# From -- ./inp_files/191992.got.cif
#   From: 2010.05.17/outbox.cif.g08.bks.cpg/sg15_96_cif.got.tgz:191992.got - 2010.06.03 18:47:42.
