data_PCOD9302443
_publ_section_title
;
Structure prediction by ZEFSAII (Michael W. Deem and Ramdas Pophale) SiO2 
 PCOD9302443
Probable space group: C 2/C
;
_chemical_formula_sum "Si O2"
_cell_formula_units_Z 32
_cell_length_a 12.762328
_cell_length_b 7.325039
_cell_length_c 17.848136
_cell_angle_alpha 90.000000
_cell_angle_beta 105.935640
_cell_angle_gamma 90.000000
_cell_volume 1604.404740
_symmetry_space_group_name_H-M "C 2/C"
_symmetry_group_IT_number 15
_symmetry_cell_setting 'monoclinic'
loop_
_space_group_symop_operation_xyz
x,y,z
-x,y,1/2-z
-x,-y,-z
x,-y,1/2+z
1/2+x,1/2+y,z
1/2-x,1/2+y,1/2-z
1/2-x,1/2-y,-z
1/2+x,1/2-y,1/2+z
loop_
_atom_site_type_symbol
_atom_site_label
_atom_site_fract_x
_atom_site_fract_y
_atom_site_fract_z
Si Si1 0.424313 0.160406 0.168055
Si Si2 0.022828 0.247194 0.341730
Si Si3 0.312715 0.678920 0.397155
Si Si4 0.326913 0.465922 0.058595
O O1 0.500000 0.225957 0.250000
O O2 0.298425 0.136638 0.169659
O O3 0.414443 0.310679 0.101430
O O4 0.465549 0.964892 0.149791
O O5 0.919834 0.183526 0.369781
O O6 0.000000 0.205289 0.250000
O O7 0.130245 0.148272 0.394859
O O8 0.320218 0.539263 0.468135
O O9 0.283523 0.876852 0.429211
#
# Coordination Sequence:
#
# PCOD9302443 Si02
#       4
#     8   8   8   8
#     4   9  20  39  54  85 115 141 191 229 271 339
#     4  11  22  36  59  86 112 148 188 226 284 333
#     4   9  21  41  56  84 115 143 193 230 271 341
#     4   9  20  42  57  81 116 148 186 233 276 328
#
# _framework density 19.945091999999999
#
# number of rings (size 3 to 8) (size 9 to 14) (size 15 to 20)
#    1.500    1.000    0.000    1.500    0.000    6.000 
#    4.500    0.000    0.000    0.000    0.000    0.000 
#    0.000    0.000    0.000    0.000    0.000    0.000 
#
# Total GULP energy -89100.505497 kJ/mol
# GULP energy per Si atom -5568.781594 kJ/mol
# Density = 1.989970 g / cm^3
# Si number density = 19.945092 Si / 1000 Ang^3
#
#
#
# Elastic Constant Matrix: (Units=GPa)
#
#
# Indices 1 2 3 4 5 6 
#
# 1 47.8022 -5.1233 14.3023 0.0000 -11.1062 0.0000
# 2 -5.1233 33.6632 11.7117 0.0000 0.9414 0.0000
# 3 14.3023 11.7117 64.4410 0.0000 3.7841 0.0000
# 4 0.0000 0.0000 0.0000 6.0394 0.0000 9.6589
# 5 -11.1062 0.9414 3.7841 0.0000 31.4085 0.0000
# 6 0.0000 0.0000 0.0000 9.6589 0.0000 13.1253
#
#
#
# Elastic Compliance Matrix: (Units=1/GPa)
#
#
# Indices 1 2 3 4 5 6 
#
# 1 0.026173 0.006329 -0.007545 0.000000 0.009974 0.000000
# 2 0.006329 0.033244 -0.007573 0.000000 0.002154 0.000000
# 3 -0.007545 -0.007573 0.018846 0.000000 -0.004711 0.000000
# 4 0.000000 0.000000 0.000000 -0.935864 0.000000 0.688700
# 5 0.009974 0.002154 -0.004711 0.000000 0.035868 0.000000
# 6 0.000000 0.000000 0.000000 0.688700 0.000000 -0.430624
#
#
# Mechanical properties :
#
#
# Convention : Reuss Voigt Hill
#
# Bulk Modulus (GPa) = 16.47858 20.85420 18.66639
# Shear Modulus (GPa) = -4.11675 18.44901 7.16613
#
# Velocity S-wave (km/s) = -1.43824 3.04466 1.89756
# Velocity P-wave (km/s) = 2.34987 4.77896 3.76566
#
# Compressibility (1/GPa) = 0.06068482
#
# Stress axis : x y z
#
# Youngs Moduli (GPa) = 38.20784 30.08077 53.06275
#
# Poissons Ratio (x) = -0.19039 0.40035
# Poissons Ratio (y) = -0.24183 0.40185
# Poissons Ratio (z) = 0.28827 0.22780
#
# Static dielectric constant tensor:
#      x y z
#    x 1.681200 0.000000 0.018630 
#    y 0.000000 1.722350 0.000000 
#    z 0.018630 0.000000 1.720740 
# 
# From -- ./inp_files/140560.got.cif
#   From: 2010.05.17/outbox.cif.g08.bks.cpg/sg15_71_cif.got.tgz:140560.got - 2010.06.03 18:47:42.
