data_PCOD9302183
_publ_section_title
;
Structure prediction by ZEFSAII (Michael W. Deem and Ramdas Pophale) SiO2 
 PCOD9302183
Probable space group: C 2/C
;
_chemical_formula_sum "Si O2"
_cell_formula_units_Z 44
_cell_length_a 13.873490
_cell_length_b 13.654702
_cell_length_c 11.803173
_cell_angle_alpha 90.000000
_cell_angle_beta 60.039952
_cell_angle_gamma 90.000000
_cell_volume 1937.189271
_symmetry_space_group_name_H-M "C 2/C"
_symmetry_group_IT_number 15
_symmetry_cell_setting 'monoclinic'
loop_
_space_group_symop_operation_xyz
x,y,z
-x,y,1/2-z
-x,-y,-z
x,-y,1/2+z
1/2+x,1/2+y,z
1/2-x,1/2+y,1/2-z
1/2-x,1/2-y,-z
1/2+x,1/2-y,1/2+z
loop_
_atom_site_type_symbol
_atom_site_label
_atom_site_fract_x
_atom_site_fract_y
_atom_site_fract_z
Si Si1 0.000000 0.579772 0.750000
Si Si2 0.068042 0.748820 0.881368
Si Si3 0.082239 0.926719 0.515730
Si Si4 0.789746 0.533709 0.490525
Si Si5 0.221247 0.150795 0.726295
Si Si6 0.100746 0.721165 0.126598
O O1 0.030293 0.653173 0.835184
O O2 0.107932 0.522874 0.631955
O O3 0.200644 0.742682 0.786565
O O4 0.061371 0.742205 0.022305
O O5 0.995019 0.841354 0.887928
O O6 0.159612 0.882300 0.372963
O O7 0.172056 0.980893 0.541478
O O8 0.000000 0.000000 0.500000
O O9 0.791993 0.563675 0.623201
O O10 0.798956 0.643641 0.434048
O O11 0.132978 0.187569 0.685136
O O12 0.000000 0.670227 0.250000
#
# Coordination Sequence:
#
# PCOD9302183 Si02
#       6
#     4   8   8   8   8   8
#     4  12  26  46  66 104 152 194 228 282 386 444
#     4  11  25  45  68 101 146 186 237 291 365 435
#     4  12  25  45  72 104 139 184 240 304 360 422
#     4  11  25  43  69 105 140 184 242 290 357 439
#     4  11  24  46  70 105 140 185 247 301 361 417
#     4  11  21  42  74  99 135 186 241 302 345 418
#
# _framework density 22.713318999999998
#
# number of rings (size 3 to 8) (size 9 to 14) (size 15 to 20)
#    0.000    0.727    4.545    4.364    0.000    6.545 
#    3.273    0.000    0.000    0.000    0.000    0.000 
#    0.000    0.000    0.000    0.000    0.000    0.000 
#
# Total GULP energy -122634.602183 kJ/mol
# GULP energy per Si atom -5574.300099 kJ/mol
# Density = 2.266162 g / cm^3
# Si number density = 22.713319 Si / 1000 Ang^3
#
#
#
# Elastic Constant Matrix: (Units=GPa)
#
#
# Indices 1 2 3 4 5 6 
#
# 1 109.3306 46.5028 19.3435 0.0000 -2.5379 0.0000
# 2 46.5028 88.2222 23.4486 0.0000 1.8479 0.0000
# 3 19.3435 23.4486 72.0826 0.0000 -11.5614 0.0000
# 4 0.0000 0.0000 0.0000 32.3842 0.0000 -7.3379
# 5 -2.5379 1.8479 -11.5614 0.0000 41.3992 0.0000
# 6 0.0000 0.0000 0.0000 -7.3379 0.0000 48.1659
#
#
#
# Elastic Compliance Matrix: (Units=1/GPa)
#
#
# Indices 1 2 3 4 5 6 
#
# 1 0.011912 -0.005990 -0.001139 0.000000 0.000680 0.000000
# 2 -0.005990 0.015544 -0.003789 0.000000 -0.002119 0.000000
# 3 -0.001139 -0.003789 0.016150 0.000000 0.004610 0.000000
# 4 0.000000 0.000000 0.000000 0.031983 0.000000 0.004873
# 5 0.000680 -0.002119 0.004610 0.000000 0.025579 0.000000
# 6 0.000000 0.000000 0.000000 0.004873 0.000000 0.021504
#
#
# Mechanical properties :
#
#
# Convention : Reuss Voigt Hill
#
# Bulk Modulus (GPa) = 45.93466 49.80281 47.86873
# Shear Modulus (GPa) = 32.94565 36.41254 34.67909
#
# Velocity S-wave (km/s) = 3.81267 4.00826 3.91169
# Velocity P-wave (km/s) = 6.29679 6.58755 6.44381
#
# Compressibility (1/GPa) = 0.02177005
#
# Stress axis : x y z
#
# Youngs Moduli (GPa) = 83.95050 64.33337 61.91771
#
# Poissons Ratio (x) = 0.38538 0.07052
# Poissons Ratio (y) = 0.50289 0.23460
# Poissons Ratio (z) = 0.09561 0.24375
#
# Static dielectric constant tensor:
#      x y z
#    x 2.011780 0.000000 -0.117450 
#    y 0.000000 1.876470 0.000000 
#    z -0.117450 0.000000 1.902990 
# 
# From -- ./inp_files/96133.got.cif
#   From: 2010.05.17/outbox.cif.g08.bks.cpg/sg15_49_cif.got.tgz:96133.got - 2010.06.03 18:47:42.
