data_PCOD9302501
_publ_section_title
;
Structure prediction by ZEFSAII (Michael W. Deem and Ramdas Pophale) SiO2 
 PCOD9302501
Probable space group: C 2/C
;
_chemical_formula_sum "Si O2"
_cell_formula_units_Z 48
_cell_length_a 16.323107
_cell_length_b 20.187686
_cell_length_c 12.640260
_cell_angle_alpha 90.000000
_cell_angle_beta 36.726174
_cell_angle_gamma 90.000000
_cell_volume 2490.808163
_symmetry_space_group_name_H-M "C 2/C"
_symmetry_group_IT_number 15
_symmetry_cell_setting 'monoclinic'
loop_
_space_group_symop_operation_xyz
x,y,z
-x,y,1/2-z
-x,-y,-z
x,-y,1/2+z
1/2+x,1/2+y,z
1/2-x,1/2+y,1/2-z
1/2-x,1/2-y,-z
1/2+x,1/2-y,1/2+z
loop_
_atom_site_type_symbol
_atom_site_label
_atom_site_fract_x
_atom_site_fract_y
_atom_site_fract_z
Si Si1 0.759600 0.309000 0.342981
Si Si2 0.409435 0.956001 0.743962
Si Si3 0.954868 0.102573 0.524100
Si Si4 0.789128 0.842018 0.867002
Si Si5 0.517540 0.098693 0.558505
Si Si6 0.902852 0.975045 0.446654
O O1 0.658405 0.340226 0.361289
O O2 0.769982 0.230180 0.334025
O O3 0.698630 0.330512 0.520440
O O4 0.908065 0.342493 0.180802
O O5 0.500000 0.934902 0.750000
O O6 0.441434 0.914209 0.605513
O O7 0.451326 0.031461 0.671721
O O8 0.247792 0.954537 0.934123
O O9 0.080190 0.123614 0.319335
O O10 0.019738 0.082433 0.568595
O O11 0.887713 0.036450 0.543491
O O12 0.653622 0.884091 0.982882
O O13 0.000000 0.995307 0.250000
#
# Coordination Sequence:
#
# PCOD9302501 Si02
#       6
#     8   8   8   8   8   8
#     4  11  22  37  63  89 117 163 193 244 296 355
#     4  11  24  39  63  89 119 158 198 246 299 352
#     4  11  23  39  59  90 124 152 196 246 298 353
#     4  11  22  39  59  89 123 155 201 238 296 357
#     4  11  23  39  59  90 124 152 196 246 298 353
#     4  11  24  39  63  89 119 158 198 246 299 352
#
# _framework density 19.270852999999999
#
# number of rings (size 3 to 8) (size 9 to 14) (size 15 to 20)
#    0.000    1.000    3.333    4.000    4.667    2.667 
#    0.000    0.000    0.000    6.000    0.000    0.000 
#    0.000    0.000    0.000    0.000    0.000    0.000 
#
# Total GULP energy -134253.020200 kJ/mol
# GULP energy per Si atom -5593.875842 kJ/mol
# Density = 1.922699 g / cm^3
# Si number density = 19.270853 Si / 1000 Ang^3
#
#
#
# Elastic Constant Matrix: (Units=GPa)
#
#
# Indices 1 2 3 4 5 6 
#
# 1 92.3539 13.7544 0.5962 -0.0006 -16.2495 0.0009
# 2 13.7544 47.9487 -15.6412 -0.0003 0.7683 0.0005
# 3 0.5962 -15.6412 33.3843 -0.0006 -8.9513 0.0011
# 4 -0.0006 -0.0003 -0.0006 18.6175 0.0006 9.8310
# 5 -16.2495 0.7683 -8.9513 0.0006 33.3789 -0.0009
# 6 0.0009 0.0005 0.0011 9.8310 -0.0009 9.5216
#
#
#
# Elastic Compliance Matrix: (Units=1/GPa)
#
#
# Indices 1 2 3 4 5 6 
#
# 1 0.012460 -0.003794 -0.000378 0.000001 0.006052 -0.000001
# 2 -0.003794 0.026005 0.012494 0.000004 0.000905 -0.000007
# 3 -0.000378 0.012494 0.038453 0.000008 0.009841 -0.000012
# 4 0.000001 0.000004 0.000008 0.118102 -0.000003 -0.121939
# 5 0.006052 0.000905 0.009841 -0.000003 0.035524 0.000005
# 6 -0.000001 -0.000007 -0.000012 -0.121939 0.000005 0.230924
#
#
# Mechanical properties :
#
#
# Convention : Reuss Voigt Hill
#
# Bulk Modulus (GPa) = 10.68790 19.01176 14.84983
# Shear Modulus (GPa) = 10.50393 23.96879 17.23636
#
# Velocity S-wave (km/s) = 2.33720 3.53056 2.99394
# Velocity P-wave (km/s) = 3.58351 5.14847 4.43556
#
# Compressibility (1/GPa) = 0.09356377
#
# Stress axis : x y z
#
# Youngs Moduli (GPa) = 80.25494 38.45364 26.00550
#
# Poissons Ratio (x) = 0.14591 0.00982
# Poissons Ratio (y) = 0.30452 -0.32492
# Poissons Ratio (z) = 0.03030 -0.48046
#
# Static dielectric constant tensor:
#      x y z
#    x 1.673230 0.000000 0.003120 
#    y 0.000000 1.654130 0.000000 
#    z 0.003120 0.000000 1.651300 
# 
# From -- ./inp_files/50408.got.cif
#   From: 2010.05.17/outbox.cif.g08.bks.cpg/sg15_26_cif.got.tgz:50408.got - 2010.06.03 18:47:42.
