data_PCOD9302791
_publ_section_title
;
Structure prediction by ZEFSAII (Michael W. Deem and Ramdas Pophale) SiO2 
 PCOD9302791
Probable space group: C 2/C
;
_chemical_formula_sum "Si O2"
_cell_formula_units_Z 56
_cell_length_a 17.365103
_cell_length_b 9.023215
_cell_length_c 19.261140
_cell_angle_alpha 90.000000
_cell_angle_beta 60.955625
_cell_angle_gamma 90.000000
_cell_volume 2638.476923
_symmetry_space_group_name_H-M "C 2/C"
_symmetry_group_IT_number 15
_symmetry_cell_setting 'monoclinic'
loop_
_space_group_symop_operation_xyz
x,y,z
-x,y,1/2-z
-x,-y,-z
x,-y,1/2+z
1/2+x,1/2+y,z
1/2-x,1/2+y,1/2-z
1/2-x,1/2-y,-z
1/2+x,1/2-y,1/2+z
loop_
_atom_site_type_symbol
_atom_site_label
_atom_site_fract_x
_atom_site_fract_y
_atom_site_fract_z
Si Si1 0.000000 0.208417 0.250000
Si Si2 0.545925 0.164987 0.876401
Si Si3 0.643653 0.533135 0.650051
Si Si4 0.500000 0.239193 0.250000
Si Si5 0.495798 0.669365 0.525089
Si Si6 0.263065 0.722805 0.173010
Si Si7 0.688204 0.369310 0.990467
Si Si8 0.392480 0.850291 0.670390
O O1 0.009258 0.303278 0.316036
O O2 0.088498 0.105219 0.204499
O O3 0.483061 0.231773 0.962520
O O4 0.638697 0.249324 0.844542
O O5 0.571942 0.996563 0.881414
O O6 0.566841 0.656792 0.679038
O O7 0.716570 0.623260 0.664524
O O8 0.676376 0.508532 0.556345
O O9 0.556403 0.149381 0.279121
O O10 0.500000 0.500000 0.500000
O O11 0.592289 0.698859 0.515151
O O12 0.421954 0.708650 0.613254
O O13 0.268770 0.610385 0.104513
O O14 0.207278 0.659938 0.261377
O O15 0.750000 0.250000 0.000000
#
# Coordination Sequence:
#
# PCOD9302791 Si02
#       8
#     4   8   8   4   8   8   8   8
#     4  11  23  38  64  92 128 162 222 264 322 370
#     4  11  25  40  60  93 129 168 204 271 323 374
#     4   9  17  34  63  87 120 159 208 260 298 373
#     4   9  17  32  62  92 108 162 208 240 304 374
#     4  11  23  39  66  91 122 161 220 261 313 386
#     4   9  22  35  63  90 125 168 211 252 316 380
#     4   9  17  36  57  94 120 158 203 256 306 371
#     4  11  22  40  63  90 129 165 209 260 316 382
#
# _framework density 21.224366
#
# number of rings (size 3 to 8) (size 9 to 14) (size 15 to 20)
#    0.000    2.000    1.429    1.714    6.000    1.143 
#    0.000    0.000    0.000    1.714    0.000    0.000 
#    0.000    0.000    0.000    0.000    0.000    0.000 
#
# Total GULP energy -156045.649468 kJ/mol
# GULP energy per Si atom -5573.058910 kJ/mol
# Density = 2.117606 g / cm^3
# Si number density = 21.224366 Si / 1000 Ang^3
#
#
#
# Elastic Constant Matrix: (Units=GPa)
#
#
# Indices 1 2 3 4 5 6 
#
# 1 51.7783 -20.2930 3.8031 0.0000 8.0913 0.0000
# 2 -20.2930 53.3847 26.0873 0.0000 2.9177 0.0001
# 3 3.8031 26.0873 124.8341 0.0000 -4.7215 0.0000
# 4 0.0000 0.0000 0.0000 19.3501 0.0000 8.7701
# 5 8.0913 2.9177 -4.7215 0.0000 30.7043 0.0000
# 6 0.0000 0.0001 0.0000 8.7701 0.0000 4.0593
#
#
#
# Elastic Compliance Matrix: (Units=1/GPa)
#
#
# Indices 1 2 3 4 5 6 
#
# 1 0.025572 0.011936 -0.003592 0.000006 -0.008425 -0.000012
# 2 0.011936 0.026654 -0.006184 0.000009 -0.006629 -0.000019
# 3 -0.003592 -0.006184 0.009526 -0.000002 0.002999 0.000004
# 4 0.000006 0.000009 -0.000002 2.486741 -0.000002 -5.372644
# 5 -0.008425 -0.006629 0.002999 -0.000002 0.035880 0.000005
# 6 -0.000012 -0.000019 0.000004 -5.372644 0.000005 11.854032
#
#
# Mechanical properties :
#
#
# Convention : Reuss Voigt Hill
#
# Bulk Modulus (GPa) = 15.13526 27.68800 21.41163
# Shear Modulus (GPa) = 0.34587 25.51605 12.93096
#
# Velocity S-wave (km/s) = 0.40412 3.47105 2.47098
# Velocity P-wave (km/s) = 2.71373 5.39795 4.27213
#
# Compressibility (1/GPa) = 0.06607087
#
# Stress axis : x y z
#
# Youngs Moduli (GPa) = 39.10581 37.51829 104.97716
#
# Poissons Ratio (x) = -0.44783 0.37709
# Poissons Ratio (y) = -0.46678 0.64922
# Poissons Ratio (z) = 0.14047 0.23203
#
# Static dielectric constant tensor:
#      x y z
#    x 1.759850 0.000000 -0.005990 
#    y 0.000000 1.800730 0.000000 
#    z -0.005990 0.000000 1.851230 
# 
# From -- ./inp_files/209556.got.cif
#   From: 2010.05.17/outbox.cif.g08.bks.cpg/sg15_105_cif.got.tgz:209556.got - 2010.06.03 18:47:42.
