data_PCOD9302115
_publ_section_title
;
Structure prediction by ZEFSAII (Michael W. Deem and Ramdas Pophale) SiO2 
 PCOD9302115
Probable space group: C 2/C
;
_chemical_formula_sum "Si O2"
_cell_formula_units_Z 56
_cell_length_a 11.523595
_cell_length_b 26.440087
_cell_length_c 9.179487
_cell_angle_alpha 90.000000
_cell_angle_beta 69.114147
_cell_angle_gamma 90.000000
_cell_volume 2613.076675
_symmetry_space_group_name_H-M "C 2/C"
_symmetry_group_IT_number 15
_symmetry_cell_setting 'monoclinic'
loop_
_space_group_symop_operation_xyz
x,y,z
-x,y,1/2-z
-x,-y,-z
x,-y,1/2+z
1/2+x,1/2+y,z
1/2-x,1/2+y,1/2-z
1/2-x,1/2-y,-z
1/2+x,1/2-y,1/2+z
loop_
_atom_site_type_symbol
_atom_site_label
_atom_site_fract_x
_atom_site_fract_y
_atom_site_fract_z
Si Si1 0.074605 0.150140 0.363820
Si Si2 0.234031 0.098327 0.517500
Si Si3 0.841859 0.157619 0.668496
Si Si4 0.689020 0.245767 0.867831
Si Si5 0.905082 0.506367 0.412490
Si Si6 0.118969 0.388840 0.094071
Si Si7 0.022223 0.668541 0.075553
O O1 0.159430 0.107550 0.401677
O O2 0.157768 0.200609 0.311310
O O3 0.000000 0.137584 0.250000
O O4 0.973147 0.162425 0.533371
O O5 0.159876 0.119698 0.691212
O O6 0.289841 0.042228 0.499494
O O7 0.356115 0.133456 0.466976
O O8 0.786197 0.211650 0.737815
O O9 0.742511 0.135784 0.599265
O O10 0.750000 0.250000 0.000000
O O11 0.562313 0.214096 0.951430
O O12 0.864449 0.449130 0.398343
O O13 0.000000 0.528538 0.250000
O O14 0.000000 0.500000 0.500000
O O15 0.000000 0.376725 0.250000
O O16 0.082583 0.366023 0.953231
O O17 0.000000 0.686467 0.250000
#
# Coordination Sequence:
#
# PCOD9302115 Si02
#       7
#     8   8   8   8   8   8   8
#     4  12  29  44  67 101 139 188 240 284 344 428
#     4  11  22  44  64  96 138 181 224 285 347 408
#     4  11  25  46  68  94 141 185 225 288 354 415
#     4  11  24  42  67  96 132 182 237 277 342 420
#     4  11  22  38  69 107 137 172 232 291 353 408
#     4  11  21  42  66 102 136 175 225 293 353 412
#     4  11  23  36  65  98 137 172 220 282 353 403
#
# _framework density 21.430675000000001
#
# number of rings (size 3 to 8) (size 9 to 14) (size 15 to 20)
#    0.000    0.857    7.143    1.714    6.000    0.571 
#    0.000    0.714    0.000    0.000    0.000    0.000 
#    0.000    0.000    0.000    0.000    0.000    0.000 
#
# Total GULP energy -156520.113554 kJ/mol
# GULP energy per Si atom -5590.004055 kJ/mol
# Density = 2.138190 g / cm^3
# Si number density = 21.430675 Si / 1000 Ang^3
#
#
#
# Elastic Constant Matrix: (Units=GPa)
#
#
# Indices 1 2 3 4 5 6 
#
# 1 97.4656 41.7037 23.3506 0.0000 26.9082 0.0000
# 2 41.7037 84.4225 18.3475 0.0000 1.3019 0.0000
# 3 23.3506 18.3475 83.4924 0.0000 7.8146 0.0000
# 4 0.0000 0.0000 0.0000 13.0635 0.0000 5.0353
# 5 26.9082 1.3019 7.8146 0.0000 41.7260 0.0000
# 6 0.0000 0.0000 0.0000 5.0353 0.0000 25.4908
#
#
#
# Elastic Compliance Matrix: (Units=1/GPa)
#
#
# Indices 1 2 3 4 5 6 
#
# 1 0.016904 -0.007743 -0.002065 0.000000 -0.010273 0.000000
# 2 -0.007743 0.015987 -0.001800 0.000000 0.004832 0.000000
# 3 -0.002065 -0.001800 0.013049 0.000000 -0.001056 0.000000
# 4 0.000000 0.000000 0.000000 0.082858 0.000000 -0.016367
# 5 -0.010273 0.004832 -0.001056 0.000000 0.030638 0.000000
# 6 0.000000 0.000000 0.000000 -0.016367 0.000000 0.042463
#
#
# Mechanical properties :
#
#
# Convention : Reuss Voigt Hill
#
# Bulk Modulus (GPa) = 44.00507 48.02046 46.01277
# Shear Modulus (GPa) = 21.48800 28.18797 24.83798
#
# Velocity S-wave (km/s) = 3.16994 3.63065 3.40809
# Velocity P-wave (km/s) = 5.82892 6.32705 6.08308
#
# Compressibility (1/GPa) = 0.02272465
#
# Stress axis : x y z
#
# Youngs Moduli (GPa) = 59.15794 62.55129 76.63478
#
# Poissons Ratio (x) = 0.48435 0.15821
# Poissons Ratio (y) = 0.45807 0.13793
# Poissons Ratio (z) = 0.12213 0.11258
#
# Static dielectric constant tensor:
#      x y z
#    x 1.758540 0.000000 -0.021300 
#    y 0.000000 1.778070 0.000000 
#    z -0.021300 0.000000 1.817330 
# 
# From -- ./inp_files/34185.got.cif
#   From: 2010.05.17/outbox.cif.g08.bks.cpg/sg15_18_cif.got.tgz:34185.got - 2010.06.03 18:47:42.
