data_PCOD9302095
_publ_section_title
;
Structure prediction by ZEFSAII (Michael W. Deem and Ramdas Pophale) SiO2 
 PCOD9302095
Probable space group: C 2/C
;
_chemical_formula_sum "Si O2"
_cell_formula_units_Z 36
_cell_length_a 13.000582
_cell_length_b 8.672410
_cell_length_c 16.556640
_cell_angle_alpha 90.000000
_cell_angle_beta 120.902865
_cell_angle_gamma 90.000000
_cell_volume 1601.702836
_symmetry_space_group_name_H-M "C 2/C"
_symmetry_group_IT_number 15
_symmetry_cell_setting 'monoclinic'
loop_
_space_group_symop_operation_xyz
x,y,z
-x,y,1/2-z
-x,-y,-z
x,-y,1/2+z
1/2+x,1/2+y,z
1/2-x,1/2+y,1/2-z
1/2-x,1/2-y,-z
1/2+x,1/2-y,1/2+z
loop_
_atom_site_type_symbol
_atom_site_label
_atom_site_fract_x
_atom_site_fract_y
_atom_site_fract_z
Si Si1 0.500000 0.396841 0.750000
Si Si2 0.262369 0.203764 0.344642
Si Si3 0.935502 0.797009 0.147341
Si Si4 0.489809 0.683310 0.998528
Si Si5 0.291275 0.843216 0.343981
O O1 0.379474 0.300149 0.696823
O O2 0.515151 0.525351 0.827016
O O3 0.349915 0.274630 0.446614
O O4 0.273912 0.293798 0.264892
O O5 0.300383 0.026536 0.348707
O O6 0.796575 0.798299 0.117218
O O7 0.000000 0.715688 0.250000
O O8 0.966261 0.745760 0.070349
O O9 0.500000 0.500000 0.000000
O O10 0.581635 0.758390 0.098331
#
# Coordination Sequence:
#
# PCOD9302095 Si02
#       5
#     4   8   8   8   8
#     4   8  18  36  62  80 120 166 192 262 302 352
#     4  11  21  42  60  92 124 161 203 254 313 358
#     4   9  18  40  62  85 123 162 202 247 309 363
#     4  12  23  39  65  95 122 164 207 253 307 365
#     4  11  22  38  66  89 125 163 205 256 303 371
#
# _framework density 22.476077
#
# number of rings (size 3 to 8) (size 9 to 14) (size 15 to 20)
#    0.667    0.889    2.222    4.000    0.000    0.000 
#    0.000   16.667    0.000    0.000    0.000    0.000 
#    0.000    0.000    0.000    0.000    0.000    0.000 
#
# Total GULP energy -100432.567536 kJ/mol
# GULP energy per Si atom -5579.587085 kJ/mol
# Density = 2.242492 g / cm^3
# Si number density = 22.476077 Si / 1000 Ang^3
#
#
#
# Elastic Constant Matrix: (Units=GPa)
#
#
# Indices 1 2 3 4 5 6 
#
# 1 79.6981 11.0062 21.3703 0.0000 42.7776 0.0000
# 2 11.0062 75.7409 18.3023 0.0000 39.7705 0.0000
# 3 21.3703 18.3023 96.3371 0.0000 39.2756 0.0000
# 4 0.0000 0.0000 0.0000 29.1825 0.0000 8.6011
# 5 42.7776 39.7705 39.2756 0.0000 58.1320 0.0000
# 6 0.0000 0.0000 0.0000 8.6011 0.0000 25.2036
#
#
#
# Elastic Compliance Matrix: (Units=1/GPa)
#
#
# Indices 1 2 3 4 5 6 
#
# 1 0.025217 0.010189 0.003972 0.000000 -0.028211 0.000000
# 2 0.010189 0.025178 0.004190 0.000000 -0.027554 0.000000
# 3 0.003972 0.004190 0.015269 0.000000 -0.016105 0.000000
# 4 0.000000 0.000000 0.000000 0.038099 0.000000 -0.013002
# 5 -0.028211 -0.027554 -0.016105 0.000000 0.067693 0.000000
# 6 0.000000 0.000000 0.000000 -0.013002 0.000000 0.044114
#
#
# Mechanical properties :
#
#
# Convention : Reuss Voigt Hill
#
# Bulk Modulus (GPa) = 9.76898 39.23707 24.50303
# Shear Modulus (GPa) = 23.47507 35.91012 29.69260
#
# Velocity S-wave (km/s) = 3.23530 4.00147 3.63860
# Velocity P-wave (km/s) = 4.27925 6.23251 5.34585
#
# Compressibility (1/GPa) = 0.10236478
#
# Stress axis : x y z
#
# Youngs Moduli (GPa) = 39.65541 39.71723 65.49155
#
# Poissons Ratio (x) = -0.40467 -0.26010
# Poissons Ratio (y) = -0.40404 -0.27440
# Poissons Ratio (z) = -0.15749 -0.16641
#
# Static dielectric constant tensor:
#      x y z
#    x 1.917400 0.000000 -0.007680 
#    y 0.000000 1.769960 0.000000 
#    z -0.007680 0.000000 1.888680 
# 
# From -- ./inp_files/176816.got.cif
#   From: 2010.05.17/outbox.cif.g08.bks.cpg/sg15_89_cif.got.tgz:176816.got - 2010.06.03 18:47:42.
