data_PCOD9302020
_publ_section_title
;
Structure prediction by ZEFSAII (Michael W. Deem and Ramdas Pophale) SiO2 
 PCOD9302020
Probable space group: C 2/C
;
_chemical_formula_sum "Si O2"
_cell_formula_units_Z 44
_cell_length_a 9.284218
_cell_length_b 16.637100
_cell_length_c 18.370877
_cell_angle_alpha 90.000000
_cell_angle_beta 128.680126
_cell_angle_gamma 90.000000
_cell_volume 2215.173118
_symmetry_space_group_name_H-M "C 2/C"
_symmetry_group_IT_number 15
_symmetry_cell_setting 'monoclinic'
loop_
_space_group_symop_operation_xyz
x,y,z
-x,y,1/2-z
-x,-y,-z
x,-y,1/2+z
1/2+x,1/2+y,z
1/2-x,1/2+y,1/2-z
1/2-x,1/2-y,-z
1/2+x,1/2-y,1/2+z
loop_
_atom_site_type_symbol
_atom_site_label
_atom_site_fract_x
_atom_site_fract_y
_atom_site_fract_z
Si Si1 0.826487 0.333746 0.925562
Si Si2 0.409681 0.658574 0.892049
Si Si3 0.825405 0.425719 0.067006
Si Si4 0.500000 0.430574 0.750000
Si Si5 0.215567 0.590847 0.528096
Si Si6 0.753296 0.430628 0.288890
O O1 0.847246 0.243504 0.904243
O O2 0.640832 0.375031 0.838415
O O3 0.833723 0.349803 0.014397
O O4 0.006731 0.379923 0.951842
O O5 0.317984 0.591879 0.915054
O O6 0.629383 0.647153 0.958067
O O7 0.330851 0.639595 0.786972
O O8 0.031624 0.440671 0.161839
O O9 0.770728 0.502279 0.001303
O O10 0.373232 0.490022 0.759022
O O11 0.249847 0.586978 0.625649
#
# Coordination Sequence:
#
# PCOD9302020 Si02
#       6
#     8   8   8   4   8   8
#     4  11  24  40  64  93 127 168 206 259 316 376
#     4  12  24  38  66  98 132 154 209 271 316 354
#     4  11  22  42  65  95 124 168 210 257 308 380
#     4  12  20  42  68  84 122 172 220 240 308 380
#     4  11  21  44  68  87 126 174 213 246 311 383
#     4  11  21  41  67  90 121 174 214 250 300 382
#
# _framework density 19.863009000000002
#
# number of rings (size 3 to 8) (size 9 to 14) (size 15 to 20)
#    0.000    0.727    5.455    3.273    2.545    0.000 
#    0.000    0.000    8.000    0.000    0.000    0.000 
#    0.000    0.000    0.000    0.000    0.000    0.000 
#
# Total GULP energy -122927.042874 kJ/mol
# GULP energy per Si atom -5587.592858 kJ/mol
# Density = 1.981780 g / cm^3
# Si number density = 19.863009 Si / 1000 Ang^3
#
#
#
# Elastic Constant Matrix: (Units=GPa)
#
#
# Indices 1 2 3 4 5 6 
#
# 1 103.1096 18.5326 40.4353 0.0000 22.0541 0.0000
# 2 18.5326 88.0949 36.9649 0.0000 -5.8904 0.0000
# 3 40.4353 36.9649 92.0090 0.0000 23.0685 0.0000
# 4 0.0000 0.0000 0.0000 22.2807 0.0000 -4.0303
# 5 22.0541 -5.8904 23.0685 0.0000 30.4599 0.0000
# 6 0.0000 0.0000 0.0000 -4.0303 0.0000 26.1828
#
#
#
# Elastic Compliance Matrix: (Units=1/GPa)
#
#
# Indices 1 2 3 4 5 6 
#
# 1 0.012797 -0.001923 -0.003006 0.000000 -0.007361 0.000000
# 2 -0.001923 0.015930 -0.008241 0.000000 0.010715 0.000000
# 3 -0.003006 -0.008241 0.018953 0.000000 -0.013771 0.000000
# 4 0.000000 0.000000 0.000000 0.046167 0.000000 0.007107
# 5 -0.007361 0.010715 -0.013771 0.000000 0.050662 0.000000
# 6 0.000000 0.000000 0.000000 0.007107 0.000000 0.039287
#
#
# Mechanical properties :
#
#
# Convention : Reuss Voigt Hill
#
# Bulk Modulus (GPa) = 46.85928 52.78657 49.82292
# Shear Modulus (GPa) = 23.01486 28.27006 25.64246
#
# Velocity S-wave (km/s) = 3.40763 3.77669 3.59690
# Velocity P-wave (km/s) = 6.25500 6.75654 6.51060
#
# Compressibility (1/GPa) = 0.02134049
#
# Stress axis : x y z
#
# Youngs Moduli (GPa) = 78.14134 62.77283 52.76144
#
# Poissons Ratio (x) = 0.12072 0.15859
# Poissons Ratio (y) = 0.15028 0.43482
# Poissons Ratio (z) = 0.23488 0.51733
#
# Static dielectric constant tensor:
#      x y z
#    x 1.694440 0.000000 0.011460 
#    y 0.000000 1.701040 0.000000 
#    z 0.011460 0.000000 1.709520 
# 
# From -- ./inp_files/178779.got.cif
#   From: 2010.05.17/outbox.cif.g08.bks.cpg/sg15_90_cif.got.tgz:178779.got - 2010.06.03 18:47:42.
