data_PCOD9302099
_publ_section_title
;
Structure prediction by ZEFSAII (Michael W. Deem and Ramdas Pophale) SiO2 
 PCOD9302099
Probable space group: C 2/C
;
_chemical_formula_sum "Si O2"
_cell_formula_units_Z 56
_cell_length_a 23.837862
_cell_length_b 17.607758
_cell_length_c 8.447834
_cell_angle_alpha 90.000000
_cell_angle_beta 52.387295
_cell_angle_gamma 90.000000
_cell_volume 2808.836969
_symmetry_space_group_name_H-M "C 2/C"
_symmetry_group_IT_number 15
_symmetry_cell_setting 'monoclinic'
loop_
_space_group_symop_operation_xyz
x,y,z
-x,y,1/2-z
-x,-y,-z
x,-y,1/2+z
1/2+x,1/2+y,z
1/2-x,1/2+y,1/2-z
1/2-x,1/2-y,-z
1/2+x,1/2-y,1/2+z
loop_
_atom_site_type_symbol
_atom_site_label
_atom_site_fract_x
_atom_site_fract_y
_atom_site_fract_z
Si Si1 0.865846 0.715221 0.124356
Si Si2 0.500000 0.291327 0.750000
Si Si3 0.368110 0.742093 0.980091
Si Si4 0.000000 0.166463 0.750000
Si Si5 0.249454 0.809026 0.355382
Si Si6 0.799756 0.051776 0.702283
Si Si7 0.457488 0.423029 0.047806
Si Si8 0.256400 0.604425 0.126385
O O1 0.884847 0.731167 0.273636
O O2 0.806689 0.775949 0.173664
O O3 0.821926 0.636571 0.196193
O O4 0.932753 0.737198 0.900357
O O5 0.500406 0.354711 0.609715
O O6 0.441504 0.718645 0.933220
O O7 0.327307 0.805785 0.148161
O O8 0.311154 0.673468 0.066071
O O9 0.050394 0.112235 0.765275
O O10 0.250000 0.750000 0.500000
O O11 0.223793 0.895482 0.406295
O O12 0.883881 0.060824 0.587806
O O13 0.778654 0.966827 0.694002
O O14 0.763871 0.080586 0.928402
O O15 0.500000 0.500000 0.000000
#
# Coordination Sequence:
#
# PCOD9302099 Si02
#       8
#     8   4   8   4   8   8   8   8
#     4  11  22  45  62  89 126 180 217 274 324 384
#     4  12  23  42  68  89 132 176 228 268 332 397
#     4  11  21  42  62  86 130 171 211 263 329 381
#     4  12  21  38  60  91 122 176 198 254 328 383
#     4  11  23  38  65  94 123 165 226 274 312 392
#     4  12  24  43  63  96 136 174 214 269 337 393
#     4  12  26  38  59  99 142 172 208 263 336 414
#     4  11  23  41  65  90 129 175 220 265 327 391
#
# _framework density 19.937076000000001
#
# number of rings (size 3 to 8) (size 9 to 14) (size 15 to 20)
#    0.000    0.571    7.143    2.143    8.000    0.000 
#    0.000    0.000    0.000    1.714    0.000    0.000 
#    0.000    0.000    0.000    0.000    0.000    0.000 
#
# Total GULP energy -156118.075543 kJ/mol
# GULP energy per Si atom -5575.645555 kJ/mol
# Density = 1.989170 g / cm^3
# Si number density = 19.937076 Si / 1000 Ang^3
#
#
#
# Elastic Constant Matrix: (Units=GPa)
#
#
# Indices 1 2 3 4 5 6 
#
# 1 92.2523 61.3840 39.7758 0.0000 -19.6738 0.0000
# 2 61.3840 99.0275 41.5476 0.0000 -17.8067 0.0000
# 3 39.7758 41.5476 98.0705 0.0000 -29.2127 0.0000
# 4 0.0000 0.0000 0.0000 19.9350 0.0000 -4.6780
# 5 -19.6738 -17.8067 -29.2127 0.0000 35.7102 0.0000
# 6 0.0000 0.0000 0.0000 -4.6780 0.0000 39.3325
#
#
#
# Elastic Compliance Matrix: (Units=1/GPa)
#
#
# Indices 1 2 3 4 5 6 
#
# 1 0.019654 -0.010510 -0.002452 0.000000 0.003581 0.000000
# 2 -0.010510 0.018069 -0.003217 0.000000 0.000588 0.000000
# 3 -0.002452 -0.003217 0.015435 0.000000 0.009672 0.000000
# 4 0.000000 0.000000 0.000000 0.051603 0.000000 0.006137
# 5 0.003581 0.000588 0.009672 0.000000 0.038181 0.000000
# 6 0.000000 0.000000 0.000000 0.006137 0.000000 0.026154
#
#
# Mechanical properties :
#
#
# Convention : Reuss Voigt Hill
#
# Bulk Modulus (GPa) = 48.07791 63.86279 55.97035
# Shear Modulus (GPa) = 23.99370 28.77174 26.38272
#
# Velocity S-wave (km/s) = 3.47287 3.80297 3.64166
# Velocity P-wave (km/s) = 6.34415 7.16835 6.76881
#
# Compressibility (1/GPa) = 0.02079957
#
# Stress axis : x y z
#
# Youngs Moduli (GPa) = 50.87946 55.34471 64.78798
#
# Poissons Ratio (x) = 0.58169 0.15886
# Poissons Ratio (y) = 0.53476 0.20841
# Poissons Ratio (z) = 0.12475 0.17803
#
# Static dielectric constant tensor:
#      x y z
#    x 1.752730 0.000000 0.032840 
#    y 0.000000 1.788630 0.000000 
#    z 0.032840 0.000000 1.821590 
# 
# From -- ./inp_files/62693.got.cif
#   From: 2010.05.17/outbox.cif.g08.bks.cpg/sg15_32_cif.got.tgz:62693.got - 2010.06.03 18:47:42.
