data_PCOD9302823
_publ_section_title
;
Structure prediction by ZEFSAII (Michael W. Deem and Ramdas Pophale) SiO2 
 PCOD9302823
Probable space group: C 2/C
;
_chemical_formula_sum "Si O2"
_cell_formula_units_Z 60
_cell_length_a 12.886221
_cell_length_b 15.490605
_cell_length_c 25.902778
_cell_angle_alpha 90.000000
_cell_angle_beta 147.928934
_cell_angle_gamma 90.000000
_cell_volume 2745.433142
_symmetry_space_group_name_H-M "C 2/C"
_symmetry_group_IT_number 15
_symmetry_cell_setting 'monoclinic'
loop_
_space_group_symop_operation_xyz
x,y,z
-x,y,1/2-z
-x,-y,-z
x,-y,1/2+z
1/2+x,1/2+y,z
1/2-x,1/2+y,1/2-z
1/2-x,1/2-y,-z
1/2+x,1/2-y,1/2+z
loop_
_atom_site_type_symbol
_atom_site_label
_atom_site_fract_x
_atom_site_fract_y
_atom_site_fract_z
Si Si1 0.738008 0.553772 0.991460
Si Si2 0.046730 0.213803 0.642172
Si Si3 0.288753 0.373168 0.559908
Si Si4 0.018140 0.700199 0.651646
Si Si5 0.025769 0.342483 0.542500
Si Si6 0.000000 0.600609 0.750000
Si Si7 0.813858 0.271769 0.638123
Si Si8 0.716968 0.465694 0.598426
O O1 0.575456 0.628878 0.923637
O O2 0.644989 0.467280 0.929187
O O3 0.913607 0.585249 0.028525
O O4 0.807275 0.533306 0.078702
O O5 0.248882 0.193636 0.756111
O O6 0.094247 0.268756 0.611322
O O7 0.902226 0.270092 0.617274
O O8 0.452099 0.299857 0.624327
O O9 0.114041 0.345939 0.447047
O O10 0.197816 0.374465 0.578715
O O11 0.971434 0.657985 0.687489
O O12 0.862897 0.295202 0.438269
O O13 0.821376 0.533716 0.679348
O O14 0.739672 0.366011 0.624111
O O15 0.000000 0.245485 0.750000
O O16 0.500000 0.500000 0.500000
#
# Coordination Sequence:
#
# PCOD9302823 Si02
#       8
#     8   8   8   8   8   4   8   8
#     4  11  22  46  65 103 131 179 232 278 343 411
#     4  11  22  43  71  94 136 180 229 280 339 416
#     4  11  25  44  67  98 142 176 230 279 348 411
#     4  11  25  43  66  97 133 180 222 280 348 413
#     4  11  22  41  73  95 138 186 219 283 338 422
#     4  12  24  44  66  96 138 174 224 286 350 408
#     4  11  22  40  65  98 131 173 228 279 347 404
#     4  12  24  38  67 102 132 170 226 293 341 405
#
# _framework density 21.854475999999998
#
# number of rings (size 3 to 8) (size 9 to 14) (size 15 to 20)
#    0.000    0.800    4.667    3.600    1.867    1.067 
#    4.800    0.000   14.667    0.000    0.000    0.000 
#    0.000    0.000    0.000    0.000    0.000    0.000 
#
# Total GULP energy -167845.642551 kJ/mol
# GULP energy per Si atom -5594.854752 kJ/mol
# Density = 2.180473 g / cm^3
# Si number density = 21.854476 Si / 1000 Ang^3
#
#
#
# Elastic Constant Matrix: (Units=GPa)
#
#
# Indices 1 2 3 4 5 6 
#
# 1 56.3070 8.3918 -5.0827 0.0000 -15.9264 0.0000
# 2 8.3918 93.1014 6.0935 0.0000 -13.7855 0.0000
# 3 -5.0827 6.0935 81.7529 0.0000 1.1549 0.0000
# 4 0.0000 0.0000 0.0000 29.0394 0.0000 -6.0631
# 5 -15.9264 -13.7855 1.1549 0.0000 31.5997 0.0000
# 6 0.0000 0.0000 0.0000 -6.0631 0.0000 11.6184
#
#
#
# Elastic Compliance Matrix: (Units=1/GPa)
#
#
# Indices 1 2 3 4 5 6 
#
# 1 0.020836 -0.000435 0.001183 0.000000 0.010268 0.000000
# 2 -0.000435 0.011562 -0.000958 0.000000 0.004860 0.000000
# 3 0.001183 -0.000958 0.012381 0.000000 -0.000274 0.000000
# 4 0.000000 0.000000 0.000000 0.038647 0.000000 0.020168
# 5 0.010268 0.004860 -0.000274 0.000000 0.038951 0.000000
# 6 0.000000 0.000000 0.000000 0.020168 0.000000 0.096595
#
#
# Mechanical properties :
#
#
# Convention : Reuss Voigt Hill
#
# Bulk Modulus (GPa) = 22.54316 27.77408 25.15862
# Shear Modulus (GPa) = 21.35123 29.23541 25.29332
#
# Velocity S-wave (km/s) = 3.12905 3.66147 3.40568
# Velocity P-wave (km/s) = 4.83654 5.53275 5.19632
#
# Compressibility (1/GPa) = 0.04435936
#
# Stress axis : x y z
#
# Youngs Moduli (GPa) = 47.99436 86.48679 80.77054
#
# Poissons Ratio (x) = 0.03763 -0.09553
# Poissons Ratio (y) = 0.02088 0.07734
# Poissons Ratio (z) = -0.05677 0.08281
#
# Static dielectric constant tensor:
#      x y z
#    x 1.856190 0.000000 0.035840 
#    y 0.000000 1.791440 0.000000 
#    z 0.035840 0.000000 1.942450 
# 
# From -- ./inp_files/296720.got.cif
#   From: 2010.05.17/outbox.cif.g08.bks.cpg/sg15_149_cif.got.tgz:296720.got - 2010.06.03 18:47:42.
