data_PCOD9302905
_publ_section_title
;
Structure prediction by ZEFSAII (Michael W. Deem and Ramdas Pophale) SiO2 
 PCOD9302905
Probable space group: C 2/C
;
_chemical_formula_sum "Si O2"
_cell_formula_units_Z 48
_cell_length_a 10.490962
_cell_length_b 8.421707
_cell_length_c 24.728575
_cell_angle_alpha 90.000000
_cell_angle_beta 68.385325
_cell_angle_gamma 90.000000
_cell_volume 2031.182909
_symmetry_space_group_name_H-M "C 2/C"
_symmetry_group_IT_number 15
_symmetry_cell_setting 'monoclinic'
loop_
_space_group_symop_operation_xyz
x,y,z
-x,y,1/2-z
-x,-y,-z
x,-y,1/2+z
1/2+x,1/2+y,z
1/2-x,1/2+y,1/2-z
1/2-x,1/2-y,-z
1/2+x,1/2-y,1/2+z
loop_
_atom_site_type_symbol
_atom_site_label
_atom_site_fract_x
_atom_site_fract_y
_atom_site_fract_z
Si Si1 0.428728 0.120964 0.052607
Si Si2 0.380184 0.811431 0.115761
Si Si3 0.139309 0.777106 0.756458
Si Si4 0.602797 0.614238 0.017849
Si Si5 0.579031 0.634316 0.788160
Si Si6 0.864322 0.835885 0.415235
O O1 0.552490 0.216665 0.060675
O O2 0.370508 0.000698 0.106433
O O3 0.341989 0.258611 0.035009
O O4 0.500000 0.000000 0.000000
O O5 0.361310 0.774113 0.180920
O O6 0.515203 0.724758 0.072328
O O7 0.257641 0.749399 0.096851
O O8 0.285592 0.721031 0.711278
O O9 0.000000 0.715767 0.750000
O O10 0.130572 0.966834 0.757041
O O11 0.684452 0.484801 0.040687
O O12 0.500000 0.500000 0.000000
O O13 0.500000 0.716957 0.750000
O O14 0.471180 0.606326 0.852861
#
# Coordination Sequence:
#
# PCOD9302905 Si02
#       6
#     8   8   8   8   8   8
#     4   9  22  39  62  95 131 163 216 262 319 387
#     4  11  22  42  66  96 128 172 216 266 327 396
#     4  11  26  43  67  97 134 168 223 274 327 398
#     4   9  20  41  61  93 130 166 215 265 319 383
#     4  11  24  44  66  97 129 173 218 275 328 391
#     4  11  22  40  70  91 132 174 213 266 333 389
#
# _framework density 23.631549
#
# number of rings (size 3 to 8) (size 9 to 14) (size 15 to 20)
#    0.000    1.667    3.333    0.000    2.333    8.667 
#    0.000    3.333    0.000    0.000    0.000    0.000 
#    0.000    0.000    0.000    0.000    0.000    0.000 
#
# Total GULP energy -134123.619670 kJ/mol
# GULP energy per Si atom -5588.484153 kJ/mol
# Density = 2.357776 g / cm^3
# Si number density = 23.631549 Si / 1000 Ang^3
#
#
#
# Elastic Constant Matrix: (Units=GPa)
#
#
# Indices 1 2 3 4 5 6 
#
# 1 120.3634 6.2874 19.9779 0.0000 15.4387 0.0000
# 2 6.2874 54.3496 11.5032 0.0000 7.5794 0.0000
# 3 19.9779 11.5032 56.2094 0.0000 12.2949 0.0000
# 4 0.0000 0.0000 0.0000 39.2355 0.0000 0.9736
# 5 15.4387 7.5794 12.2949 0.0000 42.3854 0.0000
# 6 0.0000 0.0000 0.0000 0.9736 0.0000 36.8787
#
#
#
# Elastic Compliance Matrix: (Units=1/GPa)
#
#
# Indices 1 2 3 4 5 6 
#
# 1 0.009077 -0.000139 -0.002648 0.000000 -0.002513 0.000000
# 2 -0.000139 0.019476 -0.003401 0.000000 -0.002445 0.000000
# 3 -0.002648 -0.003401 0.020377 0.000000 -0.004338 0.000000
# 4 0.000000 0.000000 0.000000 0.025504 0.000000 -0.000673
# 5 -0.002513 -0.002445 -0.004338 0.000000 0.026204 0.000000
# 6 0.000000 0.000000 0.000000 -0.000673 0.000000 0.027134
#
#
# Mechanical properties :
#
#
# Convention : Reuss Voigt Hill
#
# Bulk Modulus (GPa) = 27.35735 34.05105 30.70420
# Shear Modulus (GPa) = 32.82263 36.57685 34.69974
#
# Velocity S-wave (km/s) = 3.73088 3.93847 3.83608
# Velocity P-wave (km/s) = 5.49191 5.92643 5.71330
#
# Compressibility (1/GPa) = 0.03655324
#
# Stress axis : x y z
#
# Youngs Moduli (GPa) = 110.16441 51.34401 49.07556
#
# Poissons Ratio (x) = 0.00714 0.12995
# Poissons Ratio (y) = 0.01533 0.16693
# Poissons Ratio (z) = 0.29172 0.17465
#
# Static dielectric constant tensor:
#      x y z
#    x 2.318710 0.000000 0.058400 
#    y 0.000000 1.897590 0.000000 
#    z 0.058400 0.000000 1.892940 
# 
# From -- ./inp_files/268017.got.cif
#   From: 2010.05.17/outbox.cif.g08.bks.cpg/sg15_135_cif.got.tgz:268017.got - 2010.06.03 18:47:42.
