data_PCOD9302046
_publ_section_title
;
Structure prediction by ZEFSAII (Michael W. Deem and Ramdas Pophale) SiO2 
 PCOD9302046
Probable space group: C 2/C
;
_chemical_formula_sum "Si O2"
_cell_formula_units_Z 32
_cell_length_a 7.930136
_cell_length_b 17.349710
_cell_length_c 11.206305
_cell_angle_alpha 90.000000
_cell_angle_beta 125.252019
_cell_angle_gamma 90.000000
_cell_volume 1259.087618
_symmetry_space_group_name_H-M "C 2/C"
_symmetry_group_IT_number 15
_symmetry_cell_setting 'monoclinic'
loop_
_space_group_symop_operation_xyz
x,y,z
-x,y,1/2-z
-x,-y,-z
x,-y,1/2+z
1/2+x,1/2+y,z
1/2-x,1/2+y,1/2-z
1/2-x,1/2-y,-z
1/2+x,1/2-y,1/2+z
loop_
_atom_site_type_symbol
_atom_site_label
_atom_site_fract_x
_atom_site_fract_y
_atom_site_fract_z
Si Si1 0.765694 0.034232 0.485127
Si Si2 0.627161 0.265080 0.694813
Si Si3 0.958021 0.801057 0.086390
Si Si4 0.226289 0.560566 0.202311
O O1 0.893504 0.110813 0.565219
O O2 0.793825 0.017864 0.354231
O O3 0.522763 0.056349 0.397759
O O4 0.798653 0.972866 0.604413
O O5 0.500000 0.228975 0.750000
O O6 0.476656 0.278550 0.522626
O O7 0.707978 0.350761 0.759458
O O8 0.836449 0.217108 0.755831
O O9 0.750000 0.750000 0.000000
#
# Coordination Sequence:
#
# PCOD9302046 Si02
#       4
#     8   8   8   8
#     4   9  18  36  67  97 131 175 223 279 336 410
#     4  11  23  41  65  97 138 176 223 288 342 397
#     4  11  21  41  68  97 130 181 229 276 341 410
#     4   9  18  37  64  97 135 172 221 279 343 401
#
# _framework density 25.415230999999999
#
# number of rings (size 3 to 8) (size 9 to 14) (size 15 to 20)
#    0.000    2.000    2.500    1.500    0.000    0.000 
#    0.000   15.000    0.000    0.000    0.000    5.250 
#    0.000    0.000    0.000    0.000    0.000    0.000 
#
# Total GULP energy -89491.484173 kJ/mol
# GULP energy per Si atom -5593.217761 kJ/mol
# Density = 2.535738 g / cm^3
# Si number density = 25.415231 Si / 1000 Ang^3
#
#
#
# Elastic Constant Matrix: (Units=GPa)
#
#
# Indices 1 2 3 4 5 6 
#
# 1 116.8779 12.7803 10.7298 0.0000 -0.4025 0.0000
# 2 12.7803 75.9240 30.7373 0.0000 8.8578 0.0000
# 3 10.7298 30.7373 169.2866 0.0000 6.3263 0.0000
# 4 0.0000 0.0000 0.0000 33.3083 0.0000 -4.9417
# 5 -0.4025 8.8578 6.3263 0.0000 32.0236 0.0000
# 6 0.0000 0.0000 0.0000 -4.9417 0.0000 20.5803
#
#
#
# Elastic Compliance Matrix: (Units=1/GPa)
#
#
# Indices 1 2 3 4 5 6 
#
# 1 0.008741 -0.001408 -0.000319 0.000000 0.000562 0.000000
# 2 -0.001408 0.014831 -0.002468 0.000000 -0.003632 0.000000
# 3 -0.000319 -0.002468 0.006397 0.000000 -0.000585 0.000000
# 4 0.000000 0.000000 0.000000 0.031132 0.000000 0.007475
# 5 0.000562 -0.003632 -0.000585 0.000000 0.032354 0.000000
# 6 0.000000 0.000000 0.000000 0.007475 0.000000 0.050385
#
#
# Mechanical properties :
#
#
# Convention : Reuss Voigt Hill
#
# Bulk Modulus (GPa) = 46.34056 52.28705 49.31381
# Shear Modulus (GPa) = 31.36299 37.70520 34.53409
#
# Velocity S-wave (km/s) = 3.51668 3.85589 3.69018
# Velocity P-wave (km/s) = 5.89596 6.35937 6.13204
#
# Compressibility (1/GPa) = 0.02157937
#
# Stress axis : x y z
#
# Youngs Moduli (GPa) = 114.40175 67.42678 156.31472
#
# Poissons Ratio (x) = 0.09492 0.04994
# Poissons Ratio (y) = 0.16104 0.38577
# Poissons Ratio (z) = 0.03655 0.16640
#
# Static dielectric constant tensor:
#      x y z
#    x 2.183600 0.000000 -0.023530 
#    y 0.000000 1.887780 0.000000 
#    z -0.023530 0.000000 2.272610 
# 
# From -- ./inp_files/76532.got.cif
#   From: 2010.05.17/outbox.cif.g08.bks.cpg/sg15_39_cif.got.tgz:76532.got - 2010.06.03 18:47:42.
