data_PCOD9302247
_publ_section_title
;
Structure prediction by ZEFSAII (Michael W. Deem and Ramdas Pophale) SiO2 
 PCOD9302247
Probable space group: C 2/C
;
_chemical_formula_sum "Si O2"
_cell_formula_units_Z 56
_cell_length_a 17.995186
_cell_length_b 8.151119
_cell_length_c 19.544954
_cell_angle_alpha 90.000000
_cell_angle_beta 62.533487
_cell_angle_gamma 90.000000
_cell_volume 2543.719327
_symmetry_space_group_name_H-M "C 2/C"
_symmetry_group_IT_number 15
_symmetry_cell_setting 'monoclinic'
loop_
_space_group_symop_operation_xyz
x,y,z
-x,y,1/2-z
-x,-y,-z
x,-y,1/2+z
1/2+x,1/2+y,z
1/2-x,1/2+y,1/2-z
1/2-x,1/2-y,-z
1/2+x,1/2-y,1/2+z
loop_
_atom_site_type_symbol
_atom_site_label
_atom_site_fract_x
_atom_site_fract_y
_atom_site_fract_z
Si Si1 0.649074 0.163854 0.848370
Si Si2 0.696811 0.698599 0.955083
Si Si3 0.236688 0.169284 0.431889
Si Si4 0.047979 0.664119 0.581764
Si Si5 0.075714 0.980971 0.665541
Si Si6 0.723705 0.616212 0.198952
Si Si7 0.074514 0.652632 0.161932
O O1 0.681438 0.215320 0.908662
O O2 0.549645 0.155254 0.891573
O O3 0.676005 0.302454 0.782338
O O4 0.700412 0.999035 0.809232
O O5 0.690699 0.503817 0.960630
O O6 0.742565 0.743775 0.865742
O O7 0.750000 0.750000 0.000000
O O8 0.610918 0.801550 0.992952
O O9 0.250000 0.250000 0.500000
O O10 0.327784 0.142876 0.357432
O O11 0.069806 0.823233 0.619571
O O12 0.068264 0.495530 0.611509
O O13 0.159136 0.979782 0.676636
O O14 0.000000 0.961675 0.750000
O O15 0.065603 0.161532 0.637256
O O16 0.000000 0.632041 0.250000
#
# Coordination Sequence:
#
# PCOD9302247 Si02
#       7
#     8   8   8   8   8   8   8
#     4  12  29  46  74 109 149 191 241 319 370 427
#     4  12  24  44  75 105 144 198 246 299 367 452
#     4  12  25  50  75 104 148 201 249 299 381 455
#     4  12  26  45  73 111 148 187 248 309 367 425
#     4  11  21  43  73 104 148 195 244 297 359 446
#     4  12  25  46  71 108 151 191 247 299 378 440
#     4  11  25  41  76 111 143 195 254 292 363 447
#
# _framework density 22.015008000000002
#
# number of rings (size 3 to 8) (size 9 to 14) (size 15 to 20)
#    0.000    0.286    5.714    3.000    4.000    1.143 
#    2.571    0.000    0.000    0.000    0.000    0.000 
#    0.000    0.000    0.000    0.000    0.000    0.000 
#
# Total GULP energy -156628.592522 kJ/mol
# GULP energy per Si atom -5593.878304 kJ/mol
# Density = 2.196490 g / cm^3
# Si number density = 22.015008 Si / 1000 Ang^3
#
#
#
# Elastic Constant Matrix: (Units=GPa)
#
#
# Indices 1 2 3 4 5 6 
#
# 1 131.2579 18.7762 12.3862 0.0000 -18.4670 -0.0001
# 2 18.7762 115.3569 23.2726 -0.0001 5.7980 -0.0003
# 3 12.3862 23.2726 51.7437 0.0000 -4.6869 0.0000
# 4 0.0000 -0.0001 0.0000 26.5254 0.0000 -11.2452
# 5 -18.4670 5.7980 -4.6869 0.0000 36.0241 0.0000
# 6 -0.0001 -0.0003 0.0000 -11.2452 0.0000 25.0724
#
#
#
# Elastic Compliance Matrix: (Units=1/GPa)
#
#
# Indices 1 2 3 4 5 6 
#
# 1 0.008545 -0.001413 -0.001004 0.000000 0.004477 0.000000
# 2 -0.001413 0.009930 -0.004390 0.000000 -0.002894 0.000000
# 3 -0.001004 -0.004390 0.021815 0.000000 0.003030 0.000000
# 4 0.000000 0.000000 0.000000 0.046551 0.000000 0.020879
# 5 0.004477 -0.002894 0.003030 0.000000 0.030914 0.000000
# 6 0.000000 0.000000 0.000000 0.020879 0.000000 0.049249
#
#
# Mechanical properties :
#
#
# Convention : Reuss Voigt Hill
#
# Bulk Modulus (GPa) = 37.48765 45.24761 41.36763
# Shear Modulus (GPa) = 26.38355 33.78594 30.08475
#
# Velocity S-wave (km/s) = 3.46560 3.92175 3.70071
# Velocity P-wave (km/s) = 5.75144 6.41128 6.09030
#
# Compressibility (1/GPa) = 0.02667545
#
# Stress axis : x y z
#
# Youngs Moduli (GPa) = 117.02081 100.70604 45.83932
#
# Poissons Ratio (x) = 0.14233 0.04604
# Poissons Ratio (y) = 0.16539 0.20123
# Poissons Ratio (z) = 0.11753 0.44209
#
# Static dielectric constant tensor:
#      x y z
#    x 1.816530 0.000000 -0.042440 
#    y 0.000000 1.812270 0.000000 
#    z -0.042440 0.000000 1.854410 
# 
# From -- ./inp_files/209515.got.cif
#   From: 2010.05.17/outbox.cif.g08.bks.cpg/sg15_105_cif.got.tgz:209515.got - 2010.06.03 18:47:42.
