data_PCOD9302356
_publ_section_title
;
Structure prediction by ZEFSAII (Michael W. Deem and Ramdas Pophale) SiO2 
 PCOD9302356
Probable space group: C 2/C
;
_chemical_formula_sum "Si O2"
_cell_formula_units_Z 44
_cell_length_a 22.745662
_cell_length_b 11.131566
_cell_length_c 11.971941
_cell_angle_alpha 90.000000
_cell_angle_beta 37.480950
_cell_angle_gamma 90.000000
_cell_volume 1844.498459
_symmetry_space_group_name_H-M "C 2/C"
_symmetry_group_IT_number 15
_symmetry_cell_setting 'monoclinic'
loop_
_space_group_symop_operation_xyz
x,y,z
-x,y,1/2-z
-x,-y,-z
x,-y,1/2+z
1/2+x,1/2+y,z
1/2-x,1/2+y,1/2-z
1/2-x,1/2-y,-z
1/2+x,1/2-y,1/2+z
loop_
_atom_site_type_symbol
_atom_site_label
_atom_site_fract_x
_atom_site_fract_y
_atom_site_fract_z
Si Si1 0.060423 0.200975 0.042413
Si Si2 0.533819 0.347747 0.039409
Si Si3 0.363525 0.956572 0.567429
Si Si4 0.000000 0.652282 0.250000
Si Si5 0.674667 0.518491 0.969545
Si Si6 0.291008 0.643138 0.366868
O O1 0.000000 0.187733 0.250000
O O2 0.024984 0.129033 0.986667
O O3 0.068879 0.342555 0.006543
O O4 0.162894 0.143586 0.920149
O O5 0.588141 0.439212 0.044548
O O6 0.631648 0.300257 0.833194
O O7 0.470579 0.248764 0.199383
O O8 0.294817 0.918756 0.568942
O O9 0.425372 0.067115 0.427671
O O10 0.283969 0.976031 0.784132
O O11 0.661411 0.546648 0.119874
O O12 0.250000 0.750000 0.500000
#
# Coordination Sequence:
#
# PCOD9302356 Si02
#       6
#     8   8   8   4   8   8
#     4  12  23  47  74 104 140 193 246 282 363 432
#     4  11  27  44  72 105 144 186 236 303 353 428
#     4  11  26  42  69 106 141 190 230 301 351 430
#     4  12  28  46  64 110 150 180 242 294 372 410
#     4  11  25  44  74 104 142 184 245 290 359 423
#     4  11  21  46  74 100 138 187 240 288 357 427
#
# _framework density 23.854724000000001
#
# number of rings (size 3 to 8) (size 9 to 14) (size 15 to 20)
#    0.000    0.727    4.545    1.636    6.364    3.636 
#    0.000    1.818    0.000    0.000    0.000    0.000 
#    0.000    0.000    0.000    0.000    0.000    0.000 
#
# Total GULP energy -122647.280138 kJ/mol
# GULP energy per Si atom -5574.876370 kJ/mol
# Density = 2.380043 g / cm^3
# Si number density = 23.854724 Si / 1000 Ang^3
#
#
#
# Elastic Constant Matrix: (Units=GPa)
#
#
# Indices 1 2 3 4 5 6 
#
# 1 93.2046 17.5124 3.7200 0.0000 13.3960 0.0000
# 2 17.5124 82.4988 39.5981 0.0000 11.4007 0.0000
# 3 3.7200 39.5981 99.5069 0.0000 12.5831 0.0000
# 4 0.0000 0.0000 0.0000 38.2208 0.0000 7.8389
# 5 13.3960 11.4007 12.5831 0.0000 29.4164 0.0000
# 6 0.0000 0.0000 0.0000 7.8389 0.0000 32.2934
#
#
#
# Elastic Compliance Matrix: (Units=1/GPa)
#
#
# Indices 1 2 3 4 5 6 
#
# 1 0.011842 -0.002370 0.001127 0.000000 -0.004956 0.000000
# 2 -0.002370 0.015795 -0.005877 0.000000 -0.002528 0.000000
# 3 0.001127 -0.005877 0.012816 0.000000 -0.003718 0.000000
# 4 0.000000 0.000000 0.000000 0.027535 0.000000 -0.006684
# 5 -0.004956 -0.002528 -0.003718 0.000000 0.038822 0.000000
# 6 0.000000 0.000000 0.000000 -0.006684 0.000000 0.032588
#
#
# Mechanical properties :
#
#
# Convention : Reuss Voigt Hill
#
# Bulk Modulus (GPa) = 38.14873 44.09680 41.12277
# Shear Modulus (GPa) = 30.79293 34.27811 32.53552
#
# Velocity S-wave (km/s) = 3.59674 3.79483 3.69711
# Velocity P-wave (km/s) = 5.76850 6.14220 5.95828
#
# Compressibility (1/GPa) = 0.02621319
#
# Stress axis : x y z
#
# Youngs Moduli (GPa) = 84.44729 63.31228 78.02567
#
# Poissons Ratio (x) = 0.15003 -0.08794
# Poissons Ratio (y) = 0.20012 0.45856
# Poissons Ratio (z) = -0.09518 0.37209
#
# Static dielectric constant tensor:
#      x y z
#    x 1.904920 0.000000 0.070410 
#    y 0.000000 1.997010 0.000000 
#    z 0.070410 0.000000 1.839200 
# 
# From -- ./inp_files/117902.got.cif
#   From: 2010.05.17/outbox.cif.g08.bks.cpg/sg15_59_cif.got.tgz:117902.got - 2010.06.03 18:47:42.
