data_PCOD9302040
_publ_section_title
;
Structure prediction by ZEFSAII (Michael W. Deem and Ramdas Pophale) SiO2 
 PCOD9302040
Probable space group: C 2/C
;
_chemical_formula_sum "Si O2"
_cell_formula_units_Z 48
_cell_length_a 25.760404
_cell_length_b 19.865008
_cell_length_c 8.657828
_cell_angle_alpha 90.000000
_cell_angle_beta 147.124175
_cell_angle_gamma 90.000000
_cell_volume 2404.951480
_symmetry_space_group_name_H-M "C 2/C"
_symmetry_group_IT_number 15
_symmetry_cell_setting 'monoclinic'
loop_
_space_group_symop_operation_xyz
x,y,z
-x,y,1/2-z
-x,-y,-z
x,-y,1/2+z
1/2+x,1/2+y,z
1/2-x,1/2+y,1/2-z
1/2-x,1/2-y,-z
1/2+x,1/2-y,1/2+z
loop_
_atom_site_type_symbol
_atom_site_label
_atom_site_fract_x
_atom_site_fract_y
_atom_site_fract_z
Si Si1 0.327585 0.075055 0.346068
Si Si2 0.500000 0.841144 0.250000
Si Si3 0.000000 0.345395 0.750000
Si Si4 0.697940 0.687050 0.164589
Si Si5 0.013124 0.758211 0.033686
Si Si6 0.320761 0.320325 0.515512
Si Si7 0.325212 0.074420 0.971106
O O1 0.424671 0.111215 0.645945
O O2 0.243850 0.124269 0.191247
O O3 0.317947 0.000938 0.389311
O O4 0.337043 0.072359 0.184739
O O5 0.552349 0.790945 0.498944
O O6 0.961657 0.293995 0.523376
O O7 0.915160 0.388907 0.612188
O O8 0.689492 0.671450 0.325201
O O9 0.765040 0.753050 0.322722
O O10 0.597110 0.705775 0.835277
O O11 0.932840 0.807712 0.767508
O O12 0.268720 0.382388 0.304577
#
# Coordination Sequence:
#
# PCOD9302040 Si02
#       7
#     8   4   4   8   8   8   8
#     4  12  27  43  62  96 133 175 217 266 325 389
#     4  12  25  38  66  98 133 168 212 278 321 386
#     4  12  21  42  66  96 131 164 214 266 331 384
#     4  11  22  41  67  95 132 168 218 266 318 389
#     4  12  23  40  68 103 129 167 218 269 325 380
#     4  11  21  41  68  94 129 173 212 268 323 381
#     4  12  27  42  65  93 134 174 217 266 325 391
#
# _framework density 19.958821
#
# number of rings (size 3 to 8) (size 9 to 14) (size 15 to 20)
#    0.000    0.333    6.667    2.500    4.667    2.667 
#    0.000    0.833    0.000    0.000    0.000    0.000 
#    0.000    0.000    0.000    0.000    0.000    0.000 
#
# Total GULP energy -134251.905128 kJ/mol
# GULP energy per Si atom -5593.829380 kJ/mol
# Density = 1.991339 g / cm^3
# Si number density = 19.958821 Si / 1000 Ang^3
#
#
#
# Elastic Constant Matrix: (Units=GPa)
#
#
# Indices 1 2 3 4 5 6 
#
# 1 61.5423 58.1633 22.8916 0.0000 3.0996 0.0000
# 2 58.1633 125.1558 47.4852 0.0000 6.5783 0.0000
# 3 22.8916 47.4852 110.8239 0.0000 15.1364 0.0000
# 4 0.0000 0.0000 0.0000 25.9946 0.0000 -0.9195
# 5 3.0996 6.5783 15.1364 0.0000 31.5114 0.0000
# 6 0.0000 0.0000 0.0000 -0.9195 0.0000 38.5729
#
#
#
# Elastic Compliance Matrix: (Units=1/GPa)
#
#
# Indices 1 2 3 4 5 6 
#
# 1 0.028981 -0.013371 -0.000267 0.000000 0.000069 0.000000
# 2 -0.013371 0.015710 -0.003961 0.000000 -0.000062 0.000000
# 3 -0.000267 -0.003961 0.011407 0.000000 -0.004626 0.000000
# 4 0.000000 0.000000 0.000000 0.038502 0.000000 0.000918
# 5 0.000069 -0.000062 -0.004626 0.000000 0.033963 0.000000
# 6 0.000000 0.000000 0.000000 0.000918 0.000000 0.025947
#
#
# Mechanical properties :
#
#
# Convention : Reuss Voigt Hill
#
# Bulk Modulus (GPa) = 47.84289 61.62247 54.73268
# Shear Modulus (GPa) = 25.42264 30.48124 27.95194
#
# Velocity S-wave (km/s) = 3.57284 3.91219 3.74636
# Velocity P-wave (km/s) = 6.40649 7.16581 6.79676
#
# Compressibility (1/GPa) = 0.02090175
#
# Stress axis : x y z
#
# Youngs Moduli (GPa) = 34.50480 63.65393 87.66184
#
# Poissons Ratio (x) = 0.85111 0.02338
# Poissons Ratio (y) = 0.46136 0.34723
# Poissons Ratio (z) = 0.00920 0.25213
#
# Static dielectric constant tensor:
#      x y z
#    x 1.746440 0.000000 -0.013800 
#    y 0.000000 1.666200 0.000000 
#    z -0.013800 0.000000 1.704070 
# 
# From -- ./inp_files/40972.got.cif
#   From: 2010.05.17/outbox.cif.g08.bks.cpg/sg15_21_cif.got.tgz:40972.got - 2010.06.03 18:47:42.
