data_PCOD9302553
_publ_section_title
;
Structure prediction by ZEFSAII (Michael W. Deem and Ramdas Pophale) SiO2 
 PCOD9302553
Probable space group: C 2/C
;
_chemical_formula_sum "Si O2"
_cell_formula_units_Z 48
_cell_length_a 17.254588
_cell_length_b 8.737651
_cell_length_c 17.828757
_cell_angle_alpha 90.000000
_cell_angle_beta 125.692576
_cell_angle_gamma 90.000000
_cell_volume 2183.038954
_symmetry_space_group_name_H-M "C 2/C"
_symmetry_group_IT_number 15
_symmetry_cell_setting 'monoclinic'
loop_
_space_group_symop_operation_xyz
x,y,z
-x,y,1/2-z
-x,-y,-z
x,-y,1/2+z
1/2+x,1/2+y,z
1/2-x,1/2+y,1/2-z
1/2-x,1/2-y,-z
1/2+x,1/2-y,1/2+z
loop_
_atom_site_type_symbol
_atom_site_label
_atom_site_fract_x
_atom_site_fract_y
_atom_site_fract_z
Si Si1 0.195080 0.943610 0.305783
Si Si2 0.007554 0.603078 0.666878
Si Si3 0.305433 0.086031 0.226523
Si Si4 0.855098 0.929348 0.443543
Si Si5 0.690547 0.870245 0.517541
Si Si6 0.470822 0.559722 0.367334
O O1 0.251199 0.032691 0.271030
O O2 0.203114 0.764813 0.293834
O O3 0.243700 0.001422 0.409042
O O4 0.084569 0.991866 0.234801
O O5 0.086369 0.471790 0.705567
O O6 0.041108 0.756938 0.643327
O O7 0.000000 0.644702 0.750000
O O8 0.902912 0.565747 0.576248
O O9 0.249170 0.000101 0.127061
O O10 0.846881 0.746220 0.438983
O O11 0.917891 0.970082 0.552439
O O12 0.915570 0.989296 0.407273
O O13 0.750000 0.750000 0.500000
#
# Coordination Sequence:
#
# PCOD9302553 Si02
#       6
#     8   8   8   8   8   8
#     4  11  22  38  63  92 124 165 207 253 310 370
#     4  11  23  41  64  90 124 161 205 260 314 372
#     4  11  22  38  62  90 126 163 204 257 308 368
#     4   9  18  35  59  86 118 157 202 251 298 359
#     4  11  23  41  66  92 123 165 209 256 314 373
#     4   9  18  35  60  86 115 156 203 248 299 361
#
# _framework density 21.987698000000002
#
# number of rings (size 3 to 8) (size 9 to 14) (size 15 to 20)
#    0.000    1.667    0.000    7.000    0.000    2.000 
#    0.000    7.500    0.000    0.000    0.000    0.000 
#    0.000    0.000    0.000    0.000    0.000    0.000 
#
# Total GULP energy -134021.952133 kJ/mol
# GULP energy per Si atom -5584.248006 kJ/mol
# Density = 2.193765 g / cm^3
# Si number density = 21.987698 Si / 1000 Ang^3
#
#
#
# Elastic Constant Matrix: (Units=GPa)
#
#
# Indices 1 2 3 4 5 6 
#
# 1 81.6070 34.8506 35.7392 0.0000 10.9322 0.0000
# 2 34.8506 108.3809 76.8717 0.0000 3.4062 0.0000
# 3 35.7392 76.8717 222.7647 0.0000 45.5484 0.0000
# 4 0.0000 0.0000 0.0000 39.9021 0.0000 2.0150
# 5 10.9322 3.4062 45.5484 0.0000 29.3199 0.0000
# 6 0.0000 0.0000 0.0000 2.0150 0.0000 18.2151
#
#
#
# Elastic Compliance Matrix: (Units=1/GPa)
#
#
# Indices 1 2 3 4 5 6 
#
# 1 0.014932 -0.004975 0.000500 0.000000 -0.005767 0.000000
# 2 -0.004975 0.015121 -0.006506 0.000000 0.010206 0.000000
# 3 0.000500 -0.006506 0.009581 0.000000 -0.014315 0.000000
# 4 0.000000 0.000000 0.000000 0.025202 0.000000 -0.002788
# 5 -0.005767 0.010206 -0.014315 0.000000 0.057309 0.000000
# 6 0.000000 0.000000 0.000000 -0.002788 0.000000 0.055208
#
#
# Mechanical properties :
#
#
# Convention : Reuss Voigt Hill
#
# Bulk Modulus (GPa) = 56.59010 78.63062 67.61036
# Shear Modulus (GPa) = 24.36587 35.17348 29.76968
#
# Velocity S-wave (km/s) = 3.33251 4.00395 3.68356
# Velocity P-wave (km/s) = 6.37186 7.56401 6.99339
#
# Compressibility (1/GPa) = 0.01767094
#
# Stress axis : x y z
#
# Youngs Moduli (GPa) = 66.97073 66.13493 104.37422
#
# Poissons Ratio (x) = 0.32903 -0.05222
# Poissons Ratio (y) = 0.33319 0.67911
# Poissons Ratio (z) = -0.03351 0.43031
#
# Static dielectric constant tensor:
#      x y z
#    x 1.865020 0.000000 -0.010130 
#    y 0.000000 1.758580 0.000000 
#    z -0.010130 0.000000 1.881990 
# 
# From -- ./inp_files/252000.got.cif
#   From: 2010.05.17/outbox.cif.g08.bks.cpg/sg15_126_cif.got.tgz:252000.got - 2010.06.03 18:47:42.
