data_PCOD9302027
_publ_section_title
;
Structure prediction by ZEFSAII (Michael W. Deem and Ramdas Pophale) SiO2 
 PCOD9302027
Probable space group: C 2/C
;
_chemical_formula_sum "Si O2"
_cell_formula_units_Z 36
_cell_length_a 20.470571
_cell_length_b 18.342015
_cell_length_c 10.085270
_cell_angle_alpha 90.000000
_cell_angle_beta 151.847599
_cell_angle_gamma 90.000000
_cell_volume 1786.649866
_symmetry_space_group_name_H-M "C 2/C"
_symmetry_group_IT_number 15
_symmetry_cell_setting 'monoclinic'
loop_
_space_group_symop_operation_xyz
x,y,z
-x,y,1/2-z
-x,-y,-z
x,-y,1/2+z
1/2+x,1/2+y,z
1/2-x,1/2+y,1/2-z
1/2-x,1/2-y,-z
1/2+x,1/2-y,1/2+z
loop_
_atom_site_type_symbol
_atom_site_label
_atom_site_fract_x
_atom_site_fract_y
_atom_site_fract_z
Si Si1 0.142685 0.661017 0.776198
Si Si2 0.370940 0.451030 0.312512
Si Si3 0.500000 0.092182 0.750000
Si Si4 0.032092 0.803040 0.652801
Si Si5 0.195269 0.511845 0.755769
O O1 0.111663 0.638736 0.871323
O O2 0.041211 0.730332 0.577577
O O3 0.122871 0.589447 0.653393
O O4 0.306065 0.674880 0.057079
O O5 0.500000 0.500000 0.500000
O O6 0.429695 0.367857 0.422642
O O7 0.311833 0.472897 0.351491
O O8 0.258306 0.474420 0.000329
O O9 0.417274 0.042282 0.501993
O O10 0.000000 0.788356 0.750000
#
# Coordination Sequence:
#
# PCOD9302027 Si02
#       5
#     8   8   4   8   8
#     4  11  23  39  68  97 133 180 210 278 340 392
#     4  12  22  41  69 101 128 172 229 279 322 397
#     4  12  24  44  66  98 136 172 228 270 340 404
#     4  11  21  41  67  96 135 174 220 272 340 398
#     4  12  24  41  71  98 133 175 226 277 330 394
#
# _framework density 20.149443000000002
#
# number of rings (size 3 to 8) (size 9 to 14) (size 15 to 20)
#    0.000    0.444    7.778    1.333    0.000    0.000 
#    0.000    1.111   14.667    0.000    0.000    0.000 
#    0.000    0.000    0.000    0.000    0.000    0.000 
#
# Total GULP energy -100382.240881 kJ/mol
# GULP energy per Si atom -5576.791160 kJ/mol
# Density = 2.010358 g / cm^3
# Si number density = 20.149443 Si / 1000 Ang^3
#
#
#
# Elastic Constant Matrix: (Units=GPa)
#
#
# Indices 1 2 3 4 5 6 
#
# 1 153.1138 45.5730 12.9404 0.0000 24.7848 0.0000
# 2 45.5730 129.2325 26.4739 0.0000 2.4060 0.0000
# 3 12.9404 26.4739 47.9560 0.0000 -0.5341 0.0000
# 4 0.0000 0.0000 0.0000 3.9860 0.0000 6.5788
# 5 24.7848 2.4060 -0.5341 0.0000 32.5440 0.0000
# 6 0.0000 0.0000 0.0000 6.5788 0.0000 46.4873
#
#
#
# Elastic Compliance Matrix: (Units=1/GPa)
#
#
# Indices 1 2 3 4 5 6 
#
# 1 0.008406 -0.002672 -0.000863 0.000000 -0.006218 0.000000
# 2 -0.002672 0.009591 -0.004560 0.000000 0.001251 0.000000
# 3 -0.000863 -0.004560 0.023618 0.000000 0.001382 0.000000
# 4 0.000000 0.000000 0.000000 0.327332 0.000000 -0.046323
# 5 -0.006218 0.001251 0.001382 0.000000 0.035394 0.000000
# 6 0.000000 0.000000 0.000000 -0.046323 0.000000 0.028067
#
#
# Mechanical properties :
#
#
# Convention : Reuss Voigt Hill
#
# Bulk Modulus (GPa) = 39.32919 55.58630 47.45775
# Shear Modulus (GPa) = 10.93922 32.95780 21.94851
#
# Velocity S-wave (km/s) = 2.33256 4.04873 3.30401
# Velocity P-wave (km/s) = 5.17837 7.03585 6.17733
#
# Compressibility (1/GPa) = 0.02542641
#
# Stress axis : x y z
#
# Youngs Moduli (GPa) = 118.96568 104.26462 42.34098
#
# Poissons Ratio (x) = 0.27857 0.03652
# Poissons Ratio (y) = 0.31785 0.19307
# Poissons Ratio (z) = 0.10261 0.47542
#
# Static dielectric constant tensor:
#      x y z
#    x 1.728870 0.000000 0.005670 
#    y 0.000000 1.851870 0.000000 
#    z 0.005670 0.000000 1.653590 
# 
# From -- ./inp_files/50757.got.cif
#   From: 2010.05.17/outbox.cif.g08.bks.cpg/sg15_26_cif.got.tgz:50757.got - 2010.06.03 18:47:42.
