data_PCOD9302412
_publ_section_title
;
Structure prediction by ZEFSAII (Michael W. Deem and Ramdas Pophale) SiO2 
 PCOD9302412
Probable space group: C 2/C
;
_chemical_formula_sum "Si O2"
_cell_formula_units_Z 64
_cell_length_a 31.028804
_cell_length_b 18.572932
_cell_length_c 9.889132
_cell_angle_alpha 90.000000
_cell_angle_beta 38.157314
_cell_angle_gamma 90.000000
_cell_volume 3521.012574
_symmetry_space_group_name_H-M "C 2/C"
_symmetry_group_IT_number 15
_symmetry_cell_setting 'monoclinic'
loop_
_space_group_symop_operation_xyz
x,y,z
-x,y,1/2-z
-x,-y,-z
x,-y,1/2+z
1/2+x,1/2+y,z
1/2-x,1/2+y,1/2-z
1/2-x,1/2-y,-z
1/2+x,1/2-y,1/2+z
loop_
_atom_site_type_symbol
_atom_site_label
_atom_site_fract_x
_atom_site_fract_y
_atom_site_fract_z
Si Si1 0.109290 0.096229 0.000992
Si Si2 0.609469 0.564423 0.467121
Si Si3 0.270436 0.928736 0.174306
Si Si4 0.444837 0.321835 0.607359
Si Si5 0.774312 0.268626 0.090737
Si Si6 0.399312 0.334876 0.267488
Si Si7 0.773308 0.436500 0.484876
Si Si8 0.688023 0.776820 0.053040
O O1 0.067330 0.137732 0.219723
O O2 0.082904 0.016990 0.026534
O O3 0.186567 0.079580 0.867358
O O4 0.113498 0.143303 0.855694
O O5 0.567153 0.618432 0.477519
O O6 0.605307 0.593709 0.629733
O O7 0.689776 0.569572 0.217630
O O8 0.296262 0.851146 0.059463
O O9 0.285698 0.943206 0.293853
O O10 0.294492 0.993671 0.019007
O O11 0.525051 0.298974 0.404060
O O12 0.385829 0.260791 0.734181
O O13 0.711972 0.250338 0.347052
O O14 0.750000 0.250000 0.000000
O O15 0.838699 0.217356 0.966812
O O16 0.809821 0.363009 0.443408
O O17 0.750000 0.750000 0.000000
#
# Coordination Sequence:
#
# PCOD9302412 Si02
#       8
#     8   8   8   8   8   8   8   8
#     4  11  22  37  55  82 123 163 196 233 284 346
#     4  11  22  35  57  84 118 158 200 234 285 352
#     4  11  23  39  62  91 118 153 204 250 297 351
#     4  12  23  40  55  85 118 162 202 236 296 353
#     4  12  22  38  61  90 117 158 200 251 291 343
#     4  12  25  36  57  87 120 158 201 243 288 352
#     4  11  23  38  64  89 118 153 202 252 299 351
#     4  12  20  40  63  82 116 161 196 249 299 343
#
# _framework density 18.176589
#
# number of rings (size 3 to 8) (size 9 to 14) (size 15 to 20)
#    0.000    0.500    7.500    1.500    7.000    3.000 
#    0.000    0.000    0.000    0.750    0.000    0.000 
#    0.000    0.000    0.000    0.000    0.000    0.000 
#
# Total GULP energy -178874.970433 kJ/mol
# GULP energy per Si atom -5589.842826 kJ/mol
# Density = 1.813522 g / cm^3
# Si number density = 18.176589 Si / 1000 Ang^3
#
#
#
# Elastic Constant Matrix: (Units=GPa)
#
#
# Indices 1 2 3 4 5 6 
#
# 1 48.1273 26.4781 20.8506 0.0000 19.6040 0.0000
# 2 26.4781 113.0592 17.2322 0.0000 0.3136 0.0000
# 3 20.8506 17.2322 45.0547 0.0000 4.5964 0.0000
# 4 0.0000 0.0000 0.0000 16.2755 0.0000 12.4113
# 5 19.6040 0.3136 4.5964 0.0000 47.5583 0.0000
# 6 0.0000 0.0000 0.0000 12.4113 0.0000 17.5365
#
#
#
# Elastic Compliance Matrix: (Units=1/GPa)
#
#
# Indices 1 2 3 4 5 6 
#
# 1 0.034983 -0.006258 -0.012452 0.000000 -0.013176 0.000000
# 2 -0.006258 0.010516 -0.001396 0.000000 0.002645 0.000000
# 3 -0.012452 -0.001396 0.028245 0.000000 0.002412 0.000000
# 4 0.000000 0.000000 0.000000 0.133485 0.000000 -0.094473
# 5 -0.013176 0.002645 0.002412 0.000000 0.026207 0.000000
# 6 0.000000 0.000000 0.000000 -0.094473 0.000000 0.123886
#
#
# Mechanical properties :
#
#
# Convention : Reuss Voigt Hill
#
# Bulk Modulus (GPa) = 29.82162 37.26255 33.54208
# Shear Modulus (GPa) = 12.23356 25.71941 18.97649
#
# Velocity S-wave (km/s) = 2.59711 3.76570 3.23461
# Velocity P-wave (km/s) = 5.04337 6.28109 5.69595
#
# Compressibility (1/GPa) = 0.03353272
#
# Stress axis : x y z
#
# Youngs Moduli (GPa) = 28.58534 95.09293 35.40395
#
# Poissons Ratio (x) = 0.59514 0.44084
# Poissons Ratio (y) = 0.17890 0.04941
# Poissons Ratio (z) = 0.35594 0.13272
#
# Static dielectric constant tensor:
#      x y z
#    x 1.642290 0.000000 0.003240 
#    y 0.000000 1.632670 0.000000 
#    z 0.003240 0.000000 1.622370 
# 
# From -- ./inp_files/70578.got.cif
#   From: 2010.05.17/outbox.cif.g08.bks.cpg/sg15_36_cif.got.tgz:70578.got - 2010.06.03 18:47:42.
