data_PCOD9302654
_publ_section_title
;
Structure prediction by ZEFSAII (Michael W. Deem and Ramdas Pophale) SiO2 
 PCOD9302654
Probable space group: C 2/C
;
_chemical_formula_sum "Si O2"
_cell_formula_units_Z 40
_cell_length_a 9.197366
_cell_length_b 25.479022
_cell_length_c 8.024360
_cell_angle_alpha 90.000000
_cell_angle_beta 95.873496
_cell_angle_gamma 90.000000
_cell_volume 1870.555890
_symmetry_space_group_name_H-M "C 2/C"
_symmetry_group_IT_number 15
_symmetry_cell_setting 'monoclinic'
loop_
_space_group_symop_operation_xyz
x,y,z
-x,y,1/2-z
-x,-y,-z
x,-y,1/2+z
1/2+x,1/2+y,z
1/2-x,1/2+y,1/2-z
1/2-x,1/2-y,-z
1/2+x,1/2-y,1/2+z
loop_
_atom_site_type_symbol
_atom_site_label
_atom_site_fract_x
_atom_site_fract_y
_atom_site_fract_z
Si Si1 0.840975 0.968605 0.315839
Si Si2 0.835427 0.078281 0.185669
Si Si3 0.662836 0.828989 0.813429
Si Si4 0.823351 0.265335 0.187955
Si Si5 0.843808 0.374532 0.318249
O O1 0.840795 0.946279 0.502326
O O2 0.741174 0.928610 0.203695
O O3 0.000000 0.967481 0.250000
O O4 0.793653 0.029175 0.299045
O O5 0.726423 0.126400 0.197765
O O6 0.000000 0.096081 0.250000
O O7 0.500000 0.812686 0.750000
O O8 0.761982 0.777830 0.808026
O O9 0.653172 0.854820 0.992921
O O10 0.772744 0.325018 0.214013
O O11 0.000000 0.265952 0.250000
O O12 0.750000 0.250000 0.000000
O O13 0.000000 0.382763 0.250000
#
# Coordination Sequence:
#
# PCOD9302654 Si02
#       5
#     8   8   8   8   8
#     4  11  22  39  63  91 122 162 207 257 312 377
#     4  11  22  40  62  91 124 162 208 258 314 379
#     4  12  24  41  65  94 125 166 212 263 318 379
#     4  11  24  44  67  96 130 169 213 265 321 383
#     4  11  24  42  61  90 126 163 206 259 317 378
#
# _framework density 21.384018000000001
#
# number of rings (size 3 to 8) (size 9 to 14) (size 15 to 20)
#    0.000    0.800    0.000   10.800    0.000    3.200 
#    0.000    4.000    0.000    0.000    0.000    0.000 
#    0.000    0.000    0.000    0.000    0.000    0.000 
#
# Total GULP energy -111784.065154 kJ/mol
# GULP energy per Si atom -5589.203258 kJ/mol
# Density = 2.133535 g / cm^3
# Si number density = 21.384018 Si / 1000 Ang^3
#
#
#
# Elastic Constant Matrix: (Units=GPa)
#
#
# Indices 1 2 3 4 5 6 
#
# 1 73.5950 51.8932 4.0455 0.0000 -0.8561 0.0000
# 2 51.8932 97.1777 -25.6989 0.0000 -12.5043 0.0000
# 3 4.0455 -25.6989 87.4340 0.0000 -7.9031 0.0000
# 4 0.0000 0.0000 0.0000 47.0845 0.0000 41.3676
# 5 -0.8561 -12.5043 -7.9031 0.0000 28.8165 0.0000
# 6 0.0000 0.0000 0.0000 41.3676 0.0000 41.1608
#
#
#
# Elastic Compliance Matrix: (Units=1/GPa)
#
#
# Indices 1 2 3 4 5 6 
#
# 1 0.025453 -0.016436 -0.006752 0.000000 -0.008228 0.000000
# 2 -0.016436 0.022839 0.008537 0.000000 0.011763 0.000000
# 3 -0.006752 0.008537 0.014946 0.000000 0.007603 0.000000
# 4 0.000000 0.000000 0.000000 0.181521 0.000000 -0.182434
# 5 -0.008228 0.011763 0.007603 0.000000 0.041647 0.000000
# 6 0.000000 0.000000 0.000000 -0.182434 0.000000 0.207645
#
#
# Mechanical properties :
#
#
# Convention : Reuss Voigt Hill
#
# Bulk Modulus (GPa) = 29.46976 35.40958 32.43967
# Shear Modulus (GPa) = 9.35161 38.61014 23.98088
#
# Velocity S-wave (km/s) = 2.09348 4.25380 3.35242
# Velocity P-wave (km/s) = 4.43336 6.38132 5.49436
#
# Compressibility (1/GPa) = 0.03393308
#
# Stress axis : x y z
#
# Youngs Moduli (GPa) = 39.28814 43.78536 66.90778
#
# Poissons Ratio (x) = 0.71967 0.45179
# Poissons Ratio (y) = 0.64576 -0.57116
# Poissons Ratio (z) = 0.26529 -0.37378
#
# Static dielectric constant tensor:
#      x y z
#    x 1.758210 0.000000 0.016990 
#    y 0.000000 1.741570 0.000000 
#    z 0.016990 0.000000 1.861260 
# 
# From -- ./inp_files/23730.got.cif
#   From: 2010.05.17/outbox.cif.g08.bks.cpg/sg15_12_cif.got.tgz:23730.got - 2010.06.03 18:47:42.
