data_PCOD9302286
_publ_section_title
;
Structure prediction by ZEFSAII (Michael W. Deem and Ramdas Pophale) SiO2 
 PCOD9302286
Probable space group: C 2/C
;
_chemical_formula_sum "Si O2"
_cell_formula_units_Z 32
_cell_length_a 13.973920
_cell_length_b 7.374321
_cell_length_c 14.316766
_cell_angle_alpha 90.000000
_cell_angle_beta 131.870348
_cell_angle_gamma 90.000000
_cell_volume 1098.604903
_symmetry_space_group_name_H-M "C 2/C"
_symmetry_group_IT_number 15
_symmetry_cell_setting 'monoclinic'
loop_
_space_group_symop_operation_xyz
x,y,z
-x,y,1/2-z
-x,-y,-z
x,-y,1/2+z
1/2+x,1/2+y,z
1/2-x,1/2+y,1/2-z
1/2-x,1/2-y,-z
1/2+x,1/2-y,1/2+z
loop_
_atom_site_type_symbol
_atom_site_label
_atom_site_fract_x
_atom_site_fract_y
_atom_site_fract_z
Si Si1 0.497912 0.456985 0.891433
Si Si2 0.188728 0.876123 0.368592
Si Si3 0.127939 0.511530 0.768087
Si Si4 0.851990 0.664169 0.425506
O O1 0.366733 0.521184 0.760186
O O2 0.594344 0.564433 0.888613
O O3 0.500000 0.500000 0.000000
O O4 0.541111 0.251888 0.934828
O O5 0.196459 0.665655 0.358759
O O6 0.316792 0.985809 0.460646
O O7 0.109567 0.417325 0.651430
O O8 0.232776 0.682089 0.841565
O O9 0.000000 0.537784 0.750000
#
# Coordination Sequence:
#
# PCOD9302286 Si02
#       4
#     8   8   8   8
#     4  11  21  44  73 100 146 188 234 301 355 415
#     4  11  24  46  69 104 148 183 241 302 345 433
#     4  12  24  45  74 102 147 188 240 291 355 425
#     4  12  25  46  72 106 144 194 236 295 364 419
#
# _framework density 29.127849999999999
#
# number of rings (size 3 to 8) (size 9 to 14) (size 15 to 20)
#    0.000    0.500    7.500    0.750    3.500    1.000 
#    0.000    1.250    0.000    0.000    0.000    0.000 
#    0.000    0.000    0.000    0.000    0.000    0.000 
#
# Total GULP energy -89398.099545 kJ/mol
# GULP energy per Si atom -5587.381222 kJ/mol
# Density = 2.906155 g / cm^3
# Si number density = 29.127850 Si / 1000 Ang^3
#
#
#
# Elastic Constant Matrix: (Units=GPa)
#
#
# Indices 1 2 3 4 5 6 
#
# 1 135.8924 93.7958 46.4212 0.0000 1.2032 0.0000
# 2 93.7958 225.2919 51.9119 0.0000 -24.7078 0.0000
# 3 46.4212 51.9119 159.1359 0.0000 -20.5356 0.0000
# 4 0.0000 0.0000 0.0000 128.9774 0.0000 13.5171
# 5 1.2032 -24.7078 -20.5356 0.0000 49.8344 0.0000
# 6 0.0000 0.0000 0.0000 13.5171 0.0000 76.6501
#
#
#
# Elastic Compliance Matrix: (Units=1/GPa)
#
#
# Indices 1 2 3 4 5 6 
#
# 1 0.011316 -0.004572 -0.002257 0.000000 -0.003470 0.000000
# 2 -0.004572 0.006810 -0.000463 0.000000 0.003296 0.000000
# 3 -0.002257 -0.000463 0.007468 0.000000 0.002902 0.000000
# 4 0.000000 0.000000 0.000000 0.007899 0.000000 -0.001393
# 5 -0.003470 0.003296 0.002902 0.000000 0.022981 0.000000
# 6 0.000000 0.000000 0.000000 -0.001393 0.000000 0.013292
#
#
# Mechanical properties :
#
#
# Convention : Reuss Voigt Hill
#
# Bulk Modulus (GPa) = 90.82077 100.50868 95.66472
# Shear Modulus (GPa) = 56.80566 72.97180 64.88873
#
# Velocity S-wave (km/s) = 4.42092 5.01065 4.72499
# Velocity P-wave (km/s) = 7.57014 8.24963 7.91718
#
# Compressibility (1/GPa) = 0.01101070
#
# Stress axis : x y z
#
# Youngs Moduli (GPa) = 88.36987 146.84137 133.90625
#
# Poissons Ratio (x) = 0.67130 0.30229
# Poissons Ratio (y) = 0.40399 0.06194
# Poissons Ratio (z) = 0.19949 0.06793
#
# Static dielectric constant tensor:
#      x y z
#    x 2.378320 0.000000 0.057580 
#    y 0.000000 2.393060 0.000000 
#    z 0.057580 0.000000 2.512530 
# 
# From -- ./inp_files/202399.got.cif
#   From: 2010.05.17/outbox.cif.g08.bks.cpg/sg15_102_cif.got.tgz:202399.got - 2010.06.03 18:47:42.
