data_PCOD9302322
_publ_section_title
;
Structure prediction by ZEFSAII (Michael W. Deem and Ramdas Pophale) SiO2 
 PCOD9302322
Probable space group: C 2/C
;
_chemical_formula_sum "Si O2"
_cell_formula_units_Z 56
_cell_length_a 19.073517
_cell_length_b 8.886104
_cell_length_c 15.435281
_cell_angle_alpha 90.000000
_cell_angle_beta 93.854819
_cell_angle_gamma 90.000000
_cell_volume 2610.195598
_symmetry_space_group_name_H-M "C 2/C"
_symmetry_group_IT_number 15
_symmetry_cell_setting 'monoclinic'
loop_
_space_group_symop_operation_xyz
x,y,z
-x,y,1/2-z
-x,-y,-z
x,-y,1/2+z
1/2+x,1/2+y,z
1/2-x,1/2+y,1/2-z
1/2-x,1/2-y,-z
1/2+x,1/2-y,1/2+z
loop_
_atom_site_type_symbol
_atom_site_label
_atom_site_fract_x
_atom_site_fract_y
_atom_site_fract_z
Si Si1 0.364082 0.112364 0.789962
Si Si2 0.208580 0.108472 0.841747
Si Si3 0.222074 0.079427 0.512567
Si Si4 0.563922 0.613120 0.487803
Si Si5 0.423563 0.589575 0.215157
Si Si6 0.664164 0.060963 0.380485
Si Si7 0.924603 0.448839 0.963592
O O1 0.280237 0.141077 0.795374
O O2 0.403797 0.267131 0.771986
O O3 0.371212 0.003852 0.707822
O O4 0.397261 0.028632 0.875015
O O5 0.175035 0.261792 0.875235
O O6 0.235896 0.007649 0.924095
O O7 0.144099 0.020893 0.790344
O O8 0.250000 0.250000 0.500000
O O9 0.139816 0.049351 0.517891
O O10 0.259886 0.012755 0.598979
O O11 0.500000 0.500000 0.500000
O O12 0.567771 0.641666 0.384510
O O13 0.565863 0.769391 0.539740
O O14 0.500000 0.526965 0.250000
O O15 0.625339 0.000701 0.462260
O O16 0.000000 0.500000 0.000000
#
# Coordination Sequence:
#
# PCOD9302322 Si02
#       7
#     8   8   8   8   8   8   8
#     4  12  25  46  77 103 146 201 243 303 382 440
#     4  11  25  44  73 106 143 192 252 303 372 444
#     4  11  21  45  73 101 146 188 240 303 370 435
#     4  11  25  45  74 107 146 196 240 305 377 447
#     4  11  25  48  70 107 151 191 241 310 369 440
#     4  12  25  45  73 108 146 185 249 310 355 447
#     4  12  27  45  73 108 148 193 246 300 380 439
#
# _framework density 21.454332000000001
#
# number of rings (size 3 to 8) (size 9 to 14) (size 15 to 20)
#    0.000    0.571    4.286    3.000    4.000    4.571 
#    0.000    0.000    0.000    0.000    0.000    0.000 
#    0.000    0.000    0.000    0.000    0.000    0.000 
#
# Total GULP energy -156451.815275 kJ/mol
# GULP energy per Si atom -5587.564831 kJ/mol
# Density = 2.140550 g / cm^3
# Si number density = 21.454332 Si / 1000 Ang^3
#
#
#
# Elastic Constant Matrix: (Units=GPa)
#
#
# Indices 1 2 3 4 5 6 
#
# 1 145.9265 37.5349 51.4448 0.0000 15.8855 0.0000
# 2 37.5349 128.7957 41.3693 0.0000 -2.9917 0.0000
# 3 51.4448 41.3693 110.6710 0.0000 18.3125 0.0000
# 4 0.0000 0.0000 0.0000 18.3935 0.0000 2.7054
# 5 15.8855 -2.9917 18.3125 0.0000 35.5905 0.0000
# 6 0.0000 0.0000 0.0000 2.7054 0.0000 36.4797
#
#
#
# Elastic Compliance Matrix: (Units=1/GPa)
#
#
# Indices 1 2 3 4 5 6 
#
# 1 0.008582 -0.001597 -0.002991 0.000000 -0.002426 0.000000
# 2 -0.001597 0.009358 -0.003284 0.000000 0.003189 0.000000
# 3 -0.002991 -0.003284 0.012547 0.000000 -0.005397 0.000000
# 4 0.000000 0.000000 0.000000 0.054966 0.000000 -0.004076
# 5 -0.002426 0.003189 -0.005397 0.000000 0.032225 0.000000
# 6 0.000000 0.000000 0.000000 -0.004076 0.000000 0.027715
#
#
# Mechanical properties :
#
#
# Convention : Reuss Voigt Hill
#
# Bulk Modulus (GPa) = 67.82349 71.78791 69.80570
# Shear Modulus (GPa) = 30.11131 35.09569 32.60350
#
# Velocity S-wave (km/s) = 3.75041 4.04893 3.90252
# Velocity P-wave (km/s) = 7.10181 7.44257 7.27418
#
# Compressibility (1/GPa) = 0.01474415
#
# Stress axis : x y z
#
# Youngs Moduli (GPa) = 116.52312 106.85674 79.70300
#
# Poissons Ratio (x) = 0.17061 0.23840
# Poissons Ratio (y) = 0.18605 0.26172
# Poissons Ratio (z) = 0.34853 0.35088
#
# Static dielectric constant tensor:
#      x y z
#    x 1.553720 0.000000 -0.046330 
#    y 0.000000 1.723940 0.000000 
#    z -0.046330 0.000000 1.794100 
# 
# From -- ./inp_files/166649.got.cif
#   From: 2010.05.17/outbox.cif.g08.bks.cpg/sg15_84_cif.got.tgz:166649.got - 2010.06.03 18:47:42.
