data_PCOD9302121
_publ_section_title
;
Structure prediction by ZEFSAII (Michael W. Deem and Ramdas Pophale) SiO2 
 PCOD9302121
Probable space group: C 2/C
;
_chemical_formula_sum "Si O2"
_cell_formula_units_Z 56
_cell_length_a 31.513735
_cell_length_b 16.327097
_cell_length_c 11.263717
_cell_angle_alpha 90.000000
_cell_angle_beta 29.152794
_cell_angle_gamma 90.000000
_cell_volume 2823.219435
_symmetry_space_group_name_H-M "C 2/C"
_symmetry_group_IT_number 15
_symmetry_cell_setting 'monoclinic'
loop_
_space_group_symop_operation_xyz
x,y,z
-x,y,1/2-z
-x,-y,-z
x,-y,1/2+z
1/2+x,1/2+y,z
1/2-x,1/2+y,1/2-z
1/2-x,1/2-y,-z
1/2+x,1/2-y,1/2+z
loop_
_atom_site_type_symbol
_atom_site_label
_atom_site_fract_x
_atom_site_fract_y
_atom_site_fract_z
Si Si1 0.799970 0.619334 0.214157
Si Si2 0.758716 0.302550 0.133849
Si Si3 0.597719 0.572231 0.014565
Si Si4 0.914992 0.599401 0.136993
Si Si5 0.393538 0.089820 0.751283
Si Si6 0.344449 0.485359 0.866486
Si Si7 0.774957 0.669366 0.868143
O O1 0.763988 0.708521 0.335718
O O2 0.891378 0.600257 0.055962
O O3 0.731622 0.551097 0.421559
O O4 0.820014 0.613227 0.026319
O O5 0.674145 0.360016 0.319898
O O6 0.781752 0.308275 0.215357
O O7 0.842668 0.339729 0.865059
O O8 0.607103 0.516899 0.871565
O O9 0.500000 0.607610 0.250000
O O10 0.609965 0.528313 0.114887
O O11 0.897115 0.508092 0.229687
O O12 0.012683 0.620583 0.934452
O O13 0.363074 0.130072 0.703715
O O14 0.299417 0.399826 0.942071
O O15 0.750000 0.750000 0.000000
#
# Coordination Sequence:
#
# PCOD9302121 Si02
#       7
#     8   8   8   8   8   8   8
#     4  12  22  42  65  91 130 169 212 255 324 386
#     4  11  24  41  65  92 129 170 207 267 325 382
#     4  11  24  43  66  95 128 169 221 270 320 386
#     4  11  24  40  65  96 128 164 214 265 322 381
#     4  11  23  41  65  96 127 167 213 265 319 392
#     4  11  23  42  70  93 128 174 218 266 327 385
#     4  11  21  42  67  91 128 169 212 260 324 385
#
# _framework density 19.835512000000001
#
# number of rings (size 3 to 8) (size 9 to 14) (size 15 to 20)
#    0.000    0.857    4.286    3.857    0.000    1.714 
#    0.000    1.429    0.000    0.000    0.000    0.000 
#    0.000    0.000    0.000    0.000    0.000    0.000 
#
# Total GULP energy -156349.129504 kJ/mol
# GULP energy per Si atom -5583.897482 kJ/mol
# Density = 1.979037 g / cm^3
# Si number density = 19.835512 Si / 1000 Ang^3
#
#
#
# Elastic Constant Matrix: (Units=GPa)
#
#
# Indices 1 2 3 4 5 6 
#
# 1 100.9660 19.7987 42.0245 0.0000 1.6428 0.0000
# 2 19.7987 95.1541 33.5762 0.0000 7.5229 0.0000
# 3 42.0245 33.5762 75.1916 0.0000 -6.9052 0.0000
# 4 0.0000 0.0000 0.0000 5.4231 0.0000 -2.2113
# 5 1.6428 7.5229 -6.9052 0.0000 28.0108 0.0000
# 6 0.0000 0.0000 0.0000 -2.2113 0.0000 30.2959
#
#
#
# Elastic Compliance Matrix: (Units=1/GPa)
#
#
# Indices 1 2 3 4 5 6 
#
# 1 0.013096 0.000189 -0.007652 0.000000 -0.002705 0.000000
# 2 0.000189 0.013152 -0.006450 0.000000 -0.005133 0.000000
# 3 -0.007652 -0.006450 0.021135 0.000000 0.007391 0.000000
# 4 0.000000 0.000000 0.000000 0.190054 0.000000 0.013872
# 5 -0.002705 -0.005133 0.007391 0.000000 0.039060 0.000000
# 6 0.000000 0.000000 0.000000 0.013872 0.000000 0.034020
#
#
# Mechanical properties :
#
#
# Convention : Reuss Voigt Hill
#
# Bulk Modulus (GPa) = 51.13289 51.34561 51.23925
# Shear Modulus (GPa) = 14.49853 24.47344 19.48598
#
# Velocity S-wave (km/s) = 2.70652 3.51639 3.13769
# Velocity P-wave (km/s) = 5.96669 6.51372 6.24620
#
# Compressibility (1/GPa) = 0.01955688
#
# Stress axis : x y z
#
# Youngs Moduli (GPa) = 76.35688 76.03597 47.31426
#
# Poissons Ratio (x) = -0.01439 0.36207
# Poissons Ratio (y) = -0.01445 0.30517
# Poissons Ratio (z) = 0.58432 0.49043
#
# Static dielectric constant tensor:
#      x y z
#    x 1.749610 0.000000 0.023170 
#    y 0.000000 1.670480 0.000000 
#    z 0.023170 0.000000 1.680390 
# 
# From -- ./inp_files/98256.got.cif
#   From: 2010.05.17/outbox.cif.g08.bks.cpg/sg15_50_cif.got.tgz:98256.got - 2010.06.03 18:47:42.
