data_PCOD9302770
_publ_section_title
;
Structure prediction by ZEFSAII (Michael W. Deem and Ramdas Pophale) SiO2 
 PCOD9302770
Probable space group: C 2/C
;
_chemical_formula_sum "Si O2"
_cell_formula_units_Z 36
_cell_length_a 7.849330
_cell_length_b 11.643222
_cell_length_c 23.263746
_cell_angle_alpha 90.000000
_cell_angle_beta 37.618810
_cell_angle_gamma 90.000000
_cell_volume 1297.787732
_symmetry_space_group_name_H-M "C 2/C"
_symmetry_group_IT_number 15
_symmetry_cell_setting 'monoclinic'
loop_
_space_group_symop_operation_xyz
x,y,z
-x,y,1/2-z
-x,-y,-z
x,-y,1/2+z
1/2+x,1/2+y,z
1/2-x,1/2+y,1/2-z
1/2-x,1/2-y,-z
1/2+x,1/2-y,1/2+z
loop_
_atom_site_type_symbol
_atom_site_label
_atom_site_fract_x
_atom_site_fract_y
_atom_site_fract_z
Si Si1 0.219985 0.565631 0.144074
Si Si2 0.273638 0.903602 0.571994
Si Si3 0.500000 0.497732 0.750000
Si Si4 0.109780 0.794141 0.305028
Si Si5 0.248093 0.673837 0.605895
O O1 0.508305 0.582919 0.100717
O O2 0.234024 0.460746 0.094462
O O3 0.000000 0.517922 0.250000
O O4 0.073362 0.683743 0.163348
O O5 0.381459 0.773511 0.531963
O O6 0.500000 0.000000 0.500000
O O7 0.207694 0.916185 0.658609
O O8 0.454814 0.589288 0.711465
O O9 0.091456 0.821152 0.376823
O O10 0.433020 0.779871 0.199684
#
# Coordination Sequence:
#
# PCOD9302770 Si02
#       5
#     8   8   4   8   8
#     4  12  22  44  73 106 146 190 248 297 367 444
#     4  12  28  47  73 111 151 197 252 303 367 440
#     4  12  22  46  76  98 148 196 238 306 370 438
#     4  11  22  39  76 108 133 196 246 290 373 437
#     4  11  23  41  71 107 145 188 239 306 359 436
#
# _framework density 27.739512000000001
#
# number of rings (size 3 to 8) (size 9 to 14) (size 15 to 20)
#    0.000    0.444    7.778    1.333    3.111    0.889 
#    0.000    5.556    0.000    0.000    0.000    0.000 
#    0.000    0.000    0.000    0.000    0.000    0.000 
#
# Total GULP energy -100744.971134 kJ/mol
# GULP energy per Si atom -5596.942841 kJ/mol
# Density = 2.767638 g / cm^3
# Si number density = 27.739512 Si / 1000 Ang^3
#
#
#
# Elastic Constant Matrix: (Units=GPa)
#
#
# Indices 1 2 3 4 5 6 
#
# 1 140.8622 58.2949 26.0634 -0.0009 -25.9789 0.0008
# 2 58.2949 177.1960 38.7550 -0.0010 -2.8262 0.0011
# 3 26.0634 38.7550 118.3928 -0.0016 -5.2896 0.0009
# 4 -0.0009 -0.0010 -0.0016 31.5214 0.0002 0.2489
# 5 -25.9789 -2.8262 -5.2896 0.0002 31.1493 0.0001
# 6 0.0008 0.0011 0.0009 0.2489 0.0001 61.9178
#
#
#
# Elastic Compliance Matrix: (Units=1/GPa)
#
#
# Indices 1 2 3 4 5 6 
#
# 1 0.009933 -0.002952 -0.000869 0.000000 0.007869 0.000000
# 2 -0.002952 0.006958 -0.001722 0.000000 -0.002123 0.000000
# 3 -0.000869 -0.001722 0.009232 0.000000 0.000687 0.000000
# 4 0.000000 0.000000 0.000000 0.031726 0.000000 -0.000128
# 5 0.007869 -0.002123 0.000687 0.000000 0.038590 0.000000
# 6 0.000000 0.000000 0.000000 -0.000128 0.000000 0.016151
#
#
# Mechanical properties :
#
#
# Convention : Reuss Voigt Hill
#
# Bulk Modulus (GPa) = 66.50781 75.85304 71.18043
# Shear Modulus (GPa) = 38.85365 45.80687 42.33026
#
# Velocity S-wave (km/s) = 3.74660 4.06805 3.91063
# Velocity P-wave (km/s) = 6.53788 7.03346 6.79019
#
# Compressibility (1/GPa) = 0.01503583
#
# Stress axis : x y z
#
# Youngs Moduli (GPa) = 100.67597 143.72819 108.31624
#
# Poissons Ratio (x) = 0.42432 0.09409
# Poissons Ratio (y) = 0.29722 0.18657
# Poissons Ratio (z) = 0.08746 0.24757
#
# Static dielectric constant tensor:
#      x y z
#    x 2.144750 0.000000 -0.006060 
#    y 0.000000 2.305920 0.000000 
#    z -0.006060 0.000000 2.260840 
# 
# From -- ./inp_files/287478.got.cif
#   From: 2010.05.17/outbox.cif.g08.bks.cpg/sg15_144_cif.got.tgz:287478.got - 2010.06.03 18:47:42.
