data_PCOD9302629
_publ_section_title
;
Structure prediction by ZEFSAII (Michael W. Deem and Ramdas Pophale) SiO2 
 PCOD9302629
Probable space group: C 2/C
;
_chemical_formula_sum "Si O2"
_cell_formula_units_Z 32
_cell_length_a 5.014724
_cell_length_b 28.386591
_cell_length_c 10.352357
_cell_angle_alpha 90.000000
_cell_angle_beta 68.073391
_cell_angle_gamma 90.000000
_cell_volume 1367.066747
_symmetry_space_group_name_H-M "C 2/C"
_symmetry_group_IT_number 15
_symmetry_cell_setting 'monoclinic'
loop_
_space_group_symop_operation_xyz
x,y,z
-x,y,1/2-z
-x,-y,-z
x,-y,1/2+z
1/2+x,1/2+y,z
1/2-x,1/2+y,1/2-z
1/2-x,1/2-y,-z
1/2+x,1/2-y,1/2+z
loop_
_atom_site_type_symbol
_atom_site_label
_atom_site_fract_x
_atom_site_fract_y
_atom_site_fract_z
Si Si1 0.808398 0.734458 0.664512
Si Si2 0.819759 0.523037 0.918771
Si Si3 0.595046 0.607658 0.104361
Si Si4 0.107255 0.331084 0.565013
O O1 0.500000 0.712946 0.750000
O O2 0.957497 0.692514 0.561624
O O3 0.726901 0.783416 0.610338
O O4 0.000000 0.746928 0.750000
O O5 0.000000 0.518447 0.750000
O O6 0.500000 0.500000 0.000000
O O7 0.779338 0.577221 0.970535
O O8 0.000000 0.500000 0.000000
O O9 0.500000 0.578085 0.250000
O O10 0.344161 0.630614 0.062406
O O11 0.800303 0.644998 0.142884
#
# Coordination Sequence:
#
# PCOD9302629 Si02
#       4
#     8   8   8   8
#     4  11  22  39  61  88 131 180 231 288 342 398
#     4  12  27  50  78 109 144 183 230 287 357 429
#     4  12  24  42  69 100 137 179 229 285 346 417
#     4  11  24  39  62  95 131 180 232 282 343 408
#
# _framework density 23.407781
#
# number of rings (size 3 to 8) (size 9 to 14) (size 15 to 20)
#    0.000    0.500    0.000    9.750    0.000    7.000 
#    0.000    0.000    0.000    0.000    0.000    0.000 
#    0.000    0.000    0.000    0.000    0.000    0.000 
#
# Total GULP energy -89094.838886 kJ/mol
# GULP energy per Si atom -5568.427430 kJ/mol
# Density = 2.335450 g / cm^3
# Si number density = 23.407781 Si / 1000 Ang^3
#
#
#
# Elastic Constant Matrix: (Units=GPa)
#
#
# Indices 1 2 3 4 5 6 
#
# 1 168.9810 24.3686 26.2570 0.0000 0.7569 0.0000
# 2 24.3686 55.0556 38.9047 0.0000 2.1282 0.0000
# 3 26.2570 38.9047 136.7154 0.0000 -3.7367 0.0000
# 4 0.0000 0.0000 0.0000 32.3878 0.0000 -8.9933
# 5 0.7569 2.1282 -3.7367 0.0000 28.6589 0.0000
# 6 0.0000 0.0000 0.0000 -8.9933 0.0000 34.6553
#
#
#
# Elastic Compliance Matrix: (Units=1/GPa)
#
#
# Indices 1 2 3 4 5 6 
#
# 1 0.006351 -0.002436 -0.000528 0.000000 -0.000056 0.000000
# 2 -0.002436 0.023855 -0.006390 0.000000 -0.002540 0.000000
# 3 -0.000528 -0.006390 0.009281 0.000000 0.001699 0.000000
# 4 0.000000 0.000000 0.000000 0.033273 0.000000 0.008635
# 5 -0.000056 -0.002540 0.001699 0.000000 0.035305 0.000000
# 6 0.000000 0.000000 0.000000 0.008635 0.000000 0.031096
#
#
# Mechanical properties :
#
#
# Convention : Reuss Voigt Hill
#
# Bulk Modulus (GPa) = 48.12493 59.97920 54.05206
# Shear Modulus (GPa) = 30.34043 37.22185 33.78114
#
# Velocity S-wave (km/s) = 3.60414 3.99199 3.80301
# Velocity P-wave (km/s) = 6.15823 6.85035 6.51349
#
# Compressibility (1/GPa) = 0.02077925
#
# Stress axis : x y z
#
# Youngs Moduli (GPa) = 157.44512 41.91944 107.75015
#
# Poissons Ratio (x) = 0.10211 0.05691
# Poissons Ratio (y) = 0.38351 0.68853
# Poissons Ratio (z) = 0.08316 0.26787
#
# Static dielectric constant tensor:
#      x y z
#    x 1.881370 0.000000 -0.037670 
#    y 0.000000 1.872580 0.000000 
#    z -0.037670 0.000000 2.183090 
# 
# From -- ./inp_files/72858.got.cif
#   From: 2010.05.17/outbox.cif.g08.bks.cpg/sg15_37_cif.got.tgz:72858.got - 2010.06.03 18:47:42.
