data_PCOD9302408
_publ_section_title
;
Structure prediction by ZEFSAII (Michael W. Deem and Ramdas Pophale) SiO2 
 PCOD9302408
Probable space group: C 2/C
;
_chemical_formula_sum "Si O2"
_cell_formula_units_Z 48
_cell_length_a 15.187657
_cell_length_b 18.480649
_cell_length_c 14.599091
_cell_angle_alpha 90.000000
_cell_angle_beta 140.975181
_cell_angle_gamma 90.000000
_cell_volume 2580.107674
_symmetry_space_group_name_H-M "C 2/C"
_symmetry_group_IT_number 15
_symmetry_cell_setting 'monoclinic'
loop_
_space_group_symop_operation_xyz
x,y,z
-x,y,1/2-z
-x,-y,-z
x,-y,1/2+z
1/2+x,1/2+y,z
1/2-x,1/2+y,1/2-z
1/2-x,1/2-y,-z
1/2+x,1/2-y,1/2+z
loop_
_atom_site_type_symbol
_atom_site_label
_atom_site_fract_x
_atom_site_fract_y
_atom_site_fract_z
Si Si1 0.370145 0.518465 0.329953
Si Si2 0.000000 0.992569 0.250000
Si Si3 0.493506 0.218549 0.445930
Si Si4 0.714699 0.668958 0.161875
Si Si5 0.607814 0.934331 0.064329
Si Si6 0.000000 0.765712 0.250000
Si Si7 0.728219 0.379168 0.469732
O O1 0.500000 0.500000 0.500000
O O2 0.422561 0.532804 0.268882
O O3 0.296397 0.590176 0.305408
O O4 0.254424 0.455037 0.230773
O O5 0.111327 0.940983 0.391051
O O6 0.568433 0.289227 0.544430
O O7 0.327433 0.215708 0.307561
O O8 0.545675 0.144814 0.535657
O O9 0.533816 0.222433 0.369736
O O10 0.763528 0.655210 0.096280
O O11 0.654663 0.919677 0.995983
O O12 0.500000 0.000000 0.000000
O O13 0.135516 0.817923 0.341586
#
# Coordination Sequence:
#
# PCOD9302408 Si02
#       7
#     8   4   8   8   8   4   8
#     4  11  22  39  61  86 114 157 205 243 301 350
#     4   9  18  34  60  86 113 150 200 256 285 354
#     4  11  22  35  55  86 120 158 189 241 302 362
#     4  11  22  37  58  90 118 158 197 244 304 366
#     4  11  22  37  53  84 122 154 193 243 294 356
#     4   9  18  34  56  88 121 158 194 236 309 378
#     4   9  18  33  57  85 120 154 193 239 300 362
#
# _framework density 18.603874999999999
#
# number of rings (size 3 to 8) (size 9 to 14) (size 15 to 20)
#    0.000    1.667    3.333    2.000    4.667    2.667 
#    0.000    0.000    0.000    1.000    4.333    0.000 
#    0.000    0.000    0.000    0.000    0.000    0.000 
#
# Total GULP energy -133726.934702 kJ/mol
# GULP energy per Si atom -5571.955613 kJ/mol
# Density = 1.856153 g / cm^3
# Si number density = 18.603875 Si / 1000 Ang^3
#
#
#
# Elastic Constant Matrix: (Units=GPa)
#
#
# Indices 1 2 3 4 5 6 
#
# 1 49.0281 19.7031 20.1617 0.0000 3.8185 0.0000
# 2 19.7031 74.1619 22.3668 0.0000 -11.0869 0.0000
# 3 20.1617 22.3668 90.9237 0.0000 3.1247 0.0000
# 4 0.0000 0.0000 0.0000 36.2484 0.0000 0.6543
# 5 3.8185 -11.0869 3.1247 0.0000 16.6604 0.0000
# 6 0.0000 0.0000 0.0000 0.6543 0.0000 36.8992
#
#
#
# Elastic Compliance Matrix: (Units=1/GPa)
#
#
# Indices 1 2 3 4 5 6 
#
# 1 0.025527 -0.007205 -0.003545 0.000000 -0.009980 0.000000
# 2 -0.007205 0.018653 -0.003497 0.000000 0.014720 0.000000
# 3 -0.003545 -0.003497 0.012779 0.000000 -0.003911 0.000000
# 4 0.000000 0.000000 0.000000 0.027596 0.000000 -0.000489
# 5 -0.009980 0.014720 -0.003911 0.000000 0.072840 0.000000
# 6 0.000000 0.000000 0.000000 -0.000489 0.000000 0.027110
#
#
# Mechanical properties :
#
#
# Convention : Reuss Voigt Hill
#
# Bulk Modulus (GPa) = 35.12987 37.61966 36.37476
# Shear Modulus (GPa) = 22.47320 28.08707 25.28013
#
# Velocity S-wave (km/s) = 3.47938 3.88976 3.69028
# Velocity P-wave (km/s) = 5.92161 6.35916 6.14428
#
# Compressibility (1/GPa) = 0.02846581
#
# Stress axis : x y z
#
# Youngs Moduli (GPa) = 39.17420 53.60938 78.25351
#
# Poissons Ratio (x) = 0.38624 0.27742
# Poissons Ratio (y) = 0.28224 0.27365
# Poissons Ratio (z) = 0.13888 0.18747
#
# Static dielectric constant tensor:
#      x y z
#    x 1.671200 0.000000 0.041900 
#    y 0.000000 1.638620 0.000000 
#    z 0.041900 0.000000 1.698520 
# 
# From -- ./inp_files/155098.got.cif
#   From: 2010.05.17/outbox.cif.g08.bks.cpg/sg15_78_cif.got.tgz:155098.got - 2010.06.03 18:47:42.
