data_PCOD9302230
_publ_section_title
;
Structure prediction by ZEFSAII (Michael W. Deem and Ramdas Pophale) SiO2 
 PCOD9302230
Probable space group: C 2/C
;
_chemical_formula_sum "Si O2"
_cell_formula_units_Z 40
_cell_length_a 11.476334
_cell_length_b 12.439775
_cell_length_c 12.291024
_cell_angle_alpha 90.000000
_cell_angle_beta 106.275102
_cell_angle_gamma 90.000000
_cell_volume 1684.387669
_symmetry_space_group_name_H-M "C 2/C"
_symmetry_group_IT_number 15
_symmetry_cell_setting 'monoclinic'
loop_
_space_group_symop_operation_xyz
x,y,z
-x,y,1/2-z
-x,-y,-z
x,-y,1/2+z
1/2+x,1/2+y,z
1/2-x,1/2+y,1/2-z
1/2-x,1/2-y,-z
1/2+x,1/2-y,1/2+z
loop_
_atom_site_type_symbol
_atom_site_label
_atom_site_fract_x
_atom_site_fract_y
_atom_site_fract_z
Si Si1 0.258046 0.693843 0.856310
Si Si2 0.630199 0.391319 0.746987
Si Si3 0.138925 0.481342 0.801431
Si Si4 0.011233 0.871360 0.491995
Si Si5 0.331780 0.261042 0.128503
O O1 0.170088 0.796202 0.838177
O O2 0.197659 0.582394 0.878104
O O3 0.386259 0.694396 0.950362
O O4 0.285698 0.696801 0.732777
O O5 0.500000 0.438045 0.750000
O O6 0.753961 0.459666 0.761314
O O7 0.594741 0.344339 0.618106
O O8 0.124135 0.361760 0.844967
O O9 0.000000 0.517108 0.750000
O O10 0.070508 0.843598 0.392274
O O11 0.000000 0.000000 0.500000
O O12 0.250000 0.250000 0.000000
#
# Coordination Sequence:
#
# PCOD9302230 Si02
#       5
#     8   8   8   8   8
#     4  11  23  42  70 101 147 185 239 311 357 438
#     4  11  25  45  69 104 143 187 245 300 368 431
#     4  11  23  44  68 100 141 190 235 295 373 428
#     4  12  23  42  73 107 143 195 246 296 371 446
#     4  11  21  43  71 102 142 191 242 295 364 443
#
# _framework density 23.747502999999998
#
# number of rings (size 3 to 8) (size 9 to 14) (size 15 to 20)
#    0.000    0.800    6.000    3.600    2.800    0.800 
#    0.000    1.000    0.000    0.000    0.000    0.000 
#    0.000    0.000    0.000    0.000    0.000    0.000 
#
# Total GULP energy -111343.708097 kJ/mol
# GULP energy per Si atom -5567.185405 kJ/mol
# Density = 2.369345 g / cm^3
# Si number density = 23.747503 Si / 1000 Ang^3
#
#
#
# Elastic Constant Matrix: (Units=GPa)
#
#
# Indices 1 2 3 4 5 6 
#
# 1 144.8095 -1.1852 41.3643 0.0000 -0.5245 0.0000
# 2 -1.1852 82.3739 7.8121 0.0000 11.1127 0.0000
# 3 41.3643 7.8121 118.0381 0.0000 -9.2076 0.0000
# 4 0.0000 0.0000 0.0000 23.4551 0.0000 18.1857
# 5 -0.5245 11.1127 -9.2076 0.0000 38.4098 0.0000
# 6 0.0000 0.0000 0.0000 18.1857 0.0000 14.1656
#
#
#
# Elastic Compliance Matrix: (Units=1/GPa)
#
#
# Indices 1 2 3 4 5 6 
#
# 1 0.007702 0.000469 -0.002785 0.000000 -0.000698 0.000000
# 2 0.000469 0.012814 -0.001326 0.000000 -0.004019 0.000000
# 3 -0.002785 -0.001326 0.009745 0.000000 0.002682 0.000000
# 4 0.000000 0.000000 0.000000 9.221015 0.000000-11.837868
# 5 -0.000698 -0.004019 0.002682 0.000000 0.027831 0.000000
# 6 0.000000 0.000000 0.000000-11.837868 0.000000 15.267957
#
#
# Mechanical properties :
#
#
# Convention : Reuss Voigt Hill
#
# Bulk Modulus (GPa) = 43.51928 49.02265 46.27096
# Shear Modulus (GPa) = 0.20357 35.02146 17.61251
#
# Velocity S-wave (km/s) = 0.29310 3.84440 2.72629
# Velocity P-wave (km/s) = 4.29886 6.35563 5.42560
#
# Compressibility (1/GPa) = 0.02297832
#
# Stress axis : x y z
#
# Youngs Moduli (GPa) = 129.83033 78.03697 102.62089
#
# Poissons Ratio (x) = -0.03661 0.28576
# Poissons Ratio (y) = -0.06090 0.13607
# Poissons Ratio (z) = 0.36153 0.10347
#
# Static dielectric constant tensor:
#      x y z
#    x 2.101760 0.000000 -0.092820 
#    y 0.000000 1.894040 0.000000 
#    z -0.092820 0.000000 1.788130 
# 
# From -- ./inp_files/142344.got.cif
#   From: 2010.05.17/outbox.cif.g08.bks.cpg/sg15_72_cif.got.tgz:142344.got - 2010.06.03 18:47:42.
