data_PCOD9302241
_publ_section_title
;
Structure prediction by ZEFSAII (Michael W. Deem and Ramdas Pophale) SiO2 
 PCOD9302241
Probable space group: C 2/C
;
_chemical_formula_sum "Si O2"
_cell_formula_units_Z 56
_cell_length_a 9.250215
_cell_length_b 18.908766
_cell_length_c 12.790435
_cell_angle_alpha 90.000000
_cell_angle_beta 101.290458
_cell_angle_gamma 90.000000
_cell_volume 2193.881452
_symmetry_space_group_name_H-M "C 2/C"
_symmetry_group_IT_number 15
_symmetry_cell_setting 'monoclinic'
loop_
_space_group_symop_operation_xyz
x,y,z
-x,y,1/2-z
-x,-y,-z
x,-y,1/2+z
1/2+x,1/2+y,z
1/2-x,1/2+y,1/2-z
1/2-x,1/2-y,-z
1/2+x,1/2-y,1/2+z
loop_
_atom_site_type_symbol
_atom_site_label
_atom_site_fract_x
_atom_site_fract_y
_atom_site_fract_z
Si Si1 0.222079 0.618411 0.658299
Si Si2 0.987355 0.189855 0.575855
Si Si3 0.671224 0.003021 0.811728
Si Si4 0.261582 0.382950 0.695068
Si Si5 0.621667 0.556299 0.485174
Si Si6 0.689508 0.774947 0.321416
Si Si7 0.019959 0.664941 0.998521
O O1 0.365297 0.649806 0.624750
O O2 0.251874 0.555071 0.740699
O O3 0.141250 0.677064 0.718755
O O4 0.095691 0.606215 0.555065
O O5 0.055986 0.132343 0.507508
O O6 0.133596 0.214506 0.657488
O O7 0.933229 0.263684 0.519484
O O8 0.500000 0.008158 0.750000
O O9 0.729827 0.033875 0.930102
O O10 0.724253 0.923027 0.796628
O O11 0.350045 0.436191 0.632960
O O12 0.337913 0.306687 0.707680
O O13 0.113862 0.366615 0.606842
O O14 0.500000 0.500000 0.500000
O O15 0.631547 0.804807 0.424256
#
# Coordination Sequence:
#
# PCOD9302241 Si02
#       7
#     8   8   8   8   8   8   8
#     4  12  24  39  69 104 140 181 242 296 363 431
#     4  11  22  41  66  98 138 177 238 293 360 423
#     4  12  28  47  69 104 146 192 245 296 370 444
#     4  11  24  45  72  98 141 193 242 295 361 432
#     4  12  25  45  71 100 146 194 236 301 369 431
#     4  11  21  43  72  95 138 189 235 295 362 429
#     4  11  22  43  70 100 138 189 233 298 363 426
#
# _framework density 25.525538000000001
#
# number of rings (size 3 to 8) (size 9 to 14) (size 15 to 20)
#    0.000    0.571    4.286    4.714    0.000    8.571 
#    2.571    0.000    0.000    0.000    0.000    0.000 
#    0.000    0.000    0.000    0.000    0.000    0.000 
#
# Total GULP energy -156682.264305 kJ/mol
# GULP energy per Si atom -5595.795154 kJ/mol
# Density = 2.546744 g / cm^3
# Si number density = 25.525538 Si / 1000 Ang^3
#
#
#
# Elastic Constant Matrix: (Units=GPa)
#
#
# Indices 1 2 3 4 5 6 
#
# 1 106.1196 -4.6627 2.9544 0.0000 -6.0570 0.0000
# 2 -4.6627 96.0762 11.8176 0.0000 -11.5361 0.0000
# 3 2.9544 11.8176 26.7450 0.0000 -9.6141 0.0000
# 4 0.0000 0.0000 0.0000 25.2106 0.0000 -12.0968
# 5 -6.0570 -11.5361 -9.6141 0.0000 40.2414 0.0000
# 6 0.0000 0.0000 0.0000 -12.0968 0.0000 27.8931
#
#
#
# Elastic Compliance Matrix: (Units=1/GPa)
#
#
# Indices 1 2 3 4 5 6 
#
# 1 0.009563 0.000744 -0.000865 0.000000 0.001446 0.000000
# 2 0.000744 0.011242 -0.004213 0.000000 0.002328 0.000000
# 3 -0.000865 -0.004213 0.042518 0.000000 0.008820 0.000000
# 4 0.000000 0.000000 0.000000 0.050089 0.000000 0.021723
# 5 0.001446 0.002328 0.008820 0.000000 0.027842 0.000000
# 6 0.000000 0.000000 0.000000 0.021723 0.000000 0.045272
#
#
# Mechanical properties :
#
#
# Convention : Reuss Voigt Hill
#
# Bulk Modulus (GPa) = 18.29666 27.68437 22.99052
# Shear Modulus (GPa) = 23.42880 33.25778 28.34329
#
# Velocity S-wave (km/s) = 3.03290 3.61352 3.33587
# Velocity P-wave (km/s) = 4.41001 5.31783 4.88505
#
# Compressibility (1/GPa) = 0.05465478
#
# Stress axis : x y z
#
# Youngs Moduli (GPa) = 104.57352 88.94996 23.51955
#
# Poissons Ratio (x) = -0.06619 0.02035
# Poissons Ratio (y) = -0.07782 0.09908
# Poissons Ratio (z) = 0.09050 0.37472
#
# Static dielectric constant tensor:
#      x y z
#    x 2.048560 0.000000 0.043230 
#    y 0.000000 2.041830 0.000000 
#    z 0.043230 0.000000 2.050240 
# 
# From -- ./inp_files/136426.got.cif
#   From: 2010.05.17/outbox.cif.g08.bks.cpg/sg15_69_cif.got.tgz:136426.got - 2010.06.03 18:47:42.
