data_PCOD9302049
_publ_section_title
;
Structure prediction by ZEFSAII (Michael W. Deem and Ramdas Pophale) SiO2 
 PCOD9302049
Probable space group: C 2/C
;
_chemical_formula_sum "Si O2"
_cell_formula_units_Z 52
_cell_length_a 15.553061
_cell_length_b 16.463282
_cell_length_c 15.258535
_cell_angle_alpha 90.000000
_cell_angle_beta 40.274841
_cell_angle_gamma 90.000000
_cell_volume 2525.708997
_symmetry_space_group_name_H-M "C 2/C"
_symmetry_group_IT_number 15
_symmetry_cell_setting 'monoclinic'
loop_
_space_group_symop_operation_xyz
x,y,z
-x,y,1/2-z
-x,-y,-z
x,-y,1/2+z
1/2+x,1/2+y,z
1/2-x,1/2+y,1/2-z
1/2-x,1/2-y,-z
1/2+x,1/2-y,1/2+z
loop_
_atom_site_type_symbol
_atom_site_label
_atom_site_fract_x
_atom_site_fract_y
_atom_site_fract_z
Si Si1 0.000000 0.836757 0.750000
Si Si2 0.807377 0.727183 0.551469
Si Si3 0.732820 0.922062 0.010492
Si Si4 0.402872 0.267050 0.128286
Si Si5 0.868352 0.461302 0.056787
Si Si6 0.023954 0.307559 0.104655
Si Si7 0.256836 0.915874 0.305328
O O1 0.128257 0.891013 0.633853
O O2 0.982335 0.777753 0.679572
O O3 0.750000 0.750000 0.500000
O O4 0.700192 0.748399 0.711630
O O5 0.850247 0.632300 0.536893
O O6 0.947074 0.773090 0.454175
O O7 0.632368 0.845487 0.085922
O O8 0.748615 0.954954 0.095939
O O9 0.664078 0.985824 0.001598
O O10 0.356901 0.350104 0.118844
O O11 0.408064 0.203577 0.043363
O O12 0.760286 0.471944 0.218070
O O13 0.000000 0.500000 0.000000
O O14 0.896082 0.364958 0.193321
#
# Coordination Sequence:
#
# PCOD9302049 Si02
#       7
#     4   8   8   8   8   8   8
#     4  12  24  36  66 104 130 170 220 270 360 412
#     4  11  25  47  71 102 134 186 241 289 347 421
#     4  12  24  41  64  99 139 178 226 281 351 418
#     4  11  21  41  69 100 136 171 229 289 346 404
#     4  11  24  46  66  94 138 183 230 285 347 423
#     4  12  20  38  67 101 133 169 220 288 336 415
#     4  11  22  41  68  97 134 175 222 290 342 397
#
# _framework density 20.588280000000001
#
# number of rings (size 3 to 8) (size 9 to 14) (size 15 to 20)
#    0.000    0.615    7.692    1.846    0.000    0.000 
#   13.846    0.769    0.000    0.000    0.000    0.000 
#    0.000    0.000    0.000    0.000    0.000    0.000 
#
# Total GULP energy -145092.274762 kJ/mol
# GULP energy per Si atom -5580.472106 kJ/mol
# Density = 2.054142 g / cm^3
# Si number density = 20.588280 Si / 1000 Ang^3
#
#
#
# Elastic Constant Matrix: (Units=GPa)
#
#
# Indices 1 2 3 4 5 6 
#
# 1 123.9428 29.0514 50.9695 0.0000 15.4793 0.0000
# 2 29.0514 47.6011 33.5793 0.0000 8.4813 0.0000
# 3 50.9695 33.5793 117.4243 0.0000 12.1651 0.0000
# 4 0.0000 0.0000 0.0000 18.3957 0.0000 8.3393
# 5 15.4793 8.4813 12.1651 0.0000 47.9770 0.0000
# 6 0.0000 0.0000 0.0000 8.3393 0.0000 30.9083
#
#
#
# Elastic Compliance Matrix: (Units=1/GPa)
#
#
# Indices 1 2 3 4 5 6 
#
# 1 0.010547 -0.003768 -0.003304 0.000000 -0.001899 0.000000
# 2 -0.003768 0.028039 -0.006157 0.000000 -0.002180 0.000000
# 3 -0.003304 -0.006157 0.011798 0.000000 -0.000837 0.000000
# 4 0.000000 0.000000 0.000000 0.061936 0.000000 -0.016711
# 5 -0.001899 -0.002180 -0.000837 0.000000 0.022054 0.000000
# 6 0.000000 0.000000 0.000000 -0.016711 0.000000 0.036862
#
#
# Mechanical properties :
#
#
# Convention : Reuss Voigt Hill
#
# Bulk Modulus (GPa) = 41.79469 57.35208 49.57338
# Shear Modulus (GPa) = 24.31088 31.14741 27.72915
#
# Velocity S-wave (km/s) = 3.44002 3.89378 3.67392
# Velocity P-wave (km/s) = 6.01021 6.93776 6.49058
#
# Compressibility (1/GPa) = 0.02392649
#
# Stress axis : x y z
#
# Youngs Moduli (GPa) = 94.81090 35.66428 84.76306
#
# Poissons Ratio (x) = 0.13439 0.28005
# Poissons Ratio (y) = 0.35726 0.52187
# Poissons Ratio (z) = 0.31325 0.21958
#
# Static dielectric constant tensor:
#      x y z
#    x 1.751900 0.000000 0.030230 
#    y 0.000000 1.787350 0.000000 
#    z 0.030230 0.000000 1.766730 
# 
# From -- ./inp_files/155453.got.cif
#   From: 2010.05.17/outbox.cif.g08.bks.cpg/sg15_78_cif.got.tgz:155453.got - 2010.06.03 18:47:42.
