data_PCOD9302768
_publ_section_title
;
Structure prediction by ZEFSAII (Michael W. Deem and Ramdas Pophale) SiO2 
 PCOD9302768
Probable space group: C 2/C
;
_chemical_formula_sum "Si O2"
_cell_formula_units_Z 48
_cell_length_a 13.568896
_cell_length_b 9.178995
_cell_length_c 18.125524
_cell_angle_alpha 90.000000
_cell_angle_beta 83.001132
_cell_angle_gamma 90.000000
_cell_volume 2240.691058
_symmetry_space_group_name_H-M "C 2/C"
_symmetry_group_IT_number 15
_symmetry_cell_setting 'monoclinic'
loop_
_space_group_symop_operation_xyz
x,y,z
-x,y,1/2-z
-x,-y,-z
x,-y,1/2+z
1/2+x,1/2+y,z
1/2-x,1/2+y,1/2-z
1/2-x,1/2-y,-z
1/2+x,1/2-y,1/2+z
loop_
_atom_site_type_symbol
_atom_site_label
_atom_site_fract_x
_atom_site_fract_y
_atom_site_fract_z
Si Si1 0.467110 0.807327 0.052874
Si Si2 0.825210 0.466072 0.824368
Si Si3 0.196232 0.887927 0.968424
Si Si4 0.025012 0.612886 0.382819
Si Si5 0.723088 0.765829 0.802771
Si Si6 0.673578 0.334193 0.561332
O O1 0.391779 0.677030 0.072311
O O2 0.574498 0.761931 0.072308
O O3 0.431130 0.957747 0.092668
O O4 0.477853 0.825368 0.963021
O O5 0.774586 0.464571 0.908698
O O6 0.784062 0.615249 0.792857
O O7 0.783661 0.340640 0.775465
O O8 0.940346 0.431038 0.831493
O O9 0.250000 0.750000 0.000000
O O10 0.156200 0.007040 0.028675
O O11 0.108918 0.721971 0.344057
O O12 0.781885 0.850465 0.861643
O O13 0.750000 0.250000 0.500000
#
# Coordination Sequence:
#
# PCOD9302768 Si02
#       6
#     8   8   8   8   8   8
#     4  11  22  39  73 109 135 175 241 295 349 421
#     4  12  27  48  68 105 141 191 235 286 362 426
#     4  12  24  41  70 104 141 181 238 296 352 418
#     4  11  22  45  73 101 137 185 233 292 357 417
#     4  12  27  45  73 100 145 188 236 291 356 430
#     4  12  22  45  70 100 140 184 234 294 348 418
#
# _framework density 21.421962000000001
#
# number of rings (size 3 to 8) (size 9 to 14) (size 15 to 20)
#    0.000    0.333    6.667    2.000    4.667    0.000 
#    0.000    2.500    0.000    0.000    0.000    0.000 
#    0.000    0.000    0.000    0.000    0.000    0.000 
#
# Total GULP energy -134060.780353 kJ/mol
# GULP energy per Si atom -5585.865848 kJ/mol
# Density = 2.137320 g / cm^3
# Si number density = 21.421962 Si / 1000 Ang^3
#
#
#
# Elastic Constant Matrix: (Units=GPa)
#
#
# Indices 1 2 3 4 5 6 
#
# 1 105.9228 7.2744 8.4712 0.0000 18.8956 0.0000
# 2 7.2744 59.7305 6.4813 0.0000 15.2888 0.0000
# 3 8.4712 6.4813 60.1169 0.0000 22.7020 0.0000
# 4 0.0000 0.0000 0.0000 41.1650 0.0000 9.4113
# 5 18.8956 15.2888 22.7020 0.0000 26.2441 0.0000
# 6 0.0000 0.0000 0.0000 9.4113 0.0000 34.0810
#
#
#
# Elastic Compliance Matrix: (Units=1/GPa)
#
#
# Indices 1 2 3 4 5 6 
#
# 1 0.011077 0.001125 0.002342 0.000000 -0.010657 0.000000
# 2 0.001125 0.020235 0.003590 0.000000 -0.015703 0.000000
# 3 0.002342 0.003590 0.025758 0.000000 -0.026059 0.000000
# 4 0.000000 0.000000 0.000000 0.025930 0.000000 -0.007160
# 5 -0.010657 -0.015703 -0.026059 0.000000 0.077467 0.000000
# 6 0.000000 0.000000 0.000000 -0.007160 0.000000 0.031319
#
#
# Mechanical properties :
#
#
# Convention : Reuss Voigt Hill
#
# Bulk Modulus (GPa) = 14.04823 30.02491 22.03657
# Shear Modulus (GPa) = 24.82621 33.86755 29.34688
#
# Velocity S-wave (km/s) = 3.40798 3.98046 3.70529
# Velocity P-wave (km/s) = 4.69658 5.93058 5.34928
#
# Compressibility (1/GPa) = 0.07118334
#
# Stress axis : x y z
#
# Youngs Moduli (GPa) = 90.27412 49.41981 38.82307
#
# Poissons Ratio (x) = -0.05557 -0.09093
# Poissons Ratio (y) = -0.10152 -0.13937
# Poissons Ratio (z) = -0.21144 -0.17742
#
# Static dielectric constant tensor:
#      x y z
#    x 1.865460 0.000000 -0.034010 
#    y 0.000000 1.781980 0.000000 
#    z -0.034010 0.000000 1.773390 
# 
# From -- ./inp_files/203022.got.cif
#   From: 2010.05.17/outbox.cif.g08.bks.cpg/sg15_102_cif.got.tgz:203022.got - 2010.06.03 18:47:42.
