data_PCOD9302866
_publ_section_title
;
Structure prediction by ZEFSAII (Michael W. Deem and Ramdas Pophale) SiO2 
 PCOD9302866
Probable space group: C 2/C
;
_chemical_formula_sum "Si O2"
_cell_formula_units_Z 48
_cell_length_a 19.590741
_cell_length_b 13.725284
_cell_length_c 8.115130
_cell_angle_alpha 90.000000
_cell_angle_beta 71.491425
_cell_angle_gamma 90.000000
_cell_volume 2069.200214
_symmetry_space_group_name_H-M "C 2/C"
_symmetry_group_IT_number 15
_symmetry_cell_setting 'monoclinic'
loop_
_space_group_symop_operation_xyz
x,y,z
-x,y,1/2-z
-x,-y,-z
x,-y,1/2+z
1/2+x,1/2+y,z
1/2-x,1/2+y,1/2-z
1/2-x,1/2-y,-z
1/2+x,1/2-y,1/2+z
loop_
_atom_site_type_symbol
_atom_site_label
_atom_site_fract_x
_atom_site_fract_y
_atom_site_fract_z
Si Si1 0.924926 0.033924 0.979187
Si Si2 0.228718 0.358365 0.350737
Si Si3 0.698016 0.939615 0.012923
Si Si4 0.107459 0.145723 0.830289
Si Si5 0.927476 0.693744 0.915639
Si Si6 0.670335 0.678670 0.249227
O O1 0.077715 0.087849 0.693219
O O2 0.886263 0.103684 0.136575
O O3 0.884124 0.931376 0.024506
O O4 0.000000 0.000000 0.000000
O O5 0.208258 0.410273 0.194215
O O6 0.212810 0.444885 0.489190
O O7 0.311684 0.328949 0.278132
O O8 0.187145 0.256931 0.380082
O O9 0.617682 0.905417 0.018752
O O10 0.758108 0.877370 0.866063
O O11 0.062079 0.238037 0.930449
O O12 0.868431 0.756925 0.860033
O O13 0.000000 0.683385 0.750000
#
# Coordination Sequence:
#
# PCOD9302866 Si02
#       6
#     8   8   8   8   8   8
#     4  12  26  39  61  98 145 181 218 286 357 423
#     4  11  22  40  67  97 132 179 234 293 342 404
#     4  11  22  42  66  99 138 178 239 291 349 413
#     4  12  22  40  64  98 136 179 230 274 353 423
#     4  11  23  43  68  96 134 188 235 290 351 416
#     4  11  22  43  66  97 142 181 233 293 351 418
#
# _framework density 23.197368000000001
#
# number of rings (size 3 to 8) (size 9 to 14) (size 15 to 20)
#    0.000    0.667    5.000    4.500    0.000    2.000 
#    0.000    3.333    0.000    2.000    0.000    0.000 
#    0.000    0.000    0.000    0.000    0.000    0.333 
#
# Total GULP energy -134114.927501 kJ/mol
# GULP energy per Si atom -5588.121979 kJ/mol
# Density = 2.314457 g / cm^3
# Si number density = 23.197368 Si / 1000 Ang^3
#
#
#
# Elastic Constant Matrix: (Units=GPa)
#
#
# Indices 1 2 3 4 5 6 
#
# 1 77.1555 17.9522 29.6015 0.0000 -12.7309 0.0000
# 2 17.9522 53.9446 19.6444 0.0000 -33.9336 0.0000
# 3 29.6015 19.6444 92.0724 0.0000 -4.4681 0.0000
# 4 0.0000 0.0000 0.0000 41.6783 0.0000 24.4665
# 5 -12.7309 -33.9336 -4.4681 0.0000 37.4640 0.0000
# 6 0.0000 0.0000 0.0000 24.4665 0.0000 110.4923
#
#
#
# Elastic Compliance Matrix: (Units=1/GPa)
#
#
# Indices 1 2 3 4 5 6 
#
# 1 0.015605 -0.001242 -0.004576 0.000000 0.003632 0.000000
# 2 -0.001242 0.048758 -0.007927 0.000000 0.042796 0.000000
# 3 -0.004576 -0.007927 0.013679 0.000000 -0.007103 0.000000
# 4 0.000000 0.000000 0.000000 0.027578 0.000000 -0.006107
# 5 0.003632 0.042796 -0.007103 0.000000 0.065842 0.000000
# 6 0.000000 0.000000 0.000000 -0.006107 0.000000 0.010403
#
#
# Mechanical properties :
#
#
# Convention : Reuss Voigt Hill
#
# Bulk Modulus (GPa) = 19.78161 39.72985 29.75573
# Shear Modulus (GPa) = 22.10397 48.32521 35.21459
#
# Velocity S-wave (km/s) = 3.09020 4.56918 3.90043
# Velocity P-wave (km/s) = 4.61286 6.70825 5.75670
#
# Compressibility (1/GPa) = 0.05055199
#
# Stress axis : x y z
#
# Youngs Moduli (GPa) = 64.08356 20.50952 73.10684
#
# Poissons Ratio (x) = 0.02548 0.33451
# Poissons Ratio (y) = 0.07960 0.57950
# Poissons Ratio (z) = 0.29322 0.16257
#
# Static dielectric constant tensor:
#      x y z
#    x 1.803640 0.000000 0.119940 
#    y 0.000000 1.953680 0.000000 
#    z 0.119940 0.000000 1.890430 
# 
# From -- ./inp_files/117419.got.cif
#   From: 2010.05.17/outbox.cif.g08.bks.cpg/sg15_59_cif.got.tgz:117419.got - 2010.06.03 18:47:42.
