data_PCOD9302994
_publ_section_title
;
Structure prediction by ZEFSAII (Michael W. Deem and Ramdas Pophale) SiO2 
 PCOD9302994
Probable space group: C 2/C
;
_chemical_formula_sum "Si O2"
_cell_formula_units_Z 28
_cell_length_a 28.445860
_cell_length_b 5.217398
_cell_length_c 8.590862
_cell_angle_alpha 90.000000
_cell_angle_beta 123.982207
_cell_angle_gamma 90.000000
_cell_volume 1057.243275
_symmetry_space_group_name_H-M "C 2/C"
_symmetry_group_IT_number 15
_symmetry_cell_setting 'monoclinic'
loop_
_space_group_symop_operation_xyz
x,y,z
-x,y,1/2-z
-x,-y,-z
x,-y,1/2+z
1/2+x,1/2+y,z
1/2-x,1/2+y,1/2-z
1/2-x,1/2-y,-z
1/2+x,1/2-y,1/2+z
loop_
_atom_site_type_symbol
_atom_site_label
_atom_site_fract_x
_atom_site_fract_y
_atom_site_fract_z
Si Si1 0.500000 0.669873 0.750000
Si Si2 0.650262 0.724611 0.566858
Si Si3 0.077507 0.858430 0.650672
Si Si4 0.755665 0.501118 0.613563
O O1 0.535457 0.495189 0.696142
O O2 0.455956 0.799922 0.546512
O O3 0.610718 0.582806 0.619145
O O4 0.618427 0.785416 0.346576
O O5 0.701321 0.526387 0.623618
O O6 0.684302 0.969078 0.690983
O O7 0.750000 0.250000 0.500000
O O8 0.750000 0.750000 0.500000
#
# Coordination Sequence:
#
# PCOD9302994 Si02
#       4
#     4   8   8   8
#     4   8  16  34  62 114 146 196 264 330 388 446
#     4  11  22  41  67 106 158 205 258 309 389 455
#     4   9  18  35  68 106 155 202 259 320 389 460
#     4  12  26  45  69 108 160 199 253 311 367 463
#
# _framework density 26.483969999999999
#
# number of rings (size 3 to 8) (size 9 to 14) (size 15 to 20)
#    0.000    1.714    2.857    1.714    0.000    0.000 
#    0.000    0.000    0.000    0.000    0.000  100.000 
#    0.000    0.000    0.000    1.714    0.000    0.000 
#
# Total GULP energy -78382.077233 kJ/mol
# GULP energy per Si atom -5598.719802 kJ/mol
# Density = 2.642369 g / cm^3
# Si number density = 26.483970 Si / 1000 Ang^3
#
#
#
# Elastic Constant Matrix: (Units=GPa)
#
#
# Indices 1 2 3 4 5 6 
#
# 1 189.8671 33.3104 38.2334 0.0000 -32.5887 0.0000
# 2 33.3104 126.0545 64.9784 0.0000 -12.2087 0.0000
# 3 38.2334 64.9784 327.9458 0.0000 21.0087 0.0000
# 4 0.0000 0.0000 0.0000 49.2735 0.0000 -16.6145
# 5 -32.5887 -12.2087 21.0087 0.0000 48.1101 0.0000
# 6 0.0000 0.0000 0.0000 -16.6145 0.0000 18.2205
#
#
#
# Elastic Compliance Matrix: (Units=1/GPa)
#
#
# Indices 1 2 3 4 5 6 
#
# 1 0.006350 -0.000796 -0.000870 0.000000 0.004479 0.000000
# 2 -0.000796 0.009407 -0.001944 0.000000 0.002697 0.000000
# 3 -0.000870 -0.001944 0.003709 0.000000 -0.002702 0.000000
# 4 0.000000 0.000000 0.000000 0.029305 0.000000 0.026722
# 5 0.004479 0.002697 -0.002702 0.000000 0.025684 0.000000
# 6 0.000000 0.000000 0.000000 0.026722 0.000000 0.079250
#
#
# Mechanical properties :
#
#
# Convention : Reuss Voigt Hill
#
# Bulk Modulus (GPa) = 81.65165 101.87909 91.76537
# Shear Modulus (GPa) = 30.30183 56.94384 43.62283
#
# Velocity S-wave (km/s) = 3.38621 4.64197 4.06290
# Velocity P-wave (km/s) = 6.79603 8.20258 7.53221
#
# Compressibility (1/GPa) = 0.01224715
#
# Stress axis : x y z
#
# Youngs Moduli (GPa) = 157.46924 106.30877 269.62307
#
# Poissons Ratio (x) = 0.08463 0.23446
# Poissons Ratio (y) = 0.12535 0.52408
# Poissons Ratio (z) = 0.13693 0.20664
#
# Static dielectric constant tensor:
#      x y z
#    x 2.185060 0.000000 0.076820 
#    y 0.000000 2.015450 0.000000 
#    z 0.076820 0.000000 2.200720 
# 
# From -- ./inp_files/67844.got.cif
#   From: 2010.05.17/outbox.cif.g08.bks.cpg/sg15_34_cif.got.tgz:67844.got - 2010.06.03 18:47:42.
