data_PCOD9302609
_publ_section_title
;
Structure prediction by ZEFSAII (Michael W. Deem and Ramdas Pophale) SiO2 
 PCOD9302609
Probable space group: C 2/C
;
_chemical_formula_sum "Si O2"
_cell_formula_units_Z 48
_cell_length_a 13.325954
_cell_length_b 13.939455
_cell_length_c 12.658347
_cell_angle_alpha 90.000000
_cell_angle_beta 103.815792
_cell_angle_gamma 90.000000
_cell_volume 2283.342005
_symmetry_space_group_name_H-M "C 2/C"
_symmetry_group_IT_number 15
_symmetry_cell_setting 'monoclinic'
loop_
_space_group_symop_operation_xyz
x,y,z
-x,y,1/2-z
-x,-y,-z
x,-y,1/2+z
1/2+x,1/2+y,z
1/2-x,1/2+y,1/2-z
1/2-x,1/2-y,-z
1/2+x,1/2-y,1/2+z
loop_
_atom_site_type_symbol
_atom_site_label
_atom_site_fract_x
_atom_site_fract_y
_atom_site_fract_z
Si Si1 0.024847 0.361872 0.993271
Si Si2 0.151646 0.650341 0.312450
Si Si3 0.659018 0.017992 0.119865
Si Si4 0.620997 0.327692 0.595355
Si Si5 0.500000 0.617543 0.250000
Si Si6 0.500000 0.693431 0.750000
Si Si7 0.117510 0.034464 0.914622
O O1 0.081784 0.381127 0.894594
O O2 0.908361 0.400901 0.958366
O O3 0.085138 0.425472 0.095075
O O4 0.047784 0.251513 0.023916
O O5 0.175294 0.562610 0.240031
O O6 0.257732 0.695674 0.381443
O O7 0.088045 0.732355 0.233766
O O8 0.766006 0.987047 0.093198
O O9 0.588822 0.328386 0.709458
O O10 0.614528 0.430938 0.534793
O O11 0.446807 0.555182 0.144678
O O12 0.563505 0.623982 0.842158
#
# Coordination Sequence:
#
# PCOD9302609 Si02
#       7
#     8   8   8   8   4   4   8
#     4  11  23  41  67  96 134 175 216 271 333 396
#     4  12  20  39  68  97 132 170 227 267 319 398
#     4  11  22  39  65 101 130 165 220 273 323 388
#     4  12  23  44  67  94 133 176 226 272 332 397
#     4  11  26  42  63  98 132 170 225 286 328 385
#     4  11  22  38  71  98 122 180 227 264 314 407
#     4  11  22  42  67  95 130 175 220 269 331 391
#
# _framework density 21.021819000000001
#
# number of rings (size 3 to 8) (size 9 to 14) (size 15 to 20)
#    0.000    0.667    6.667    2.000    0.000    0.000 
#    6.000    0.833    0.000    0.000    0.000    0.000 
#    0.000    0.000    0.000    0.000    0.000    0.000 
#
# Total GULP energy -133834.149185 kJ/mol
# GULP energy per Si atom -5576.422883 kJ/mol
# Density = 2.097397 g / cm^3
# Si number density = 21.021819 Si / 1000 Ang^3
#
#
#
# Elastic Constant Matrix: (Units=GPa)
#
#
# Indices 1 2 3 4 5 6 
#
# 1 113.9478 19.6555 37.8695 0.0000 6.6205 0.0000
# 2 19.6555 55.2497 24.1086 0.0000 -7.6595 0.0000
# 3 37.8695 24.1086 73.9094 0.0000 -16.8074 0.0000
# 4 0.0000 0.0000 0.0000 8.0008 0.0000 -6.2490
# 5 6.6205 -7.6595 -16.8074 0.0000 35.5882 0.0000
# 6 0.0000 0.0000 0.0000 -6.2490 0.0000 22.3939
#
#
#
# Elastic Compliance Matrix: (Units=1/GPa)
#
#
# Indices 1 2 3 4 5 6 
#
# 1 0.011660 -0.002060 -0.006606 0.000000 -0.005732 0.000000
# 2 -0.002060 0.021534 -0.005408 0.000000 0.002464 0.000000
# 3 -0.006606 -0.005408 0.020943 0.000000 0.009956 0.000000
# 4 0.000000 0.000000 0.000000 0.159819 0.000000 0.044597
# 5 -0.005732 0.002464 0.009956 0.000000 0.034398 0.000000
# 6 0.000000 0.000000 0.000000 0.044597 0.000000 0.057100
#
#
# Mechanical properties :
#
#
# Convention : Reuss Voigt Hill
#
# Bulk Modulus (GPa) = 38.47920 45.15268 41.81594
# Shear Modulus (GPa) = 14.60858 23.96148 19.28503
#
# Velocity S-wave (km/s) = 2.63900 3.37981 3.03212
# Velocity P-wave (km/s) = 5.25642 6.06271 5.67390
#
# Compressibility (1/GPa) = 0.02598807
#
# Stress axis : x y z
#
# Youngs Moduli (GPa) = 85.76549 46.43789 47.74915
#
# Poissons Ratio (x) = 0.09567 0.31541
# Poissons Ratio (y) = 0.17670 0.25824
# Poissons Ratio (z) = 0.56654 0.25115
#
# Static dielectric constant tensor:
#      x y z
#    x 1.774670 0.000000 0.054960 
#    y 0.000000 1.776790 0.000000 
#    z 0.054960 0.000000 1.801060 
# 
# From -- ./inp_files/143712.got.cif
#   From: 2010.05.17/outbox.cif.g08.bks.cpg/sg15_72_cif.got.tgz:143712.got - 2010.06.03 18:47:42.
