data_PCOD9302135
_publ_section_title
;
Structure prediction by ZEFSAII (Michael W. Deem and Ramdas Pophale) SiO2 
 PCOD9302135
Probable space group: C 2/C
;
_chemical_formula_sum "Si O2"
_cell_formula_units_Z 56
_cell_length_a 19.200549
_cell_length_b 20.727909
_cell_length_c 12.143430
_cell_angle_alpha 90.000000
_cell_angle_beta 29.664397
_cell_angle_gamma 90.000000
_cell_volume 2391.908033
_symmetry_space_group_name_H-M "C 2/C"
_symmetry_group_IT_number 15
_symmetry_cell_setting 'monoclinic'
loop_
_space_group_symop_operation_xyz
x,y,z
-x,y,1/2-z
-x,-y,-z
x,-y,1/2+z
1/2+x,1/2+y,z
1/2-x,1/2+y,1/2-z
1/2-x,1/2-y,-z
1/2+x,1/2-y,1/2+z
loop_
_atom_site_type_symbol
_atom_site_label
_atom_site_fract_x
_atom_site_fract_y
_atom_site_fract_z
Si Si1 0.907740 0.120027 0.767033
Si Si2 0.850834 0.189032 0.631235
Si Si3 0.354575 0.046670 0.273458
Si Si4 0.576155 0.048343 0.547242
Si Si5 0.839210 0.235008 0.267645
Si Si6 0.144662 0.908227 0.779368
Si Si7 0.855542 0.935738 0.971332
O O1 0.852066 0.175839 0.760655
O O2 0.000000 0.136618 0.750000
O O3 0.011976 0.079792 0.541221
O O4 0.766248 0.084412 0.998842
O O5 0.717060 0.218464 0.752042
O O6 0.865704 0.119137 0.549376
O O7 0.996457 0.230105 0.420332
O O8 0.415309 0.082154 0.082771
O O9 0.484540 0.015998 0.158698
O O10 0.273906 0.982931 0.338707
O O11 0.736558 0.039366 0.361342
O O12 0.500000 0.086401 0.750000
O O13 0.750000 0.250000 0.500000
O O14 0.810974 0.164503 0.252828
O O15 0.149119 0.902665 0.641447
O O16 0.000000 0.975525 0.750000
#
# Coordination Sequence:
#
# PCOD9302135 Si02
#       7
#     8   8   8   8   8   8   8
#     4  11  23  46  69  99 142 197 242 296 342 444
#     4  11  25  41  71 107 141 182 248 302 368 430
#     4  11  26  40  66  96 144 191 236 280 370 420
#     4  11  24  43  60 101 139 184 230 297 351 437
#     4  11  21  42  68 105 139 180 231 311 364 416
#     4  11  23  40  68 100 141 176 241 294 361 412
#     4  12  21  38  63 106 132 176 237 291 342 431
#
# _framework density 23.412272000000002
#
# number of rings (size 3 to 8) (size 9 to 14) (size 15 to 20)
#    0.000    0.857    7.143    0.857    2.000    2.857 
#    0.000    2.857    0.000    0.000    0.000    0.000 
#    0.000    0.000    0.000    0.000    0.000    0.000 
#
# Total GULP energy -155958.485041 kJ/mol
# GULP energy per Si atom -5569.945894 kJ/mol
# Density = 2.335898 g / cm^3
# Si number density = 23.412272 Si / 1000 Ang^3
#
#
#
# Elastic Constant Matrix: (Units=GPa)
#
#
# Indices 1 2 3 4 5 6 
#
# 1 131.3935 22.2447 37.6554 -0.0002 23.8461 0.0004
# 2 22.2447 40.6194 25.7157 -0.0008 7.3642 0.0004
# 3 37.6554 25.7157 153.5510 -0.0006 15.9930 0.0002
# 4 -0.0002 -0.0008 -0.0006 22.7449 0.0003 -3.7221
# 5 23.8461 7.3642 15.9930 0.0003 33.6046 -0.0001
# 6 0.0004 0.0004 0.0002 -3.7221 -0.0001 43.5065
#
#
#
# Elastic Compliance Matrix: (Units=1/GPa)
#
#
# Indices 1 2 3 4 5 6 
#
# 1 0.009526 -0.003480 -0.001187 0.000000 -0.005432 0.000000
# 2 -0.003480 0.029342 -0.003838 0.000001 -0.002134 0.000000
# 3 -0.001187 -0.003838 0.007650 0.000000 -0.001957 0.000000
# 4 0.000000 0.000001 0.000000 0.044590 -0.000001 0.003815
# 5 -0.005432 -0.002134 -0.001957 -0.000001 0.035011 0.000000
# 6 0.000000 0.000000 0.000000 0.003815 0.000000 0.023311
#
#
# Mechanical properties :
#
#
# Convention : Reuss Voigt Hill
#
# Bulk Modulus (GPa) = 33.89143 55.19951 44.54547
# Shear Modulus (GPa) = 28.36425 35.96773 32.16599
#
# Velocity S-wave (km/s) = 3.48445 3.92379 3.71063
# Velocity P-wave (km/s) = 5.54039 6.64504 6.11770
#
# Compressibility (1/GPa) = 0.02950599
#
# Stress axis : x y z
#
# Youngs Moduli (GPa) = 104.97507 34.08142 130.71294
#
# Poissons Ratio (x) = 0.11861 0.15522
# Poissons Ratio (y) = 0.36534 0.50171
# Poissons Ratio (z) = 0.12466 0.13081
#
# Static dielectric constant tensor:
#      x y z
#    x 2.040770 0.000000 -0.014230 
#    y 0.000000 1.914930 0.000000 
#    z -0.014230 0.000000 1.924770 
# 
# From -- ./inp_files/114700.got.cif
#   From: 2010.05.17/outbox.cif.g08.bks.cpg/sg15_58_cif.got.tgz:114700.got - 2010.06.03 18:47:42.
