data_PCOD9302474
_publ_section_title
;
Structure prediction by ZEFSAII (Michael W. Deem and Ramdas Pophale) SiO2 
 PCOD9302474
Probable space group: C 2/C
;
_chemical_formula_sum "Si O2"
_cell_formula_units_Z 64
_cell_length_a 8.070959
_cell_length_b 33.654748
_cell_length_c 14.535206
_cell_angle_alpha 90.000000
_cell_angle_beta 132.063495
_cell_angle_gamma 90.000000
_cell_volume 2931.111237
_symmetry_space_group_name_H-M "C 2/C"
_symmetry_group_IT_number 15
_symmetry_cell_setting 'monoclinic'
loop_
_space_group_symop_operation_xyz
x,y,z
-x,y,1/2-z
-x,-y,-z
x,-y,1/2+z
1/2+x,1/2+y,z
1/2-x,1/2+y,1/2-z
1/2-x,1/2-y,-z
1/2+x,1/2-y,1/2+z
loop_
_atom_site_type_symbol
_atom_site_label
_atom_site_fract_x
_atom_site_fract_y
_atom_site_fract_z
Si Si1 0.472870 0.291659 0.016892
Si Si2 0.844556 0.425251 0.780536
Si Si3 0.434802 0.955252 0.001248
Si Si4 0.731067 0.161230 0.274334
Si Si5 0.981392 0.992804 0.886265
Si Si6 0.210827 0.164624 0.757492
Si Si7 0.673917 0.422504 0.237640
Si Si8 0.467486 0.800237 0.515456
O O1 0.416062 0.316741 0.904307
O O2 0.251865 0.298124 0.999223
O O3 0.670799 0.305902 0.157467
O O4 0.504531 0.245688 0.004179
O O5 0.706449 0.384648 0.722265
O O6 0.724334 0.467537 0.727165
O O7 0.000000 0.424268 0.750000
O O8 0.964519 0.427222 0.923630
O O9 0.590586 0.938860 0.138946
O O10 0.180942 0.963193 0.933329
O O11 0.500000 0.000000 0.000000
O O12 0.500000 0.161066 0.250000
O O13 0.660699 0.181967 0.152521
O O14 0.955871 0.038198 0.844858
O O15 0.000000 0.000000 0.000000
O O16 0.218726 0.120882 0.712524
O O17 0.000000 0.169839 0.750000
O O18 0.412437 0.174543 0.902959
O O19 0.500000 0.409492 0.250000
#
# Coordination Sequence:
#
# PCOD9302474 Si02
#       8
#     8   8   8   8   8   8   8   8
#     4   9  16  26  45  69 109 147 185 228 279 351
#     4  11  23  38  60  85 117 156 200 241 294 354
#     4  12  22  42  59  82 115 152 198 248 293 347
#     4   9  18  29  47  76 109 148 190 235 284 346
#     4  12  26  39  60  85 114 157 200 246 297 349
#     4   9  18  28  46  74 106 146 186 230 288 345
#     4  11  22  37  59  82 115 153 196 244 294 350
#     4   9  15  28  43  71 106 151 185 220 287 355
#
# _framework density 21.834723
#
# number of rings (size 3 to 8) (size 9 to 14) (size 15 to 20)
#    0.000    1.750    2.500    2.625    1.750    5.000 
#    0.000    0.000    0.000    0.000    0.000    0.000 
#    0.000   18.000    0.000    0.000    0.000    0.000 
#
# Total GULP energy -178236.004724 kJ/mol
# GULP energy per Si atom -5569.875148 kJ/mol
# Density = 2.178503 g / cm^3
# Si number density = 21.834723 Si / 1000 Ang^3
#
#
#
# Elastic Constant Matrix: (Units=GPa)
#
#
# Indices 1 2 3 4 5 6 
#
# 1 13.0177 0.9480 12.6507 0.0000 -4.6518 0.0000
# 2 0.9480 61.8805 -7.9551 0.0000 2.8788 0.0000
# 3 12.6507 -7.9551 82.5934 0.0000 -5.5662 0.0000
# 4 0.0000 0.0000 0.0000 -721.7979 0.0000 205.8349
# 5 -4.6518 2.8788 -5.5662 0.0000 11.7327 0.0000
# 6 0.0000 0.0000 0.0000 205.8349 0.0000 -52.1019
#
#
#
# Elastic Compliance Matrix: (Units=1/GPa)
#
#
# Indices 1 2 3 4 5 6 
#
# 1 0.103460 -0.005034 -0.013929 0.000000 0.035647 0.000000
# 2 -0.005034 0.016738 0.002037 0.000000 -0.005136 0.000000
# 3 -0.013929 0.002037 0.014495 0.000000 0.000854 0.000000
# 4 0.000000 0.000000 0.000000 0.010944 0.000000 0.043234
# 5 0.035647 -0.005136 0.000854 0.000000 0.101031 0.000000
# 6 0.000000 0.000000 0.000000 0.043234 0.000000 0.151607
#
#
# Mechanical properties :
#
#
# Convention : Reuss Voigt Hill
#
# Bulk Modulus (GPa) = 9.91664 18.75321 14.33493
# Shear Modulus (GPa) = 10.73558 -142.31023 -65.78733
#
# Velocity S-wave (km/s) = 2.21978 -8.08193 -5.49501
# Velocity P-wave (km/s) = 3.33488 8.85905 5.80351
#
# Compressibility (1/GPa) = 0.10084056
#
# Stress axis : x y z
#
# Youngs Moduli (GPa) = 9.66554 59.74383 68.99032
#
# Poissons Ratio (x) = 0.30076 0.96099
# Poissons Ratio (y) = 0.04866 -0.14054
# Poissons Ratio (z) = 0.13463 -0.12170
#
# Static dielectric constant tensor:
#      x y z
#    x 1.871130 0.000000 -0.004860 
#    y 0.000000 1.736310 0.000000 
#    z -0.004860 0.000000 1.782120 
# 
# From -- ./inp_files/139867.got.cif
#   From: 2010.05.17/outbox.cif.g08.bks.cpg/sg15_70_cif.got.tgz:139867.got - 2010.06.03 18:47:42.
