data_PCOD9302962
_publ_section_title
;
Structure prediction by ZEFSAII (Michael W. Deem and Ramdas Pophale) SiO2 
 PCOD9302962
Probable space group: C 2/C
;
_chemical_formula_sum "Si O2"
_cell_formula_units_Z 48
_cell_length_a 14.816986
_cell_length_b 28.328362
_cell_length_c 8.787199
_cell_angle_alpha 90.000000
_cell_angle_beta 42.497960
_cell_angle_gamma 90.000000
_cell_volume 2491.714425
_symmetry_space_group_name_H-M "C 2/C"
_symmetry_group_IT_number 15
_symmetry_cell_setting 'monoclinic'
loop_
_space_group_symop_operation_xyz
x,y,z
-x,y,1/2-z
-x,-y,-z
x,-y,1/2+z
1/2+x,1/2+y,z
1/2-x,1/2+y,1/2-z
1/2-x,1/2-y,-z
1/2+x,1/2-y,1/2+z
loop_
_atom_site_type_symbol
_atom_site_label
_atom_site_fract_x
_atom_site_fract_y
_atom_site_fract_z
Si Si1 0.860917 0.550646 0.001999
Si Si2 0.641390 0.945418 0.629145
Si Si3 0.396268 0.383302 0.267377
Si Si4 0.099259 0.109640 0.241919
Si Si5 0.642135 0.279863 0.040455
Si Si6 0.868088 0.785128 0.814560
O O1 0.867311 0.550890 0.177153
O O2 0.728589 0.580259 0.125966
O O3 0.844749 0.497488 0.959677
O O4 0.000000 0.568149 0.750000
O O5 0.500000 0.925249 0.750000
O O6 0.763458 0.913611 0.420114
O O7 0.500000 0.409567 0.250000
O O8 0.358990 0.332780 0.387391
O O9 0.491066 0.376536 0.005236
O O10 0.151422 0.160040 0.115423
O O11 0.000000 0.083149 0.250000
O O12 0.500000 0.256507 0.250000
O O13 0.750000 0.250000 0.000000
O O14 0.639454 0.283971 0.860916
O O15 0.000000 0.770922 0.750000
O O16 0.750000 0.750000 0.000000
#
# Coordination Sequence:
#
# PCOD9302962 Si02
#       6
#     8   8   8   8   8   8
#     4  11  24  43  62  95 129 168 212 258 314 378
#     4  11  24  41  66  92 130 168 210 261 312 377
#     4  11  22  45  65  93 128 164 214 261 315 376
#     4  11  25  42  68  93 128 167 209 265 317 374
#     4  11  22  41  65  90 124 165 209 257 312 376
#     4  11  23  41  62  93 127 162 206 260 315 372
#
# _framework density 19.263845
#
# number of rings (size 3 to 8) (size 9 to 14) (size 15 to 20)
#    0.000    1.000    5.000    3.000    7.000    2.667 
#    0.000    3.333    0.000    0.000    0.000    0.000 
#    0.000    0.000    0.000    0.000    0.000    0.000 
#
# Total GULP energy -133680.507477 kJ/mol
# GULP energy per Si atom -5570.021145 kJ/mol
# Density = 1.922000 g / cm^3
# Si number density = 19.263845 Si / 1000 Ang^3
#
#
#
# Elastic Constant Matrix: (Units=GPa)
#
#
# Indices 1 2 3 4 5 6 
#
# 1 170.2951 59.5995 58.6736 0.0000 -34.8740 0.0000
# 2 59.5995 70.2270 58.7846 0.0000 -29.3753 0.0000
# 3 58.6736 58.7846 111.7827 0.0000 -24.1126 0.0000
# 4 0.0000 0.0000 0.0000 19.0152 0.0000 -6.3836
# 5 -34.8740 -29.3753 -24.1126 0.0000 45.2540 0.0000
# 6 0.0000 0.0000 0.0000 -6.3836 0.0000 30.1172
#
#
#
# Elastic Compliance Matrix: (Units=1/GPa)
#
#
# Indices 1 2 3 4 5 6 
#
# 1 0.008662 -0.005216 -0.001236 0.000000 0.002631 0.000000
# 2 -0.005216 0.034049 -0.012730 0.000000 0.011299 0.000000
# 3 -0.001236 -0.012730 0.016159 0.000000 -0.000606 0.000000
# 4 0.000000 0.000000 0.000000 0.056618 0.000000 0.012001
# 5 0.002631 0.011299 -0.000606 0.000000 0.031136 0.000000
# 6 0.000000 0.000000 0.000000 0.012001 0.000000 0.035747
#
#
# Mechanical properties :
#
#
# Convention : Reuss Voigt Hill
#
# Bulk Modulus (GPa) = 48.77066 78.49116 63.63091
# Shear Modulus (GPa) = 21.97106 30.56043 26.26574
#
# Velocity S-wave (km/s) = 3.38084 3.98730 3.69653
# Velocity P-wave (km/s) = 6.37278 7.87603 7.16394
#
# Compressibility (1/GPa) = 0.02050413
#
# Stress axis : x y z
#
# Youngs Moduli (GPa) = 115.44111 29.36950 61.88627
#
# Poissons Ratio (x) = 0.15320 0.07650
# Poissons Ratio (y) = 0.60218 0.78784
# Poissons Ratio (z) = 0.14270 0.37389
#
# Static dielectric constant tensor:
#      x y z
#    x 1.988570 0.000000 0.221470 
#    y 0.000000 1.648090 0.000000 
#    z 0.221470 0.000000 1.842570 
# 
# From -- ./inp_files/43785.got.cif
#   From: 2010.05.17/outbox.cif.g08.bks.cpg/sg15_22_cif.got.tgz:43785.got - 2010.06.03 18:47:42.
