data_PCOD9302615
_publ_section_title
;
Structure prediction by ZEFSAII (Michael W. Deem and Ramdas Pophale) SiO2 
 PCOD9302615
Probable space group: C 2/C
;
_chemical_formula_sum "Si O2"
_cell_formula_units_Z 64
_cell_length_a 29.070474
_cell_length_b 14.330495
_cell_length_c 8.915572
_cell_angle_alpha 90.000000
_cell_angle_beta 123.028277
_cell_angle_gamma 90.000000
_cell_volume 3113.971635
_symmetry_space_group_name_H-M "C 2/C"
_symmetry_group_IT_number 15
_symmetry_cell_setting 'monoclinic'
loop_
_space_group_symop_operation_xyz
x,y,z
-x,y,1/2-z
-x,-y,-z
x,-y,1/2+z
1/2+x,1/2+y,z
1/2-x,1/2+y,1/2-z
1/2-x,1/2-y,-z
1/2+x,1/2-y,1/2+z
loop_
_atom_site_type_symbol
_atom_site_label
_atom_site_fract_x
_atom_site_fract_y
_atom_site_fract_z
Si Si1 0.294787 0.967191 0.008600
Si Si2 0.650238 0.155161 0.366463
Si Si3 0.739801 0.834286 0.796394
Si Si4 0.810019 0.704171 0.749965
Si Si5 0.379173 0.646831 0.194814
Si Si6 0.679036 0.450211 0.388497
Si Si7 0.592039 0.693457 0.588381
Si Si8 0.489234 0.601039 0.552822
O O1 0.297639 0.892900 0.147580
O O2 0.341747 0.044158 0.110833
O O3 0.297239 0.906995 0.862150
O O4 0.235289 0.018386 0.904585
O O5 0.706523 0.188913 0.385820
O O6 0.650329 0.189188 0.537273
O O7 0.606290 0.206174 0.185225
O O8 0.754540 0.747167 0.720310
O O9 0.796269 0.888321 0.932590
O O10 0.836410 0.779638 0.686661
O O11 0.351135 0.545650 0.119578
O O12 0.427972 0.631042 0.400620
O O13 0.403252 0.686244 0.082071
O O14 0.636752 0.382908 0.227732
O O15 0.533308 0.665561 0.548201
O O16 0.500000 0.599163 0.750000
O O17 0.500000 0.500000 0.500000
#
# Coordination Sequence:
#
# PCOD9302615 Si02
#       8
#     8   8   8   8   8   8   8   8
#     4  11  24  40  61  91 132 175 228 267 320 387
#     4  11  24  40  62  88 130 177 220 271 328 383
#     4  11  22  39  58  91 131 176 221 265 323 391
#     4  12  24  41  61  92 130 173 223 273 324 390
#     4  12  26  41  67  94 129 171 218 266 330 386
#     4  11  23  37  62  90 134 172 215 258 322 379
#     4  12  25  42  66  91 129 172 217 268 324 391
#     4  12  26  44  67  97 131 166 216 269 328 394
#
# _framework density 20.552533
#
# number of rings (size 3 to 8) (size 9 to 14) (size 15 to 20)
#    0.000    0.500    3.750    5.625    3.500    0.000 
#    0.000    0.000    0.000    0.750    0.000    1.750 
#    0.000    0.000    0.000    0.000    0.000    0.000 
#
# Total GULP energy -179007.946315 kJ/mol
# GULP energy per Si atom -5593.998322 kJ/mol
# Density = 2.050575 g / cm^3
# Si number density = 20.552533 Si / 1000 Ang^3
#
#
#
# Elastic Constant Matrix: (Units=GPa)
#
#
# Indices 1 2 3 4 5 6 
#
# 1 47.1592 3.3520 9.9441 0.0000 -5.7906 0.0000
# 2 3.3520 92.2016 17.5344 0.0000 2.9279 0.0000
# 3 9.9441 17.5344 94.2005 0.0000 -10.0944 0.0000
# 4 0.0000 0.0000 0.0000 25.2095 0.0000 4.1521
# 5 -5.7906 2.9279 -10.0944 0.0000 36.6420 0.0000
# 6 0.0000 0.0000 0.0000 4.1521 0.0000 29.1001
#
#
#
# Elastic Compliance Matrix: (Units=1/GPa)
#
#
# Indices 1 2 3 4 5 6 
#
# 1 0.022012 -0.000533 -0.001903 0.000000 0.002997 0.000000
# 2 -0.000533 0.011340 -0.002226 0.000000 -0.001604 0.000000
# 3 -0.001903 -0.002226 0.011559 0.000000 0.003061 0.000000
# 4 0.000000 0.000000 0.000000 0.040622 0.000000 -0.005796
# 5 0.002997 -0.001604 0.003061 0.000000 0.028736 0.000000
# 6 0.000000 0.000000 0.000000 -0.005796 0.000000 0.035191
#
#
# Mechanical properties :
#
#
# Convention : Reuss Voigt Hill
#
# Bulk Modulus (GPa) = 28.10202 32.80247 30.45225
# Shear Modulus (GPa) = 29.30016 31.70571 30.50293
#
# Velocity S-wave (km/s) = 3.77984 3.93194 3.85664
# Velocity P-wave (km/s) = 5.72298 6.05050 5.88902
#
# Compressibility (1/GPa) = 0.03558462
#
# Stress axis : x y z
#
# Youngs Moduli (GPa) = 45.42981 88.18728 86.51254
#
# Poissons Ratio (x) = 0.04705 0.16465
# Poissons Ratio (y) = 0.02424 0.19260
# Poissons Ratio (z) = 0.08646 0.19633
#
# Static dielectric constant tensor:
#      x y z
#    x 1.713850 0.000000 -0.009810 
#    y 0.000000 1.769470 0.000000 
#    z -0.009810 0.000000 1.790210 
# 
# From -- ./inp_files/69962.got.cif
#   From: 2010.05.17/outbox.cif.g08.bks.cpg/sg15_35_cif.got.tgz:69962.got - 2010.06.03 18:47:42.
