data_PCOD9302066
_publ_section_title
;
Structure prediction by ZEFSAII (Michael W. Deem and Ramdas Pophale) SiO2 
 PCOD9302066
Probable space group: C 2/C
;
_chemical_formula_sum "Si O2"
_cell_formula_units_Z 40
_cell_length_a 20.367280
_cell_length_b 12.759042
_cell_length_c 9.025358
_cell_angle_alpha 90.000000
_cell_angle_beta 134.669689
_cell_angle_gamma 90.000000
_cell_volume 1667.976302
_symmetry_space_group_name_H-M "C 2/C"
_symmetry_group_IT_number 15
_symmetry_cell_setting 'monoclinic'
loop_
_space_group_symop_operation_xyz
x,y,z
-x,y,1/2-z
-x,-y,-z
x,-y,1/2+z
1/2+x,1/2+y,z
1/2-x,1/2+y,1/2-z
1/2-x,1/2-y,-z
1/2+x,1/2-y,1/2+z
loop_
_atom_site_type_symbol
_atom_site_label
_atom_site_fract_x
_atom_site_fract_y
_atom_site_fract_z
Si Si1 0.825527 0.655707 0.115200
Si Si2 0.017203 0.816687 0.117188
Si Si3 0.596622 0.388471 0.968582
Si Si4 0.797852 0.537914 0.757096
Si Si5 0.141958 0.276304 0.329352
O O1 0.925046 0.710126 0.270744
O O2 0.816006 0.581524 0.243437
O O3 0.750000 0.750000 0.000000
O O4 0.814522 0.586072 0.947435
O O5 0.000000 0.860111 0.250000
O O6 0.081526 0.890028 0.119273
O O7 0.921223 0.792347 0.882130
O O8 0.500000 0.422963 0.750000
O O9 0.607734 0.266175 0.933765
O O10 0.688037 0.444942 0.060514
O O11 0.857708 0.606932 0.735122
O O12 0.250000 0.250000 0.500000
#
# Coordination Sequence:
#
# PCOD9302066 Si02
#       5
#     8   8   8   8   8
#     4  12  27  46  71 106 150 188 249 309 365 438
#     4  11  21  41  70 107 148 186 235 310 365 428
#     4   9  20  41  71 103 137 193 244 302 366 440
#     4  11  24  44  69 102 141 199 241 302 374 440
#     4   9  20  40  70 103 143 188 242 296 367 441
#
# _framework density 23.981157
#
# number of rings (size 3 to 8) (size 9 to 14) (size 15 to 20)
#    0.000    1.600    4.000    0.000    2.800    2.400 
#    0.000    2.000    0.000    0.000    0.000    0.000 
#    0.000    0.000    0.000    0.000    0.000    0.000 
#
# Total GULP energy -111743.919486 kJ/mol
# GULP energy per Si atom -5587.195974 kJ/mol
# Density = 2.392658 g / cm^3
# Si number density = 23.981157 Si / 1000 Ang^3
#
#
#
# Elastic Constant Matrix: (Units=GPa)
#
#
# Indices 1 2 3 4 5 6 
#
# 1 122.5538 49.2044 31.6744 0.0000 -11.9324 0.0000
# 2 49.2044 121.9306 33.2467 0.0000 -13.2569 0.0000
# 3 31.6744 33.2467 93.0214 0.0000 4.1077 0.0000
# 4 0.0000 0.0000 0.0000 10.1121 0.0000 -3.8891
# 5 -11.9324 -13.2569 4.1077 0.0000 49.9289 0.0000
# 6 0.0000 0.0000 0.0000 -3.8891 0.0000 21.8949
#
#
#
# Elastic Compliance Matrix: (Units=1/GPa)
#
#
# Indices 1 2 3 4 5 6 
#
# 1 0.010278 -0.003300 -0.002399 0.000000 0.001777 0.000000
# 2 -0.003300 0.010521 -0.002735 0.000000 0.002230 0.000000
# 3 -0.002399 -0.002735 0.012648 0.000000 -0.002340 0.000000
# 4 0.000000 0.000000 0.000000 0.106143 0.000000 0.018853
# 5 0.001777 0.002230 -0.002340 0.000000 0.021238 0.000000
# 6 0.000000 0.000000 0.000000 0.018853 0.000000 0.049022
#
#
# Mechanical properties :
#
#
# Convention : Reuss Voigt Hill
#
# Bulk Modulus (GPa) = 60.31730 62.86186 61.58958
# Shear Modulus (GPa) = 21.52915 31.27919 26.40417
#
# Velocity S-wave (km/s) = 2.99950 3.61546 3.32179
# Velocity P-wave (km/s) = 6.09939 6.61050 6.36008
#
# Compressibility (1/GPa) = 0.01657899
#
# Stress axis : x y z
#
# Youngs Moduli (GPa) = 97.29841 95.04416 79.06486
#
# Poissons Ratio (x) = 0.31367 0.18964
# Poissons Ratio (y) = 0.32111 0.21626
# Poissons Ratio (z) = 0.23338 0.25996
#
# Static dielectric constant tensor:
#      x y z
#    x 1.884090 0.000000 -0.053760 
#    y 0.000000 1.963010 0.000000 
#    z -0.053760 0.000000 1.945560 
# 
# From -- ./inp_files/55507.got.cif
#   From: 2010.05.17/outbox.cif.g08.bks.cpg/sg15_28_cif.got.tgz:55507.got - 2010.06.03 18:47:42.
