data_PCOD9302636
_publ_section_title
;
Structure prediction by ZEFSAII (Michael W. Deem and Ramdas Pophale) SiO2 
 PCOD9302636
Probable space group: C 2/C
;
_chemical_formula_sum "Si O2"
_cell_formula_units_Z 40
_cell_length_a 8.479936
_cell_length_b 30.237138
_cell_length_c 14.352274
_cell_angle_alpha 90.000000
_cell_angle_beta 29.478868
_cell_angle_gamma 90.000000
_cell_volume 1810.962936
_symmetry_space_group_name_H-M "C 2/C"
_symmetry_group_IT_number 15
_symmetry_cell_setting 'monoclinic'
loop_
_space_group_symop_operation_xyz
x,y,z
-x,y,1/2-z
-x,-y,-z
x,-y,1/2+z
1/2+x,1/2+y,z
1/2-x,1/2+y,1/2-z
1/2-x,1/2-y,-z
1/2+x,1/2-y,1/2+z
loop_
_atom_site_type_symbol
_atom_site_label
_atom_site_fract_x
_atom_site_fract_y
_atom_site_fract_z
Si Si1 0.766746 0.852238 0.034111
Si Si2 0.209213 0.278019 0.735303
Si Si3 0.610818 0.440924 0.585236
Si Si4 0.749796 0.474353 0.195606
Si Si5 0.652963 0.815500 0.399402
O O1 0.500000 0.853118 0.250000
O O2 0.583274 0.848952 0.029492
O O3 0.975810 0.897074 0.926719
O O4 0.983748 0.809030 0.930751
O O5 0.290775 0.226135 0.698831
O O6 0.000000 0.282995 0.750000
O O7 0.012537 0.294416 0.925244
O O8 0.500000 0.433836 0.750000
O O9 0.441212 0.487775 0.649306
O O10 0.998301 0.445356 0.377197
O O11 0.500000 0.453118 0.250000
O O12 0.000000 0.500000 0.000000
O O13 0.000000 0.833567 0.250000
#
# Coordination Sequence:
#
# PCOD9302636 Si02
#       5
#     8   8   8   8   8
#     4  12  24  38  55  85 121 156 197 243 285 336
#     4  11  22  40  61  86 118 154 194 238 287 346
#     4   9  17  33  55  80 107 144 189 236 288 343
#     4   7  13  28  52  78 103 135 178 228 282 341
#     4  11  22  39  62  87 116 155 193 237 290 344
#
# _framework density 22.087696999999999
#
# number of rings (size 3 to 8) (size 9 to 14) (size 15 to 20)
#    0.000    2.400    0.000    7.200    0.000    0.800 
#    0.000    9.000    0.000    0.000    0.000    0.000 
#    0.000    0.000    0.000    0.000    0.000    0.000 
#
# Total GULP energy -111627.993815 kJ/mol
# GULP energy per Si atom -5581.399691 kJ/mol
# Density = 2.203742 g / cm^3
# Si number density = 22.087697 Si / 1000 Ang^3
#
#
#
# Elastic Constant Matrix: (Units=GPa)
#
#
# Indices 1 2 3 4 5 6 
#
# 1 44.8386 22.6808 20.6159 0.0000 -8.9708 0.0000
# 2 22.6808 67.8723 8.5413 0.0000 -17.4626 0.0000
# 3 20.6159 8.5413 88.6249 0.0000 -3.2230 0.0000
# 4 0.0000 0.0000 0.0000 25.5532 0.0000 0.1649
# 5 -8.9708 -17.4626 -3.2230 0.0000 41.8087 0.0000
# 6 0.0000 0.0000 0.0000 0.1649 0.0000 5.9536
#
#
#
# Elastic Compliance Matrix: (Units=1/GPa)
#
#
# Indices 1 2 3 4 5 6 
#
# 1 0.029917 -0.008633 -0.006042 0.000000 0.002348 0.000000
# 2 -0.008633 0.019160 0.000386 0.000000 0.006180 0.000000
# 3 -0.006042 0.000386 0.012646 0.000000 -0.000160 0.000000
# 4 0.000000 0.000000 0.000000 0.039141 0.000000 -0.001084
# 5 0.002348 0.006180 -0.000160 0.000000 0.026991 0.000000
# 6 0.000000 0.000000 0.000000 -0.001084 0.000000 0.167996
#
#
# Mechanical properties :
#
#
# Convention : Reuss Voigt Hill
#
# Bulk Modulus (GPa) = 30.16981 33.89019 32.03000
# Shear Modulus (GPa) = 14.90421 24.62961 19.76691
#
# Velocity S-wave (km/s) = 2.60046 3.34291 2.99478
# Velocity P-wave (km/s) = 4.76501 5.50244 5.14695
#
# Compressibility (1/GPa) = 0.03314572
#
# Stress axis : x y z
#
# Youngs Moduli (GPa) = 33.42632 52.19259 79.07703
#
# Poissons Ratio (x) = 0.45057 0.47777
# Poissons Ratio (y) = 0.28856 -0.03055
# Poissons Ratio (z) = 0.20196 -0.02017
#
# Static dielectric constant tensor:
#      x y z
#    x 1.873280 0.000000 -0.031270 
#    y 0.000000 1.874690 0.000000 
#    z -0.031270 0.000000 1.811140 
# 
# From -- ./inp_files/139695.got.cif
#   From: 2010.05.17/outbox.cif.g08.bks.cpg/sg15_70_cif.got.tgz:139695.got - 2010.06.03 18:47:42.
