data_PCOD9302588
_publ_section_title
;
Structure prediction by ZEFSAII (Michael W. Deem and Ramdas Pophale) SiO2 
 PCOD9302588
Probable space group: C 2/C
;
_chemical_formula_sum "Si O2"
_cell_formula_units_Z 64
_cell_length_a 16.021581
_cell_length_b 16.637796
_cell_length_c 19.014289
_cell_angle_alpha 90.000000
_cell_angle_beta 31.539639
_cell_angle_gamma 90.000000
_cell_volume 2651.284179
_symmetry_space_group_name_H-M "C 2/C"
_symmetry_group_IT_number 15
_symmetry_cell_setting 'monoclinic'
loop_
_space_group_symop_operation_xyz
x,y,z
-x,y,1/2-z
-x,-y,-z
x,-y,1/2+z
1/2+x,1/2+y,z
1/2-x,1/2+y,1/2-z
1/2-x,1/2-y,-z
1/2+x,1/2-y,1/2+z
loop_
_atom_site_type_symbol
_atom_site_label
_atom_site_fract_x
_atom_site_fract_y
_atom_site_fract_z
Si Si1 0.372989 0.141915 0.164528
Si Si2 0.949763 0.861215 0.660763
Si Si3 0.656711 0.456001 0.420593
Si Si4 0.832508 0.995647 0.838998
Si Si5 0.020456 0.303946 0.423742
Si Si6 0.338592 0.632534 0.720993
Si Si7 0.063146 0.755278 0.126939
Si Si8 0.491763 0.984660 0.126153
O O1 0.183818 0.132102 0.305029
O O2 0.474101 0.179857 0.154938
O O3 0.442093 0.052550 0.105060
O O4 0.401099 0.196594 0.075379
O O5 0.865306 0.904430 0.787589
O O6 0.996387 0.767828 0.620152
O O7 0.098604 0.918124 0.535109
O O8 0.500000 0.500000 0.500000
O O9 0.669419 0.384733 0.355102
O O10 0.837172 0.492425 0.289982
O O11 0.000000 0.023632 0.750000
O O12 0.806287 0.053161 0.790058
O O13 0.680579 0.002314 0.999584
O O14 0.194843 0.304958 0.336415
O O15 0.006079 0.392160 0.399892
O O16 0.505891 0.669415 0.622173
O O17 0.000000 0.767196 0.250000
O O18 0.250000 0.750000 0.000000
#
# Coordination Sequence:
#
# PCOD9302588 Si02
#       8
#     8   8   8   8   8   8   8   8
#     4  12  22  41  71  98 137 178 233 274 341 410
#     4  12  24  43  69 104 136 179 231 291 350 397
#     4  11  22  38  66 104 137 165 230 294 337 391
#     4  12  26  46  71  98 138 187 236 279 345 423
#     4  11  22  40  72 105 125 168 232 297 334 398
#     4  11  22  41  69  99 135 183 227 272 337 416
#     4  12  28  42  60 100 150 185 215 268 342 423
#     4  11  24  41  68 104 130 176 229 286 339 411
#
# _framework density 24.139246
#
# number of rings (size 3 to 8) (size 9 to 14) (size 15 to 20)
#    0.000    0.500    6.250    3.000    5.250    0.000 
#    0.000    1.250    0.000    0.750    0.000    0.000 
#    0.000    0.000    0.000    0.000    0.000    0.000 
#
# Total GULP energy -178513.988503 kJ/mol
# GULP energy per Si atom -5578.562141 kJ/mol
# Density = 2.408430 g / cm^3
# Si number density = 24.139246 Si / 1000 Ang^3
#
#
#
# Elastic Constant Matrix: (Units=GPa)
#
#
# Indices 1 2 3 4 5 6 
#
# 1 35.5217 -8.3318 14.4533 -0.0012 -24.1659 0.0005
# 2 -8.3318 96.0548 -1.7857 -0.0026 -5.9090 0.0001
# 3 14.4533 -1.7857 146.7529 -0.0038 -37.7001 -0.0004
# 4 -0.0012 -0.0026 -0.0038 25.0289 0.0005 -1.8761
# 5 -24.1659 -5.9090 -37.7001 0.0005 38.2317 0.0006
# 6 0.0005 0.0001 -0.0004 -1.8761 0.0006 24.7493
#
#
#
# Elastic Compliance Matrix: (Units=1/GPa)
#
#
# Indices 1 2 3 4 5 6 
#
# 1 0.056387 0.007580 0.005352 0.000003 0.042090 -0.000002
# 2 0.007580 0.011588 0.001454 0.000002 0.008016 0.000000
# 3 0.005352 0.001454 0.009685 0.000002 0.013158 0.000000
# 4 0.000003 0.000002 0.000002 0.040182 0.000003 0.003046
# 5 0.042090 0.008016 0.013158 0.000003 0.066975 -0.000002
# 6 -0.000002 0.000000 0.000000 0.003046 -0.000002 0.040636
#
#
# Mechanical properties :
#
#
# Convention : Reuss Voigt Hill
#
# Bulk Modulus (GPa) = 9.39586 31.88902 20.64244
# Shear Modulus (GPa) = 21.53691 35.86821 28.70256
#
# Velocity S-wave (km/s) = 2.99020 3.85890 3.45199
# Velocity P-wave (km/s) = 3.97776 5.75274 4.94553
#
# Compressibility (1/GPa) = 0.10642989
#
# Stress axis : x y z
#
# Youngs Moduli (GPa) = 17.73467 86.29397 103.25326
#
# Poissons Ratio (x) = -0.65408 -0.55257
# Poissons Ratio (y) = -0.13442 -0.15009
# Poissons Ratio (z) = -0.09491 -0.12544
#
# Static dielectric constant tensor:
#      x y z
#    x 1.918810 0.000000 -0.016160 
#    y 0.000000 2.030960 0.000000 
#    z -0.016160 0.000000 2.105230 
# 
# From -- ./inp_files/249634.got.cif
#   From: 2010.05.17/outbox.cif.g08.bks.cpg/sg15_125_cif.got.tgz:249634.got - 2010.06.03 18:47:42.
