data_PCOD9302302
_publ_section_title
;
Structure prediction by ZEFSAII (Michael W. Deem and Ramdas Pophale) SiO2 
 PCOD9302302
Probable space group: C 2/C
;
_chemical_formula_sum "Si O2"
_cell_formula_units_Z 64
_cell_length_a 18.728637
_cell_length_b 8.248708
_cell_length_c 22.248994
_cell_angle_alpha 90.000000
_cell_angle_beta 126.325068
_cell_angle_gamma 90.000000
_cell_volume 2769.231327
_symmetry_space_group_name_H-M "C 2/C"
_symmetry_group_IT_number 15
_symmetry_cell_setting 'monoclinic'
loop_
_space_group_symop_operation_xyz
x,y,z
-x,y,1/2-z
-x,-y,-z
x,-y,1/2+z
1/2+x,1/2+y,z
1/2-x,1/2+y,1/2-z
1/2-x,1/2-y,-z
1/2+x,1/2-y,1/2+z
loop_
_atom_site_type_symbol
_atom_site_label
_atom_site_fract_x
_atom_site_fract_y
_atom_site_fract_z
Si Si1 0.086728 0.391337 0.769192
Si Si2 0.515574 0.327737 0.852575
Si Si3 0.668269 0.179006 0.538165
Si Si4 0.156926 0.813765 0.207462
Si Si5 0.424850 0.418366 0.921361
Si Si6 0.125777 0.837042 0.398159
Si Si7 0.227879 0.549871 0.153453
Si Si8 0.368172 0.781873 0.183313
O O1 0.084434 0.290627 0.707571
O O2 0.098253 0.259573 0.825883
O O3 0.155197 0.540240 0.803078
O O4 0.000000 0.482238 0.750000
O O5 0.475025 0.302270 0.898104
O O6 0.566355 0.501413 0.875398
O O7 0.589651 0.209338 0.862071
O O8 0.434447 0.306432 0.764578
O O9 0.647279 0.329902 0.572574
O O10 0.768170 0.146080 0.562728
O O11 0.615372 0.226451 0.452195
O O12 0.651617 0.027238 0.574050
O O13 0.118631 0.946822 0.143430
O O14 0.205025 0.675280 0.194037
O O15 0.218852 0.903224 0.287541
O O16 0.500000 0.500000 0.000000
O O17 0.287536 0.659805 0.140181
#
# Coordination Sequence:
#
# PCOD9302302 Si02
#       8
#     8   8   8   8   8   8   8   8
#     4  12  25  41  69 104 136 172 236 286 338 408
#     4  11  21  45  67  96 134 180 226 274 347 406
#     4  11  25  44  67 100 132 186 226 280 345 421
#     4  12  26  42  70 101 134 184 223 286 346 408
#     4  12  26  46  69  98 138 183 230 281 355 421
#     4  11  24  44  69  95 138 182 232 276 345 419
#     4  12  24  44  69 100 138 175 232 283 344 420
#     4  11  24  41  69 104 133 177 228 289 337 406
#
# _framework density 23.111107000000001
#
# number of rings (size 3 to 8) (size 9 to 14) (size 15 to 20)
#    0.000    0.500    6.250    2.250    7.000    0.000 
#    2.250    1.250    0.000    0.000    0.000    0.000 
#    0.000    0.000    0.000    0.000    0.000    0.000 
#
# Total GULP energy -178510.072042 kJ/mol
# GULP energy per Si atom -5578.439751 kJ/mol
# Density = 2.305850 g / cm^3
# Si number density = 23.111107 Si / 1000 Ang^3
#
#
#
# Elastic Constant Matrix: (Units=GPa)
#
#
# Indices 1 2 3 4 5 6 
#
# 1 73.4160 24.5330 21.1205 0.0000 -22.5705 0.0000
# 2 24.5330 38.4270 2.9356 0.0000 -11.0008 0.0000
# 3 21.1205 2.9356 54.1211 0.0000 -23.4748 0.0000
# 4 0.0000 0.0000 0.0000 9.4651 0.0000 -13.5235
# 5 -22.5705 -11.0008 -23.4748 0.0000 31.8104 0.0000
# 6 0.0000 0.0000 0.0000 -13.5235 0.0000 27.9231
#
#
#
# Elastic Compliance Matrix: (Units=1/GPa)
#
#
# Indices 1 2 3 4 5 6 
#
# 1 0.020846 -0.010675 -0.004032 0.000000 0.008123 0.000000
# 2 -0.010675 0.034971 0.006220 0.000000 0.009110 0.000000
# 3 -0.004032 0.006220 0.028541 0.000000 0.020352 0.000000
# 4 0.000000 0.000000 0.000000 0.342992 0.000000 0.166115
# 5 0.008123 0.009110 0.020352 0.000000 0.055370 0.000000
# 6 0.000000 0.000000 0.000000 0.166115 0.000000 0.116264
#
#
# Mechanical properties :
#
#
# Convention : Reuss Voigt Hill
#
# Bulk Modulus (GPa) = 14.84031 29.23803 22.03917
# Shear Modulus (GPa) = 7.83185 21.66474 14.74829
#
# Velocity S-wave (km/s) = 1.84286 3.06505 2.52890
# Velocity P-wave (km/s) = 3.31110 5.02041 4.25253
#
# Compressibility (1/GPa) = 0.06738404
#
# Stress axis : x y z
#
# Youngs Moduli (GPa) = 47.97184 28.59485 35.03728
#
# Poissons Ratio (x) = 0.30525 0.14129
# Poissons Ratio (y) = 0.51210 -0.21795
# Poissons Ratio (z) = 0.19345 -0.17787
#
# Static dielectric constant tensor:
#      x y z
#    x 2.051070 0.000000 0.045250 
#    y 0.000000 1.869370 0.000000 
#    z 0.045250 0.000000 1.835860 
# 
# From -- ./inp_files/251924.got.cif
#   From: 2010.05.17/outbox.cif.g08.bks.cpg/sg15_126_cif.got.tgz:251924.got - 2010.06.03 18:47:42.
