data_PCOD9302847
_publ_section_title
;
Structure prediction by ZEFSAII (Michael W. Deem and Ramdas Pophale) SiO2 
 PCOD9302847
Probable space group: C 2/C
;
_chemical_formula_sum "Si O2"
_cell_formula_units_Z 56
_cell_length_a 16.944140
_cell_length_b 18.236869
_cell_length_c 12.008070
_cell_angle_alpha 90.000000
_cell_angle_beta 128.067983
_cell_angle_gamma 90.000000
_cell_volume 2921.272523
_symmetry_space_group_name_H-M "C 2/C"
_symmetry_group_IT_number 15
_symmetry_cell_setting 'monoclinic'
loop_
_space_group_symop_operation_xyz
x,y,z
-x,y,1/2-z
-x,-y,-z
x,-y,1/2+z
1/2+x,1/2+y,z
1/2-x,1/2+y,1/2-z
1/2-x,1/2-y,-z
1/2+x,1/2-y,1/2+z
loop_
_atom_site_type_symbol
_atom_site_label
_atom_site_fract_x
_atom_site_fract_y
_atom_site_fract_z
Si Si1 0.956504 0.921402 0.428610
Si Si2 0.169815 0.697938 0.667244
Si Si3 0.770325 0.922772 0.103157
Si Si4 0.232171 0.588591 0.111232
Si Si5 0.458922 0.819900 0.097056
Si Si6 0.329949 0.359706 0.918568
Si Si7 0.165663 0.828415 0.002278
O O1 0.877379 0.926145 0.259607
O O2 0.899068 0.886531 0.483735
O O3 0.050620 0.871457 0.477470
O O4 0.000000 0.000000 0.500000
O O5 0.201032 0.630871 0.615650
O O6 0.192418 0.774806 0.626496
O O7 0.239106 0.692288 0.837829
O O8 0.054100 0.693855 0.601644
O O9 0.729293 0.005352 0.066750
O O10 0.785373 0.889310 0.994447
O O11 0.285299 0.594233 0.276684
O O12 0.122957 0.624946 0.023096
O O13 0.296215 0.636518 0.078822
O O14 0.500000 0.849377 0.250000
O O15 0.401867 0.743468 0.071635
#
# Coordination Sequence:
#
# PCOD9302847 Si02
#       7
#     8   8   8   8   8   8   8
#     4  11  22  40  67 100 132 175 217 278 340 394
#     4  11  24  46  67  99 135 178 228 274 331 408
#     4  11  27  44  67  97 143 178 220 275 335 409
#     4  12  25  41  68 101 135 175 225 280 338 394
#     4  12  23  40  70  99 132 175 225 279 332 399
#     4  12  23  43  68  98 137 177 223 274 339 399
#     4  11  23  40  67 102 133 168 226 283 337 391
#
# _framework density 19.169729
#
# number of rings (size 3 to 8) (size 9 to 14) (size 15 to 20)
#    0.000    0.571    5.714    3.000    2.000    0.571 
#    0.000    0.714    0.000    0.000    0.000    0.000 
#    0.000    0.000    0.000    0.000    0.000    0.000 
#
# Total GULP energy -156692.241617 kJ/mol
# GULP energy per Si atom -5596.151486 kJ/mol
# Density = 1.912610 g / cm^3
# Si number density = 19.169729 Si / 1000 Ang^3
#
#
#
# Elastic Constant Matrix: (Units=GPa)
#
#
# Indices 1 2 3 4 5 6 
#
# 1 113.7731 43.4819 45.1342 0.0000 -8.1001 0.0000
# 2 43.4819 100.3243 22.1837 0.0000 -3.7817 0.0000
# 3 45.1342 22.1837 74.4574 0.0000 -14.0353 0.0000
# 4 0.0000 0.0000 0.0000 18.4942 0.0000 10.7225
# 5 -8.1001 -3.7817 -14.0353 0.0000 34.5720 0.0000
# 6 0.0000 0.0000 0.0000 10.7225 0.0000 24.2570
#
#
#
# Elastic Compliance Matrix: (Units=1/GPa)
#
#
# Indices 1 2 3 4 5 6 
#
# 1 0.013023 -0.004173 -0.006672 0.000000 -0.000114 0.000000
# 2 -0.004173 0.012009 -0.001066 0.000000 -0.000097 0.000000
# 3 -0.006672 -0.001066 0.018924 0.000000 0.006003 0.000000
# 4 0.000000 0.000000 0.000000 0.072704 0.000000 -0.032138
# 5 -0.000114 -0.000097 0.006003 0.000000 0.031325 0.000000
# 6 0.000000 0.000000 0.000000 -0.032138 0.000000 0.055432
#
#
# Mechanical properties :
#
#
# Convention : Reuss Voigt Hill
#
# Bulk Modulus (GPa) = 49.67224 56.68379 53.17802
# Shear Modulus (GPa) = 21.37196 27.31496 24.34346
#
# Velocity S-wave (km/s) = 3.34260 3.77888 3.56742
# Velocity P-wave (km/s) = 6.39261 6.97664 6.69100
#
# Compressibility (1/GPa) = 0.02013197
#
# Stress axis : x y z
#
# Youngs Moduli (GPa) = 76.78560 83.27378 52.84169
#
# Poissons Ratio (x) = 0.34753 0.35259
# Poissons Ratio (y) = 0.32045 0.05635
# Poissons Ratio (z) = 0.51235 0.08880
#
# Static dielectric constant tensor:
#      x y z
#    x 1.645130 0.000000 0.007230 
#    y 0.000000 1.662090 0.000000 
#    z 0.007230 0.000000 1.652570 
# 
# From -- ./inp_files/106730.got.cif
#   From: 2010.05.17/outbox.cif.g08.bks.cpg/sg15_54_cif.got.tgz:106730.got - 2010.06.03 18:47:42.
