data_PCOD9302865
_publ_section_title
;
Structure prediction by ZEFSAII (Michael W. Deem and Ramdas Pophale) SiO2 
 PCOD9302865
Probable space group: C 2/C
;
_chemical_formula_sum "Si O2"
_cell_formula_units_Z 56
_cell_length_a 11.674601
_cell_length_b 9.130880
_cell_length_c 26.985120
_cell_angle_alpha 90.000000
_cell_angle_beta 118.572565
_cell_angle_gamma 90.000000
_cell_volume 2526.262328
_symmetry_space_group_name_H-M "C 2/C"
_symmetry_group_IT_number 15
_symmetry_cell_setting 'monoclinic'
loop_
_space_group_symop_operation_xyz
x,y,z
-x,y,1/2-z
-x,-y,-z
x,-y,1/2+z
1/2+x,1/2+y,z
1/2-x,1/2+y,1/2-z
1/2-x,1/2-y,-z
1/2+x,1/2-y,1/2+z
loop_
_atom_site_type_symbol
_atom_site_label
_atom_site_fract_x
_atom_site_fract_y
_atom_site_fract_z
Si Si1 0.706269 0.511424 0.348763
Si Si2 0.555175 0.775120 0.340323
Si Si3 0.496269 0.344191 0.127277
Si Si4 0.840381 0.965766 0.769952
Si Si5 0.465245 0.911072 0.794119
Si Si6 0.897371 0.701325 0.016215
Si Si7 0.511777 0.891851 0.069759
O O1 0.682055 0.684591 0.350384
O O2 0.625969 0.436392 0.376589
O O3 0.645292 0.472544 0.282842
O O4 0.854186 0.461833 0.381610
O O5 0.433299 0.674516 0.297423
O O6 0.536598 0.933208 0.312687
O O7 0.548516 0.798070 0.398112
O O8 0.618983 0.424492 0.177808
O O9 0.486618 0.310279 0.067608
O O10 0.488420 0.186702 0.151297
O O11 0.689310 0.927816 0.739173
O O12 0.500000 0.836609 0.750000
O O13 0.921780 0.529836 0.035680
O O14 0.750000 0.750000 0.000000
O O15 0.942866 0.702184 0.968456
#
# Coordination Sequence:
#
# PCOD9302865 Si02
#       7
#     8   8   8   8   8   8   8
#     4  11  22  44  69  97 141 179 220 280 350 418
#     4  11  23  41  64 100 133 176 225 273 343 410
#     4  11  22  40  67  97 129 180 227 279 343 403
#     4  11  23  40  64  98 142 179 219 277 353 417
#     4  12  23  35  62 100 136 174 224 273 335 419
#     4  11  23  44  74  95 132 185 238 283 343 397
#     4  11  24  45  73  97 133 186 227 288 344 396
#
# _framework density 22.167134999999998
#
# number of rings (size 3 to 8) (size 9 to 14) (size 15 to 20)
#    0.000    0.857    4.286    4.286    2.000    1.143 
#    0.000    5.714    3.143    0.000    0.000    0.000 
#    0.000    0.000    0.000    0.000    0.000    0.000 
#
# Total GULP energy -156542.186302 kJ/mol
# GULP energy per Si atom -5590.792368 kJ/mol
# Density = 2.211668 g / cm^3
# Si number density = 22.167135 Si / 1000 Ang^3
#
#
#
# Elastic Constant Matrix: (Units=GPa)
#
#
# Indices 1 2 3 4 5 6 
#
# 1 55.4615 6.1159 17.2584 0.0000 -2.8858 0.0000
# 2 6.1159 83.5808 11.0151 0.0000 12.1891 0.0000
# 3 17.2584 11.0151 111.5308 0.0000 -16.4457 0.0000
# 4 0.0000 0.0000 0.0000 56.5742 0.0000 -1.7822
# 5 -2.8858 12.1891 -16.4457 0.0000 27.8588 0.0000
# 6 0.0000 0.0000 0.0000 -1.7822 0.0000 26.2046
#
#
#
# Elastic Compliance Matrix: (Units=1/GPa)
#
#
# Indices 1 2 3 4 5 6 
#
# 1 0.019046 -0.001167 -0.002701 0.000000 0.000889 0.000000
# 2 -0.001167 0.013407 -0.002219 0.000000 -0.007297 0.000000
# 3 -0.002701 -0.002219 0.010631 0.000000 0.006967 0.000000
# 4 0.000000 0.000000 0.000000 0.017714 0.000000 0.001205
# 5 0.000889 -0.007297 0.006967 0.000000 0.043293 0.000000
# 6 0.000000 0.000000 0.000000 0.001205 0.000000 0.038243
#
#
# Mechanical properties :
#
#
# Convention : Reuss Voigt Hill
#
# Bulk Modulus (GPa) = 32.35421 35.48357 33.91889
# Shear Modulus (GPa) = 30.33786 36.53975 33.43881
#
# Velocity S-wave (km/s) = 3.70347 4.06442 3.88814
# Velocity P-wave (km/s) = 5.73714 6.16993 5.95747
#
# Compressibility (1/GPa) = 0.03090788
#
# Stress axis : x y z
#
# Youngs Moduli (GPa) = 52.50456 74.59050 94.06871
#
# Poissons Ratio (x) = 0.08708 0.25406
# Poissons Ratio (y) = 0.06130 0.20877
# Poissons Ratio (z) = 0.14180 0.16554
#
# Static dielectric constant tensor:
#      x y z
#    x 2.118240 0.000000 0.521990 
#    y 0.000000 1.821720 0.000000 
#    z 0.521990 0.000000 2.957310 
# 
# From -- ./inp_files/291610.got.cif
#   From: 2010.05.17/outbox.cif.g08.bks.cpg/sg15_146_cif.got.tgz:291610.got - 2010.06.03 18:47:42.
