data_PCOD9302380
_publ_section_title
;
Structure prediction by ZEFSAII (Michael W. Deem and Ramdas Pophale) SiO2 
 PCOD9302380
Probable space group: C 2/C
;
_chemical_formula_sum "Si O2"
_cell_formula_units_Z 40
_cell_length_a 8.951796
_cell_length_b 15.776915
_cell_length_c 16.843537
_cell_angle_alpha 90.000000
_cell_angle_beta 128.076958
_cell_angle_gamma 90.000000
_cell_volume 1872.584057
_symmetry_space_group_name_H-M "C 2/C"
_symmetry_group_IT_number 15
_symmetry_cell_setting 'monoclinic'
loop_
_space_group_symop_operation_xyz
x,y,z
-x,y,1/2-z
-x,-y,-z
x,-y,1/2+z
1/2+x,1/2+y,z
1/2-x,1/2+y,1/2-z
1/2-x,1/2-y,-z
1/2+x,1/2-y,1/2+z
loop_
_atom_site_type_symbol
_atom_site_label
_atom_site_fract_x
_atom_site_fract_y
_atom_site_fract_z
Si Si1 0.329912 0.163229 0.755772
Si Si2 0.794950 0.858853 0.960022
Si Si3 0.921040 0.676287 0.963189
Si Si4 0.360442 0.842777 0.821275
Si Si5 0.269138 0.010714 0.182339
O O1 0.500000 0.175347 0.750000
O O2 0.408041 0.145954 0.869627
O O3 0.224878 0.252124 0.724340
O O4 0.206508 0.083520 0.684945
O O5 0.917416 0.779103 0.970958
O O6 0.577211 0.839526 0.860824
O O7 0.823302 0.947858 0.925988
O O8 0.759467 0.855195 0.042992
O O9 0.103292 0.644998 0.072631
O O10 0.248082 0.919144 0.744298
O O11 0.500000 0.001330 0.250000
#
# Coordination Sequence:
#
# PCOD9302380 Si02
#       5
#     8   8   8   8   8
#     4  11  22  33  52  78 112 143 169 207 273 319
#     4   8  16  33  60  80  95 130 185 229 251 291
#     4   9  18  32  60  79  99 136 184 218 259 307
#     4   9  18  34  57  73 105 139 174 218 256 308
#     4   9  17  33  54  79 102 135 175 220 254 306
#
# _framework density 21.360856999999999
#
# number of rings (size 3 to 8) (size 9 to 14) (size 15 to 20)
#    1.200    1.600    2.000    0.000    0.000    1.600 
#    0.000    1.000    4.400    0.000    0.000    0.000 
#    0.000    0.000    0.000    0.000    0.000    0.000 
#
# Total GULP energy -111334.866975 kJ/mol
# GULP energy per Si atom -5566.743349 kJ/mol
# Density = 2.131224 g / cm^3
# Si number density = 21.360857 Si / 1000 Ang^3
#
#
#
# Elastic Constant Matrix: (Units=GPa)
#
#
# Indices 1 2 3 4 5 6 
#
# 1 27.4572 24.0343 23.3157 0.0000 -8.8980 0.0000
# 2 24.0343 113.1508 2.5034 0.0000 -3.2063 0.0000
# 3 23.3157 2.5034 69.8069 0.0000 -32.9783 0.0000
# 4 0.0000 0.0000 0.0000 -0.9732 0.0000 -4.5078
# 5 -8.8980 -3.2063 -32.9783 0.0000 27.0482 0.0000
# 6 0.0000 0.0000 0.0000 -4.5078 0.0000 21.9967
#
#
#
# Elastic Compliance Matrix: (Units=1/GPa)
#
#
# Indices 1 2 3 4 5 6 
#
# 1 0.069691 -0.014576 -0.030046 0.000000 -0.015435 0.000000
# 2 -0.014576 0.011921 0.006705 0.000000 0.004794 0.000000
# 3 -0.030046 0.006705 0.046759 0.000000 0.047921 0.000000
# 4 0.000000 0.000000 0.000000 -0.527157 0.000000 -0.108032
# 5 -0.015435 0.004794 0.047921 0.000000 0.090889 0.000000
# 6 0.000000 0.000000 0.000000 -0.108032 0.000000 0.023322
#
#
# Mechanical properties :
#
#
# Convention : Reuss Voigt Hill
#
# Bulk Modulus (GPa) = 19.03350 34.45797 26.74573
# Shear Modulus (GPa) = -26.14667 20.31846 -2.91411
#
# Velocity S-wave (km/s) = -3.50243 3.08750 -1.16927
# Velocity P-wave (km/s) = 2.72511 5.37369 3.27493
#
# Compressibility (1/GPa) = 0.05253895
#
# Stress axis : x y z
#
# Youngs Moduli (GPa) = 14.34911 83.88396 21.38613
#
# Poissons Ratio (x) = 1.22266 0.64257
# Poissons Ratio (y) = 0.20915 -0.14340
# Poissons Ratio (z) = 0.43113 -0.56248
#
# Static dielectric constant tensor:
#      x y z
#    x 1.802340 0.000000 -0.008560 
#    y 0.000000 1.803940 0.000000 
#    z -0.008560 0.000000 1.851220 
# 
# From -- ./inp_files/196987.got.cif
#   From: 2010.05.17/outbox.cif.g08.bks.cpg/sg15_99_cif.got.tgz:196987.got - 2010.06.03 18:47:42.
