data_PCOD9302133
_publ_section_title
;
Structure prediction by ZEFSAII (Michael W. Deem and Ramdas Pophale) SiO2 
 PCOD9302133
Probable space group: C 2/C
;
_chemical_formula_sum "Si O2"
_cell_formula_units_Z 40
_cell_length_a 26.331629
_cell_length_b 12.242835
_cell_length_c 11.260365
_cell_angle_alpha 90.000000
_cell_angle_beta 31.179310
_cell_angle_gamma 90.000000
_cell_volume 1879.340780
_symmetry_space_group_name_H-M "C 2/C"
_symmetry_group_IT_number 15
_symmetry_cell_setting 'monoclinic'
loop_
_space_group_symop_operation_xyz
x,y,z
-x,y,1/2-z
-x,-y,-z
x,-y,1/2+z
1/2+x,1/2+y,z
1/2-x,1/2+y,1/2-z
1/2-x,1/2-y,-z
1/2+x,1/2-y,1/2+z
loop_
_atom_site_type_symbol
_atom_site_label
_atom_site_fract_x
_atom_site_fract_y
_atom_site_fract_z
Si Si1 0.134517 0.647529 0.005286
Si Si2 0.712279 0.443288 0.134577
Si Si3 0.412495 0.037815 0.084511
Si Si4 0.342296 0.309290 0.754148
Si Si5 0.553992 0.741541 0.903168
O O1 0.239014 0.610827 0.847553
O O2 0.094616 0.542803 0.012770
O O3 0.143095 0.746086 0.897541
O O4 0.074923 0.693395 0.237587
O O5 0.671976 0.563084 0.238395
O O6 0.630394 0.358193 0.254305
O O7 0.805181 0.463773 0.861318
O O8 0.429357 0.166404 0.029635
O O9 0.500000 0.000000 0.000000
O O10 0.441872 0.294438 0.629181
O O11 0.250000 0.250000 0.000000
#
# Coordination Sequence:
#
# PCOD9302133 Si02
#       5
#     8   8   8   8   8
#     4  11  24  42  71 102 134 186 232 277 357 416
#     4  11  26  42  71  99 146 180 233 295 353 422
#     4  11  21  42  68 102 134 179 233 289 338 416
#     4  12  24  45  68 102 140 181 230 295 349 416
#     4  11  25  46  70 101 144 184 237 284 362 424
#
# _framework density 21.284058000000002
#
# number of rings (size 3 to 8) (size 9 to 14) (size 15 to 20)
#    0.000    0.800    4.000    3.600    8.400    0.000 
#    0.000    1.000    0.000    0.000    0.000    0.000 
#    0.000    0.000    0.000    0.000    0.000    0.000 
#
# Total GULP energy -111757.161788 kJ/mol
# GULP energy per Si atom -5587.858089 kJ/mol
# Density = 2.123561 g / cm^3
# Si number density = 21.284058 Si / 1000 Ang^3
#
#
#
# Elastic Constant Matrix: (Units=GPa)
#
#
# Indices 1 2 3 4 5 6 
#
# 1 94.3763 56.4806 51.7873 0.0000 -25.7071 0.0000
# 2 56.4806 185.7888 68.1489 0.0000 -26.9969 0.0000
# 3 51.7873 68.1489 104.1001 0.0000 -36.3264 0.0000
# 4 0.0000 0.0000 0.0000 25.5297 0.0000 -14.8222
# 5 -25.7071 -26.9969 -36.3264 0.0000 32.0661 0.0000
# 6 0.0000 0.0000 0.0000 -14.8222 0.0000 45.7050
#
#
#
# Elastic Compliance Matrix: (Units=1/GPa)
#
#
# Indices 1 2 3 4 5 6 
#
# 1 0.016032 -0.002429 -0.004323 0.000000 0.005910 0.000000
# 2 -0.002429 0.007478 -0.003588 0.000000 0.000284 0.000000
# 3 -0.004323 -0.003588 0.019584 0.000000 0.015700 0.000000
# 4 0.000000 0.000000 0.000000 0.048256 0.000000 0.015649
# 5 0.005910 0.000284 0.015700 0.000000 0.053948 0.000000
# 6 0.000000 0.000000 0.000000 0.015649 0.000000 0.026955
#
#
# Mechanical properties :
#
#
# Convention : Reuss Voigt Hill
#
# Bulk Modulus (GPa) = 44.61534 81.89988 63.25761
# Shear Modulus (GPa) = 24.94963 34.51672 29.73318
#
# Velocity S-wave (km/s) = 3.42749 4.03142 3.74166
# Velocity P-wave (km/s) = 6.05565 7.76098 6.96074
#
# Compressibility (1/GPa) = 0.02241382
#
# Stress axis : x y z
#
# Youngs Moduli (GPa) = 62.37709 133.71888 51.06209
#
# Poissons Ratio (x) = 0.32484 0.22072
# Poissons Ratio (y) = 0.15153 0.18322
# Poissons Ratio (z) = 0.26963 0.47981
#
# Static dielectric constant tensor:
#      x y z
#    x 1.797860 0.000000 0.001680 
#    y 0.000000 1.764220 0.000000 
#    z 0.001680 0.000000 1.849450 
# 
# From -- ./inp_files/122795.got.cif
#   From: 2010.05.17/outbox.cif.g08.bks.cpg/sg15_62_cif.got.tgz:122795.got - 2010.06.03 18:47:42.
