data_PCOD9302039
_publ_section_title
;
Structure prediction by ZEFSAII (Michael W. Deem and Ramdas Pophale) SiO2 
 PCOD9302039
Probable space group: C 2/C
;
_chemical_formula_sum "Si O2"
_cell_formula_units_Z 64
_cell_length_a 31.913605
_cell_length_b 20.841627
_cell_length_c 15.773998
_cell_angle_alpha 90.000000
_cell_angle_beta 162.461045
_cell_angle_gamma 90.000000
_cell_volume 3161.742160
_symmetry_space_group_name_H-M "C 2/C"
_symmetry_group_IT_number 15
_symmetry_cell_setting 'monoclinic'
loop_
_space_group_symop_operation_xyz
x,y,z
-x,y,1/2-z
-x,-y,-z
x,-y,1/2+z
1/2+x,1/2+y,z
1/2-x,1/2+y,1/2-z
1/2-x,1/2-y,-z
1/2+x,1/2-y,1/2+z
loop_
_atom_site_type_symbol
_atom_site_label
_atom_site_fract_x
_atom_site_fract_y
_atom_site_fract_z
Si Si1 0.850190 0.715505 0.972723
Si Si2 0.805763 0.597606 0.754793
Si Si3 0.152155 0.284334 0.379192
Si Si4 0.330785 0.167080 0.421771
Si Si5 0.259225 0.318733 0.067775
Si Si6 0.883722 0.462807 0.953713
Si Si7 0.036851 0.392557 0.557948
Si Si8 0.027573 0.842964 0.702475
O O1 0.829870 0.657808 0.865730
O O2 0.733311 0.770342 0.745495
O O3 0.848110 0.686698 0.061774
O O4 0.000000 0.746647 0.250000
O O5 0.656869 0.612367 0.424981
O O6 0.800766 0.528872 0.789776
O O7 0.932649 0.591166 0.933489
O O8 0.250000 0.250000 0.500000
O O9 0.224422 0.329695 0.587994
O O10 0.087891 0.228320 0.311497
O O11 0.030796 0.325798 0.104606
O O12 0.296272 0.100369 0.310316
O O13 0.500000 0.167677 0.750000
O O14 0.400139 0.339651 0.389589
O O15 0.250000 0.250000 0.000000
O O16 0.194590 0.375177 0.886743
O O17 0.000000 0.471489 0.250000
O O18 0.957532 0.443291 0.007437
O O19 0.000000 0.856291 0.750000
#
# Coordination Sequence:
#
# PCOD9302039 Si02
#       8
#     8   8   8   8   8   8   8   8
#     4  12  23  40  66  98 136 169 224 285 337 398
#     4  12  25  44  67  98 131 183 238 278 336 409
#     4  12  20  36  65 102 133 166 219 285 344 401
#     4  11  21  41  68  94 128 178 222 271 342 413
#     4  12  24  37  63 105 139 171 220 283 347 406
#     4  11  25  44  70  97 137 182 232 280 346 415
#     4  12  23  41  66 102 135 175 227 290 340 400
#     4  12  24  40  66  98 135 181 227 279 347 413
#
# _framework density 20.242004000000001
#
# number of rings (size 3 to 8) (size 9 to 14) (size 15 to 20)
#    0.000    0.250    8.750    2.625    0.000    0.000 
#    0.000    1.250    0.000    0.000    0.000    0.000 
#    0.000    0.000    0.000    0.000    0.000    0.000 
#
# Total GULP energy -178428.299015 kJ/mol
# GULP energy per Si atom -5575.884344 kJ/mol
# Density = 2.019593 g / cm^3
# Si number density = 20.242004 Si / 1000 Ang^3
#
#
#
# Elastic Constant Matrix: (Units=GPa)
#
#
# Indices 1 2 3 4 5 6 
#
# 1 80.0378 21.7833 24.3164 0.0000 -11.8209 0.0000
# 2 21.7833 126.5136 46.7223 0.0000 -4.4770 0.0000
# 3 24.3164 46.7223 102.4451 0.0000 -9.0265 0.0000
# 4 0.0000 0.0000 0.0000 19.4753 0.0000 -0.6905
# 5 -11.8209 -4.4770 -9.0265 0.0000 26.0369 0.0000
# 6 0.0000 0.0000 0.0000 -0.6905 0.0000 18.8260
#
#
#
# Elastic Compliance Matrix: (Units=1/GPa)
#
#
# Indices 1 2 3 4 5 6 
#
# 1 0.014389 -0.001444 -0.002273 0.000000 0.005497 0.000000
# 2 -0.001444 0.009651 -0.004095 0.000000 -0.000416 0.000000
# 3 -0.002273 -0.004095 0.012394 0.000000 0.002561 0.000000
# 4 0.000000 0.000000 0.000000 0.051414 0.000000 0.001886
# 5 0.005497 -0.000416 0.002561 0.000000 0.041719 0.000000
# 6 0.000000 0.000000 0.000000 0.001886 0.000000 0.053187
#
#
# Mechanical properties :
#
#
# Convention : Reuss Voigt Hill
#
# Bulk Modulus (GPa) = 48.05245 54.96006 51.50625
# Shear Modulus (GPa) = 24.35288 27.27927 25.81608
#
# Velocity S-wave (km/s) = 3.47232 3.67503 3.57511
# Velocity P-wave (km/s) = 6.31399 6.72445 6.52245
#
# Compressibility (1/GPa) = 0.02081059
#
# Stress axis : x y z
#
# Youngs Moduli (GPa) = 69.49596 103.62072 80.68312
#
# Poissons Ratio (x) = 0.14960 0.18337
# Poissons Ratio (y) = 0.10033 0.33042
# Poissons Ratio (z) = 0.15794 0.42436
#
# Static dielectric constant tensor:
#      x y z
#    x 1.805930 0.000000 -0.043190 
#    y 0.000000 1.739490 0.000000 
#    z -0.043190 0.000000 1.794550 
# 
# From -- ./inp_files/183141.got.cif
#   From: 2010.05.17/outbox.cif.g08.bks.cpg/sg15_92_cif.got.tgz:183141.got - 2010.06.03 18:47:42.
