data_PCOD9302019
_publ_section_title
;
Structure prediction by ZEFSAII (Michael W. Deem and Ramdas Pophale) SiO2 
 PCOD9302019
Probable space group: C 2/C
;
_chemical_formula_sum "Si O2"
_cell_formula_units_Z 40
_cell_length_a 14.414305
_cell_length_b 18.500984
_cell_length_c 20.517801
_cell_angle_alpha 90.000000
_cell_angle_beta 160.824052
_cell_angle_gamma 90.000000
_cell_volume 1797.278166
_symmetry_space_group_name_H-M "C 2/C"
_symmetry_group_IT_number 15
_symmetry_cell_setting 'monoclinic'
loop_
_space_group_symop_operation_xyz
x,y,z
-x,y,1/2-z
-x,-y,-z
x,-y,1/2+z
1/2+x,1/2+y,z
1/2-x,1/2+y,1/2-z
1/2-x,1/2-y,-z
1/2+x,1/2-y,1/2+z
loop_
_atom_site_type_symbol
_atom_site_label
_atom_site_fract_x
_atom_site_fract_y
_atom_site_fract_z
Si Si1 0.891756 0.673476 0.102994
Si Si2 0.895475 0.205752 0.346278
Si Si3 0.601026 0.406652 0.889266
Si Si4 0.169251 0.044631 0.010872
Si Si5 0.767968 0.356447 0.203668
O O1 0.693977 0.603717 0.969337
O O2 0.000000 0.674279 0.250000
O O3 0.133469 0.670016 0.209922
O O4 0.750000 0.750000 0.000000
O O5 0.828205 0.290473 0.293891
O O6 0.956805 0.166894 0.318813
O O7 0.156661 0.184724 0.565766
O O8 0.500000 0.424492 0.750000
O O9 0.539017 0.470507 0.899180
O O10 0.937157 0.395464 0.111757
O O11 0.500000 0.031045 0.250000
O O12 0.968129 0.085830 0.929203
#
# Coordination Sequence:
#
# PCOD9302019 Si02
#       5
#     8   8   8   8   8
#     4  11  21  41  67 105 140 177 229 284 348 416
#     4  12  23  46  74 104 140 183 234 289 350 415
#     4  12  30  48  68 102 145 192 239 292 347 416
#     4  11  24  46  70 105 142 182 233 283 357 422
#     4  12  25  46  76 104 141 188 232 292 351 422
#
# _framework density 22.255876000000001
#
# number of rings (size 3 to 8) (size 9 to 14) (size 15 to 20)
#    0.000    0.400    6.000    3.600    2.800    3.200 
#    3.600    0.000    0.000    0.000    0.000    0.000 
#    0.000    0.000    0.000    0.000    0.000    0.000 
#
# Total GULP energy -111769.426738 kJ/mol
# GULP energy per Si atom -5588.471337 kJ/mol
# Density = 2.220522 g / cm^3
# Si number density = 22.255876 Si / 1000 Ang^3
#
#
#
# Elastic Constant Matrix: (Units=GPa)
#
#
# Indices 1 2 3 4 5 6 
#
# 1 79.7295 25.1623 18.6563 -0.0159 9.2043 -0.0101
# 2 25.1623 105.5846 31.5012 0.0621 0.6111 0.0208
# 3 18.6563 31.5012 42.3612 -0.0361 -4.3407 0.0045
# 4 -0.0159 0.0621 -0.0361 30.0764 0.0159 -4.0744
# 5 9.2043 0.6111 -4.3407 0.0159 36.6847 -0.0158
# 6 -0.0101 0.0208 0.0045 -4.0744 -0.0158 39.6514
#
#
#
# Elastic Compliance Matrix: (Units=1/GPa)
#
#
# Indices 1 2 3 4 5 6 
#
# 1 0.014958 -0.001850 -0.005662 0.000008 -0.004392 0.000004
# 2 -0.001850 0.012461 -0.008529 -0.000038 -0.000753 -0.000010
# 3 -0.005662 -0.008529 0.033003 0.000052 0.005468 0.000007
# 4 0.000008 -0.000038 0.000052 0.033718 -0.000008 0.003465
# 5 -0.004392 -0.000753 0.005468 -0.000008 0.029021 0.000009
# 6 0.000004 -0.000010 0.000007 0.003465 0.000009 0.025576
#
#
# Mechanical properties :
#
#
# Convention : Reuss Voigt Hill
#
# Bulk Modulus (GPa) = 35.28561 42.03500 38.66030
# Shear Modulus (GPa) = 26.27913 31.43953 28.85933
#
# Velocity S-wave (km/s) = 3.43996 3.76259 3.60489
# Velocity P-wave (km/s) = 5.62732 6.14851 5.89368
#
# Compressibility (1/GPa) = 0.02834017
#
# Stress axis : x y z
#
# Youngs Moduli (GPa) = 66.85285 80.25105 30.30056
#
# Poissons Ratio (x) = 0.14847 0.17156
# Poissons Ratio (y) = 0.12368 0.25842
# Poissons Ratio (z) = 0.37852 0.68444
#
# Static dielectric constant tensor:
#      x y z
#    x 1.722880 -0.000190 -0.028040 
#    y -0.000190 1.846640 -0.000090 
#    z -0.028040 -0.000090 1.845620 
# 
# From -- ./inp_files/38963.got.cif
#   From: 2010.05.17/outbox.cif.g08.bks.cpg/sg15_20_cif.got.tgz:38963.got - 2010.06.03 18:47:42.
