data_PCOD9302695
_publ_section_title
;
Structure prediction by ZEFSAII (Michael W. Deem and Ramdas Pophale) SiO2 
 PCOD9302695
Probable space group: C 2/C
;
_chemical_formula_sum "Si O2"
_cell_formula_units_Z 48
_cell_length_a 10.579879
_cell_length_b 23.042951
_cell_length_c 15.125724
_cell_angle_alpha 90.000000
_cell_angle_beta 37.495608
_cell_angle_gamma 90.000000
_cell_volume 2244.598703
_symmetry_space_group_name_H-M "C 2/C"
_symmetry_group_IT_number 15
_symmetry_cell_setting 'monoclinic'
loop_
_space_group_symop_operation_xyz
x,y,z
-x,y,1/2-z
-x,-y,-z
x,-y,1/2+z
1/2+x,1/2+y,z
1/2-x,1/2+y,1/2-z
1/2-x,1/2-y,-z
1/2+x,1/2-y,1/2+z
loop_
_atom_site_type_symbol
_atom_site_label
_atom_site_fract_x
_atom_site_fract_y
_atom_site_fract_z
Si Si1 0.491950 0.744952 0.073881
Si Si2 0.632336 0.075546 0.005915
Si Si3 0.000000 0.365167 0.750000
Si Si4 0.500000 0.340677 0.250000
Si Si5 0.061078 0.261091 0.851116
Si Si6 0.183756 0.655704 0.577374
Si Si7 0.244535 0.057290 0.096504
O O1 0.300834 0.742902 0.246905
O O2 0.632472 0.797054 0.030130
O O3 0.419675 0.763008 0.015870
O O4 0.604749 0.683293 0.002059
O O5 0.797589 0.118403 0.867888
O O6 0.709938 0.010139 0.947160
O O7 0.626329 0.092745 0.113376
O O8 0.403806 0.077914 0.086034
O O9 0.931895 0.317790 0.713750
O O10 0.494343 0.297284 0.169822
O O11 0.205597 0.594708 0.517898
O O12 0.000000 0.654232 0.750000
O O13 0.000000 0.065895 0.250000
#
# Coordination Sequence:
#
# PCOD9302695 Si02
#       7
#     8   8   4   4   8   8   8
#     4  11  23  39  62  98 139 172 214 277 333 402
#     4  11  25  47  69  98 139 175 231 283 336 401
#     4  11  24  40  68 102 130 177 224 276 334 409
#     4  11  22  44  68  96 136 181 224 274 338 397
#     4  11  22  39  65  98 133 177 218 271 340 399
#     4  11  24  40  65  98 133 178 223 273 337 399
#     4  11  26  48  72  97 131 183 229 283 340 393
#
# _framework density 21.38467
#
# number of rings (size 3 to 8) (size 9 to 14) (size 15 to 20)
#    0.000    1.000    2.500    4.000    5.833    2.667 
#    0.000    0.833    0.000    0.000    0.000    0.000 
#    0.000    0.000    0.000    0.000    0.000    0.000 
#
# Total GULP energy -133935.205399 kJ/mol
# GULP energy per Si atom -5580.633558 kJ/mol
# Density = 2.133600 g / cm^3
# Si number density = 21.384670 Si / 1000 Ang^3
#
#
#
# Elastic Constant Matrix: (Units=GPa)
#
#
# Indices 1 2 3 4 5 6 
#
# 1 57.0807 37.0670 37.9729 -0.0011 -4.7767 0.0006
# 2 37.0670 130.5279 43.1587 -0.0001 4.3499 0.0002
# 3 37.9729 43.1587 107.2295 -0.0010 4.6082 0.0000
# 4 -0.0011 -0.0001 -0.0010 38.0628 0.0007 4.5113
# 5 -4.7767 4.3499 4.6082 0.0007 41.7758 -0.0001
# 6 0.0006 0.0002 0.0000 4.5113 -0.0001 22.3612
#
#
#
# Elastic Compliance Matrix: (Units=1/GPa)
#
#
# Indices 1 2 3 4 5 6 
#
# 1 0.026112 -0.005122 -0.007371 0.000001 0.004332 -0.000001
# 2 -0.005122 0.009854 -0.002093 0.000000 -0.001381 0.000000
# 3 -0.007371 -0.002093 0.012866 0.000000 -0.002044 0.000000
# 4 0.000001 0.000000 0.000000 0.026916 0.000000 -0.005430
# 5 0.004332 -0.001381 -0.002044 0.000000 0.024802 0.000000
# 6 -0.000001 0.000000 0.000000 -0.005430 0.000000 0.045816
#
#
# Mechanical properties :
#
#
# Convention : Reuss Voigt Hill
#
# Bulk Modulus (GPa) = 50.86708 59.02614 54.94661
# Shear Modulus (GPa) = 27.45874 32.21592 29.83733
#
# Velocity S-wave (km/s) = 3.58724 3.88557 3.73938
# Velocity P-wave (km/s) = 6.40281 6.91319 6.66289
#
# Compressibility (1/GPa) = 0.01965908
#
# Stress axis : x y z
#
# Youngs Moduli (GPa) = 38.29711 101.48394 77.72190
#
# Poissons Ratio (x) = 0.51982 0.57292
# Poissons Ratio (y) = 0.19616 0.16266
# Poissons Ratio (z) = 0.28230 0.21239
#
# Static dielectric constant tensor:
#      x y z
#    x 1.892370 0.000000 -0.041340 
#    y 0.000000 1.763770 0.000000 
#    z -0.041340 0.000000 1.739220 
# 
# From -- ./inp_files/147384.got.cif
#   From: 2010.05.17/outbox.cif.g08.bks.cpg/sg15_74_cif.got.tgz:147384.got - 2010.06.03 18:47:42.
