data_PCOD9302623
_publ_section_title
;
Structure prediction by ZEFSAII (Michael W. Deem and Ramdas Pophale) SiO2 
 PCOD9302623
Probable space group: C 2/C
;
_chemical_formula_sum "Si O2"
_cell_formula_units_Z 64
_cell_length_a 22.008690
_cell_length_b 19.077852
_cell_length_c 18.911815
_cell_angle_alpha 90.000000
_cell_angle_beta 23.489416
_cell_angle_gamma 90.000000
_cell_volume 3164.987574
_symmetry_space_group_name_H-M "C 2/C"
_symmetry_group_IT_number 15
_symmetry_cell_setting 'monoclinic'
loop_
_space_group_symop_operation_xyz
x,y,z
-x,y,1/2-z
-x,-y,-z
x,-y,1/2+z
1/2+x,1/2+y,z
1/2-x,1/2+y,1/2-z
1/2-x,1/2-y,-z
1/2+x,1/2-y,1/2+z
loop_
_atom_site_type_symbol
_atom_site_label
_atom_site_fract_x
_atom_site_fract_y
_atom_site_fract_z
Si Si1 0.657524 0.084714 0.159352
Si Si2 0.391207 0.326963 0.651583
Si Si3 0.667445 0.416053 0.169532
Si Si4 0.397552 0.968665 0.174193
Si Si5 0.029086 0.321836 0.012778
Si Si6 0.592010 0.168861 0.018308
Si Si7 0.590512 0.327093 0.032324
Si Si8 0.032689 0.968962 0.542138
O O1 0.531274 0.144785 0.293323
O O2 0.584211 0.019074 0.277946
O O3 0.730938 0.066335 0.006518
O O4 0.785453 0.118322 0.073438
O O5 0.457019 0.253190 0.608520
O O6 0.444727 0.337591 0.513155
O O7 0.456644 0.392109 0.625359
O O8 0.208313 0.323384 0.838594
O O9 0.563207 0.348265 0.263363
O O10 0.556336 0.479145 0.309574
O O11 0.774586 0.388384 0.118712
O O12 0.453440 0.889933 0.127919
O O13 0.215437 0.967210 0.355018
O O14 0.500000 0.000000 0.000000
O O15 0.988801 0.330068 0.971987
O O16 0.644910 0.247273 0.979350
O O17 0.000000 0.000000 0.500000
#
# Coordination Sequence:
#
# PCOD9302623 Si02
#       8
#     8   8   8   8   8   8   8   8
#     4  12  24  42  59  90 128 169 214 255 313 368
#     4  11  23  40  66  96 124 161 207 262 316 375
#     4  12  26  39  61  90 127 171 214 259 308 373
#     4  12  23  40  65  90 123 168 210 265 313 369
#     4  11  23  40  66  94 125 159 208 261 317 375
#     4  11  24  38  60  90 128 170 215 252 305 370
#     4  11  22  39  60  87 125 171 211 252 302 374
#     4  12  23  40  64  91 123 165 213 262 315 368
#
# _framework density 20.221247999999999
#
# number of rings (size 3 to 8) (size 9 to 14) (size 15 to 20)
#    0.000    0.500    5.000    3.750    7.000    3.000 
#    0.000    0.000    0.000    0.750    0.000    0.000 
#    0.000    0.000    0.000    0.000    0.000    0.000 
#
# Total GULP energy -178824.713836 kJ/mol
# GULP energy per Si atom -5588.272307 kJ/mol
# Density = 2.017522 g / cm^3
# Si number density = 20.221248 Si / 1000 Ang^3
#
#
#
# Elastic Constant Matrix: (Units=GPa)
#
#
# Indices 1 2 3 4 5 6 
#
# 1 33.5092 39.9119 24.3792 0.0049 -0.8729 -0.0032
# 2 39.9119 163.0534 64.3544 0.0125 -4.9222 -0.0082
# 3 24.3792 64.3544 126.2788 0.0285 -10.0096 -0.0177
# 4 0.0049 0.0125 0.0285 39.9077 -0.0084 -4.8162
# 5 -0.8729 -4.9222 -10.0096 -0.0084 36.2346 0.0023
# 6 -0.0032 -0.0082 -0.0177 -4.8162 0.0023 18.5051
#
#
#
# Elastic Compliance Matrix: (Units=1/GPa)
#
#
# Indices 1 2 3 4 5 6 
#
# 1 0.043530 -0.009184 -0.003823 0.000000 -0.001255 0.000000
# 2 -0.009184 0.009615 -0.003109 0.000000 0.000226 0.000000
# 3 -0.003823 -0.003109 0.010429 -0.000005 0.002367 0.000006
# 4 0.000000 0.000000 -0.000005 0.025870 0.000004 0.006733
# 5 -0.001255 0.000226 0.002367 0.000004 0.028252 0.000000
# 6 0.000000 0.000000 0.000006 0.006733 0.000000 0.055792
#
#
# Mechanical properties :
#
#
# Convention : Reuss Voigt Hill
#
# Bulk Modulus (GPa) = 31.90606 64.45918 48.18262
# Shear Modulus (GPa) = 23.13014 31.87587 27.50300
#
# Velocity S-wave (km/s) = 3.38576 3.97464 3.69196
# Velocity P-wave (km/s) = 5.57649 7.28079 6.48487
#
# Compressibility (1/GPa) = 0.03134200
#
# Stress axis : x y z
#
# Youngs Moduli (GPa) = 22.97246 104.00446 95.88650
#
# Poissons Ratio (x) = 0.95522 0.36656
# Poissons Ratio (y) = 0.21099 0.29811
# Poissons Ratio (z) = 0.08782 0.32335
#
# Static dielectric constant tensor:
#      x y z
#    x 1.745950 0.000000 -0.031630 
#    y 0.000000 1.741300 0.000000 
#    z -0.031630 0.000000 1.757440 
# 
# From -- ./inp_files/70617.got.cif
#   From: 2010.05.17/outbox.cif.g08.bks.cpg/sg15_36_cif.got.tgz:70617.got - 2010.06.03 18:47:42.
