data_PCOD9302850
_publ_section_title
;
Structure prediction by ZEFSAII (Michael W. Deem and Ramdas Pophale) SiO2 
 PCOD9302850
Probable space group: C 2/C
;
_chemical_formula_sum "Si O2"
_cell_formula_units_Z 56
_cell_length_a 30.077228
_cell_length_b 14.281036
_cell_length_c 11.880177
_cell_angle_alpha 90.000000
_cell_angle_beta 29.344335
_cell_angle_gamma 90.000000
_cell_volume 2500.731838
_symmetry_space_group_name_H-M "C 2/C"
_symmetry_group_IT_number 15
_symmetry_cell_setting 'monoclinic'
loop_
_space_group_symop_operation_xyz
x,y,z
-x,y,1/2-z
-x,-y,-z
x,-y,1/2+z
1/2+x,1/2+y,z
1/2-x,1/2+y,1/2-z
1/2-x,1/2-y,-z
1/2+x,1/2-y,1/2+z
loop_
_atom_site_type_symbol
_atom_site_label
_atom_site_fract_x
_atom_site_fract_y
_atom_site_fract_z
Si Si1 0.200760 0.670732 0.424255
Si Si2 0.965963 0.825396 0.044094
Si Si3 0.097334 0.856951 0.077306
Si Si4 0.136017 0.068032 0.915948
Si Si5 0.337152 0.357049 0.898030
Si Si6 0.421556 0.863174 0.512519
Si Si7 0.799695 0.502948 0.922920
O O1 0.174791 0.746196 0.574858
O O2 0.155911 0.678547 0.400104
O O3 0.170374 0.569900 0.540299
O O4 0.309116 0.683301 0.176625
O O5 0.960007 0.718562 0.010684
O O6 0.062277 0.867219 0.873433
O O7 0.900581 0.842302 0.293327
O O8 0.939187 0.886089 0.995632
O O9 0.000000 0.819024 0.250000
O O10 0.106765 0.964931 0.019951
O O11 0.226889 0.066060 0.640220
O O12 0.155820 0.122330 0.985511
O O13 0.262165 0.425980 0.014705
O O14 0.500000 0.890732 0.250000
O O15 0.375433 0.946922 0.686094
#
# Coordination Sequence:
#
# PCOD9302850 Si02
#       7
#     8   8   8   8   8   8   8
#     4  11  24  46  69  97 138 185 234 296 350 428
#     4  12  23  42  74 100 143 189 231 297 365 419
#     4  11  25  42  67 106 140 175 240 291 355 430
#     4  11  22  40  67 101 135 178 228 291 351 430
#     4  12  23  43  67  99 140 183 231 296 353 417
#     4  12  25  48  71 104 141 191 245 287 352 442
#     4  11  26  42  69  99 139 185 234 293 362 413
#
# _framework density 22.393443999999999
#
# number of rings (size 3 to 8) (size 9 to 14) (size 15 to 20)
#    0.000    0.571    2.857    6.857    2.000    3.429 
#    0.000    0.714    0.000    0.000    0.000    0.000 
#    0.000    0.000    0.000    0.000    0.000    0.000 
#
# Total GULP energy -156448.202819 kJ/mol
# GULP energy per Si atom -5587.435815 kJ/mol
# Density = 2.234248 g / cm^3
# Si number density = 22.393444 Si / 1000 Ang^3
#
#
#
# Elastic Constant Matrix: (Units=GPa)
#
#
# Indices 1 2 3 4 5 6 
#
# 1 90.9391 11.9502 14.9985 0.0000 4.4042 0.0000
# 2 11.9502 51.9379 37.3325 0.0000 1.6516 0.0000
# 3 14.9985 37.3325 133.2046 0.0000 14.6284 0.0000
# 4 0.0000 0.0000 0.0000 6.9177 0.0000 -22.9612
# 5 4.4042 1.6516 14.6284 0.0000 39.3062 0.0000
# 6 0.0000 0.0000 0.0000 -22.9612 0.0000 -4.4356
#
#
#
# Elastic Compliance Matrix: (Units=1/GPa)
#
#
# Indices 1 2 3 4 5 6 
#
# 1 0.011425 -0.002192 -0.000565 0.000000 -0.000978 0.000000
# 2 -0.002192 0.024624 -0.006848 0.000000 0.001759 0.000000
# 3 -0.000565 -0.006848 0.009854 0.000000 -0.003316 0.000000
# 4 0.000000 0.000000 0.000000 0.007951 0.000000 -0.041156
# 5 -0.000978 0.001759 -0.003316 0.000000 0.026711 0.000000
# 6 0.000000 0.000000 0.000000 -0.041156 0.000000 -0.012400
#
#
# Mechanical properties :
#
#
# Convention : Reuss Voigt Hill
#
# Bulk Modulus (GPa) = 37.46025 44.96045 41.21035
# Shear Modulus (GPa) = 51.93621 22.47769 37.20695
#
# Velocity S-wave (km/s) = 4.82109 3.17166 4.08059
# Velocity P-wave (km/s) = 6.91051 5.79082 6.37530
#
# Compressibility (1/GPa) = 0.02669496
#
# Stress axis : x y z
#
# Youngs Moduli (GPa) = 87.52826 40.61054 101.47940
#
# Poissons Ratio (x) = 0.08900 0.05731
# Poissons Ratio (y) = 0.19183 0.69490
# Poissons Ratio (z) = 0.04944 0.27809
#
# Static dielectric constant tensor:
#      x y z
#    x 1.871670 0.000000 -0.039410 
#    y 0.000000 1.866280 0.000000 
#    z -0.039410 0.000000 1.838380 
# 
# From -- ./inp_files/126999.got.cif
#   From: 2010.05.17/outbox.cif.g08.bks.cpg/sg15_64_cif.got.tgz:126999.got - 2010.06.03 18:47:42.
