data_PCOD9302459
_publ_section_title
;
Structure prediction by ZEFSAII (Michael W. Deem and Ramdas Pophale) SiO2 
 PCOD9302459
Probable space group: C 2/C
;
_chemical_formula_sum "Si O2"
_cell_formula_units_Z 64
_cell_length_a 13.552149
_cell_length_b 19.321846
_cell_length_c 13.941272
_cell_angle_alpha 90.000000
_cell_angle_beta 123.830032
_cell_angle_gamma 90.000000
_cell_volume 3032.491657
_symmetry_space_group_name_H-M "C 2/C"
_symmetry_group_IT_number 15
_symmetry_cell_setting 'monoclinic'
loop_
_space_group_symop_operation_xyz
x,y,z
-x,y,1/2-z
-x,-y,-z
x,-y,1/2+z
1/2+x,1/2+y,z
1/2-x,1/2+y,1/2-z
1/2-x,1/2-y,-z
1/2+x,1/2-y,1/2+z
loop_
_atom_site_type_symbol
_atom_site_label
_atom_site_fract_x
_atom_site_fract_y
_atom_site_fract_z
Si Si1 0.662014 0.047786 0.436105
Si Si2 0.043239 0.053307 0.666979
Si Si3 0.618290 0.052109 0.190993
Si Si4 0.552950 0.590571 0.068498
Si Si5 0.705481 0.905052 0.158332
Si Si6 0.868430 0.688497 0.715717
Si Si7 0.208029 0.097532 0.491636
Si Si8 0.222798 0.164289 0.298955
O O1 0.668519 0.062112 0.326130
O O2 0.521293 0.037481 0.378006
O O3 0.694756 0.101245 0.538144
O O4 0.739909 0.979029 0.493097
O O5 0.942277 0.085129 0.543627
O O6 0.157021 0.102194 0.738286
O O7 0.000000 0.036311 0.750000
O O8 0.081621 0.982923 0.633854
O O9 0.655706 0.122709 0.157517
O O10 0.670951 0.984155 0.168073
O O11 0.413660 0.599751 0.015509
O O12 0.632641 0.646604 0.163990
O O13 0.628307 0.855109 0.183685
O O14 0.807423 0.640483 0.602383
O O15 0.784014 0.754452 0.686971
O O16 0.000000 0.708334 0.750000
O O17 0.178763 0.129297 0.373009
#
# Coordination Sequence:
#
# PCOD9302459 Si02
#       8
#     8   8   8   8   8   8   8   8
#     4  11  23  39  70 100 131 170 226 286 335 391
#     4  11  22  36  65  96 128 168 223 282 336 388
#     4  11  23  42  65 100 133 173 228 277 332 402
#     4  11  22  40  62  98 132 171 218 278 335 396
#     4  12  22  42  67  99 131 177 223 282 336 392
#     4  12  27  45  67 101 139 177 222 276 340 409
#     4  12  22  42  69  99 137 168 223 281 339 402
#     4  12  26  42  66  96 137 183 220 270 343 404
#
# _framework density 21.104758
#
# number of rings (size 3 to 8) (size 9 to 14) (size 15 to 20)
#    0.000    0.500    5.000    4.125    5.250    0.000 
#    0.000    0.625    2.750    0.000    0.000    0.000 
#    0.000    0.000    0.000    0.000    0.000    0.000 
#
# Total GULP energy -178874.502227 kJ/mol
# GULP energy per Si atom -5589.828195 kJ/mol
# Density = 2.105672 g / cm^3
# Si number density = 21.104758 Si / 1000 Ang^3
#
#
#
# Elastic Constant Matrix: (Units=GPa)
#
#
# Indices 1 2 3 4 5 6 
#
# 1 80.0093 16.6565 11.6198 0.0000 -9.7673 0.0000
# 2 16.6565 55.5336 -7.5505 0.0000 -7.5407 0.0000
# 3 11.6198 -7.5505 90.4381 0.0000 -25.6417 0.0000
# 4 0.0000 0.0000 0.0000 13.0046 0.0000 1.6039
# 5 -9.7673 -7.5407 -25.6417 0.0000 40.6624 0.0000
# 6 0.0000 0.0000 0.0000 1.6039 0.0000 16.7477
#
#
#
# Elastic Compliance Matrix: (Units=1/GPa)
#
#
# Indices 1 2 3 4 5 6 
#
# 1 0.013793 -0.004170 -0.001705 0.000000 0.001465 0.000000
# 2 -0.004170 0.020456 0.003696 0.000000 0.005122 0.000000
# 3 -0.001705 0.003696 0.014202 0.000000 0.009232 0.000000
# 4 0.000000 0.000000 0.000000 0.077815 0.000000 -0.007452
# 5 0.001465 0.005122 0.009232 0.000000 0.031716 0.000000
# 6 0.000000 0.000000 0.000000 -0.007452 0.000000 0.060423
#
#
# Mechanical properties :
#
#
# Convention : Reuss Voigt Hill
#
# Bulk Modulus (GPa) = 22.67919 29.71474 26.19696
# Shear Modulus (GPa) = 21.05602 27.76663 24.41132
#
# Velocity S-wave (km/s) = 3.16205 3.63113 3.40468
# Velocity P-wave (km/s) = 4.90925 5.62942 5.28163
#
# Compressibility (1/GPa) = 0.04409328
#
# Stress axis : x y z
#
# Youngs Moduli (GPa) = 72.50012 48.88564 70.41056
#
# Poissons Ratio (x) = 0.20385 0.12005
# Poissons Ratio (y) = 0.30232 -0.26023
# Poissons Ratio (z) = 0.12362 -0.18068
#
# Static dielectric constant tensor:
#      x y z
#    x 1.789560 0.000000 0.006130 
#    y 0.000000 1.724580 0.000000 
#    z 0.006130 0.000000 1.810230 
# 
# From -- ./inp_files/155529.got.cif
#   From: 2010.05.17/outbox.cif.g08.bks.cpg/sg15_78_cif.got.tgz:155529.got - 2010.06.03 18:47:42.
