data_PCOD9302276
_publ_section_title
;
Structure prediction by ZEFSAII (Michael W. Deem and Ramdas Pophale) SiO2 
 PCOD9302276
Probable space group: C 2/C
;
_chemical_formula_sum "Si O2"
_cell_formula_units_Z 40
_cell_length_a 14.680381
_cell_length_b 11.239297
_cell_length_c 18.821280
_cell_angle_alpha 90.000000
_cell_angle_beta 33.595754
_cell_angle_gamma 90.000000
_cell_volume 1718.342407
_symmetry_space_group_name_H-M "C 2/C"
_symmetry_group_IT_number 15
_symmetry_cell_setting 'monoclinic'
loop_
_space_group_symop_operation_xyz
x,y,z
-x,y,1/2-z
-x,-y,-z
x,-y,1/2+z
1/2+x,1/2+y,z
1/2-x,1/2+y,1/2-z
1/2-x,1/2-y,-z
1/2+x,1/2-y,1/2+z
loop_
_atom_site_type_symbol
_atom_site_label
_atom_site_fract_x
_atom_site_fract_y
_atom_site_fract_z
Si Si1 0.000000 0.141919 0.750000
Si Si2 0.671418 0.022634 0.564193
Si Si3 0.303433 0.695134 0.060677
Si Si4 0.810991 0.060769 0.315374
Si Si5 0.897787 0.637384 0.176261
Si Si6 0.000000 0.268859 0.250000
O O1 0.025885 0.263373 0.563884
O O2 0.152632 0.223398 0.628309
O O3 0.738662 0.049848 0.441948
O O4 0.633603 0.144472 0.628642
O O5 0.781685 0.934324 0.539920
O O6 0.502346 0.951108 0.658362
O O7 0.574464 0.555208 0.761284
O O8 0.249532 0.686271 0.178561
O O9 0.677040 0.067819 0.341707
O O10 0.917960 0.180800 0.246125
#
# Coordination Sequence:
#
# PCOD9302276 Si02
#       6
#     4   8   8   8   8   4
#     4  11  21  44  70 102 139 187 232 286 366 423
#     4  12  22  47  69  99 139 193 234 291 350 435
#     4  12  24  46  77 105 143 187 240 296 362 420
#     4  11  27  41  70 103 144 189 239 292 356 428
#     4  12  25  44  74 111 140 182 241 306 348 421
#     4  11  25  46  68  92 147 195 236 278 374 423
#
# _framework density 23.278247
#
# number of rings (size 3 to 8) (size 9 to 14) (size 15 to 20)
#    0.000    0.400    6.000    3.000    2.800    0.000 
#    0.000    1.000    0.000    0.000    0.000    0.000 
#    0.000    0.000    0.000    0.000    0.000    0.000 
#
# Total GULP energy -111934.830136 kJ/mol
# GULP energy per Si atom -5596.741507 kJ/mol
# Density = 2.322526 g / cm^3
# Si number density = 23.278247 Si / 1000 Ang^3
#
#
#
# Elastic Constant Matrix: (Units=GPa)
#
#
# Indices 1 2 3 4 5 6 
#
# 1 97.7702 26.6869 26.0703 -0.0002 -1.3732 0.0002
# 2 26.6869 130.6656 31.0276 -0.0005 1.1973 0.0004
# 3 26.0703 31.0276 129.5918 -0.0007 24.5774 0.0008
# 4 -0.0002 -0.0005 -0.0007 38.2244 0.0005 -1.2679
# 5 -1.3732 1.1973 24.5774 0.0005 21.9075 -0.0004
# 6 0.0002 0.0004 0.0008 -1.2679 -0.0004 17.4324
#
#
#
# Elastic Compliance Matrix: (Units=1/GPa)
#
#
# Indices 1 2 3 4 5 6 
#
# 1 0.011450 -0.001758 -0.002587 0.000000 0.003716 0.000000
# 2 -0.001758 0.008469 -0.001988 0.000000 0.001658 0.000000
# 3 -0.002587 -0.001988 0.011081 0.000000 -0.012485 -0.000001
# 4 0.000000 0.000000 0.000000 0.026225 -0.000001 0.001907
# 5 0.003716 0.001658 -0.012485 -0.000001 0.059795 0.000002
# 6 0.000000 0.000000 -0.000001 0.001907 0.000002 0.057503
#
#
# Mechanical properties :
#
#
# Convention : Reuss Voigt Hill
#
# Bulk Modulus (GPa) = 54.54863 58.39970 56.47416
# Shear Modulus (GPa) = 25.86629 33.79573 29.83101
#
# Velocity S-wave (km/s) = 3.33705 3.81440 3.58368
# Velocity P-wave (km/s) = 6.19129 6.67396 6.43715
#
# Compressibility (1/GPa) = 0.01833227
#
# Stress axis : x y z
#
# Youngs Moduli (GPa) = 87.33565 118.07495 90.24550
#
# Poissons Ratio (x) = 0.20760 0.23349
# Poissons Ratio (y) = 0.15356 0.17945
# Poissons Ratio (z) = 0.22596 0.23478
#
# Static dielectric constant tensor:
#      x y z
#    x 1.843530 0.000000 0.016410 
#    y 0.000000 1.884510 0.000000 
#    z 0.016410 0.000000 1.994510 
# 
# From -- ./inp_files/248538.got.cif
#   From: 2010.05.17/outbox.cif.g08.bks.cpg/sg15_125_cif.got.tgz:248538.got - 2010.06.03 18:47:42.
