data_PCOD9302349
_publ_section_title
;
Structure prediction by ZEFSAII (Michael W. Deem and Ramdas Pophale) SiO2 
 PCOD9302349
Probable space group: C 2/C
;
_chemical_formula_sum "Si O2"
_cell_formula_units_Z 48
_cell_length_a 27.527420
_cell_length_b 15.769427
_cell_length_c 13.952212
_cell_angle_alpha 90.000000
_cell_angle_beta 19.946937
_cell_angle_gamma 90.000000
_cell_volume 2066.186474
_symmetry_space_group_name_H-M "C 2/C"
_symmetry_group_IT_number 15
_symmetry_cell_setting 'monoclinic'
loop_
_space_group_symop_operation_xyz
x,y,z
-x,y,1/2-z
-x,-y,-z
x,-y,1/2+z
1/2+x,1/2+y,z
1/2-x,1/2+y,1/2-z
1/2-x,1/2-y,-z
1/2+x,1/2-y,1/2+z
loop_
_atom_site_type_symbol
_atom_site_label
_atom_site_fract_x
_atom_site_fract_y
_atom_site_fract_z
Si Si1 0.796038 0.842075 0.782871
Si Si2 0.048511 0.132336 0.315195
Si Si3 0.830548 0.655539 0.668319
Si Si4 0.986227 0.686612 0.886546
Si Si5 0.911575 0.417715 0.693745
Si Si6 0.784755 0.030925 0.775888
O O1 0.919164 0.855385 0.632798
O O2 0.819465 0.757802 0.676232
O O3 0.771859 0.931771 0.776475
O O4 0.651136 0.824635 0.112391
O O5 0.958981 0.213867 0.445120
O O6 0.950441 0.054086 0.470658
O O7 0.197542 0.132062 0.983661
O O8 0.804072 0.592610 0.628892
O O9 0.981510 0.636346 0.437614
O O10 0.000000 0.661782 0.750000
O O11 0.887636 0.634446 0.140497
O O12 0.000000 0.500000 0.500000
O O13 0.777499 0.449157 0.002943
#
# Coordination Sequence:
#
# PCOD9302349 Si02
#       6
#     8   8   8   8   8   8
#     4  11  22  45  71  94 135 191 225 276 352 418
#     4  11  21  46  70  97 135 185 231 280 340 417
#     4  11  23  47  70  97 140 185 232 276 348 418
#     4  11  22  41  73  99 130 185 240 274 342 417
#     4  12  24  43  67 105 139 182 225 295 342 402
#     4  12  26  40  72 108 137 175 239 288 338 412
#
# _framework density 23.231203000000001
#
# number of rings (size 3 to 8) (size 9 to 14) (size 15 to 20)
#    0.000    0.667    5.000    4.500    2.333    0.667 
#    0.000    3.333    0.000    0.000    0.000    0.000 
#    0.000    0.000    0.000    0.000    0.000    0.000 
#
# Total GULP energy -134199.715234 kJ/mol
# GULP energy per Si atom -5591.654801 kJ/mol
# Density = 2.317833 g / cm^3
# Si number density = 23.231203 Si / 1000 Ang^3
#
#
#
# Elastic Constant Matrix: (Units=GPa)
#
#
# Indices 1 2 3 4 5 6 
#
# 1 106.5665 33.4749 9.2049 0.0001 9.6216 -0.0001
# 2 33.4749 164.8810 26.9012 0.0001 9.0653 -0.0001
# 3 9.2049 26.9012 48.9304 0.0000 0.5707 -0.0001
# 4 0.0001 0.0001 0.0000 25.2689 -0.0001 3.3835
# 5 9.6216 9.0653 0.5707 -0.0001 27.5251 0.0001
# 6 -0.0001 -0.0001 -0.0001 3.3835 0.0001 29.9803
#
#
#
# Elastic Compliance Matrix: (Units=1/GPa)
#
#
# Indices 1 2 3 4 5 6 
#
# 1 0.010291 -0.001774 -0.000926 0.000000 -0.002994 0.000000
# 2 -0.001774 0.007094 -0.003547 0.000000 -0.001643 0.000000
# 3 -0.000926 -0.003547 0.022550 0.000000 0.001024 0.000000
# 4 0.000000 0.000000 0.000000 0.040181 0.000000 -0.004535
# 5 -0.002994 -0.001643 0.001024 0.000000 0.037897 0.000000
# 6 0.000000 0.000000 0.000000 -0.004535 0.000000 0.033867
#
#
# Mechanical properties :
#
#
# Convention : Reuss Voigt Hill
#
# Bulk Modulus (GPa) = 36.44174 51.05998 43.75086
# Shear Modulus (GPa) = 28.81480 33.27464 31.04472
#
# Velocity S-wave (km/s) = 3.52568 3.78871 3.65956
# Velocity P-wave (km/s) = 5.68282 6.41607 6.06054
#
# Compressibility (1/GPa) = 0.02744106
#
# Stress axis : x y z
#
# Youngs Moduli (GPa) = 97.16969 140.96030 44.34635
#
# Poissons Ratio (x) = 0.25002 0.04106
# Poissons Ratio (y) = 0.17235 0.15732
# Poissons Ratio (z) = 0.08997 0.50005
#
# Static dielectric constant tensor:
#      x y z
#    x 2.064340 0.000000 -0.028420 
#    y 0.000000 1.887520 0.000000 
#    z -0.028420 0.000000 1.842500 
# 
# From -- ./inp_files/182412.got.cif
#   From: 2010.05.17/outbox.cif.g08.bks.cpg/sg15_92_cif.got.tgz:182412.got - 2010.06.03 18:47:42.
