data_PCOD9302323
_publ_section_title
;
Structure prediction by ZEFSAII (Michael W. Deem and Ramdas Pophale) SiO2 
 PCOD9302323
Probable space group: C 2/C
;
_chemical_formula_sum "Si O2"
_cell_formula_units_Z 44
_cell_length_a 7.294424
_cell_length_b 22.031159
_cell_length_c 12.096478
_cell_angle_alpha 90.000000
_cell_angle_beta 61.483569
_cell_angle_gamma 90.000000
_cell_volume 1708.119097
_symmetry_space_group_name_H-M "C 2/C"
_symmetry_group_IT_number 15
_symmetry_cell_setting 'monoclinic'
loop_
_space_group_symop_operation_xyz
x,y,z
-x,y,1/2-z
-x,-y,-z
x,-y,1/2+z
1/2+x,1/2+y,z
1/2-x,1/2+y,1/2-z
1/2-x,1/2-y,-z
1/2+x,1/2-y,1/2+z
loop_
_atom_site_type_symbol
_atom_site_label
_atom_site_fract_x
_atom_site_fract_y
_atom_site_fract_z
Si Si1 0.629683 0.825129 0.949186
Si Si2 0.341372 0.476546 0.153282
Si Si3 0.458307 0.691099 0.550541
Si Si4 0.000000 0.887067 0.250000
Si Si5 0.750780 0.617224 0.306476
Si Si6 0.522454 0.944868 0.074362
O O1 0.514670 0.763584 0.949070
O O2 0.766296 0.849361 0.807169
O O3 0.764186 0.815384 0.021630
O O4 0.487277 0.881527 0.024040
O O5 0.538432 0.439881 0.142260
O O6 0.339316 0.548786 0.166019
O O7 0.252292 0.453800 0.061834
O O8 0.156559 0.451490 0.284279
O O9 0.413860 0.661541 0.683012
O O10 0.644449 0.657650 0.431589
O O11 0.000000 0.610644 0.250000
O O12 0.500000 0.000000 0.000000
#
# Coordination Sequence:
#
# PCOD9302323 Si02
#       6
#     8   8   8   4   8   8
#     4  11  25  51  74 103 145 200 248 308 370 441
#     4  11  25  41  72 111 149 193 247 312 371 434
#     4  11  29  49  73 107 150 195 249 304 373 451
#     4  12  28  46  72 116 152 196 248 312 372 438
#     4  12  26  47  76 111 146 194 249 310 372 439
#     4  11  21  45  73 103 144 197 247 300 373 436
#
# _framework density 25.759329000000001
#
# number of rings (size 3 to 8) (size 9 to 14) (size 15 to 20)
#    0.000    0.727    5.455    0.545    8.909    2.909 
#    3.273    0.000    0.000    0.000    0.000    0.000 
#    0.000    0.000    0.000    0.000    0.000    0.000 
#
# Total GULP energy -122916.697497 kJ/mol
# GULP energy per Si atom -5587.122614 kJ/mol
# Density = 2.570070 g / cm^3
# Si number density = 25.759329 Si / 1000 Ang^3
#
#
#
# Elastic Constant Matrix: (Units=GPa)
#
#
# Indices 1 2 3 4 5 6 
#
# 1 113.4885 47.2985 48.1305 0.0000 22.5581 0.0000
# 2 47.2985 290.5848 74.0818 0.0000 3.1602 0.0000
# 3 48.1305 74.0818 129.4950 0.0000 5.2620 0.0000
# 4 0.0000 0.0000 0.0000 42.8283 0.0000 15.6514
# 5 22.5581 3.1602 5.2620 0.0000 59.2861 0.0000
# 6 0.0000 0.0000 0.0000 15.6514 0.0000 24.0762
#
#
#
# Elastic Compliance Matrix: (Units=1/GPa)
#
#
# Indices 1 2 3 4 5 6 
#
# 1 0.011514 -0.000914 -0.003593 0.000000 -0.004013 0.000000
# 2 -0.000914 0.004102 -0.002019 0.000000 0.000309 0.000000
# 3 -0.003593 -0.002019 0.010190 0.000000 0.000570 0.000000
# 4 0.000000 0.000000 0.000000 0.030624 0.000000 -0.019908
# 5 -0.004013 0.000309 0.000570 0.000000 0.018327 0.000000
# 6 0.000000 0.000000 0.000000 -0.019908 0.000000 0.054477
#
#
# Mechanical properties :
#
#
# Convention : Reuss Voigt Hill
#
# Bulk Modulus (GPa) = 78.42024 96.95443 87.68733
# Shear Modulus (GPa) = 34.12067 49.50862 41.81465
#
# Velocity S-wave (km/s) = 3.64345 4.38878 4.03337
# Velocity P-wave (km/s) = 6.94328 7.96255 7.47032
#
# Compressibility (1/GPa) = 0.01275181
#
# Stress axis : x y z
#
# Youngs Moduli (GPa) = 86.84868 243.80886 98.13730
#
# Poissons Ratio (x) = 0.22295 0.35265
# Poissons Ratio (y) = 0.07942 0.19815
# Poissons Ratio (z) = 0.31208 0.49227
#
# Static dielectric constant tensor:
#      x y z
#    x 2.525030 0.000000 0.038000 
#    y 0.000000 1.973300 0.000000 
#    z 0.038000 0.000000 2.038410 
# 
# From -- ./inp_files/78140.got.cif
#   From: 2010.05.17/outbox.cif.g08.bks.cpg/sg15_40_cif.got.tgz:78140.got - 2010.06.03 18:47:42.
