data_PCOD9302376
_publ_section_title
;
Structure prediction by ZEFSAII (Michael W. Deem and Ramdas Pophale) SiO2 
 PCOD9302376
Probable space group: C 2/C
;
_chemical_formula_sum "Si O2"
_cell_formula_units_Z 44
_cell_length_a 14.227366
_cell_length_b 27.526948
_cell_length_c 11.457075
_cell_angle_alpha 90.000000
_cell_angle_beta 29.419321
_cell_angle_gamma 90.000000
_cell_volume 2204.004520
_symmetry_space_group_name_H-M "C 2/C"
_symmetry_group_IT_number 15
_symmetry_cell_setting 'monoclinic'
loop_
_space_group_symop_operation_xyz
x,y,z
-x,y,1/2-z
-x,-y,-z
x,-y,1/2+z
1/2+x,1/2+y,z
1/2-x,1/2+y,1/2-z
1/2-x,1/2-y,-z
1/2+x,1/2-y,1/2+z
loop_
_atom_site_type_symbol
_atom_site_label
_atom_site_fract_x
_atom_site_fract_y
_atom_site_fract_z
Si Si1 0.153775 0.818922 0.868461
Si Si2 0.749761 0.864699 0.338117
Si Si3 0.226337 0.059671 0.483879
Si Si4 0.500000 0.026982 0.750000
Si Si5 0.002586 0.271807 0.875135
Si Si6 0.415453 0.898472 0.543806
O O1 0.305635 0.801747 0.803419
O O2 0.297867 0.850135 0.631881
O O3 0.975340 0.854696 0.083253
O O4 0.048410 0.766684 0.967877
O O5 0.713972 0.901588 0.481915
O O6 0.659261 0.812350 0.459549
O O7 0.628125 0.884655 0.359735
O O8 0.298987 0.080494 0.281486
O O9 0.000000 0.053785 0.750000
O O10 0.332210 0.008864 0.389812
O O11 0.570233 0.061314 0.570072
O O12 0.000000 0.247554 0.750000
#
# Coordination Sequence:
#
# PCOD9302376 Si02
#       6
#     8   8   8   4   8   8
#     4  11  22  36  61  94 134 174 210 252 325 389
#     4  11  22  39  63  98 135 168 208 265 328 392
#     4  12  24  40  70  95 131 165 209 272 336 390
#     4  12  28  48  64  90 130 174 226 276 312 380
#     4  11  22  31  56  98 141 169 201 257 329 398
#     4  11  25  44  66  93 130 173 219 267 323 381
#
# _framework density 19.963661999999999
#
# number of rings (size 3 to 8) (size 9 to 14) (size 15 to 20)
#    0.000    0.727    5.455    3.273    2.545    2.182 
#    0.000    0.000    0.000    4.364    0.000    0.000 
#    0.000    0.000    0.000    0.000    0.000    0.000 
#
# Total GULP energy -122604.385548 kJ/mol
# GULP energy per Si atom -5572.926616 kJ/mol
# Density = 1.991822 g / cm^3
# Si number density = 19.963662 Si / 1000 Ang^3
#
#
#
# Elastic Constant Matrix: (Units=GPa)
#
#
# Indices 1 2 3 4 5 6 
#
# 1 32.2152 20.5911 38.4346 -0.0011 -21.2342 -0.0008
# 2 20.5911 124.9366 37.2105 -0.0004 -2.4742 -0.0002
# 3 38.4346 37.2105 88.2806 -0.0032 -41.0532 -0.0009
# 4 -0.0011 -0.0004 -0.0032 9.9466 0.0014 -51.6595
# 5 -21.2342 -2.4742 -41.0532 0.0014 32.4479 0.0014
# 6 -0.0008 -0.0002 -0.0009 -51.6595 0.0014 -74.9887
#
#
#
# Elastic Compliance Matrix: (Units=1/GPa)
#
#
# Indices 1 2 3 4 5 6 
#
# 1 0.071812 -0.006286 -0.016966 0.000000 0.025049 0.000000
# 2 -0.006286 0.011328 -0.008622 0.000000 -0.014159 0.000000
# 3 -0.016966 -0.008622 0.041005 0.000002 0.040119 -0.000001
# 4 0.000000 0.000000 0.000002 0.021961 0.000001 -0.015129
# 5 0.025049 -0.014159 0.040119 0.000001 0.096891 0.000000
# 6 0.000000 0.000000 -0.000001 -0.015129 0.000000 -0.002913
#
#
# Mechanical properties :
#
#
# Convention : Reuss Voigt Hill
#
# Bulk Modulus (GPa) = 16.55752 48.65609 32.60681
# Shear Modulus (GPa) = 15.43375 3.42756 9.43066
#
# Velocity S-wave (km/s) = 2.78347 1.31173 2.17581
# Velocity P-wave (km/s) = 4.31765 5.16908 4.76243
#
# Compressibility (1/GPa) = 0.06039552
#
# Stress axis : x y z
#
# Youngs Moduli (GPa) = 13.92521 88.27962 24.38720
#
# Poissons Ratio (x) = 0.55495 0.41377
# Poissons Ratio (y) = 0.08754 0.21027
# Poissons Ratio (z) = 0.23626 0.76114
#
# Static dielectric constant tensor:
#      x y z
#    x 1.699400 0.000000 -0.057950 
#    y 0.000000 1.736170 0.000000 
#    z -0.057950 0.000000 1.763470 
# 
# From -- ./inp_files/101048.got.cif
#   From: 2010.05.17/outbox.cif.g08.bks.cpg/sg15_51_cif.got.tgz:101048.got - 2010.06.03 18:47:42.
