data_PCOD9302400
_publ_section_title
;
Structure prediction by ZEFSAII (Michael W. Deem and Ramdas Pophale) SiO2 
 PCOD9302400
Probable space group: C 2/C
;
_chemical_formula_sum "Si O2"
_cell_formula_units_Z 36
_cell_length_a 13.296332
_cell_length_b 19.899187
_cell_length_c 15.645479
_cell_angle_alpha 90.000000
_cell_angle_beta 154.197251
_cell_angle_gamma 90.000000
_cell_volume 1801.851804
_symmetry_space_group_name_H-M "C 2/C"
_symmetry_group_IT_number 15
_symmetry_cell_setting 'monoclinic'
loop_
_space_group_symop_operation_xyz
x,y,z
-x,y,1/2-z
-x,-y,-z
x,-y,1/2+z
1/2+x,1/2+y,z
1/2-x,1/2+y,1/2-z
1/2-x,1/2-y,-z
1/2+x,1/2-y,1/2+z
loop_
_atom_site_type_symbol
_atom_site_label
_atom_site_fract_x
_atom_site_fract_y
_atom_site_fract_z
Si Si1 0.901456 0.660369 0.364707
Si Si2 0.384148 0.717484 0.743953
Si Si3 0.572541 0.059411 0.620462
Si Si4 0.893306 0.906628 0.001204
Si Si5 0.000000 0.498556 0.250000
O O1 0.802993 0.732761 0.258094
O O2 0.168177 0.674339 0.545077
O O3 0.936723 0.626361 0.484007
O O4 0.758023 0.608230 0.198665
O O5 0.500000 0.751308 0.750000
O O6 0.561163 0.664271 0.918450
O O7 0.850253 0.067448 0.823956
O O8 0.500000 0.000000 0.500000
O O9 0.516597 0.042845 0.675273
O O10 0.731386 0.955857 0.931339
#
# Coordination Sequence:
#
# PCOD9302400 Si02
#       5
#     8   8   8   8   4
#     4  11  22  38  59  92 132 166 207 263 325 386
#     4  11  22  34  61  98 131 165 210 267 346 393
#     4  11  26  43  62  96 132 177 220 264 322 387
#     4  11  24  41  64  99 132 168 215 271 327 393
#     4  12  24  44  68  90 140 176 216 268 324 390
#
# _framework density 19.979444999999998
#
# number of rings (size 3 to 8) (size 9 to 14) (size 15 to 20)
#    0.000    0.889    4.444    2.667    4.667    0.000 
#    0.000    0.000    0.000    5.333    0.000    0.000 
#    0.000    0.000    0.000    0.000    0.000    0.000 
#
# Total GULP energy -100317.547121 kJ/mol
# GULP energy per Si atom -5573.197062 kJ/mol
# Density = 1.993397 g / cm^3
# Si number density = 19.979445 Si / 1000 Ang^3
#
#
#
# Elastic Constant Matrix: (Units=GPa)
#
#
# Indices 1 2 3 4 5 6 
#
# 1 120.5795 68.8531 49.4460 -0.0005 -9.5030 -0.0006
# 2 68.8531 95.9710 42.4404 -0.0001 -10.2363 -0.0001
# 3 49.4460 42.4404 148.9535 -0.0007 -4.1922 -0.0009
# 4 -0.0005 -0.0001 -0.0007 50.5037 -0.0007 -6.2824
# 5 -9.5030 -10.2363 -4.1922 -0.0007 25.0851 -0.0007
# 6 -0.0006 -0.0001 -0.0009 -6.2824 -0.0007 30.6795
#
#
#
# Elastic Compliance Matrix: (Units=1/GPa)
#
#
# Indices 1 2 3 4 5 6 
#
# 1 0.014661 -0.009427 -0.002143 0.000000 0.001349 0.000000
# 2 -0.009427 0.018468 -0.002030 0.000000 0.003625 0.000000
# 3 -0.002143 -0.002030 0.007995 0.000000 -0.000304 0.000000
# 4 0.000000 0.000000 0.000000 0.020318 0.000001 0.004161
# 5 0.001349 0.003625 -0.000304 0.000001 0.041804 0.000001
# 6 0.000000 0.000000 0.000000 0.004161 0.000001 0.033447
#
#
# Mechanical properties :
#
#
# Convention : Reuss Voigt Hill
#
# Bulk Modulus (GPa) = 71.82385 76.33144 74.07765
# Shear Modulus (GPa) = 29.66740 34.90462 32.28601
#
# Velocity S-wave (km/s) = 3.85762 4.18428 4.02426
# Velocity P-wave (km/s) = 7.47452 7.85062 7.66488
#
# Compressibility (1/GPa) = 0.01392295
#
# Stress axis : x y z
#
# Youngs Moduli (GPa) = 68.20628 54.14849 125.08044
#
# Poissons Ratio (x) = 0.51046 0.26805
# Poissons Ratio (y) = 0.64298 0.25398
# Poissons Ratio (z) = 0.14617 0.10995
#
# Static dielectric constant tensor:
#      x y z
#    x 1.677210 0.000000 -0.048420 
#    y 0.000000 1.832480 0.000000 
#    z -0.048420 0.000000 1.762190 
# 
# From -- ./inp_files/147303.got.cif
#   From: 2010.05.17/outbox.cif.g08.bks.cpg/sg15_74_cif.got.tgz:147303.got - 2010.06.03 18:47:42.
