data_PCOD9302385
_publ_section_title
;
Structure prediction by ZEFSAII (Michael W. Deem and Ramdas Pophale) SiO2 
 PCOD9302385
Probable space group: C 2/C
;
_chemical_formula_sum "Si O2"
_cell_formula_units_Z 64
_cell_length_a 7.696888
_cell_length_b 21.615392
_cell_length_c 24.151464
_cell_angle_alpha 90.000000
_cell_angle_beta 129.597026
_cell_angle_gamma 90.000000
_cell_volume 3096.139356
_symmetry_space_group_name_H-M "C 2/C"
_symmetry_group_IT_number 15
_symmetry_cell_setting 'monoclinic'
loop_
_space_group_symop_operation_xyz
x,y,z
-x,y,1/2-z
-x,-y,-z
x,-y,1/2+z
1/2+x,1/2+y,z
1/2-x,1/2+y,1/2-z
1/2-x,1/2-y,-z
1/2+x,1/2-y,1/2+z
loop_
_atom_site_type_symbol
_atom_site_label
_atom_site_fract_x
_atom_site_fract_y
_atom_site_fract_z
Si Si1 0.276981 0.241272 0.413014
Si Si2 0.096506 0.893221 0.566284
Si Si3 0.617902 0.501503 0.831061
Si Si4 0.350459 0.873949 0.403712
Si Si5 0.735610 0.626051 0.596288
Si Si6 0.706343 0.998497 0.331061
Si Si7 0.624922 0.258728 0.586986
Si Si8 0.168629 0.393221 0.566284
O O1 0.297949 0.305716 0.384599
O O2 0.450937 0.250000 0.500000
O O3 0.326609 0.172768 0.401189
O O4 0.028048 0.237979 0.389023
O O5 0.249379 0.951625 0.611861
O O6 0.221850 0.827233 0.598811
O O7 0.985876 0.894709 0.482938
O O8 0.883387 0.892724 0.566694
O O9 0.500000 0.484000 0.750000
O O10 0.712486 0.570807 0.848982
O O11 0.427500 0.501257 0.838750
O O12 0.801936 0.451625 0.888139
O O13 0.572465 0.865181 0.411233
O O14 0.240447 0.805715 0.384599
O O15 0.445875 0.894709 0.482938
O O16 0.816560 0.570807 0.651019
O O17 0.500000 0.016000 0.250000
#
# Coordination Sequence:
#
# PCOD9302385 Si02
#       8
#     8   8   8   8   8   8   8   8
#     4   7  11  23  47  76  98 117 148 190 234 282
#     4   8  15  29  51  76  97 122 158 196 235 282
#     4  11  22  34  47  66  97 132 164 198 235 279
#     4   9  16  30  54  78  97 120 154 196 240 286
#     4   9  16  30  54  78  97 120 154 196 240 286
#     4  11  22  34  47  66  97 132 164 198 235 279
#     4   7  11  23  47  76  98 117 148 190 234 282
#     4   8  15  29  51  76  97 122 158 196 235 282
#
# _framework density 20.670902999999999
#
# number of rings (size 3 to 8) (size 9 to 14) (size 15 to 20)
#    0.000    3.250    0.000    4.500    0.000    0.000 
#    0.000    2.500    0.000   12.750    0.000    0.000 
#    0.000    0.000    0.000    0.000    0.000    0.000 
#
# Total GULP energy -178260.080923 kJ/mol
# GULP energy per Si atom -5570.627529 kJ/mol
# Density = 2.062386 g / cm^3
# Si number density = 20.670903 Si / 1000 Ang^3
#
#
#
# Elastic Constant Matrix: (Units=GPa)
#
#
# Indices 1 2 3 4 5 6 
#
# 1 31.3278 0.8258 -3.7365 0.0000 -2.9759 0.0000
# 2 0.8258 75.8206 -6.0850 0.0000 -0.1077 0.0000
# 3 -3.7365 -6.0850 20.0299 0.0000 2.8032 0.0000
# 4 0.0000 0.0000 0.0000 5.1472 0.0000 -0.0106
# 5 -2.9759 -0.1077 2.8032 0.0000 -80.3107 0.0000
# 6 0.0000 0.0000 0.0000 -0.0106 0.0000 5.8600
#
#
#
# Elastic Compliance Matrix: (Units=1/GPa)
#
#
# Indices 1 2 3 4 5 6 
#
# 1 0.032569 0.000146 0.006258 0.000000 -0.000989 0.000000
# 2 0.000146 0.013518 0.004117 0.000000 0.000120 0.000000
# 3 0.006258 0.004117 0.052122 0.000000 0.001582 0.000000
# 4 0.000000 0.000000 0.000000 0.194282 0.000000 0.000352
# 5 -0.000989 0.000120 0.001582 0.000000 -0.012360 0.000000
# 6 0.000000 0.000000 0.000000 0.000352 0.000000 0.170649
#
#
# Mechanical properties :
#
#
# Convention : Reuss Voigt Hill
#
# Bulk Modulus (GPa) = 8.38551 12.13187 10.25869
# Shear Modulus (GPa) = 10.64990 -4.78243 2.93373
#
# Velocity S-wave (km/s) = 2.27229 -1.52270 1.19262
# Velocity P-wave (km/s) = 3.30906 1.67042 2.62109
#
# Compressibility (1/GPa) = 0.11925327
#
# Stress axis : x y z
#
# Youngs Moduli (GPa) = 30.70380 73.97529 19.18561
#
# Poissons Ratio (x) = -0.01081 -0.12007
# Poissons Ratio (y) = -0.00449 -0.07899
# Poissons Ratio (z) = -0.19216 -0.30457
#
# Static dielectric constant tensor:
#      x y z
#    x 1.783720 0.000000 -0.001460 
#    y 0.000000 1.808600 0.000000 
#    z -0.001460 0.000000 1.687510 
# 
# From -- ./inp_files/289998.got.cif
#   From: 2010.05.17/outbox.cif.g08.bks.cpg/sg15_145_cif.got.tgz:289998.got - 2010.06.03 18:47:42.
