data_PCOD9302552
_publ_section_title
;
Structure prediction by ZEFSAII (Michael W. Deem and Ramdas Pophale) SiO2 
 PCOD9302552
Probable space group: C 2/C
;
_chemical_formula_sum "Si O2"
_cell_formula_units_Z 40
_cell_length_a 28.422025
_cell_length_b 12.290399
_cell_length_c 15.016678
_cell_angle_alpha 90.000000
_cell_angle_beta 159.831570
_cell_angle_gamma 90.000000
_cell_volume 1808.582144
_symmetry_space_group_name_H-M "C 2/C"
_symmetry_group_IT_number 15
_symmetry_cell_setting 'monoclinic'
loop_
_space_group_symop_operation_xyz
x,y,z
-x,y,1/2-z
-x,-y,-z
x,-y,1/2+z
1/2+x,1/2+y,z
1/2-x,1/2+y,1/2-z
1/2-x,1/2-y,-z
1/2+x,1/2-y,1/2+z
loop_
_atom_site_type_symbol
_atom_site_label
_atom_site_fract_x
_atom_site_fract_y
_atom_site_fract_z
Si Si1 0.848590 0.367156 0.441283
Si Si2 0.701531 0.531746 0.310792
Si Si3 0.851980 0.543777 0.759341
Si Si4 0.549884 0.324316 0.129907
Si Si5 0.220805 0.310770 0.820651
O O1 0.787690 0.474987 0.384403
O O2 0.857046 0.373923 0.349850
O O3 0.753675 0.263905 0.295538
O O4 0.000000 0.355362 0.750000
O O5 0.784559 0.573089 0.545158
O O6 0.621136 0.427668 0.208271
O O7 0.593558 0.625842 0.094369
O O8 0.777139 0.439998 0.672393
O O9 0.000000 0.500000 0.000000
O O10 0.649731 0.284503 0.385399
O O11 0.575581 0.229970 0.102806
#
# Coordination Sequence:
#
# PCOD9302552 Si02
#       5
#     8   8   8   8   8
#     4  11  22  38  62  90 125 168 213 260 318 386
#     4   9  18  37  61  91 126 157 203 261 316 375
#     4  11  22  40  62  91 128 168 205 263 325 375
#     4   8  16  35  65  89 117 158 202 261 317 372
#     4   9  20  38  63  90 120 161 217 257 312 391
#
# _framework density 22.116772999999998
#
# number of rings (size 3 to 8) (size 9 to 14) (size 15 to 20)
#    0.000    2.400    2.000    1.200    0.000    1.600 
#    0.000   18.000    0.000    0.000    0.000    0.000 
#    0.000    0.000    0.000    0.000    0.000    0.000 
#
# Total GULP energy -111410.652643 kJ/mol
# GULP energy per Si atom -5570.532632 kJ/mol
# Density = 2.206643 g / cm^3
# Si number density = 22.116773 Si / 1000 Ang^3
#
#
#
# Elastic Constant Matrix: (Units=GPa)
#
#
# Indices 1 2 3 4 5 6 
#
# 1 114.8618 14.9006 13.8009 0.0000 8.9550 0.0000
# 2 14.9006 50.4967 8.1541 0.0000 7.3443 0.0000
# 3 13.8009 8.1541 52.9451 0.0000 12.9241 0.0000
# 4 0.0000 0.0000 0.0000 35.6011 0.0000 11.1586
# 5 8.9550 7.3443 12.9241 0.0000 27.6081 0.0000
# 6 0.0000 0.0000 0.0000 11.1586 0.0000 36.3548
#
#
#
# Elastic Compliance Matrix: (Units=1/GPa)
#
#
# Indices 1 2 3 4 5 6 
#
# 1 0.009327 -0.002242 -0.001686 0.000000 -0.001640 0.000000
# 2 -0.002242 0.021342 -0.001687 0.000000 -0.004161 0.000000
# 3 -0.001686 -0.001687 0.021839 0.000000 -0.009228 0.000000
# 4 0.000000 0.000000 0.000000 0.031079 0.000000 -0.009539
# 5 -0.001640 -0.004161 -0.009228 0.000000 0.042180 0.000000
# 6 0.000000 0.000000 0.000000 -0.009539 0.000000 0.030435
#
#
# Mechanical properties :
#
#
# Convention : Reuss Voigt Hill
#
# Bulk Modulus (GPa) = 24.22468 32.44610 28.33539
# Shear Modulus (GPa) = 27.59518 32.00935 29.80227
#
# Velocity S-wave (km/s) = 3.53612 3.80845 3.67481
# Velocity P-wave (km/s) = 5.25823 5.83449 5.55384
#
# Compressibility (1/GPa) = 0.04128022
#
# Stress axis : x y z
#
# Youngs Moduli (GPa) = 107.21206 46.85543 45.78897
#
# Poissons Ratio (x) = 0.10503 0.07719
# Poissons Ratio (y) = 0.24032 0.07725
# Poissons Ratio (z) = 0.18073 0.07904
#
# Static dielectric constant tensor:
#      x y z
#    x 1.853970 0.000000 0.011860 
#    y 0.000000 1.903140 0.000000 
#    z 0.011860 0.000000 1.849860 
# 
# From -- ./inp_files/142373.got.cif
#   From: 2010.05.17/outbox.cif.g08.bks.cpg/sg15_72_cif.got.tgz:142373.got - 2010.06.03 18:47:42.
