data_PCOD9302741
_publ_section_title
;
Structure prediction by ZEFSAII (Michael W. Deem and Ramdas Pophale) SiO2 
 PCOD9302741
Probable space group: C 2/C
;
_chemical_formula_sum "Si O2"
_cell_formula_units_Z 44
_cell_length_a 24.601321
_cell_length_b 12.863119
_cell_length_c 8.762910
_cell_angle_alpha 90.000000
_cell_angle_beta 52.264899
_cell_angle_gamma 90.000000
_cell_volume 2193.039715
_symmetry_space_group_name_H-M "C 2/C"
_symmetry_group_IT_number 15
_symmetry_cell_setting 'monoclinic'
loop_
_space_group_symop_operation_xyz
x,y,z
-x,y,1/2-z
-x,-y,-z
x,-y,1/2+z
1/2+x,1/2+y,z
1/2-x,1/2+y,1/2-z
1/2-x,1/2-y,-z
1/2+x,1/2-y,1/2+z
loop_
_atom_site_type_symbol
_atom_site_label
_atom_site_fract_x
_atom_site_fract_y
_atom_site_fract_z
Si Si1 0.701635 0.541382 0.722762
Si Si2 0.438223 0.075354 0.558422
Si Si3 0.642841 0.639912 0.516538
Si Si4 0.740029 0.260619 0.334692
Si Si5 0.844422 0.567109 0.002961
Si Si6 0.500000 0.254796 0.250000
O O1 0.673895 0.595562 0.619338
O O2 0.712324 0.627719 0.835012
O O3 0.776695 0.493051 0.562227
O O4 0.653603 0.449816 0.870722
O O5 0.472192 0.176745 0.427271
O O6 0.500000 0.000000 0.500000
O O7 0.389088 0.009816 0.529869
O O8 0.392230 0.101888 0.782513
O O9 0.688837 0.735581 0.374447
O O10 0.565431 0.675343 0.677483
O O11 0.750000 0.250000 0.500000
O O12 0.687100 0.171190 0.368868
#
# Coordination Sequence:
#
# PCOD9302741 Si02
#       6
#     8   8   8   8   8   4
#     4  11  23  43  68  97 132 170 230 274 332 391
#     4  12  24  41  63  95 132 166 210 265 334 398
#     4  11  25  42  67  97 130 180 219 275 334 392
#     4  11  22  39  68  99 130 167 220 278 328 389
#     4  11  22  40  66  94 126 166 212 274 324 379
#     4  12  26  44  66  90 140 170 224 268 332 408
#
# _framework density 20.063476000000001
#
# number of rings (size 3 to 8) (size 9 to 14) (size 15 to 20)
#    0.000    0.727    1.818    8.182    2.545    0.727 
#    0.000    0.000    0.000    0.000    0.000    0.000 
#    0.000    0.000    0.000    0.000    0.000    0.000 
#
# Total GULP energy -123076.763478 kJ/mol
# GULP energy per Si atom -5594.398340 kJ/mol
# Density = 2.001781 g / cm^3
# Si number density = 20.063476 Si / 1000 Ang^3
#
#
#
# Elastic Constant Matrix: (Units=GPa)
#
#
# Indices 1 2 3 4 5 6 
#
# 1 100.0684 32.3532 30.1322 0.0000 -26.6036 0.0000
# 2 32.3532 78.5776 5.1933 0.0000 -23.5519 0.0000
# 3 30.1322 5.1933 74.6513 0.0000 -27.1237 0.0000
# 4 0.0000 0.0000 0.0000 42.7209 0.0000 -2.4584
# 5 -26.6036 -23.5519 -27.1237 0.0000 40.4567 0.0000
# 6 0.0000 0.0000 0.0000 -2.4584 0.0000 30.2378
#
#
#
# Elastic Compliance Matrix: (Units=1/GPa)
#
#
# Indices 1 2 3 4 5 6 
#
# 1 0.013504 -0.004118 -0.003713 0.000000 0.003993 0.000000
# 2 -0.004118 0.017159 0.004117 0.000000 0.010042 0.000000
# 3 -0.003713 0.004117 0.019291 0.000000 0.012888 0.000000
# 4 0.000000 0.000000 0.000000 0.023518 0.000000 0.001912
# 5 0.003993 0.010042 0.012888 0.000000 0.041830 0.000000
# 6 0.000000 0.000000 0.000000 0.001912 0.000000 0.033227
#
#
# Mechanical properties :
#
#
# Convention : Reuss Voigt Hill
#
# Bulk Modulus (GPa) = 23.51519 43.18386 33.34952
# Shear Modulus (GPa) = 29.38873 35.05766 32.22319
#
# Velocity S-wave (km/s) = 3.83141 4.18465 4.01192
# Velocity P-wave (km/s) = 5.59631 6.70215 6.17404
#
# Compressibility (1/GPa) = 0.04252571
#
# Stress axis : x y z
#
# Youngs Moduli (GPa) = 74.05026 58.27707 51.83802
#
# Poissons Ratio (x) = 0.23998 0.19250
# Poissons Ratio (y) = 0.30493 -0.21341
# Poissons Ratio (z) = 0.27498 -0.23992
#
# Static dielectric constant tensor:
#      x y z
#    x 1.699990 0.000000 0.016390 
#    y 0.000000 1.724560 0.000000 
#    z 0.016390 0.000000 1.695860 
# 
# From -- ./inp_files/54403.got.cif
#   From: 2010.05.17/outbox.cif.g08.bks.cpg/sg15_28_cif.got.tgz:54403.got - 2010.06.03 18:47:42.
