data_PCOD9302756
_publ_section_title
;
Structure prediction by ZEFSAII (Michael W. Deem and Ramdas Pophale) SiO2 
 PCOD9302756
Probable space group: C 2/C
;
_chemical_formula_sum "Si O2"
_cell_formula_units_Z 56
_cell_length_a 19.388573
_cell_length_b 16.735203
_cell_length_c 8.821125
_cell_angle_alpha 90.000000
_cell_angle_beta 109.727663
_cell_angle_gamma 90.000000
_cell_volume 2694.215995
_symmetry_space_group_name_H-M "C 2/C"
_symmetry_group_IT_number 15
_symmetry_cell_setting 'monoclinic'
loop_
_space_group_symop_operation_xyz
x,y,z
-x,y,1/2-z
-x,-y,-z
x,-y,1/2+z
1/2+x,1/2+y,z
1/2-x,1/2+y,1/2-z
1/2-x,1/2-y,-z
1/2+x,1/2-y,1/2+z
loop_
_atom_site_type_symbol
_atom_site_label
_atom_site_fract_x
_atom_site_fract_y
_atom_site_fract_z
Si Si1 0.736264 0.766992 0.312434
Si Si2 0.613350 0.159819 0.523322
Si Si3 0.792987 0.065480 0.892653
Si Si4 0.852850 0.665283 0.295881
Si Si5 0.964071 0.074067 0.059557
Si Si6 0.804776 0.488324 0.903416
Si Si7 0.478913 0.243566 0.556938
O O1 0.750000 0.750000 0.500000
O O2 0.658528 0.789117 0.182311
O O3 0.783043 0.846431 0.317266
O O4 0.768924 0.692628 0.247205
O O5 0.621868 0.184353 0.354334
O O6 0.530721 0.180093 0.508803
O O7 0.648257 0.070232 0.549382
O O8 0.769827 0.005754 0.743566
O O9 0.876447 0.060304 0.006508
O O10 0.727699 0.050671 0.967222
O O11 0.853824 0.573521 0.345762
O O12 0.898057 0.713386 0.455704
O O13 0.000000 0.074737 0.250000
O O14 0.981756 0.163263 0.008163
O O15 0.000000 0.000000 0.000000
O O16 0.500000 0.240567 0.750000
#
# Coordination Sequence:
#
# PCOD9302756 Si02
#       7
#     8   8   8   8   8   8   8
#     4  11  22  39  70  95 131 179 228 287 335 404
#     4  11  26  43  64 105 139 181 229 288 348 415
#     4  11  22  43  65  99 134 174 231 283 340 409
#     4  12  23  44  68  99 138 181 230 291 347 413
#     4  11  25  44  68 100 135 181 225 278 347 410
#     4  11  24  41  70  99 136 176 232 286 346 405
#     4  11  26  45  70  99 140 185 231 278 350 422
#
# _framework density 20.785267000000001
#
# number of rings (size 3 to 8) (size 9 to 14) (size 15 to 20)
#    0.000    0.857    4.286    2.571    4.000    2.857 
#    5.143    0.000    0.000    0.000    0.000    0.000 
#    0.000    0.000    0.000    0.000    0.000    0.000 
#
# Total GULP energy -156104.694147 kJ/mol
# GULP energy per Si atom -5575.167648 kJ/mol
# Density = 2.073796 g / cm^3
# Si number density = 20.785267 Si / 1000 Ang^3
#
#
#
# Elastic Constant Matrix: (Units=GPa)
#
#
# Indices 1 2 3 4 5 6 
#
# 1 70.3412 15.6640 -5.2658 0.0000 2.5557 0.0000
# 2 15.6640 92.9368 13.2824 0.0000 6.1367 0.0000
# 3 -5.2658 13.2824 66.3142 0.0000 3.4299 0.0000
# 4 0.0000 0.0000 0.0000 27.0722 0.0000 -0.6782
# 5 2.5557 6.1367 3.4299 0.0000 39.7215 0.0000
# 6 0.0000 0.0000 0.0000 -0.6782 0.0000 27.1602
#
#
#
# Elastic Compliance Matrix: (Units=1/GPa)
#
#
# Indices 1 2 3 4 5 6 
#
# 1 0.014983 -0.002733 0.001773 0.000000 -0.000695 0.000000
# 2 -0.002733 0.011668 -0.002481 0.000000 -0.001413 0.000000
# 3 0.001773 -0.002481 0.015774 0.000000 -0.001093 0.000000
# 4 0.000000 0.000000 0.000000 0.036961 0.000000 0.000923
# 5 -0.000695 -0.001413 -0.001093 0.000000 0.025533 0.000000
# 6 0.000000 0.000000 0.000000 0.000923 0.000000 0.036842
#
#
# Mechanical properties :
#
#
# Convention : Reuss Voigt Hill
#
# Bulk Modulus (GPa) = 28.13433 30.77260 29.45347
# Shear Modulus (GPa) = 31.15449 32.51824 31.83637
#
# Velocity S-wave (km/s) = 3.87573 3.95965 3.91791
# Velocity P-wave (km/s) = 5.79599 5.97848 5.88794
#
# Compressibility (1/GPa) = 0.03554376
#
# Stress axis : x y z
#
# Youngs Moduli (GPa) = 66.74247 85.70107 63.39550
#
# Poissons Ratio (x) = 0.23421 -0.11240
# Poissons Ratio (y) = 0.18240 0.15729
# Poissons Ratio (z) = -0.11834 0.21263
#
# Static dielectric constant tensor:
#      x y z
#    x 1.756240 0.000000 -0.006520 
#    y 0.000000 1.774330 0.000000 
#    z -0.006520 0.000000 1.761650 
# 
# From -- ./inp_files/49149.got.cif
#   From: 2010.05.17/outbox.cif.g08.bks.cpg/sg15_25_cif.got.tgz:49149.got - 2010.06.03 18:47:42.
