data_PCOD9302489
_publ_section_title
;
Structure prediction by ZEFSAII (Michael W. Deem and Ramdas Pophale) SiO2 
 PCOD9302489
Probable space group: C 2/C
;
_chemical_formula_sum "Si O2"
_cell_formula_units_Z 32
_cell_length_a 6.528034
_cell_length_b 13.171517
_cell_length_c 15.618249
_cell_angle_alpha 90.000000
_cell_angle_beta 106.987026
_cell_angle_gamma 90.000000
_cell_volume 1284.330855
_symmetry_space_group_name_H-M "C 2/C"
_symmetry_group_IT_number 15
_symmetry_cell_setting 'monoclinic'
loop_
_space_group_symop_operation_xyz
x,y,z
-x,y,1/2-z
-x,-y,-z
x,-y,1/2+z
1/2+x,1/2+y,z
1/2-x,1/2+y,1/2-z
1/2-x,1/2-y,-z
1/2+x,1/2-y,1/2+z
loop_
_atom_site_type_symbol
_atom_site_label
_atom_site_fract_x
_atom_site_fract_y
_atom_site_fract_z
Si Si1 0.574480 0.137873 0.913807
Si Si2 0.038498 0.567763 0.353290
Si Si3 0.430658 0.698605 0.838912
Si Si4 0.969367 0.148002 0.468660
O O1 0.454188 0.239748 0.925947
O O2 0.694720 0.161746 0.838105
O O3 0.457632 0.030970 0.893230
O O4 0.777460 0.124760 0.003425
O O5 0.944505 0.679962 0.355876
O O6 0.293069 0.578393 0.403793
O O7 0.000000 0.547457 0.250000
O O8 0.500000 0.676898 0.750000
O O9 0.567545 0.651216 0.933642
#
# Coordination Sequence:
#
# PCOD9302489 Si02
#       4
#     8   8   8   8
#     4   9  21  41  64  87 120 164 204 255 302 354
#     4  11  22  37  61  94 125 158 204 251 305 369
#     4   9  20  39  61  92 120 157 204 254 299 355
#     4   9  20  43  64  87 123 162 205 254 299 365
#
# _framework density 24.915696000000001
#
# number of rings (size 3 to 8) (size 9 to 14) (size 15 to 20)
#    1.500    1.000    0.000    1.500    0.000    5.000 
#    0.000   10.000    0.000    0.000    0.000    0.000 
#    0.000    0.000    0.000    0.000    0.000    0.000 
#
# Total GULP energy -89293.267175 kJ/mol
# GULP energy per Si atom -5580.829198 kJ/mol
# Density = 2.485899 g / cm^3
# Si number density = 24.915696 Si / 1000 Ang^3
#
#
#
# Elastic Constant Matrix: (Units=GPa)
#
#
# Indices 1 2 3 4 5 6 
#
# 1 58.2047 11.7637 32.3545 0.0000 -22.7536 0.0000
# 2 11.7637 112.8467 23.9707 0.0000 19.2944 0.0000
# 3 32.3545 23.9707 145.8999 0.0000 -22.0933 0.0000
# 4 0.0000 0.0000 0.0000 63.2073 0.0000 -6.1796
# 5 -22.7536 19.2944 -22.0933 0.0000 30.5324 0.0000
# 6 0.0000 0.0000 0.0000 -6.1796 0.0000 31.1993
#
#
#
# Elastic Compliance Matrix: (Units=1/GPa)
#
#
# Indices 1 2 3 4 5 6 
#
# 1 0.029289 -0.007031 -0.001530 0.000000 0.025163 0.000000
# 2 -0.007031 0.012851 -0.002892 0.000000 -0.015453 0.000000
# 3 -0.001530 -0.002892 0.008729 0.000000 0.007004 0.000000
# 4 0.000000 0.000000 0.000000 0.016133 0.000000 0.003196
# 5 0.025163 -0.015453 0.007004 0.000000 0.066338 0.000000
# 6 0.000000 0.000000 0.000000 0.003196 0.000000 0.032685
#
#
# Mechanical properties :
#
#
# Convention : Reuss Voigt Hill
#
# Bulk Modulus (GPa) = 35.76053 50.34768 43.05411
# Shear Modulus (GPa) = 25.22050 41.57862 33.39956
#
# Velocity S-wave (km/s) = 3.18501 4.08949 3.66526
# Velocity P-wave (km/s) = 5.28295 6.52301 5.93545
#
# Compressibility (1/GPa) = 0.02796379
#
# Stress axis : x y z
#
# Youngs Moduli (GPa) = 34.14283 77.81451 114.56020
#
# Poissons Ratio (x) = 0.54708 0.17523
# Poissons Ratio (y) = 0.24005 0.33135
# Poissons Ratio (z) = 0.05222 0.22507
#
# Static dielectric constant tensor:
#      x y z
#    x 1.997940 0.000000 -0.002830 
#    y 0.000000 1.956590 0.000000 
#    z -0.002830 0.000000 1.977530 
# 
# From -- ./inp_files/187494.got.cif
#   From: 2010.05.17/outbox.cif.g08.bks.cpg/sg15_94_cif.got.tgz:187494.got - 2010.06.03 18:47:42.
