data_PCOD9302078
_publ_section_title
;
Structure prediction by ZEFSAII (Michael W. Deem and Ramdas Pophale) SiO2 
 PCOD9302078
Probable space group: C 2/C
;
_chemical_formula_sum "Si O2"
_cell_formula_units_Z 48
_cell_length_a 13.531990
_cell_length_b 30.121062
_cell_length_c 11.232342
_cell_angle_alpha 90.000000
_cell_angle_beta 146.156915
_cell_angle_gamma 90.000000
_cell_volume 2549.736755
_symmetry_space_group_name_H-M "C 2/C"
_symmetry_group_IT_number 15
_symmetry_cell_setting 'monoclinic'
loop_
_space_group_symop_operation_xyz
x,y,z
-x,y,1/2-z
-x,-y,-z
x,-y,1/2+z
1/2+x,1/2+y,z
1/2-x,1/2+y,1/2-z
1/2-x,1/2-y,-z
1/2+x,1/2-y,1/2+z
loop_
_atom_site_type_symbol
_atom_site_label
_atom_site_fract_x
_atom_site_fract_y
_atom_site_fract_z
Si Si1 0.702274 0.200032 0.216788
Si Si2 0.298859 0.200015 0.813772
Si Si3 0.499712 0.451591 0.556217
Si Si4 0.499369 0.365746 0.389774
Si Si5 0.792485 0.570498 0.542459
Si Si6 0.713921 0.674617 0.464059
O O1 0.750746 0.249980 0.303028
O O2 0.722841 0.197201 0.094030
O O3 0.833199 0.163914 0.402715
O O4 0.500687 0.190415 0.047533
O O5 0.168335 0.163940 0.738721
O O6 0.277210 0.197095 0.648862
O O7 0.500000 0.500000 0.500000
O O8 0.499173 0.411891 0.460325
O O9 0.323946 0.445614 0.461678
O O10 0.675834 0.445504 0.813373
O O11 0.500000 0.372981 0.250000
O O12 0.781281 0.624028 0.531373
O O13 0.000000 0.557320 0.750000
O O14 0.500000 0.673723 0.250000
#
# Coordination Sequence:
#
# PCOD9302078 Si02
#       6
#     8   8   8   8   8   8
#     4  12  23  41  64  96 132 173 219 270 327 392
#     4  12  23  41  64  96 132 173 219 270 327 392
#     4  11  25  46  72  99 133 176 220 277 339 393
#     4  12  27  45  64  93 133 181 231 268 320 397
#     4  11  21  41  72 103 134 167 210 282 345 387
#     4  12  19  38  67 102 136 166 207 271 345 388
#
# _framework density 18.825472999999999
#
# number of rings (size 3 to 8) (size 9 to 14) (size 15 to 20)
#    0.000    0.333    8.333    2.000    2.333    2.000 
#    0.000    0.000    0.000    0.000    0.000    0.000 
#    0.000    0.000    0.000    0.000    0.000    0.000 
#
# Total GULP energy -134251.526828 kJ/mol
# GULP energy per Si atom -5593.813618 kJ/mol
# Density = 1.878263 g / cm^3
# Si number density = 18.825473 Si / 1000 Ang^3
#
#
#
# Elastic Constant Matrix: (Units=GPa)
#
#
# Indices 1 2 3 4 5 6 
#
# 1 105.0981 70.2781 102.9385 0.0000 -0.3810 0.0000
# 2 70.2781 172.3993 68.0332 0.0000 0.4522 0.0000
# 3 102.9385 68.0332 130.4722 0.0000 38.5202 0.0000
# 4 0.0000 0.0000 0.0000 21.2055 0.0000 -16.5105
# 5 -0.3810 0.4522 38.5202 0.0000 45.9522 0.0000
# 6 0.0000 0.0000 0.0000 -16.5105 0.0000 35.4483
#
#
#
# Elastic Compliance Matrix: (Units=1/GPa)
#
#
# Indices 1 2 3 4 5 6 
#
# 1 -0.285111 -0.001972 0.301210 0.000000 -0.254839 0.000000
# 2 -0.001972 0.007937 -0.003395 0.000000 0.002752 0.000000
# 3 0.301210 -0.003395 -0.304258 0.000000 0.257580 0.000000
# 4 0.000000 0.000000 0.000000 0.073989 0.000000 0.034461
# 5 -0.254839 0.002752 0.257580 0.000000 -0.196299 0.000000
# 6 0.000000 0.000000 0.000000 0.034461 0.000000 0.044261
#
#
# Mechanical properties :
#
#
# Convention : Reuss Voigt Hill
#
# Bulk Modulus (GPa) = 97.52433 98.94100 98.23267
# Shear Modulus (GPa) = -4.00722 31.63586 13.81432
#
# Velocity S-wave (km/s) = -1.46056 4.10382 2.71183
# Velocity P-wave (km/s) = 7.00518 8.66753 7.88032
#
# Compressibility (1/GPa) = 0.01025385
#
# Stress axis : x y z
#
# Youngs Moduli (GPa) = -3.50740 125.99274 -3.28669
#
# Poissons Ratio (x) = 0.24846 0.98998
# Poissons Ratio (y) = -0.00692 -0.01116
# Poissons Ratio (z) = 1.05647 0.42777
#
# Static dielectric constant tensor:
#      x y z
#    x 1.655240 0.000000 -0.003290 
#    y 0.000000 1.619690 0.000000 
#    z -0.003290 0.000000 1.652360 
# 
# From -- ./inp_files/101258.got.cif
#   From: 2010.05.17/outbox.cif.g08.bks.cpg/sg15_51_cif.got.tgz:101258.got - 2010.06.03 18:47:42.
