data_PCOD9302503
_publ_section_title
;
Structure prediction by ZEFSAII (Michael W. Deem and Ramdas Pophale) SiO2 
 PCOD9302503
Probable space group: C 2/C
;
_chemical_formula_sum "Si O2"
_cell_formula_units_Z 40
_cell_length_a 25.004935
_cell_length_b 9.639276
_cell_length_c 9.935314
_cell_angle_alpha 90.000000
_cell_angle_beta 65.527909
_cell_angle_gamma 90.000000
_cell_volume 2179.570878
_symmetry_space_group_name_H-M "C 2/C"
_symmetry_group_IT_number 15
_symmetry_cell_setting 'monoclinic'
loop_
_space_group_symop_operation_xyz
x,y,z
-x,y,1/2-z
-x,-y,-z
x,-y,1/2+z
1/2+x,1/2+y,z
1/2-x,1/2+y,1/2-z
1/2-x,1/2-y,-z
1/2+x,1/2-y,1/2+z
loop_
_atom_site_type_symbol
_atom_site_label
_atom_site_fract_x
_atom_site_fract_y
_atom_site_fract_z
Si Si1 0.260961 0.967437 0.356178
Si Si2 0.360750 0.768717 0.173048
Si Si3 0.957680 0.520264 0.669782
Si Si4 0.180295 0.994336 0.187214
Si Si5 0.643218 0.190423 0.145533
O O1 0.233496 0.992440 0.238679
O O2 0.302779 0.093163 0.362044
O O3 0.301615 0.832447 0.300631
O O4 0.207857 0.959207 0.516525
O O5 0.413774 0.855450 0.179953
O O6 0.363920 0.608486 0.208887
O O7 0.357272 0.793661 0.016082
O O8 0.915946 0.388047 0.745909
O O9 0.000000 0.549415 0.750000
O O10 0.000000 0.500000 0.500000
O O11 0.152968 0.157828 0.697933
#
# Coordination Sequence:
#
# PCOD9302503 Si02
#       5
#     8   8   8   8   8
#     4  11  22  37  63  90 130 174 200 238 295 371
#     4  11  23  40  63  94 123 164 210 249 303 370
#     4  11  24  45  71  87 113 159 212 264 313 361
#     4  12  22  38  61  93 135 162 198 247 307 361
#     4  11  23  41  62  93 127 162 206 255 303 361
#
# _framework density 18.352236000000001
#
# number of rings (size 3 to 8) (size 9 to 14) (size 15 to 20)
#    0.000    0.800    6.000    2.400    0.000    1.600 
#    0.000    2.000    0.000    0.000    0.000    0.000 
#    0.000    0.000    0.000    0.000    0.000    0.000 
#
# Total GULP energy -111753.995805 kJ/mol
# GULP energy per Si atom -5587.699790 kJ/mol
# Density = 1.831047 g / cm^3
# Si number density = 18.352236 Si / 1000 Ang^3
#
#
#
# Elastic Constant Matrix: (Units=GPa)
#
#
# Indices 1 2 3 4 5 6 
#
# 1 101.0356 55.1178 28.3629 0.0000 14.6485 0.0000
# 2 55.1178 145.6832 42.3196 0.0000 5.6215 0.0000
# 3 28.3629 42.3196 80.4330 0.0000 8.6136 0.0000
# 4 0.0000 0.0000 0.0000 22.2197 0.0000 11.2727
# 5 14.6485 5.6215 8.6136 0.0000 34.0860 0.0000
# 6 0.0000 0.0000 0.0000 11.2727 0.0000 9.9279
#
#
#
# Elastic Compliance Matrix: (Units=1/GPa)
#
#
# Indices 1 2 3 4 5 6 
#
# 1 0.013491 -0.004353 -0.001976 0.000000 -0.004581 0.000000
# 2 -0.004353 0.009510 -0.003598 0.000000 0.001212 0.000000
# 3 -0.001976 -0.003598 0.015282 0.000000 -0.002419 0.000000
# 4 0.000000 0.000000 0.000000 0.106157 0.000000 -0.120536
# 5 -0.004581 0.001212 -0.002419 0.000000 0.031717 0.000000
# 6 0.000000 0.000000 0.000000 -0.120536 0.000000 0.237591
#
#
# Mechanical properties :
#
#
# Convention : Reuss Voigt Hill
#
# Bulk Modulus (GPa) = 54.26808 64.30581 59.28694
# Shear Modulus (GPa) = 11.37020 26.67016 19.02018
#
# Velocity S-wave (km/s) = 2.49178 3.81627 3.22280
# Velocity P-wave (km/s) = 6.15736 7.38474 6.79881
#
# Compressibility (1/GPa) = 0.01842704
#
# Stress axis : x y z
#
# Youngs Moduli (GPa) = 74.12161 105.15501 65.43718
#
# Poissons Ratio (x) = 0.45779 0.12933
# Poissons Ratio (y) = 0.32269 0.23545
# Poissons Ratio (z) = 0.14649 0.37836
#
# Static dielectric constant tensor:
#      x y z
#    x 1.611840 0.000000 -0.018360 
#    y 0.000000 1.635680 0.000000 
#    z -0.018360 0.000000 1.623820 
# 
# From -- ./inp_files/65008.got.cif
#   From: 2010.05.17/outbox.cif.g08.bks.cpg/sg15_33_cif.got.tgz:65008.got - 2010.06.03 18:47:42.
