data_PCOD9302793
_publ_section_title
;
Structure prediction by ZEFSAII (Michael W. Deem and Ramdas Pophale) SiO2 
 PCOD9302793
Probable space group: C 2/C
;
_chemical_formula_sum "Si O2"
_cell_formula_units_Z 48
_cell_length_a 28.279053
_cell_length_b 7.698155
_cell_length_c 14.533431
_cell_angle_alpha 90.000000
_cell_angle_beta 44.083737
_cell_angle_gamma 90.000000
_cell_volume 2201.137873
_symmetry_space_group_name_H-M "C 2/C"
_symmetry_group_IT_number 15
_symmetry_cell_setting 'monoclinic'
loop_
_space_group_symop_operation_xyz
x,y,z
-x,y,1/2-z
-x,-y,-z
x,-y,1/2+z
1/2+x,1/2+y,z
1/2-x,1/2+y,1/2-z
1/2-x,1/2-y,-z
1/2+x,1/2-y,1/2+z
loop_
_atom_site_type_symbol
_atom_site_label
_atom_site_fract_x
_atom_site_fract_y
_atom_site_fract_z
Si Si1 0.804542 0.577458 0.886246
Si Si2 0.840016 0.955391 0.464522
Si Si3 0.215123 0.589181 0.889610
Si Si4 0.095892 0.902888 0.789307
Si Si5 0.339651 0.831658 0.688825
Si Si6 0.559344 0.409111 0.525098
O O1 0.853152 0.740178 0.796283
O O2 0.840485 0.415536 0.787493
O O3 0.729518 0.568863 0.944171
O O4 0.790603 0.531953 0.012085
O O5 0.823490 0.767872 0.530127
O O6 0.867621 0.948428 0.321995
O O7 0.897128 0.045549 0.446280
O O8 0.289294 0.665045 0.760098
O O9 0.187585 0.477423 0.843582
O O10 0.079544 0.950387 0.917680
O O11 0.020703 0.889385 0.851228
O O12 0.412324 0.770419 0.554088
#
# Coordination Sequence:
#
# PCOD9302793 Si02
#       6
#     8   8   8   8   8   8
#     4  11  23  39  65  95 124 163 209 262 311 364
#     4  11  22  40  64  93 123 162 213 259 311 367
#     4  11  23  39  64  96 127 160 205 264 314 364
#     4  11  24  43  64  90 128 169 209 253 309 372
#     4  11  22  40  63  93 128 160 206 257 312 373
#     4  11  24  41  63  91 128 171 208 252 309 372
#
# _framework density 21.806903999999999
#
# number of rings (size 3 to 8) (size 9 to 14) (size 15 to 20)
#    0.000    1.000    0.000    9.000    0.000    4.667 
#    0.000    3.333    0.000    0.000    0.000    0.000 
#    0.000    0.000    0.000    0.000    0.000    0.000 
#
# Total GULP energy -134098.277737 kJ/mol
# GULP energy per Si atom -5587.428239 kJ/mol
# Density = 2.175727 g / cm^3
# Si number density = 21.806904 Si / 1000 Ang^3
#
#
#
# Elastic Constant Matrix: (Units=GPa)
#
#
# Indices 1 2 3 4 5 6 
#
# 1 88.3721 39.8486 58.7257 0.0000 -14.0764 0.0000
# 2 39.8486 108.4467 59.2945 -0.0002 -19.8213 0.0000
# 3 58.7257 59.2945 136.3654 0.0000 -8.9276 0.0000
# 4 0.0000 -0.0002 0.0000 30.7488 0.0000 11.3356
# 5 -14.0764 -19.8213 -8.9276 0.0000 38.5151 0.0000
# 6 0.0000 0.0000 0.0000 11.3356 0.0000 30.0815
#
#
#
# Elastic Compliance Matrix: (Units=1/GPa)
#
#
# Indices 1 2 3 4 5 6 
#
# 1 0.016949 -0.002234 -0.006090 0.000000 0.003633 0.000000
# 2 -0.002234 0.013458 -0.004559 0.000000 0.005053 0.000000
# 3 -0.006090 -0.004559 0.011818 0.000000 -0.001832 0.000000
# 4 0.000000 0.000000 0.000000 0.037768 0.000000 -0.014232
# 5 0.003633 0.005053 -0.001832 0.000000 0.029467 0.000000
# 6 0.000000 0.000000 0.000000 -0.014232 0.000000 0.038606
#
#
# Mechanical properties :
#
#
# Convention : Reuss Voigt Hill
#
# Bulk Modulus (GPa) = 60.75528 72.10241 66.42884
# Shear Modulus (GPa) = 27.88330 31.55676 29.72003
#
# Velocity S-wave (km/s) = 3.57969 3.80820 3.69572
# Velocity P-wave (km/s) = 6.70870 7.24378 6.98137
#
# Compressibility (1/GPa) = 0.01645947
#
# Stress axis : x y z
#
# Youngs Moduli (GPa) = 59.00186 74.30373 84.61588
#
# Poissons Ratio (x) = 0.16601 0.51528
# Poissons Ratio (y) = 0.13182 0.38576
# Poissons Ratio (z) = 0.35930 0.33875
#
# Static dielectric constant tensor:
#      x y z
#    x 1.810790 0.000000 0.019800 
#    y 0.000000 1.809950 0.000000 
#    z 0.019800 0.000000 1.777390 
# 
# From -- ./inp_files/176863.got.cif
#   From: 2010.05.17/outbox.cif.g08.bks.cpg/sg15_89_cif.got.tgz:176863.got - 2010.06.03 18:47:42.
