data_PCOD9302445
_publ_section_title
;
Structure prediction by ZEFSAII (Michael W. Deem and Ramdas Pophale) SiO2 
 PCOD9302445
Probable space group: C 2/C
;
_chemical_formula_sum "Si O2"
_cell_formula_units_Z 60
_cell_length_a 19.810718
_cell_length_b 25.306217
_cell_length_c 11.243188
_cell_angle_alpha 90.000000
_cell_angle_beta 151.886425
_cell_angle_gamma 90.000000
_cell_volume 2656.081716
_symmetry_space_group_name_H-M "C 2/C"
_symmetry_group_IT_number 15
_symmetry_cell_setting 'monoclinic'
loop_
_space_group_symop_operation_xyz
x,y,z
-x,y,1/2-z
-x,-y,-z
x,-y,1/2+z
1/2+x,1/2+y,z
1/2-x,1/2+y,1/2-z
1/2-x,1/2-y,-z
1/2+x,1/2-y,1/2+z
loop_
_atom_site_type_symbol
_atom_site_label
_atom_site_fract_x
_atom_site_fract_y
_atom_site_fract_z
Si Si1 0.783262 0.496462 0.253922
Si Si2 0.956279 0.932363 0.001098
Si Si3 0.130279 0.670663 0.363167
Si Si4 0.000000 0.160330 0.750000
Si Si5 0.707969 0.047230 0.481297
Si Si6 0.775638 0.731240 0.185859
Si Si7 0.845990 0.898392 0.572202
Si Si8 0.670797 0.722714 0.485802
O O1 0.641956 0.530529 0.068808
O O2 0.846098 0.483513 0.483776
O O3 0.842920 0.526212 0.227770
O O4 0.750556 0.439273 0.149112
O O5 0.875242 0.918324 0.752169
O O6 0.977615 0.877645 0.103407
O O7 0.116806 0.955977 0.236980
O O8 0.170238 0.609387 0.424549
O O9 0.101543 0.697687 0.189768
O O10 0.255390 0.709400 0.605537
O O11 0.000000 0.677996 0.250000
O O12 0.864172 0.196762 0.553898
O O13 0.781015 0.740676 0.331709
O O14 0.790100 0.839153 0.466845
O O15 0.000000 0.900783 0.750000
O O16 0.500000 0.721384 0.250000
O O17 0.750000 0.750000 0.500000
#
# Coordination Sequence:
#
# PCOD9302445 Si02
#       8
#     8   8   8   4   8   8   8   8
#     4  12  22  38  61  98 139 174 222 294 355 416
#     4  12  21  33  61  97 139 167 218 283 359 418
#     4  11  25  43  70  96 134 184 235 289 349 424
#     4  12  22  40  68 104 138 176 228 298 350 422
#     4  12  23  38  62  96 131 179 227 283 354 420
#     4  11  24  44  69 102 136 180 237 296 352 419
#     4  11  22  36  59  95 134 180 221 281 355 426
#     4  11  27  45  70 101 145 191 237 293 364 439
#
# _framework density 22.589666000000001
#
# number of rings (size 3 to 8) (size 9 to 14) (size 15 to 20)
#    0.000    0.533    6.000    2.800    3.733    0.000 
#    0.000    0.667    0.000    0.800    0.000    0.000 
#    0.000    0.000    0.000    0.000    0.000    0.000 
#
# Total GULP energy -167472.491717 kJ/mol
# GULP energy per Si atom -5582.416391 kJ/mol
# Density = 2.253825 g / cm^3
# Si number density = 22.589666 Si / 1000 Ang^3
#
#
#
# Elastic Constant Matrix: (Units=GPa)
#
#
# Indices 1 2 3 4 5 6 
#
# 1 187.8373 81.6109 61.8873 0.0000 -46.2672 0.0000
# 2 81.6109 160.3359 33.0888 0.0000 0.3816 0.0000
# 3 61.8873 33.0888 52.4730 0.0000 -7.5486 0.0000
# 4 0.0000 0.0000 0.0000 29.9720 0.0000 -10.8303
# 5 -46.2672 0.3816 -7.5486 0.0000 28.6249 0.0000
# 6 0.0000 0.0000 0.0000 -10.8303 0.0000 49.2436
#
#
#
# Elastic Compliance Matrix: (Units=1/GPa)
#
#
# Indices 1 2 3 4 5 6 
#
# 1 0.021544 -0.007709 -0.016136 0.000000 0.030669 0.000000
# 2 -0.007709 0.009978 0.001027 0.000000 -0.012322 0.000000
# 3 -0.016136 0.001027 0.035015 0.000000 -0.016861 0.000000
# 4 0.000000 0.000000 0.000000 0.036245 0.000000 0.007971
# 5 0.030669 -0.012322 -0.016861 0.000000 0.080224 0.000000
# 6 0.000000 0.000000 0.000000 0.007971 0.000000 0.022060
#
#
# Mechanical properties :
#
#
# Convention : Reuss Voigt Hill
#
# Bulk Modulus (GPa) = 47.84271 83.75780 65.80025
# Shear Modulus (GPa) = 19.40482 36.50538 27.95510
#
# Velocity S-wave (km/s) = 2.93407 4.02434 3.52165
# Velocity P-wave (km/s) = 5.71869 7.66499 6.76223
#
# Compressibility (1/GPa) = 0.02090183
#
# Stress axis : x y z
#
# Youngs Moduli (GPa) = 46.41747 100.22070 28.55915
#
# Poissons Ratio (x) = 0.77257 0.46083
# Poissons Ratio (y) = 0.35782 -0.02934
# Poissons Ratio (z) = 0.74899 -0.10294
#
# Static dielectric constant tensor:
#      x y z
#    x 1.947290 0.000000 -0.068890 
#    y 0.000000 1.813480 0.000000 
#    z -0.068890 0.000000 1.888160 
# 
# From -- ./inp_files/114837.got.cif
#   From: 2010.05.17/outbox.cif.g08.bks.cpg/sg15_58_cif.got.tgz:114837.got - 2010.06.03 18:47:42.
