data_PCOD9302986
_publ_section_title
;
Structure prediction by ZEFSAII (Michael W. Deem and Ramdas Pophale) SiO2 
 PCOD9302986
Probable space group: C 2/C
;
_chemical_formula_sum "Si O2"
_cell_formula_units_Z 56
_cell_length_a 9.182425
_cell_length_b 20.646476
_cell_length_c 13.825679
_cell_angle_alpha 90.000000
_cell_angle_beta 117.260370
_cell_angle_gamma 90.000000
_cell_volume 2330.018865
_symmetry_space_group_name_H-M "C 2/C"
_symmetry_group_IT_number 15
_symmetry_cell_setting 'monoclinic'
loop_
_space_group_symop_operation_xyz
x,y,z
-x,y,1/2-z
-x,-y,-z
x,-y,1/2+z
1/2+x,1/2+y,z
1/2-x,1/2+y,1/2-z
1/2-x,1/2-y,-z
1/2+x,1/2-y,1/2+z
loop_
_atom_site_type_symbol
_atom_site_label
_atom_site_fract_x
_atom_site_fract_y
_atom_site_fract_z
Si Si1 0.691446 0.182789 0.292577
Si Si2 0.232054 0.679603 0.674897
Si Si3 0.633334 0.634861 0.971638
Si Si4 0.638624 0.187390 0.968778
Si Si5 0.176670 0.494734 0.000719
Si Si6 0.739556 0.594082 0.642125
Si Si7 0.687076 0.595269 0.325179
O O1 0.500000 0.184400 0.250000
O O2 0.736274 0.252587 0.258740
O O3 0.802566 0.178384 0.421754
O O4 0.727062 0.115676 0.247467
O O5 0.362482 0.673272 0.627776
O O6 0.238279 0.612343 0.738098
O O7 0.053761 0.689562 0.572890
O O8 0.765610 0.577605 0.000409
O O9 0.454270 0.604667 0.936668
O O10 0.659325 0.152546 0.873223
O O11 0.750000 0.250000 0.000000
O O12 0.723547 0.141030 0.071541
O O13 0.296803 0.526328 0.118220
O O14 0.197749 0.533211 0.903858
O O15 0.000000 0.500000 0.000000
O O16 0.500000 0.611717 0.250000
#
# Coordination Sequence:
#
# PCOD9302986 Si02
#       7
#     8   8   8   8   8   8   8
#     4  12  24  42  67  99 136 180 225 279 344 404
#     4  12  25  43  68 101 137 178 225 280 343 412
#     4  12  25  44  67  99 138 180 230 284 335 405
#     4  11  22  41  66  97 134 174 222 281 340 410
#     4  11  25  47  70  99 134 176 229 283 340 409
#     4  11  24  43  67  99 133 176 225 280 343 405
#     4  11  24  44  67  96 131 174 222 277 341 407
#
# _framework density 24.034140000000001
#
# number of rings (size 3 to 8) (size 9 to 14) (size 15 to 20)
#    0.000    0.571    0.000   10.286    0.000    2.286 
#    0.000    5.714    0.000    0.000    0.000    0.000 
#    0.000    0.000    0.000    0.000    0.000    0.000 
#
# Total GULP energy -156454.590071 kJ/mol
# GULP energy per Si atom -5587.663931 kJ/mol
# Density = 2.397944 g / cm^3
# Si number density = 24.034140 Si / 1000 Ang^3
#
#
#
# Elastic Constant Matrix: (Units=GPa)
#
#
# Indices 1 2 3 4 5 6 
#
# 1 115.3426 17.0031 25.4212 0.0000 21.1355 0.0000
# 2 17.0031 88.4790 9.1845 0.0000 -5.8605 0.0000
# 3 25.4212 9.1845 101.2758 0.0000 0.6897 0.0000
# 4 0.0000 0.0000 0.0000 25.7929 0.0000 -7.3498
# 5 21.1355 -5.8605 0.6897 0.0000 52.1642 0.0000
# 6 0.0000 0.0000 0.0000 -7.3498 0.0000 39.8595
#
#
#
# Elastic Compliance Matrix: (Units=1/GPa)
#
#
# Indices 1 2 3 4 5 6 
#
# 1 0.010290 -0.002021 -0.002370 0.000000 -0.004365 0.000000
# 2 -0.002021 0.011895 -0.000586 0.000000 0.002163 0.000000
# 3 -0.002370 -0.000586 0.010517 0.000000 0.000755 0.000000
# 4 0.000000 0.000000 0.000000 0.040921 0.000000 0.007545
# 5 -0.004365 0.002163 0.000755 0.000000 0.021172 0.000000
# 6 0.000000 0.000000 0.000000 0.007545 0.000000 0.026479
#
#
# Mechanical properties :
#
#
# Convention : Reuss Voigt Hill
#
# Bulk Modulus (GPa) = 43.96001 45.36833 44.66417
# Shear Modulus (GPa) = 36.02076 40.46254 38.24165
#
# Velocity S-wave (km/s) = 3.87555 4.10755 3.99324
# Velocity P-wave (km/s) = 6.19329 6.43534 6.31547
#
# Compressibility (1/GPa) = 0.02274795
#
# Stress axis : x y z
#
# Youngs Moduli (GPa) = 97.18368 84.07240 95.08499
#
# Poissons Ratio (x) = 0.16987 0.22534
# Poissons Ratio (y) = 0.19636 0.05574
# Poissons Ratio (z) = 0.23031 0.04929
#
# Static dielectric constant tensor:
#      x y z
#    x 1.927960 0.000000 -0.034840 
#    y 0.000000 1.935630 0.000000 
#    z -0.034840 0.000000 2.105580 
# 
# From -- ./inp_files/137971.got.cif
#   From: 2010.05.17/outbox.cif.g08.bks.cpg/sg15_69_cif.got.tgz:137971.got - 2010.06.03 18:47:42.
