data_PCOD9302144
_publ_section_title
;
Structure prediction by ZEFSAII (Michael W. Deem and Ramdas Pophale) SiO2 
 PCOD9302144
Probable space group: C 2/C
;
_chemical_formula_sum "Si O2"
_cell_formula_units_Z 48
_cell_length_a 29.364976
_cell_length_b 11.858063
_cell_length_c 14.796366
_cell_angle_alpha 90.000000
_cell_angle_beta 27.993006
_cell_angle_gamma 90.000000
_cell_volume 2418.288113
_symmetry_space_group_name_H-M "C 2/C"
_symmetry_group_IT_number 15
_symmetry_cell_setting 'monoclinic'
loop_
_space_group_symop_operation_xyz
x,y,z
-x,y,1/2-z
-x,-y,-z
x,-y,1/2+z
1/2+x,1/2+y,z
1/2-x,1/2+y,1/2-z
1/2-x,1/2-y,-z
1/2+x,1/2-y,1/2+z
loop_
_atom_site_type_symbol
_atom_site_label
_atom_site_fract_x
_atom_site_fract_y
_atom_site_fract_z
Si Si1 0.793752 0.116295 0.190472
Si Si2 0.322375 0.048846 0.283986
Si Si3 0.955489 0.750728 0.083229
Si Si4 0.407926 0.240540 0.371838
Si Si5 0.219623 0.902634 0.156018
Si Si6 0.176660 0.281579 0.207168
O O1 0.721042 0.088240 0.236037
O O2 0.780442 0.225450 0.277431
O O3 0.794562 0.014230 0.259878
O O4 0.889887 0.151856 0.967000
O O5 0.418963 0.122984 0.129457
O O6 0.252610 0.075562 0.493392
O O7 0.335404 0.915186 0.259942
O O8 0.934300 0.773489 0.225028
O O9 0.879410 0.831372 0.166139
O O10 0.069671 0.765513 0.870075
O O11 0.500000 0.173819 0.250000
O O12 0.309569 0.168677 0.538580
O O13 0.250000 0.250000 0.000000
#
# Coordination Sequence:
#
# PCOD9302144 Si02
#       6
#     8   8   8   8   8   8
#     4  12  23  42  71  95 141 175 219 279 336 397
#     4  11  23  45  72  96 133 178 228 272 336 398
#     4  11  23  44  70  96 131 180 229 277 324 405
#     4  11  21  42  69 101 127 175 233 267 325 406
#     4  11  23  44  68 101 137 172 223 283 331 403
#     4  12  26  46  65 100 139 174 222 284 342 388
#
# _framework density 19.848749999999999
#
# number of rings (size 3 to 8) (size 9 to 14) (size 15 to 20)
#    0.000    0.667    6.667    2.500    0.000    0.667 
#    3.000    0.833    0.000    0.000    0.000    0.000 
#    0.000    0.000    0.000    0.000    0.000    0.000 
#
# Total GULP energy -133905.612024 kJ/mol
# GULP energy per Si atom -5579.400501 kJ/mol
# Density = 1.980357 g / cm^3
# Si number density = 19.848750 Si / 1000 Ang^3
#
#
#
# Elastic Constant Matrix: (Units=GPa)
#
#
# Indices 1 2 3 4 5 6 
#
# 1 132.8671 39.3177 63.5188 0.0000 0.1333 0.0000
# 2 39.3177 57.6524 48.9223 0.0000 -9.0826 0.0000
# 3 63.5188 48.9223 125.3457 0.0000 4.0869 0.0000
# 4 0.0000 0.0000 0.0000 14.2784 0.0000 8.4129
# 5 0.1333 -9.0826 4.0869 0.0000 27.3195 0.0000
# 6 0.0000 0.0000 0.0000 8.4129 0.0000 27.1638
#
#
#
# Elastic Compliance Matrix: (Units=1/GPa)
#
#
# Indices 1 2 3 4 5 6 
#
# 1 0.010523 -0.004215 -0.003658 0.000000 -0.000906 0.000000
# 2 -0.004215 0.030789 -0.010265 0.000000 0.011792 0.000000
# 3 -0.003658 -0.010265 0.014017 0.000000 -0.005492 0.000000
# 4 0.000000 0.000000 0.000000 0.085669 0.000000 -0.026532
# 5 -0.000906 0.011792 -0.005492 0.000000 0.041350 0.000000
# 6 0.000000 0.000000 0.000000 -0.026532 0.000000 0.045031
#
#
# Mechanical properties :
#
#
# Convention : Reuss Voigt Hill
#
# Bulk Modulus (GPa) = 52.48717 68.82032 60.65375
# Shear Modulus (GPa) = 18.51803 24.69274 21.60538
#
# Velocity S-wave (km/s) = 3.05775 3.53093 3.30282
# Velocity P-wave (km/s) = 6.24239 7.16735 6.72080
#
# Compressibility (1/GPa) = 0.01905227
#
# Stress axis : x y z
#
# Youngs Moduli (GPa) = 95.02689 32.47954 71.34130
#
# Poissons Ratio (x) = 0.13691 0.26096
# Poissons Ratio (y) = 0.40057 0.73233
# Poissons Ratio (z) = 0.34760 0.33341
#
# Static dielectric constant tensor:
#      x y z
#    x 1.731560 0.000000 -0.020930 
#    y 0.000000 1.731730 0.000000 
#    z -0.020930 0.000000 1.705870 
# 
# From -- ./inp_files/151827.got.cif
#   From: 2010.05.17/outbox.cif.g08.bks.cpg/sg15_76_cif.got.tgz:151827.got - 2010.06.03 18:47:42.
