data_PCOD9302105
_publ_section_title
;
Structure prediction by ZEFSAII (Michael W. Deem and Ramdas Pophale) SiO2 
 PCOD9302105
Probable space group: C 2/C
;
_chemical_formula_sum "Si O2"
_cell_formula_units_Z 48
_cell_length_a 21.430268
_cell_length_b 13.914180
_cell_length_c 11.356869
_cell_angle_alpha 90.000000
_cell_angle_beta 46.241710
_cell_angle_gamma 90.000000
_cell_volume 2445.905902
_symmetry_space_group_name_H-M "C 2/C"
_symmetry_group_IT_number 15
_symmetry_cell_setting 'monoclinic'
loop_
_space_group_symop_operation_xyz
x,y,z
-x,y,1/2-z
-x,-y,-z
x,-y,1/2+z
1/2+x,1/2+y,z
1/2-x,1/2+y,1/2-z
1/2-x,1/2-y,-z
1/2+x,1/2-y,1/2+z
loop_
_atom_site_type_symbol
_atom_site_label
_atom_site_fract_x
_atom_site_fract_y
_atom_site_fract_z
Si Si1 0.620576 0.794102 0.700781
Si Si2 0.674988 0.384969 0.284916
Si Si3 0.259613 0.972615 0.966079
Si Si4 0.428373 0.252766 0.495872
Si Si5 0.210327 0.319382 0.149232
Si Si6 0.421989 0.526326 0.939960
O O1 0.654156 0.698076 0.719331
O O2 0.678992 0.885476 0.653517
O O3 0.620375 0.779378 0.560175
O O4 0.520943 0.799151 0.870363
O O5 0.721544 0.336103 0.334292
O O6 0.594652 0.446387 0.438771
O O7 0.736495 0.457961 0.133538
O O8 0.303407 0.074853 0.886157
O O9 0.168610 0.970222 0.014289
O O10 0.374016 0.225119 0.680516
O O11 0.438993 0.367481 0.468726
O O12 0.250000 0.250000 0.000000
O O13 0.500000 0.502221 0.750000
#
# Coordination Sequence:
#
# PCOD9302105 Si02
#       6
#     8   8   8   8   8   8
#     4  11  22  39  68  93 124 175 215 261 319 386
#     4  11  22  39  65  91 129 165 209 263 327 389
#     4  11  22  40  62  91 122 172 213 252 330 384
#     4  11  21  42  64  93 130 168 219 269 311 386
#     4  11  25  41  65  95 128 166 215 274 321 381
#     4  11  22  37  62  96 129 166 209 267 324 387
#
# _framework density 19.624628999999999
#
# number of rings (size 3 to 8) (size 9 to 14) (size 15 to 20)
#    0.000    1.000    5.000    2.500    0.000    7.333 
#    0.000    0.000    0.000    0.000    0.000    0.000 
#    0.000    0.000    0.000    0.000    0.000    0.000 
#
# Total GULP energy -134169.366671 kJ/mol
# GULP energy per Si atom -5590.390278 kJ/mol
# Density = 1.957996 g / cm^3
# Si number density = 19.624629 Si / 1000 Ang^3
#
#
#
# Elastic Constant Matrix: (Units=GPa)
#
#
# Indices 1 2 3 4 5 6 
#
# 1 51.8925 5.4910 16.9281 0.0000 4.4445 0.0000
# 2 5.4910 92.1541 64.1661 0.0000 1.2439 0.0000
# 3 16.9281 64.1661 174.9974 0.0000 4.3047 0.0000
# 4 0.0000 0.0000 0.0000 46.9937 0.0000 0.5885
# 5 4.4445 1.2439 4.3047 0.0000 24.5540 0.0000
# 6 0.0000 0.0000 0.0000 0.5885 0.0000 22.7881
#
#
#
# Elastic Compliance Matrix: (Units=1/GPa)
#
#
# Indices 1 2 3 4 5 6 
#
# 1 0.020167 0.000194 -0.001940 0.000000 -0.003320 0.000000
# 2 0.000194 0.014574 -0.005367 0.000000 0.000167 0.000000
# 3 -0.001940 -0.005367 0.007889 0.000000 -0.000760 0.000000
# 4 0.000000 0.000000 0.000000 0.021286 0.000000 -0.000550
# 5 -0.003320 0.000167 -0.000760 0.000000 0.041452 0.000000
# 6 0.000000 0.000000 0.000000 -0.000550 0.000000 0.043897
#
#
# Mechanical properties :
#
#
# Convention : Reuss Voigt Hill
#
# Bulk Modulus (GPa) = 35.20588 54.69050 44.94819
# Shear Modulus (GPa) = 28.90836 34.36440 31.63638
#
# Velocity S-wave (km/s) = 3.84222 4.18914 4.01942
# Velocity P-wave (km/s) = 6.13695 7.16431 6.67043
#
# Compressibility (1/GPa) = 0.02840435
#
# Stress axis : x y z
#
# Youngs Moduli (GPa) = 49.58494 68.61300 126.76448
#
# Poissons Ratio (x) = -0.01333 0.24597
# Poissons Ratio (y) = -0.00963 0.68033
# Poissons Ratio (z) = 0.09621 0.36824
#
# Static dielectric constant tensor:
#      x y z
#    x 1.727170 0.000000 -0.008310 
#    y 0.000000 1.675950 0.000000 
#    z -0.008310 0.000000 1.689800 
# 
# From -- ./inp_files/111445.got.cif
#   From: 2010.05.17/outbox.cif.g08.bks.cpg/sg15_56_cif.got.tgz:111445.got - 2010.06.03 18:47:42.
