data_PCOD9302927
_publ_section_title
;
Structure prediction by ZEFSAII (Michael W. Deem and Ramdas Pophale) SiO2 
 PCOD9302927
Probable space group: C 2/C
;
_chemical_formula_sum "Si O2"
_cell_formula_units_Z 48
_cell_length_a 9.279278
_cell_length_b 17.661082
_cell_length_c 20.489442
_cell_angle_alpha 90.000000
_cell_angle_beta 49.241604
_cell_angle_gamma 90.000000
_cell_volume 2543.470311
_symmetry_space_group_name_H-M "C 2/C"
_symmetry_group_IT_number 15
_symmetry_cell_setting 'monoclinic'
loop_
_space_group_symop_operation_xyz
x,y,z
-x,y,1/2-z
-x,-y,-z
x,-y,1/2+z
1/2+x,1/2+y,z
1/2-x,1/2+y,1/2-z
1/2-x,1/2-y,-z
1/2+x,1/2-y,1/2+z
loop_
_atom_site_type_symbol
_atom_site_label
_atom_site_fract_x
_atom_site_fract_y
_atom_site_fract_z
Si Si1 0.226175 0.675428 0.682933
Si Si2 0.492123 0.411251 0.675161
Si Si3 0.374905 0.195309 0.222310
Si Si4 0.991123 0.044465 0.933054
Si Si5 0.346261 0.167575 0.478700
Si Si6 0.816795 0.705240 0.043875
O O1 0.301693 0.720386 0.724394
O O2 0.328620 0.598256 0.633750
O O3 0.287049 0.733578 0.609010
O O4 0.000000 0.668164 0.750000
O O5 0.500000 0.427868 0.750000
O O6 0.306835 0.359301 0.717044
O O7 0.501477 0.483921 0.626957
O O8 0.672924 0.361805 0.601329
O O9 0.500000 0.197711 0.250000
O O10 0.505646 0.162486 0.125140
O O11 0.808090 0.100622 0.981200
O O12 0.000000 0.000000 0.000000
O O13 0.250000 0.250000 0.500000
O O14 0.470118 0.172847 0.508913
O O15 0.750000 0.750000 0.000000
#
# Coordination Sequence:
#
# PCOD9302927 Si02
#       6
#     8   8   8   8   8   8
#     4  11  22  45  67  97 131 173 235 266 324 425
#     4  12  24  47  65  99 146 174 221 291 346 392
#     4  11  22  40  74  97 131 181 226 277 334 407
#     4  12  27  44  69 104 142 176 225 293 347 395
#     4  11  23  43  68 101 131 171 240 271 324 426
#     4  11  22  41  72  96 130 183 225 275 337 409
#
# _framework density 18.871853000000002
#
# number of rings (size 3 to 8) (size 9 to 14) (size 15 to 20)
#    0.000    0.667    8.333    2.000    2.333    3.333 
#    3.000    0.000    0.000    0.000    0.000    0.000 
#    0.000    0.000    0.000    0.000    0.000    0.000 
#
# Total GULP energy -133972.891938 kJ/mol
# GULP energy per Si atom -5582.203831 kJ/mol
# Density = 1.882890 g / cm^3
# Si number density = 18.871853 Si / 1000 Ang^3
#
#
#
# Elastic Constant Matrix: (Units=GPa)
#
#
# Indices 1 2 3 4 5 6 
#
# 1 173.2472 71.5973 61.9383 0.0002 11.3712 0.0000
# 2 71.5973 151.3487 51.7138 0.0001 5.9779 0.0000
# 3 61.9383 51.7138 66.0645 0.0003 -2.2752 -0.0001
# 4 0.0002 0.0001 0.0003 44.4573 -0.0003 -5.8167
# 5 11.3712 5.9779 -2.2752 -0.0003 53.9138 0.0001
# 6 0.0000 0.0000 -0.0001 -5.8167 0.0001 42.3752
#
#
#
# Elastic Compliance Matrix: (Units=1/GPa)
#
#
# Indices 1 2 3 4 5 6 
#
# 1 0.009284 -0.001791 -0.007374 0.000000 -0.002071 0.000000
# 2 -0.001791 0.009457 -0.005755 0.000000 -0.000914 0.000000
# 3 -0.007374 -0.005755 0.026670 0.000000 0.003319 0.000000
# 4 0.000000 0.000000 0.000000 0.022905 0.000000 0.003144
# 5 -0.002071 -0.000914 0.003319 0.000000 0.019226 0.000000
# 6 0.000000 0.000000 0.000000 0.003144 0.000000 0.024030
#
#
# Mechanical properties :
#
#
# Convention : Reuss Voigt Hill
#
# Bulk Modulus (GPa) = 64.22272 84.57325 74.39798
# Shear Modulus (GPa) = 34.10564 41.84332 37.97448
#
# Velocity S-wave (km/s) = 4.25576 4.71386 4.49065
# Velocity P-wave (km/s) = 7.63239 8.63360 8.14839
#
# Compressibility (1/GPa) = 0.01557081
#
# Stress axis : x y z
#
# Youngs Moduli (GPa) = 107.70754 105.74206 37.49556
#
# Poissons Ratio (x) = 0.18935 0.27650
# Poissons Ratio (y) = 0.19287 0.21580
# Poissons Ratio (z) = 0.79425 0.60859
#
# Static dielectric constant tensor:
#      x y z
#    x 1.730120 0.000000 0.004940 
#    y 0.000000 1.595210 0.000000 
#    z 0.004940 0.000000 1.660140 
# 
# From -- ./inp_files/232510.got.cif
#   From: 2010.05.17/outbox.cif.g08.bks.cpg/sg15_117_cif.got.tgz:232510.got - 2010.06.03 18:47:42.
