data_PCOD9302038
_publ_section_title
;
Structure prediction by ZEFSAII (Michael W. Deem and Ramdas Pophale) SiO2 
 PCOD9302038
Probable space group: C 2/C
;
_chemical_formula_sum "Si O2"
_cell_formula_units_Z 40
_cell_length_a 8.666463
_cell_length_b 22.980234
_cell_length_c 10.770702
_cell_angle_alpha 90.000000
_cell_angle_beta 63.281126
_cell_angle_gamma 90.000000
_cell_volume 1916.021601
_symmetry_space_group_name_H-M "C 2/C"
_symmetry_group_IT_number 15
_symmetry_cell_setting 'monoclinic'
loop_
_space_group_symop_operation_xyz
x,y,z
-x,y,1/2-z
-x,-y,-z
x,-y,1/2+z
1/2+x,1/2+y,z
1/2-x,1/2+y,1/2-z
1/2-x,1/2-y,-z
1/2+x,1/2-y,1/2+z
loop_
_atom_site_type_symbol
_atom_site_label
_atom_site_fract_x
_atom_site_fract_y
_atom_site_fract_z
Si Si1 0.685146 0.443998 0.631446
Si Si2 0.436443 0.394066 0.081053
Si Si3 0.266685 0.930309 0.101146
Si Si4 0.046565 0.232919 0.588117
Si Si5 0.936398 0.356294 0.631183
O O1 0.500000 0.462138 0.750000
O O2 0.657455 0.422395 0.501706
O O3 0.800655 0.501376 0.604662
O O4 0.757989 0.389996 0.682757
O O5 0.616174 0.425450 0.051599
O O6 0.313685 0.402660 0.245159
O O7 0.490719 0.326692 0.042701
O O8 0.428510 0.893232 0.998539
O O9 0.250000 0.250000 0.500000
O O10 0.000000 0.223201 0.750000
O O11 0.940230 0.289745 0.585616
O O12 0.000000 0.355884 0.750000
#
# Coordination Sequence:
#
# PCOD9302038 Si02
#       5
#     8   8   8   8   8
#     4  12  26  40  63  98 131 164 210 269 317 373
#     4  11  22  41  70  90 126 170 214 255 320 378
#     4  11  22  44  64  92 127 175 210 253 325 384
#     4  11  21  41  68  94 124 170 215 261 316 386
#     4  11  25  41  67  95 127 168 215 263 318 376
#
# _framework density 20.876591000000001
#
# number of rings (size 3 to 8) (size 9 to 14) (size 15 to 20)
#    0.000    0.800    6.000    2.400    5.600    1.600 
#    0.000    0.000    0.000    0.000    0.000    0.000 
#    0.000    0.000    0.000    0.000    0.000    0.000 
#
# Total GULP energy -111812.137323 kJ/mol
# GULP energy per Si atom -5590.606866 kJ/mol
# Density = 2.082907 g / cm^3
# Si number density = 20.876591 Si / 1000 Ang^3
#
#
#
# Elastic Constant Matrix: (Units=GPa)
#
#
# Indices 1 2 3 4 5 6 
#
# 1 20.3134 11.0320 7.6984 0.0000 4.6552 0.0000
# 2 11.0320 169.1515 13.9778 0.0000 0.0189 0.0000
# 3 7.6984 13.9778 68.9332 0.0000 -5.0332 0.0000
# 4 0.0000 0.0000 0.0000 22.9615 0.0000 -3.3470
# 5 4.6552 0.0189 -5.0332 0.0000 30.1502 0.0000
# 6 0.0000 0.0000 0.0000 -3.3470 0.0000 23.8930
#
#
#
# Elastic Compliance Matrix: (Units=1/GPa)
#
#
# Indices 1 2 3 4 5 6 
#
# 1 0.055491 -0.003100 -0.006271 0.000000 -0.009613 0.000000
# 2 -0.003100 0.006187 -0.000884 0.000000 0.000327 0.000000
# 3 -0.006271 -0.000884 0.015648 0.000000 0.003581 0.000000
# 4 0.000000 0.000000 0.000000 0.044459 0.000000 0.006228
# 5 -0.009613 0.000327 0.003581 0.000000 0.035249 0.000000
# 6 0.000000 0.000000 0.000000 0.006228 0.000000 0.042726
#
#
# Mechanical properties :
#
#
# Convention : Reuss Voigt Hill
#
# Bulk Modulus (GPa) = 17.60053 35.97939 26.78996
# Shear Modulus (GPa) = 20.90226 30.44694 25.67460
#
# Velocity S-wave (km/s) = 3.16765 3.82308 3.51069
# Velocity P-wave (km/s) = 4.67202 6.06297 5.41236
#
# Compressibility (1/GPa) = 0.05681647
#
# Stress axis : x y z
#
# Youngs Moduli (GPa) = 18.02085 161.62704 63.90637
#
# Poissons Ratio (x) = 0.50102 0.40073
# Poissons Ratio (y) = 0.05586 0.05653
# Poissons Ratio (z) = 0.11300 0.14296
#
# Static dielectric constant tensor:
#      x y z
#    x 1.737590 0.000000 -0.009120 
#    y 0.000000 1.775730 0.000000 
#    z -0.009120 0.000000 1.755650 
# 
# From -- ./inp_files/77935.got.cif
#   From: 2010.05.17/outbox.cif.g08.bks.cpg/sg15_39_cif.got.tgz:77935.got - 2010.06.03 18:47:42.
