data_PCOD9302165
_publ_section_title
;
Structure prediction by ZEFSAII (Michael W. Deem and Ramdas Pophale) SiO2 
 PCOD9302165
Probable space group: C 2/C
;
_chemical_formula_sum "Si O2"
_cell_formula_units_Z 56
_cell_length_a 11.048018
_cell_length_b 15.849013
_cell_length_c 27.416478
_cell_angle_alpha 90.000000
_cell_angle_beta 33.277846
_cell_angle_gamma 90.000000
_cell_volume 2634.103919
_symmetry_space_group_name_H-M "C 2/C"
_symmetry_group_IT_number 15
_symmetry_cell_setting 'monoclinic'
loop_
_space_group_symop_operation_xyz
x,y,z
-x,y,1/2-z
-x,-y,-z
x,-y,1/2+z
1/2+x,1/2+y,z
1/2-x,1/2+y,1/2-z
1/2-x,1/2-y,-z
1/2+x,1/2-y,1/2+z
loop_
_atom_site_type_symbol
_atom_site_label
_atom_site_fract_x
_atom_site_fract_y
_atom_site_fract_z
Si Si1 0.512882 0.163374 0.919126
Si Si2 0.139082 0.248983 0.932389
Si Si3 0.533083 0.575273 0.526909
Si Si4 0.005117 0.646738 0.105484
Si Si5 0.264598 0.500701 0.354529
Si Si6 0.890692 0.205791 0.196725
Si Si7 0.115089 0.946622 0.578411
O O1 0.694702 0.096366 0.874451
O O2 0.590706 0.215707 0.846311
O O3 0.445474 0.226996 0.985227
O O4 0.294239 0.105330 0.986371
O O5 0.980077 0.294721 0.947299
O O6 0.387217 0.286016 0.845273
O O7 0.139865 0.149942 0.922142
O O8 0.500000 0.500000 0.500000
O O9 0.531998 0.529382 0.579453
O O10 0.769857 0.621922 0.443820
O O11 0.901581 0.559837 0.119644
O O12 0.830746 0.694966 0.198447
O O13 0.500000 0.513189 0.250000
O O14 0.272356 0.528633 0.408222
O O15 0.924060 0.119574 0.155148
#
# Coordination Sequence:
#
# PCOD9302165 Si02
#       7
#     8   8   8   8   8   8   8
#     4  11  22  38  67  97 131 176 230 274 330 409
#     4  11  23  43  68  97 134 181 228 274 337 410
#     4  12  26  43  67 100 140 177 224 279 340 412
#     4  12  23  45  68  97 139 178 227 283 342 398
#     4  12  22  40  69 101 129 172 235 292 333 390
#     4  11  23  42  69  99 136 179 223 282 346 394
#     4  11  21  42  70  96 132 184 228 275 335 408
#
# _framework density 21.259601
#
# number of rings (size 3 to 8) (size 9 to 14) (size 15 to 20)
#    0.000    0.571    5.714    5.571    0.000    2.286 
#    0.000    3.571    0.000    0.000    0.000    0.000 
#    0.000    0.000    0.000    0.000    0.000    0.000 
#
# Total GULP energy -156615.652459 kJ/mol
# GULP energy per Si atom -5593.416159 kJ/mol
# Density = 2.121121 g / cm^3
# Si number density = 21.259601 Si / 1000 Ang^3
#
#
#
# Elastic Constant Matrix: (Units=GPa)
#
#
# Indices 1 2 3 4 5 6 
#
# 1 66.6848 32.7298 32.3631 0.0017 5.2884 -0.0007
# 2 32.7298 126.0054 19.3798 -0.0010 5.4356 -0.0006
# 3 32.3631 19.3798 50.0281 0.0078 4.7727 -0.0066
# 4 0.0017 -0.0010 0.0078 21.2354 -0.0048 6.6305
# 5 5.2884 5.4356 4.7727 -0.0048 22.2592 0.0008
# 6 -0.0007 -0.0006 -0.0066 6.6305 0.0008 56.0900
#
#
#
# Elastic Compliance Matrix: (Units=1/GPa)
#
#
# Indices 1 2 3 4 5 6 
#
# 1 0.023701 -0.003986 -0.013622 0.000003 -0.001737 -0.000002
# 2 -0.003986 0.009152 -0.000861 0.000001 -0.001103 0.000000
# 3 -0.013622 -0.000861 0.029407 -0.000012 -0.002859 0.000005
# 4 0.000003 0.000001 -0.000012 0.048896 0.000012 -0.005780
# 5 -0.001737 -0.001103 -0.002859 0.000012 0.046220 -0.000002
# 6 -0.000002 0.000000 0.000005 -0.005780 -0.000002 0.018512
#
#
# Mechanical properties :
#
#
# Convention : Reuss Voigt Hill
#
# Bulk Modulus (GPa) = 39.49369 45.74041 42.61705
# Shear Modulus (GPa) = 22.59700 30.46662 26.53181
#
# Velocity S-wave (km/s) = 3.26376 3.78971 3.53653
# Velocity P-wave (km/s) = 5.72888 6.38052 6.06346
#
# Compressibility (1/GPa) = 0.02532050
#
# Stress axis : x y z
#
# Youngs Moduli (GPa) = 42.19167 109.26995 34.00502
#
# Poissons Ratio (x) = 0.43559 0.46323
# Poissons Ratio (y) = 0.16819 0.02928
# Poissons Ratio (z) = 0.57475 0.09410
#
# Static dielectric constant tensor:
#      x y z
#    x 1.805510 0.000000 -0.015090 
#    y 0.000000 1.770930 0.000000 
#    z -0.015090 0.000000 1.767950 
# 
# From -- ./inp_files/311305.got.cif
#   From: 2010.05.17/outbox.cif.g08.bks.cpg/sg15_156_cif.got.tgz:311305.got - 2010.06.03 18:47:42.
