data_PCOD9302797
_publ_section_title
;
Structure prediction by ZEFSAII (Michael W. Deem and Ramdas Pophale) SiO2 
 PCOD9302797
Probable space group: C 2/C
;
_chemical_formula_sum "Si O2"
_cell_formula_units_Z 64
_cell_length_a 29.881469
_cell_length_b 17.619924
_cell_length_c 9.067935
_cell_angle_alpha 90.000000
_cell_angle_beta 137.799562
_cell_angle_gamma 90.000000
_cell_volume 3207.057119
_symmetry_space_group_name_H-M "C 2/C"
_symmetry_group_IT_number 15
_symmetry_cell_setting 'monoclinic'
loop_
_space_group_symop_operation_xyz
x,y,z
-x,y,1/2-z
-x,-y,-z
x,-y,1/2+z
1/2+x,1/2+y,z
1/2-x,1/2+y,1/2-z
1/2-x,1/2-y,-z
1/2+x,1/2-y,1/2+z
loop_
_atom_site_type_symbol
_atom_site_label
_atom_site_fract_x
_atom_site_fract_y
_atom_site_fract_z
Si Si1 0.260429 0.108629 0.964693
Si Si2 0.891529 0.082958 0.906898
Si Si3 0.797778 0.310969 0.277590
Si Si4 0.199641 0.684187 0.148942
Si Si5 0.562992 0.732407 0.332648
Si Si6 0.235595 0.565143 0.035538
Si Si7 0.384443 0.572123 0.534618
Si Si8 0.932359 0.771428 0.007817
O O1 0.260247 0.158517 0.110381
O O2 0.281239 0.021428 0.041155
O O3 0.184242 0.100896 0.726309
O O4 0.305307 0.152881 0.957600
O O5 0.889988 0.074031 0.725629
O O6 0.913870 0.005157 0.038606
O O7 0.931488 0.154463 0.062478
O O8 0.745478 0.241740 0.166680
O O9 0.765591 0.380130 0.107844
O O10 0.867010 0.280039 0.381063
O O11 0.131689 0.723870 0.024874
O O12 0.185936 0.607601 0.024852
O O13 0.500000 0.774332 0.250000
O O14 0.557525 0.720687 0.143256
O O15 0.307438 0.569738 0.291287
O O16 0.416647 0.646841 0.542698
O O17 0.000000 0.742210 0.250000
#
# Coordination Sequence:
#
# PCOD9302797 Si02
#       8
#     8   8   8   8   8   8   8   8
#     4  11  24  36  67 100 137 167 215 269 333 386
#     4  11  23  40  63  99 136 174 214 261 326 397
#     4  12  23  40  69  98 131 171 221 274 326 385
#     4  12  22  41  67  99 132 170 220 271 326 380
#     4  12  27  43  66  93 131 174 219 269 329 391
#     4  11  22  40  64 101 133 171 211 271 330 387
#     4  11  23  39  65  96 138 172 215 262 325 398
#     4  12  26  44  66  93 130 173 219 272 329 389
#
# _framework density 19.955991000000001
#
# number of rings (size 3 to 8) (size 9 to 14) (size 15 to 20)
#    0.000    0.500    5.000    3.750    8.750    0.500 
#    0.000    2.500    0.000    4.500    0.000    0.000 
#    0.000    0.000    0.000    0.000    0.000    0.000 
#
# Total GULP energy -178859.351787 kJ/mol
# GULP energy per Si atom -5589.354743 kJ/mol
# Density = 1.991057 g / cm^3
# Si number density = 19.955991 Si / 1000 Ang^3
#
#
#
# Elastic Constant Matrix: (Units=GPa)
#
#
# Indices 1 2 3 4 5 6 
#
# 1 102.3290 18.4737 29.6839 0.0000 0.7958 0.0000
# 2 18.4737 66.6341 19.8512 0.0000 11.5327 0.0000
# 3 29.6839 19.8512 72.3165 0.0000 3.8616 0.0000
# 4 0.0000 0.0000 0.0000 30.7824 0.0000 -11.8942
# 5 0.7958 11.5327 3.8616 0.0000 39.4545 0.0000
# 6 0.0000 0.0000 0.0000 -11.8942 0.0000 24.2640
#
#
#
# Elastic Compliance Matrix: (Units=1/GPa)
#
#
# Indices 1 2 3 4 5 6 
#
# 1 0.011334 -0.002045 -0.004132 0.000000 0.000774 0.000000
# 2 -0.002045 0.017495 -0.003712 0.000000 -0.004709 0.000000
# 3 -0.004132 -0.003712 0.016567 0.000000 -0.000453 0.000000
# 4 0.000000 0.000000 0.000000 0.040077 0.000000 0.019646
# 5 0.000774 -0.004709 -0.000453 0.000000 0.026751 0.000000
# 6 0.000000 0.000000 0.000000 0.019646 0.000000 0.050844
#
#
# Mechanical properties :
#
#
# Convention : Reuss Voigt Hill
#
# Bulk Modulus (GPa) = 39.03391 41.92191 40.47791
# Shear Modulus (GPa) = 26.12516 30.45157 28.28836
#
# Velocity S-wave (km/s) = 3.62213 3.91056 3.76910
# Velocity P-wave (km/s) = 6.09061 6.43761 6.26651
#
# Compressibility (1/GPa) = 0.02561875
#
# Stress axis : x y z
#
# Youngs Moduli (GPa) = 88.22760 57.15874 60.35973
#
# Poissons Ratio (x) = 0.11690 0.24943
# Poissons Ratio (y) = 0.18044 0.22403
# Poissons Ratio (z) = 0.36458 0.21215
#
# Static dielectric constant tensor:
#      x y z
#    x 1.737950 0.000000 -0.017000 
#    y 0.000000 1.714130 0.000000 
#    z -0.017000 0.000000 1.728400 
# 
# From -- ./inp_files/70601.got.cif
#   From: 2010.05.17/outbox.cif.g08.bks.cpg/sg15_36_cif.got.tgz:70601.got - 2010.06.03 18:47:42.
