data_PCOD9302231
_publ_section_title
;
Structure prediction by ZEFSAII (Michael W. Deem and Ramdas Pophale) SiO2 
 PCOD9302231
Probable space group: C 2/C
;
_chemical_formula_sum "Si O2"
_cell_formula_units_Z 40
_cell_length_a 23.763367
_cell_length_b 7.308000
_cell_length_c 8.546194
_cell_angle_alpha 90.000000
_cell_angle_beta 102.635689
_cell_angle_gamma 90.000000
_cell_volume 1448.209800
_symmetry_space_group_name_H-M "C 2/C"
_symmetry_group_IT_number 15
_symmetry_cell_setting 'monoclinic'
loop_
_space_group_symop_operation_xyz
x,y,z
-x,y,1/2-z
-x,-y,-z
x,-y,1/2+z
1/2+x,1/2+y,z
1/2-x,1/2+y,1/2-z
1/2-x,1/2-y,-z
1/2+x,1/2-y,1/2+z
loop_
_atom_site_type_symbol
_atom_site_label
_atom_site_fract_x
_atom_site_fract_y
_atom_site_fract_z
Si Si1 0.786357 0.465571 0.389892
Si Si2 0.034841 0.345223 0.116066
Si Si3 0.136199 0.374299 0.765795
Si Si4 0.169301 0.855010 0.785355
Si Si5 0.595178 0.565179 0.943143
O O1 0.821260 0.396383 0.559989
O O2 0.821899 0.643759 0.355841
O O3 0.797196 0.328731 0.249571
O O4 0.720333 0.512122 0.374223
O O5 0.093361 0.457003 0.198329
O O6 0.000000 0.296806 0.250000
O O7 0.044565 0.166472 0.012629
O O8 0.000000 0.500000 0.000000
O O9 0.098842 0.202557 0.796249
O O10 0.144296 0.918045 0.604293
O O11 0.114451 0.876453 0.869688
#
# Coordination Sequence:
#
# PCOD9302231 Si02
#       5
#     8   8   8   8   8
#     4  11  23  40  71 108 152 194 223 285 349 448
#     4  12  23  47  79 102 129 182 255 306 363 408
#     4  11  21  43  71 106 136 185 243 290 349 420
#     4  11  24  44  68 110 155 189 232 273 366 427
#     4  11  25  46  68 106 146 187 237 297 345 436
#
# _framework density 27.620308999999999
#
# number of rings (size 3 to 8) (size 9 to 14) (size 15 to 20)
#    0.000    0.800    6.000    2.400    0.000    8.000 
#    3.600    1.000    0.000    3.600    0.000    0.000 
#    0.000    0.000    0.000    0.000    0.000    0.000 
#
# Total GULP energy -111631.357188 kJ/mol
# GULP energy per Si atom -5581.567859 kJ/mol
# Density = 2.755744 g / cm^3
# Si number density = 27.620309 Si / 1000 Ang^3
#
#
#
# Elastic Constant Matrix: (Units=GPa)
#
#
# Indices 1 2 3 4 5 6 
#
# 1 153.9121 42.9982 21.8792 0.0000 -6.9678 0.0000
# 2 42.9982 125.9837 44.6784 0.0000 -5.3466 0.0000
# 3 21.8792 44.6784 49.4646 0.0000 -8.1006 0.0000
# 4 0.0000 0.0000 0.0000 44.6704 0.0000 -11.7386
# 5 -6.9678 -5.3466 -8.1006 0.0000 58.0160 0.0000
# 6 0.0000 0.0000 0.0000 -11.7386 0.0000 34.1179
#
#
#
# Elastic Compliance Matrix: (Units=1/GPa)
#
#
# Indices 1 2 3 4 5 6 
#
# 1 0.007264 -0.001983 -0.001340 0.000000 0.000503 0.000000
# 2 -0.001983 0.012229 -0.010258 0.000000 -0.000543 0.000000
# 3 -0.001340 -0.010258 0.030593 0.000000 0.003165 0.000000
# 4 0.000000 0.000000 0.000000 0.024611 0.000000 0.008468
# 5 0.000503 -0.000543 0.003165 0.000000 0.017689 0.000000
# 6 0.000000 0.000000 0.000000 0.008468 0.000000 0.032224
#
#
# Mechanical properties :
#
#
# Convention : Reuss Voigt Hill
#
# Bulk Modulus (GPa) = 43.62006 60.94135 52.28070
# Shear Modulus (GPa) = 31.36525 42.01451 36.68988
#
# Velocity S-wave (km/s) = 3.37350 3.90442 3.64863
# Velocity P-wave (km/s) = 5.56786 6.51443 6.05966
#
# Compressibility (1/GPa) = 0.02292523
#
# Stress axis : x y z
#
# Youngs Moduli (GPa) = 137.65801 81.77322 32.68766
#
# Poissons Ratio (x) = 0.16214 0.04380
# Poissons Ratio (y) = 0.27295 0.33530
# Poissons Ratio (z) = 0.18445 0.83880
#
# Static dielectric constant tensor:
#      x y z
#    x 2.213140 0.000000 -0.004210 
#    y 0.000000 2.490670 0.000000 
#    z -0.004210 0.000000 2.103460 
# 
# From -- ./inp_files/64602.got.cif
#   From: 2010.05.17/outbox.cif.g08.bks.cpg/sg15_33_cif.got.tgz:64602.got - 2010.06.03 18:47:42.
