data_PCOD9302425
_publ_section_title
;
Structure prediction by ZEFSAII (Michael W. Deem and Ramdas Pophale) SiO2 
 PCOD9302425
Probable space group: C 2/C
;
_chemical_formula_sum "Si O2"
_cell_formula_units_Z 48
_cell_length_a 15.710021
_cell_length_b 8.384479
_cell_length_c 19.391334
_cell_angle_alpha 90.000000
_cell_angle_beta 56.404304
_cell_angle_gamma 90.000000
_cell_volume 2127.581202
_symmetry_space_group_name_H-M "C 2/C"
_symmetry_group_IT_number 15
_symmetry_cell_setting 'monoclinic'
loop_
_space_group_symop_operation_xyz
x,y,z
-x,y,1/2-z
-x,-y,-z
x,-y,1/2+z
1/2+x,1/2+y,z
1/2-x,1/2+y,1/2-z
1/2-x,1/2-y,-z
1/2+x,1/2-y,1/2+z
loop_
_atom_site_type_symbol
_atom_site_label
_atom_site_fract_x
_atom_site_fract_y
_atom_site_fract_z
Si Si1 0.925808 0.132101 0.871966
Si Si2 0.705080 0.966838 0.952347
Si Si3 0.613652 0.538552 0.321221
Si Si4 0.380335 0.710164 0.047107
Si Si5 0.157748 0.544528 0.127013
Si Si6 0.762221 0.711783 0.822704
O O1 0.820746 0.036456 0.906029
O O2 0.916404 0.304607 0.841113
O O3 0.932860 0.171214 0.951078
O O4 0.024199 0.027378 0.813831
O O5 0.640904 0.101103 0.939907
O O6 0.709556 0.800458 0.911052
O O7 0.661458 0.966493 0.049342
O O8 0.571328 0.635882 0.406400
O O9 0.679729 0.389912 0.318268
O O10 0.687933 0.655494 0.247158
O O11 0.269270 0.625288 0.089639
O O12 0.151699 0.408793 0.186835
#
# Coordination Sequence:
#
# PCOD9302425 Si02
#       6
#     8   8   8   8   8   8
#     4   9  18  36  61  84 105 143 197 242 273 322
#     4   9  17  35  60  84 110 145 186 231 282 339
#     4  11  22  36  54  81 117 155 187 230 283 337
#     4   8  16  34  60  85 111 143 182 230 288 341
#     4   8  17  35  60  84 109 144 189 234 279 333
#     4  11  22  36  53  79 117 158 186 222 285 343
#
# _framework density 22.560831
#
# number of rings (size 3 to 8) (size 9 to 14) (size 15 to 20)
#    0.000    2.667    0.000    4.000    0.000    0.667 
#    0.000    8.333    0.000    0.000    0.000    0.000 
#    0.000    0.000    0.000    0.000    0.000    0.000 
#
# Total GULP energy -134179.204623 kJ/mol
# GULP energy per Si atom -5590.800193 kJ/mol
# Density = 2.250948 g / cm^3
# Si number density = 22.560831 Si / 1000 Ang^3
#
#
#
# Elastic Constant Matrix: (Units=GPa)
#
#
# Indices 1 2 3 4 5 6 
#
# 1 79.7643 53.3365 26.0045 0.0000 12.4294 0.0000
# 2 53.3365 90.0442 15.3782 0.0000 9.7916 0.0001
# 3 26.0045 15.3782 42.0645 0.0000 5.3565 0.0000
# 4 0.0000 0.0000 0.0000 39.3963 0.0000 14.1185
# 5 12.4294 9.7916 5.3565 0.0000 20.6269 0.0000
# 6 0.0000 0.0001 0.0000 14.1185 0.0000 35.0403
#
#
#
# Elastic Compliance Matrix: (Units=1/GPa)
#
#
# Indices 1 2 3 4 5 6 
#
# 1 0.025249 -0.012493 -0.010197 0.000000 -0.006636 0.000000
# 2 -0.012493 0.018474 0.001166 0.000000 -0.001545 0.000000
# 3 -0.010197 0.001166 0.029928 0.000000 -0.002181 0.000000
# 4 0.000000 0.000000 0.000000 0.029667 0.000000 -0.011953
# 5 -0.006636 -0.001545 -0.002181 0.000000 0.053779 0.000000
# 6 0.000000 0.000000 0.000000 -0.011953 0.000000 0.033355
#
#
# Mechanical properties :
#
#
# Convention : Reuss Voigt Hill
#
# Bulk Modulus (GPa) = 32.67531 44.59014 38.63273
# Shear Modulus (GPa) = 20.51691 26.82296 23.66993
#
# Velocity S-wave (km/s) = 3.01890 3.45181 3.24259
# Velocity P-wave (km/s) = 5.16395 5.97444 5.58392
#
# Compressibility (1/GPa) = 0.03060415
#
# Stress axis : x y z
#
# Youngs Moduli (GPa) = 39.60549 54.12876 33.41318
#
# Poissons Ratio (x) = 0.67622 0.34071
# Poissons Ratio (y) = 0.49478 -0.03895
# Poissons Ratio (z) = 0.40385 -0.06310
#
# Static dielectric constant tensor:
#      x y z
#    x 1.813980 0.000000 0.006920 
#    y 0.000000 1.822540 0.000000 
#    z 0.006920 0.000000 1.857990 
# 
# From -- ./inp_files/246851.got.cif
#   From: 2010.05.17/outbox.cif.g08.bks.cpg/sg15_124_cif.got.tgz:246851.got - 2010.06.03 18:47:42.
