data_PCOD9302311
_publ_section_title
;
Structure prediction by ZEFSAII (Michael W. Deem and Ramdas Pophale) SiO2 
 PCOD9302311
Probable space group: C 2/C
;
_chemical_formula_sum "Si O2"
_cell_formula_units_Z 48
_cell_length_a 9.586658
_cell_length_b 17.889048
_cell_length_c 12.153391
_cell_angle_alpha 90.000000
_cell_angle_beta 83.056380
_cell_angle_gamma 90.000000
_cell_volume 2068.973379
_symmetry_space_group_name_H-M "C 2/C"
_symmetry_group_IT_number 15
_symmetry_cell_setting 'monoclinic'
loop_
_space_group_symop_operation_xyz
x,y,z
-x,y,1/2-z
-x,-y,-z
x,-y,1/2+z
1/2+x,1/2+y,z
1/2-x,1/2+y,1/2-z
1/2-x,1/2-y,-z
1/2+x,1/2-y,1/2+z
loop_
_atom_site_type_symbol
_atom_site_label
_atom_site_fract_x
_atom_site_fract_y
_atom_site_fract_z
Si Si1 0.623289 0.944546 0.166622
Si Si2 0.795119 0.674553 0.193569
Si Si3 0.648020 0.656915 0.794305
Si Si4 0.041848 0.839238 0.550984
Si Si5 0.525827 0.828342 0.479383
Si Si6 0.253038 0.411499 0.581560
O O1 0.500000 0.980701 0.250000
O O2 0.738504 0.907207 0.235169
O O3 0.698051 0.004185 0.081019
O O4 0.550583 0.878631 0.104285
O O5 0.797793 0.759956 0.236962
O O6 0.654127 0.659101 0.137667
O O7 0.926291 0.667977 0.097653
O O8 0.797009 0.619802 0.295773
O O9 0.500000 0.644264 0.750000
O O10 0.623319 0.656121 0.928084
O O11 0.919806 0.900468 0.563898
O O12 0.970049 0.757382 0.558431
O O13 0.676021 0.861596 0.497516
#
# Coordination Sequence:
#
# PCOD9302311 Si02
#       6
#     8   8   8   8   8   8
#     4  12  27  45  67 100 143 186 227 289 354 404
#     4  11  21  45  69  97 138 177 227 288 345 404
#     4  11  24  44  70 101 137 181 234 291 339 414
#     4  11  23  43  71 101 132 178 233 288 342 406
#     4  11  22  46  69  98 134 181 235 283 340 413
#     4  12  27  40  68 104 136 183 228 282 351 415
#
# _framework density 23.199912000000001
#
# number of rings (size 3 to 8) (size 9 to 14) (size 15 to 20)
#    0.000    0.667    3.333    6.000    4.667    2.000 
#    0.000    0.000    0.000    0.000    0.000    0.000 
#    0.000    0.000    0.000    0.000    0.000    0.000 
#
# Total GULP energy -134500.673037 kJ/mol
# GULP energy per Si atom -5604.194710 kJ/mol
# Density = 2.314711 g / cm^3
# Si number density = 23.199912 Si / 1000 Ang^3
#
#
#
# Elastic Constant Matrix: (Units=GPa)
#
#
# Indices 1 2 3 4 5 6 
#
# 1 136.5166 21.8121 8.7511 0.0000 30.8477 0.0000
# 2 21.8121 59.9669 -5.0855 0.0000 0.3290 0.0000
# 3 8.7511 -5.0855 51.3495 0.0000 14.8273 0.0000
# 4 0.0000 0.0000 0.0000 11.4883 0.0000 -3.1275
# 5 30.8477 0.3290 14.8273 0.0000 50.8581 0.0000
# 6 0.0000 0.0000 0.0000 -3.1275 0.0000 39.3347
#
#
#
# Elastic Compliance Matrix: (Units=1/GPa)
#
#
# Indices 1 2 3 4 5 6 
#
# 1 0.009094 -0.003305 -0.000317 0.000000 -0.005402 0.000000
# 2 -0.003305 0.018038 0.001970 0.000000 0.001314 0.000000
# 3 -0.000317 0.001970 0.021480 0.000000 -0.006083 0.000000
# 4 0.000000 0.000000 0.000000 0.088971 0.000000 0.007074
# 5 -0.005402 0.001314 -0.006083 0.000000 0.024704 0.000000
# 6 0.000000 0.000000 0.000000 0.007074 0.000000 0.025985
#
#
# Mechanical properties :
#
#
# Convention : Reuss Voigt Hill
#
# Bulk Modulus (GPa) = 22.07114 33.19871 27.63493
# Shear Modulus (GPa) = 24.19208 35.15992 29.67600
#
# Velocity S-wave (km/s) = 3.23269 3.89719 3.58039
# Velocity P-wave (km/s) = 4.84436 5.88147 5.38793
#
# Compressibility (1/GPa) = 0.04530803
#
# Stress axis : x y z
#
# Youngs Moduli (GPa) = 109.95981 55.43864 46.55501
#
# Poissons Ratio (x) = 0.18323 0.01477
# Poissons Ratio (y) = 0.36344 -0.09173
# Poissons Ratio (z) = 0.03489 -0.10924
#
# Static dielectric constant tensor:
#      x y z
#    x 1.859080 0.000000 -0.037600 
#    y 0.000000 1.853670 0.000000 
#    z -0.037600 0.000000 1.855590 
# 
# From -- ./inp_files/134866.got.cif
#   From: 2010.05.17/outbox.cif.g08.bks.cpg/sg15_68_cif.got.tgz:134866.got - 2010.06.03 18:47:42.
