data_PCOD9302691
_publ_section_title
;
Structure prediction by ZEFSAII (Michael W. Deem and Ramdas Pophale) SiO2 
 PCOD9302691
Probable space group: C 2/C
;
_chemical_formula_sum "Si O2"
_cell_formula_units_Z 36
_cell_length_a 25.233322
_cell_length_b 4.645038
_cell_length_c 19.588007
_cell_angle_alpha 90.000000
_cell_angle_beta 32.169590
_cell_angle_gamma 90.000000
_cell_volume 1222.402101
_symmetry_space_group_name_H-M "C 2/C"
_symmetry_group_IT_number 15
_symmetry_cell_setting 'monoclinic'
loop_
_space_group_symop_operation_xyz
x,y,z
-x,y,1/2-z
-x,-y,-z
x,-y,1/2+z
1/2+x,1/2+y,z
1/2-x,1/2+y,1/2-z
1/2-x,1/2-y,-z
1/2+x,1/2-y,1/2+z
loop_
_atom_site_type_symbol
_atom_site_label
_atom_site_fract_x
_atom_site_fract_y
_atom_site_fract_z
Si Si1 0.446488 0.402190 0.129818
Si Si2 0.000000 0.580812 0.750000
Si Si3 0.874561 0.946578 0.991747
Si Si4 0.317743 0.046689 0.176436
Si Si5 0.321013 0.866947 0.361023
O O1 0.543403 0.336570 0.069160
O O2 0.386953 0.131402 0.164179
O O3 0.374503 0.619815 0.253297
O O4 0.500000 0.500000 0.000000
O O5 0.065588 0.789758 0.632572
O O6 0.089111 0.454347 0.700805
O O7 0.857995 0.695738 0.065186
O O8 0.766260 0.039016 0.084119
O O9 0.212113 0.217218 0.298446
O O10 0.250000 0.750000 0.500000
#
# Coordination Sequence:
#
# PCOD9302691 Si02
#       5
#     8   4   8   8   8
#     4   9  18  33  55  89 128 168 220 273 336 400
#     4   8  16  28  58  92 128 170 224 272 332 398
#     4   9  17  33  58  90 126 171 215 273 330 398
#     4  11  22  39  65  95 132 174 219 272 336 403
#     4   9  15  29  56  88 125 172 220 273 332 402
#
# _framework density 29.450213999999999
#
# number of rings (size 3 to 8) (size 9 to 14) (size 15 to 20)
#    0.000    2.667    2.222    0.000    0.000    0.000 
#    0.000   10.000    0.000   13.333    0.000    0.000 
#    0.000    0.000    0.000    0.000    0.000    0.000 
#
# Total GULP energy -100578.604254 kJ/mol
# GULP energy per Si atom -5587.700236 kJ/mol
# Density = 2.938318 g / cm^3
# Si number density = 29.450214 Si / 1000 Ang^3
#
#
#
# Elastic Constant Matrix: (Units=GPa)
#
#
# Indices 1 2 3 4 5 6 
#
# 1 249.2882 35.1232 66.9271 0.0305 -70.2338 -0.0914
# 2 35.1232 98.8515 53.0630 0.2198 1.5609 -0.0865
# 3 66.9271 53.0630 258.3151 -0.1266 0.3836 0.0655
# 4 0.0305 0.2198 -0.1266 69.5838 0.0264 -9.2509
# 5 -70.2338 1.5609 0.3836 0.0264 84.7718 0.0710
# 6 -0.0914 -0.0865 0.0655 -9.2509 0.0710 23.3993
#
#
#
# Elastic Compliance Matrix: (Units=1/GPa)
#
#
# Indices 1 2 3 4 5 6 
#
# 1 0.005960 -0.001532 -0.001237 -0.000001 0.004972 0.000006
# 2 -0.001532 0.011767 -0.002018 -0.000035 -0.001477 0.000034
# 3 -0.001237 -0.002018 0.004608 0.000013 -0.001008 -0.000017
# 4 -0.000001 -0.000035 0.000013 0.015169 -0.000010 0.005997
# 5 0.004972 -0.001477 -0.001008 -0.000010 0.015947 -0.000036
# 6 0.000006 0.000034 -0.000017 0.005997 -0.000036 0.045107
#
#
# Mechanical properties :
#
#
# Convention : Reuss Voigt Hill
#
# Bulk Modulus (GPa) = 78.36482 101.85349 90.10915
# Shear Modulus (GPa) = 44.48937 65.64042 55.06490
#
# Velocity S-wave (km/s) = 3.89094 4.72620 4.32877
# Velocity P-wave (km/s) = 6.84492 8.02762 7.45975
#
# Compressibility (1/GPa) = 0.01276083
#
# Stress axis : x y z
#
# Youngs Moduli (GPa) = 167.78241 84.98090 217.02548
#
# Poissons Ratio (x) = 0.13021 0.26842
# Poissons Ratio (y) = 0.25709 0.43797
# Poissons Ratio (z) = 0.20752 0.17150
#
# Static dielectric constant tensor:
#      x y z
#    x 2.460970 -0.000190 0.142690 
#    y -0.000190 2.202230 0.000420 
#    z 0.142690 0.000420 2.347440 
# 
# From -- ./inp_files/170418.got.cif
#   From: 2010.05.17/outbox.cif.g08.bks.cpg/sg15_86_cif.got.tgz:170418.got - 2010.06.03 18:47:42.
