data_PCOD9302262
_publ_section_title
;
Structure prediction by ZEFSAII (Michael W. Deem and Ramdas Pophale) SiO2 
 PCOD9302262
Probable space group: C 2/C
;
_chemical_formula_sum "Si O2"
_cell_formula_units_Z 52
_cell_length_a 7.255630
_cell_length_b 27.028017
_cell_length_c 14.270167
_cell_angle_alpha 90.000000
_cell_angle_beta 118.220878
_cell_angle_gamma 90.000000
_cell_volume 2465.806237
_symmetry_space_group_name_H-M "C 2/C"
_symmetry_group_IT_number 15
_symmetry_cell_setting 'monoclinic'
loop_
_space_group_symop_operation_xyz
x,y,z
-x,y,1/2-z
-x,-y,-z
x,-y,1/2+z
1/2+x,1/2+y,z
1/2-x,1/2+y,1/2-z
1/2-x,1/2-y,-z
1/2+x,1/2-y,1/2+z
loop_
_atom_site_type_symbol
_atom_site_label
_atom_site_fract_x
_atom_site_fract_y
_atom_site_fract_z
Si Si1 0.500000 0.983673 0.250000
Si Si2 0.263488 0.198247 0.652982
Si Si3 0.165260 0.426238 0.111390
Si Si4 0.272967 0.437828 0.926038
Si Si5 0.273558 0.695149 0.160477
Si Si6 0.500000 0.655741 0.750000
Si Si7 0.204463 0.112616 0.487548
Si Si8 0.000000 0.356082 0.750000
O O1 0.636841 0.954843 0.203848
O O2 0.332414 0.016688 0.153378
O O3 0.500000 0.192733 0.750000
O O4 0.207086 0.252642 0.598582
O O5 0.103158 0.190052 0.698040
O O6 0.222466 0.152299 0.575222
O O7 0.315464 0.379599 0.167102
O O8 0.250778 0.447026 0.032570
O O9 0.925241 0.413949 0.032063
O O10 0.511494 0.424153 0.957603
O O11 0.140434 0.390905 0.852385
O O12 0.500000 0.708948 0.250000
O O13 0.310327 0.647468 0.105900
O O14 0.133691 0.678136 0.213392
#
# Coordination Sequence:
#
# PCOD9302262 Si02
#       8
#     4   8   8   8   8   4   8   4
#     4  11  28  50  69 106 130 176 225 290 352 417
#     4  11  23  40  64 102 142 180 231 274 327 395
#     4  12  25  47  71  99 137 171 231 283 346 412
#     4  11  25  46  72  96 139 172 226 283 348 407
#     4  11  23  39  65 102 143 180 230 279 324 395
#     4  12  23  44  69  98 138 190 215 280 343 396
#     4  12  23  44  70  99 134 186 222 278 341 402
#     4  11  21  44  64 100 136 186 224 274 345 401
#
# _framework density 21.088438
#
# number of rings (size 3 to 8) (size 9 to 14) (size 15 to 20)
#    0.000    0.615    6.154    2.308    0.000    0.615 
#    2.769    1.538    0.000    0.000    0.000    0.000 
#    0.000    0.000    0.000    0.000    0.000    0.000 
#
# Total GULP energy -145098.138503 kJ/mol
# GULP energy per Si atom -5580.697635 kJ/mol
# Density = 2.104044 g / cm^3
# Si number density = 21.088438 Si / 1000 Ang^3
#
#
#
# Elastic Constant Matrix: (Units=GPa)
#
#
# Indices 1 2 3 4 5 6 
#
# 1 157.6185 33.9402 32.5676 0.0000 -12.8814 0.0000
# 2 33.9402 57.9611 14.9821 0.0000 -4.7719 0.0000
# 3 32.5676 14.9821 59.5310 0.0000 -21.7179 0.0000
# 4 0.0000 0.0000 0.0000 26.6863 0.0000 8.5464
# 5 -12.8814 -4.7719 -21.7179 0.0000 43.8928 0.0000
# 6 0.0000 0.0000 0.0000 8.5464 0.0000 41.3763
#
#
#
# Elastic Compliance Matrix: (Units=1/GPa)
#
#
# Indices 1 2 3 4 5 6 
#
# 1 0.007842 -0.003729 -0.003246 0.000000 0.000290 0.000000
# 2 -0.003729 0.020231 -0.003232 0.000000 -0.000494 0.000000
# 3 -0.003246 -0.003232 0.023077 0.000000 0.010114 0.000000
# 4 0.000000 0.000000 0.000000 0.040127 0.000000 -0.008288
# 5 0.000290 -0.000494 0.010114 0.000000 0.027819 0.000000
# 6 0.000000 0.000000 0.000000 -0.008288 0.000000 0.025880
#
#
# Mechanical properties :
#
#
# Convention : Reuss Voigt Hill
#
# Bulk Modulus (GPa) = 32.53419 48.67670 40.60544
# Shear Modulus (GPa) = 28.46824 35.29913 31.88368
#
# Velocity S-wave (km/s) = 3.67815 4.09572 3.89254
# Velocity P-wave (km/s) = 5.78786 6.74529 6.28483
#
# Compressibility (1/GPa) = 0.03073690
#
# Stress axis : x y z
#
# Youngs Moduli (GPa) = 127.52263 49.42851 43.33350
#
# Poissons Ratio (x) = 0.18432 0.14065
# Poissons Ratio (y) = 0.47554 0.14004
# Poissons Ratio (z) = 0.41390 0.15974
#
# Static dielectric constant tensor:
#      x y z
#    x 1.995880 0.000000 -0.216450 
#    y 0.000000 1.785420 0.000000 
#    z -0.216450 0.000000 1.934680 
# 
# From -- ./inp_files/130892.got.cif
#   From: 2010.05.17/outbox.cif.g08.bks.cpg/sg15_66_cif.got.tgz:130892.got - 2010.06.03 18:47:42.
