data_PCOD9302041
_publ_section_title
;
Structure prediction by ZEFSAII (Michael W. Deem and Ramdas Pophale) SiO2 
 PCOD9302041
Probable space group: C 2/C
;
_chemical_formula_sum "Si O2"
_cell_formula_units_Z 56
_cell_length_a 17.803812
_cell_length_b 7.654077
_cell_length_c 23.501396
_cell_angle_alpha 90.000000
_cell_angle_beta 52.961196
_cell_angle_gamma 90.000000
_cell_volume 2556.385262
_symmetry_space_group_name_H-M "C 2/C"
_symmetry_group_IT_number 15
_symmetry_cell_setting 'monoclinic'
loop_
_space_group_symop_operation_xyz
x,y,z
-x,y,1/2-z
-x,-y,-z
x,-y,1/2+z
1/2+x,1/2+y,z
1/2-x,1/2+y,1/2-z
1/2-x,1/2-y,-z
1/2+x,1/2-y,1/2+z
loop_
_atom_site_type_symbol
_atom_site_label
_atom_site_fract_x
_atom_site_fract_y
_atom_site_fract_z
Si Si1 0.598325 0.634056 0.215400
Si Si2 0.068959 0.758271 0.857868
Si Si3 0.907930 0.964432 0.462386
Si Si4 0.243930 0.965427 0.070315
Si Si5 0.596145 0.987571 0.679663
Si Si6 0.934892 0.563300 0.433741
Si Si7 0.290544 0.378385 0.612461
O O1 0.500000 0.530480 0.250000
O O2 0.600985 0.700774 0.278767
O O3 0.690212 0.541149 0.149640
O O4 0.587274 0.803751 0.180336
O O5 0.155274 0.793009 0.860494
O O6 0.023849 0.566405 0.889026
O O7 0.988984 0.899948 0.910005
O O8 0.827703 0.978815 0.449915
O O9 0.948814 0.764384 0.447016
O O10 0.858927 0.004657 0.545457
O O11 0.265585 0.767411 0.077103
O O12 0.348881 0.029945 0.006893
O O13 0.500000 0.918200 0.750000
O O14 0.602652 0.919087 0.613313
O O15 0.689208 0.955049 0.673619
#
# Coordination Sequence:
#
# PCOD9302041 Si02
#       7
#     8   8   8   8   8   8   8
#     4  11  23  41  65 101 132 177 231 262 333 412
#     4  12  26  45  66 101 145 170 217 289 337 390
#     4  11  22  43  71 103 130 180 232 264 338 406
#     4  11  22  41  72  98 130 177 235 275 321 401
#     4  11  21  41  68  96 128 176 229 266 324 409
#     4  11  22  43  72  97 130 177 229 274 327 396
#     4  11  25  43  67 102 136 169 224 283 339 393
#
# _framework density 21.905930999999999
#
# number of rings (size 3 to 8) (size 9 to 14) (size 15 to 20)
#    0.000    0.857    7.143    1.286    2.000    6.286 
#    2.571    0.000    0.000    0.000    0.000    0.000 
#    0.000    0.000    0.000    0.000    0.000    0.000 
#
# Total GULP energy -156301.917848 kJ/mol
# GULP energy per Si atom -5582.211352 kJ/mol
# Density = 2.185607 g / cm^3
# Si number density = 21.905931 Si / 1000 Ang^3
#
#
#
# Elastic Constant Matrix: (Units=GPa)
#
#
# Indices 1 2 3 4 5 6 
#
# 1 91.7249 10.6949 20.1288 0.0001 -1.7529 0.0006
# 2 10.6949 52.0380 14.3934 0.0006 -13.1531 0.0012
# 3 20.1288 14.3934 126.0610 0.0000 -16.3567 0.0000
# 4 0.0001 0.0006 0.0000 29.9110 0.0000 -6.7415
# 5 -1.7529 -13.1531 -16.3567 0.0000 20.1701 0.0001
# 6 0.0006 0.0012 0.0000 -6.7415 0.0001 20.6716
#
#
#
# Elastic Compliance Matrix: (Units=1/GPa)
#
#
# Indices 1 2 3 4 5 6 
#
# 1 0.011544 -0.002380 -0.001836 0.000000 -0.002037 0.000000
# 2 -0.002380 0.023565 -0.000384 -0.000001 0.014849 -0.000002
# 3 -0.001836 -0.000384 0.009183 0.000000 0.007037 0.000000
# 4 0.000000 -0.000001 0.000000 0.036085 0.000000 0.011768
# 5 -0.002037 0.014849 0.007037 0.000000 0.064790 -0.000001
# 6 0.000000 -0.000002 0.000000 0.011768 -0.000001 0.052213
#
#
# Mechanical properties :
#
#
# Convention : Reuss Voigt Hill
#
# Bulk Modulus (GPa) = 28.49615 40.02870 34.26243
# Shear Modulus (GPa) = 22.90672 29.12434 26.01553
#
# Velocity S-wave (km/s) = 3.23721 3.65021 3.44990
# Velocity P-wave (km/s) = 5.19706 6.00650 5.61638
#
# Compressibility (1/GPa) = 0.03509246
#
# Stress axis : x y z
#
# Youngs Moduli (GPa) = 86.62836 42.43543 108.90081
#
# Poissons Ratio (x) = 0.10098 0.19993
# Poissons Ratio (y) = 0.20614 0.04182
# Poissons Ratio (z) = 0.15904 0.01630
#
# Static dielectric constant tensor:
#      x y z
#    x 1.844010 0.000000 -0.083360 
#    y 0.000000 1.834240 0.000000 
#    z -0.083360 0.000000 1.898040 
# 
# From -- ./inp_files/276522.got.cif
#   From: 2010.05.17/outbox.cif.g08.bks.cpg/sg15_139_cif.got.tgz:276522.got - 2010.06.03 18:47:42.
