data_PCOD9302428
_publ_section_title
;
Structure prediction by ZEFSAII (Michael W. Deem and Ramdas Pophale) SiO2 
 PCOD9302428
Probable space group: C 2/C
;
_chemical_formula_sum "Si O2"
_cell_formula_units_Z 32
_cell_length_a 10.370556
_cell_length_b 12.606561
_cell_length_c 25.250257
_cell_angle_alpha 90.000000
_cell_angle_beta 24.528653
_cell_angle_gamma 90.000000
_cell_volume 1370.464176
_symmetry_space_group_name_H-M "C 2/C"
_symmetry_group_IT_number 15
_symmetry_cell_setting 'monoclinic'
loop_
_space_group_symop_operation_xyz
x,y,z
-x,y,1/2-z
-x,-y,-z
x,-y,1/2+z
1/2+x,1/2+y,z
1/2-x,1/2+y,1/2-z
1/2-x,1/2-y,-z
1/2+x,1/2-y,1/2+z
loop_
_atom_site_type_symbol
_atom_site_label
_atom_site_fract_x
_atom_site_fract_y
_atom_site_fract_z
Si Si1 0.224114 0.146613 0.547675
Si Si2 0.781097 0.304508 0.565561
Si Si3 0.162756 0.073673 0.897336
Si Si4 0.261892 0.759302 0.797912
O O1 0.250000 0.250000 0.500000
O O2 0.550581 0.122199 0.453825
O O3 0.068178 0.066022 0.566425
O O4 0.976237 0.178648 0.685163
O O5 0.793591 0.189181 0.590313
O O6 0.437784 0.323575 0.671046
O O7 0.008535 0.297337 0.429874
O O8 0.500000 0.046563 0.750000
O O9 0.000000 0.000000 0.000000
O O10 0.500000 0.814547 0.750000
#
# Coordination Sequence:
#
# PCOD9302428 Si02
#       4
#     8   8   8   8
#     4   9  18  31  53  82 113 144 194 246 294 341
#     4   9  18  33  57  86 106 147 196 248 294 346
#     4  11  22  36  55  83 122 164 200 238 299 368
#     4   9  16  30  56  86 108 139 184 248 300 343
#
# _framework density 23.349753
#
# number of rings (size 3 to 8) (size 9 to 14) (size 15 to 20)
#    0.000    2.500    2.500    0.000    0.000    5.000 
#    0.000    0.000    0.000   13.500    0.000    0.000 
#    0.000    0.000    0.000    0.000    0.000    0.000 
#
# Total GULP energy -89217.226077 kJ/mol
# GULP energy per Si atom -5576.076630 kJ/mol
# Density = 2.329661 g / cm^3
# Si number density = 23.349753 Si / 1000 Ang^3
#
#
#
# Elastic Constant Matrix: (Units=GPa)
#
#
# Indices 1 2 3 4 5 6 
#
# 1 236.5723 25.5309 72.4825 -0.0382 -58.7546 -0.0531
# 2 25.5309 44.5871 17.0438 0.0740 6.6957 -0.2552
# 3 72.4825 17.0438 110.9773 0.2755 -9.9241 -0.3498
# 4 -0.0382 0.0740 0.2755 -1.9754 0.0840 22.5135
# 5 -58.7546 6.6957 -9.9241 0.0840 71.8421 -0.1674
# 6 -0.0531 -0.2552 -0.3498 22.5135 -0.1674 -2.2161
#
#
#
# Elastic Compliance Matrix: (Units=1/GPa)
#
#
# Indices 1 2 3 4 5 6 
#
# 1 0.007116 -0.003549 -0.003597 -0.000033 0.005654 0.000044
# 2 -0.003549 0.026149 -0.002204 0.000209 -0.005644 -0.000026
# 3 -0.003597 -0.002204 0.011596 0.000126 -0.001135 -0.000125
# 4 -0.000033 0.000209 0.000126 0.004415 0.000070 0.044803
# 5 0.005654 -0.005644 -0.001135 0.000070 0.018912 -0.000022
# 6 0.000044 -0.000026 -0.000125 0.044803 -0.000022 0.003933
#
#
# Mechanical properties :
#
#
# Convention : Reuss Voigt Hill
#
# Bulk Modulus (GPa) = 38.22108 69.13902 53.68005
# Shear Modulus (GPa) = 50.23001 32.00208 41.11604
#
# Velocity S-wave (km/s) = 4.64314 3.70611 4.20083
# Velocity P-wave (km/s) = 6.71933 6.92735 6.82413
#
# Compressibility (1/GPa) = 0.02616357
#
# Stress axis : x y z
#
# Youngs Moduli (GPa) = 140.52288 38.24183 86.23350
#
# Poissons Ratio (x) = 0.13570 0.31019
# Poissons Ratio (y) = 0.49866 0.19003
# Poissons Ratio (z) = 0.50547 0.08427
#
# Static dielectric constant tensor:
#      x y z
#    x 1.947420 0.010400 -0.045320 
#    y 0.010400 1.425510 0.036230 
#    z -0.045320 0.036230 1.922140 
# 
# From -- ./inp_files/311008.got.cif
#   From: 2010.05.17/outbox.cif.g08.bks.cpg/sg15_156_cif.got.tgz:311008.got - 2010.06.03 18:47:42.
