data_PCOD9302558
_publ_section_title
;
Structure prediction by ZEFSAII (Michael W. Deem and Ramdas Pophale) SiO2 
 PCOD9302558
Probable space group: C 2/C
;
_chemical_formula_sum "Si O2"
_cell_formula_units_Z 60
_cell_length_a 8.566243
_cell_length_b 19.992389
_cell_length_c 22.911173
_cell_angle_alpha 90.000000
_cell_angle_beta 136.850406
_cell_angle_gamma 90.000000
_cell_volume 2683.480994
_symmetry_space_group_name_H-M "C 2/C"
_symmetry_group_IT_number 15
_symmetry_cell_setting 'monoclinic'
loop_
_space_group_symop_operation_xyz
x,y,z
-x,y,1/2-z
-x,-y,-z
x,-y,1/2+z
1/2+x,1/2+y,z
1/2-x,1/2+y,1/2-z
1/2-x,1/2-y,-z
1/2+x,1/2-y,1/2+z
loop_
_atom_site_type_symbol
_atom_site_label
_atom_site_fract_x
_atom_site_fract_y
_atom_site_fract_z
Si Si1 0.748961 0.562710 0.662102
Si Si2 0.943123 0.315642 0.506612
Si Si3 0.090940 0.930889 0.576562
Si Si4 0.237197 0.350985 0.701001
Si Si5 0.771456 0.008046 0.723067
Si Si6 0.000000 0.648781 0.250000
Si Si7 0.562031 0.943316 0.467614
Si Si8 0.497314 0.326648 0.453902
O O1 0.668457 0.507560 0.594245
O O2 0.639434 0.545055 0.694100
O O3 0.721659 0.638028 0.633582
O O4 0.000000 0.546137 0.750000
O O5 0.082430 0.337028 0.602444
O O6 0.978938 0.371901 0.468726
O O7 0.678301 0.312109 0.452491
O O8 0.029207 0.240717 0.516745
O O9 0.285298 0.894142 0.667661
O O10 0.093788 0.886122 0.519765
O O11 0.835276 0.934536 0.533438
O O12 0.500000 0.338121 0.750000
O O13 0.214534 0.429270 0.712508
O O14 0.120267 0.315233 0.726050
O O15 0.570467 0.040314 0.628906
O O16 0.000000 0.008075 0.750000
O O17 0.500000 0.000000 0.500000
#
# Coordination Sequence:
#
# PCOD9302558 Si02
#       8
#     8   8   8   8   8   4   8   8
#     4  12  24  41  67  98 133 170 227 295 355 417
#     4  11  24  45  66  95 138 189 231 282 358 436
#     4  12  23  42  69 102 136 177 237 299 349 432
#     4  11  22  40  68 101 137 182 232 294 354 416
#     4  11  22  38  63 101 133 165 226 292 353 410
#     4  12  22  40  68 108 136 176 240 292 354 424
#     4  12  24  41  72 103 136 184 237 295 361 427
#     4  11  26  44  67  94 138 187 230 283 358 435
#
# _framework density 22.359017999999999
#
# number of rings (size 3 to 8) (size 9 to 14) (size 15 to 20)
#    0.000    0.533    4.667    4.400    0.000    1.067 
#    0.000    1.333    2.933    0.000    0.000    0.000 
#    0.000    0.000    0.000    0.000    0.000    0.000 
#
# Total GULP energy -167362.396345 kJ/mol
# GULP energy per Si atom -5578.746545 kJ/mol
# Density = 2.230813 g / cm^3
# Si number density = 22.359018 Si / 1000 Ang^3
#
#
#
# Elastic Constant Matrix: (Units=GPa)
#
#
# Indices 1 2 3 4 5 6 
#
# 1 77.2991 13.8591 13.2646 -0.0003 2.8268 -0.0003
# 2 13.8591 111.8948 9.3459 0.0004 -8.7885 0.0002
# 3 13.2646 9.3459 69.2584 0.0005 1.3679 0.0004
# 4 -0.0003 0.0004 0.0005 23.9714 0.0001 -4.0299
# 5 2.8268 -8.7885 1.3679 0.0001 37.5994 0.0000
# 6 -0.0003 0.0002 0.0004 -4.0299 0.0000 23.5165
#
#
#
# Elastic Compliance Matrix: (Units=1/GPa)
#
#
# Indices 1 2 3 4 5 6 
#
# 1 0.013680 -0.001599 -0.002378 0.000000 -0.001316 0.000000
# 2 -0.001599 0.009404 -0.001009 0.000000 0.002355 0.000000
# 3 -0.002378 -0.001009 0.015042 0.000000 -0.000604 0.000000
# 4 0.000000 0.000000 0.000000 0.042954 0.000000 0.007361
# 5 -0.001316 0.002355 -0.000604 0.000000 0.027268 0.000000
# 6 0.000000 0.000000 0.000000 0.007361 0.000000 0.043785
#
#
# Mechanical properties :
#
#
# Convention : Reuss Voigt Hill
#
# Bulk Modulus (GPa) = 35.52000 36.82128 36.17064
# Shear Modulus (GPa) = 29.15624 31.81630 30.48627
#
# Velocity S-wave (km/s) = 3.61502 3.77633 3.69655
# Velocity P-wave (km/s) = 5.77453 5.95971 5.86785
#
# Compressibility (1/GPa) = 0.02815315
#
# Stress axis : x y z
#
# Youngs Moduli (GPa) = 73.10113 106.33440 66.47923
#
# Poissons Ratio (x) = 0.17003 0.15810
# Poissons Ratio (y) = 0.11689 0.06710
# Poissons Ratio (z) = 0.17385 0.10732
#
# Static dielectric constant tensor:
#      x y z
#    x 1.807780 0.000000 0.031510 
#    y 0.000000 1.891560 0.000000 
#    z 0.031510 0.000000 1.833270 
# 
# From -- ./inp_files/266272.got.cif
#   From: 2010.05.17/outbox.cif.g08.bks.cpg/sg15_134_cif.got.tgz:266272.got - 2010.06.03 18:47:42.
