data_PCOD9302873
_publ_section_title
;
Structure prediction by ZEFSAII (Michael W. Deem and Ramdas Pophale) SiO2 
 PCOD9302873
Probable space group: C 2/C
;
_chemical_formula_sum "Si O2"
_cell_formula_units_Z 56
_cell_length_a 11.501592
_cell_length_b 9.505625
_cell_length_c 28.183473
_cell_angle_alpha 90.000000
_cell_angle_beta 119.473584
_cell_angle_gamma 90.000000
_cell_volume 2682.521082
_symmetry_space_group_name_H-M "C 2/C"
_symmetry_group_IT_number 15
_symmetry_cell_setting 'monoclinic'
loop_
_space_group_symop_operation_xyz
x,y,z
-x,y,1/2-z
-x,-y,-z
x,-y,1/2+z
1/2+x,1/2+y,z
1/2-x,1/2+y,1/2-z
1/2-x,1/2-y,-z
1/2+x,1/2-y,1/2+z
loop_
_atom_site_type_symbol
_atom_site_label
_atom_site_fract_x
_atom_site_fract_y
_atom_site_fract_z
Si Si1 0.803496 0.333813 0.056712
Si Si2 0.620819 0.962483 0.245737
Si Si3 0.456359 0.300105 0.672330
Si Si4 0.824805 0.635418 0.335343
Si Si5 0.025337 0.113258 0.545227
Si Si6 0.966314 0.575599 0.042841
Si Si7 0.905707 0.060452 0.839434
O O1 0.915378 0.258808 0.111696
O O2 0.678305 0.343558 0.066660
O O3 0.854106 0.484236 0.047233
O O4 0.750000 0.250000 0.000000
O O5 0.500000 0.034832 0.250000
O O6 0.556050 0.814389 0.215277
O O7 0.747103 0.966269 0.306103
O O8 0.673386 0.031408 0.208210
O O9 0.321283 0.322704 0.675341
O O10 0.525507 0.451600 0.681721
O O11 0.907102 0.574288 0.396306
O O12 0.906783 0.771748 0.332894
O O13 0.941314 0.258260 0.527994
O O14 0.022405 0.041787 0.595700
O O15 0.000000 0.000000 0.500000
O O16 0.000000 0.500000 0.000000
#
# Coordination Sequence:
#
# PCOD9302873 Si02
#       7
#     8   8   8   8   8   8   8
#     4  12  21  41  72  97 137 187 223 285 351 404
#     4  12  24  46  73  97 140 184 229 293 347 403
#     4  12  24  47  73  98 142 186 230 284 350 413
#     4  11  24  47  67 103 141 179 232 288 345 413
#     4  11  24  43  66  99 143 174 232 291 345 419
#     4  11  22  40  68 102 136 181 236 276 347 425
#     4  11  25  43  67 104 134 179 237 279 344 419
#
# _framework density 20.875883999999999
#
# number of rings (size 3 to 8) (size 9 to 14) (size 15 to 20)
#    0.000    0.571    7.143    1.714    0.000    0.571 
#    5.143    1.429    0.000    0.000    0.000    0.000 
#    0.000    0.000    0.000    0.000    0.000    0.000 
#
# Total GULP energy -156242.951096 kJ/mol
# GULP energy per Si atom -5580.105396 kJ/mol
# Density = 2.082837 g / cm^3
# Si number density = 20.875884 Si / 1000 Ang^3
#
#
#
# Elastic Constant Matrix: (Units=GPa)
#
#
# Indices 1 2 3 4 5 6 
#
# 1 74.4508 59.3342 6.6519 0.0000 -9.8305 0.0000
# 2 59.3342 126.3836 52.0129 0.0000 -4.1577 0.0000
# 3 6.6519 52.0129 94.8434 0.0000 -0.9564 0.0000
# 4 0.0000 0.0000 0.0000 33.6849 0.0000 -5.7446
# 5 -9.8305 -4.1577 -0.9564 0.0000 29.4545 0.0000
# 6 0.0000 0.0000 0.0000 -5.7446 0.0000 47.4303
#
#
#
# Elastic Compliance Matrix: (Units=1/GPa)
#
#
# Indices 1 2 3 4 5 6 
#
# 1 0.024829 -0.013887 0.005940 0.000000 0.006519 0.000000
# 2 -0.013887 0.018033 -0.008939 0.000000 -0.002380 0.000000
# 3 0.005940 -0.008939 0.015042 0.000000 0.001209 0.000000
# 4 0.000000 0.000000 0.000000 0.030313 0.000000 0.003671
# 5 0.006519 -0.002380 0.001209 0.000000 0.035830 0.000000
# 6 0.000000 0.000000 0.000000 0.003671 0.000000 0.021528
#
#
# Mechanical properties :
#
#
# Convention : Reuss Voigt Hill
#
# Bulk Modulus (GPa) = 41.44028 59.07509 50.25769
# Shear Modulus (GPa) = 26.68230 33.95919 30.32074
#
# Velocity S-wave (km/s) = 3.57899 4.03764 3.81521
# Velocity P-wave (km/s) = 6.08052 7.07788 6.59807
#
# Compressibility (1/GPa) = 0.02413111
#
# Stress axis : x y z
#
# Youngs Moduli (GPa) = 40.27553 55.45514 66.48206
#
# Poissons Ratio (x) = 0.77009 -0.39490
# Poissons Ratio (y) = 0.55930 0.59430
# Poissons Ratio (z) = -0.23924 0.49573
#
# Static dielectric constant tensor:
#      x y z
#    x 1.725200 0.000000 0.017020 
#    y 0.000000 1.786790 0.000000 
#    z 0.017020 0.000000 1.855240 
# 
# From -- ./inp_files/310228.got.cif
#   From: 2010.05.17/outbox.cif.g08.bks.cpg/sg15_156_cif.got.tgz:310228.got - 2010.06.03 18:47:42.
