data_PCOD9302176
_publ_section_title
;
Structure prediction by ZEFSAII (Michael W. Deem and Ramdas Pophale) SiO2 
 PCOD9302176
Probable space group: C 2/C
;
_chemical_formula_sum "Si O2"
_cell_formula_units_Z 64
_cell_length_a 32.538814
_cell_length_b 16.884402
_cell_length_c 9.624577
_cell_angle_alpha 90.000000
_cell_angle_beta 34.651748
_cell_angle_gamma 90.000000
_cell_volume 3006.532761
_symmetry_space_group_name_H-M "C 2/C"
_symmetry_group_IT_number 15
_symmetry_cell_setting 'monoclinic'
loop_
_space_group_symop_operation_xyz
x,y,z
-x,y,1/2-z
-x,-y,-z
x,-y,1/2+z
1/2+x,1/2+y,z
1/2-x,1/2+y,1/2-z
1/2-x,1/2-y,-z
1/2+x,1/2-y,1/2+z
loop_
_atom_site_type_symbol
_atom_site_label
_atom_site_fract_x
_atom_site_fract_y
_atom_site_fract_z
Si Si1 0.352092 0.334850 0.839089
Si Si2 0.717203 0.969399 0.894609
Si Si3 0.070060 0.090390 0.979057
Si Si4 0.152863 0.236666 0.664787
Si Si5 0.806485 0.598188 0.750824
Si Si6 0.081035 0.735911 0.077338
Si Si7 0.885453 0.999745 0.891020
Si Si8 0.683514 0.802694 0.860338
O O1 0.387975 0.310453 0.594712
O O2 0.383195 0.413271 0.824790
O O3 0.267803 0.352505 0.046500
O O4 0.357421 0.259768 0.927417
O O5 0.684265 0.889923 0.920919
O O6 0.686983 0.048382 0.908255
O O7 0.803146 0.969482 0.623536
O O8 0.703163 0.963584 0.096991
O O9 0.132817 0.154857 0.797702
O O10 0.064894 0.057664 0.837396
O O11 0.090630 0.016587 0.019182
O O12 0.000000 0.125158 0.250000
O O13 0.095982 0.250485 0.699505
O O14 0.233119 0.227736 0.379794
O O15 0.154632 0.300189 0.783234
O O16 0.871123 0.659003 0.592225
O O17 0.000000 0.724878 0.250000
#
# Coordination Sequence:
#
# PCOD9302176 Si02
#       8
#     8   8   8   8   8   8   8   8
#     4  11  22  43  70  97 131 174 223 280 326 390
#     4  11  23  39  71  96 132 167 218 289 336 381
#     4  12  26  42  61  89 141 183 213 259 324 411
#     4  11  25  40  67 101 128 169 232 275 332 389
#     4  11  24  42  69 102 133 170 230 273 339 398
#     4  12  27  44  68  97 137 179 222 272 332 404
#     4  11  24  41  61 101 129 169 226 266 327 390
#     4  11  21  42  72  97 129 167 222 293 332 377
#
# _framework density 21.28698
#
# number of rings (size 3 to 8) (size 9 to 14) (size 15 to 20)
#    0.000    0.750    5.000    3.000    5.250    0.500 
#    0.000    0.625    0.000    0.000    0.000    0.000 
#    0.000    0.000    0.000    0.000    0.000    0.000 
#
# Total GULP energy -179023.611489 kJ/mol
# GULP energy per Si atom -5594.487859 kJ/mol
# Density = 2.123853 g / cm^3
# Si number density = 21.286980 Si / 1000 Ang^3
#
#
#
# Elastic Constant Matrix: (Units=GPa)
#
#
# Indices 1 2 3 4 5 6 
#
# 1 107.6942 5.2451 24.4046 0.0000 5.8305 0.0000
# 2 5.2451 30.8381 18.3961 0.0000 -3.4920 0.0000
# 3 24.4046 18.3961 52.8408 0.0000 8.0324 0.0000
# 4 0.0000 0.0000 0.0000 8.8023 0.0000 17.4783
# 5 5.8305 -3.4920 8.0324 0.0000 28.8282 0.0000
# 6 0.0000 0.0000 0.0000 17.4783 0.0000 25.4886
#
#
#
# Elastic Compliance Matrix: (Units=1/GPa)
#
#
# Indices 1 2 3 4 5 6 
#
# 1 0.010425 0.001255 -0.005173 0.000000 -0.000515 0.000000
# 2 0.001255 0.043627 -0.017264 0.000000 0.009841 0.000000
# 3 -0.005173 -0.017264 0.028699 0.000000 -0.009041 0.000000
# 4 0.000000 0.000000 0.000000 -0.314157 0.000000 0.215427
# 5 -0.000515 0.009841 -0.009041 0.000000 0.038504 0.000000
# 6 0.000000 0.000000 0.000000 0.215427 0.000000 -0.108492
#
#
# Mechanical properties :
#
#
# Convention : Reuss Voigt Hill
#
# Bulk Modulus (GPa) = 24.76136 31.94052 28.35094
# Shear Modulus (GPa) = -20.36084 22.17898 0.90907
#
# Velocity S-wave (km/s) = -3.09608 3.23135 0.65420
# Velocity P-wave (km/s) = 1.05996 5.38140 3.73068
#
# Compressibility (1/GPa) = 0.04038551
#
# Stress axis : x y z
#
# Youngs Moduli (GPa) = 95.92686 22.92169 34.84493
#
# Poissons Ratio (x) = -0.02876 0.18026
# Poissons Ratio (y) = -0.12035 0.60155
# Poissons Ratio (z) = 0.49624 0.39571
#
# Static dielectric constant tensor:
#      x y z
#    x 1.805780 0.000000 0.019970 
#    y 0.000000 1.748180 0.000000 
#    z 0.019970 0.000000 1.757950 
# 
# From -- ./inp_files/70596.got.cif
#   From: 2010.05.17/outbox.cif.g08.bks.cpg/sg15_36_cif.got.tgz:70596.got - 2010.06.03 18:47:42.
