data_PCOD9302560
_publ_section_title
;
Structure prediction by ZEFSAII (Michael W. Deem and Ramdas Pophale) SiO2 
 PCOD9302560
Probable space group: C 2/C
;
_chemical_formula_sum "Si O2"
_cell_formula_units_Z 56
_cell_length_a 9.113129
_cell_length_b 25.805927
_cell_length_c 17.397749
_cell_angle_alpha 90.000000
_cell_angle_beta 141.546988
_cell_angle_gamma 90.000000
_cell_volume 2544.377082
_symmetry_space_group_name_H-M "C 2/C"
_symmetry_group_IT_number 15
_symmetry_cell_setting 'monoclinic'
loop_
_space_group_symop_operation_xyz
x,y,z
-x,y,1/2-z
-x,-y,-z
x,-y,1/2+z
1/2+x,1/2+y,z
1/2-x,1/2+y,1/2-z
1/2-x,1/2-y,-z
1/2+x,1/2-y,1/2+z
loop_
_atom_site_type_symbol
_atom_site_label
_atom_site_fract_x
_atom_site_fract_y
_atom_site_fract_z
Si Si1 0.645273 0.767647 0.689341
Si Si2 0.379292 0.466341 0.867876
Si Si3 0.328210 0.078585 0.746125
Si Si4 0.636065 0.276379 0.564669
Si Si5 0.131411 0.888123 0.502502
Si Si6 0.153232 0.614832 0.159220
Si Si7 0.631171 0.953092 0.509745
O O1 0.578322 0.741856 0.579208
O O2 0.388281 0.765702 0.626081
O O3 0.829419 0.753598 0.834530
O O4 0.719828 0.826104 0.699019
O O5 0.238131 0.519325 0.802081
O O6 0.251948 0.423658 0.763467
O O7 0.381016 0.440074 0.951795
O O8 0.642954 0.473238 0.943879
O O9 0.500000 0.098552 0.750000
O O10 0.455324 0.074783 0.879106
O O11 0.090799 0.111526 0.645141
O O12 0.621991 0.339072 0.555903
O O13 0.370150 0.886194 0.552822
O O14 0.219217 0.589440 0.105974
O O15 0.500000 0.000000 0.500000
#
# Coordination Sequence:
#
# PCOD9302560 Si02
#       7
#     8   8   8   8   8   8   8
#     4   9  18  34  59  90 125 156 203 259 317 376
#     4  12  23  40  63  87 123 167 206 249 301 375
#     4  12  25  40  61  87 124 165 209 254 301 366
#     4   9  18  34  59  92 121 159 204 259 314 375
#     4  11  22  39  64  90 121 162 210 251 306 375
#     4  11  22  38  63  92 122 161 204 256 311 367
#     4  12  26  41  58  91 126 161 207 256 308 360
#
# _framework density 22.009316999999999
#
# number of rings (size 3 to 8) (size 9 to 14) (size 15 to 20)
#    0.000    1.143    4.286    3.000    0.000    2.857 
#    0.000    2.857    0.000    2.571    0.000    0.000 
#    0.000    0.000    0.000    0.000    0.000    0.000 
#
# Total GULP energy -156397.832120 kJ/mol
# GULP energy per Si atom -5585.636861 kJ/mol
# Density = 2.195922 g / cm^3
# Si number density = 22.009317 Si / 1000 Ang^3
#
#
#
# Elastic Constant Matrix: (Units=GPa)
#
#
# Indices 1 2 3 4 5 6 
#
# 1 47.5454 0.4190 22.2959 0.0000 -7.2806 0.0006
# 2 0.4190 35.0621 16.1635 -0.0002 -9.0905 0.0003
# 3 22.2959 16.1635 141.1343 -0.0006 -28.3228 0.0000
# 4 0.0000 -0.0002 -0.0006 34.8185 0.0000 -4.8037
# 5 -7.2806 -9.0905 -28.3228 0.0000 42.0965 -0.0001
# 6 0.0006 0.0003 0.0000 -4.8037 -0.0001 3.9742
#
#
#
# Elastic Compliance Matrix: (Units=1/GPa)
#
#
# Indices 1 2 3 4 5 6 
#
# 1 0.022936 0.001837 -0.003420 -0.000001 0.002063 -0.000004
# 2 0.001837 0.031134 -0.002824 0.000000 0.005141 -0.000003
# 3 -0.003420 -0.002824 0.008911 0.000000 0.004794 0.000001
# 4 -0.000001 0.000000 0.000000 0.034468 0.000000 0.041662
# 5 0.002063 0.005141 0.004794 0.000000 0.028447 0.000000
# 6 -0.000004 -0.000003 0.000001 0.041662 0.000000 0.301979
#
#
# Mechanical properties :
#
#
# Convention : Reuss Voigt Hill
#
# Bulk Modulus (GPa) = 18.46136 33.49984 25.98060
# Shear Modulus (GPa) = 10.99519 28.50207 19.74863
#
# Velocity S-wave (km/s) = 2.23753 3.60252 2.99872
# Velocity P-wave (km/s) = 3.88350 5.70596 4.88055
#
# Compressibility (1/GPa) = 0.05416718
#
# Stress axis : x y z
#
# Youngs Moduli (GPa) = 43.59985 32.11960 112.21779
#
# Poissons Ratio (x) = -0.05901 0.38376
# Poissons Ratio (y) = -0.08010 0.31692
# Poissons Ratio (z) = 0.14910 0.09071
#
# Static dielectric constant tensor:
#      x y z
#    x 1.758280 0.000010 0.057940 
#    y 0.000010 1.848750 -0.000020 
#    z 0.057940 -0.000020 1.632280 
# 
# From -- ./inp_files/81240.got.cif
#   From: 2010.05.17/outbox.cif.g08.bks.cpg/sg15_41_cif.got.tgz:81240.got - 2010.06.03 18:47:42.
