data_PCOD9302201
_publ_section_title
;
Structure prediction by ZEFSAII (Michael W. Deem and Ramdas Pophale) SiO2 
 PCOD9302201
Probable space group: C 2/C
;
_chemical_formula_sum "Si O2"
_cell_formula_units_Z 44
_cell_length_a 24.036017
_cell_length_b 6.088974
_cell_length_c 15.798750
_cell_angle_alpha 90.000000
_cell_angle_beta 53.730002
_cell_angle_gamma 90.000000
_cell_volume 1864.200861
_symmetry_space_group_name_H-M "C 2/C"
_symmetry_group_IT_number 15
_symmetry_cell_setting 'monoclinic'
loop_
_space_group_symop_operation_xyz
x,y,z
-x,y,1/2-z
-x,-y,-z
x,-y,1/2+z
1/2+x,1/2+y,z
1/2-x,1/2+y,1/2-z
1/2-x,1/2-y,-z
1/2+x,1/2-y,1/2+z
loop_
_atom_site_type_symbol
_atom_site_label
_atom_site_fract_x
_atom_site_fract_y
_atom_site_fract_z
Si Si1 0.675703 0.401851 0.866542
Si Si2 0.389272 0.417637 0.832934
Si Si3 0.401703 0.746230 0.671033
Si Si4 0.000000 0.401625 0.250000
Si Si5 0.940629 0.245813 0.926460
Si Si6 0.197971 0.372878 0.186502
O O1 0.630408 0.610422 0.877347
O O2 0.734531 0.476782 0.878415
O O3 0.710412 0.301917 0.751168
O O4 0.622878 0.227597 0.953637
O O5 0.381999 0.612302 0.773404
O O6 0.416733 0.530154 0.893997
O O7 0.324151 0.258004 0.877901
O O8 0.450817 0.261873 0.744244
O O9 0.485093 0.738642 0.594160
O O10 0.364320 0.975639 0.722043
O O11 0.047263 0.557073 0.150324
#
# Coordination Sequence:
#
# PCOD9302201 Si02
#       6
#     8   8   8   4   8   8
#     4  11  26  41  67  97 134 176 222 270 332 396
#     4  11  22  41  70  91 134 175 212 275 333 383
#     4  11  21  43  67  96 132 173 219 276 330 390
#     4  12  20  42  64  98 130 166 212 280 332 378
#     4  12  23  41  68 103 129 170 226 275 328 393
#     4  11  23  45  67  93 137 182 215 271 334 393
#
# _framework density 23.602605000000001
#
# number of rings (size 3 to 8) (size 9 to 14) (size 15 to 20)
#    0.000    0.727    7.273    0.545    0.000    2.909 
#    0.000    3.636    0.000    0.000    0.000    0.000 
#    0.000    0.000    0.000    0.000    0.000    0.000 
#
# Total GULP energy -122804.184674 kJ/mol
# GULP energy per Si atom -5582.008394 kJ/mol
# Density = 2.354888 g / cm^3
# Si number density = 23.602605 Si / 1000 Ang^3
#
#
#
# Elastic Constant Matrix: (Units=GPa)
#
#
# Indices 1 2 3 4 5 6 
#
# 1 130.5765 37.2491 19.0215 0.0032 -18.5436 -0.0045
# 2 37.2491 76.6819 6.8643 0.0020 4.4949 -0.0076
# 3 19.0215 6.8643 49.3734 0.0004 -10.7955 -0.0008
# 4 0.0032 0.0020 0.0004 -43.1261 -0.0003 -27.2942
# 5 -18.5436 4.4949 -10.7955 -0.0003 24.6441 0.0010
# 6 -0.0045 -0.0076 -0.0008 -27.2942 0.0010 23.7738
#
#
#
# Elastic Compliance Matrix: (Units=1/GPa)
#
#
# Indices 1 2 3 4 5 6 
#
# 1 0.010640 -0.005523 -0.001504 0.000000 0.008354 0.000000
# 2 -0.005523 0.016360 -0.001889 -0.000001 -0.007967 0.000003
# 3 -0.001504 -0.001889 0.023140 0.000000 0.009349 0.000000
# 4 0.000000 -0.000001 0.000000 -0.013430 0.000001 -0.015418
# 5 0.008354 -0.007967 0.009349 0.000001 0.052413 -0.000002
# 6 0.000000 0.000003 0.000000 -0.015418 -0.000002 0.024362
#
#
# Mechanical properties :
#
#
# Convention : Reuss Voigt Hill
#
# Bulk Modulus (GPa) = 30.95310 42.54462 36.74886
# Shear Modulus (GPa) = 35.18998 13.95815 24.57406
#
# Velocity S-wave (km/s) = 3.86545 2.43447 3.23020
# Velocity P-wave (km/s) = 5.75022 5.09576 5.43285
#
# Compressibility (1/GPa) = 0.03230694
#
# Stress axis : x y z
#
# Youngs Moduli (GPa) = 93.98934 61.12479 43.21484
#
# Poissons Ratio (x) = 0.33761 0.06501
# Poissons Ratio (y) = 0.51913 0.08162
# Poissons Ratio (z) = 0.14140 0.11544
#
# Static dielectric constant tensor:
#      x y z
#    x 1.943840 0.000000 -0.003930 
#    y 0.000000 1.875200 0.000000 
#    z -0.003930 0.000000 1.891330 
# 
# From -- ./inp_files/217703.got.cif
#   From: 2010.05.17/outbox.cif.g08.bks.cpg/sg15_109_cif.got.tgz:217703.got - 2010.06.03 18:47:42.
