data_PCOD9302651
_publ_section_title
;
Structure prediction by ZEFSAII (Michael W. Deem and Ramdas Pophale) SiO2 
 PCOD9302651
Probable space group: C 2/C
;
_chemical_formula_sum "Si O2"
_cell_formula_units_Z 48
_cell_length_a 20.644942
_cell_length_b 13.853810
_cell_length_c 18.322266
_cell_angle_alpha 90.000000
_cell_angle_beta 156.841547
_cell_angle_gamma 90.000000
_cell_volume 2060.908745
_symmetry_space_group_name_H-M "C 2/C"
_symmetry_group_IT_number 15
_symmetry_cell_setting 'monoclinic'
loop_
_space_group_symop_operation_xyz
x,y,z
-x,y,1/2-z
-x,-y,-z
x,-y,1/2+z
1/2+x,1/2+y,z
1/2-x,1/2+y,1/2-z
1/2-x,1/2-y,-z
1/2+x,1/2-y,1/2+z
loop_
_atom_site_type_symbol
_atom_site_label
_atom_site_fract_x
_atom_site_fract_y
_atom_site_fract_z
Si Si1 0.782298 0.777641 0.148978
Si Si2 0.450405 0.470932 0.280461
Si Si3 0.381596 0.288421 0.417845
Si Si4 0.542705 0.896141 0.712997
Si Si5 0.725029 0.017994 0.791532
Si Si6 0.268418 0.393216 0.693094
O O1 0.841144 0.759697 0.292770
O O2 0.801858 0.677658 0.126160
O O3 0.893471 0.861385 0.229595
O O4 0.603338 0.825774 0.964144
O O5 0.500000 0.495167 0.250000
O O6 0.604719 0.487156 0.493247
O O7 0.307822 0.541081 0.164062
O O8 0.246251 0.368878 0.299631
O O9 0.558701 0.339541 0.606961
O O10 0.360625 0.193770 0.445349
O O11 0.500000 0.929205 0.750000
O O12 0.583846 0.980575 0.699302
O O13 0.719936 0.963173 0.709386
#
# Coordination Sequence:
#
# PCOD9302651 Si02
#       6
#     8   8   8   8   8   8
#     4  12  21  37  61  87 121 155 198 244 300 353
#     4  11  22  41  64  88 119 160 199 243 298 353
#     4  11  22  39  63  90 115 155 205 246 289 348
#     4  12  25  37  56  90 125 157 193 245 303 356
#     4  11  22  42  62  86 124 157 200 246 289 355
#     4  11  22  41  62  89 121 156 201 245 294 350
#
# _framework density 23.290694999999999
#
# number of rings (size 3 to 8) (size 9 to 14) (size 15 to 20)
#    0.000    0.667    5.000    5.000    0.000    2.000 
#    0.000    4.167    0.000    0.000    0.000    0.000 
#    0.000    0.000    0.000    0.000    0.000    0.000 
#
# Total GULP energy -134520.613415 kJ/mol
# GULP energy per Si atom -5605.025559 kJ/mol
# Density = 2.323768 g / cm^3
# Si number density = 23.290695 Si / 1000 Ang^3
#
#
#
# Elastic Constant Matrix: (Units=GPa)
#
#
# Indices 1 2 3 4 5 6 
#
# 1 177.5899 71.7891 2.9980 0.0008 19.6202 -0.0019
# 2 71.7891 125.3807 -4.9046 0.0018 5.9573 -0.0007
# 3 2.9980 -4.9046 53.9361 0.0017 9.6180 0.0008
# 4 0.0008 0.0018 0.0017 26.4644 0.0012 6.2641
# 5 19.6202 5.9573 9.6180 0.0012 26.9447 0.0005
# 6 -0.0019 -0.0007 0.0008 6.2641 0.0005 16.5100
#
#
#
# Elastic Compliance Matrix: (Units=1/GPa)
#
#
# Indices 1 2 3 4 5 6 
#
# 1 0.007897 -0.004292 0.000029 0.000000 -0.004812 0.000001
# 2 -0.004292 0.010457 0.001115 -0.000001 0.000415 0.000000
# 3 0.000029 0.001115 0.019958 -0.000001 -0.007392 0.000000
# 4 0.000000 -0.000001 -0.000001 0.041515 -0.000001 -0.015751
# 5 -0.004812 0.000415 -0.007392 -0.000001 0.043163 -0.000001
# 6 0.000001 0.000000 0.000000 -0.015751 -0.000001 0.066545
#
#
# Mechanical properties :
#
#
# Convention : Reuss Voigt Hill
#
# Bulk Modulus (GPa) = 31.23317 55.18575 43.20946
# Shear Modulus (GPa) = 24.21266 33.11879 28.66573
#
# Velocity S-wave (km/s) = 3.22776 3.77500 3.51205
# Velocity P-wave (km/s) = 5.22786 6.53809 5.91934
#
# Compressibility (1/GPa) = 0.03201725
#
# Stress axis : x y z
#
# Youngs Moduli (GPa) = 126.63044 95.62982 50.10419
#
# Poissons Ratio (x) = 0.41043 -0.00144
# Poissons Ratio (y) = 0.54348 -0.05589
# Poissons Ratio (z) = -0.00365 -0.10667
#
# Static dielectric constant tensor:
#      x y z
#    x 1.855110 0.000000 0.061980 
#    y 0.000000 1.840930 0.000000 
#    z 0.061980 0.000000 1.982120 
# 
# From -- ./inp_files/47475.got.cif
#   From: 2010.05.17/outbox.cif.g08.bks.cpg/sg15_24_cif.got.tgz:47475.got - 2010.06.03 18:47:42.
