data_PCOD9302036
_publ_section_title
;
Structure prediction by ZEFSAII (Michael W. Deem and Ramdas Pophale) SiO2 
 PCOD9302036
Probable space group: C 2/C
;
_chemical_formula_sum "Si O2"
_cell_formula_units_Z 56
_cell_length_a 11.792382
_cell_length_b 17.582624
_cell_length_c 15.632657
_cell_angle_alpha 90.000000
_cell_angle_beta 130.210642
_cell_angle_gamma 90.000000
_cell_volume 2475.296587
_symmetry_space_group_name_H-M "C 2/C"
_symmetry_group_IT_number 15
_symmetry_cell_setting 'monoclinic'
loop_
_space_group_symop_operation_xyz
x,y,z
-x,y,1/2-z
-x,-y,-z
x,-y,1/2+z
1/2+x,1/2+y,z
1/2-x,1/2+y,1/2-z
1/2-x,1/2-y,-z
1/2+x,1/2-y,1/2+z
loop_
_atom_site_type_symbol
_atom_site_label
_atom_site_fract_x
_atom_site_fract_y
_atom_site_fract_z
Si Si1 0.900174 0.521865 0.531763
Si Si2 0.666575 0.227298 0.743992
Si Si3 0.143768 0.680273 0.927444
Si Si4 0.920465 0.138506 0.804108
Si Si5 0.082900 0.904602 0.704346
Si Si6 0.700065 0.010562 0.757006
Si Si7 0.866725 0.023897 0.515176
O O1 0.819480 0.603353 0.505390
O O2 0.761742 0.466692 0.476503
O O3 0.000000 0.500000 0.500000
O O4 0.025037 0.520005 0.666934
O O5 0.659021 0.182513 0.831588
O O6 0.525485 0.193455 0.625549
O O7 0.830881 0.214990 0.786106
O O8 0.611257 0.314615 0.721889
O O9 0.250000 0.750000 0.000000
O O10 0.000000 0.140988 0.750000
O O11 0.038052 0.101476 0.928565
O O12 0.784686 0.078869 0.749641
O O13 0.245944 0.938066 0.770722
O O14 0.000000 0.927211 0.750000
O O15 0.979060 0.952349 0.586538
O O16 0.771405 0.996457 0.884797
#
# Coordination Sequence:
#
# PCOD9302036 Si02
#       7
#     8   8   8   8   8   8   8
#     4  12  24  40  69 105 137 176 239 298 362 426
#     4  11  24  43  68 101 141 182 231 290 361 427
#     4  11  24  42  70 101 139 179 230 304 363 420
#     4  11  22  43  66  96 135 190 230 279 350 432
#     4  11  21  41  68 103 131 177 234 290 347 423
#     4  11  23  41  71  99 141 177 237 298 351 425
#     4  11  24  40  70 100 138 183 232 293 357 420
#
# _framework density 22.623553000000001
#
# number of rings (size 3 to 8) (size 9 to 14) (size 15 to 20)
#    0.000    0.857    2.857    7.286    4.000    1.143 
#    0.000    1.429    0.000    5.143    0.000    0.000 
#    0.000    0.000    0.000    0.000    0.000    0.000 
#
# Total GULP energy -156025.757563 kJ/mol
# GULP energy per Si atom -5572.348484 kJ/mol
# Density = 2.257206 g / cm^3
# Si number density = 22.623553 Si / 1000 Ang^3
#
#
#
# Elastic Constant Matrix: (Units=GPa)
#
#
# Indices 1 2 3 4 5 6 
#
# 1 143.6959 18.1615 37.5033 0.0000 18.3020 0.0000
# 2 18.1615 58.8396 23.5246 0.0000 6.3429 0.0000
# 3 37.5033 23.5246 103.3160 0.0000 11.3539 0.0000
# 4 0.0000 0.0000 0.0000 24.6572 0.0000 8.7551
# 5 18.3020 6.3429 11.3539 0.0000 46.1032 0.0000
# 6 0.0000 0.0000 0.0000 8.7551 0.0000 32.7392
#
#
#
# Elastic Compliance Matrix: (Units=1/GPa)
#
#
# Indices 1 2 3 4 5 6 
#
# 1 0.008048 -0.001277 -0.002363 0.000000 -0.002437 0.000000
# 2 -0.001277 0.019011 -0.003735 0.000000 -0.001189 0.000000
# 3 -0.002363 -0.003735 0.011540 0.000000 -0.001390 0.000000
# 4 0.000000 0.000000 0.000000 0.044811 0.000000 -0.011983
# 5 -0.002437 -0.001189 -0.001390 0.000000 0.023164 0.000000
# 6 0.000000 0.000000 0.000000 -0.011983 0.000000 0.033749
#
#
# Mechanical properties :
#
#
# Convention : Reuss Voigt Hill
#
# Bulk Modulus (GPa) = 41.92826 51.58113 46.75470
# Shear Modulus (GPa) = 30.67109 35.81072 33.24090
#
# Velocity S-wave (km/s) = 3.68600 3.98288 3.83731
# Velocity P-wave (km/s) = 6.05712 6.63327 6.35173
#
# Compressibility (1/GPa) = 0.02385026
#
# Stress axis : x y z
#
# Youngs Moduli (GPa) = 124.26137 52.60203 86.65652
#
# Poissons Ratio (x) = 0.06715 0.20474
# Poissons Ratio (y) = 0.15863 0.32363
# Poissons Ratio (z) = 0.29359 0.19645
#
# Static dielectric constant tensor:
#      x y z
#    x 1.921300 0.000000 -0.086630 
#    y 0.000000 1.983600 0.000000 
#    z -0.086630 0.000000 2.045030 
# 
# From -- ./inp_files/199580.got.cif
#   From: 2010.05.17/outbox.cif.g08.bks.cpg/sg15_100_cif.got.tgz:199580.got - 2010.06.03 18:47:42.
