data_PCOD9302601
_publ_section_title
;
Structure prediction by ZEFSAII (Michael W. Deem and Ramdas Pophale) SiO2 
 PCOD9302601
Probable space group: C 2/C
;
_chemical_formula_sum "Si O2"
_cell_formula_units_Z 48
_cell_length_a 22.223731
_cell_length_b 11.730267
_cell_length_c 8.829430
_cell_angle_alpha 90.000000
_cell_angle_beta 116.312306
_cell_angle_gamma 90.000000
_cell_volume 2063.265631
_symmetry_space_group_name_H-M "C 2/C"
_symmetry_group_IT_number 15
_symmetry_cell_setting 'monoclinic'
loop_
_space_group_symop_operation_xyz
x,y,z
-x,y,1/2-z
-x,-y,-z
x,-y,1/2+z
1/2+x,1/2+y,z
1/2-x,1/2+y,1/2-z
1/2-x,1/2-y,-z
1/2+x,1/2-y,1/2+z
loop_
_atom_site_type_symbol
_atom_site_label
_atom_site_fract_x
_atom_site_fract_y
_atom_site_fract_z
Si Si1 0.308286 0.495936 0.569305
Si Si2 0.398670 0.575101 0.443972
Si Si3 0.164556 0.420251 0.035347
Si Si4 0.755327 0.205989 0.835324
Si Si5 0.025002 0.830837 0.949663
Si Si6 0.629723 0.854347 0.674097
O O1 0.356751 0.590881 0.551215
O O2 0.349310 0.429921 0.744236
O O3 0.237088 0.539981 0.547933
O O4 0.292834 0.413512 0.409804
O O5 0.434657 0.450510 0.495207
O O6 0.459558 0.659997 0.482133
O O7 0.185282 0.323672 0.178702
O O8 0.132792 0.526911 0.086516
O O9 0.124095 0.378995 0.845343
O O10 0.800037 0.289601 0.785065
O O11 0.750000 0.250000 0.000000
O O12 0.000000 0.819058 0.750000
O O13 0.072574 0.728193 0.049207
#
# Coordination Sequence:
#
# PCOD9302601 Si02
#       6
#     8   8   8   8   8   8
#     4  12  20  40  67 101 144 177 223 308 366 434
#     4  11  22  38  68 101 137 180 233 301 369 428
#     4  12  24  42  70 108 146 190 238 301 369 453
#     4  12  23  40  65 107 148 186 228 291 381 447
#     4  11  23  43  66  95 139 194 244 296 358 434
#     4  12  23  44  69 102 148 190 246 296 374 437
#
# _framework density 23.264092000000002
#
# number of rings (size 3 to 8) (size 9 to 14) (size 15 to 20)
#    0.000    0.333    8.333    0.500    0.000    0.000 
#    0.000    0.833    7.333    0.000    0.000    0.000 
#    0.000    0.167    0.000    0.000    0.000    0.000 
#
# Total GULP energy -134486.871146 kJ/mol
# GULP energy per Si atom -5603.619631 kJ/mol
# Density = 2.321114 g / cm^3
# Si number density = 23.264092 Si / 1000 Ang^3
#
#
#
# Elastic Constant Matrix: (Units=GPa)
#
#
# Indices 1 2 3 4 5 6 
#
# 1 58.7572 10.2908 7.8285 0.0000 0.5865 0.0000
# 2 10.2908 96.2842 65.3851 0.0000 1.5724 0.0000
# 3 7.8285 65.3851 150.4000 0.0000 8.9260 0.0000
# 4 0.0000 0.0000 0.0000 37.7810 0.0000 -0.6925
# 5 0.5865 1.5724 8.9260 0.0000 33.3081 0.0000
# 6 0.0000 0.0000 0.0000 -0.6925 0.0000 21.1547
#
#
#
# Elastic Compliance Matrix: (Units=1/GPa)
#
#
# Indices 1 2 3 4 5 6 
#
# 1 0.017347 -0.001767 -0.000123 0.000000 -0.000189 0.000000
# 2 -0.001767 0.014952 -0.006471 0.000000 0.001059 0.000000
# 3 -0.000123 -0.006471 0.009603 0.000000 -0.002266 0.000000
# 4 0.000000 0.000000 0.000000 0.026484 0.000000 0.000867
# 5 -0.000189 0.001059 -0.002266 0.000000 0.030583 0.000000
# 6 0.000000 0.000000 0.000000 0.000867 0.000000 0.047299
#
#
# Mechanical properties :
#
#
# Convention : Reuss Voigt Hill
#
# Bulk Modulus (GPa) = 39.71621 52.49448 46.10534
# Shear Modulus (GPa) = 29.17406 33.24453 31.20930
#
# Velocity S-wave (km/s) = 3.54508 3.78432 3.66665
# Velocity P-wave (km/s) = 5.81943 6.45820 6.14712
#
# Compressibility (1/GPa) = 0.02517864
#
# Stress axis : x y z
#
# Youngs Moduli (GPa) = 57.64675 66.88098 104.13303
#
# Poissons Ratio (x) = 0.11819 0.01286
# Poissons Ratio (y) = 0.10187 0.67386
# Poissons Ratio (z) = 0.00712 0.43279
#
# Static dielectric constant tensor:
#      x y z
#    x 1.910800 0.000000 -0.018150 
#    y 0.000000 1.945480 0.000000 
#    z -0.018150 0.000000 1.859040 
# 
# From -- ./inp_files/60902.got.cif
#   From: 2010.05.17/outbox.cif.g08.bks.cpg/sg15_31_cif.got.tgz:60902.got - 2010.06.03 18:47:42.
