data_PCOD9302507
_publ_section_title
;
Structure prediction by ZEFSAII (Michael W. Deem and Ramdas Pophale) SiO2 
 PCOD9302507
Probable space group: C 2/C
;
_chemical_formula_sum "Si O2"
_cell_formula_units_Z 56
_cell_length_a 6.593542
_cell_length_b 21.553785
_cell_length_c 18.873522
_cell_angle_alpha 90.000000
_cell_angle_beta 74.401811
_cell_angle_gamma 90.000000
_cell_volume 2583.441924
_symmetry_space_group_name_H-M "C 2/C"
_symmetry_group_IT_number 15
_symmetry_cell_setting 'monoclinic'
loop_
_space_group_symop_operation_xyz
x,y,z
-x,y,1/2-z
-x,-y,-z
x,-y,1/2+z
1/2+x,1/2+y,z
1/2-x,1/2+y,1/2-z
1/2-x,1/2-y,-z
1/2+x,1/2-y,1/2+z
loop_
_atom_site_type_symbol
_atom_site_label
_atom_site_fract_x
_atom_site_fract_y
_atom_site_fract_z
Si Si1 0.873299 0.393563 0.936171
Si Si2 0.201709 0.429262 0.010572
Si Si3 0.500000 0.762662 0.250000
Si Si4 0.443413 0.707015 0.997217
Si Si5 0.500000 0.545390 0.250000
Si Si6 0.863958 0.297276 0.408033
Si Si7 0.162809 0.654440 0.298946
Si Si8 0.105674 0.984880 0.888840
O O1 0.666284 0.359517 0.985006
O O2 0.783896 0.432463 0.879106
O O3 0.041577 0.347653 0.885398
O O4 0.989069 0.436664 0.982740
O O5 0.150329 0.357767 0.039568
O O6 0.285549 0.461042 0.075323
O O7 0.392376 0.454434 0.942315
O O8 0.490924 0.802012 0.323297
O O9 0.305189 0.715090 0.274737
O O10 0.548349 0.737071 0.057824
O O11 0.250000 0.750000 0.000000
O O12 0.615139 0.710352 0.919916
O O13 0.309506 0.593114 0.284431
O O14 0.445303 0.503930 0.187517
O O15 0.000000 0.653348 0.250000
#
# Coordination Sequence:
#
# PCOD9302507 Si02
#       8
#     8   8   4   8   4   8   8   8
#     4  12  21  39  68 104 130 171 232 288 344 403
#     4  11  24  43  68  96 137 180 231 279 340 411
#     4  11  26  40  62  94 140 176 218 273 346 418
#     4  11  22  37  67  95 128 169 224 276 335 405
#     4  11  22  40  64  98 134 176 218 285 350 398
#     4  11  24  42  63  96 132 182 220 278 339 413
#     4  11  22  37  63  97 135 170 218 288 347 399
#     4  11  24  42  68 100 134 178 231 290 338 407
#
# _framework density 21.676508999999999
#
# number of rings (size 3 to 8) (size 9 to 14) (size 15 to 20)
#    0.000    0.857    5.714    2.143    4.000    0.000 
#    0.000    1.429    4.714    0.000    0.000    0.000 
#    0.000    0.000    0.000    0.000    0.000    0.000 
#
# Total GULP energy -155986.844809 kJ/mol
# GULP energy per Si atom -5570.958743 kJ/mol
# Density = 2.162717 g / cm^3
# Si number density = 21.676509 Si / 1000 Ang^3
#
#
#
# Elastic Constant Matrix: (Units=GPa)
#
#
# Indices 1 2 3 4 5 6 
#
# 1 124.3112 30.8429 45.7034 0.0000 10.7367 0.0000
# 2 30.8429 52.4947 37.4916 0.0000 5.9551 0.0000
# 3 45.7034 37.4916 132.7419 0.0000 10.3854 0.0000
# 4 0.0000 0.0000 0.0000 25.9671 0.0000 2.6478
# 5 10.7367 5.9551 10.3854 0.0000 42.4142 0.0000
# 6 0.0000 0.0000 0.0000 2.6478 0.0000 27.4438
#
#
#
# Elastic Compliance Matrix: (Units=1/GPa)
#
#
# Indices 1 2 3 4 5 6 
#
# 1 0.009993 -0.004175 -0.002151 0.000000 -0.001417 0.000000
# 2 -0.004175 0.025733 -0.005741 0.000000 -0.001151 0.000000
# 3 -0.002151 -0.005741 0.009981 0.000000 -0.001093 0.000000
# 4 0.000000 0.000000 0.000000 0.038893 0.000000 -0.003752
# 5 -0.001417 -0.001151 -0.001093 0.000000 0.024365 0.000000
# 6 0.000000 0.000000 0.000000 -0.003752 0.000000 0.036800
#
#
# Mechanical properties :
#
#
# Convention : Reuss Voigt Hill
#
# Bulk Modulus (GPa) = 46.35027 59.73594 53.04311
# Shear Modulus (GPa) = 28.23449 32.19901 30.21675
#
# Velocity S-wave (km/s) = 3.61299 3.85831 3.73766
# Velocity P-wave (km/s) = 6.23170 6.88959 6.56889
#
# Compressibility (1/GPa) = 0.02157485
#
# Stress axis : x y z
#
# Youngs Moduli (GPa) = 100.06793 38.86098 100.19188
#
# Poissons Ratio (x) = 0.16223 0.21549
# Poissons Ratio (y) = 0.41775 0.57516
# Poissons Ratio (z) = 0.21522 0.22308
#
# Static dielectric constant tensor:
#      x y z
#    x 2.013140 0.000000 0.084140 
#    y 0.000000 2.018450 0.000000 
#    z 0.084140 0.000000 1.837710 
# 
# From -- ./inp_files/228122.got.cif
#   From: 2010.05.17/outbox.cif.g08.bks.cpg/sg15_115_cif.got.tgz:228122.got - 2010.06.03 18:47:42.
