data_PCOD9302533
_publ_section_title
;
Structure prediction by ZEFSAII (Michael W. Deem and Ramdas Pophale) SiO2 
 PCOD9302533
Probable space group: C 2/C
;
_chemical_formula_sum "Si O2"
_cell_formula_units_Z 64
_cell_length_a 12.559210
_cell_length_b 27.457731
_cell_length_c 13.600101
_cell_angle_alpha 90.000000
_cell_angle_beta 140.304366
_cell_angle_gamma 90.000000
_cell_volume 2995.520283
_symmetry_space_group_name_H-M "C 2/C"
_symmetry_group_IT_number 15
_symmetry_cell_setting 'monoclinic'
loop_
_space_group_symop_operation_xyz
x,y,z
-x,y,1/2-z
-x,-y,-z
x,-y,1/2+z
1/2+x,1/2+y,z
1/2-x,1/2+y,1/2-z
1/2-x,1/2-y,-z
1/2+x,1/2-y,1/2+z
loop_
_atom_site_type_symbol
_atom_site_label
_atom_site_fract_x
_atom_site_fract_y
_atom_site_fract_z
Si Si1 0.887875 0.583976 0.574187
Si Si2 0.506441 0.976742 0.870099
Si Si3 0.111095 0.383516 0.062108
Si Si4 0.084507 0.802623 0.535915
Si Si5 0.969796 0.293398 0.845378
Si Si6 0.463896 0.372907 0.617676
Si Si7 0.006411 0.888236 0.143503
Si Si8 0.627975 0.543100 0.115777
O O1 0.712761 0.602232 0.488973
O O2 0.000000 0.585707 0.750000
O O3 0.899073 0.527656 0.548842
O O4 0.971255 0.615876 0.547734
O O5 0.500000 0.965363 0.750000
O O6 0.591712 0.933714 0.989598
O O7 0.311048 0.978585 0.759771
O O8 0.070139 0.340093 0.957524
O O9 0.296437 0.383277 0.239796
O O10 0.271291 0.801207 0.709947
O O11 0.021821 0.750623 0.454345
O O12 0.979142 0.832536 0.543117
O O13 0.074306 0.835667 0.430800
O O14 0.000000 0.284403 0.750000
O O15 0.500000 0.350597 0.750000
O O16 0.581638 0.418812 0.669870
O O17 0.000000 0.905009 0.250000
O O18 0.897686 0.922933 0.997760
O O19 0.500000 0.500000 0.000000
#
# Coordination Sequence:
#
# PCOD9302533 Si02
#       8
#     8   8   8   8   8   8   8   8
#     4  11  23  41  62  88 127 176 224 270 318 382
#     4  11  22  39  60  90 127 168 215 269 327 391
#     4  12  23  39  64  97 129 170 219 271 329 396
#     4  11  24  44  66  96 129 169 217 267 330 398
#     4  12  24  43  71 102 134 168 208 273 341 400
#     4  11  24  44  65  89 129 178 224 274 326 384
#     4  11  22  38  60  91 128 166 207 263 327 394
#     4  11  22  38  59  89 126 167 215 269 322 383
#
# _framework density 21.365235999999999
#
# number of rings (size 3 to 8) (size 9 to 14) (size 15 to 20)
#    0.000    0.750    0.000   10.500    0.000    1.500 
#    0.000    3.125    0.000    0.000    0.000    0.000 
#    0.000    0.000    0.000    0.000    0.000    0.000 
#
# Total GULP energy -178879.276781 kJ/mol
# GULP energy per Si atom -5589.977399 kJ/mol
# Density = 2.131661 g / cm^3
# Si number density = 21.365236 Si / 1000 Ang^3
#
#
#
# Elastic Constant Matrix: (Units=GPa)
#
#
# Indices 1 2 3 4 5 6 
#
# 1 123.7966 37.6221 24.6235 0.0000 -2.3143 0.0000
# 2 37.6221 101.4651 46.9869 0.0000 6.7761 0.0000
# 3 24.6235 46.9869 90.1042 0.0000 6.1803 0.0000
# 4 0.0000 0.0000 0.0000 27.3219 0.0000 -0.2018
# 5 -2.3143 6.7761 6.1803 0.0000 46.6293 0.0000
# 6 0.0000 0.0000 0.0000 -0.2018 0.0000 24.6077
#
#
#
# Elastic Compliance Matrix: (Units=1/GPa)
#
#
# Indices 1 2 3 4 5 6 
#
# 1 0.009216 -0.003015 -0.001017 0.000000 0.001030 0.000000
# 2 -0.003015 0.014026 -0.006398 0.000000 -0.001340 0.000000
# 3 -0.001017 -0.006398 0.014787 0.000000 -0.001081 0.000000
# 4 0.000000 0.000000 0.000000 0.036603 0.000000 0.000300
# 5 0.001030 -0.001340 -0.001081 0.000000 0.021835 0.000000
# 6 0.000000 0.000000 0.000000 0.000300 0.000000 0.040640
#
#
# Mechanical properties :
#
#
# Convention : Reuss Voigt Hill
#
# Bulk Modulus (GPa) = 58.24779 59.31456 58.78118
# Shear Modulus (GPa) = 30.54570 33.45400 31.99985
#
# Velocity S-wave (km/s) = 3.78523 3.96133 3.87428
# Velocity P-wave (km/s) = 6.81366 6.98178 6.89824
#
# Compressibility (1/GPa) = 0.01716803
#
# Stress axis : x y z
#
# Youngs Moduli (GPa) = 108.51254 71.29636 67.62769
#
# Poissons Ratio (x) = 0.21495 0.06877
# Poissons Ratio (y) = 0.32716 0.43271
# Poissons Ratio (z) = 0.11034 0.45618
#
# Static dielectric constant tensor:
#      x y z
#    x 1.807190 0.000000 -0.009670 
#    y 0.000000 1.822300 0.000000 
#    z -0.009670 0.000000 1.756640 
# 
# From -- ./inp_files/148803.got.cif
#   From: 2010.05.17/outbox.cif.g08.bks.cpg/sg15_75_cif.got.tgz:148803.got - 2010.06.03 18:47:42.
