data_PCOD9302435
_publ_section_title
;
Structure prediction by ZEFSAII (Michael W. Deem and Ramdas Pophale) SiO2 
 PCOD9302435
Probable space group: C 2/C
;
_chemical_formula_sum "Si O2"
_cell_formula_units_Z 48
_cell_length_a 25.398067
_cell_length_b 13.888704
_cell_length_c 7.900961
_cell_angle_alpha 90.000000
_cell_angle_beta 123.566726
_cell_angle_gamma 90.000000
_cell_volume 2322.275317
_symmetry_space_group_name_H-M "C 2/C"
_symmetry_group_IT_number 15
_symmetry_cell_setting 'monoclinic'
loop_
_space_group_symop_operation_xyz
x,y,z
-x,y,1/2-z
-x,-y,-z
x,-y,1/2+z
1/2+x,1/2+y,z
1/2-x,1/2+y,1/2-z
1/2-x,1/2-y,-z
1/2+x,1/2-y,1/2+z
loop_
_atom_site_type_symbol
_atom_site_label
_atom_site_fract_x
_atom_site_fract_y
_atom_site_fract_z
Si Si1 0.155625 0.912667 0.874688
Si Si2 0.200221 0.598765 0.775269
Si Si3 0.455143 0.570893 0.823098
Si Si4 0.197030 0.190823 0.111371
Si Si5 0.879825 0.783197 0.367766
Si Si6 0.333917 0.101338 0.413487
O O1 0.157054 0.865340 0.688314
O O2 0.108605 0.004187 0.811303
O O3 0.229111 0.935951 0.045532
O O4 0.138624 0.835284 0.989616
O O5 0.204419 0.698578 0.683501
O O6 0.166895 0.511780 0.619979
O O7 0.163382 0.618882 0.882524
O O8 0.500000 0.601448 0.750000
O O9 0.441307 0.663501 0.911025
O O10 0.500000 0.500000 0.000000
O O11 0.265695 0.142815 0.234527
O O12 0.167977 0.193402 0.872609
O O13 0.882499 0.669567 0.402665
#
# Coordination Sequence:
#
# PCOD9302435 Si02
#       6
#     8   8   8   8   8   8
#     4  11  23  40  58  93 128 167 208 258 307 378
#     4  11  22  37  59  95 135 169 207 243 304 393
#     4  12  25  42  63  91 122 164 220 267 318 368
#     4  11  22  37  58  92 128 168 209 245 307 388
#     4  12  23  39  61  84 126 168 206 259 319 359
#     4  11  22  36  57  89 129 169 207 249 303 381
#
# _framework density 20.669383
#
# number of rings (size 3 to 8) (size 9 to 14) (size 15 to 20)
#    0.000    0.667    5.000    4.500    7.000    0.000 
#    0.000    0.000    0.000    0.000    0.000   11.667 
#    0.000    0.167    0.000    0.000    0.000    0.000 
#
# Total GULP energy -134037.916463 kJ/mol
# GULP energy per Si atom -5584.913186 kJ/mol
# Density = 2.062234 g / cm^3
# Si number density = 20.669383 Si / 1000 Ang^3
#
#
#
# Elastic Constant Matrix: (Units=GPa)
#
#
# Indices 1 2 3 4 5 6 
#
# 1 94.2106 41.5992 12.7629 0.0000 -21.6735 0.0000
# 2 41.5992 131.6886 6.6869 0.0000 -0.2764 0.0000
# 3 12.7629 6.6869 46.3066 0.0000 -12.2497 0.0000
# 4 0.0000 0.0000 0.0000 24.8364 0.0000 -6.4843
# 5 -21.6735 -0.2764 -12.2497 0.0000 25.2248 0.0000
# 6 0.0000 0.0000 0.0000 -6.4843 0.0000 40.5314
#
#
#
# Elastic Compliance Matrix: (Units=1/GPa)
#
#
# Indices 1 2 3 4 5 6 
#
# 1 0.015975 -0.005014 -0.000072 0.000000 0.013637 0.000000
# 2 -0.005014 0.009230 -0.001221 0.000000 -0.004800 0.000000
# 3 -0.000072 -0.001221 0.024980 0.000000 0.012056 0.000000
# 4 0.000000 0.000000 0.000000 0.042018 0.000000 0.006722
# 5 0.013637 -0.004800 0.012056 0.000000 0.057162 0.000000
# 6 0.000000 0.000000 0.000000 0.006722 0.000000 0.025748
#
#
# Mechanical properties :
#
#
# Convention : Reuss Voigt Hill
#
# Bulk Modulus (GPa) = 26.61514 43.81152 35.21333
# Shear Modulus (GPa) = 24.96866 32.19564 28.58215
#
# Velocity S-wave (km/s) = 3.47940 3.95099 3.72267
# Velocity P-wave (km/s) = 5.38945 6.48507 5.96248
#
# Compressibility (1/GPa) = 0.03757261
#
# Stress axis : x y z
#
# Youngs Moduli (GPa) = 62.59604 108.34797 40.03130
#
# Poissons Ratio (x) = 0.54328 0.00287
# Poissons Ratio (y) = 0.31387 0.04886
# Poissons Ratio (z) = 0.00449 0.13224
#
# Static dielectric constant tensor:
#      x y z
#    x 1.792690 0.000000 0.017690 
#    y 0.000000 1.740500 0.000000 
#    z 0.017690 0.000000 1.754070 
# 
# From -- ./inp_files/60895.got.cif
#   From: 2010.05.17/outbox.cif.g08.bks.cpg/sg15_31_cif.got.tgz:60895.got - 2010.06.03 18:47:42.
