data_PCOD9302384
_publ_section_title
;
Structure prediction by ZEFSAII (Michael W. Deem and Ramdas Pophale) SiO2 
 PCOD9302384
Probable space group: C 2/C
;
_chemical_formula_sum "Si O2"
_cell_formula_units_Z 64
_cell_length_a 21.866965
_cell_length_b 6.348800
_cell_length_c 24.074920
_cell_angle_alpha 90.000000
_cell_angle_beta 96.643124
_cell_angle_gamma 90.000000
_cell_volume 3319.856505
_symmetry_space_group_name_H-M "C 2/C"
_symmetry_group_IT_number 15
_symmetry_cell_setting 'monoclinic'
loop_
_space_group_symop_operation_xyz
x,y,z
-x,y,1/2-z
-x,-y,-z
x,-y,1/2+z
1/2+x,1/2+y,z
1/2-x,1/2+y,1/2-z
1/2-x,1/2-y,-z
1/2+x,1/2-y,1/2+z
loop_
_atom_site_type_symbol
_atom_site_label
_atom_site_fract_x
_atom_site_fract_y
_atom_site_fract_z
Si Si1 0.489145 0.156045 0.051172
Si Si2 0.808550 0.744838 0.689739
Si Si3 0.609424 0.107975 0.900026
Si Si4 0.125384 0.788273 0.092584
Si Si5 0.105894 0.995837 0.975052
Si Si6 0.785018 0.433550 0.371349
Si Si7 0.692108 0.555712 0.196415
Si Si8 0.706945 0.200450 0.444771
O O1 0.553283 0.232130 0.083817
O O2 0.450849 0.349545 0.021813
O O3 0.445628 0.055964 0.094545
O O4 0.500000 0.000000 0.000000
O O5 0.865692 0.658105 0.659174
O O6 0.759953 0.558692 0.702811
O O7 0.766160 0.892755 0.646735
O O8 0.826557 0.905709 0.741392
O O9 0.587843 0.305008 0.933735
O O10 0.670880 0.016653 0.936806
O O11 0.162108 0.566559 0.092973
O O12 0.150212 0.915715 0.149521
O O13 0.134079 0.919739 0.036542
O O14 0.155085 0.123770 0.944457
O O15 0.751033 0.243266 0.398522
O O16 0.810721 0.300423 0.323126
O O17 0.750000 0.250000 0.500000
#
# Coordination Sequence:
#
# PCOD9302384 Si02
#       8
#     8   8   8   8   8   8   8   8
#     4  11  25  43  65  93 129 177 222 263 320 394
#     4  11  22  41  64  97 124 170 215 257 339 386
#     4  11  23  39  64  95 129 174 209 267 323 389
#     4  11  25  39  63  98 125 171 217 261 327 380
#     4  11  23  39  63  94 129 171 208 266 323 393
#     4  11  22  37  63  93 131 161 205 269 317 395
#     4  11  23  40  66  94 127 166 211 275 318 395
#     4  11  22  33  56  95 137 161 199 255 328 401
#
# _framework density 19.277940999999998
#
# number of rings (size 3 to 8) (size 9 to 14) (size 15 to 20)
#    0.000    1.000    5.000    1.875    5.250    1.000 
#    0.000    0.000    0.000    4.500    0.000    0.000 
#    0.000    0.000    0.000    0.000    0.000    0.000 
#
# Total GULP energy -178253.961699 kJ/mol
# GULP energy per Si atom -5570.436303 kJ/mol
# Density = 1.923406 g / cm^3
# Si number density = 19.277941 Si / 1000 Ang^3
#
#
#
# Elastic Constant Matrix: (Units=GPa)
#
#
# Indices 1 2 3 4 5 6 
#
# 1 69.6022 21.3644 33.7871 0.0000 1.0209 0.0000
# 2 21.3644 75.7858 15.6160 0.0000 -1.0506 0.0000
# 3 33.7871 15.6160 83.3205 0.0000 -7.1482 0.0000
# 4 0.0000 0.0000 0.0000 34.7256 0.0000 -3.0369
# 5 1.0209 -1.0506 -7.1482 0.0000 25.0679 0.0000
# 6 0.0000 0.0000 0.0000 -3.0369 0.0000 41.3506
#
#
#
# Elastic Compliance Matrix: (Units=1/GPa)
#
#
# Indices 1 2 3 4 5 6 
#
# 1 0.019161 -0.003941 -0.007291 0.000000 -0.003024 0.000000
# 2 -0.003941 0.014536 -0.001087 0.000000 0.000460 0.000000
# 3 -0.007291 -0.001087 0.015564 0.000000 0.004690 0.000000
# 4 0.000000 0.000000 0.000000 0.028983 0.000000 0.002129
# 5 -0.003024 0.000460 0.004690 0.000000 0.041371 0.000000
# 6 0.000000 0.000000 0.000000 0.002129 0.000000 0.024340
#
#
# Mechanical properties :
#
#
# Convention : Reuss Voigt Hill
#
# Bulk Modulus (GPa) = 40.61048 41.13815 40.87432
# Shear Modulus (GPa) = 28.28041 30.75820 29.51931
#
# Velocity S-wave (km/s) = 3.83428 3.99872 3.91736
# Velocity P-wave (km/s) = 6.38073 6.53495 6.45830
#
# Compressibility (1/GPa) = 0.02462418
#
# Stress axis : x y z
#
# Youngs Moduli (GPa) = 52.19062 68.79264 64.24992
#
# Poissons Ratio (x) = 0.27112 0.46842
# Poissons Ratio (y) = 0.20569 0.06983
# Poissons Ratio (z) = 0.38050 0.07476
#
# Static dielectric constant tensor:
#      x y z
#    x 1.669400 0.000000 0.123270 
#    y 0.000000 2.003810 0.000000 
#    z 0.123270 0.000000 1.554990 
# 
# From -- ./inp_files/280993.got.cif
#   From: 2010.05.17/outbox.cif.g08.bks.cpg/sg15_141_cif.got.tgz:280993.got - 2010.06.03 18:47:42.
