data_PCOD9302897
_publ_section_title
;
Structure prediction by ZEFSAII (Michael W. Deem and Ramdas Pophale) SiO2 
 PCOD9302897
Probable space group: C 2/C
;
_chemical_formula_sum "Si O2"
_cell_formula_units_Z 56
_cell_length_a 9.719991
_cell_length_b 14.307127
_cell_length_c 29.555726
_cell_angle_alpha 90.000000
_cell_angle_beta 144.796519
_cell_angle_gamma 90.000000
_cell_volume 2369.439634
_symmetry_space_group_name_H-M "C 2/C"
_symmetry_group_IT_number 15
_symmetry_cell_setting 'monoclinic'
loop_
_space_group_symop_operation_xyz
x,y,z
-x,y,1/2-z
-x,-y,-z
x,-y,1/2+z
1/2+x,1/2+y,z
1/2-x,1/2+y,1/2-z
1/2-x,1/2-y,-z
1/2+x,1/2-y,1/2+z
loop_
_atom_site_type_symbol
_atom_site_label
_atom_site_fract_x
_atom_site_fract_y
_atom_site_fract_z
Si Si1 0.361056 0.092264 0.407114
Si Si2 0.007403 0.782327 0.701139
Si Si3 0.782767 0.127538 0.931428
Si Si4 0.703191 0.201959 0.440116
Si Si5 0.277843 0.967973 0.657138
Si Si6 0.530194 0.758802 0.805917
Si Si7 0.720886 0.923575 0.515186
O O1 0.083489 0.110575 0.323879
O O2 0.471253 0.144005 0.392704
O O3 0.361626 0.125249 0.460439
O O4 0.517723 0.000678 0.452047
O O5 0.837007 0.712625 0.627558
O O6 0.000000 0.746704 0.750000
O O7 0.261886 0.777837 0.747670
O O8 0.711865 0.033946 0.884616
O O9 0.721562 0.131527 0.968088
O O10 0.068115 0.137996 0.006459
O O11 0.750000 0.250000 0.500000
O O12 0.654672 0.273068 0.385830
O O13 0.500000 0.998743 0.750000
O O14 0.338369 0.858293 0.666181
O O15 0.992820 0.966190 0.594509
O O16 0.500000 0.706476 0.750000
#
# Coordination Sequence:
#
# PCOD9302897 Si02
#       7
#     8   8   8   8   8   8   8
#     4  11  23  41  66  96 137 174 220 281 335 414
#     4  12  25  43  66  99 138 180 224 280 351 417
#     4  12  24  41  68  99 132 175 230 285 335 409
#     4  12  22  41  67  97 130 179 221 275 340 405
#     4  11  22  40  69  96 129 173 223 283 337 410
#     4  11  24  43  67  94 131 177 227 275 341 419
#     4  11  24  42  67 104 130 173 235 281 335 412
#
# _framework density 23.634278999999999
#
# number of rings (size 3 to 8) (size 9 to 14) (size 15 to 20)
#    0.000    0.571    5.714    3.429    0.000    1.714 
#    0.000    0.000    3.143    0.000    0.000    0.000 
#    0.000    0.000    0.000    0.000    0.000    0.000 
#
# Total GULP energy -155954.623122 kJ/mol
# GULP energy per Si atom -5569.807969 kJ/mol
# Density = 2.358049 g / cm^3
# Si number density = 23.634279 Si / 1000 Ang^3
#
#
#
# Elastic Constant Matrix: (Units=GPa)
#
#
# Indices 1 2 3 4 5 6 
#
# 1 136.9114 8.4242 50.2923 0.0000 -26.1846 0.0000
# 2 8.4242 32.7669 19.1628 0.0000 -5.3336 0.0000
# 3 50.2923 19.1628 151.1839 0.0000 -23.8624 0.0001
# 4 0.0000 0.0000 0.0000 24.4297 0.0000 -0.3543
# 5 -26.1846 -5.3336 -23.8624 0.0000 58.5207 0.0000
# 6 0.0000 0.0000 0.0001 -0.3543 0.0000 25.0175
#
#
#
# Elastic Compliance Matrix: (Units=1/GPa)
#
#
# Indices 1 2 3 4 5 6 
#
# 1 0.008768 -0.000371 -0.002411 0.000000 0.002906 0.000000
# 2 -0.000371 0.033084 -0.003869 0.000000 0.001271 0.000000
# 3 -0.002411 -0.003869 0.008209 0.000000 0.001916 0.000000
# 4 0.000000 0.000000 0.000000 0.040942 0.000000 0.000580
# 5 0.002906 0.001271 0.001916 0.000000 0.019286 0.000000
# 6 0.000000 0.000000 0.000000 0.000580 0.000000 0.039980
#
#
# Mechanical properties :
#
#
# Convention : Reuss Voigt Hill
#
# Bulk Modulus (GPa) = 27.20456 52.95785 40.08120
# Shear Modulus (GPa) = 28.43730 37.79244 33.11487
#
# Velocity S-wave (km/s) = 3.47251 4.00315 3.74724
# Velocity P-wave (km/s) = 5.25485 6.61988 5.97646
#
# Compressibility (1/GPa) = 0.03675855
#
# Stress axis : x y z
#
# Youngs Moduli (GPa) = 114.04656 30.22621 121.81202
#
# Poissons Ratio (x) = 0.01122 0.29370
# Poissons Ratio (y) = 0.04233 0.47132
# Poissons Ratio (z) = 0.27497 0.11695
#
# Static dielectric constant tensor:
#      x y z
#    x 1.943890 0.000000 -0.040910 
#    y 0.000000 1.725520 0.000000 
#    z -0.040910 0.000000 2.025530 
# 
# From -- ./inp_files/190906.got.cif
#   From: 2010.05.17/outbox.cif.g08.bks.cpg/sg15_96_cif.got.tgz:190906.got - 2010.06.03 18:47:42.
