data_PCOD9302714
_publ_section_title
;
Structure prediction by ZEFSAII (Michael W. Deem and Ramdas Pophale) SiO2 
 PCOD9302714
Probable space group: C 2/C
;
_chemical_formula_sum "Si O2"
_cell_formula_units_Z 32
_cell_length_a 19.342700
_cell_length_b 10.052147
_cell_length_c 18.333802
_cell_angle_alpha 90.000000
_cell_angle_beta 22.876263
_cell_angle_gamma 90.000000
_cell_volume 1385.767084
_symmetry_space_group_name_H-M "C 2/C"
_symmetry_group_IT_number 15
_symmetry_cell_setting 'monoclinic'
loop_
_space_group_symop_operation_xyz
x,y,z
-x,y,1/2-z
-x,-y,-z
x,-y,1/2+z
1/2+x,1/2+y,z
1/2-x,1/2+y,1/2-z
1/2-x,1/2-y,-z
1/2+x,1/2-y,1/2+z
loop_
_atom_site_type_symbol
_atom_site_label
_atom_site_fract_x
_atom_site_fract_y
_atom_site_fract_z
Si Si1 0.788560 0.931212 0.746832
Si Si2 0.434029 0.828022 0.047458
Si Si3 0.504954 0.456093 0.166460
Si Si4 0.900498 0.656491 0.271923
O O1 0.116618 0.174675 0.397495
O O2 0.911827 0.956016 0.696002
O O3 0.595223 0.863285 0.944724
O O4 0.731464 0.076474 0.773397
O O5 0.497507 0.864318 0.903815
O O6 0.500000 0.523893 0.250000
O O7 0.391738 0.317973 0.284003
O O8 0.708083 0.411025 0.955823
O O9 0.000000 0.615263 0.250000
#
# Coordination Sequence:
#
# PCOD9302714 Si02
#       4
#     8   8   8   8
#     4  11  25  44  66  98 133 174 220 270 328 390
#     4  11  25  43  68  99 133 173 219 270 329 391
#     4  11  22  40  66  96 133 174 220 272 328 388
#     4  11  22  39  66  99 132 170 225 279 321 378
#
# _framework density 23.091902000000001
#
# number of rings (size 3 to 8) (size 9 to 14) (size 15 to 20)
#    0.000    1.000    0.000    9.000    0.000   13.000 
#    0.000    1.250    0.000    6.000    0.000    1.750 
#    0.000    0.000    0.000    0.000    0.000    0.000 
#
# Total GULP energy -89499.275223 kJ/mol
# GULP energy per Si atom -5593.704701 kJ/mol
# Density = 2.303934 g / cm^3
# Si number density = 23.091902 Si / 1000 Ang^3
#
#
#
# Elastic Constant Matrix: (Units=GPa)
#
#
# Indices 1 2 3 4 5 6 
#
# 1 197.1149 87.5601 96.4510 0.0004 -25.9896 -0.0002
# 2 87.5601 72.6184 66.2673 0.0009 1.3344 -0.0005
# 3 96.4510 66.2673 152.9149 0.0009 -23.1772 -0.0005
# 4 0.0004 0.0009 0.0009 26.7261 -0.0005 -14.7443
# 5 -25.9896 1.3344 -23.1772 -0.0005 40.6018 0.0003
# 6 -0.0002 -0.0005 -0.0005 -14.7443 0.0003 39.7244
#
#
#
# Elastic Compliance Matrix: (Units=1/GPa)
#
#
# Indices 1 2 3 4 5 6 
#
# 1 0.013742 -0.016749 0.000008 0.000001 0.009351 0.000000
# 2 -0.016749 0.045159 -0.011884 -0.000001 -0.018989 0.000000
# 3 0.000008 -0.011884 0.012857 0.000000 0.007735 0.000000
# 4 0.000001 -0.000001 0.000000 0.047051 0.000001 0.017464
# 5 0.009351 -0.018989 0.007735 0.000001 0.035655 0.000000
# 6 0.000000 0.000000 0.000000 0.017464 0.000000 0.031655
#
#
# Mechanical properties :
#
#
# Convention : Reuss Voigt Hill
#
# Bulk Modulus (GPa) = 68.92571 102.57833 85.75202
# Shear Modulus (GPa) = 20.14446 32.90178 26.52312
#
# Velocity S-wave (km/s) = 2.95678 3.77877 3.39276
# Velocity P-wave (km/s) = 6.44748 7.97227 7.25007
#
# Compressibility (1/GPa) = 0.01450837
#
# Stress axis : x y z
#
# Youngs Moduli (GPa) = 72.76754 22.14381 77.77710
#
# Poissons Ratio (x) = 0.37088 -0.00060
# Poissons Ratio (y) = 1.21877 0.92432
# Poissons Ratio (z) = -0.00056 0.26316
#
# Static dielectric constant tensor:
#      x y z
#    x 1.926300 0.000000 0.031090 
#    y 0.000000 1.850640 0.000000 
#    z 0.031090 0.000000 1.971410 
# 
# From -- ./inp_files/64472.got.cif
#   From: 2010.05.17/outbox.cif.g08.bks.cpg/sg15_33_cif.got.tgz:64472.got - 2010.06.03 18:47:42.
