data_PCOD9302366
_publ_section_title
;
Structure prediction by ZEFSAII (Michael W. Deem and Ramdas Pophale) SiO2 
 PCOD9302366
Probable space group: C 2/C
;
_chemical_formula_sum "Si O2"
_cell_formula_units_Z 28
_cell_length_a 7.060796
_cell_length_b 12.199461
_cell_length_c 16.884902
_cell_angle_alpha 90.000000
_cell_angle_beta 54.176987
_cell_angle_gamma 90.000000
_cell_volume 1179.293811
_symmetry_space_group_name_H-M "C 2/C"
_symmetry_group_IT_number 15
_symmetry_cell_setting 'monoclinic'
loop_
_space_group_symop_operation_xyz
x,y,z
-x,y,1/2-z
-x,-y,-z
x,-y,1/2+z
1/2+x,1/2+y,z
1/2-x,1/2+y,1/2-z
1/2-x,1/2-y,-z
1/2+x,1/2-y,1/2+z
loop_
_atom_site_type_symbol
_atom_site_label
_atom_site_fract_x
_atom_site_fract_y
_atom_site_fract_z
Si Si1 0.292759 0.880606 0.478077
Si Si2 0.721482 0.703433 0.595692
Si Si3 0.384213 0.472929 0.148003
Si Si4 0.000000 0.386653 0.750000
O O1 0.250000 0.750000 0.500000
O O2 0.565067 0.876790 0.434779
O O3 0.234944 0.929623 0.405090
O O4 0.106959 0.949389 0.575395
O O5 0.750000 0.750000 0.500000
O O6 0.484603 0.635533 0.661537
O O7 0.674374 0.811960 0.657422
O O8 0.187576 0.534780 0.246219
#
# Coordination Sequence:
#
# PCOD9302366 Si02
#       4
#     8   8   8   4
#     4  11  21  47  74 100 139 186 243 293 356 441
#     4  12  25  49  74 103 144 195 239 295 368 431
#     4  11  25  44  71 103 144 188 237 301 360 421
#     4  12  28  44  68 114 144 180 254 296 350 436
#
# _framework density 23.743023999999998
#
# number of rings (size 3 to 8) (size 9 to 14) (size 15 to 20)
#    0.000    0.571    5.714    2.571    4.000    0.000 
#    0.000    2.857    0.000    0.000    0.000    0.000 
#    0.000    0.000    0.000    0.000    0.000    0.000 
#
# Total GULP energy -78130.668039 kJ/mol
# GULP energy per Si atom -5580.762003 kJ/mol
# Density = 2.368898 g / cm^3
# Si number density = 23.743024 Si / 1000 Ang^3
#
#
#
# Elastic Constant Matrix: (Units=GPa)
#
#
# Indices 1 2 3 4 5 6 
#
# 1 128.9388 48.9921 44.2424 -0.0002 -34.8700 0.0001
# 2 48.9921 126.0593 30.2569 -0.0002 -16.3397 0.0001
# 3 44.2424 30.2569 68.9417 -0.0005 -12.8233 0.0002
# 4 -0.0002 -0.0002 -0.0005 33.2754 0.0003 -30.0599
# 5 -34.8700 -16.3397 -12.8233 0.0003 36.8318 -0.0001
# 6 0.0001 0.0001 0.0002 -30.0599 -0.0001 63.7023
#
#
#
# Elastic Compliance Matrix: (Units=1/GPa)
#
#
# Indices 1 2 3 4 5 6 
#
# 1 0.013192 -0.002566 -0.005590 0.000000 0.009405 0.000000
# 2 -0.002566 0.009636 -0.002394 0.000000 0.001012 0.000000
# 3 -0.005590 -0.002394 0.019205 0.000000 0.000332 0.000000
# 4 0.000000 0.000000 0.000000 0.052382 0.000000 0.024718
# 5 0.009405 0.001012 0.000332 0.000000 0.036619 0.000000
# 6 0.000000 0.000000 0.000000 0.024718 0.000000 0.027362
#
#
# Mechanical properties :
#
#
# Convention : Reuss Voigt Hill
#
# Bulk Modulus (GPa) = 47.77382 63.43582 55.60482
# Shear Modulus (GPa) = 26.81340 40.12512 33.46926
#
# Velocity S-wave (km/s) = 3.36418 4.11539 3.75860
# Velocity P-wave (km/s) = 5.93760 7.02550 6.50433
#
# Compressibility (1/GPa) = 0.02093197
#
# Stress axis : x y z
#
# Youngs Moduli (GPa) = 75.80149 103.77895 52.06999
#
# Poissons Ratio (x) = 0.26632 0.29109
# Poissons Ratio (y) = 0.19453 0.12465
# Poissons Ratio (z) = 0.42376 0.24844
#
# Static dielectric constant tensor:
#      x y z
#    x 1.923020 0.000000 -0.050700 
#    y 0.000000 1.876190 0.000000 
#    z -0.050700 0.000000 1.892800 
# 
# From -- ./inp_files/229717.got.cif
#   From: 2010.05.17/outbox.cif.g08.bks.cpg/sg15_115_cif.got.tgz:229717.got - 2010.06.03 18:47:42.
