data_PCOD9302048
_publ_section_title
;
Structure prediction by ZEFSAII (Michael W. Deem and Ramdas Pophale) SiO2 
 PCOD9302048
Probable space group: C 2/C
;
_chemical_formula_sum "Si O2"
_cell_formula_units_Z 56
_cell_length_a 18.048033
_cell_length_b 15.102676
_cell_length_c 9.050800
_cell_angle_alpha 90.000000
_cell_angle_beta 103.361180
_cell_angle_gamma 90.000000
_cell_volume 2400.233749
_symmetry_space_group_name_H-M "C 2/C"
_symmetry_group_IT_number 15
_symmetry_cell_setting 'monoclinic'
loop_
_space_group_symop_operation_xyz
x,y,z
-x,y,1/2-z
-x,-y,-z
x,-y,1/2+z
1/2+x,1/2+y,z
1/2-x,1/2+y,1/2-z
1/2-x,1/2-y,-z
1/2+x,1/2-y,1/2+z
loop_
_atom_site_type_symbol
_atom_site_label
_atom_site_fract_x
_atom_site_fract_y
_atom_site_fract_z
Si Si1 0.765535 0.715896 0.172692
Si Si2 0.566332 0.354228 0.375216
Si Si3 0.179308 0.003686 0.370274
Si Si4 0.076425 0.667614 0.863666
Si Si5 0.240818 0.606293 0.831591
Si Si6 0.398757 0.656340 0.294566
Si Si7 0.577624 0.835352 0.716866
O O1 0.775835 0.800655 0.287617
O O2 0.687275 0.676757 0.194867
O O3 0.833803 0.643910 0.206463
O O4 0.750000 0.750000 0.000000
O O5 0.500000 0.397939 0.250000
O O6 0.638837 0.417132 0.415872
O O7 0.548586 0.333256 0.537085
O O8 0.579487 0.262835 0.293168
O O9 0.215471 0.068647 0.506614
O O10 0.109705 0.057334 0.264709
O O11 0.242326 0.965386 0.288015
O O12 0.152877 0.622366 0.833692
O O13 0.082757 0.770248 0.817693
O O14 0.000000 0.632104 0.750000
O O15 0.071448 0.660703 0.037758
O O16 0.500000 0.876790 0.750000
#
# Coordination Sequence:
#
# PCOD9302048 Si02
#       7
#     8   8   8   8   8   8   8
#     4  11  21  41  69 100 129 180 226 286 336 400
#     4  11  23  40  61  96 139 184 223 269 344 416
#     4  12  23  44  64  99 136 189 227 273 337 414
#     4  11  25  45  69 103 137 175 229 295 350 397
#     4  11  25  44  70  99 140 179 237 279 336 416
#     4  11  23  40  69  95 135 176 228 283 342 404
#     4  11  22  39  66 101 136 172 224 283 345 412
#
# _framework density 23.331060000000001
#
# number of rings (size 3 to 8) (size 9 to 14) (size 15 to 20)
#    0.000    0.857    4.286    3.429    2.000    3.429 
#    0.000    0.714    0.000    0.857    0.000    0.000 
#    0.000    0.000    0.000    0.000    0.000    0.000 
#
# Total GULP energy -156417.887262 kJ/mol
# GULP energy per Si atom -5586.353116 kJ/mol
# Density = 2.327796 g / cm^3
# Si number density = 23.331060 Si / 1000 Ang^3
#
#
#
# Elastic Constant Matrix: (Units=GPa)
#
#
# Indices 1 2 3 4 5 6 
#
# 1 124.9796 -6.3021 32.7143 0.0000 -3.4278 0.0000
# 2 -6.3021 46.1709 10.3450 0.0000 -3.0156 0.0000
# 3 32.7143 10.3450 136.3317 0.0000 -12.3952 0.0000
# 4 0.0000 0.0000 0.0000 21.8199 0.0000 -13.4954
# 5 -3.4278 -3.0156 -12.3952 0.0000 37.8989 0.0000
# 6 0.0000 0.0000 0.0000 -13.4954 0.0000 0.9133
#
#
#
# Elastic Compliance Matrix: (Units=1/GPa)
#
#
# Indices 1 2 3 4 5 6 
#
# 1 0.008665 0.001686 -0.002189 0.000000 0.000202 0.000000
# 2 0.001686 0.022418 -0.001989 0.000000 0.001286 0.000000
# 3 -0.002189 -0.001989 0.008223 0.000000 0.002333 0.000000
# 4 0.000000 0.000000 0.000000 -0.005631 0.000000 -0.083204
# 5 0.000202 0.001286 0.002333 0.000000 0.027270 0.000000
# 6 0.000000 0.000000 0.000000 -0.083204 0.000000 -0.134527
#
#
# Mechanical properties :
#
#
# Convention : Reuss Voigt Hill
#
# Bulk Modulus (GPa) = 29.13425 42.33294 35.73360
# Shear Modulus (GPa) = -87.47694 30.17477 -28.65109
#
# Velocity S-wave (km/s) = -6.12986 3.60019 -3.50812
# Velocity P-wave (km/s) = 6.13073 5.95531 1.02959
#
# Compressibility (1/GPa) = 0.03432386
#
# Stress axis : x y z
#
# Youngs Moduli (GPa) = 115.40925 44.60614 121.60507
#
# Poissons Ratio (x) = -0.07522 0.26617
# Poissons Ratio (y) = -0.19462 0.24186
# Poissons Ratio (z) = 0.25261 0.08872
#
# Static dielectric constant tensor:
#      x y z
#    x 2.051700 0.000000 0.021040 
#    y 0.000000 1.934520 0.000000 
#    z 0.021040 0.000000 1.907670 
# 
# From -- ./inp_files/49172.got.cif
#   From: 2010.05.17/outbox.cif.g08.bks.cpg/sg15_25_cif.got.tgz:49172.got - 2010.06.03 18:47:42.
