data_PCOD9302226
_publ_section_title
;
Structure prediction by ZEFSAII (Michael W. Deem and Ramdas Pophale) SiO2 
 PCOD9302226
Probable space group: C 2/C
;
_chemical_formula_sum "Si O2"
_cell_formula_units_Z 44
_cell_length_a 17.576526
_cell_length_b 15.361327
_cell_length_c 7.791213
_cell_angle_alpha 90.000000
_cell_angle_beta 81.441138
_cell_angle_gamma 90.000000
_cell_volume 2080.190917
_symmetry_space_group_name_H-M "C 2/C"
_symmetry_group_IT_number 15
_symmetry_cell_setting 'monoclinic'
loop_
_space_group_symop_operation_xyz
x,y,z
-x,y,1/2-z
-x,-y,-z
x,-y,1/2+z
1/2+x,1/2+y,z
1/2-x,1/2+y,1/2-z
1/2-x,1/2-y,-z
1/2+x,1/2-y,1/2+z
loop_
_atom_site_type_symbol
_atom_site_label
_atom_site_fract_x
_atom_site_fract_y
_atom_site_fract_z
Si Si1 0.836427 0.440043 0.708690
Si Si2 0.057260 0.921023 0.528215
Si Si3 0.000000 0.235427 0.250000
Si Si4 0.667726 0.476724 0.209297
Si Si5 0.369556 0.121847 0.815623
Si Si6 0.767098 0.652672 0.539170
O O1 0.749172 0.476358 0.713963
O O2 0.887772 0.525343 0.732916
O O3 0.857276 0.392667 0.523693
O O4 0.830243 0.383258 0.883509
O O5 0.016138 0.830609 0.586079
O O6 0.124426 0.919030 0.364537
O O7 0.105547 0.952185 0.676542
O O8 0.000000 0.000000 0.500000
O O9 0.928959 0.301478 0.258976
O O10 0.691851 0.408691 0.052733
O O11 0.295216 0.147420 0.727000
O O12 0.750000 0.750000 0.500000
#
# Coordination Sequence:
#
# PCOD9302226 Si02
#       6
#     8   8   4   8   8   8
#     4  11  22  48  75 103 138 187 241 305 369 405
#     4  12  24  43  66  96 142 187 227 281 368 435
#     4  12  30  44  68 104 150 192 236 290 348 462
#     4  11  21  43  70  95 134 181 229 294 359 414
#     4  11  25  48  69 106 142 189 246 287 365 425
#     4  11  25  41  73 110 139 177 245 309 353 422
#
# _framework density 21.151903000000001
#
# number of rings (size 3 to 8) (size 9 to 14) (size 15 to 20)
#    0.000    0.727    7.273    1.091    7.636    1.455 
#    0.000    0.000    0.000    0.000    0.000    0.000 
#    0.000    0.000    0.000    0.000    0.000    0.000 
#
# Total GULP energy -122600.928014 kJ/mol
# GULP energy per Si atom -5572.769455 kJ/mol
# Density = 2.110376 g / cm^3
# Si number density = 21.151903 Si / 1000 Ang^3
#
#
#
# Elastic Constant Matrix: (Units=GPa)
#
#
# Indices 1 2 3 4 5 6 
#
# 1 73.8200 38.7183 12.2535 0.0000 -10.3783 0.0000
# 2 38.7183 139.0162 36.7928 0.0000 -15.4097 0.0000
# 3 12.2535 36.7928 121.6980 0.0000 -18.0081 0.0000
# 4 0.0000 0.0000 0.0000 38.5793 0.0000 -8.5975
# 5 -10.3783 -15.4097 -18.0081 0.0000 20.1209 0.0000
# 6 0.0000 0.0000 0.0000 -8.5975 0.0000 46.1193
#
#
#
# Elastic Compliance Matrix: (Units=1/GPa)
#
#
# Indices 1 2 3 4 5 6 
#
# 1 0.016405 -0.004044 0.000420 0.000000 0.005741 0.000000
# 2 -0.004044 0.009180 -0.001886 0.000000 0.003256 0.000000
# 3 0.000420 -0.001886 0.009871 0.000000 0.007606 0.000000
# 4 0.000000 0.000000 0.000000 0.027044 0.000000 0.005042
# 5 0.005741 0.003256 0.007606 0.000000 0.061962 0.000000
# 6 0.000000 0.000000 0.000000 0.005042 0.000000 0.022623
#
#
# Mechanical properties :
#
#
# Convention : Reuss Voigt Hill
#
# Bulk Modulus (GPa) = 40.92423 56.67372 48.79898
# Shear Modulus (GPa) = 30.07533 37.41520 33.74526
#
# Velocity S-wave (km/s) = 3.77486 4.21037 3.99855
# Velocity P-wave (km/s) = 6.19591 7.10550 6.66623
#
# Compressibility (1/GPa) = 0.02443540
#
# Stress axis : x y z
#
# Youngs Moduli (GPa) = 60.95786 108.93354 101.31139
#
# Poissons Ratio (x) = 0.44052 -0.04258
# Poissons Ratio (y) = 0.24651 0.19110
# Poissons Ratio (z) = -0.02562 0.20548
#
# Static dielectric constant tensor:
#      x y z
#    x 1.927710 0.000000 0.058830 
#    y 0.000000 1.797940 0.000000 
#    z 0.058830 0.000000 1.879390 
# 
# From -- ./inp_files/47097.got.cif
#   From: 2010.05.17/outbox.cif.g08.bks.cpg/sg15_24_cif.got.tgz:47097.got - 2010.06.03 18:47:42.
