data_PCOD9302950
_publ_section_title
;
Structure prediction by ZEFSAII (Michael W. Deem and Ramdas Pophale) SiO2 
 PCOD9302950
Probable space group: C 2/C
;
_chemical_formula_sum "Si O2"
_cell_formula_units_Z 40
_cell_length_a 24.473683
_cell_length_b 4.709024
_cell_length_c 17.118258
_cell_angle_alpha 90.000000
_cell_angle_beta 118.110132
_cell_angle_gamma 90.000000
_cell_volume 1740.122551
_symmetry_space_group_name_H-M "C 2/C"
_symmetry_group_IT_number 15
_symmetry_cell_setting 'monoclinic'
loop_
_space_group_symop_operation_xyz
x,y,z
-x,y,1/2-z
-x,-y,-z
x,-y,1/2+z
1/2+x,1/2+y,z
1/2-x,1/2+y,1/2-z
1/2-x,1/2-y,-z
1/2+x,1/2-y,1/2+z
loop_
_atom_site_type_symbol
_atom_site_label
_atom_site_fract_x
_atom_site_fract_y
_atom_site_fract_z
Si Si1 0.207100 0.027874 0.727158
Si Si2 0.083320 0.164109 0.936323
Si Si3 0.605874 0.153207 0.054981
Si Si4 0.393358 0.494245 0.216575
Si Si5 0.541244 0.012085 0.666902
O O1 0.257673 0.261041 0.785093
O O2 0.161417 0.185286 0.635986
O O3 0.166507 0.923859 0.773310
O O4 0.111770 0.014130 0.879451
O O5 0.023966 0.353108 0.871862
O O6 0.124138 0.401506 0.008260
O O7 0.069251 0.904579 0.985665
O O8 0.564052 0.003747 0.093045
O O9 0.450123 0.682702 0.288422
O O10 0.409469 0.175322 0.252337
#
# Coordination Sequence:
#
# PCOD9302950 Si02
#       5
#     8   8   8   8   8
#     4  11  23  45  68  86 120 174 224 269 318 379
#     4  12  23  39  63  99 136 161 203 273 318 369
#     4  11  23  40  64  96 126 168 218 261 316 382
#     4  11  24  41  64  97 128 170 219 254 310 389
#     4  11  22  41  64  92 134 179 205 241 315 401
#
# _framework density 22.986885000000001
#
# number of rings (size 3 to 8) (size 9 to 14) (size 15 to 20)
#    0.000    0.800    0.000   10.200    0.000    1.600 
#    0.000    6.000    0.000    0.000    0.000    0.000 
#    0.000    0.000    0.000    0.000    0.000    0.000 
#
# Total GULP energy -111899.691134 kJ/mol
# GULP energy per Si atom -5594.984557 kJ/mol
# Density = 2.293457 g / cm^3
# Si number density = 22.986885 Si / 1000 Ang^3
#
#
#
# Elastic Constant Matrix: (Units=GPa)
#
#
# Indices 1 2 3 4 5 6 
#
# 1 86.2044 25.6927 46.4587 0.0003 -8.2813 -0.0003
# 2 25.6927 130.4297 42.2583 -0.0009 -11.8486 0.0014
# 3 46.4587 42.2583 110.7948 0.0000 -33.7866 -0.0001
# 4 0.0003 -0.0009 0.0000 45.6522 -0.0004 16.2057
# 5 -8.2813 -11.8486 -33.7866 -0.0004 18.7475 0.0001
# 6 -0.0003 0.0014 -0.0001 16.2057 0.0001 36.6660
#
#
#
# Elastic Compliance Matrix: (Units=1/GPa)
#
#
# Indices 1 2 3 4 5 6 
#
# 1 0.016088 -0.001021 -0.009738 0.000000 -0.011088 0.000000
# 2 -0.001021 0.008823 -0.003050 0.000000 -0.000373 -0.000001
# 3 -0.009738 -0.003050 0.027469 0.000000 0.043275 0.000000
# 4 0.000000 0.000000 0.000000 0.025981 0.000001 -0.011483
# 5 -0.011088 -0.000373 0.043275 0.000001 0.126197 -0.000001
# 6 0.000000 -0.000001 0.000000 -0.011483 -0.000001 0.032349
#
#
# Mechanical properties :
#
#
# Convention : Reuss Voigt Hill
#
# Bulk Modulus (GPa) = 40.38711 61.80536 51.09624
# Shear Modulus (GPa) = 18.32992 34.41443 26.37217
#
# Velocity S-wave (km/s) = 2.82690 3.87348 3.39081
# Velocity P-wave (km/s) = 5.31629 6.85206 6.13244
#
# Compressibility (1/GPa) = 0.02476037
#
# Stress axis : x y z
#
# Youngs Moduli (GPa) = 62.16000 113.34511 36.40465
#
# Poissons Ratio (x) = 0.11577 0.35450
# Poissons Ratio (y) = 0.06349 0.11105
# Poissons Ratio (z) = 0.60529 0.34574
#
# Static dielectric constant tensor:
#      x y z
#    x 1.886390 0.000000 0.001720 
#    y 0.000000 1.836830 0.000000 
#    z 0.001720 0.000000 1.910250 
# 
# From -- ./inp_files/170595.got.cif
#   From: 2010.05.17/outbox.cif.g08.bks.cpg/sg15_86_cif.got.tgz:170595.got - 2010.06.03 18:47:42.
