data_PCOD9302087
_publ_section_title
;
Structure prediction by ZEFSAII (Michael W. Deem and Ramdas Pophale) SiO2 
 PCOD9302087
Probable space group: C 2/C
;
_chemical_formula_sum "Si O2"
_cell_formula_units_Z 44
_cell_length_a 14.677135
_cell_length_b 12.961163
_cell_length_c 14.327581
_cell_angle_alpha 90.000000
_cell_angle_beta 53.939722
_cell_angle_gamma 90.000000
_cell_volume 2203.349818
_symmetry_space_group_name_H-M "C 2/C"
_symmetry_group_IT_number 15
_symmetry_cell_setting 'monoclinic'
loop_
_space_group_symop_operation_xyz
x,y,z
-x,y,1/2-z
-x,-y,-z
x,-y,1/2+z
1/2+x,1/2+y,z
1/2-x,1/2+y,1/2-z
1/2-x,1/2-y,-z
1/2+x,1/2-y,1/2+z
loop_
_atom_site_type_symbol
_atom_site_label
_atom_site_fract_x
_atom_site_fract_y
_atom_site_fract_z
Si Si1 0.750102 0.730232 0.389404
Si Si2 0.116340 0.844386 0.342348
Si Si3 0.458744 0.520236 0.379804
Si Si4 0.981940 0.238467 0.074424
Si Si5 0.264412 0.012394 0.881277
Si Si6 0.000000 0.624491 0.750000
O O1 0.750000 0.750000 0.500000
O O2 0.843564 0.795827 0.278134
O O3 0.631982 0.761221 0.412689
O O4 0.769095 0.609054 0.359445
O O5 0.208905 0.921070 0.330958
O O6 0.084954 0.757975 0.438252
O O7 0.006127 0.914605 0.393900
O O8 0.500000 0.522139 0.250000
O O9 0.514764 0.619516 0.394060
O O10 0.325616 0.526730 0.479872
O O11 0.992959 0.306450 0.160490
O O12 0.387389 0.056760 0.825813
#
# Coordination Sequence:
#
# PCOD9302087 Si02
#       6
#     8   8   8   8   8   4
#     4  12  25  45  69 101 144 184 232 292 354 425
#     4  11  23  42  73  99 137 185 240 292 340 427
#     4  11  21  41  74 101 131 183 238 292 341 422
#     4  11  23  43  68 102 135 180 239 281 356 420
#     4  11  24  45  68 101 144 178 234 291 355 419
#     4  12  26  46  68 108 148 180 228 308 358 420
#
# _framework density 19.969593
#
# number of rings (size 3 to 8) (size 9 to 14) (size 15 to 20)
#    0.000    0.727    6.364    2.182    0.000    5.818 
#    3.273    1.818    0.000    0.000    0.000    0.000 
#    0.000    0.000    0.000    0.000    0.000    0.000 
#
# Total GULP energy -122931.936197 kJ/mol
# GULP energy per Si atom -5587.815282 kJ/mol
# Density = 1.992414 g / cm^3
# Si number density = 19.969593 Si / 1000 Ang^3
#
#
#
# Elastic Constant Matrix: (Units=GPa)
#
#
# Indices 1 2 3 4 5 6 
#
# 1 115.3078 40.3653 76.8049 0.0000 -3.8722 0.0000
# 2 40.3653 76.7702 66.4503 0.0000 -6.6222 0.0000
# 3 76.8049 66.4503 159.4926 0.0000 10.8451 0.0000
# 4 0.0000 0.0000 0.0000 29.6526 0.0000 -3.7065
# 5 -3.8722 -6.6222 10.8451 0.0000 38.8147 0.0000
# 6 0.0000 0.0000 0.0000 -3.7065 0.0000 23.0303
#
#
#
# Elastic Compliance Matrix: (Units=1/GPa)
#
#
# Indices 1 2 3 4 5 6 
#
# 1 0.013256 -0.001650 -0.005878 0.000000 0.002683 0.000000
# 2 -0.001650 0.022028 -0.008794 0.000000 0.006051 0.000000
# 3 -0.005878 -0.008794 0.013156 0.000000 -0.005763 0.000000
# 4 0.000000 0.000000 0.000000 0.034416 0.000000 0.005539
# 5 0.002683 0.006051 -0.005763 0.000000 0.028674 0.000000
# 6 0.000000 0.000000 0.000000 0.005539 0.000000 0.044312
#
#
# Mechanical properties :
#
#
# Convention : Reuss Voigt Hill
#
# Bulk Modulus (GPa) = 63.31418 79.86797 71.59107
# Shear Modulus (GPa) = 25.80616 29.49620 27.65118
#
# Velocity S-wave (km/s) = 3.59872 3.84742 3.72514
# Velocity P-wave (km/s) = 7.00299 7.73424 7.37768
#
# Compressibility (1/GPa) = 0.01579425
#
# Stress axis : x y z
#
# Youngs Moduli (GPa) = 75.43935 45.39770 76.00808
#
# Poissons Ratio (x) = 0.07491 0.44680
# Poissons Ratio (y) = 0.12449 0.66843
# Poissons Ratio (z) = 0.44346 0.39924
#
# Static dielectric constant tensor:
#      x y z
#    x 1.719560 0.000000 0.011770 
#    y 0.000000 1.685430 0.000000 
#    z 0.011770 0.000000 1.746090 
# 
# From -- ./inp_files/151738.got.cif
#   From: 2010.05.17/outbox.cif.g08.bks.cpg/sg15_76_cif.got.tgz:151738.got - 2010.06.03 18:47:42.
