data_PCOD9302675
_publ_section_title
;
Structure prediction by ZEFSAII (Michael W. Deem and Ramdas Pophale) SiO2 
 PCOD9302675
Probable space group: C 2/C
;
_chemical_formula_sum "Si O2"
_cell_formula_units_Z 32
_cell_length_a 13.302048
_cell_length_b 21.426162
_cell_length_c 8.570425
_cell_angle_alpha 90.000000
_cell_angle_beta 37.346286
_cell_angle_gamma 90.000000
_cell_volume 1481.800458
_symmetry_space_group_name_H-M "C 2/C"
_symmetry_group_IT_number 15
_symmetry_cell_setting 'monoclinic'
loop_
_space_group_symop_operation_xyz
x,y,z
-x,y,1/2-z
-x,-y,-z
x,-y,1/2+z
1/2+x,1/2+y,z
1/2-x,1/2+y,1/2-z
1/2-x,1/2-y,-z
1/2+x,1/2-y,1/2+z
loop_
_atom_site_type_symbol
_atom_site_label
_atom_site_fract_x
_atom_site_fract_y
_atom_site_fract_z
Si Si1 0.155356 0.217898 0.473742
Si Si2 0.125863 0.972891 0.216837
Si Si3 0.490377 0.814864 0.434792
Si Si4 0.855386 0.551497 0.703519
O O1 0.250000 0.250000 0.500000
O O2 0.296864 0.177751 0.217243
O O3 0.083382 0.269206 0.441508
O O4 0.000000 0.186921 0.750000
O O5 0.260637 0.937567 0.155720
O O6 0.000000 0.942114 0.250000
O O7 0.000000 0.000000 0.500000
O O8 0.229773 0.023753 0.988257
O O9 0.572299 0.882630 0.334204
O O10 0.500000 0.786755 0.250000
O O11 0.000000 0.500000 0.500000
#
# Coordination Sequence:
#
# PCOD9302675 Si02
#       4
#     8   8   8   8
#     4   9  21  42  64  90 122 165 215 263 320 383
#     4   9  20  40  60  87 124 164 208 253 311 387
#     4  11  22  41  65  93 127 167 215 270 323 386
#     4  11  22  39  64  96 130 166 209 262 328 390
#
# _framework density 21.595351000000001
#
# number of rings (size 3 to 8) (size 9 to 14) (size 15 to 20)
#    0.000    2.000    0.000    3.000    0.000    6.000 
#    0.000   43.750    0.000    0.000    0.000    0.000 
#    0.000    0.000    0.000    0.000    0.000    0.000 
#
# Total GULP energy -89274.243644 kJ/mol
# GULP energy per Si atom -5579.640228 kJ/mol
# Density = 2.154620 g / cm^3
# Si number density = 21.595351 Si / 1000 Ang^3
#
#
#
# Elastic Constant Matrix: (Units=GPa)
#
#
# Indices 1 2 3 4 5 6 
#
# 1 183.9836 41.9624 50.3373 0.0001 6.3776 0.0000
# 2 41.9624 98.0998 46.8252 0.0000 -1.7692 0.0000
# 3 50.3373 46.8252 175.8466 0.0000 -4.7587 0.0000
# 4 0.0001 0.0000 0.0000 -3.4799 -0.0001 -25.8383
# 5 6.3776 -1.7692 -4.7587 -0.0001 41.4957 0.0000
# 6 0.0000 0.0000 0.0000 -25.8383 0.0000 -20.4373
#
#
#
# Elastic Compliance Matrix: (Units=1/GPa)
#
#
# Indices 1 2 3 4 5 6 
#
# 1 0.006308 -0.002111 -0.001276 0.000000 -0.001206 0.000000
# 2 -0.002111 0.012385 -0.002679 0.000000 0.000545 0.000000
# 3 -0.001276 -0.002679 0.006789 0.000000 0.000860 0.000000
# 4 0.000000 0.000000 0.000000 0.034262 0.000000 -0.043317
# 5 -0.001206 0.000545 0.000860 0.000000 0.024406 0.000000
# 6 0.000000 0.000000 0.000000 -0.043317 0.000000 0.005834
#
#
# Mechanical properties :
#
#
# Convention : Reuss Voigt Hill
#
# Bulk Modulus (GPa) = 74.90786 81.79775 78.35281
# Shear Modulus (GPa) = 46.91954 24.76938 35.84446
#
# Velocity S-wave (km/s) = 4.66625 3.39038 4.07851
# Velocity P-wave (km/s) = 7.98712 7.29972 7.65115
#
# Compressibility (1/GPa) = 0.01334973
#
# Stress axis : x y z
#
# Youngs Moduli (GPa) = 158.53822 80.74186 147.30237
#
# Poissons Ratio (x) = 0.17042 0.18799
# Poissons Ratio (y) = 0.33463 0.39463
# Poissons Ratio (z) = 0.20232 0.21631
#
# Static dielectric constant tensor:
#      x y z
#    x 1.815400 0.000000 0.016600 
#    y 0.000000 1.722380 0.000000 
#    z 0.016600 0.000000 1.807080 
# 
# From -- ./inp_files/30017.got.cif
#   From: 2010.05.17/outbox.cif.g08.bks.cpg/sg15_16_cif.got.tgz:30017.got - 2010.06.03 18:47:42.
