data_PCOD9302834
_publ_section_title
;
Structure prediction by ZEFSAII (Michael W. Deem and Ramdas Pophale) SiO2 
 PCOD9302834
Probable space group: C 2/C
;
_chemical_formula_sum "Si O2"
_cell_formula_units_Z 60
_cell_length_a 8.674569
_cell_length_b 21.676695
_cell_length_c 17.446602
_cell_angle_alpha 90.000000
_cell_angle_beta 121.949961
_cell_angle_gamma 90.000000
_cell_volume 2783.614474
_symmetry_space_group_name_H-M "C 2/C"
_symmetry_group_IT_number 15
_symmetry_cell_setting 'monoclinic'
loop_
_space_group_symop_operation_xyz
x,y,z
-x,y,1/2-z
-x,-y,-z
x,-y,1/2+z
1/2+x,1/2+y,z
1/2-x,1/2+y,1/2-z
1/2-x,1/2-y,-z
1/2+x,1/2-y,1/2+z
loop_
_atom_site_type_symbol
_atom_site_label
_atom_site_fract_x
_atom_site_fract_y
_atom_site_fract_z
Si Si1 0.594253 0.758941 0.022451
Si Si2 0.000000 0.851216 0.750000
Si Si3 0.520916 0.892778 0.063885
Si Si4 0.889487 0.929491 0.572912
Si Si5 0.891383 0.941271 0.140395
Si Si6 0.555065 0.637627 0.562800
Si Si7 0.670394 0.833295 0.257440
Si Si8 0.696322 0.782097 0.770691
O O1 0.530225 0.829269 0.015853
O O2 0.678113 0.733009 0.123266
O O3 0.750000 0.750000 0.000000
O O4 0.440520 0.709172 0.960301
O O5 0.073262 0.891092 0.840453
O O6 0.179644 0.818953 0.758010
O O7 0.674482 0.943820 0.089366
O O8 0.589887 0.868485 0.164453
O O9 0.322197 0.920704 0.003996
O O10 0.986909 0.901057 0.524020
O O11 0.950175 0.998637 0.608691
O O12 0.000000 0.936973 0.250000
O O13 0.919576 0.881190 0.094911
O O14 0.744335 0.623574 0.655262
O O15 0.500000 0.798283 0.250000
O O16 0.824872 0.786007 0.271434
O O17 0.500000 0.805498 0.750000
#
# Coordination Sequence:
#
# PCOD9302834 Si02
#       8
#     8   4   8   8   8   8   8   8
#     4  11  23  40  66 107 135 173 228 294 367 422
#     4  12  26  46  68 100 152 198 230 306 358 422
#     4  11  25  42  72 101 133 182 231 293 355 437
#     4  12  27  47  68  98 141 190 247 293 351 427
#     4  12  25  47  71  98 141 190 238 296 365 422
#     4  12  24  42  73  99 136 180 232 293 356 434
#     4  11  22  40  66 104 141 178 227 294 363 432
#     4  11  25  41  66 103 150 191 235 288 368 446
#
# _framework density 21.554708000000002
#
# number of rings (size 3 to 8) (size 9 to 14) (size 15 to 20)
#    0.000    0.533    6.667    1.600    5.600    0.533 
#    0.000    0.000    0.000    0.000    0.000    0.000 
#    0.000    0.000    0.000    0.000    0.000    0.000 
#
# Total GULP energy -167229.854910 kJ/mol
# GULP energy per Si atom -5574.328497 kJ/mol
# Density = 2.150565 g / cm^3
# Si number density = 21.554708 Si / 1000 Ang^3
#
#
#
# Elastic Constant Matrix: (Units=GPa)
#
#
# Indices 1 2 3 4 5 6 
#
# 1 49.3885 -0.2735 0.7370 0.0000 0.2235 0.0000
# 2 -0.2735 59.3234 23.6660 0.0000 -8.9034 0.0000
# 3 0.7370 23.6660 134.7625 0.0000 -15.3089 0.0000
# 4 0.0000 0.0000 0.0000 25.4503 0.0000 -2.6345
# 5 0.2235 -8.9034 -15.3089 0.0000 36.5351 0.0000
# 6 0.0000 0.0000 0.0000 -2.6345 0.0000 25.5586
#
#
#
# Elastic Compliance Matrix: (Units=1/GPa)
#
#
# Indices 1 2 3 4 5 6 
#
# 1 0.020251 0.000130 -0.000151 0.000000 -0.000156 0.000000
# 2 0.000130 0.018500 -0.002874 0.000000 0.003303 0.000000
# 3 -0.000151 -0.002874 0.008239 0.000000 0.002753 0.000000
# 4 0.000000 0.000000 0.000000 0.039716 0.000000 0.004094
# 5 -0.000156 0.003303 0.002753 0.000000 0.029330 0.000000
# 6 0.000000 0.000000 0.000000 0.004094 0.000000 0.039548
#
#
# Mechanical properties :
#
#
# Convention : Reuss Voigt Hill
#
# Bulk Modulus (GPa) = 24.27219 32.41481 28.34350
# Shear Modulus (GPa) = 28.55390 32.13178 30.34284
#
# Velocity S-wave (km/s) = 3.64362 3.86516 3.75602
# Velocity P-wave (km/s) = 5.38390 5.91526 5.65583
#
# Compressibility (1/GPa) = 0.04119941
#
# Stress axis : x y z
#
# Youngs Moduli (GPa) = 49.37948 54.05483 121.37759
#
# Poissons Ratio (x) = -0.00705 0.01837
# Poissons Ratio (y) = -0.00644 0.34887
# Poissons Ratio (z) = 0.00747 0.15537
#
# Static dielectric constant tensor:
#      x y z
#    x 1.904720 0.000000 -0.025520 
#    y 0.000000 1.807850 0.000000 
#    z -0.025520 0.000000 1.785320 
# 
# From -- ./inp_files/192551.got.cif
#   From: 2010.05.17/outbox.cif.g08.bks.cpg/sg15_97_cif.got.tgz:192551.got - 2010.06.03 18:47:42.
