data_PCOD9302515
_publ_section_title
;
Structure prediction by ZEFSAII (Michael W. Deem and Ramdas Pophale) SiO2 
 PCOD9302515
Probable space group: C 2/C
;
_chemical_formula_sum "Si O2"
_cell_formula_units_Z 60
_cell_length_a 17.784137
_cell_length_b 12.869150
_cell_length_c 13.173148
_cell_angle_alpha 90.000000
_cell_angle_beta 68.714012
_cell_angle_gamma 90.000000
_cell_volume 2809.219213
_symmetry_space_group_name_H-M "C 2/C"
_symmetry_group_IT_number 15
_symmetry_cell_setting 'monoclinic'
loop_
_space_group_symop_operation_xyz
x,y,z
-x,y,1/2-z
-x,-y,-z
x,-y,1/2+z
1/2+x,1/2+y,z
1/2-x,1/2+y,1/2-z
1/2-x,1/2-y,-z
1/2+x,1/2-y,1/2+z
loop_
_atom_site_type_symbol
_atom_site_label
_atom_site_fract_x
_atom_site_fract_y
_atom_site_fract_z
Si Si1 0.165658 0.624554 0.751370
Si Si2 0.583192 0.488062 0.677614
Si Si3 0.040493 0.894164 0.025344
Si Si4 0.324578 0.633092 0.201800
Si Si5 0.076623 0.726166 0.509673
Si Si6 0.000000 0.644576 0.750000
Si Si7 0.178518 0.559431 0.379177
Si Si8 0.289852 0.616670 0.515525
O O1 0.161138 0.750048 0.762386
O O2 0.082205 0.587042 0.741109
O O3 0.172154 0.560985 0.852379
O O4 0.242171 0.599971 0.642612
O O5 0.500000 0.433469 0.750000
O O6 0.555582 0.594769 0.638579
O O7 0.638061 0.459957 0.746545
O O8 0.630499 0.444210 0.557729
O O9 0.124671 0.872156 0.925898
O O10 0.975836 0.804805 0.031190
O O11 0.000000 0.000000 0.000000
O O12 0.229258 0.613249 0.262142
O O13 0.028067 0.707635 0.637019
O O14 0.095699 0.619611 0.441419
O O15 0.165767 0.771689 0.495711
O O16 0.230295 0.579661 0.455441
#
# Coordination Sequence:
#
# PCOD9302515 Si02
#       8
#     8   8   8   8   8   4   8   8
#     4  12  25  43  68  98 127 180 220 275 321 389
#     4  11  22  37  65 102 134 162 206 275 338 379
#     4  12  23  35  66 105 134 160 219 273 339 383
#     4  11  23  42  67  97 135 166 222 276 325 385
#     4  12  23  40  67 103 129 169 216 282 322 394
#     4  12  24  42  68  90 134 168 228 266 316 386
#     4  11  25  40  68  95 132 173 227 261 328 395
#     4  11  22  40  66  97 131 160 220 275 324 378
#
# _framework density 21.358248
#
# number of rings (size 3 to 8) (size 9 to 14) (size 15 to 20)
#    0.000    0.533    6.667    2.800    1.867    0.533 
#    0.000    0.000    4.400    4.000    0.000    0.000 
#    0.000    0.000    0.000    0.000    0.000    0.000 
#
# Total GULP energy -167032.053907 kJ/mol
# GULP energy per Si atom -5567.735130 kJ/mol
# Density = 2.130964 g / cm^3
# Si number density = 21.358248 Si / 1000 Ang^3
#
#
#
# Elastic Constant Matrix: (Units=GPa)
#
#
# Indices 1 2 3 4 5 6 
#
# 1 53.2326 25.7411 34.0113 0.0000 -3.1834 0.0000
# 2 25.7411 53.9437 46.8676 0.0000 4.7721 0.0000
# 3 34.0113 46.8676 146.5200 0.0000 -21.6146 0.0000
# 4 0.0000 0.0000 0.0000 18.7364 0.0000 -2.6437
# 5 -3.1834 4.7721 -21.6146 0.0000 33.2215 0.0000
# 6 0.0000 0.0000 0.0000 -2.6437 0.0000 14.2468
#
#
#
# Elastic Compliance Matrix: (Units=1/GPa)
#
#
# Indices 1 2 3 4 5 6 
#
# 1 0.025376 -0.010435 -0.002182 0.000000 0.002511 0.000000
# 2 -0.010435 0.033357 -0.010068 0.000000 -0.012342 0.000000
# 3 -0.002182 -0.010068 0.011874 0.000000 0.008963 0.000000
# 4 0.000000 0.000000 0.000000 0.054807 0.000000 0.010170
# 5 0.002511 -0.012342 0.008963 0.000000 0.037946 0.000000
# 6 0.000000 0.000000 0.000000 0.010170 0.000000 0.072078
#
#
# Mechanical properties :
#
#
# Convention : Reuss Voigt Hill
#
# Bulk Modulus (GPa) = 39.62642 51.88179 45.75411
# Shear Modulus (GPa) = 17.28780 23.04604 20.16692
#
# Velocity S-wave (km/s) = 2.84812 3.28841 3.07615
# Velocity P-wave (km/s) = 5.42302 6.22593 5.83829
#
# Compressibility (1/GPa) = 0.02523569
#
# Stress axis : x y z
#
# Youngs Moduli (GPa) = 39.40751 29.97892 84.21573
#
# Poissons Ratio (x) = 0.31284 0.18377
# Poissons Ratio (y) = 0.41123 0.84791
# Poissons Ratio (z) = 0.08599 0.30184
#
# Static dielectric constant tensor:
#      x y z
#    x 1.886340 0.000000 -0.009300 
#    y 0.000000 1.868110 0.000000 
#    z -0.009300 0.000000 1.791340 
# 
# From -- ./inp_files/167589.got.cif
#   From: 2010.05.17/outbox.cif.g08.bks.cpg/sg15_84_cif.got.tgz:167589.got - 2010.06.03 18:47:42.
