data_PCOD9302050
_publ_section_title
;
Structure prediction by ZEFSAII (Michael W. Deem and Ramdas Pophale) SiO2 
 PCOD9302050
Probable space group: C 2/C
;
_chemical_formula_sum "Si O2"
_cell_formula_units_Z 48
_cell_length_a 12.605313
_cell_length_b 18.307524
_cell_length_c 11.048314
_cell_angle_alpha 90.000000
_cell_angle_beta 111.643424
_cell_angle_gamma 90.000000
_cell_volume 2369.885426
_symmetry_space_group_name_H-M "C 2/C"
_symmetry_group_IT_number 15
_symmetry_cell_setting 'monoclinic'
loop_
_space_group_symop_operation_xyz
x,y,z
-x,y,1/2-z
-x,-y,-z
x,-y,1/2+z
1/2+x,1/2+y,z
1/2-x,1/2+y,1/2-z
1/2-x,1/2-y,-z
1/2+x,1/2-y,1/2+z
loop_
_atom_site_type_symbol
_atom_site_label
_atom_site_fract_x
_atom_site_fract_y
_atom_site_fract_z
Si Si1 0.500000 0.906815 0.250000
Si Si2 0.242959 0.890341 0.818875
Si Si3 0.914724 0.288406 0.024193
Si Si4 0.217050 0.359690 0.929762
Si Si5 0.574351 0.718046 0.891324
Si Si6 0.000000 0.831451 0.750000
Si Si7 0.376244 0.969605 0.410304
O O1 0.453682 0.855903 0.123252
O O2 0.398311 0.948455 0.278320
O O3 0.293466 0.895870 0.704812
O O4 0.107499 0.878868 0.751417
O O5 0.284258 0.966451 0.893316
O O6 0.300119 0.820862 0.913397
O O7 0.938388 0.220576 0.124864
O O8 0.993908 0.262838 0.947644
O O9 0.161700 0.280204 0.884436
O O10 0.348918 0.344106 0.016648
O O11 0.158829 0.402772 0.016261
O O12 0.500000 0.688969 0.750000
O O13 0.500000 0.000000 0.500000
#
# Coordination Sequence:
#
# PCOD9302050 Si02
#       7
#     4   8   8   8   8   4   8
#     4  11  22  40  66  98 132 167 220 276 321 394
#     4  12  24  44  69  94 136 180 219 276 334 399
#     4  11  22  41  68  97 129 172 220 280 327 392
#     4  11  24  41  67 101 134 170 219 277 325 392
#     4  11  21  41  69 101 133 166 220 273 336 387
#     4  11  26  46  64  96 136 175 228 272 341 396
#     4  12  24  43  67  98 133 176 224 268 331 391
#
# _framework density 20.254142999999999
#
# number of rings (size 3 to 8) (size 9 to 14) (size 15 to 20)
#    0.000    0.667    6.667    1.500    0.000    0.000 
#    4.500    0.833    0.000    0.000    0.000    0.000 
#    0.000    0.000    0.000    0.000    0.000    0.000 
#
# Total GULP energy -133674.507914 kJ/mol
# GULP energy per Si atom -5569.771163 kJ/mol
# Density = 2.020804 g / cm^3
# Si number density = 20.254143 Si / 1000 Ang^3
#
#
#
# Elastic Constant Matrix: (Units=GPa)
#
#
# Indices 1 2 3 4 5 6 
#
# 1 88.4205 20.2162 30.6262 0.0000 13.4122 0.0000
# 2 20.2162 55.1140 11.8024 0.0000 9.9398 0.0000
# 3 30.6262 11.8024 95.3084 0.0000 4.4484 0.0000
# 4 0.0000 0.0000 0.0000 12.2753 0.0000 -6.5770
# 5 13.4122 9.9398 4.4484 0.0000 28.6378 0.0000
# 6 0.0000 0.0000 0.0000 -6.5770 0.0000 19.1468
#
#
#
# Elastic Compliance Matrix: (Units=1/GPa)
#
#
# Indices 1 2 3 4 5 6 
#
# 1 0.014194 -0.003500 -0.003902 0.000000 -0.004826 0.000000
# 2 -0.003500 0.020645 -0.001182 0.000000 -0.005343 0.000000
# 3 -0.003902 -0.001182 0.011874 0.000000 0.000394 0.000000
# 4 0.000000 0.000000 0.000000 0.099839 0.000000 0.034295
# 5 -0.004826 -0.005343 0.000394 0.000000 0.038972 0.000000
# 6 0.000000 0.000000 0.000000 0.034295 0.000000 0.064009
#
#
# Mechanical properties :
#
#
# Convention : Reuss Voigt Hill
#
# Bulk Modulus (GPa) = 33.84903 40.45917 37.15410
# Shear Modulus (GPa) = 18.07988 23.75851 20.91919
#
# Velocity S-wave (km/s) = 2.99097 3.42865 3.21726
# Velocity P-wave (km/s) = 5.35502 5.97439 5.67317
#
# Compressibility (1/GPa) = 0.02954294
#
# Stress axis : x y z
#
# Youngs Moduli (GPa) = 70.45433 48.43819 84.21582
#
# Poissons Ratio (x) = 0.16954 0.32863
# Poissons Ratio (y) = 0.24661 0.09958
# Poissons Ratio (z) = 0.27493 0.05727
#
# Static dielectric constant tensor:
#      x y z
#    x 1.740290 0.000000 -0.006300 
#    y 0.000000 1.732130 0.000000 
#    z -0.006300 0.000000 1.755280 
# 
# From -- ./inp_files/87917.got.cif
#   From: 2010.05.17/outbox.cif.g08.bks.cpg/sg15_44_cif.got.tgz:87917.got - 2010.06.03 18:47:42.
