data_PCOD9302387
_publ_section_title
;
Structure prediction by ZEFSAII (Michael W. Deem and Ramdas Pophale) SiO2 
 PCOD9302387
Probable space group: C 2/C
;
_chemical_formula_sum "Si O2"
_cell_formula_units_Z 48
_cell_length_a 9.326195
_cell_length_b 16.562776
_cell_length_c 16.884391
_cell_angle_alpha 90.000000
_cell_angle_beta 58.682591
_cell_angle_gamma 90.000000
_cell_volume 2228.096026
_symmetry_space_group_name_H-M "C 2/C"
_symmetry_group_IT_number 15
_symmetry_cell_setting 'monoclinic'
loop_
_space_group_symop_operation_xyz
x,y,z
-x,y,1/2-z
-x,-y,-z
x,-y,1/2+z
1/2+x,1/2+y,z
1/2-x,1/2+y,1/2-z
1/2-x,1/2-y,-z
1/2+x,1/2-y,1/2+z
loop_
_atom_site_type_symbol
_atom_site_label
_atom_site_fract_x
_atom_site_fract_y
_atom_site_fract_z
Si Si1 0.386709 0.524403 0.107025
Si Si2 0.705481 0.872095 0.118699
Si Si3 0.925902 0.715303 0.081543
Si Si4 0.568325 0.225510 0.862662
Si Si5 0.155601 0.322815 0.658041
Si Si6 0.647028 0.381601 0.603968
O O1 0.255242 0.451851 0.152050
O O2 0.293328 0.607474 0.110933
O O3 0.516817 0.544242 0.140845
O O4 0.500000 0.500000 0.000000
O O5 0.812066 0.795781 0.120900
O O6 0.510196 0.848922 0.162280
O O7 0.772527 0.881473 0.007870
O O8 0.800161 0.637510 0.119078
O O9 0.075692 0.708524 0.100229
O O10 0.006427 0.717892 0.971107
O O11 0.761057 0.250480 0.814991
O O12 0.469733 0.302631 0.856410
O O13 0.000000 0.358665 0.750000
#
# Coordination Sequence:
#
# PCOD9302387 Si02
#       6
#     8   8   8   8   8   8
#     4   9  17  33  53  74 102 136 168 207 260 319
#     4   8  14  29  54  77  95 126 173 215 251 301
#     4   9  16  31  54  76  97 132 177 215 251 305
#     4   8  15  30  51  73  99 133 173 210 249 311
#     4  11  22  34  48  75 111 139 171 221 269 308
#     4   7  13  27  50  77 101 126 167 210 250 306
#
# _framework density 21.543057000000001
#
# number of rings (size 3 to 8) (size 9 to 14) (size 15 to 20)
#    0.000    3.333    0.000    3.500    0.000    0.000 
#    0.000   18.333    0.000    0.000    0.000    0.000 
#    0.000    0.000    0.000    0.000    0.000    0.000 
#
# Total GULP energy -133695.221045 kJ/mol
# GULP energy per Si atom -5570.634210 kJ/mol
# Density = 2.149402 g / cm^3
# Si number density = 21.543057 Si / 1000 Ang^3
#
#
#
# Elastic Constant Matrix: (Units=GPa)
#
#
# Indices 1 2 3 4 5 6 
#
# 1 139.9705 57.0449 25.0990 0.0000 -11.6756 0.0000
# 2 57.0449 91.3198 6.3718 0.0000 -2.9940 0.0000
# 3 25.0990 6.3718 37.2123 0.0000 4.5478 0.0000
# 4 0.0000 0.0000 0.0000 13.3399 0.0000 -12.9020
# 5 -11.6756 -2.9940 4.5478 0.0000 23.4728 0.0000
# 6 0.0000 0.0000 0.0000 -12.9020 0.0000 45.7825
#
#
#
# Elastic Compliance Matrix: (Units=1/GPa)
#
#
# Indices 1 2 3 4 5 6 
#
# 1 0.011723 -0.006583 -0.007569 0.000000 0.006458 0.000000
# 2 -0.006583 0.014857 0.002115 0.000000 -0.001789 0.000000
# 3 -0.007569 0.002115 0.032820 0.000000 -0.009854 0.000000
# 4 0.000000 0.000000 0.000000 0.103050 0.000000 0.029041
# 5 0.006458 -0.001789 -0.009854 0.000000 0.047496 0.000000
# 6 0.000000 0.000000 0.000000 0.029041 0.000000 0.030026
#
#
# Mechanical properties :
#
#
# Convention : Reuss Voigt Hill
#
# Bulk Modulus (GPa) = 28.30816 49.50376 38.90596
# Shear Modulus (GPa) = 18.12759 28.51819 23.32289
#
# Velocity S-wave (km/s) = 2.90394 3.64232 3.29388
# Velocity P-wave (km/s) = 4.94091 6.38103 5.70658
#
# Compressibility (1/GPa) = 0.03532550
#
# Stress axis : x y z
#
# Youngs Moduli (GPa) = 85.29939 67.30955 30.46902
#
# Poissons Ratio (x) = 0.44313 0.23063
# Poissons Ratio (y) = 0.56156 -0.06445
# Poissons Ratio (z) = 0.64565 -0.14237
#
# Static dielectric constant tensor:
#      x y z
#    x 1.902300 0.000000 -0.114380 
#    y 0.000000 1.853250 0.000000 
#    z -0.114380 0.000000 1.950680 
# 
# From -- ./inp_files/190238.got.cif
#   From: 2010.05.17/outbox.cif.g08.bks.cpg/sg15_96_cif.got.tgz:190238.got - 2010.06.03 18:47:42.
