data_PCOD9302821
_publ_section_title
;
Structure prediction by ZEFSAII (Michael W. Deem and Ramdas Pophale) SiO2 
 PCOD9302821
Probable space group: C 2/C
;
_chemical_formula_sum "Si O2"
_cell_formula_units_Z 48
_cell_length_a 6.454582
_cell_length_b 24.954472
_cell_length_c 17.039089
_cell_angle_alpha 90.000000
_cell_angle_beta 132.937875
_cell_angle_gamma 90.000000
_cell_volume 2009.226913
_symmetry_space_group_name_H-M "C 2/C"
_symmetry_group_IT_number 15
_symmetry_cell_setting 'monoclinic'
loop_
_space_group_symop_operation_xyz
x,y,z
-x,y,1/2-z
-x,-y,-z
x,-y,1/2+z
1/2+x,1/2+y,z
1/2-x,1/2+y,1/2-z
1/2-x,1/2-y,-z
1/2+x,1/2-y,1/2+z
loop_
_atom_site_type_symbol
_atom_site_label
_atom_site_fract_x
_atom_site_fract_y
_atom_site_fract_z
Si Si1 0.916690 0.868036 0.140878
Si Si2 0.000000 0.245020 0.250000
Si Si3 0.182218 0.265135 0.129838
Si Si4 0.500000 0.108527 0.750000
Si Si5 0.477299 0.069478 0.447784
Si Si6 0.786627 0.467027 0.054048
Si Si7 0.472700 0.170177 0.151778
O O1 0.222397 0.854552 0.185347
O O2 0.000000 0.882228 0.250000
O O3 0.691059 0.819525 0.081736
O O4 0.781384 0.919469 0.066896
O O5 0.015969 0.267132 0.345047
O O6 0.723544 0.208262 0.187502
O O7 0.500000 0.268225 0.250000
O O8 0.195620 0.209861 0.083895
O O9 0.586448 0.070662 0.845368
O O10 0.262520 0.066781 0.466086
O O11 0.484191 0.117282 0.387716
O O12 0.484519 0.013047 0.406525
O O13 0.500000 0.500000 0.000000
O O14 0.500000 0.154297 0.250000
#
# Coordination Sequence:
#
# PCOD9302821 Si02
#       7
#     8   4   8   4   8   8   8
#     4  11  22  40  65  97 125 171 211 266 332 399
#     4   8  16  39  58  90 136 172 218 259 320 384
#     4   8  18  35  62  92 131 167 216 266 314 393
#     4  12  24  45  70  94 126 176 218 271 350 382
#     4  11  24  43  64  96 134 164 221 276 331 394
#     4  11  25  45  67  95 133 170 223 284 326 404
#     4   9  20  39  63  96 131 176 215 269 326 388
#
# _framework density 23.889783999999999
#
# number of rings (size 3 to 8) (size 9 to 14) (size 15 to 20)
#    0.000    2.333    3.333    0.000    1.167    9.333 
#    0.000    0.833    0.000    0.000    0.000    0.000 
#    0.000    0.000    0.000    0.000    0.000    0.000 
#
# Total GULP energy -133668.029193 kJ/mol
# GULP energy per Si atom -5569.501216 kJ/mol
# Density = 2.383541 g / cm^3
# Si number density = 23.889784 Si / 1000 Ang^3
#
#
#
# Elastic Constant Matrix: (Units=GPa)
#
#
# Indices 1 2 3 4 5 6 
#
# 1 185.1418 61.5185 42.4596 0.0000 -32.6298 0.0000
# 2 61.5185 121.6448 32.0641 0.0000 -34.5683 0.0000
# 3 42.4596 32.0641 46.0301 0.0002 -21.6012 0.0000
# 4 0.0000 0.0000 0.0002 17.2021 0.0001 -23.8602
# 5 -32.6298 -34.5683 -21.6012 0.0001 34.2282 0.0000
# 6 0.0000 0.0000 0.0000 -23.8602 0.0000 56.1081
#
#
#
# Elastic Compliance Matrix: (Units=1/GPa)
#
#
# Indices 1 2 3 4 5 6 
#
# 1 0.007481 -0.001940 -0.004436 0.000000 0.002373 0.000000
# 2 -0.001940 0.012480 -0.002639 0.000000 0.009090 0.000000
# 3 -0.004436 -0.002639 0.034695 -0.000001 0.015002 0.000000
# 4 0.000000 0.000000 -0.000001 0.141735 -0.000001 0.060273
# 5 0.002373 0.009090 0.015002 -0.000001 0.050126 0.000000
# 6 0.000000 0.000000 0.000000 0.060273 0.000000 0.043454
#
#
# Mechanical properties :
#
#
# Convention : Reuss Voigt Hill
#
# Bulk Modulus (GPa) = 27.30142 69.43344 48.36743
# Shear Modulus (GPa) = 15.61472 35.95931 25.78702
#
# Velocity S-wave (km/s) = 2.55936 3.88392 3.28901
# Velocity P-wave (km/s) = 4.49296 7.01714 5.89181
#
# Compressibility (1/GPa) = 0.03662813
#
# Stress axis : x y z
#
# Youngs Moduli (GPa) = 133.66368 80.12670 28.82237
#
# Poissons Ratio (x) = 0.15543 0.12786
# Poissons Ratio (y) = 0.25928 0.07605
# Poissons Ratio (z) = 0.59294 0.21142
#
# Static dielectric constant tensor:
#      x y z
#    x 2.068280 0.000000 -0.044930 
#    y 0.000000 2.006010 0.000000 
#    z -0.044930 0.000000 1.979640 
# 
# From -- ./inp_files/186003.got.cif
#   From: 2010.05.17/outbox.cif.g08.bks.cpg/sg15_94_cif.got.tgz:186003.got - 2010.06.03 18:47:42.
