data_PCOD9302929
_publ_section_title
;
Structure prediction by ZEFSAII (Michael W. Deem and Ramdas Pophale) SiO2 
 PCOD9302929
Probable space group: C 2/C
;
_chemical_formula_sum "Si O2"
_cell_formula_units_Z 32
_cell_length_a 9.863683
_cell_length_b 16.057021
_cell_length_c 9.717373
_cell_angle_alpha 90.000000
_cell_angle_beta 75.126736
_cell_angle_gamma 90.000000
_cell_volume 1487.486381
_symmetry_space_group_name_H-M "C 2/C"
_symmetry_group_IT_number 15
_symmetry_cell_setting 'monoclinic'
loop_
_space_group_symop_operation_xyz
x,y,z
-x,y,1/2-z
-x,-y,-z
x,-y,1/2+z
1/2+x,1/2+y,z
1/2-x,1/2+y,1/2-z
1/2-x,1/2-y,-z
1/2+x,1/2-y,1/2+z
loop_
_atom_site_type_symbol
_atom_site_label
_atom_site_fract_x
_atom_site_fract_y
_atom_site_fract_z
Si Si1 0.500000 0.637554 0.250000
Si Si2 0.572994 0.937970 0.083891
Si Si3 0.865671 0.002122 0.933746
Si Si4 0.588981 0.751865 0.991463
Si Si5 0.000000 0.151922 0.750000
O O1 0.622502 0.572269 0.182082
O O2 0.506181 0.697100 0.379661
O O3 0.500000 0.934720 0.250000
O O4 0.730202 0.974939 0.054088
O O5 0.555637 0.848148 0.017647
O O6 0.500000 0.000000 0.000000
O O7 0.884646 0.089723 0.849747
O O8 0.000000 0.000000 0.000000
O O9 0.568633 0.709771 0.848869
O O10 0.750000 0.750000 0.000000
#
# Coordination Sequence:
#
# PCOD9302929 Si02
#       5
#     4   8   8   8   4
#     4  11  22  40  75 102 136 196 241 298 356 441
#     4  12  30  46  72 109 154 189 234 319 386 424
#     4  11  24  47  79 106 145 195 256 297 369 452
#     4  12  25  48  72 105 152 193 249 303 370 442
#     4  11  26  44  81 114 134 206 257 296 358 459
#
# _framework density 21.512803000000002
#
# number of rings (size 3 to 8) (size 9 to 14) (size 15 to 20)
#    0.000    0.500    6.250    0.000   12.250    0.000 
#    0.000    2.500    0.000    0.000    0.000    0.000 
#    0.000    0.000    0.000    0.000    0.000    0.000 
#
# Total GULP energy -89370.553548 kJ/mol
# GULP energy per Si atom -5585.659597 kJ/mol
# Density = 2.146384 g / cm^3
# Si number density = 21.512803 Si / 1000 Ang^3
#
#
#
# Elastic Constant Matrix: (Units=GPa)
#
#
# Indices 1 2 3 4 5 6 
#
# 1 99.6000 66.9488 62.9001 0.0000 0.3188 0.0000
# 2 66.9488 227.4072 105.1057 0.0000 15.3745 0.0000
# 3 62.9001 105.1057 153.6253 0.0000 9.0102 0.0000
# 4 0.0000 0.0000 0.0000 49.3882 0.0000 7.5431
# 5 0.3188 15.3745 9.0102 0.0000 42.5964 0.0000
# 6 0.0000 0.0000 0.0000 7.5431 0.0000 20.8704
#
#
#
# Elastic Compliance Matrix: (Units=1/GPa)
#
#
# Indices 1 2 3 4 5 6 
#
# 1 0.014364 -0.002307 -0.004400 0.000000 0.001656 0.000000
# 2 -0.002307 0.006886 -0.003667 0.000000 -0.001692 0.000000
# 3 -0.004400 -0.003667 0.010875 0.000000 -0.000944 0.000000
# 4 0.000000 0.000000 0.000000 0.021431 0.000000 -0.007746
# 5 0.001656 -0.001692 -0.000944 0.000000 0.024274 0.000000
# 6 0.000000 0.000000 0.000000 -0.007746 0.000000 0.050714
#
#
# Mechanical properties :
#
#
# Convention : Reuss Voigt Hill
#
# Bulk Modulus (GPa) = 87.89814 105.61572 96.75693
# Shear Modulus (GPa) = 32.66132 38.94951 35.80541
#
# Velocity S-wave (km/s) = 3.90067 4.25964 4.08410
# Velocity P-wave (km/s) = 7.82523 8.56701 8.20451
#
# Compressibility (1/GPa) = 0.01137680
#
# Stress axis : x y z
#
# Youngs Moduli (GPa) = 69.61657 145.22071 91.95191
#
# Poissons Ratio (x) = 0.33506 0.40458
# Poissons Ratio (y) = 0.16062 0.33722
# Poissons Ratio (z) = 0.30631 0.53257
#
# Static dielectric constant tensor:
#      x y z
#    x 1.608450 0.000000 0.019240 
#    y 0.000000 1.855460 0.000000 
#    z 0.019240 0.000000 1.785980 
# 
# From -- ./inp_files/27927.got.cif
#   From: 2010.05.17/outbox.cif.g08.bks.cpg/sg15_14_cif.got.tgz:27927.got - 2010.06.03 18:47:42.
