data_PCOD9302938
_publ_section_title
;
Structure prediction by ZEFSAII (Michael W. Deem and Ramdas Pophale) SiO2 
 PCOD9302938
Probable space group: C 2/C
;
_chemical_formula_sum "Si O2"
_cell_formula_units_Z 64
_cell_length_a 12.656945
_cell_length_b 13.148846
_cell_length_c 18.799585
_cell_angle_alpha 90.000000
_cell_angle_beta 105.271610
_cell_angle_gamma 90.000000
_cell_volume 3018.225559
_symmetry_space_group_name_H-M "C 2/C"
_symmetry_group_IT_number 15
_symmetry_cell_setting 'monoclinic'
loop_
_space_group_symop_operation_xyz
x,y,z
-x,y,1/2-z
-x,-y,-z
x,-y,1/2+z
1/2+x,1/2+y,z
1/2-x,1/2+y,1/2-z
1/2-x,1/2-y,-z
1/2+x,1/2-y,1/2+z
loop_
_atom_site_type_symbol
_atom_site_label
_atom_site_fract_x
_atom_site_fract_y
_atom_site_fract_z
Si Si1 0.501293 0.533956 0.083268
Si Si2 0.597071 0.046507 0.217609
Si Si3 0.273891 0.653036 0.339007
Si Si4 0.815913 0.353366 0.526425
Si Si5 0.054110 0.159643 0.682766
Si Si6 0.057202 0.652856 0.074796
Si Si7 0.265640 0.459967 0.576465
Si Si8 0.228372 0.384718 0.201387
O O1 0.611202 0.597005 0.122628
O O2 0.498135 0.433464 0.132214
O O3 0.385451 0.585977 0.082519
O O4 0.500000 0.500000 0.000000
O O5 0.500000 0.079386 0.250000
O O6 0.627352 0.928917 0.227313
O O7 0.706812 0.109229 0.259223
O O8 0.554079 0.061570 0.130630
O O9 0.190644 0.637109 0.389806
O O10 0.290664 0.773857 0.334297
O O11 0.750000 0.250000 0.500000
O O12 0.758683 0.452813 0.485535
O O13 0.938946 0.344958 0.517163
O O14 0.826193 0.125271 0.773846
O O15 0.000000 0.184785 0.750000
O O16 0.060621 0.249773 0.627068
O O17 0.170137 0.625426 0.055805
O O18 0.258976 0.528763 0.647921
#
# Coordination Sequence:
#
# PCOD9302938 Si02
#       8
#     8   8   8   8   8   8   8   8
#     4  12  26  44  69 100 141 186 232 281 349 430
#     4  11  22  41  62  95 131 166 217 283 346 399
#     4  12  23  41  66  97 130 174 227 278 342 401
#     4  12  22  40  69  96 129 176 231 277 332 419
#     4  12  22  41  70  99 130 173 238 286 340 413
#     4  11  24  39  69 100 130 169 227 291 349 397
#     4  11  24  44  64  98 137 175 226 282 342 411
#     4  11  23  40  63  97 127 171 226 282 337 401
#
# _framework density 21.204511
#
# number of rings (size 3 to 8) (size 9 to 14) (size 15 to 20)
#    0.000    0.500    7.500    2.250    0.000    0.000 
#    2.250    0.625    0.000    0.000    0.000    0.000 
#    0.000    0.000    0.000    0.000    0.000    0.000 
#
# Total GULP energy -178507.793953 kJ/mol
# GULP energy per Si atom -5578.368561 kJ/mol
# Density = 2.115625 g / cm^3
# Si number density = 21.204511 Si / 1000 Ang^3
#
#
#
# Elastic Constant Matrix: (Units=GPa)
#
#
# Indices 1 2 3 4 5 6 
#
# 1 153.9515 41.2287 11.3489 0.0000 19.5309 0.0000
# 2 41.2287 51.2835 10.4993 0.0000 1.0866 0.0000
# 3 11.3489 10.4993 51.0502 0.0000 10.0455 0.0000
# 4 0.0000 0.0000 0.0000 26.4165 0.0000 1.4007
# 5 19.5309 1.0866 10.0455 0.0000 30.3323 0.0000
# 6 0.0000 0.0000 0.0000 1.4007 0.0000 22.3927
#
#
#
# Elastic Compliance Matrix: (Units=1/GPa)
#
#
# Indices 1 2 3 4 5 6 
#
# 1 0.009165 -0.007373 0.000629 0.000000 -0.005846 0.000000
# 2 -0.007373 0.026302 -0.004834 0.000000 0.005406 0.000000
# 3 0.000629 -0.004834 0.021917 0.000000 -0.007490 0.000000
# 4 0.000000 0.000000 0.000000 0.037981 0.000000 -0.002376
# 5 -0.005846 0.005406 -0.007490 0.000000 0.039019 0.000000
# 6 0.000000 0.000000 0.000000 -0.002376 0.000000 0.044806
#
#
# Mechanical properties :
#
#
# Convention : Reuss Voigt Hill
#
# Bulk Modulus (GPa) = 29.21591 42.49322 35.85456
# Shear Modulus (GPa) = 23.39105 28.70886 26.04995
#
# Velocity S-wave (km/s) = 3.32492 3.68353 3.50881
# Velocity P-wave (km/s) = 5.34305 6.17855 5.77593
#
# Compressibility (1/GPa) = 0.03422793
#
# Stress axis : x y z
#
# Youngs Moduli (GPa) = 109.10589 38.01945 45.62693
#
# Poissons Ratio (x) = 0.28033 -0.02871
# Poissons Ratio (y) = 0.80448 0.22057
# Poissons Ratio (z) = -0.06865 0.18379
#
# Static dielectric constant tensor:
#      x y z
#    x 1.876580 0.000000 -0.037870 
#    y 0.000000 1.785290 0.000000 
#    z -0.037870 0.000000 1.825130 
# 
# From -- ./inp_files/268902.got.cif
#   From: 2010.05.17/outbox.cif.g08.bks.cpg/sg15_135_cif.got.tgz:268902.got - 2010.06.03 18:47:42.
