data_PCOD9302869
_publ_section_title
;
Structure prediction by ZEFSAII (Michael W. Deem and Ramdas Pophale) SiO2 
 PCOD9302869
Probable space group: C 2/C
;
_chemical_formula_sum "Si O2"
_cell_formula_units_Z 40
_cell_length_a 23.982659
_cell_length_b 5.359925
_cell_length_c 14.365744
_cell_angle_alpha 90.000000
_cell_angle_beta 65.636939
_cell_angle_gamma 90.000000
_cell_volume 1682.203818
_symmetry_space_group_name_H-M "C 2/C"
_symmetry_group_IT_number 15
_symmetry_cell_setting 'monoclinic'
loop_
_space_group_symop_operation_xyz
x,y,z
-x,y,1/2-z
-x,-y,-z
x,-y,1/2+z
1/2+x,1/2+y,z
1/2-x,1/2+y,1/2-z
1/2-x,1/2-y,-z
1/2+x,1/2-y,1/2+z
loop_
_atom_site_type_symbol
_atom_site_label
_atom_site_fract_x
_atom_site_fract_y
_atom_site_fract_z
Si Si1 0.009822 0.591384 0.389054
Si Si2 0.604496 0.602585 0.921229
Si Si3 0.436516 0.458282 0.348667
Si Si4 0.712370 0.898143 0.769385
Si Si5 0.878969 0.267701 0.241841
O O1 0.050194 0.834230 0.386419
O O2 0.056720 0.412449 0.305473
O O3 0.000000 0.500000 0.500000
O O4 0.950078 0.674213 0.374000
O O5 0.628904 0.350786 0.856242
O O6 0.658128 0.805760 0.875788
O O7 0.577513 0.586091 0.042587
O O8 0.500000 0.509285 0.250000
O O9 0.383638 0.553368 0.316207
O O10 0.746145 0.633136 0.724881
O O11 0.675006 0.030368 0.710690
#
# Coordination Sequence:
#
# PCOD9302869 Si02
#       5
#     8   8   8   8   8
#     4  11  22  40  67  99 155 203 242 290 365 441
#     4  11  23  45  69 106 146 193 250 299 370 449
#     4  12  24  42  69 111 156 196 237 292 366 450
#     4  11  24  49  81 100 138 199 253 326 384 419
#     4  11  24  45  69 107 145 195 259 297 369 451
#
# _framework density 23.778333
#
# number of rings (size 3 to 8) (size 9 to 14) (size 15 to 20)
#    0.000    0.800    6.000    1.800    0.000    2.400 
#    0.000    2.000    0.000    0.000    0.000    0.000 
#    0.000    0.000    0.000    0.000    0.000    0.000 
#
# Total GULP energy -111435.167666 kJ/mol
# GULP energy per Si atom -5571.758383 kJ/mol
# Density = 2.372421 g / cm^3
# Si number density = 23.778333 Si / 1000 Ang^3
#
#
#
# Elastic Constant Matrix: (Units=GPa)
#
#
# Indices 1 2 3 4 5 6 
#
# 1 89.6989 65.0704 54.7389 0.0000 2.3448 0.0000
# 2 65.0704 141.3598 53.3814 0.0001 0.5397 0.0002
# 3 54.7389 53.3814 110.5199 0.0000 20.6010 0.0000
# 4 0.0000 0.0001 0.0000 38.6750 0.0000 2.9530
# 5 2.3448 0.5397 20.6010 0.0000 30.1545 0.0000
# 6 0.0000 0.0002 0.0000 2.9530 0.0000 67.5053
#
#
#
# Elastic Compliance Matrix: (Units=1/GPa)
#
#
# Indices 1 2 3 4 5 6 
#
# 1 0.020490 -0.006541 -0.007693 0.000000 0.003780 0.000000
# 2 -0.006541 0.011000 -0.002442 0.000000 0.001980 0.000000
# 3 -0.007693 -0.002442 0.015950 0.000000 -0.010255 0.000000
# 4 0.000000 0.000000 0.000000 0.025943 0.000000 -0.001135
# 5 0.003780 0.001980 -0.010255 0.000000 0.039839 0.000000
# 6 0.000000 0.000000 0.000000 -0.001135 0.000000 0.014863
#
#
# Mechanical properties :
#
#
# Convention : Reuss Voigt Hill
#
# Bulk Modulus (GPa) = 70.99504 76.44001 73.71753
# Shear Modulus (GPa) = 30.09629 38.49282 34.29455
#
# Velocity S-wave (km/s) = 3.56153 4.02782 3.80183
# Velocity P-wave (km/s) = 6.84357 7.33811 7.09515
#
# Compressibility (1/GPa) = 0.01408549
#
# Stress axis : x y z
#
# Youngs Moduli (GPa) = 48.80545 90.91075 62.69661
#
# Poissons Ratio (x) = 0.59463 0.48236
# Poissons Ratio (y) = 0.31923 0.15314
# Poissons Ratio (z) = 0.37548 0.22205
#
# Static dielectric constant tensor:
#      x y z
#    x 2.031300 0.000000 -0.049640 
#    y 0.000000 2.119750 0.000000 
#    z -0.049640 0.000000 1.912560 
# 
# From -- ./inp_files/179586.got.cif
#   From: 2010.05.17/outbox.cif.g08.bks.cpg/sg15_90_cif.got.tgz:179586.got - 2010.06.03 18:47:42.
