data_PCOD9302514
_publ_section_title
;
Structure prediction by ZEFSAII (Michael W. Deem and Ramdas Pophale) SiO2 
 PCOD9302514
Probable space group: C 2/C
;
_chemical_formula_sum "Si O2"
_cell_formula_units_Z 48
_cell_length_a 20.759584
_cell_length_b 9.347880
_cell_length_c 12.511400
_cell_angle_alpha 90.000000
_cell_angle_beta 84.101787
_cell_angle_gamma 90.000000
_cell_volume 2415.085062
_symmetry_space_group_name_H-M "C 2/C"
_symmetry_group_IT_number 15
_symmetry_cell_setting 'monoclinic'
loop_
_space_group_symop_operation_xyz
x,y,z
-x,y,1/2-z
-x,-y,-z
x,-y,1/2+z
1/2+x,1/2+y,z
1/2-x,1/2+y,1/2-z
1/2-x,1/2-y,-z
1/2+x,1/2-y,1/2+z
loop_
_atom_site_type_symbol
_atom_site_label
_atom_site_fract_x
_atom_site_fract_y
_atom_site_fract_z
Si Si1 0.369837 0.493198 0.946355
Si Si2 0.860311 0.476253 0.408462
Si Si3 0.142282 0.734667 0.411832
Si Si4 0.073059 0.748047 0.197175
Si Si5 0.290485 0.277136 0.830095
Si Si6 0.769081 0.150001 0.093906
O O1 0.411975 0.609231 0.874927
O O2 0.316240 0.428029 0.873265
O O3 0.393525 0.352967 0.007552
O O4 0.335150 0.578061 0.047328
O O5 0.868006 0.417854 0.527835
O O6 0.909915 0.601059 0.368958
O O7 0.850187 0.330849 0.342245
O O8 0.790236 0.542042 0.395813
O O9 0.117490 0.744408 0.295853
O O10 0.220562 0.757051 0.396154
O O11 0.000000 0.748351 0.250000
O O12 0.276633 0.280967 0.707412
O O13 0.750000 0.250000 0.000000
#
# Coordination Sequence:
#
# PCOD9302514 Si02
#       6
#     8   8   8   8   8   8
#     4  11  22  41  63  96 123 160 207 259 318 374
#     4  11  23  39  64  96 128 162 199 262 322 374
#     4  11  22  42  66  94 133 157 202 269 320 376
#     4  12  28  44  62  88 127 179 220 251 299 371
#     4  11  22  37  65 102 129 152 195 265 337 371
#     4  12  21  31  62  98 126 152 195 250 321 382
#
# _framework density 19.875076
#
# number of rings (size 3 to 8) (size 9 to 14) (size 15 to 20)
#    0.000    0.667    6.667    2.000    4.667    1.333 
#    0.000    3.333    0.000    0.000    0.000    0.000 
#    0.000    0.000    0.000    0.000    0.000    0.000 
#
# Total GULP energy -133733.206889 kJ/mol
# GULP energy per Si atom -5572.216954 kJ/mol
# Density = 1.982984 g / cm^3
# Si number density = 19.875076 Si / 1000 Ang^3
#
#
#
# Elastic Constant Matrix: (Units=GPa)
#
#
# Indices 1 2 3 4 5 6 
#
# 1 49.8848 20.1352 2.9067 0.0000 -31.7648 0.0000
# 2 20.1352 99.2223 36.9918 0.0000 -23.0019 0.0000
# 3 2.9067 36.9918 99.8191 0.0000 -6.7169 0.0000
# 4 0.0000 0.0000 0.0000 34.8693 0.0000 -4.4961
# 5 -31.7648 -23.0019 -6.7169 0.0000 31.6802 0.0000
# 6 0.0000 0.0000 0.0000 -4.4961 0.0000 10.3275
#
#
#
# Elastic Compliance Matrix: (Units=1/GPa)
#
#
# Indices 1 2 3 4 5 6 
#
# 1 0.056031 0.001306 0.001754 0.000000 0.057501 0.000000
# 2 0.001306 0.013912 -0.004490 0.000000 0.010458 0.000000
# 3 0.001754 -0.004490 0.011697 0.000000 0.000979 0.000000
# 4 0.000000 0.000000 0.000000 0.030384 0.000000 0.013228
# 5 0.057501 0.010458 0.000979 0.000000 0.097021 0.000000
# 6 0.000000 0.000000 0.000000 0.013228 0.000000 0.102587
#
#
# Mechanical properties :
#
#
# Convention : Reuss Voigt Hill
#
# Bulk Modulus (GPa) = 12.69369 40.99927 26.84648
# Shear Modulus (GPa) = 14.67341 27.96825 21.32083
#
# Velocity S-wave (km/s) = 2.72008 3.75534 3.27883
# Velocity P-wave (km/s) = 4.03308 6.28305 5.27932
#
# Compressibility (1/GPa) = 0.07877932
#
# Stress axis : x y z
#
# Youngs Moduli (GPa) = 17.84712 71.88197 85.49370
#
# Poissons Ratio (x) = -0.09385 -0.14994
# Poissons Ratio (y) = -0.02330 0.38385
# Poissons Ratio (z) = -0.03130 0.32274
#
# Static dielectric constant tensor:
#      x y z
#    x 0.217780 0.000000 -0.144550 
#    y 0.000000 9.714690 0.000000 
#    z -0.144550 0.000000 1.699480 
# 
# From -- ./inp_files/116269.got.cif
#   From: 2010.05.17/outbox.cif.g08.bks.cpg/sg15_59_cif.got.tgz:116269.got - 2010.06.03 18:47:42.
