data_PCOD9302682
_publ_section_title
;
Structure prediction by ZEFSAII (Michael W. Deem and Ramdas Pophale) SiO2 
 PCOD9302682
Probable space group: C 2/C
;
_chemical_formula_sum "Si O2"
_cell_formula_units_Z 56
_cell_length_a 24.988569
_cell_length_b 13.156971
_cell_length_c 8.522922
_cell_angle_alpha 90.000000
_cell_angle_beta 62.689394
_cell_angle_gamma 90.000000
_cell_volume 2489.768947
_symmetry_space_group_name_H-M "C 2/C"
_symmetry_group_IT_number 15
_symmetry_cell_setting 'monoclinic'
loop_
_space_group_symop_operation_xyz
x,y,z
-x,y,1/2-z
-x,-y,-z
x,-y,1/2+z
1/2+x,1/2+y,z
1/2-x,1/2+y,1/2-z
1/2-x,1/2-y,-z
1/2+x,1/2-y,1/2+z
loop_
_atom_site_type_symbol
_atom_site_label
_atom_site_fract_x
_atom_site_fract_y
_atom_site_fract_z
Si Si1 0.838003 0.945090 0.199675
Si Si2 0.534756 0.349727 0.555831
Si Si3 0.771082 0.234017 0.649875
Si Si4 0.390315 0.855549 0.565288
Si Si5 0.174561 0.147348 0.452781
Si Si6 0.946384 0.750962 0.441757
Si Si7 0.570472 0.947956 0.649205
O O1 0.799839 0.876991 0.129872
O O2 0.813410 0.908323 0.400259
O O3 0.827079 0.062428 0.180041
O O4 0.909211 0.917161 0.080825
O O5 0.500000 0.397113 0.750000
O O6 0.565294 0.237977 0.540963
O O7 0.477939 0.321587 0.524634
O O8 0.750000 0.250000 0.500000
O O9 0.824191 0.309018 0.636514
O O10 0.716908 0.261523 0.840380
O O11 0.407436 0.896202 0.717388
O O12 0.395456 0.950575 0.442839
O O13 0.108065 0.190901 0.562029
O O14 0.923963 0.635931 0.499155
O O15 0.000000 0.732251 0.250000
O O16 0.500000 0.977391 0.750000
#
# Coordination Sequence:
#
# PCOD9302682 Si02
#       7
#     8   8   8   8   8   8   8
#     4  11  26  47  69 101 132 176 229 280 344 411
#     4  11  24  41  66  96 139 178 226 283 349 407
#     4  11  27  49  70  99 137 180 236 285 343 409
#     4  11  24  41  65  99 139 182 228 281 343 410
#     4  12  26  45  73  98 137 178 226 285 335 410
#     4  11  22  43  65  98 139 180 223 280 347 407
#     4  11  22  39  65 103 141 178 229 280 345 418
#
# _framework density 22.492046999999999
#
# number of rings (size 3 to 8) (size 9 to 14) (size 15 to 20)
#    0.000    0.857    4.286    3.000    8.000    4.571 
#    0.000    0.000    0.000    0.000    0.000    0.000 
#    0.000    0.000    0.000    0.000    0.000    0.000 
#
# Total GULP energy -156396.565633 kJ/mol
# GULP energy per Si atom -5585.591630 kJ/mol
# Density = 2.244085 g / cm^3
# Si number density = 22.492047 Si / 1000 Ang^3
#
#
#
# Elastic Constant Matrix: (Units=GPa)
#
#
# Indices 1 2 3 4 5 6 
#
# 1 91.1693 4.6331 16.6131 0.0000 -6.6715 0.0000
# 2 4.6331 57.8724 -15.3871 0.0000 -11.5141 0.0000
# 3 16.6131 -15.3871 64.1350 0.0000 1.6178 0.0000
# 4 0.0000 0.0000 0.0000 27.9666 0.0000 8.3297
# 5 -6.6715 -11.5141 1.6178 0.0000 19.8194 0.0000
# 6 0.0000 0.0000 0.0000 8.3297 0.0000 14.3992
#
#
#
# Elastic Compliance Matrix: (Units=1/GPa)
#
#
# Indices 1 2 3 4 5 6 
#
# 1 0.011922 -0.001152 -0.003456 0.000000 0.003626 0.000000
# 2 -0.001152 0.020978 0.005044 0.000000 0.011388 0.000000
# 3 -0.003456 0.005044 0.017689 0.000000 0.000323 0.000000
# 4 0.000000 0.000000 0.000000 0.043200 0.000000 -0.024991
# 5 0.003626 0.011388 0.000323 0.000000 0.058266 0.000000
# 6 0.000000 0.000000 0.000000 -0.024991 0.000000 0.083905
#
#
# Mechanical properties :
#
#
# Convention : Reuss Voigt Hill
#
# Bulk Modulus (GPa) = 19.43160 24.98831 22.20996
# Shear Modulus (GPa) = 19.82213 26.25821 23.04017
#
# Velocity S-wave (km/s) = 2.97188 3.42049 3.20405
# Velocity P-wave (km/s) = 4.52042 5.17046 4.85633
#
# Compressibility (1/GPa) = 0.05146256
#
# Stress axis : x y z
#
# Youngs Moduli (GPa) = 83.87658 47.66787 56.53095
#
# Poissons Ratio (x) = 0.05491 0.19538
# Poissons Ratio (y) = 0.09662 -0.28516
# Poissons Ratio (z) = 0.28989 -0.24045
#
# Static dielectric constant tensor:
#      x y z
#    x 0.907350 0.000000 -1.353610 
#    y 0.000000 1.853570 0.000000 
#    z -1.353610 0.000000 -0.067070 
# 
# From -- ./inp_files/61839.got.cif
#   From: 2010.05.17/outbox.cif.g08.bks.cpg/sg15_31_cif.got.tgz:61839.got - 2010.06.03 18:47:42.
