data_PCOD9302061
_publ_section_title
;
Structure prediction by ZEFSAII (Michael W. Deem and Ramdas Pophale) SiO2 
 PCOD9302061
Probable space group: C 2/C
;
_chemical_formula_sum "Si O2"
_cell_formula_units_Z 60
_cell_length_a 24.414022
_cell_length_b 16.466334
_cell_length_c 18.562055
_cell_angle_alpha 90.000000
_cell_angle_beta 21.819126
_cell_angle_gamma 90.000000
_cell_volume 2773.504504
_symmetry_space_group_name_H-M "C 2/C"
_symmetry_group_IT_number 15
_symmetry_cell_setting 'monoclinic'
loop_
_space_group_symop_operation_xyz
x,y,z
-x,y,1/2-z
-x,-y,-z
x,-y,1/2+z
1/2+x,1/2+y,z
1/2-x,1/2+y,1/2-z
1/2-x,1/2-y,-z
1/2+x,1/2-y,1/2+z
loop_
_atom_site_type_symbol
_atom_site_label
_atom_site_fract_x
_atom_site_fract_y
_atom_site_fract_z
Si Si1 0.896019 0.544744 0.309253
Si Si2 0.260949 0.797880 0.137175
Si Si3 0.909744 0.599897 0.688543
Si Si4 0.000000 0.788833 0.250000
Si Si5 0.560682 0.574662 0.094674
Si Si6 0.899459 0.923001 0.257256
Si Si7 0.527572 0.838409 0.907558
Si Si8 0.920400 0.755544 0.770793
O O1 0.948339 0.468372 0.199254
O O2 0.732309 0.534060 0.538202
O O3 0.000000 0.557925 0.250000
O O4 0.899492 0.619879 0.250721
O O5 0.179442 0.881033 0.214387
O O6 0.134606 0.732092 0.302578
O O7 0.365251 0.766026 0.943844
O O8 0.369723 0.807246 0.071717
O O9 0.999550 0.598226 0.505133
O O10 0.943939 0.686140 0.683504
O O11 0.735145 0.590718 0.885399
O O12 0.957936 0.848478 0.235151
O O13 0.500000 0.560620 0.250000
O O14 0.520521 0.493096 0.099792
O O15 0.475963 0.656838 0.174807
O O16 0.000000 0.740679 0.750000
O O17 0.750000 0.750000 0.000000
#
# Coordination Sequence:
#
# PCOD9302061 Si02
#       8
#     8   8   8   4   8   8   8   8
#     4  12  23  44  71 102 135 181 240 294 348 422
#     4  12  25  43  67 105 141 190 228 288 344 430
#     4  12  26  45  69  99 145 182 230 295 360 417
#     4  12  20  38  72 104 136 178 244 292 336 406
#     4  11  22  41  67  99 130 178 237 292 341 408
#     4  12  21  40  72 101 133 176 243 295 342 404
#     4  12  28  44  67 104 152 183 229 285 368 423
#     4  11  21  41  69  99 128 175 241 294 338 407
#
# _framework density 21.633279999999999
#
# number of rings (size 3 to 8) (size 9 to 14) (size 15 to 20)
#    0.000    0.267    8.667    2.000    1.867    0.000 
#    0.000    0.667    0.000    0.000    0.000    0.000 
#    0.000    0.000    0.000    0.000    0.000    0.000 
#
# Total GULP energy -167833.020003 kJ/mol
# GULP energy per Si atom -5594.434000 kJ/mol
# Density = 2.158404 g / cm^3
# Si number density = 21.633280 Si / 1000 Ang^3
#
#
#
# Elastic Constant Matrix: (Units=GPa)
#
#
# Indices 1 2 3 4 5 6 
#
# 1 29.2047 14.2411 21.8276 -0.0015 -3.6893 0.0012
# 2 14.2411 97.7852 8.0445 -0.0010 -9.5392 0.0009
# 3 21.8276 8.0445 47.5135 -0.0012 -6.7412 0.0014
# 4 -0.0015 -0.0010 -0.0012 28.8431 0.0011 -8.8350
# 5 -3.6893 -9.5392 -6.7412 0.0011 31.1828 -0.0011
# 6 0.0012 0.0009 0.0014 -8.8350 -0.0011 26.1627
#
#
#
# Elastic Compliance Matrix: (Units=1/GPa)
#
#
# Indices 1 2 3 4 5 6 
#
# 1 0.055493 -0.006123 -0.024544 0.000001 -0.000614 0.000000
# 2 -0.006123 0.011304 0.001327 0.000000 0.003021 0.000000
# 3 -0.024544 0.001327 0.032747 0.000000 0.004582 -0.000001
# 4 0.000001 0.000000 0.000000 0.038670 -0.000001 0.013059
# 5 -0.000614 0.003021 0.004582 -0.000001 0.033911 0.000001
# 6 0.000000 0.000000 -0.000001 0.013059 0.000001 0.042632
#
#
# Mechanical properties :
#
#
# Convention : Reuss Voigt Hill
#
# Bulk Modulus (GPa) = 24.47013 29.19220 26.83116
# Shear Modulus (GPa) = 17.41811 25.93039 21.67425
#
# Velocity S-wave (km/s) = 2.84060 3.46589 3.16870
# Velocity P-wave (km/s) = 4.70049 5.43506 5.08107
#
# Compressibility (1/GPa) = 0.04086615
#
# Stress axis : x y z
#
# Youngs Moduli (GPa) = 18.02025 88.46722 30.53682
#
# Poissons Ratio (x) = 0.54164 0.74949
# Poissons Ratio (y) = 0.11033 -0.04054
# Poissons Ratio (z) = 0.44229 -0.11743
#
# Static dielectric constant tensor:
#      x y z
#    x 1.783800 0.000000 0.002190 
#    y 0.000000 1.818050 0.000000 
#    z 0.002190 0.000000 1.763070 
# 
# From -- ./inp_files/257847.got.cif
#   From: 2010.05.17/outbox.cif.g08.bks.cpg/sg15_129_cif.got.tgz:257847.got - 2010.06.03 18:47:42.
