data_PCOD9302934
_publ_section_title
;
Structure prediction by ZEFSAII (Michael W. Deem and Ramdas Pophale) SiO2 
 PCOD9302934
Probable space group: C 2/C
;
_chemical_formula_sum "Si O2"
_cell_formula_units_Z 44
_cell_length_a 5.579632
_cell_length_b 24.158514
_cell_length_c 16.672274
_cell_angle_alpha 90.000000
_cell_angle_beta 74.727256
_cell_angle_gamma 90.000000
_cell_volume 2167.979463
_symmetry_space_group_name_H-M "C 2/C"
_symmetry_group_IT_number 15
_symmetry_cell_setting 'monoclinic'
loop_
_space_group_symop_operation_xyz
x,y,z
-x,y,1/2-z
-x,-y,-z
x,-y,1/2+z
1/2+x,1/2+y,z
1/2-x,1/2+y,1/2-z
1/2-x,1/2-y,-z
1/2+x,1/2-y,1/2+z
loop_
_atom_site_type_symbol
_atom_site_label
_atom_site_fract_x
_atom_site_fract_y
_atom_site_fract_z
Si Si1 0.819594 0.861632 0.427670
Si Si2 0.943115 0.890081 0.845271
Si Si3 0.870602 0.506374 0.183448
Si Si4 0.728308 0.815924 0.002055
Si Si5 0.500000 0.409781 0.250000
Si Si6 0.212783 0.041469 0.454197
O O1 0.556007 0.829745 0.446641
O O2 0.739593 0.920090 0.473948
O O3 0.043017 0.836861 0.462192
O O4 0.950849 0.872899 0.331538
O O5 0.808589 0.947949 0.837458
O O6 0.000000 0.867864 0.750000
O O7 0.150917 0.913499 0.889163
O O8 0.781831 0.846853 0.911940
O O9 0.732103 0.452192 0.227318
O O10 0.000000 0.531286 0.250000
O O11 0.078402 0.500936 0.098114
O O12 0.750000 0.750000 0.000000
O O13 0.000000 0.000000 0.500000
#
# Coordination Sequence:
#
# PCOD9302934 Si02
#       6
#     8   8   8   8   4   8
#     4  11  26  46  71 103 140 185 236 295 351 432
#     4  11  22  41  62 103 133 172 232 291 338 420
#     4  12  21  37  63  96 144 182 226 271 344 429
#     4  11  26  51  77  97 135 184 244 306 365 405
#     4  12  28  40  64 106 150 184 228 280 358 442
#     4  11  23  38  63  98 139 192 225 273 354 426
#
# _framework density 20.295396
#
# number of rings (size 3 to 8) (size 9 to 14) (size 15 to 20)
#    0.000    0.727    4.545    2.727    7.636    1.455 
#    3.273    0.000    0.000    0.000    0.000    0.000 
#    0.000    0.000    0.000    0.000    0.000    0.000 
#
# Total GULP energy -122643.439110 kJ/mol
# GULP energy per Si atom -5574.701778 kJ/mol
# Density = 2.024920 g / cm^3
# Si number density = 20.295396 Si / 1000 Ang^3
#
#
#
# Elastic Constant Matrix: (Units=GPa)
#
#
# Indices 1 2 3 4 5 6 
#
# 1 116.5804 47.5310 67.6028 0.0000 -19.8614 0.0000
# 2 47.5310 103.1226 61.8572 0.0000 -11.6863 0.0000
# 3 67.6028 61.8572 180.2701 0.0000 -24.0166 0.0000
# 4 0.0000 0.0000 0.0000 18.7754 0.0000 -6.7050
# 5 -19.8614 -11.6863 -24.0166 0.0000 42.4257 0.0000
# 6 0.0000 0.0000 0.0000 -6.7050 0.0000 30.6437
#
#
#
# Elastic Compliance Matrix: (Units=1/GPa)
#
#
# Indices 1 2 3 4 5 6 
#
# 1 0.012266 -0.003515 -0.002983 0.000000 0.003086 0.000000
# 2 -0.003515 0.013263 -0.003207 0.000000 0.000192 0.000000
# 3 -0.002983 -0.003207 0.008071 0.000000 0.002289 0.000000
# 4 0.000000 0.000000 0.000000 0.057776 0.000000 0.012642
# 5 0.003086 0.000192 0.002289 0.000000 0.026364 0.000000
# 6 0.000000 0.000000 0.000000 0.012642 0.000000 0.035399
#
#
# Mechanical properties :
#
#
# Convention : Reuss Voigt Hill
#
# Bulk Modulus (GPa) = 70.46898 83.77279 77.12088
# Shear Modulus (GPa) = 28.20410 33.23444 30.71927
#
# Velocity S-wave (km/s) = 3.73189 4.05104 3.89473
# Velocity P-wave (km/s) = 7.30523 7.95283 7.63590
#
# Compressibility (1/GPa) = 0.01419064
#
# Stress axis : x y z
#
# Youngs Moduli (GPa) = 81.52529 75.39847 123.89569
#
# Poissons Ratio (x) = 0.26501 0.36955
# Poissons Ratio (y) = 0.28655 0.39737
# Poissons Ratio (z) = 0.24317 0.24182
#
# Static dielectric constant tensor:
#      x y z
#    x 1.841910 0.000000 0.029880 
#    y 0.000000 1.686860 0.000000 
#    z 0.029880 0.000000 1.776740 
# 
# From -- ./inp_files/129362.got.cif
#   From: 2010.05.17/outbox.cif.g08.bks.cpg/sg15_65_cif.got.tgz:129362.got - 2010.06.03 18:47:42.
