data_PCOD9302498
_publ_section_title
;
Structure prediction by ZEFSAII (Michael W. Deem and Ramdas Pophale) SiO2 
 PCOD9302498
Probable space group: C 2/C
;
_chemical_formula_sum "Si O2"
_cell_formula_units_Z 32
_cell_length_a 16.388845
_cell_length_b 10.134697
_cell_length_c 17.613816
_cell_angle_alpha 90.000000
_cell_angle_beta 154.663690
_cell_angle_gamma 90.000000
_cell_volume 1251.947270
_symmetry_space_group_name_H-M "C 2/C"
_symmetry_group_IT_number 15
_symmetry_cell_setting 'monoclinic'
loop_
_space_group_symop_operation_xyz
x,y,z
-x,y,1/2-z
-x,-y,-z
x,-y,1/2+z
1/2+x,1/2+y,z
1/2-x,1/2+y,1/2-z
1/2-x,1/2-y,-z
1/2+x,1/2-y,1/2+z
loop_
_atom_site_type_symbol
_atom_site_label
_atom_site_fract_x
_atom_site_fract_y
_atom_site_fract_z
Si Si1 0.318050 0.440854 0.389321
Si Si2 0.320556 0.550938 0.644666
Si Si3 0.935696 0.669522 0.306187
Si Si4 0.567159 0.161970 0.012299
O O1 0.500000 0.500000 0.500000
O O2 0.227687 0.566310 0.355292
O O3 0.389640 0.305315 0.486725
O O4 0.138030 0.389524 0.187947
O O5 0.500000 0.495598 0.750000
O O6 0.398856 0.682696 0.750287
O O7 0.227393 0.440407 0.619949
O O8 0.135075 0.609548 0.445864
O O9 0.937043 0.672355 0.399946
#
# Coordination Sequence:
#
# PCOD9302498 Si02
#       4
#     8   8   8   8
#     4  11  22  37  62  98 131 164 215 277 326 378
#     4  11  24  43  64  94 135 175 218 273 333 390
#     4  11  22  39  66  97 128 175 225 270 322 392
#     4  11  23  41  66  97 130 172 222 272 326 392
#
# _framework density 25.560184
#
# number of rings (size 3 to 8) (size 9 to 14) (size 15 to 20)
#    0.000    1.000    0.000    9.750    0.000    4.000 
#    0.000    6.250    0.000    0.000    0.000    0.000 
#    0.000    0.000    0.000    0.500    0.000    0.000 
#
# Total GULP energy -89676.314720 kJ/mol
# GULP energy per Si atom -5604.769670 kJ/mol
# Density = 2.550201 g / cm^3
# Si number density = 25.560184 Si / 1000 Ang^3
#
#
#
# Elastic Constant Matrix: (Units=GPa)
#
#
# Indices 1 2 3 4 5 6 
#
# 1 98.0895 34.0200 65.4783 -0.0002 29.0446 0.0001
# 2 34.0200 136.9634 66.3898 -0.0011 -1.6549 -0.0007
# 3 65.4783 66.3898 186.1160 0.0002 45.7894 -0.0006
# 4 -0.0002 -0.0011 0.0002 64.4899 -0.0008 1.1989
# 5 29.0446 -1.6549 45.7894 -0.0008 36.7203 -0.0002
# 6 0.0001 -0.0007 -0.0006 1.1989 -0.0002 27.3732
#
#
#
# Elastic Compliance Matrix: (Units=1/GPa)
#
#
# Indices 1 2 3 4 5 6 
#
# 1 0.015485 -0.003049 -0.001894 0.000000 -0.010024 0.000000
# 2 -0.003049 0.010544 -0.004903 0.000000 0.009001 0.000000
# 3 -0.001894 -0.004903 0.010782 0.000000 -0.012167 0.000000
# 4 0.000000 0.000000 0.000000 0.015519 0.000001 -0.000680
# 5 -0.010024 0.009001 -0.012167 0.000001 0.050739 0.000000
# 6 0.000000 0.000000 0.000000 -0.000680 0.000000 0.036562
#
#
# Mechanical properties :
#
#
# Convention : Reuss Voigt Hill
#
# Bulk Modulus (GPa) = 58.41716 83.66057 71.03886
# Shear Modulus (GPa) = 30.29782 42.73541 36.51661
#
# Velocity S-wave (km/s) = 3.44663 4.09339 3.78385
# Velocity P-wave (km/s) = 6.22442 7.42583 6.85151
#
# Compressibility (1/GPa) = 0.01711826
#
# Stress axis : x y z
#
# Youngs Moduli (GPa) = 64.58022 94.84181 92.74984
#
# Poissons Ratio (x) = 0.28920 0.17566
# Poissons Ratio (y) = 0.19692 0.45473
# Poissons Ratio (z) = 0.12231 0.46499
#
# Static dielectric constant tensor:
#      x y z
#    x 2.063150 0.000000 -0.063860 
#    y 0.000000 2.011230 0.000000 
#    z -0.063860 0.000000 2.036350 
# 
# From -- ./inp_files/318378.got.cif
#   From: 2010.05.17/outbox.cif.g08.bks.cpg/sg15_160_cif.got.tgz:318378.got - 2010.06.03 18:47:42.
