data_PCOD9302222
_publ_section_title
;
Structure prediction by ZEFSAII (Michael W. Deem and Ramdas Pophale) SiO2 
 PCOD9302222
Probable space group: C 2/C
;
_chemical_formula_sum "Si O2"
_cell_formula_units_Z 48
_cell_length_a 31.287138
_cell_length_b 8.469150
_cell_length_c 18.077061
_cell_angle_alpha 90.000000
_cell_angle_beta 148.372055
_cell_angle_gamma 90.000000
_cell_volume 2511.870302
_symmetry_space_group_name_H-M "C 2/C"
_symmetry_group_IT_number 15
_symmetry_cell_setting 'monoclinic'
loop_
_space_group_symop_operation_xyz
x,y,z
-x,y,1/2-z
-x,-y,-z
x,-y,1/2+z
1/2+x,1/2+y,z
1/2-x,1/2+y,1/2-z
1/2-x,1/2-y,-z
1/2+x,1/2-y,1/2+z
loop_
_atom_site_type_symbol
_atom_site_label
_atom_site_fract_x
_atom_site_fract_y
_atom_site_fract_z
Si Si1 0.155378 0.027858 0.141537
Si Si2 0.306989 0.005738 0.112477
Si Si3 0.270183 0.698483 0.871428
Si Si4 0.984579 0.972202 0.311890
Si Si5 0.161861 0.141432 0.804760
Si Si6 0.573793 0.176687 0.812346
O O1 0.207829 0.178604 0.243342
O O2 0.204353 0.930422 0.151734
O O3 0.142018 0.924316 0.195229
O O4 0.066926 0.061589 0.977454
O O5 0.321901 0.172621 0.173730
O O6 0.270171 0.883489 0.116648
O O7 0.386472 0.932704 0.191279
O O8 0.240563 0.047556 0.951574
O O9 0.353090 0.778261 0.023832
O O10 0.961496 0.159199 0.273397
O O11 0.000000 0.922583 0.250000
O O12 0.909418 0.889456 0.241282
O O13 0.500000 0.102110 0.750000
#
# Coordination Sequence:
#
# PCOD9302222 Si02
#       6
#     8   8   8   8   8   8
#     4  12  24  41  67  99 132 173 221 285 329 389
#     4  11  23  42  67  96 131 177 215 273 336 398
#     4  12  23  44  67  98 132 175 223 273 333 397
#     4  11  22  43  68  92 131 180 224 268 332 400
#     4  11  23  40  66 100 133 168 224 273 334 393
#     4  11  21  43  70  92 126 176 223 263 326 404
#
# _framework density 19.109266999999999
#
# number of rings (size 3 to 8) (size 9 to 14) (size 15 to 20)
#    0.000    0.667    6.667    3.000    0.000    2.000 
#    3.000    1.667    0.000    0.000    0.000    0.000 
#    0.000    0.000    0.000    0.000    0.000    0.000 
#
# Total GULP energy -134191.729780 kJ/mol
# GULP energy per Si atom -5591.322074 kJ/mol
# Density = 1.906577 g / cm^3
# Si number density = 19.109267 Si / 1000 Ang^3
#
#
#
# Elastic Constant Matrix: (Units=GPa)
#
#
# Indices 1 2 3 4 5 6 
#
# 1 105.7455 13.8071 3.2715 0.0000 25.2087 0.0000
# 2 13.8071 47.1084 29.2253 0.0000 7.8395 0.0000
# 3 3.2715 29.2253 65.9460 0.0000 23.4175 0.0000
# 4 0.0000 0.0000 0.0000 27.3627 0.0000 -5.2943
# 5 25.2087 7.8395 23.4175 0.0000 31.4891 0.0000
# 6 0.0000 0.0000 0.0000 -5.2943 0.0000 -26.1525
#
#
#
# Elastic Compliance Matrix: (Units=1/GPa)
#
#
# Indices 1 2 3 4 5 6 
#
# 1 0.013514 -0.005980 0.007192 0.000000 -0.014679 0.000000
# 2 -0.005980 0.032163 -0.017412 0.000000 0.009729 0.000000
# 3 0.007192 -0.017412 0.031292 0.000000 -0.024694 0.000000
# 4 0.000000 0.000000 0.000000 0.035169 0.000000 -0.007120
# 5 -0.014679 0.009729 -0.024694 0.000000 0.059450 0.000000
# 6 0.000000 0.000000 0.000000 -0.007120 0.000000 -0.036796
#
#
# Mechanical properties :
#
#
# Convention : Reuss Voigt Hill
#
# Bulk Modulus (GPa) = 22.43636 34.60085 28.51860
# Shear Modulus (GPa) = 27.46509 18.03960 22.75235
#
# Velocity S-wave (km/s) = 3.79524 3.07583 3.45432
# Velocity P-wave (km/s) = 5.56522 5.54621 5.55573
#
# Compressibility (1/GPa) = 0.04457051
#
# Stress axis : x y z
#
# Youngs Moduli (GPa) = 73.99614 31.09119 31.95658
#
# Poissons Ratio (x) = 0.18593 -0.22984
# Poissons Ratio (y) = 0.44250 0.55642
# Poissons Ratio (z) = -0.53219 0.54136
#
# Static dielectric constant tensor:
#      x y z
#    x 1.646160 0.000000 0.002710 
#    y 0.000000 1.663210 0.000000 
#    z 0.002710 0.000000 1.645470 
# 
# From -- ./inp_files/208911.got.cif
#   From: 2010.05.17/outbox.cif.g08.bks.cpg/sg15_105_cif.got.tgz:208911.got - 2010.06.03 18:47:42.
