data_PCOD9302729
_publ_section_title
;
Structure prediction by ZEFSAII (Michael W. Deem and Ramdas Pophale) SiO2 
 PCOD9302729
Probable space group: C 2/C
;
_chemical_formula_sum "Si O2"
_cell_formula_units_Z 32
_cell_length_a 23.163229
_cell_length_b 5.299311
_cell_length_c 12.455808
_cell_angle_alpha 90.000000
_cell_angle_beta 73.850281
_cell_angle_gamma 90.000000
_cell_volume 1468.605100
_symmetry_space_group_name_H-M "C 2/C"
_symmetry_group_IT_number 15
_symmetry_cell_setting 'monoclinic'
loop_
_space_group_symop_operation_xyz
x,y,z
-x,y,1/2-z
-x,-y,-z
x,-y,1/2+z
1/2+x,1/2+y,z
1/2-x,1/2+y,1/2-z
1/2-x,1/2-y,-z
1/2+x,1/2-y,1/2+z
loop_
_atom_site_type_symbol
_atom_site_label
_atom_site_fract_x
_atom_site_fract_y
_atom_site_fract_z
Si Si1 0.238890 0.936844 0.603819
Si Si2 0.342460 0.202251 0.668741
Si Si3 0.429668 0.906833 0.307511
Si Si4 0.876090 0.897355 0.438487
O O1 0.250000 0.750000 0.500000
O O2 0.204674 0.815016 0.722287
O O3 0.302721 0.024499 0.614056
O O4 0.189923 0.133821 0.582697
O O5 0.394061 0.076588 0.712944
O O6 0.369090 0.402118 0.570480
O O7 0.500000 0.882071 0.250000
O O8 0.404091 0.655950 0.378974
O O9 0.414756 0.156179 0.383292
#
# Coordination Sequence:
#
# PCOD9302729 Si02
#       4
#     8   8   8   8
#     4  11  22  40  66 101 135 168 215 265 327 396
#     4  11  22  39  67  94 134 174 210 269 330 379
#     4  11  26  45  66  95 130 172 224 270 317 385
#     4  11  24  42  66  97 129 169 219 268 324 388
#
# _framework density 21.789383999999998
#
# number of rings (size 3 to 8) (size 9 to 14) (size 15 to 20)
#    0.000    1.000    0.000    7.500    0.000    8.000 
#    0.000    0.000    0.000    0.000    0.000    0.000 
#    0.000    0.000    0.000    0.000    0.000    0.000 
#
# Total GULP energy -89540.837841 kJ/mol
# GULP energy per Si atom -5596.302365 kJ/mol
# Density = 2.173979 g / cm^3
# Si number density = 21.789384 Si / 1000 Ang^3
#
#
#
# Elastic Constant Matrix: (Units=GPa)
#
#
# Indices 1 2 3 4 5 6 
#
# 1 112.9041 33.7803 52.0235 0.0000 -20.7376 0.0000
# 2 33.7803 107.9167 62.2575 0.0000 -8.1903 0.0000
# 3 52.0235 62.2575 166.6510 0.0000 7.0411 0.0000
# 4 0.0000 0.0000 0.0000 28.4772 0.0000 -4.5635
# 5 -20.7376 -8.1903 7.0411 0.0000 29.6411 0.0000
# 6 0.0000 0.0000 0.0000 -4.5635 0.0000 29.4583
#
#
#
# Elastic Compliance Matrix: (Units=1/GPa)
#
#
# Indices 1 2 3 4 5 6 
#
# 1 0.012770 -0.000932 -0.004046 0.000000 0.009638 0.000000
# 2 -0.000932 0.012464 -0.004529 0.000000 0.003868 0.000000
# 3 -0.004046 -0.004529 0.009220 0.000000 -0.006272 0.000000
# 4 0.000000 0.000000 0.000000 0.036010 0.000000 0.005578
# 5 0.009638 0.003868 -0.006272 0.000000 0.043038 0.000000
# 6 0.000000 0.000000 0.000000 0.005578 0.000000 0.034810
#
#
# Mechanical properties :
#
#
# Convention : Reuss Voigt Hill
#
# Bulk Modulus (GPa) = 64.75800 75.95492 70.35646
# Shear Modulus (GPa) = 28.98985 33.47602 31.23294
#
# Velocity S-wave (km/s) = 3.65150 3.92388 3.79014
# Velocity P-wave (km/s) = 6.89655 7.44738 7.17725
#
# Compressibility (1/GPa) = 0.01544211
#
# Stress axis : x y z
#
# Youngs Moduli (GPa) = 78.30705 80.22806 108.45548
#
# Poissons Ratio (x) = 0.07478 0.43876
# Poissons Ratio (y) = 0.07298 0.49119
# Poissons Ratio (z) = 0.31679 0.36335
#
# Static dielectric constant tensor:
#      x y z
#    x 1.803020 0.000000 -0.006250 
#    y 0.000000 1.852230 0.000000 
#    z -0.006250 0.000000 1.787680 
# 
# From -- ./inp_files/109020.got.cif
#   From: 2010.05.17/outbox.cif.g08.bks.cpg/sg15_55_cif.got.tgz:109020.got - 2010.06.03 18:47:42.
