data_PCOD9302034
_publ_section_title
;
Structure prediction by ZEFSAII (Michael W. Deem and Ramdas Pophale) SiO2 
 PCOD9302034
Probable space group: C 2/C
;
_chemical_formula_sum "Si O2"
_cell_formula_units_Z 64
_cell_length_a 11.838625
_cell_length_b 23.910900
_cell_length_c 10.763929
_cell_angle_alpha 90.000000
_cell_angle_beta 78.314012
_cell_angle_gamma 90.000000
_cell_volume 2983.812401
_symmetry_space_group_name_H-M "C 2/C"
_symmetry_group_IT_number 15
_symmetry_cell_setting 'monoclinic'
loop_
_space_group_symop_operation_xyz
x,y,z
-x,y,1/2-z
-x,-y,-z
x,-y,1/2+z
1/2+x,1/2+y,z
1/2-x,1/2+y,1/2-z
1/2-x,1/2-y,-z
1/2+x,1/2-y,1/2+z
loop_
_atom_site_type_symbol
_atom_site_label
_atom_site_fract_x
_atom_site_fract_y
_atom_site_fract_z
Si Si1 0.855593 0.291958 0.434607
Si Si2 0.881656 0.052949 0.620613
Si Si3 0.760909 0.599678 0.076306
Si Si4 0.722301 0.098379 0.859368
Si Si5 0.624968 0.437348 0.962672
Si Si6 0.386717 0.332354 0.695133
Si Si7 0.927805 0.494789 0.642792
Si Si8 0.882264 0.283109 0.131462
O O1 0.750000 0.250000 0.500000
O O2 0.832413 0.355469 0.480175
O O3 0.868654 0.290588 0.283569
O O4 0.986372 0.278444 0.448610
O O5 0.828187 0.071050 0.499525
O O6 0.827158 0.092675 0.736946
O O7 0.019238 0.050274 0.579047
O O8 0.851474 0.987297 0.638678
O O9 0.699337 0.639425 0.189430
O O10 0.835422 0.553090 0.129353
O O11 0.763612 0.072216 0.979466
O O12 0.679209 0.160586 0.898639
O O13 0.628053 0.056118 0.824257
O O14 0.584224 0.381514 0.904847
O O15 0.500000 0.315788 0.750000
O O16 0.335644 0.280014 0.630859
O O17 0.000000 0.480288 0.750000
O O18 0.000000 0.500000 0.500000
#
# Coordination Sequence:
#
# PCOD9302034 Si02
#       8
#     8   8   8   8   8   8   8   8
#     4  11  21  41  68 101 129 174 235 284 328 404
#     4  11  23  42  69 102 133 177 225 282 350 421
#     4  12  22  42  72  97 132 176 224 285 339 405
#     4  12  25  44  68  96 140 177 225 287 351 414
#     4  11  26  41  67 102 139 177 225 282 352 414
#     4  12  23  42  68  99 131 177 224 280 334 411
#     4  12  28  45  68 100 138 181 230 287 355 425
#     4  11  24  39  69 100 133 179 234 279 343 411
#
# _framework density 21.449069000000001
#
# number of rings (size 3 to 8) (size 9 to 14) (size 15 to 20)
#    0.000    0.500    6.250    2.625    3.500    0.500 
#    0.000    0.000    0.000    0.000    0.000    0.000 
#    0.000    0.000    0.000    0.000    0.000    0.000 
#
# Total GULP energy -178618.913490 kJ/mol
# GULP energy per Si atom -5581.841047 kJ/mol
# Density = 2.140025 g / cm^3
# Si number density = 21.449069 Si / 1000 Ang^3
#
#
#
# Elastic Constant Matrix: (Units=GPa)
#
#
# Indices 1 2 3 4 5 6 
#
# 1 74.2216 37.1039 26.2127 0.0000 -3.1800 0.0000
# 2 37.1039 154.2520 15.5358 0.0000 -3.2509 0.0000
# 3 26.2127 15.5358 46.5527 0.0000 -11.2870 0.0000
# 4 0.0000 0.0000 0.0000 24.3832 0.0000 -7.5589
# 5 -3.1800 -3.2509 -11.2870 0.0000 40.4133 0.0000
# 6 0.0000 0.0000 0.0000 -7.5589 0.0000 31.4630
#
#
#
# Elastic Compliance Matrix: (Units=1/GPa)
#
#
# Indices 1 2 3 4 5 6 
#
# 1 0.018582 -0.003529 -0.009653 0.000000 -0.001518 0.000000
# 2 -0.003529 0.007379 -0.000428 0.000000 0.000196 0.000000
# 3 -0.009653 -0.000428 0.028818 0.000000 0.007255 0.000000
# 4 0.000000 0.000000 0.000000 0.044312 0.000000 0.010646
# 5 -0.001518 0.000196 0.007255 0.000000 0.026667 0.000000
# 6 0.000000 0.000000 0.000000 0.010646 0.000000 0.034341
#
#
# Mechanical properties :
#
#
# Convention : Reuss Voigt Hill
#
# Bulk Modulus (GPa) = 36.28626 48.08125 42.18375
# Shear Modulus (GPa) = 25.44463 32.33017 28.88740
#
# Velocity S-wave (km/s) = 3.44798 3.88661 3.67385
# Velocity P-wave (km/s) = 5.72761 6.52733 6.14051
#
# Compressibility (1/GPa) = 0.02755864
#
# Stress axis : x y z
#
# Youngs Moduli (GPa) = 53.81650 135.51839 34.70046
#
# Poissons Ratio (x) = 0.47830 0.33496
# Poissons Ratio (y) = 0.18994 0.01484
# Poissons Ratio (z) = 0.51949 0.05795
#
# Static dielectric constant tensor:
#      x y z
#    x 1.831670 0.000000 -0.043120 
#    y 0.000000 1.850500 0.000000 
#    z -0.043120 0.000000 1.834170 
# 
# From -- ./inp_files/90785.got.cif
#   From: 2010.05.17/outbox.cif.g08.bks.cpg/sg15_46_cif.got.tgz:90785.got - 2010.06.03 18:47:42.
