data_PCOD9302227
_publ_section_title
;
Structure prediction by ZEFSAII (Michael W. Deem and Ramdas Pophale) SiO2 
 PCOD9302227
Probable space group: C 2/C
;
_chemical_formula_sum "Si O2"
_cell_formula_units_Z 48
_cell_length_a 8.722586
_cell_length_b 15.213213
_cell_length_c 24.491662
_cell_angle_alpha 90.000000
_cell_angle_beta 43.106421
_cell_angle_gamma 90.000000
_cell_volume 2220.911326
_symmetry_space_group_name_H-M "C 2/C"
_symmetry_group_IT_number 15
_symmetry_cell_setting 'monoclinic'
loop_
_space_group_symop_operation_xyz
x,y,z
-x,y,1/2-z
-x,-y,-z
x,-y,1/2+z
1/2+x,1/2+y,z
1/2-x,1/2+y,1/2-z
1/2-x,1/2-y,-z
1/2+x,1/2-y,1/2+z
loop_
_atom_site_type_symbol
_atom_site_label
_atom_site_fract_x
_atom_site_fract_y
_atom_site_fract_z
Si Si1 0.259164 0.554705 0.197368
Si Si2 0.115336 0.758046 0.815470
Si Si3 0.618812 0.736224 0.918806
Si Si4 0.916175 0.918929 0.986872
Si Si5 0.027776 0.349453 0.445445
Si Si6 0.033364 0.134942 0.831335
O O1 0.296009 0.644237 0.221909
O O2 0.408758 0.581837 0.107139
O O3 0.346283 0.459033 0.192111
O O4 0.000000 0.546767 0.250000
O O5 0.040225 0.730765 0.897383
O O6 0.312570 0.690753 0.749526
O O7 0.886341 0.743356 0.841812
O O8 0.519141 0.699345 0.888362
O O9 0.571996 0.660450 0.974488
O O10 0.536825 0.819941 0.975830
O O11 0.665246 0.914367 0.026905
O O12 0.000000 0.000000 0.000000
O O13 0.279193 0.385162 0.380674
#
# Coordination Sequence:
#
# PCOD9302227 Si02
#       6
#     8   8   8   8   8   8
#     4  12  24  43  69  96 135 182 235 273 350 416
#     4  11  23  46  68  94 138 184 227 280 346 420
#     4  11  21  43  70  99 134 179 234 283 343 423
#     4  11  22  43  72  98 128 182 235 285 335 422
#     4  11  23  44  69  98 138 180 228 284 355 407
#     4  12  26  41  68 107 139 178 228 295 349 415
#
# _framework density 21.612749000000001
#
# number of rings (size 3 to 8) (size 9 to 14) (size 15 to 20)
#    0.000    0.667    5.000    4.500    2.333    0.667 
#    0.000    3.333    0.000    0.000    0.000    0.000 
#    0.000    0.000    0.000    0.000    0.000    0.000 
#
# Total GULP energy -133859.576806 kJ/mol
# GULP energy per Si atom -5577.482367 kJ/mol
# Density = 2.156356 g / cm^3
# Si number density = 21.612749 Si / 1000 Ang^3
#
#
#
# Elastic Constant Matrix: (Units=GPa)
#
#
# Indices 1 2 3 4 5 6 
#
# 1 89.0183 22.8895 41.6489 0.0002 -23.1100 -0.0006
# 2 22.8895 103.1528 26.7363 0.0004 -6.7975 -0.0012
# 3 41.6489 26.7363 116.7152 0.0010 -17.2814 -0.0021
# 4 0.0002 0.0004 0.0010 23.8580 0.0010 -3.1909
# 5 -23.1100 -6.7975 -17.2814 0.0010 41.2507 0.0007
# 6 -0.0006 -0.0012 -0.0021 -3.1909 0.0007 28.4177
#
#
#
# Elastic Compliance Matrix: (Units=1/GPa)
#
#
# Indices 1 2 3 4 5 6 
#
# 1 0.015332 -0.001917 -0.004059 0.000000 0.006573 0.000000
# 2 -0.001917 0.010568 -0.001746 0.000000 -0.000064 0.000000
# 3 -0.004059 -0.001746 0.010701 0.000000 0.001921 0.000001
# 4 0.000000 0.000000 0.000000 0.042554 -0.000001 0.004778
# 5 0.006573 -0.000064 0.001921 -0.000001 0.028719 -0.000001
# 6 0.000000 0.000000 0.000001 0.004778 -0.000001 0.035726
#
#
# Mechanical properties :
#
#
# Convention : Reuss Voigt Hill
#
# Bulk Modulus (GPa) = 47.26614 54.60399 50.93507
# Shear Modulus (GPa) = 30.10313 33.21271 31.65792
#
# Velocity S-wave (km/s) = 3.73613 3.92435 3.83140
# Velocity P-wave (km/s) = 6.36621 6.77153 6.57199
#
# Compressibility (1/GPa) = 0.02115679
#
# Stress axis : x y z
#
# Youngs Moduli (GPa) = 65.22313 94.62399 93.45191
#
# Poissons Ratio (x) = 0.18140 0.37929
# Poissons Ratio (y) = 0.12503 0.16319
# Poissons Ratio (z) = 0.26472 0.16524
#
# Static dielectric constant tensor:
#      x y z
#    x 1.841560 0.000000 0.035880 
#    y 0.000000 1.852600 0.000000 
#    z 0.035880 0.000000 1.763370 
# 
# From -- ./inp_files/182528.got.cif
#   From: 2010.05.17/outbox.cif.g08.bks.cpg/sg15_92_cif.got.tgz:182528.got - 2010.06.03 18:47:42.
