data_PCOD9302900
_publ_section_title
;
Structure prediction by ZEFSAII (Michael W. Deem and Ramdas Pophale) SiO2 
 PCOD9302900
Probable space group: C 2/C
;
_chemical_formula_sum "Si O2"
_cell_formula_units_Z 36
_cell_length_a 15.037356
_cell_length_b 18.892529
_cell_length_c 11.758223
_cell_angle_alpha 90.000000
_cell_angle_beta 152.363769
_cell_angle_gamma 90.000000
_cell_volume 1549.482810
_symmetry_space_group_name_H-M "C 2/C"
_symmetry_group_IT_number 15
_symmetry_cell_setting 'monoclinic'
loop_
_space_group_symop_operation_xyz
x,y,z
-x,y,1/2-z
-x,-y,-z
x,-y,1/2+z
1/2+x,1/2+y,z
1/2-x,1/2+y,1/2-z
1/2-x,1/2-y,-z
1/2+x,1/2-y,1/2+z
loop_
_atom_site_type_symbol
_atom_site_label
_atom_site_fract_x
_atom_site_fract_y
_atom_site_fract_z
Si Si1 0.500000 0.929095 0.250000
Si Si2 0.042929 0.361125 0.921948
Si Si3 0.262664 0.534408 0.840463
Si Si4 0.856316 0.898636 0.792234
Si Si5 0.132083 0.797795 0.507929
O O1 0.368020 0.968959 0.194911
O O2 0.661945 0.885670 0.502141
O O3 0.153107 0.286615 0.030266
O O4 0.000000 0.392678 0.750000
O O5 0.839236 0.332901 0.733004
O O6 0.147766 0.415312 0.122495
O O7 0.303917 0.460089 0.824987
O O8 0.471959 0.569795 0.089151
O O9 0.935412 0.831128 0.949870
O O10 0.000000 0.817426 0.250000
#
# Coordination Sequence:
#
# PCOD9302900 Si02
#       5
#     4   8   8   8   8
#     4  12  24  44  66 100 138 182 226 270 340 418
#     4  11  22  40  70 102 137 177 229 295 344 404
#     4  11  25  44  69 102 138 182 229 284 344 406
#     4  11  25  44  68 100 139 183 230 284 339 412
#     4  11  22  41  68 103 137 176 232 291 348 398
#
# _framework density 23.233557999999999
#
# number of rings (size 3 to 8) (size 9 to 14) (size 15 to 20)
#    0.000    0.889    2.222    6.667    1.556    3.556 
#    0.000    1.111    0.000    0.000    0.000    0.000 
#    0.000    0.000    0.000    0.000    0.000    0.000 
#
# Total GULP energy -100677.942067 kJ/mol
# GULP energy per Si atom -5593.219004 kJ/mol
# Density = 2.318068 g / cm^3
# Si number density = 23.233558 Si / 1000 Ang^3
#
#
#
# Elastic Constant Matrix: (Units=GPa)
#
#
# Indices 1 2 3 4 5 6 
#
# 1 146.6931 40.2989 42.5323 0.0000 2.2560 0.0000
# 2 40.2989 89.7039 45.1942 0.0000 -16.3091 0.0000
# 3 42.5323 45.1942 165.6506 -0.0001 0.0850 -0.0001
# 4 0.0000 0.0000 -0.0001 232.9227 0.0000 177.9442
# 5 2.2560 -16.3091 0.0850 0.0000 48.6672 0.0000
# 6 0.0000 0.0000 -0.0001 177.9442 0.0000 149.0790
#
#
#
# Elastic Compliance Matrix: (Units=1/GPa)
#
#
# Indices 1 2 3 4 5 6 
#
# 1 0.008090 -0.003313 -0.001172 0.000000 -0.001483 0.000000
# 2 -0.003313 0.015267 -0.003317 0.000000 0.005275 0.000000
# 3 -0.001172 -0.003317 0.007243 0.000000 -0.001070 0.000000
# 4 0.000000 0.000000 0.000000 0.048722 0.000000 -0.058156
# 5 -0.001483 0.005275 -0.001070 0.000000 0.022386 0.000000
# 6 0.000000 0.000000 0.000000 -0.058156 0.000000 0.076124
#
#
# Mechanical properties :
#
#
# Convention : Reuss Voigt Hill
#
# Bulk Modulus (GPa) = 66.69275 73.12202 69.90738
# Shear Modulus (GPa) = 25.19694 104.40193 64.79943
#
# Velocity S-wave (km/s) = 3.29676 6.71069 5.28687
# Velocity P-wave (km/s) = 6.57717 9.57003 8.21111
#
# Compressibility (1/GPa) = 0.01499413
#
# Stress axis : x y z
#
# Youngs Moduli (GPa) = 123.61053 65.50227 138.05676
#
# Poissons Ratio (x) = 0.21703 0.16186
# Poissons Ratio (y) = 0.40956 0.45796
# Poissons Ratio (z) = 0.14492 0.21728
#
# Static dielectric constant tensor:
#      x y z
#    x 2.002330 0.000000 0.063590 
#    y 0.000000 1.891650 0.000000 
#    z 0.063590 0.000000 1.869780 
# 
# From -- ./inp_files/99935.got.cif
#   From: 2010.05.17/outbox.cif.g08.bks.cpg/sg15_50_cif.got.tgz:99935.got - 2010.06.03 18:47:42.
