data_PCOD9302767
_publ_section_title
;
Structure prediction by ZEFSAII (Michael W. Deem and Ramdas Pophale) SiO2 
 PCOD9302767
Probable space group: C 2/C
;
_chemical_formula_sum "Si O2"
_cell_formula_units_Z 36
_cell_length_a 13.436352
_cell_length_b 19.106108
_cell_length_c 11.801413
_cell_angle_alpha 90.000000
_cell_angle_beta 30.560916
_cell_angle_gamma 90.000000
_cell_volume 1540.420906
_symmetry_space_group_name_H-M "C 2/C"
_symmetry_group_IT_number 15
_symmetry_cell_setting 'monoclinic'
loop_
_space_group_symop_operation_xyz
x,y,z
-x,y,1/2-z
-x,-y,-z
x,-y,1/2+z
1/2+x,1/2+y,z
1/2-x,1/2+y,1/2-z
1/2-x,1/2-y,-z
1/2+x,1/2-y,1/2+z
loop_
_atom_site_type_symbol
_atom_site_label
_atom_site_fract_x
_atom_site_fract_y
_atom_site_fract_z
Si Si1 0.212825 0.528133 0.931836
Si Si2 0.925185 0.123815 0.565916
Si Si3 0.813551 0.406133 0.814761
Si Si4 0.500000 0.588236 0.250000
Si Si5 0.623865 0.750143 0.715834
O O1 0.293848 0.559404 0.736582
O O2 0.326686 0.460852 0.867852
O O3 0.263666 0.584570 0.981350
O O4 0.978395 0.533552 0.147900
O O5 0.138552 0.098031 0.399129
O O6 0.923304 0.131045 0.433010
O O7 0.863881 0.192845 0.695752
O O8 0.910827 0.330491 0.710903
O O9 0.872779 0.762531 0.433053
#
# Coordination Sequence:
#
# PCOD9302767 Si02
#       5
#     8   8   8   4   8
#     4  11  22  42  66 101 134 171 235 282 332 401
#     4  12  24  44  66  99 144 181 223 284 345 408
#     4  11  22  39  73 109 120 173 233 297 346 375
#     4  12  28  46  62  96 148 202 216 262 352 426
#     4  12  19  37  72 103 129 158 229 297 344 387
#
# _framework density 23.370235000000001
#
# number of rings (size 3 to 8) (size 9 to 14) (size 15 to 20)
#    0.000    0.444    8.889    0.667    0.000    0.889 
#    4.000    1.111    0.000    0.000    0.000    0.000 
#    0.000    0.000    0.000    0.000    0.000    0.000 
#
# Total GULP energy -100452.669976 kJ/mol
# GULP energy per Si atom -5580.703888 kJ/mol
# Density = 2.331704 g / cm^3
# Si number density = 23.370235 Si / 1000 Ang^3
#
#
#
# Elastic Constant Matrix: (Units=GPa)
#
#
# Indices 1 2 3 4 5 6 
#
# 1 109.7767 38.6974 82.1781 0.0004 25.4265 -0.0025
# 2 38.6974 103.4871 39.7661 -0.0002 19.7994 0.0004
# 3 82.1781 39.7661 135.9719 -0.0030 9.3985 0.0025
# 4 0.0004 -0.0002 -0.0030 28.9915 0.0010 12.8600
# 5 25.4265 19.7994 9.3985 0.0010 64.4057 -0.0008
# 6 -0.0025 0.0004 0.0025 12.8600 -0.0008 18.1972
#
#
#
# Elastic Compliance Matrix: (Units=1/GPa)
#
#
# Indices 1 2 3 4 5 6 
#
# 1 0.018873 -0.002028 -0.010447 -0.000004 -0.005303 0.000007
# 2 -0.002028 0.011673 -0.002016 0.000000 -0.002494 -0.000001
# 3 -0.010447 -0.002016 0.014072 0.000004 0.002690 -0.000006
# 4 -0.000004 0.000000 0.000004 0.050243 0.000000 -0.035507
# 5 -0.005303 -0.002494 0.002690 0.000000 0.017994 0.000000
# 6 0.000007 -0.000001 -0.000006 -0.035507 0.000000 0.080046
#
#
# Mechanical properties :
#
#
# Convention : Reuss Voigt Hill
#
# Bulk Modulus (GPa) = 63.95320 74.50211 69.22765
# Shear Modulus (GPa) = 22.01729 34.89182 28.45455
#
# Velocity S-wave (km/s) = 3.07271 3.86813 3.49313
# Velocity P-wave (km/s) = 6.32561 7.20404 6.77907
#
# Compressibility (1/GPa) = 0.01563643
#
# Stress axis : x y z
#
# Youngs Moduli (GPa) = 52.98597 85.66668 71.06501
#
# Poissons Ratio (x) = 0.17377 0.74238
# Poissons Ratio (y) = 0.10748 0.14324
# Poissons Ratio (z) = 0.55352 0.17267
#
# Static dielectric constant tensor:
#      x y z
#    x 1.923950 -0.000030 -0.062720 
#    y -0.000030 1.847320 0.000030 
#    z -0.062720 0.000030 2.102160 
# 
# From -- ./inp_files/99631.got.cif
#   From: 2010.05.17/outbox.cif.g08.bks.cpg/sg15_50_cif.got.tgz:99631.got - 2010.06.03 18:47:42.
