data_PCOD9302653
_publ_section_title
;
Structure prediction by ZEFSAII (Michael W. Deem and Ramdas Pophale) SiO2 
 PCOD9302653
Probable space group: C 2/C
;
_chemical_formula_sum "Si O2"
_cell_formula_units_Z 48
_cell_length_a 16.895644
_cell_length_b 9.458557
_cell_length_c 16.115630
_cell_angle_alpha 90.000000
_cell_angle_beta 53.820731
_cell_angle_gamma 90.000000
_cell_volume 2078.806487
_symmetry_space_group_name_H-M "C 2/C"
_symmetry_group_IT_number 15
_symmetry_cell_setting 'monoclinic'
loop_
_space_group_symop_operation_xyz
x,y,z
-x,y,1/2-z
-x,-y,-z
x,-y,1/2+z
1/2+x,1/2+y,z
1/2-x,1/2+y,1/2-z
1/2-x,1/2-y,-z
1/2+x,1/2-y,1/2+z
loop_
_atom_site_type_symbol
_atom_site_label
_atom_site_fract_x
_atom_site_fract_y
_atom_site_fract_z
Si Si1 0.165251 0.192035 0.765318
Si Si2 0.460730 0.626874 0.966796
Si Si3 0.103839 0.685372 0.635984
Si Si4 0.029453 0.627665 0.924527
Si Si5 0.700542 0.012564 0.702905
Si Si6 0.885113 0.999895 0.851839
O O1 0.050668 0.200011 0.861416
O O2 0.213010 0.106256 0.811901
O O3 0.206664 0.346718 0.718778
O O4 0.171175 0.094389 0.679864
O O5 0.388847 0.566371 0.941273
O O6 0.500000 0.500000 0.000000
O O7 0.423761 0.745686 0.052172
O O8 0.067537 0.678605 0.564111
O O9 0.172011 0.559621 0.627297
O O10 0.000000 0.680934 0.750000
O O11 0.150070 0.838189 0.625527
O O12 0.108065 0.568751 0.812365
O O13 0.000000 0.500000 0.000000
O O14 0.000000 0.994630 0.750000
#
# Coordination Sequence:
#
# PCOD9302653 Si02
#       6
#     8   8   8   8   8   8
#     4  11  24  40  61  87 120 160 198 241 295 355
#     4  11  22  39  65  91 117 155 199 244 295 348
#     4   9  19  36  60  85 117 158 195 236 290 355
#     4  11  22  39  63  91 119 151 199 249 292 343
#     4  11  24  40  61  86 121 159 198 242 296 354
#     4   9  19  36  60  86 116 155 199 235 288 359
#
# _framework density 23.090171999999999
#
# number of rings (size 3 to 8) (size 9 to 14) (size 15 to 20)
#    0.000    1.667    3.333    1.000    7.000    2.000 
#    0.000    3.333    0.000    0.000    0.000    0.000 
#    0.000    0.000    0.000    0.000    0.000    0.000 
#
# Total GULP energy -134195.667407 kJ/mol
# GULP energy per Si atom -5591.486142 kJ/mol
# Density = 2.303762 g / cm^3
# Si number density = 23.090172 Si / 1000 Ang^3
#
#
#
# Elastic Constant Matrix: (Units=GPa)
#
#
# Indices 1 2 3 4 5 6 
#
# 1 75.5350 27.2641 19.2451 0.0000 9.6632 0.0000
# 2 27.2641 140.4816 19.5885 0.0000 -2.9993 0.0000
# 3 19.2451 19.5885 41.6432 0.0000 13.2012 0.0000
# 4 0.0000 0.0000 0.0000 32.6176 0.0000 11.0133
# 5 9.6632 -2.9993 13.2012 0.0000 30.0590 0.0000
# 6 0.0000 0.0000 0.0000 11.0133 0.0000 34.2487
#
#
#
# Elastic Compliance Matrix: (Units=1/GPa)
#
#
# Indices 1 2 3 4 5 6 
#
# 1 0.015826 -0.002409 -0.005218 0.000000 -0.003036 0.000000
# 2 -0.002409 0.008180 -0.003763 0.000000 0.003243 0.000000
# 3 -0.005218 -0.003763 0.032276 0.000000 -0.012873 0.000000
# 4 0.000000 0.000000 0.000000 0.034393 0.000000 -0.011060
# 5 -0.003036 0.003243 -0.012873 0.000000 0.040221 0.000000
# 6 0.000000 0.000000 0.000000 -0.011060 0.000000 0.032755
#
#
# Mechanical properties :
#
#
# Convention : Reuss Voigt Hill
#
# Bulk Modulus (GPa) = 29.84855 43.31723 36.58289
# Shear Modulus (GPa) = 25.30407 32.15587 28.72997
#
# Velocity S-wave (km/s) = 3.31400 3.73583 3.53122
# Velocity P-wave (km/s) = 5.25343 6.11632 5.70122
#
# Compressibility (1/GPa) = 0.03350246
#
# Stress axis : x y z
#
# Youngs Moduli (GPa) = 63.18595 122.25376 30.98299
#
# Poissons Ratio (x) = 0.29447 0.16168
# Poissons Ratio (y) = 0.15219 0.11657
# Poissons Ratio (z) = 0.32973 0.45998
#
# Static dielectric constant tensor:
#      x y z
#    x 1.886360 0.000000 -0.070680 
#    y 0.000000 1.750300 0.000000 
#    z -0.070680 0.000000 1.952950 
# 
# From -- ./inp_files/208915.got.cif
#   From: 2010.05.17/outbox.cif.g08.bks.cpg/sg15_105_cif.got.tgz:208915.got - 2010.06.03 18:47:42.
