data_PCOD9302352
_publ_section_title
;
Structure prediction by ZEFSAII (Michael W. Deem and Ramdas Pophale) SiO2 
 PCOD9302352
Probable space group: C 2/C
;
_chemical_formula_sum "Si O2"
_cell_formula_units_Z 64
_cell_length_a 13.369448
_cell_length_b 11.743806
_cell_length_c 16.081180
_cell_angle_alpha 90.000000
_cell_angle_beta 93.880328
_cell_angle_gamma 90.000000
_cell_volume 2519.089086
_symmetry_space_group_name_H-M "C 2/C"
_symmetry_group_IT_number 15
_symmetry_cell_setting 'monoclinic'
loop_
_space_group_symop_operation_xyz
x,y,z
-x,y,1/2-z
-x,-y,-z
x,-y,1/2+z
1/2+x,1/2+y,z
1/2-x,1/2+y,1/2-z
1/2-x,1/2-y,-z
1/2+x,1/2-y,1/2+z
loop_
_atom_site_type_symbol
_atom_site_label
_atom_site_fract_x
_atom_site_fract_y
_atom_site_fract_z
Si Si1 0.551344 0.839459 0.018478
Si Si2 0.277219 0.247780 0.404240
Si Si3 0.444292 0.576321 0.873603
Si Si4 0.670722 0.610001 0.051586
Si Si5 0.637796 0.640084 0.800145
Si Si6 0.211783 0.487494 0.095485
Si Si7 0.921788 0.647104 0.673060
Si Si8 0.119254 0.615177 0.343436
O O1 0.631919 0.736157 0.030841
O O2 0.604147 0.952493 0.056881
O O3 0.465556 0.823610 0.082757
O O4 0.548378 0.857760 0.919329
O O5 0.250000 0.250000 0.500000
O O6 0.378619 0.321319 0.406628
O O7 0.190384 0.302069 0.341396
O O8 0.286284 0.117002 0.378275
O O9 0.422727 0.460598 0.919363
O O10 0.559239 0.606823 0.868212
O O11 0.396508 0.567055 0.779569
O O12 0.765149 0.614208 0.119122
O O13 0.717339 0.537016 0.979327
O O14 0.747053 0.600517 0.833890
O O15 0.617699 0.773871 0.784366
O O16 0.908480 0.511151 0.686245
O O17 0.000000 0.687418 0.750000
#
# Coordination Sequence:
#
# PCOD9302352 Si02
#       8
#     8   8   8   8   8   8   8   8
#     4  11  24  43  75 105 144 191 248 302 363 441
#     4  12  26  48  74 104 148 191 247 299 368 441
#     4  11  27  44  67 104 142 186 239 301 364 430
#     4  11  21  46  72 100 144 181 239 306 357 433
#     4  11  26  43  69 104 138 188 241 290 372 432
#     4  11  23  43  73 103 134 188 238 296 365 431
#     4  12  30  45  70 112 151 193 244 312 382 427
#     4  11  22  47  71  99 143 188 246 296 359 450
#
# _framework density 25.406009000000001
#
# number of rings (size 3 to 8) (size 9 to 14) (size 15 to 20)
#    0.000    0.750    5.000    1.875    8.750    2.500 
#    0.000    0.000    0.000    0.000    0.000    0.000 
#    0.000    0.000    0.000    0.000    0.000    0.000 
#
# Total GULP energy -179133.197822 kJ/mol
# GULP energy per Si atom -5597.912432 kJ/mol
# Density = 2.534818 g / cm^3
# Si number density = 25.406009 Si / 1000 Ang^3
#
#
#
# Elastic Constant Matrix: (Units=GPa)
#
#
# Indices 1 2 3 4 5 6 
#
# 1 42.2908 13.7566 9.3741 0.0000 -3.9019 0.0000
# 2 13.7566 130.8304 13.8429 0.0000 -1.9554 0.0000
# 3 9.3741 13.8429 55.1993 0.0000 4.5491 0.0000
# 4 0.0000 0.0000 0.0000 27.5216 0.0000 -0.7487
# 5 -3.9019 -1.9554 4.5491 0.0000 44.2484 0.0000
# 6 0.0000 0.0000 0.0000 -0.7487 0.0000 39.1909
#
#
#
# Elastic Compliance Matrix: (Units=1/GPa)
#
#
# Indices 1 2 3 4 5 6 
#
# 1 0.025487 -0.002220 -0.003982 0.000000 0.002559 0.000000
# 2 -0.002220 0.008059 -0.001671 0.000000 0.000332 0.000000
# 3 -0.003982 -0.001671 0.019411 0.000000 -0.002421 0.000000
# 4 0.000000 0.000000 0.000000 0.036354 0.000000 0.000695
# 5 0.002559 0.000332 -0.002421 0.000000 0.023089 0.000000
# 6 0.000000 0.000000 0.000000 0.000695 0.000000 0.025529
#
#
# Mechanical properties :
#
#
# Convention : Reuss Voigt Hill
#
# Bulk Modulus (GPa) = 26.87532 33.58531 30.23031
# Shear Modulus (GPa) = 30.10603 34.94864 32.52734
#
# Velocity S-wave (km/s) = 3.44611 3.71294 3.58201
# Velocity P-wave (km/s) = 5.14155 5.62400 5.38818
#
# Compressibility (1/GPa) = 0.03720886
#
# Stress axis : x y z
#
# Youngs Moduli (GPa) = 39.23593 124.08882 51.51699
#
# Poissons Ratio (x) = 0.27552 0.20516
# Poissons Ratio (y) = 0.08712 0.08610
# Poissons Ratio (z) = 0.15625 0.20739
#
# Static dielectric constant tensor:
#      x y z
#    x 2.039210 0.000000 -0.035510 
#    y 0.000000 1.929360 0.000000 
#    z -0.035510 0.000000 2.068050 
# 
# From -- ./inp_files/204453.got.cif
#   From: 2010.05.17/outbox.cif.g08.bks.cpg/sg15_103_cif.got.tgz:204453.got - 2010.06.03 18:47:42.
