data_PCOD9302945
_publ_section_title
;
Structure prediction by ZEFSAII (Michael W. Deem and Ramdas Pophale) SiO2 
 PCOD9302945
Probable space group: C 2/C
;
_chemical_formula_sum "Si O2"
_cell_formula_units_Z 64
_cell_length_a 19.541618
_cell_length_b 23.080045
_cell_length_c 21.742673
_cell_angle_alpha 90.000000
_cell_angle_beta 19.490302
_cell_angle_gamma 90.000000
_cell_volume 3271.882667
_symmetry_space_group_name_H-M "C 2/C"
_symmetry_group_IT_number 15
_symmetry_cell_setting 'monoclinic'
loop_
_space_group_symop_operation_xyz
x,y,z
-x,y,1/2-z
-x,-y,-z
x,-y,1/2+z
1/2+x,1/2+y,z
1/2-x,1/2+y,1/2-z
1/2-x,1/2-y,-z
1/2+x,1/2-y,1/2+z
loop_
_atom_site_type_symbol
_atom_site_label
_atom_site_fract_x
_atom_site_fract_y
_atom_site_fract_z
Si Si1 0.074132 0.217576 0.373026
Si Si2 0.727482 0.622267 0.831448
Si Si3 0.114022 0.802180 0.593399
Si Si4 0.500225 0.161337 0.506286
Si Si5 0.971814 0.980932 0.206382
Si Si6 0.965749 0.543485 0.470293
Si Si7 0.094018 0.950636 0.965081
Si Si8 0.723459 0.922896 0.081051
O O1 0.270559 0.175600 0.209110
O O2 0.870236 0.183019 0.565354
O O3 0.035891 0.222974 0.332215
O O4 0.092124 0.274383 0.400876
O O5 0.744294 0.577245 0.872821
O O6 0.952396 0.631515 0.612580
O O7 0.557372 0.601368 0.926797
O O8 0.250000 0.750000 0.500000
O O9 0.250440 0.855366 0.455459
O O10 0.000000 0.824549 0.750000
O O11 0.418360 0.110013 0.531742
O O12 0.729615 0.982635 0.398940
O O13 0.000000 0.952641 0.250000
O O14 0.067270 0.955859 0.061430
O O15 0.094356 0.041485 0.104495
O O16 0.000000 0.500000 0.500000
O O17 0.170285 0.550415 0.256269
O O18 0.000000 0.000000 0.000000
O O19 0.500000 0.943860 0.250000
#
# Coordination Sequence:
#
# PCOD9302945 Si02
#       8
#     8   8   8   8   8   8   8   8
#     4  11  24  38  63  95 130 170 227 296 338 400
#     4  11  22  41  63  96 132 175 235 288 336 408
#     4  11  24  40  54  80 128 183 237 273 337 385
#     4  12  23  39  66  96 131 172 224 291 347 394
#     4  12  28  45  65 104 138 177 230 286 352 415
#     4  12  25  43  75 100 134 185 232 291 350 410
#     4  12  22  45  69  99 133 179 233 285 345 421
#     4  11  26  41  61  88 133 189 233 287 332 394
#
# _framework density 19.560604000000001
#
# number of rings (size 3 to 8) (size 9 to 14) (size 15 to 20)
#    0.000    0.500    6.250    1.500    8.750    0.000 
#    0.000    0.000    0.000    0.000    0.000    3.500 
#    0.000    0.000    0.000    0.000    0.000    0.000 
#
# Total GULP energy -178230.300196 kJ/mol
# GULP energy per Si atom -5569.696881 kJ/mol
# Density = 1.951608 g / cm^3
# Si number density = 19.560604 Si / 1000 Ang^3
#
#
#
# Elastic Constant Matrix: (Units=GPa)
#
#
# Indices 1 2 3 4 5 6 
#
# 1 114.6107 30.8544 43.0698 -0.0637 3.6229 0.0193
# 2 30.8544 80.0123 23.6828 -0.0309 -9.4500 0.0125
# 3 43.0698 23.6828 126.3759 0.0922 -1.0705 0.1516
# 4 -0.0637 -0.0309 0.0922 37.6935 0.0900 3.6101
# 5 3.6229 -9.4500 -1.0705 0.0900 39.4924 -0.0224
# 6 0.0193 0.0125 0.1516 3.6101 -0.0224 25.4939
#
#
#
# Elastic Compliance Matrix: (Units=1/GPa)
#
#
# Indices 1 2 3 4 5 6 
#
# 1 0.010885 -0.003517 -0.003067 0.000027 -0.001923 0.000006
# 2 -0.003517 0.014759 -0.001535 0.000000 0.003813 0.000008
# 3 -0.003067 -0.001535 0.009247 -0.000025 0.000165 -0.000048
# 4 0.000027 0.000000 -0.000025 0.026895 -0.000067 -0.003808
# 5 -0.001923 0.003813 0.000165 -0.000067 0.026415 0.000031
# 6 0.000006 0.000008 -0.000048 -0.003808 0.000031 0.039765
#
#
# Mechanical properties :
#
#
# Convention : Reuss Voigt Hill
#
# Bulk Modulus (GPa) = 53.60867 57.35697 55.48282
# Shear Modulus (GPa) = 33.23993 35.42876 34.33435
#
# Velocity S-wave (km/s) = 4.12677 4.26047 4.19415
# Velocity P-wave (km/s) = 7.08328 7.32042 7.20283
#
# Compressibility (1/GPa) = 0.01865370
#
# Stress axis : x y z
#
# Youngs Moduli (GPa) = 91.86638 67.75575 108.13979
#
# Poissons Ratio (x) = 0.23829 0.33167
# Poissons Ratio (y) = 0.32309 0.16599
# Poissons Ratio (z) = 0.28176 0.10400
#
# Static dielectric constant tensor:
#      x y z
#    x 1.717450 -0.028820 -0.037250 
#    y -0.028820 2.179930 -0.031610 
#    z -0.037250 -0.031610 1.662670 
# 
# From -- ./inp_files/250278.got.cif
#   From: 2010.05.17/outbox.cif.g08.bks.cpg/sg15_126_cif.got.tgz:250278.got - 2010.06.03 18:47:42.
