data_PCOD9302192
_publ_section_title
;
Structure prediction by ZEFSAII (Michael W. Deem and Ramdas Pophale) SiO2 
 PCOD9302192
Probable space group: C 2/C
;
_chemical_formula_sum "Si O2"
_cell_formula_units_Z 56
_cell_length_a 16.672509
_cell_length_b 16.672447
_cell_length_c 19.251362
_cell_angle_alpha 90.000000
_cell_angle_beta 148.965344
_cell_angle_gamma 90.000000
_cell_volume 2758.912897
_symmetry_space_group_name_H-M "C 2/C"
_symmetry_group_IT_number 15
_symmetry_cell_setting 'monoclinic'
loop_
_space_group_symop_operation_xyz
x,y,z
-x,y,1/2-z
-x,-y,-z
x,-y,1/2+z
1/2+x,1/2+y,z
1/2-x,1/2+y,1/2-z
1/2-x,1/2-y,-z
1/2+x,1/2-y,1/2+z
loop_
_atom_site_type_symbol
_atom_site_label
_atom_site_fract_x
_atom_site_fract_y
_atom_site_fract_z
Si Si1 0.847611 0.835192 0.866575
Si Si2 0.141779 0.427440 0.244016
Si Si3 0.306758 0.263732 0.362050
Si Si4 0.784757 0.480553 0.976185
Si Si5 0.160195 0.999411 0.728371
Si Si6 0.808607 0.942162 0.962925
Si Si7 0.678069 0.686471 0.395083
O O1 0.736434 0.772917 0.744531
O O2 0.786554 0.866522 0.895655
O O3 0.857603 0.913758 0.824034
O O4 0.019545 0.797801 0.002611
O O5 0.185447 0.335266 0.289277
O O6 0.219347 0.450273 0.228351
O O7 0.225439 0.483569 0.362497
O O8 0.962057 0.450948 0.109675
O O9 0.274988 0.195518 0.395924
O O10 0.723613 0.494941 0.853364
O O11 0.687378 0.403561 0.930558
O O12 0.756759 0.554322 0.007550
O O13 0.992518 0.041104 0.601714
O O14 0.500000 0.705606 0.250000
O O15 0.750000 0.750000 0.500000
#
# Coordination Sequence:
#
# PCOD9302192 Si02
#       7
#     8   8   8   8   8   8   8
#     4  11  23  41  65  94 123 176 214 268 311 388
#     4  11  22  40  64  96 128 170 213 266 317 392
#     4  12  22  40  63  92 136 166 216 255 325 395
#     4  12  24  37  63  98 129 166 212 270 323 378
#     4  11  21  43  64  93 127 169 225 260 319 388
#     4  11  22  43  64  90 133 172 220 260 324 383
#     4  12  24  37  56  94 138 168 199 255 339 400
#
# _framework density 20.29785
#
# number of rings (size 3 to 8) (size 9 to 14) (size 15 to 20)
#    0.000    0.571    4.286    6.429    0.000    0.000 
#    0.000    0.000    0.000    0.857    3.714    0.000 
#    0.000    0.000    0.000    0.000    0.000    0.000 
#
# Total GULP energy -156610.695778 kJ/mol
# GULP energy per Si atom -5593.239135 kJ/mol
# Density = 2.025165 g / cm^3
# Si number density = 20.297850 Si / 1000 Ang^3
#
#
#
# Elastic Constant Matrix: (Units=GPa)
#
#
# Indices 1 2 3 4 5 6 
#
# 1 49.6567 29.8782 115.4785 0.0019 -4.0097 0.0005
# 2 29.8782 37.8153 4.0108 -0.0054 -6.5661 -0.0023
# 3 115.4785 4.0108 1.8126 -0.0133 -35.3952 -0.0046
# 4 0.0019 -0.0054 -0.0133 23.7557 -0.0035 -12.2725
# 5 -4.0097 -6.5661 -35.3952 -0.0035 26.1661 -0.0008
# 6 0.0005 -0.0023 -0.0046 -12.2725 -0.0008 24.0072
#
#
#
# Elastic Compliance Matrix: (Units=1/GPa)
#
#
# Indices 1 2 3 4 5 6 
#
# 1 0.003291 -0.001546 0.008026 0.000009 0.010973 0.000006
# 2 -0.001546 0.027987 -0.006653 0.000004 -0.002214 0.000003
# 3 0.008026 -0.006653 -0.001831 -0.000006 -0.002916 -0.000004
# 4 0.000009 0.000004 -0.000006 0.057202 0.000003 0.029241
# 5 0.010973 -0.002214 -0.002916 0.000003 0.035398 0.000002
# 6 0.000006 0.000003 -0.000004 0.029241 0.000002 0.056602
#
#
# Mechanical properties :
#
#
# Convention : Reuss Voigt Hill
#
# Bulk Modulus (GPa) = 34.36483 43.11329 38.73906
# Shear Modulus (GPa) = 26.49746 10.78026 18.63886
#
# Velocity S-wave (km/s) = 3.61700 2.30707 3.03358
# Velocity P-wave (km/s) = 5.86605 5.32759 5.60329
#
# Compressibility (1/GPa) = 0.02909952
#
# Stress axis : x y z
#
# Youngs Moduli (GPa) = 303.86512 35.73050 -546.18408
#
# Poissons Ratio (x) = 0.05525 4.38342
# Poissons Ratio (y) = 0.46983 -3.63391
# Poissons Ratio (z) = -2.43868 0.23772
#
# Static dielectric constant tensor:
#      x y z
#    x 1.750770 0.000000 -0.023400 
#    y 0.000000 1.715800 0.000000 
#    z -0.023400 0.000000 1.709080 
# 
# From -- ./inp_files/249275.got.cif
#   From: 2010.05.17/outbox.cif.g08.bks.cpg/sg15_125_cif.got.tgz:249275.got - 2010.06.03 18:47:42.
