data_PCOD9302063
_publ_section_title
;
Structure prediction by ZEFSAII (Michael W. Deem and Ramdas Pophale) SiO2 
 PCOD9302063
Probable space group: C 2/C
;
_chemical_formula_sum "Si O2"
_cell_formula_units_Z 48
_cell_length_a 14.051878
_cell_length_b 16.634683
_cell_length_c 17.746631
_cell_angle_alpha 90.000000
_cell_angle_beta 32.734238
_cell_angle_gamma 90.000000
_cell_volume 2243.136959
_symmetry_space_group_name_H-M "C 2/C"
_symmetry_group_IT_number 15
_symmetry_cell_setting 'monoclinic'
loop_
_space_group_symop_operation_xyz
x,y,z
-x,y,1/2-z
-x,-y,-z
x,-y,1/2+z
1/2+x,1/2+y,z
1/2-x,1/2+y,1/2-z
1/2-x,1/2-y,-z
1/2+x,1/2-y,1/2+z
loop_
_atom_site_type_symbol
_atom_site_label
_atom_site_fract_x
_atom_site_fract_y
_atom_site_fract_z
Si Si1 0.208528 0.768691 0.113672
Si Si2 0.953223 0.617445 0.864925
Si Si3 0.321911 0.556015 0.347316
Si Si4 0.240922 0.413965 0.302831
Si Si5 0.090919 0.213967 0.302425
Si Si6 0.952895 0.182290 0.554155
O O1 0.247121 0.851378 0.134664
O O2 0.000000 0.755547 0.250000
O O3 0.250000 0.750000 0.000000
O O4 0.351612 0.711137 0.056699
O O5 0.000000 0.588867 0.750000
O O6 0.081169 0.597835 0.850696
O O7 0.969004 0.713999 0.852972
O O8 0.776957 0.576560 0.010280
O O9 0.500000 0.510496 0.250000
O O10 0.228776 0.500968 0.347801
O O11 0.366943 0.640780 0.279678
O O12 0.404675 0.393988 0.138018
O O13 0.977297 0.178497 0.448128
O O14 0.287350 0.256509 0.183599
#
# Coordination Sequence:
#
# PCOD9302063 Si02
#       6
#     8   8   8   8   8   8
#     4  12  21  38  69  99 134 188 231 274 333 418
#     4  11  25  47  75  99 133 186 240 279 346 427
#     4  12  27  43  68 104 142 179 222 292 360 402
#     4  11  25  46  68  98 148 174 228 298 349 402
#     4  11  22  43  72  99 137 181 234 287 345 415
#     4  11  21  41  70 101 132 187 233 281 340 410
#
# _framework density 21.398603999999999
#
# number of rings (size 3 to 8) (size 9 to 14) (size 15 to 20)
#    0.000    0.667    6.667    1.500    4.667    2.000 
#    0.000    0.833    0.000    0.000    0.000    0.000 
#    0.000    0.000    0.000    0.000    0.000    0.000 
#
# Total GULP energy -133601.643324 kJ/mol
# GULP energy per Si atom -5566.735139 kJ/mol
# Density = 2.134990 g / cm^3
# Si number density = 21.398604 Si / 1000 Ang^3
#
#
#
# Elastic Constant Matrix: (Units=GPa)
#
#
# Indices 1 2 3 4 5 6 
#
# 1 86.7831 19.4653 52.1810 -0.0037 21.1317 -0.0023
# 2 19.4653 51.1038 49.6633 -0.0044 18.8861 -0.0047
# 3 52.1810 49.6633 163.8096 0.0031 36.3389 0.0098
# 4 -0.0037 -0.0044 0.0031 17.9701 0.0007 18.8689
# 5 21.1317 18.8861 36.3389 0.0007 55.7966 -0.0023
# 6 -0.0023 -0.0047 0.0098 18.8689 -0.0023 72.3352
#
#
#
# Elastic Compliance Matrix: (Units=1/GPa)
#
#
# Indices 1 2 3 4 5 6 
#
# 1 0.014679 -0.000874 -0.003791 0.000004 -0.002794 0.000000
# 2 -0.000874 0.028829 -0.007446 0.000008 -0.004577 0.000001
# 3 -0.003791 -0.007446 0.010160 -0.000003 -0.002661 -0.000001
# 4 0.000004 0.000008 -0.000003 0.076640 -0.000004 -0.019992
# 5 -0.002794 -0.004577 -0.002661 -0.000004 0.022263 0.000002
# 6 0.000000 0.000001 -0.000001 -0.019992 0.000002 0.019039
#
#
# Mechanical properties :
#
#
# Convention : Reuss Voigt Hill
#
# Bulk Modulus (GPa) = 33.96189 60.47953 47.22071
# Shear Modulus (GPa) = 24.31335 41.24619 32.77977
#
# Velocity S-wave (km/s) = 3.37443 4.39511 3.91815
# Velocity P-wave (km/s) = 5.57565 7.35396 6.52566
#
# Compressibility (1/GPa) = 0.02944477
#
# Stress axis : x y z
#
# Youngs Moduli (GPa) = 68.12470 34.68712 98.42443
#
# Poissons Ratio (x) = 0.03033 0.37312
# Poissons Ratio (y) = 0.05957 0.73291
# Poissons Ratio (z) = 0.25826 0.25829
#
# Static dielectric constant tensor:
#      x y z
#    x 0.881290 -0.000010 -0.212770 
#    y -0.000010 1.777920 0.000000 
#    z -0.212770 0.000000 1.776460 
# 
# From -- ./inp_files/206398.got.cif
#   From: 2010.05.17/outbox.cif.g08.bks.cpg/sg15_104_cif.got.tgz:206398.got - 2010.06.03 18:47:42.
