data_PCOD9302912
_publ_section_title
;
Structure prediction by ZEFSAII (Michael W. Deem and Ramdas Pophale) SiO2 
 PCOD9302912
Probable space group: C 2/C
;
_chemical_formula_sum "Si O2"
_cell_formula_units_Z 48
_cell_length_a 23.394552
_cell_length_b 4.882588
_cell_length_c 20.341156
_cell_angle_alpha 90.000000
_cell_angle_beta 131.113872
_cell_angle_gamma 90.000000
_cell_volume 1750.525682
_symmetry_space_group_name_H-M "C 2/C"
_symmetry_group_IT_number 15
_symmetry_cell_setting 'monoclinic'
loop_
_space_group_symop_operation_xyz
x,y,z
-x,y,1/2-z
-x,-y,-z
x,-y,1/2+z
1/2+x,1/2+y,z
1/2-x,1/2+y,1/2-z
1/2-x,1/2-y,-z
1/2+x,1/2-y,1/2+z
loop_
_atom_site_type_symbol
_atom_site_label
_atom_site_fract_x
_atom_site_fract_y
_atom_site_fract_z
Si Si1 0.853944 0.308203 0.293853
Si Si2 0.982252 0.676067 0.420674
Si Si3 0.563594 0.696022 0.427494
Si Si4 0.710159 0.680494 0.902992
Si Si5 0.383556 0.200608 0.673447
Si Si6 0.694271 0.486416 0.121722
O O1 0.898549 0.221081 0.260807
O O2 0.765046 0.330129 0.208591
O O3 0.857013 0.122796 0.360603
O O4 0.894748 0.597141 0.340640
O O5 0.035366 0.505734 0.411516
O O6 0.000000 0.500000 0.500000
O O7 0.010146 0.982011 0.427169
O O8 0.571355 0.674625 0.354128
O O9 0.642045 0.661860 0.527891
O O10 0.695287 0.360605 0.894033
O O11 0.763101 0.767526 0.883515
O O12 0.635163 0.877262 0.842388
O O13 0.750000 0.750000 0.000000
#
# Coordination Sequence:
#
# PCOD9302912 Si02
#       6
#     8   8   8   8   8   8
#     4  11  27  45  74 113 155 192 254 320 378 441
#     4  12  28  51  76 109 150 199 252 311 376 459
#     4  12  27  48  82 105 147 205 254 299 385 460
#     4  11  22  40  71 110 146 186 242 308 369 440
#     4  11  25  45  71 107 150 191 247 308 375 441
#     4  11  25  44  78 111 145 198 250 312 375 446
#
# _framework density 27.420335000000001
#
# number of rings (size 3 to 8) (size 9 to 14) (size 15 to 20)
#    0.000    0.667    3.333    3.000    4.667    3.333 
#    0.000    1.667    0.000    0.000    0.000    0.000 
#    0.000    0.000    0.000    0.000    0.000    0.000 
#
# Total GULP energy -134211.833426 kJ/mol
# GULP energy per Si atom -5592.159726 kJ/mol
# Density = 2.735793 g / cm^3
# Si number density = 27.420335 Si / 1000 Ang^3
#
#
#
# Elastic Constant Matrix: (Units=GPa)
#
#
# Indices 1 2 3 4 5 6 
#
# 1 170.7967 30.1224 38.0418 0.0004 -29.2593 0.0021
# 2 30.1224 98.1648 5.4254 -0.0074 -4.1296 0.0271
# 3 38.0418 5.4254 112.4149 0.0022 -12.4202 -0.0009
# 4 0.0004 -0.0074 0.0022 36.8691 -0.0007 2.6013
# 5 -29.2593 -4.1296 -12.4202 -0.0007 68.5872 -0.0007
# 6 0.0021 0.0271 -0.0009 2.6013 -0.0007 49.9406
#
#
#
# Elastic Compliance Matrix: (Units=1/GPa)
#
#
# Indices 1 2 3 4 5 6 
#
# 1 0.007085 -0.001956 -0.002023 0.000000 0.002539 0.000001
# 2 -0.001956 0.010773 0.000124 0.000003 -0.000163 -0.000006
# 3 -0.002023 0.000124 0.009673 -0.000001 0.000896 0.000000
# 4 0.000000 0.000003 -0.000001 0.027223 0.000000 -0.001418
# 5 0.002539 -0.000163 0.000896 0.000000 0.015815 0.000000
# 6 0.000001 -0.000006 0.000000 -0.001418 0.000000 0.020098
#
#
# Mechanical properties :
#
#
# Convention : Reuss Voigt Hill
#
# Bulk Modulus (GPa) = 50.44753 58.72839 54.58796
# Shear Modulus (GPa) = 47.62609 51.59851 49.61230
#
# Velocity S-wave (km/s) = 4.17212 4.34263 4.25823
# Velocity P-wave (km/s) = 6.45342 6.82707 6.64287
#
# Compressibility (1/GPa) = 0.01982258
#
# Stress axis : x y z
#
# Youngs Moduli (GPa) = 141.13881 92.82188 103.37846
#
# Poissons Ratio (x) = 0.18152 0.20912
# Poissons Ratio (y) = 0.27600 -0.01280
# Poissons Ratio (z) = 0.28550 -0.01149
#
# Static dielectric constant tensor:
#      x y z
#    x 2.276310 -0.000010 0.006500 
#    y -0.000010 2.135500 0.000000 
#    z 0.006500 0.000000 2.227440 
# 
# From -- ./inp_files/254438.got.cif
#   From: 2010.05.17/outbox.cif.g08.bks.cpg/sg15_128_cif.got.tgz:254438.got - 2010.06.03 18:47:42.
