data_PCOD9302077
_publ_section_title
;
Structure prediction by ZEFSAII (Michael W. Deem and Ramdas Pophale) SiO2 
 PCOD9302077
Probable space group: C 2/C
;
_chemical_formula_sum "Si O2"
_cell_formula_units_Z 60
_cell_length_a 17.203513
_cell_length_b 17.425520
_cell_length_c 15.708247
_cell_angle_alpha 90.000000
_cell_angle_beta 148.194204
_cell_angle_gamma 90.000000
_cell_volume 2481.850643
_symmetry_space_group_name_H-M "C 2/C"
_symmetry_group_IT_number 15
_symmetry_cell_setting 'monoclinic'
loop_
_space_group_symop_operation_xyz
x,y,z
-x,y,1/2-z
-x,-y,-z
x,-y,1/2+z
1/2+x,1/2+y,z
1/2-x,1/2+y,1/2-z
1/2-x,1/2-y,-z
1/2+x,1/2-y,1/2+z
loop_
_atom_site_type_symbol
_atom_site_label
_atom_site_fract_x
_atom_site_fract_y
_atom_site_fract_z
Si Si1 0.500000 0.922002 0.250000
Si Si2 0.863341 0.721278 0.531309
Si Si3 0.796811 0.551665 0.702284
Si Si4 0.002118 0.125743 0.135858
Si Si5 0.859120 0.283559 0.819286
Si Si6 0.395911 0.534816 0.730269
Si Si7 0.634811 0.595248 0.082885
Si Si8 0.826491 0.358246 0.396578
O O1 0.588153 0.862198 0.391920
O O2 0.594700 0.970449 0.272340
O O3 0.750000 0.750000 0.500000
O O4 0.989926 0.786948 0.653062
O O5 0.833538 0.715296 0.400089
O O6 0.664036 0.594613 0.529794
O O7 0.736826 0.477922 0.694760
O O8 0.858237 0.604740 0.833525
O O9 0.062684 0.129041 0.098414
O O10 0.100037 0.058759 0.270679
O O11 0.748845 0.339243 0.663837
O O12 0.809965 0.199774 0.743625
O O13 0.023937 0.310565 0.948222
O O14 0.500000 0.562069 0.750000
O O15 0.239424 0.576484 0.600667
O O16 0.501442 0.559367 0.906030
#
# Coordination Sequence:
#
# PCOD9302077 Si02
#       8
#     4   8   8   8   8   8   8   8
#     4  12  24  40  62 102 158 184 228 306 364 422
#     4  12  24  38  62 108 150 183 232 288 365 440
#     4  11  21  43  65  95 148 190 232 298 352 436
#     4  11  21  41  71  99 141 192 235 278 361 451
#     4  12  26  43  75  97 140 195 244 292 373 442
#     4  11  24  45  73 103 137 183 247 306 358 423
#     4  11  24  46  70 102 135 197 250 289 357 440
#     4  12  22  47  67 103 136 186 242 302 363 440
#
# _framework density 24.175508000000001
#
# number of rings (size 3 to 8) (size 9 to 14) (size 15 to 20)
#    0.000    0.533    6.667    2.400    2.800    0.533 
#    4.800    2.667    0.000    0.000    0.000    0.000 
#    0.000    0.000    0.000    0.000    0.000    0.000 
#
# Total GULP energy -167464.203900 kJ/mol
# GULP energy per Si atom -5582.140130 kJ/mol
# Density = 2.412048 g / cm^3
# Si number density = 24.175508 Si / 1000 Ang^3
#
#
#
# Elastic Constant Matrix: (Units=GPa)
#
#
# Indices 1 2 3 4 5 6 
#
# 1 102.8644 2.3496 30.0185 0.0001 32.9373 0.0001
# 2 2.3496 62.7882 25.6111 0.0000 4.7195 0.0001
# 3 30.0185 25.6111 38.8344 0.0001 25.2445 0.0002
# 4 0.0001 0.0000 0.0001 12.7992 0.0002 21.9048
# 5 32.9373 4.7195 25.2445 0.0002 31.3653 0.0002
# 6 0.0001 0.0001 0.0002 21.9048 0.0002 28.2877
#
#
#
# Elastic Compliance Matrix: (Units=1/GPa)
#
#
# Indices 1 2 3 4 5 6 
#
# 1 0.015069 0.002791 -0.006144 0.000000 -0.011299 0.000000
# 2 0.002791 0.028003 -0.033517 0.000000 0.019832 0.000000
# 3 -0.006144 -0.033517 0.094655 0.000000 -0.064689 0.000000
# 4 0.000000 0.000000 0.000000 -0.240211 0.000001 0.186010
# 5 -0.011299 0.019832 -0.064689 0.000001 0.092829 -0.000001
# 6 0.000000 0.000000 0.000000 0.186010 -0.000001 -0.108687
#
#
# Mechanical properties :
#
#
# Convention : Reuss Voigt Hill
#
# Bulk Modulus (GPa) = 15.62801 35.60504 25.61652
# Shear Modulus (GPa) = -214.83448 24.25762 -95.28843
#
# Velocity S-wave (km/s) = -9.43702 3.17108 -6.28497
# Velocity P-wave (km/s) = 10.59551 5.30729 6.48450
#
# Compressibility (1/GPa) = 0.06398767
#
# Stress axis : x y z
#
# Youngs Moduli (GPa) = 66.36281 35.71037 10.56463
#
# Poissons Ratio (x) = -0.09969 0.06491
# Poissons Ratio (y) = -0.18525 0.35410
# Poissons Ratio (z) = 0.40773 1.19692
#
# Static dielectric constant tensor:
#      x y z
#    x 1.962670 0.000000 -0.028210 
#    y 0.000000 1.964570 0.000000 
#    z -0.028210 0.000000 2.059530 
# 
# From -- ./inp_files/211765.got.cif
#   From: 2010.05.17/outbox.cif.g08.bks.cpg/sg15_106_cif.got.tgz:211765.got - 2010.06.03 18:47:42.
