data_PCOD9302386
_publ_section_title
;
Structure prediction by ZEFSAII (Michael W. Deem and Ramdas Pophale) SiO2 
 PCOD9302386
Probable space group: C 2/C
;
_chemical_formula_sum "Si O2"
_cell_formula_units_Z 48
_cell_length_a 8.624400
_cell_length_b 17.970710
_cell_length_c 13.612376
_cell_angle_alpha 90.000000
_cell_angle_beta 57.138054
_cell_angle_gamma 90.000000
_cell_volume 1772.136765
_symmetry_space_group_name_H-M "C 2/C"
_symmetry_group_IT_number 15
_symmetry_cell_setting 'monoclinic'
loop_
_space_group_symop_operation_xyz
x,y,z
-x,y,1/2-z
-x,-y,-z
x,-y,1/2+z
1/2+x,1/2+y,z
1/2-x,1/2+y,1/2-z
1/2-x,1/2-y,-z
1/2+x,1/2-y,1/2+z
loop_
_atom_site_type_symbol
_atom_site_label
_atom_site_fract_x
_atom_site_fract_y
_atom_site_fract_z
Si Si1 0.785754 0.021521 0.563117
Si Si2 0.340640 0.871877 0.886804
Si Si3 0.420395 0.690149 0.180855
Si Si4 0.532573 0.847126 0.120560
Si Si5 0.164203 0.917245 0.261858
Si Si6 0.959650 0.234240 0.647511
O O1 0.702891 0.096763 0.542496
O O2 0.741983 0.026303 0.695026
O O3 0.686113 0.950060 0.551819
O O4 0.000000 0.000000 0.500000
O O5 0.500000 0.880110 0.750000
O O6 0.160885 0.853674 0.882704
O O7 0.399437 0.799844 0.930706
O O8 0.500000 0.649866 0.250000
O O9 0.541504 0.758971 0.096315
O O10 0.240889 0.729883 0.290730
O O11 0.500000 0.849142 0.250000
O O12 0.337170 0.878854 0.148503
O O13 0.000000 0.946366 0.250000
O O14 0.066943 0.853058 0.364494
O O15 0.000000 0.227009 0.750000
#
# Coordination Sequence:
#
# PCOD9302386 Si02
#       6
#     8   8   8   8   8   8
#     4  11  22  34  47  72 108 141 165 195 245 303
#     4   9  17  31  50  72  96 125 161 206 250 291
#     4   8  13  24  48  77  94 112 158 213 245 276
#     4   8  15  30  52  72  96 133 168 198 245 306
#     4   9  16  31  56  77  91 123 173 212 243 292
#     4   7  13  26  48  74  93 116 160 208 243 284
#
# _framework density 27.085944999999999
#
# number of rings (size 3 to 8) (size 9 to 14) (size 15 to 20)
#    0.000    3.667    0.000    3.500    0.000    0.667 
#    0.000    2.500    0.000    0.000    0.000    0.000 
#    0.000    0.000    0.000    0.000    0.000    0.000 
#
# Total GULP energy -133797.316452 kJ/mol
# GULP energy per Si atom -5574.888185 kJ/mol
# Density = 2.702430 g / cm^3
# Si number density = 27.085945 Si / 1000 Ang^3
#
#
#
# Elastic Constant Matrix: (Units=GPa)
#
#
# Indices 1 2 3 4 5 6 
#
# 1 123.1843 22.3076 19.6629 0.0000 -18.2895 0.0000
# 2 22.3076 155.0445 29.0089 0.0000 -18.8898 0.0000
# 3 19.6629 29.0089 62.8104 0.0000 -6.4725 0.0000
# 4 0.0000 0.0000 0.0000 25.8949 0.0000 -8.4346
# 5 -18.2895 -18.8898 -6.4725 0.0000 31.6986 0.0000
# 6 0.0000 0.0000 0.0000 -8.4346 0.0000 41.8175
#
#
#
# Elastic Compliance Matrix: (Units=1/GPa)
#
#
# Indices 1 2 3 4 5 6 
#
# 1 0.009231 -0.000338 -0.002253 0.000000 0.004665 0.000000
# 2 -0.000338 0.007503 -0.002981 0.000000 0.003667 0.000000
# 3 -0.002253 -0.002981 0.018066 0.000000 0.000612 0.000000
# 4 0.000000 0.000000 0.000000 0.041333 0.000000 0.008337
# 5 0.004665 0.003667 0.000612 0.000000 0.036549 0.000000
# 6 0.000000 0.000000 0.000000 0.008337 0.000000 0.025595
#
#
# Mechanical properties :
#
#
# Convention : Reuss Voigt Hill
#
# Bulk Modulus (GPa) = 42.27395 53.66645 47.97020
# Shear Modulus (GPa) = 31.78470 37.88619 34.83544
#
# Velocity S-wave (km/s) = 3.42932 3.74403 3.59013
# Velocity P-wave (km/s) = 5.59656 6.20860 5.91051
#
# Compressibility (1/GPa) = 0.02365523
#
# Stress axis : x y z
#
# Youngs Moduli (GPa) = 108.32611 133.27871 55.35167
#
# Poissons Ratio (x) = 0.04510 0.12470
# Poissons Ratio (y) = 0.03665 0.16503
# Poissons Ratio (z) = 0.24405 0.39737
#
# Static dielectric constant tensor:
#      x y z
#    x 2.123200 0.000000 -0.020790 
#    y 0.000000 2.273390 0.000000 
#    z -0.020790 0.000000 2.256860 
# 
# From -- ./inp_files/233394.got.cif
#   From: 2010.05.17/outbox.cif.g08.bks.cpg/sg15_117_cif.got.tgz:233394.got - 2010.06.03 18:47:42.
