data_PCOD9302524
_publ_section_title
;
Structure prediction by ZEFSAII (Michael W. Deem and Ramdas Pophale) SiO2 
 PCOD9302524
Probable space group: C 2/C
;
_chemical_formula_sum "Si O2"
_cell_formula_units_Z 52
_cell_length_a 20.167206
_cell_length_b 26.150579
_cell_length_c 5.246206
_cell_angle_alpha 90.000000
_cell_angle_beta 62.425528
_cell_angle_gamma 90.000000
_cell_volume 2452.488541
_symmetry_space_group_name_H-M "C 2/C"
_symmetry_group_IT_number 15
_symmetry_cell_setting 'monoclinic'
loop_
_space_group_symop_operation_xyz
x,y,z
-x,y,1/2-z
-x,-y,-z
x,-y,1/2+z
1/2+x,1/2+y,z
1/2-x,1/2+y,1/2-z
1/2-x,1/2-y,-z
1/2+x,1/2-y,1/2+z
loop_
_atom_site_type_symbol
_atom_site_label
_atom_site_fract_x
_atom_site_fract_y
_atom_site_fract_z
Si Si1 0.255342 0.033878 0.877737
Si Si2 0.842755 0.106787 0.192347
Si Si3 0.709748 0.879032 0.525462
Si Si4 0.437118 0.740081 0.572016
Si Si5 0.000000 0.143082 0.750000
Si Si6 0.212331 0.205967 0.906516
Si Si7 0.546732 0.146116 0.404038
O O1 0.299070 0.084361 0.706295
O O2 0.268759 0.996297 0.615519
O O3 0.174891 0.060511 0.081081
O O4 0.781028 0.102922 0.071828
O O5 0.822810 0.161109 0.356608
O O6 0.930019 0.109640 0.968786
O O7 0.732876 0.823502 0.381378
O O8 0.629281 0.877333 0.800570
O O9 0.459646 0.684996 0.642753
O O10 0.354987 0.732251 0.617667
O O11 0.437521 0.794686 0.710015
O O12 0.500000 0.748204 0.250000
O O13 0.250000 0.250000 0.000000
O O14 0.500000 0.123060 0.250000
O O15 0.500000 0.143169 0.750000
#
# Coordination Sequence:
#
# PCOD9302524 Si02
#       7
#     8   8   8   8   4   8   8
#     4  11  24  48  78 103 131 172 230 295 368 418
#     4  11  24  41  68 104 134 185 232 285 338 418
#     4  11  25  43  72 101 135 181 235 283 352 418
#     4  11  22  38  56  88 142 200 228 269 327 392
#     4  12  22  40  62  96 146 188 238 270 338 398
#     4  11  24  36  62  98 141 184 240 287 326 404
#     4  11  27  42  64  99 141 185 233 278 336 406
#
# _framework density 21.202953000000001
#
# number of rings (size 3 to 8) (size 9 to 14) (size 15 to 20)
#    0.000    0.923    5.385    0.923   10.769    1.231 
#    0.000    0.769    0.000    2.769    0.000    0.000 
#    0.000    0.000    0.000    0.000    0.000    0.000 
#
# Total GULP energy -144882.830530 kJ/mol
# GULP energy per Si atom -5572.416559 kJ/mol
# Density = 2.115469 g / cm^3
# Si number density = 21.202953 Si / 1000 Ang^3
#
#
#
# Elastic Constant Matrix: (Units=GPa)
#
#
# Indices 1 2 3 4 5 6 
#
# 1 133.4563 21.1519 57.1695 0.0000 -10.8563 0.0000
# 2 21.1519 30.7545 10.2122 0.0000 1.4114 0.0000
# 3 57.1695 10.2122 121.1044 0.0000 -20.6166 0.0000
# 4 0.0000 0.0000 0.0000 61.4274 0.0000 25.0750
# 5 -10.8563 1.4114 -20.6166 0.0000 40.6505 0.0000
# 6 0.0000 0.0000 0.0000 25.0750 0.0000 19.6601
#
#
#
# Elastic Compliance Matrix: (Units=1/GPa)
#
#
# Indices 1 2 3 4 5 6 
#
# 1 0.010275 -0.005697 -0.004235 0.000000 0.000794 0.000000
# 2 -0.005697 0.036913 -0.000986 0.000000 -0.003303 0.000000
# 3 -0.004235 -0.000986 0.011112 0.000000 0.004539 0.000000
# 4 0.000000 0.000000 0.000000 0.033960 0.000000 -0.043314
# 5 0.000794 -0.003303 0.004539 0.000000 0.027229 0.000000
# 6 0.000000 0.000000 0.000000 -0.043314 0.000000 0.106109
#
#
# Mechanical properties :
#
#
# Convention : Reuss Voigt Hill
#
# Bulk Modulus (GPa) = 27.42357 51.37583 39.39970
# Shear Modulus (GPa) = 19.26138 37.46635 28.36386
#
# Velocity S-wave (km/s) = 3.01729 4.20817 3.66147
# Velocity P-wave (km/s) = 5.01005 6.92060 6.04133
#
# Compressibility (1/GPa) = 0.03646498
#
# Stress axis : x y z
#
# Youngs Moduli (GPa) = 97.32668 27.09102 89.99058
#
# Poissons Ratio (x) = 0.15433 0.38109
# Poissons Ratio (y) = 0.55446 0.08870
# Poissons Ratio (z) = 0.41216 0.02670
#
# Static dielectric constant tensor:
#      x y z
#    x 1.795090 0.000000 0.054290 
#    y 0.000000 1.827170 0.000000 
#    z 0.054290 0.000000 1.809060 
# 
# From -- ./inp_files/14374.got.cif
#   From: 2010.05.17/outbox.cif.g08.bks.cpg/sg15_8_cif.got.tgz:14374.got - 2010.06.03 18:47:42.
