data_PCOD9302442
_publ_section_title
;
Structure prediction by ZEFSAII (Michael W. Deem and Ramdas Pophale) SiO2 
 PCOD9302442
Probable space group: C 2/C
;
_chemical_formula_sum "Si O2"
_cell_formula_units_Z 60
_cell_length_a 17.151194
_cell_length_b 27.182311
_cell_length_c 7.781971
_cell_angle_alpha 90.000000
_cell_angle_beta 128.143694
_cell_angle_gamma 90.000000
_cell_volume 2853.312403
_symmetry_space_group_name_H-M "C 2/C"
_symmetry_group_IT_number 15
_symmetry_cell_setting 'monoclinic'
loop_
_space_group_symop_operation_xyz
x,y,z
-x,y,1/2-z
-x,-y,-z
x,-y,1/2+z
1/2+x,1/2+y,z
1/2-x,1/2+y,1/2-z
1/2-x,1/2-y,-z
1/2+x,1/2-y,1/2+z
loop_
_atom_site_type_symbol
_atom_site_label
_atom_site_fract_x
_atom_site_fract_y
_atom_site_fract_z
Si Si1 0.890523 0.017953 0.390675
Si Si2 0.344265 0.654725 0.710411
Si Si3 0.727013 0.306340 0.749024
Si Si4 0.578741 0.980029 0.472139
Si Si5 0.761675 0.414799 0.934046
Si Si6 0.883254 0.769714 0.567874
Si Si7 0.278002 0.064238 0.838407
Si Si8 0.000000 0.908537 0.250000
O O1 0.841264 0.055373 0.190221
O O2 0.910450 0.055355 0.574448
O O3 0.815368 0.973085 0.302199
O O4 0.000000 0.000000 0.500000
O O5 0.317179 0.686910 0.503430
O O6 0.259453 0.612980 0.617685
O O7 0.449141 0.626903 0.819875
O O8 0.355253 0.685666 0.900094
O O9 0.742342 0.360734 0.844230
O O10 0.658288 0.279024 0.796232
O O11 0.829754 0.276711 0.905159
O O12 0.500000 0.951067 0.250000
O O13 0.671386 0.943632 0.615383
O O14 0.500000 0.000000 0.500000
O O15 0.633569 0.029260 0.471579
O O16 0.807780 0.420010 0.185451
O O17 0.000000 0.764273 0.750000
#
# Coordination Sequence:
#
# PCOD9302442 Si02
#       8
#     8   8   8   8   8   8   8   4
#     4  11  22  36  58  98 144 178 216 264 319 395
#     4  12  24  43  71 100 138 179 225 279 348 407
#     4  11  25  47  71 100 136 171 225 289 347 414
#     4  11  24  41  62  91 131 183 235 280 322 388
#     4  11  23  41  65  94 133 181 221 274 339 399
#     4  11  26  48  73 100 131 172 226 289 357 416
#     4  11  24  39  62  96 136 180 225 270 336 396
#     4  12  22  36  62 104 136 188 222 260 328 412
#
# _framework density 21.028189999999999
#
# number of rings (size 3 to 8) (size 9 to 14) (size 15 to 20)
#    0.000    0.800    5.333    2.000    3.733    0.533 
#    1.200    0.000    0.000    0.000    0.000    0.000 
#    0.000    0.000    0.000    0.000    0.000    0.000 
#
# Total GULP energy -167181.621305 kJ/mol
# GULP energy per Si atom -5572.720710 kJ/mol
# Density = 2.098033 g / cm^3
# Si number density = 21.028190 Si / 1000 Ang^3
#
#
#
# Elastic Constant Matrix: (Units=GPa)
#
#
# Indices 1 2 3 4 5 6 
#
# 1 89.2123 23.2422 28.9444 0.0000 17.8023 0.0000
# 2 23.2422 71.5370 24.2932 0.0000 10.0170 0.0000
# 3 28.9444 24.2932 97.7262 0.0000 7.9788 0.0000
# 4 0.0000 0.0000 0.0000 25.7566 0.0000 0.7056
# 5 17.8023 10.0170 7.9788 0.0000 38.8318 0.0000
# 6 0.0000 0.0000 0.0000 0.7056 0.0000 19.1537
#
#
#
# Elastic Compliance Matrix: (Units=1/GPa)
#
#
# Indices 1 2 3 4 5 6 
#
# 1 0.013922 -0.002792 -0.003018 0.000000 -0.005042 0.000000
# 2 -0.002792 0.016232 -0.003021 0.000000 -0.002286 0.000000
# 3 -0.003018 -0.003021 0.011901 0.000000 -0.000282 0.000000
# 4 0.000000 0.000000 0.000000 0.038864 0.000000 -0.001432
# 5 -0.005042 -0.002286 -0.000282 0.000000 0.028711 0.000000
# 6 0.000000 0.000000 0.000000 -0.001432 0.000000 0.052262
#
#
# Mechanical properties :
#
#
# Convention : Reuss Voigt Hill
#
# Bulk Modulus (GPa) = 40.99719 45.71502 43.35611
# Shear Modulus (GPa) = 26.64033 28.88149 27.76091
#
# Velocity S-wave (km/s) = 3.56320 3.71005 3.63736
# Velocity P-wave (km/s) = 6.03880 6.33559 6.18897
#
# Compressibility (1/GPa) = 0.02439192
#
# Stress axis : x y z
#
# Youngs Moduli (GPa) = 71.82930 61.60599 84.02996
#
# Poissons Ratio (x) = 0.17203 0.25356
# Poissons Ratio (y) = 0.20058 0.25388
# Poissons Ratio (z) = 0.21675 0.18613
#
# Static dielectric constant tensor:
#      x y z
#    x 1.805960 0.000000 -0.087890 
#    y 0.000000 1.743750 0.000000 
#    z -0.087890 0.000000 1.865030 
# 
# From -- ./inp_files/52204.got.cif
#   From: 2010.05.17/outbox.cif.g08.bks.cpg/sg15_27_cif.got.tgz:52204.got - 2010.06.03 18:47:42.
