data_PCOD9302984
_publ_section_title
;
Structure prediction by ZEFSAII (Michael W. Deem and Ramdas Pophale) SiO2 
 PCOD9302984
Probable space group: C 2/C
;
_chemical_formula_sum "Si O2"
_cell_formula_units_Z 40
_cell_length_a 19.958661
_cell_length_b 13.432086
_cell_length_c 11.825480
_cell_angle_alpha 90.000000
_cell_angle_beta 37.190902
_cell_angle_gamma 90.000000
_cell_volume 1916.329926
_symmetry_space_group_name_H-M "C 2/C"
_symmetry_group_IT_number 15
_symmetry_cell_setting 'monoclinic'
loop_
_space_group_symop_operation_xyz
x,y,z
-x,y,1/2-z
-x,-y,-z
x,-y,1/2+z
1/2+x,1/2+y,z
1/2-x,1/2+y,1/2-z
1/2-x,1/2-y,-z
1/2+x,1/2-y,1/2+z
loop_
_atom_site_type_symbol
_atom_site_label
_atom_site_fract_x
_atom_site_fract_y
_atom_site_fract_z
Si Si1 0.641522 0.569005 0.737360
Si Si2 0.500000 0.303747 0.250000
Si Si3 0.028418 0.123071 0.342569
Si Si4 0.134991 0.371433 0.454825
Si Si5 0.848738 0.682582 0.816882
Si Si6 0.000000 0.535389 0.750000
O O1 0.577910 0.627817 0.723578
O O2 0.630704 0.451681 0.727369
O O3 0.764100 0.607350 0.595324
O O4 0.571781 0.586892 0.945301
O O5 0.425007 0.230484 0.427186
O O6 0.055744 0.235931 0.334883
O O7 0.000000 0.116961 0.250000
O O8 0.178043 0.364899 0.268594
O O9 0.049319 0.462009 0.588137
O O10 0.902691 0.603631 0.829630
O O11 0.750000 0.750000 0.000000
#
# Coordination Sequence:
#
# PCOD9302984 Si02
#       6
#     8   4   8   8   8   4
#     4  11  23  42  65  99 133 178 226 287 343 410
#     4  11  22  45  66  94 140 179 228 285 340 420
#     4  11  22  41  66  95 134 170 231 287 336 406
#     4  11  25  43  67 101 135 185 230 281 351 411
#     4  12  24  43  71 100 134 185 233 287 347 411
#     4  11  26  47  66 100 148 177 230 287 348 416
#
# _framework density 20.873232000000002
#
# number of rings (size 3 to 8) (size 9 to 14) (size 15 to 20)
#    0.000    0.800    4.000    3.600    0.000    0.000 
#    0.000    0.000    0.000    0.000    0.000    0.000 
#    0.000    0.000    0.000    0.000    0.000    0.000 
#
# Total GULP energy -111824.434798 kJ/mol
# GULP energy per Si atom -5591.221740 kJ/mol
# Density = 2.082572 g / cm^3
# Si number density = 20.873232 Si / 1000 Ang^3
#
#
#
# Elastic Constant Matrix: (Units=GPa)
#
#
# Indices 1 2 3 4 5 6 
#
# 1 96.8198 22.9059 30.7478 0.0000 12.7551 0.0000
# 2 22.9059 103.7144 14.1236 0.0000 5.0022 0.0000
# 3 30.7478 14.1236 68.9917 0.0000 8.4506 0.0000
# 4 0.0000 0.0000 0.0000 25.7104 0.0000 -6.0087
# 5 12.7551 5.0022 8.4506 0.0000 35.6566 0.0000
# 6 0.0000 0.0000 0.0000 -6.0087 0.0000 19.3638
#
#
#
# Elastic Compliance Matrix: (Units=1/GPa)
#
#
# Indices 1 2 3 4 5 6 
#
# 1 0.012770 -0.002002 -0.004898 0.000000 -0.003126 0.000000
# 2 -0.002002 0.010263 -0.001153 0.000000 -0.000450 0.000000
# 3 -0.004898 -0.001153 0.017178 0.000000 -0.002157 0.000000
# 4 0.000000 0.000000 0.000000 0.041936 0.000000 0.013013
# 5 -0.003126 -0.000450 -0.002157 0.000000 0.029738 0.000000
# 6 0.000000 0.000000 0.000000 0.013013 0.000000 0.055681
#
#
# Mechanical properties :
#
#
# Convention : Reuss Voigt Hill
#
# Bulk Modulus (GPa) = 41.48998 45.00894 43.24946
# Shear Modulus (GPa) = 26.08143 29.59608 27.83876
#
# Velocity S-wave (km/s) = 3.53868 3.76958 3.65596
# Velocity P-wave (km/s) = 6.05117 6.36837 6.21179
#
# Compressibility (1/GPa) = 0.02410220
#
# Stress axis : x y z
#
# Youngs Moduli (GPa) = 78.31082 97.43854 58.21452
#
# Poissons Ratio (x) = 0.19511 0.28515
# Poissons Ratio (y) = 0.15681 0.06714
# Poissons Ratio (z) = 0.38359 0.11238
#
# Static dielectric constant tensor:
#      x y z
#    x 1.727720 0.000000 -0.012710 
#    y 0.000000 1.740570 0.000000 
#    z -0.012710 0.000000 1.748460 
# 
# From -- ./inp_files/95557.got.cif
#   From: 2010.05.17/outbox.cif.g08.bks.cpg/sg15_48_cif.got.tgz:95557.got - 2010.06.03 18:47:42.
