data_PCOD9302052
_publ_section_title
;
Structure prediction by ZEFSAII (Michael W. Deem and Ramdas Pophale) SiO2 
 PCOD9302052
Probable space group: C 2/C
;
_chemical_formula_sum "Si O2"
_cell_formula_units_Z 56
_cell_length_a 9.471982
_cell_length_b 24.754260
_cell_length_c 13.407537
_cell_angle_alpha 90.000000
_cell_angle_beta 56.809758
_cell_angle_gamma 90.000000
_cell_volume 2630.821354
_symmetry_space_group_name_H-M "C 2/C"
_symmetry_group_IT_number 15
_symmetry_cell_setting 'monoclinic'
loop_
_space_group_symop_operation_xyz
x,y,z
-x,y,1/2-z
-x,-y,-z
x,-y,1/2+z
1/2+x,1/2+y,z
1/2-x,1/2+y,1/2-z
1/2-x,1/2-y,-z
1/2+x,1/2-y,1/2+z
loop_
_atom_site_type_symbol
_atom_site_label
_atom_site_fract_x
_atom_site_fract_y
_atom_site_fract_z
Si Si1 0.701764 0.685373 0.023483
Si Si2 0.500000 0.737913 0.750000
Si Si3 0.586610 0.829981 0.859210
Si Si4 0.039616 0.058804 0.584664
Si Si5 0.741636 0.147718 0.895260
Si Si6 0.818586 0.392552 0.299621
Si Si7 0.638575 0.612678 0.345338
Si Si8 0.500000 0.533314 0.250000
O O1 0.787273 0.669833 0.095290
O O2 0.508648 0.659938 0.098193
O O3 0.750000 0.750000 0.000000
O O4 0.781337 0.652745 0.898726
O O5 0.554705 0.771463 0.825377
O O6 0.341366 0.703170 0.846883
O O7 0.680743 0.860161 0.733135
O O8 0.411010 0.851746 0.968591
O O9 0.120127 0.105084 0.621972
O O10 0.115680 0.073117 0.448017
O O11 0.839573 0.067053 0.645828
O O12 0.072277 0.004371 0.633767
O O13 0.674706 0.134126 0.811655
O O14 0.000000 0.418381 0.250000
O O15 0.626649 0.573633 0.254695
#
# Coordination Sequence:
#
# PCOD9302052 Si02
#       8
#     8   4   8   8   8   8   8   4
#     4  11  24  39  67  96 141 190 230 287 361 420
#     4  12  25  40  66 100 144 192 241 280 354 436
#     4  12  25  42  65  98 147 188 229 297 355 416
#     4  11  24  45  78  99 137 193 230 295 368 417
#     4  12  23  45  69 105 138 187 241 291 351 433
#     4  11  21  41  69 102 135 175 247 296 340 430
#     4  11  26  46  68 109 146 178 246 296 354 438
#     4  12  21  48  76 104 138 192 233 300 376 416
#
# _framework density 21.286128000000001
#
# number of rings (size 3 to 8) (size 9 to 14) (size 15 to 20)
#    0.000    0.571    5.714    2.571    4.000    1.143 
#    0.000    0.714   11.000    0.000    0.000    0.000 
#    0.000    0.000    0.000    0.000    0.000    0.000 
#
# Total GULP energy -156272.837303 kJ/mol
# GULP energy per Si atom -5581.172761 kJ/mol
# Density = 2.123768 g / cm^3
# Si number density = 21.286128 Si / 1000 Ang^3
#
#
#
# Elastic Constant Matrix: (Units=GPa)
#
#
# Indices 1 2 3 4 5 6 
#
# 1 105.8676 20.7041 58.0599 0.0000 4.6596 0.0000
# 2 20.7041 61.2074 30.9591 0.0000 11.1449 0.0000
# 3 58.0599 30.9591 130.6831 0.0000 -9.4802 0.0000
# 4 0.0000 0.0000 0.0000 653.5836 0.0000 -27.5335
# 5 4.6596 11.1449 -9.4802 0.0000 44.2861 0.0000
# 6 0.0000 0.0000 0.0000 -27.5335 0.0000 2.3021
#
#
#
# Elastic Compliance Matrix: (Units=1/GPa)
#
#
# Indices 1 2 3 4 5 6 
#
# 1 0.012836 -0.001090 -0.005610 0.000000 -0.002277 0.000000
# 2 -0.001090 0.020189 -0.004732 0.000000 -0.005979 0.000000
# 3 -0.005610 -0.004732 0.011574 0.000000 0.004259 0.000000
# 4 0.000000 0.000000 0.000000 0.003084 0.000000 0.036881
# 5 -0.002277 -0.005979 0.004259 0.000000 0.025236 0.000000
# 6 0.000000 0.000000 0.000000 0.036881 0.000000 0.875481
#
#
# Mechanical properties :
#
#
# Convention : Reuss Voigt Hill
#
# Bulk Modulus (GPa) = 46.00805 57.46716 51.73760
# Shear Modulus (GPa) = 5.10982 152.57003 78.83992
#
# Velocity S-wave (km/s) = 1.55105 8.47534 6.09250
# Velocity P-wave (km/s) = 4.98685 11.08293 8.59360
#
# Compressibility (1/GPa) = 0.02173533
#
# Stress axis : x y z
#
# Youngs Moduli (GPa) = 77.90881 49.53223 86.39764
#
# Poissons Ratio (x) = 0.05398 0.48466
# Poissons Ratio (y) = 0.08490 0.40887
# Poissons Ratio (z) = 0.43704 0.23440
#
# Static dielectric constant tensor:
#      x y z
#    x 1.798620 0.000000 0.026270 
#    y 0.000000 1.777010 0.000000 
#    z 0.026270 0.000000 1.782040 
# 
# From -- ./inp_files/137746.got.cif
#   From: 2010.05.17/outbox.cif.g08.bks.cpg/sg15_69_cif.got.tgz:137746.got - 2010.06.03 18:47:42.
