data_PCOD9302233
_publ_section_title
;
Structure prediction by ZEFSAII (Michael W. Deem and Ramdas Pophale) SiO2 
 PCOD9302233
Probable space group: C 2/C
;
_chemical_formula_sum "Si O2"
_cell_formula_units_Z 48
_cell_length_a 26.386442
_cell_length_b 8.702314
_cell_length_c 16.155040
_cell_angle_alpha 90.000000
_cell_angle_beta 35.207905
_cell_angle_gamma 90.000000
_cell_volume 2138.734468
_symmetry_space_group_name_H-M "C 2/C"
_symmetry_group_IT_number 15
_symmetry_cell_setting 'monoclinic'
loop_
_space_group_symop_operation_xyz
x,y,z
-x,y,1/2-z
-x,-y,-z
x,-y,1/2+z
1/2+x,1/2+y,z
1/2-x,1/2+y,1/2-z
1/2-x,1/2-y,-z
1/2+x,1/2-y,1/2+z
loop_
_atom_site_type_symbol
_atom_site_label
_atom_site_fract_x
_atom_site_fract_y
_atom_site_fract_z
Si Si1 0.285381 0.500064 0.613601
Si Si2 0.628829 0.783755 0.760810
Si Si3 0.077368 0.956309 0.202563
Si Si4 0.022375 0.526085 0.124246
Si Si5 0.650159 0.761569 0.358306
Si Si6 0.995902 0.204764 0.432959
O O1 0.213575 0.379404 0.673252
O O2 0.356581 0.538874 0.448431
O O3 0.329784 0.401348 0.627190
O O4 0.235451 0.650681 0.711067
O O5 0.634100 0.665518 0.678219
O O6 0.556362 0.906062 0.826574
O O7 0.585141 0.690482 0.895233
O O8 0.000000 0.882201 0.250000
O O9 0.026407 0.066160 0.334253
O O10 0.030623 0.349547 0.087521
O O11 0.000000 0.536545 0.250000
O O12 0.106395 0.626123 0.985227
O O13 0.579790 0.742888 0.378858
#
# Coordination Sequence:
#
# PCOD9302233 Si02
#       6
#     8   8   8   8   8   8
#     4  12  26  44  69 101 139 179 233 287 341 408
#     4  11  22  46  68  96 134 181 227 279 346 408
#     4  12  27  42  66 104 137 175 230 285 346 402
#     4  11  21  43  71  95 129 179 226 282 338 411
#     4  11  25  45  68  99 136 183 230 280 347 410
#     4  11  23  45  69  94 134 181 228 280 342 417
#
# _framework density 22.443179000000001
#
# number of rings (size 3 to 8) (size 9 to 14) (size 15 to 20)
#    0.000    0.667    3.333    6.000    4.667    2.000 
#    0.000    0.000    0.000    0.000    0.000    0.000 
#    0.000    0.000    0.000    0.000    0.000    0.000 
#
# Total GULP energy -134397.405940 kJ/mol
# GULP energy per Si atom -5599.891914 kJ/mol
# Density = 2.239210 g / cm^3
# Si number density = 22.443179 Si / 1000 Ang^3
#
#
#
# Elastic Constant Matrix: (Units=GPa)
#
#
# Indices 1 2 3 4 5 6 
#
# 1 82.9341 21.5025 33.9266 -0.0004 9.8796 -0.0001
# 2 21.5025 50.6139 -7.0595 -0.0128 16.2943 0.0001
# 3 33.9266 -7.0595 105.7794 -0.0053 15.3771 0.0007
# 4 -0.0004 -0.0128 -0.0053 12.0073 0.0045 -27.0008
# 5 9.8796 16.2943 15.3771 0.0045 31.4034 0.0001
# 6 -0.0001 0.0001 0.0007 -27.0008 0.0001 23.8808
#
#
#
# Elastic Compliance Matrix: (Units=1/GPa)
#
#
# Indices 1 2 3 4 5 6 
#
# 1 0.016576 -0.008662 -0.006233 0.000008 0.002332 0.000009
# 2 -0.008662 0.029616 0.007098 -0.000026 -0.016117 -0.000029
# 3 -0.006233 0.007098 0.013110 -0.000010 -0.008141 -0.000012
# 4 0.000008 -0.000026 -0.000010 -0.053992 0.000024 -0.061046
# 5 0.002332 -0.016117 -0.008141 0.000024 0.043459 0.000027
# 6 0.000009 -0.000029 -0.000012 -0.061046 0.000027 -0.027147
#
#
# Mechanical properties :
#
#
# Convention : Reuss Voigt Hill
#
# Bulk Modulus (GPa) = 22.88012 37.34073 30.11043
# Shear Modulus (GPa) = 96.55152 26.18884 61.37018
#
# Velocity S-wave (km/s) = 6.56611 3.41969 5.23489
# Velocity P-wave (km/s) = 8.22812 5.68035 7.06995
#
# Compressibility (1/GPa) = 0.04370606
#
# Stress axis : x y z
#
# Youngs Moduli (GPa) = 60.32900 33.76548 76.27736
#
# Poissons Ratio (x) = 0.29248 0.47547
# Poissons Ratio (y) = 0.52258 -0.54139
# Poissons Ratio (z) = 0.37606 -0.23966
#
# Static dielectric constant tensor:
#      x y z
#    x 1.838690 0.000000 0.010830 
#    y 0.000000 1.811040 0.000000 
#    z 0.010830 0.000000 1.813550 
# 
# From -- ./inp_files/176842.got.cif
#   From: 2010.05.17/outbox.cif.g08.bks.cpg/sg15_89_cif.got.tgz:176842.got - 2010.06.03 18:47:42.
