data_PCOD9302851
_publ_section_title
;
Structure prediction by ZEFSAII (Michael W. Deem and Ramdas Pophale) SiO2 
 PCOD9302851
Probable space group: C 2/C
;
_chemical_formula_sum "Si O2"
_cell_formula_units_Z 56
_cell_length_a 29.839313
_cell_length_b 11.994222
_cell_length_c 23.387481
_cell_angle_alpha 90.000000
_cell_angle_beta 160.115205
_cell_angle_gamma 90.000000
_cell_volume 2847.012007
_symmetry_space_group_name_H-M "C 2/C"
_symmetry_group_IT_number 15
_symmetry_cell_setting 'monoclinic'
loop_
_space_group_symop_operation_xyz
x,y,z
-x,y,1/2-z
-x,-y,-z
x,-y,1/2+z
1/2+x,1/2+y,z
1/2-x,1/2+y,1/2-z
1/2-x,1/2-y,-z
1/2+x,1/2-y,1/2+z
loop_
_atom_site_type_symbol
_atom_site_label
_atom_site_fract_x
_atom_site_fract_y
_atom_site_fract_z
Si Si1 0.993675 0.643884 0.074548
Si Si2 0.899519 0.085627 0.290472
Si Si3 0.313509 0.057610 0.382004
Si Si4 0.600021 0.393485 0.527880
Si Si5 0.630813 0.335900 0.872967
Si Si6 0.738682 0.996776 0.379424
Si Si7 0.962994 0.675813 0.907480
O O1 0.120774 0.582804 0.254007
O O2 0.868019 0.565367 0.935037
O O3 0.957158 0.769365 0.046984
O O4 0.018164 0.643683 0.035541
O O5 0.751657 0.065565 0.134498
O O6 0.912606 0.115721 0.240093
O O7 0.945448 0.193529 0.380794
O O8 0.984266 0.977786 0.405738
O O9 0.209556 0.095470 0.208931
O O10 0.437943 0.137318 0.522919
O O11 0.664227 0.437922 0.546288
O O12 0.500000 0.292194 0.750000
O O13 0.750000 0.250000 0.000000
O O14 0.690258 0.435622 0.982993
O O15 0.669435 0.894926 0.261428
#
# Coordination Sequence:
#
# PCOD9302851 Si02
#       7
#     8   8   8   8   8   8   8
#     4  11  24  41  66  99 138 186 216 277 347 416
#     4  12  27  39  66 102 130 171 229 278 342 409
#     4  11  24  39  64 100 138 172 222 279 346 410
#     4  12  24  39  67  96 137 173 221 279 339 414
#     4  12  27  47  74  99 135 179 232 288 343 407
#     4  11  23  46  67  96 132 179 230 274 343 410
#     4  11  22  40  67 101 137 173 216 285 348 407
#
# _framework density 19.669744000000001
#
# number of rings (size 3 to 8) (size 9 to 14) (size 15 to 20)
#    0.000    0.571    7.143    1.286    8.000    0.000 
#    0.000    0.714    3.143    0.000    0.000    0.000 
#    0.000    0.000    0.000    0.000    0.000    0.000 
#
# Total GULP energy -156426.642880 kJ/mol
# GULP energy per Si atom -5586.665817 kJ/mol
# Density = 1.962498 g / cm^3
# Si number density = 19.669744 Si / 1000 Ang^3
#
#
#
# Elastic Constant Matrix: (Units=GPa)
#
#
# Indices 1 2 3 4 5 6 
#
# 1 101.7173 20.0704 15.5555 0.0000 26.4610 0.0000
# 2 20.0704 147.4810 28.9470 0.0000 23.4700 0.0000
# 3 15.5555 28.9470 42.4513 0.0001 17.1432 0.0001
# 4 0.0000 0.0000 0.0001 23.9971 0.0001 3.8965
# 5 26.4610 23.4700 17.1432 0.0001 36.1638 0.0001
# 6 0.0000 0.0000 0.0001 3.8965 0.0001 27.5096
#
#
#
# Elastic Compliance Matrix: (Units=1/GPa)
#
#
# Indices 1 2 3 4 5 6 
#
# 1 0.012184 -0.000132 -0.001000 0.000000 -0.008355 0.000000
# 2 -0.000132 0.008132 -0.004210 0.000000 -0.003185 0.000000
# 3 -0.001000 -0.004210 0.031407 0.000000 -0.011424 0.000000
# 4 0.000000 0.000000 0.000000 0.042653 0.000000 -0.006041
# 5 -0.008355 -0.003185 -0.011424 0.000000 0.041248 0.000000
# 6 0.000000 0.000000 0.000000 -0.006041 0.000000 0.037207
#
#
# Mechanical properties :
#
#
# Convention : Reuss Voigt Hill
#
# Bulk Modulus (GPa) = 24.36831 46.75504 35.56168
# Shear Modulus (GPa) = 25.35567 32.67254 29.01411
#
# Velocity S-wave (km/s) = 3.59426 4.08003 3.84482
# Velocity P-wave (km/s) = 5.44431 6.78359 6.15051
#
# Compressibility (1/GPa) = 0.04103691
#
# Stress axis : x y z
#
# Youngs Moduli (GPa) = 82.07700 122.97485 31.83964
#
# Poissons Ratio (x) = 0.01625 0.03185
# Poissons Ratio (y) = 0.01084 0.13406
# Poissons Ratio (z) = 0.08212 0.51777
#
# Static dielectric constant tensor:
#      x y z
#    x 1.692580 0.000000 0.029490 
#    y 0.000000 1.698400 0.000000 
#    z 0.029490 0.000000 1.724810 
# 
# From -- ./inp_files/280028.got.cif
#   From: 2010.05.17/outbox.cif.g08.bks.cpg/sg15_141_cif.got.tgz:280028.got - 2010.06.03 18:47:42.
