data_PCOD9302773
_publ_section_title
;
Structure prediction by ZEFSAII (Michael W. Deem and Ramdas Pophale) SiO2 
 PCOD9302773
Probable space group: C 2/C
;
_chemical_formula_sum "Si O2"
_cell_formula_units_Z 56
_cell_length_a 11.142271
_cell_length_b 26.573291
_cell_length_c 13.662614
_cell_angle_alpha 90.000000
_cell_angle_beta 39.413555
_cell_angle_gamma 90.000000
_cell_volume 2568.427372
_symmetry_space_group_name_H-M "C 2/C"
_symmetry_group_IT_number 15
_symmetry_cell_setting 'monoclinic'
loop_
_space_group_symop_operation_xyz
x,y,z
-x,y,1/2-z
-x,-y,-z
x,-y,1/2+z
1/2+x,1/2+y,z
1/2-x,1/2+y,1/2-z
1/2-x,1/2-y,-z
1/2+x,1/2-y,1/2+z
loop_
_atom_site_type_symbol
_atom_site_label
_atom_site_fract_x
_atom_site_fract_y
_atom_site_fract_z
Si Si1 0.803641 0.487915 0.066963
Si Si2 0.015805 0.227465 0.043326
Si Si3 0.872809 0.675172 0.751714
Si Si4 0.031741 0.026367 0.083507
Si Si5 0.067492 0.281942 0.598525
Si Si6 0.925853 0.379935 0.027580
Si Si7 0.625509 0.633292 0.267770
O O1 0.733092 0.513899 0.009821
O O2 0.633064 0.502629 0.245625
O O3 0.828917 0.428360 0.042400
O O4 0.000000 0.500000 0.000000
O O5 0.210974 0.197676 0.923052
O O6 0.031089 0.248188 0.922820
O O7 0.974050 0.276184 0.136323
O O8 0.870259 0.183113 0.166299
O O9 0.832295 0.637078 0.689157
O O10 0.000000 0.646906 0.750000
O O11 0.981818 0.085880 0.115460
O O12 0.000000 0.000000 0.000000
O O13 0.250000 0.250000 0.500000
O O14 0.106638 0.334560 0.524980
O O15 0.000000 0.289741 0.750000
O O16 0.156919 0.382504 0.894029
O O17 0.500000 0.645566 0.250000
#
# Coordination Sequence:
#
# PCOD9302773 Si02
#       7
#     8   8   8   8   8   8   8
#     4  11  23  50  70 100 142 183 231 298 354 423
#     4  11  23  38  65  95 133 172 220 271 336 409
#     4  11  22  40  61 100 132 171 214 277 334 412
#     4  11  26  45  70 102 139 176 241 292 357 419
#     4  11  23  43  61  92 133 173 220 274 328 405
#     4  11  24  42  70  97 133 182 230 273 355 421
#     4  12  22  44  70  99 132 180 222 289 351 416
#
# _framework density 21.803224
#
# number of rings (size 3 to 8) (size 9 to 14) (size 15 to 20)
#    0.000    0.857    2.857    6.000    2.000    2.857 
#    5.143    0.000    0.000    0.000    0.000    0.000 
#    0.000    0.000    0.000    0.000    0.000    0.000 
#
# Total GULP energy -156102.634616 kJ/mol
# GULP energy per Si atom -5575.094093 kJ/mol
# Density = 2.175360 g / cm^3
# Si number density = 21.803224 Si / 1000 Ang^3
#
#
#
# Elastic Constant Matrix: (Units=GPa)
#
#
# Indices 1 2 3 4 5 6 
#
# 1 87.7045 41.7390 22.2109 0.0000 5.2211 0.0000
# 2 41.7390 125.3717 -8.7916 0.0000 7.3314 0.0000
# 3 22.2109 -8.7916 39.3490 0.0000 8.3435 0.0000
# 4 0.0000 0.0000 0.0000 27.3079 0.0000 6.0972
# 5 5.2211 7.3314 8.3435 0.0000 37.1356 0.0000
# 6 0.0000 0.0000 0.0000 6.0972 0.0000 60.8927
#
#
#
# Elastic Compliance Matrix: (Units=1/GPa)
#
#
# Indices 1 2 3 4 5 6 
#
# 1 0.017470 -0.006723 -0.011680 0.000000 0.001495 0.000000
# 2 -0.006723 0.010850 0.006797 0.000000 -0.002724 0.000000
# 3 -0.011680 0.006797 0.035135 0.000000 -0.007594 0.000000
# 4 0.000000 0.000000 0.000000 0.037457 0.000000 -0.003751
# 5 0.001495 -0.002724 -0.007594 0.000000 0.028962 0.000000
# 6 0.000000 0.000000 0.000000 -0.003751 0.000000 0.016798
#
#
# Mechanical properties :
#
#
# Convention : Reuss Voigt Hill
#
# Bulk Modulus (GPa) = 24.84915 40.30464 32.57689
# Shear Modulus (GPa) = 27.27765 38.21836 32.74801
#
# Velocity S-wave (km/s) = 3.54090 4.19128 3.87974
# Velocity P-wave (km/s) = 5.30463 6.47674 5.91977
#
# Compressibility (1/GPa) = 0.04024283
#
# Stress axis : x y z
#
# Youngs Moduli (GPa) = 57.23989 92.16310 28.46134
#
# Poissons Ratio (x) = 0.61959 0.33244
# Poissons Ratio (y) = 0.38481 -0.19344
# Poissons Ratio (z) = 0.66858 -0.62639
#
# Static dielectric constant tensor:
#      x y z
#    x 1.809450 0.000000 -0.074330 
#    y 0.000000 1.950370 0.000000 
#    z -0.074330 0.000000 1.819330 
# 
# From -- ./inp_files/148522.got.cif
#   From: 2010.05.17/outbox.cif.g08.bks.cpg/sg15_75_cif.got.tgz:148522.got - 2010.06.03 18:47:42.
