data_PCOD9302896
_publ_section_title
;
Structure prediction by ZEFSAII (Michael W. Deem and Ramdas Pophale) SiO2 
 PCOD9302896
Probable space group: C 2/C
;
_chemical_formula_sum "Si O2"
_cell_formula_units_Z 48
_cell_length_a 18.347756
_cell_length_b 18.446072
_cell_length_c 15.515323
_cell_angle_alpha 90.000000
_cell_angle_beta 150.861357
_cell_angle_gamma 90.000000
_cell_volume 2556.874300
_symmetry_space_group_name_H-M "C 2/C"
_symmetry_group_IT_number 15
_symmetry_cell_setting 'monoclinic'
loop_
_space_group_symop_operation_xyz
x,y,z
-x,y,1/2-z
-x,-y,-z
x,-y,1/2+z
1/2+x,1/2+y,z
1/2-x,1/2+y,1/2-z
1/2-x,1/2-y,-z
1/2+x,1/2-y,1/2+z
loop_
_atom_site_type_symbol
_atom_site_label
_atom_site_fract_x
_atom_site_fract_y
_atom_site_fract_z
Si Si1 0.551528 0.830916 0.902018
Si Si2 0.679212 0.829039 0.433437
Si Si3 0.219221 0.270793 0.763409
Si Si4 0.832852 0.893607 0.759574
Si Si5 0.175017 0.861610 0.093303
Si Si6 0.639873 0.034422 0.593744
O O1 0.500000 0.821248 0.750000
O O2 0.420259 0.805737 0.831273
O O3 0.688198 0.778612 0.073118
O O4 0.589061 0.915509 0.960643
O O5 0.500000 0.826968 0.250000
O O6 0.750000 0.750000 0.500000
O O7 0.740459 0.864078 0.583121
O O8 0.746349 0.865561 0.417774
O O9 0.310161 0.337448 0.815259
O O10 0.172099 0.218353 0.634754
O O11 0.760078 0.971464 0.701376
O O12 0.007762 0.892437 0.918073
O O13 0.279124 0.908078 0.262216
O O14 0.500000 0.000000 0.500000
#
# Coordination Sequence:
#
# PCOD9302896 Si02
#       6
#     8   8   8   8   8   8
#     4  11  24  43  67  96 126 171 224 276 327 389
#     4  12  25  38  65 100 131 167 218 270 324 395
#     4  11  22  40  69  93 126 170 218 274 326 388
#     4  12  23  42  65  94 136 172 220 269 333 397
#     4  11  24  42  66  97 131 175 220 269 336 395
#     4  11  24  41  67  94 132 179 216 271 338 400
#
# _framework density 18.772922000000001
#
# number of rings (size 3 to 8) (size 9 to 14) (size 15 to 20)
#    0.000    0.667    5.000    3.500    2.333    2.000 
#    0.000    0.000    0.000    0.000    0.000    0.000 
#    0.000    0.000    0.000    0.000    0.000    0.000 
#
# Total GULP energy -134046.372428 kJ/mol
# GULP energy per Si atom -5585.265518 kJ/mol
# Density = 1.873019 g / cm^3
# Si number density = 18.772922 Si / 1000 Ang^3
#
#
#
# Elastic Constant Matrix: (Units=GPa)
#
#
# Indices 1 2 3 4 5 6 
#
# 1 72.2779 23.5577 22.8888 0.0000 17.2918 0.0000
# 2 23.5577 87.8341 5.1684 0.0000 2.8546 0.0000
# 3 22.8888 5.1684 83.7972 0.0000 14.7739 0.0000
# 4 0.0000 0.0000 0.0000 24.4309 0.0000 7.6344
# 5 17.2918 2.8546 14.7739 0.0000 50.4475 0.0000
# 6 0.0000 0.0000 0.0000 7.6344 0.0000 21.6428
#
#
#
# Elastic Compliance Matrix: (Units=1/GPa)
#
#
# Indices 1 2 3 4 5 6 
#
# 1 0.017540 -0.004334 -0.003698 0.000000 -0.004684 0.000000
# 2 -0.004334 0.012508 0.000290 0.000000 0.000693 0.000000
# 3 -0.003698 0.000290 0.013397 0.000000 -0.002672 0.000000
# 4 0.000000 0.000000 0.000000 0.046002 0.000000 -0.016227
# 5 -0.004684 0.000693 -0.002672 0.000000 0.022171 0.000000
# 6 0.000000 0.000000 0.000000 -0.016227 0.000000 0.051929
#
#
# Mechanical properties :
#
#
# Convention : Reuss Voigt Hill
#
# Bulk Modulus (GPa) = 35.76436 38.57099 37.16768
# Shear Modulus (GPa) = 26.54609 32.12387 29.33498
#
# Velocity S-wave (km/s) = 3.76448 4.14113 3.95729
# Velocity P-wave (km/s) = 6.16340 6.59211 6.38136
#
# Compressibility (1/GPa) = 0.02796080
#
# Stress axis : x y z
#
# Youngs Moduli (GPa) = 57.01305 79.94864 74.64444
#
# Poissons Ratio (x) = 0.34654 0.27602
# Poissons Ratio (y) = 0.24712 -0.02167
# Poissons Ratio (z) = 0.21082 -0.02321
#
# Static dielectric constant tensor:
#      x y z
#    x 1.708140 0.000000 -0.061290 
#    y 0.000000 1.656530 0.000000 
#    z -0.061290 0.000000 1.670170 
# 
# From -- ./inp_files/48343.got.cif
#   From: 2010.05.17/outbox.cif.g08.bks.cpg/sg15_25_cif.got.tgz:48343.got - 2010.06.03 18:47:42.
