data_PCOD9302570
_publ_section_title
;
Structure prediction by ZEFSAII (Michael W. Deem and Ramdas Pophale) SiO2 
 PCOD9302570
Probable space group: C 2/C
;
_chemical_formula_sum "Si O2"
_cell_formula_units_Z 36
_cell_length_a 21.830082
_cell_length_b 4.877230
_cell_length_c 12.592517
_cell_angle_alpha 90.000000
_cell_angle_beta 85.707481
_cell_angle_gamma 90.000000
_cell_volume 1336.968591
_symmetry_space_group_name_H-M "C 2/C"
_symmetry_group_IT_number 15
_symmetry_cell_setting 'monoclinic'
loop_
_space_group_symop_operation_xyz
x,y,z
-x,y,1/2-z
-x,-y,-z
x,-y,1/2+z
1/2+x,1/2+y,z
1/2-x,1/2+y,1/2-z
1/2-x,1/2-y,-z
1/2+x,1/2-y,1/2+z
loop_
_atom_site_type_symbol
_atom_site_label
_atom_site_fract_x
_atom_site_fract_y
_atom_site_fract_z
Si Si1 0.329090 0.102173 0.185736
Si Si2 0.500000 0.409397 0.750000
Si Si3 0.060529 0.447674 0.427032
Si Si4 0.202656 0.069288 0.439216
Si Si5 0.618736 0.654000 0.616095
O O1 0.339948 0.180229 0.305704
O O2 0.397211 0.180974 0.129147
O O3 0.282193 0.304418 0.133855
O O4 0.319612 0.788170 0.151194
O O5 0.462252 0.230440 0.669641
O O6 0.554157 0.561189 0.676540
O O7 0.101752 0.329867 0.515666
O O8 0.000000 0.500000 0.500000
O O9 0.250000 0.250000 0.500000
O O10 0.160820 0.945643 0.543092
#
# Coordination Sequence:
#
# PCOD9302570 Si02
#       5
#     8   4   8   8   8
#     4  11  24  43  67  98 132 176 228 281 345 411
#     4  12  22  40  68 104 142 190 236 282 348 420
#     4  11  22  38  63  99 141 183 226 281 341 415
#     4  11  26  46  69  98 132 175 230 290 350 412
#     4  11  23  40  66  97 136 178 226 283 341 412
#
# _framework density 26.926584999999999
#
# number of rings (size 3 to 8) (size 9 to 14) (size 15 to 20)
#    0.000    0.889    0.000    8.000    0.000    7.111 
#    0.000    0.000    0.000    0.000    0.000    0.000 
#    0.000    0.000    0.000    0.000    0.000    0.000 
#
# Total GULP energy -100401.030218 kJ/mol
# GULP energy per Si atom -5577.835012 kJ/mol
# Density = 2.686530 g / cm^3
# Si number density = 26.926585 Si / 1000 Ang^3
#
#
#
# Elastic Constant Matrix: (Units=GPa)
#
#
# Indices 1 2 3 4 5 6 
#
# 1 70.8657 17.1455 45.8942 0.0000 6.7733 0.0000
# 2 17.1455 95.3883 57.4937 0.0000 12.5709 0.0000
# 3 45.8942 57.4937 233.4947 0.0000 14.5769 0.0000
# 4 0.0000 0.0000 0.0000 44.1175 0.0000 14.2862
# 5 6.7733 12.5709 14.5769 0.0000 56.4010 0.0000
# 6 0.0000 0.0000 0.0000 14.2862 0.0000 39.3318
#
#
#
# Elastic Compliance Matrix: (Units=1/GPa)
#
#
# Indices 1 2 3 4 5 6 
#
# 1 0.016332 -0.001067 -0.002886 0.000000 -0.000978 0.000000
# 2 -0.001067 0.012605 -0.002771 0.000000 -0.001965 0.000000
# 3 -0.002886 -0.002771 0.005562 0.000000 -0.000473 0.000000
# 4 0.000000 0.000000 0.000000 0.025688 0.000000 -0.009331
# 5 -0.000978 -0.001965 -0.000473 0.000000 0.018408 0.000000
# 6 0.000000 0.000000 0.000000 -0.009331 0.000000 0.028814
#
#
# Mechanical properties :
#
#
# Convention : Reuss Voigt Hill
#
# Bulk Modulus (GPa) = 47.50756 71.20174 59.35465
# Shear Modulus (GPa) = 39.10095 46.58441 42.84268
#
# Velocity S-wave (km/s) = 3.81482 4.16390 3.99318
# Velocity P-wave (km/s) = 6.08978 7.04399 6.58419
#
# Compressibility (1/GPa) = 0.02104928
#
# Stress axis : x y z
#
# Youngs Moduli (GPa) = 61.22920 79.33655 179.79212
#
# Poissons Ratio (x) = 0.08466 0.51894
# Poissons Ratio (y) = 0.06534 0.49824
# Poissons Ratio (z) = 0.17673 0.21986
#
# Static dielectric constant tensor:
#      x y z
#    x 1.765730 0.000000 -0.692000 
#    y 0.000000 2.322650 0.000000 
#    z -0.692000 0.000000 2.479710 
# 
# From -- ./inp_files/115580.got.cif
#   From: 2010.05.17/outbox.cif.g08.bks.cpg/sg15_58_cif.got.tgz:115580.got - 2010.06.03 18:47:42.
