data_PCOD9302757
_publ_section_title
;
Structure prediction by ZEFSAII (Michael W. Deem and Ramdas Pophale) SiO2 
 PCOD9302757
Probable space group: C 2/C
;
_chemical_formula_sum "Si O2"
_cell_formula_units_Z 32
_cell_length_a 15.288989
_cell_length_b 4.708621
_cell_length_c 21.663007
_cell_angle_alpha 90.000000
_cell_angle_beta 129.170039
_cell_angle_gamma 90.000000
_cell_volume 1209.057505
_symmetry_space_group_name_H-M "C 2/C"
_symmetry_group_IT_number 15
_symmetry_cell_setting 'monoclinic'
loop_
_space_group_symop_operation_xyz
x,y,z
-x,y,1/2-z
-x,-y,-z
x,-y,1/2+z
1/2+x,1/2+y,z
1/2-x,1/2+y,1/2-z
1/2-x,1/2-y,-z
1/2+x,1/2-y,1/2+z
loop_
_atom_site_type_symbol
_atom_site_label
_atom_site_fract_x
_atom_site_fract_y
_atom_site_fract_z
Si Si1 0.486138 0.389711 0.176151
Si Si2 0.433312 0.066650 0.573986
Si Si3 0.220135 0.547790 0.273385
Si Si4 0.898807 0.764493 0.944769
O O1 0.500000 0.518220 0.250000
O O2 0.406956 0.127035 0.121404
O O3 0.602081 0.207780 0.223072
O O4 0.447556 0.621938 0.109029
O O5 0.360834 0.927364 0.486107
O O6 0.550096 0.053993 0.585035
O O7 0.212844 0.223521 0.249896
O O8 0.293658 0.579953 0.367218
O O9 0.000000 0.000000 0.000000
#
# Coordination Sequence:
#
# PCOD9302757 Si02
#       4
#     8   8   8   8
#     4  12  24  43  64  93 136 172 208 260 327 388
#     4  11  22  40  64  94 124 172 210 259 327 371
#     4  12  23  40  65 100 123 164 225 266 304 382
#     4  11  22  39  70  96 129 161 220 277 315 365
#
# _framework density 26.466896999999999
#
# number of rings (size 3 to 8) (size 9 to 14) (size 15 to 20)
#    0.000    0.500    7.500    0.750    3.500    0.000 
#    0.000    2.500    0.000    0.000    0.000    0.000 
#    0.000    0.000    0.000    0.000    0.000    0.000 
#
# Total GULP energy -89080.057388 kJ/mol
# GULP energy per Si atom -5567.503587 kJ/mol
# Density = 2.640666 g / cm^3
# Si number density = 26.466897 Si / 1000 Ang^3
#
#
#
# Elastic Constant Matrix: (Units=GPa)
#
#
# Indices 1 2 3 4 5 6 
#
# 1 41.3460 5.8356 17.3236 0.0001 -8.5328 -0.0001
# 2 5.8356 96.3327 24.8783 -0.0020 -10.2216 0.0017
# 3 17.3236 24.8783 136.3274 0.0002 -20.6529 -0.0001
# 4 0.0001 -0.0020 0.0002 44.5761 0.0002 -12.5028
# 5 -8.5328 -10.2216 -20.6529 0.0002 35.8228 -0.0002
# 6 -0.0001 0.0017 -0.0001 -12.5028 -0.0002 13.5447
#
#
#
# Elastic Compliance Matrix: (Units=1/GPa)
#
#
# Indices 1 2 3 4 5 6 
#
# 1 0.026280 -0.000438 -0.002553 0.000000 0.004663 0.000000
# 2 -0.000438 0.011055 -0.001643 0.000000 0.002103 -0.000001
# 3 -0.002553 -0.001643 0.008543 0.000000 0.003848 0.000000
# 4 0.000000 0.000000 0.000000 0.030271 0.000000 0.027943
# 5 0.004663 0.002103 0.003848 0.000000 0.031844 0.000000
# 6 0.000000 -0.000001 0.000000 0.027943 0.000000 0.099623
#
#
# Mechanical properties :
#
#
# Convention : Reuss Voigt Hill
#
# Bulk Modulus (GPa) = 27.31581 41.12011 34.21796
# Shear Modulus (GPa) = 21.82580 33.85329 27.83955
#
# Velocity S-wave (km/s) = 2.87478 3.58030 3.24676
# Velocity P-wave (km/s) = 4.62194 5.71503 5.19730
#
# Compressibility (1/GPa) = 0.03660883
#
# Stress axis : x y z
#
# Youngs Moduli (GPa) = 38.05174 90.45935 117.06125
#
# Poissons Ratio (x) = 0.03961 0.29888
# Poissons Ratio (y) = 0.01666 0.19235
# Poissons Ratio (z) = 0.09715 0.14864
#
# Static dielectric constant tensor:
#      x y z
#    x 2.234560 0.000000 0.028740 
#    y 0.000000 2.089760 0.000000 
#    z 0.028740 0.000000 2.209300 
# 
# From -- ./inp_files/246340.got.cif
#   From: 2010.05.17/outbox.cif.g08.bks.cpg/sg15_124_cif.got.tgz:246340.got - 2010.06.03 18:47:42.
