data_PCOD9302906
_publ_section_title
;
Structure prediction by ZEFSAII (Michael W. Deem and Ramdas Pophale) SiO2 
 PCOD9302906
Probable space group: C 2/C
;
_chemical_formula_sum "Si O2"
_cell_formula_units_Z 56
_cell_length_a 26.819579
_cell_length_b 11.606049
_cell_length_c 14.628597
_cell_angle_alpha 90.000000
_cell_angle_beta 141.671682
_cell_angle_gamma 90.000000
_cell_volume 2823.888618
_symmetry_space_group_name_H-M "C 2/C"
_symmetry_group_IT_number 15
_symmetry_cell_setting 'monoclinic'
loop_
_space_group_symop_operation_xyz
x,y,z
-x,y,1/2-z
-x,-y,-z
x,-y,1/2+z
1/2+x,1/2+y,z
1/2-x,1/2+y,1/2-z
1/2-x,1/2-y,-z
1/2+x,1/2-y,1/2+z
loop_
_atom_site_type_symbol
_atom_site_label
_atom_site_fract_x
_atom_site_fract_y
_atom_site_fract_z
Si Si1 0.072589 0.351865 0.420523
Si Si2 0.326315 0.059705 0.960797
Si Si3 0.373777 0.730695 0.419954
Si Si4 0.698109 0.142197 0.388553
Si Si5 0.272770 0.279500 0.428812
Si Si6 0.707360 0.519949 0.131399
Si Si7 0.474897 0.135544 0.444922
O O1 0.093996 0.486870 0.445438
O O2 0.154197 0.297279 0.501422
O O3 0.050743 0.319853 0.491871
O O4 0.000000 0.322612 0.250000
O O5 0.349221 0.190614 0.970927
O O6 0.257129 0.021473 0.791338
O O7 0.297611 0.049398 0.023304
O O8 0.304821 0.752443 0.244965
O O9 0.367307 0.597768 0.442394
O O10 0.453851 0.786597 0.493259
O O11 0.750000 0.250000 0.500000
O O12 0.735633 0.101575 0.347222
O O13 0.603023 0.151090 0.231435
O O14 0.250000 0.250000 0.500000
O O15 0.302377 0.408942 0.447337
O O16 0.500000 0.000000 0.500000
#
# Coordination Sequence:
#
# PCOD9302906 Si02
#       7
#     8   8   8   8   8   8   8
#     4  12  23  41  67  99 133 177 226 285 344 410
#     4  11  22  40  70  94 136 170 223 286 345 402
#     4  11  22  41  63  98 133 175 222 283 340 402
#     4  12  24  42  69 101 131 178 230 287 351 411
#     4  11  23  43  68  96 135 178 230 277 341 420
#     4  11  23  44  66  96 138 178 225 279 345 418
#     4  12  23  42  67 100 138 173 232 291 346 408
#
# _framework density 19.83081
#
# number of rings (size 3 to 8) (size 9 to 14) (size 15 to 20)
#    0.000    0.571    5.714    3.429    2.000    0.000 
#    0.000    2.143    0.000    0.000    0.000    0.000 
#    0.000    0.000    0.000    0.000    0.000    0.000 
#
# Total GULP energy -156278.406343 kJ/mol
# GULP energy per Si atom -5581.371655 kJ/mol
# Density = 1.978567 g / cm^3
# Si number density = 19.830810 Si / 1000 Ang^3
#
#
#
# Elastic Constant Matrix: (Units=GPa)
#
#
# Indices 1 2 3 4 5 6 
#
# 1 148.9983 45.9154 48.6675 0.0000 -3.5472 0.0000
# 2 45.9154 97.9899 36.7456 0.0000 4.3668 0.0000
# 3 48.6675 36.7456 114.4771 0.0000 3.8413 0.0000
# 4 0.0000 0.0000 0.0000 19.9872 0.0000 -2.4375
# 5 -3.5472 4.3668 3.8413 0.0000 25.6496 0.0000
# 6 0.0000 0.0000 0.0000 -2.4375 0.0000 34.0317
#
#
#
# Elastic Compliance Matrix: (Units=1/GPa)
#
#
# Indices 1 2 3 4 5 6 
#
# 1 0.008613 -0.003104 -0.002736 0.000000 0.002129 0.000000
# 2 -0.003104 0.012773 -0.002706 0.000000 -0.002199 0.000000
# 3 -0.002736 -0.002706 0.010819 0.000000 -0.001538 0.000000
# 4 0.000000 0.000000 0.000000 0.050473 0.000000 0.003615
# 5 0.002129 -0.002199 -0.001538 0.000000 0.039886 0.000000
# 6 0.000000 0.000000 0.000000 0.003615 0.000000 0.029643
#
#
# Mechanical properties :
#
#
# Convention : Reuss Voigt Hill
#
# Bulk Modulus (GPa) = 66.18158 69.34694 67.76426
# Shear Modulus (GPa) = 28.68000 31.27614 29.97807
#
# Velocity S-wave (km/s) = 3.80706 3.97564 3.89227
# Velocity P-wave (km/s) = 7.26433 7.49130 7.37869
#
# Compressibility (1/GPa) = 0.01510994
#
# Stress axis : x y z
#
# Youngs Moduli (GPa) = 116.10831 78.29274 92.42987
#
# Poissons Ratio (x) = 0.24305 0.25293
# Poissons Ratio (y) = 0.36045 0.25014
# Poissons Ratio (z) = 0.31773 0.21188
#
# Static dielectric constant tensor:
#      x y z
#    x 1.702420 0.000000 -0.007460 
#    y 0.000000 1.814570 0.000000 
#    z -0.007460 0.000000 1.687910 
# 
# From -- ./inp_files/177610.got.cif
#   From: 2010.05.17/outbox.cif.g08.bks.cpg/sg15_89_cif.got.tgz:177610.got - 2010.06.03 18:47:42.
