data_PCOD9302251
_publ_section_title
;
Structure prediction by ZEFSAII (Michael W. Deem and Ramdas Pophale) SiO2 
 PCOD9302251
Probable space group: C 2/C
;
_chemical_formula_sum "Si O2"
_cell_formula_units_Z 40
_cell_length_a 4.895723
_cell_length_b 10.529659
_cell_length_c 29.628689
_cell_angle_alpha 90.000000
_cell_angle_beta 110.006877
_cell_angle_gamma 90.000000
_cell_volume 1435.193372
_symmetry_space_group_name_H-M "C 2/C"
_symmetry_group_IT_number 15
_symmetry_cell_setting 'monoclinic'
loop_
_space_group_symop_operation_xyz
x,y,z
-x,y,1/2-z
-x,-y,-z
x,-y,1/2+z
1/2+x,1/2+y,z
1/2-x,1/2+y,1/2-z
1/2-x,1/2-y,-z
1/2+x,1/2-y,1/2+z
loop_
_atom_site_type_symbol
_atom_site_label
_atom_site_fract_x
_atom_site_fract_y
_atom_site_fract_z
Si Si1 0.442507 0.563875 0.066080
Si Si2 0.085983 0.795254 0.027418
Si Si3 0.874649 0.030046 0.659688
Si Si4 0.535915 0.199463 0.124283
Si Si5 0.606291 0.874170 0.302493
O O1 0.563974 0.442226 0.045412
O O2 0.292013 0.493400 0.100144
O O3 0.718536 0.643125 0.099909
O O4 0.292717 0.657250 0.018793
O O5 0.157560 0.731203 0.081574
O O6 0.750000 0.750000 0.000000
O O7 0.641974 0.116154 0.675189
O O8 0.207963 0.000484 0.697805
O O9 0.731607 0.891753 0.664383
O O10 0.585730 0.328202 0.155702
O O11 0.500000 0.818353 0.250000
#
# Coordination Sequence:
#
# PCOD9302251 Si02
#       5
#     8   8   8   8   8
#     4   8  17  38  68  96 133 178 213 261 347 400
#     4   7  17  31  67 102 133 176 211 269 334 410
#     4  11  24  46  68  97 135 176 219 284 338 404
#     4  11  21  43  73  96 139 181 220 279 341 403
#     4  12  29  45  67  99 133 174 239 289 336 394
#
# _framework density 27.870811
#
# number of rings (size 3 to 8) (size 9 to 14) (size 15 to 20)
#    1.200    0.800    2.000    1.200    5.600    1.600 
#    0.000    2.000    0.000    0.000    0.000    0.000 
#    0.000    0.000    0.000    0.000    0.000    0.000 
#
# Total GULP energy -111487.731231 kJ/mol
# GULP energy per Si atom -5574.386562 kJ/mol
# Density = 2.780738 g / cm^3
# Si number density = 27.870811 Si / 1000 Ang^3
#
#
#
# Elastic Constant Matrix: (Units=GPa)
#
#
# Indices 1 2 3 4 5 6 
#
# 1 213.5885 20.2613 89.7816 0.0000 -22.9710 0.0000
# 2 20.2613 112.7189 72.0863 0.0000 -7.7357 0.0000
# 3 89.7816 72.0863 178.1408 0.0000 -14.4794 0.0000
# 4 0.0000 0.0000 0.0000 31.1754 0.0000 10.3002
# 5 -22.9710 -7.7357 -14.4794 0.0000 44.9073 0.0000
# 6 0.0000 0.0000 0.0000 10.3002 0.0000 26.6717
#
#
#
# Elastic Compliance Matrix: (Units=1/GPa)
#
#
# Indices 1 2 3 4 5 6 
#
# 1 0.006275 0.001259 -0.003485 0.000000 0.002303 0.000000
# 2 0.001259 0.012233 -0.005505 0.000000 0.000976 0.000000
# 3 -0.003485 -0.005505 0.009628 0.000000 0.000373 0.000000
# 4 0.000000 0.000000 0.000000 0.036768 0.000000 -0.014199
# 5 0.002303 0.000976 0.000373 0.000000 0.023735 0.000000
# 6 0.000000 0.000000 0.000000 -0.014199 0.000000 0.042976
#
#
# Mechanical properties :
#
#
# Convention : Reuss Voigt Hill
#
# Bulk Modulus (GPa) = 78.90530 96.52296 87.71413
# Shear Modulus (GPa) = 33.04647 42.03880 37.54264
#
# Velocity S-wave (km/s) = 3.44714 3.88796 3.67416
# Velocity P-wave (km/s) = 6.64953 7.40691 7.03842
#
# Compressibility (1/GPa) = 0.01267342
#
# Stress axis : x y z
#
# Youngs Moduli (GPa) = 159.36346 81.74534 103.86486
#
# Poissons Ratio (x) = -0.10289 0.36193
# Poissons Ratio (y) = -0.20058 0.57180
# Poissons Ratio (z) = 0.55533 0.45003
#
# Static dielectric constant tensor:
#      x y z
#    x 2.188340 0.000000 -0.025980 
#    y 0.000000 2.712510 0.000000 
#    z -0.025980 0.000000 2.237900 
# 
# From -- ./inp_files/305012.got.cif
#   From: 2010.05.17/outbox.cif.g08.bks.cpg/sg15_153_cif.got.tgz:305012.got - 2010.06.03 18:47:42.
