data_PCOD9302824
_publ_section_title
;
Structure prediction by ZEFSAII (Michael W. Deem and Ramdas Pophale) SiO2 
 PCOD9302824
Probable space group: C 2/C
;
_chemical_formula_sum "Si O2"
_cell_formula_units_Z 36
_cell_length_a 7.804096
_cell_length_b 14.332944
_cell_length_c 15.927815
_cell_angle_alpha 90.000000
_cell_angle_beta 80.732250
_cell_angle_gamma 90.000000
_cell_volume 1758.360142
_symmetry_space_group_name_H-M "C 2/C"
_symmetry_group_IT_number 15
_symmetry_cell_setting 'monoclinic'
loop_
_space_group_symop_operation_xyz
x,y,z
-x,y,1/2-z
-x,-y,-z
x,-y,1/2+z
1/2+x,1/2+y,z
1/2-x,1/2+y,1/2-z
1/2-x,1/2-y,-z
1/2+x,1/2-y,1/2+z
loop_
_atom_site_type_symbol
_atom_site_label
_atom_site_fract_x
_atom_site_fract_y
_atom_site_fract_z
Si Si1 0.437068 0.730356 0.526011
Si Si2 0.481170 0.433446 0.920360
Si Si3 0.500000 0.968385 0.250000
Si Si4 0.631361 0.594778 0.812453
Si Si5 0.568049 0.932862 0.920814
O O1 0.250000 0.750000 0.500000
O O2 0.536165 0.669134 0.447807
O O3 0.404523 0.662527 0.607025
O O4 0.503560 0.829859 0.551993
O O5 0.590173 0.487509 0.842073
O O6 0.278811 0.431308 0.909253
O O7 0.500000 0.500000 0.000000
O O8 0.670452 0.904742 0.230792
O O9 0.486342 0.029139 0.165925
O O10 0.500000 0.621148 0.750000
O O11 0.500000 0.000000 0.000000
#
# Coordination Sequence:
#
# PCOD9302824 Si02
#       5
#     8   8   4   8   8
#     4   9  20  39  67  92 127 169 218 262 319 387
#     4   9  18  39  64  89 125 170 209 260 321 381
#     4  12  24  40  66  96 132 168 220 266 322 386
#     4  11  22  42  66  94 132 169 209 269 324 380
#     4  11  22  40  65  98 132 169 216 268 319 383
#
# _framework density 20.473623
#
# number of rings (size 3 to 8) (size 9 to 14) (size 15 to 20)
#    0.000    1.778    2.222    4.000    1.556    0.000 
#    0.000   16.667    7.333    0.000    0.000    0.000 
#    0.000    0.000    0.000    0.000    0.000    0.000 
#
# Total GULP energy -100458.898389 kJ/mol
# GULP energy per Si atom -5581.049911 kJ/mol
# Density = 2.042702 g / cm^3
# Si number density = 20.473623 Si / 1000 Ang^3
#
#
#
# Elastic Constant Matrix: (Units=GPa)
#
#
# Indices 1 2 3 4 5 6 
#
# 1 108.4474 19.5600 34.8061 0.0000 9.2058 0.0000
# 2 19.5600 129.1925 50.4732 0.0000 1.1562 0.0000
# 3 34.8061 50.4732 120.7416 0.0000 27.4665 0.0000
# 4 0.0000 0.0000 0.0000 22.4653 0.0000 -14.8255
# 5 9.2058 1.1562 27.4665 0.0000 41.6646 0.0000
# 6 0.0000 0.0000 0.0000 -14.8255 0.0000 -3.6414
#
#
#
# Elastic Compliance Matrix: (Units=1/GPa)
#
#
# Indices 1 2 3 4 5 6 
#
# 1 0.010195 -0.000522 -0.002601 0.000000 -0.000523 0.000000
# 2 -0.000522 0.009543 -0.004476 0.000000 0.002801 0.000000
# 3 -0.002601 -0.004476 0.012640 0.000000 -0.007633 0.000000
# 4 0.000000 0.000000 0.000000 0.012074 0.000000 -0.049156
# 5 -0.000523 0.002801 -0.007633 0.000000 0.029071 0.000000
# 6 0.000000 0.000000 0.000000 -0.049156 0.000000 -0.074487
#
#
# Mechanical properties :
#
#
# Convention : Reuss Voigt Hill
#
# Bulk Modulus (GPa) = 58.21491 63.11778 60.66635
# Shear Modulus (GPa) = 250.49132 29.00050 139.74591
#
# Velocity S-wave (km/s) = 11.07312 3.76770 8.27072
# Velocity P-wave (km/s) = 13.85572 7.05855 10.99555
#
# Compressibility (1/GPa) = 0.01717773
#
# Stress axis : x y z
#
# Youngs Moduli (GPa) = 98.09102 104.78808 79.11678
#
# Poissons Ratio (x) = 0.05475 0.20581
# Poissons Ratio (y) = 0.05125 0.35412
# Poissons Ratio (z) = 0.25517 0.46902
#
# Static dielectric constant tensor:
#      x y z
#    x 1.736190 0.000000 -0.007890 
#    y 0.000000 1.854390 0.000000 
#    z -0.007890 0.000000 1.726850 
# 
# From -- ./inp_files/132651.got.cif
#   From: 2010.05.17/outbox.cif.g08.bks.cpg/sg15_67_cif.got.tgz:132651.got - 2010.06.03 18:47:42.
