data_PCOD9302198
_publ_section_title
;
Structure prediction by ZEFSAII (Michael W. Deem and Ramdas Pophale) SiO2 
 PCOD9302198
Probable space group: C 2/C
;
_chemical_formula_sum "Si O2"
_cell_formula_units_Z 40
_cell_length_a 15.684930
_cell_length_b 20.091261
_cell_length_c 9.480080
_cell_angle_alpha 90.000000
_cell_angle_beta 142.375869
_cell_angle_gamma 90.000000
_cell_volume 1823.779651
_symmetry_space_group_name_H-M "C 2/C"
_symmetry_group_IT_number 15
_symmetry_cell_setting 'monoclinic'
loop_
_space_group_symop_operation_xyz
x,y,z
-x,y,1/2-z
-x,-y,-z
x,-y,1/2+z
1/2+x,1/2+y,z
1/2-x,1/2+y,1/2-z
1/2-x,1/2-y,-z
1/2+x,1/2-y,1/2+z
loop_
_atom_site_type_symbol
_atom_site_label
_atom_site_fract_x
_atom_site_fract_y
_atom_site_fract_z
Si Si1 0.116686 0.965085 0.512173
Si Si2 0.000000 0.600238 0.750000
Si Si3 0.897252 0.296312 0.883476
Si Si4 0.926158 0.186153 0.501092
Si Si5 0.000000 0.371224 0.750000
Si Si6 0.710128 0.021079 0.526336
O O1 0.079767 0.893114 0.526275
O O2 0.162909 0.011518 0.699728
O O3 0.246214 0.956342 0.572899
O O4 0.000000 0.990040 0.250000
O O5 0.965624 0.649631 0.576882
O O6 0.870251 0.549083 0.593604
O O7 0.733548 0.288310 0.702015
O O8 0.920436 0.326639 0.758340
O O9 0.982845 0.227363 0.991357
O O10 0.000000 0.193445 0.750000
O O11 0.889396 0.422624 0.538673
#
# Coordination Sequence:
#
# PCOD9302198 Si02
#       6
#     8   4   8   8   4   8
#     4  11  23  40  67  96 134 168 215 272 338 389
#     4  11  24  42  68  96 134 173 220 278 328 389
#     4  12  24  43  67  99 133 175 226 270 329 392
#     4  11  24  43  68  96 133 176 225 271 322 399
#     4  11  22  38  74  96 124 175 226 276 316 391
#     4  11  21  43  66  98 132 168 221 272 327 393
#
# _framework density 21.932475
#
# number of rings (size 3 to 8) (size 9 to 14) (size 15 to 20)
#    0.000    0.800    5.000    2.400    0.000    4.000 
#    0.000    2.000    0.000    0.000    0.000    0.000 
#    0.000    0.000    0.000    0.000    0.000    0.000 
#
# Total GULP energy -111793.740074 kJ/mol
# GULP energy per Si atom -5589.687004 kJ/mol
# Density = 2.188256 g / cm^3
# Si number density = 21.932475 Si / 1000 Ang^3
#
#
#
# Elastic Constant Matrix: (Units=GPa)
#
#
# Indices 1 2 3 4 5 6 
#
# 1 48.8331 18.7782 24.7026 0.0000 9.5174 0.0000
# 2 18.7782 104.8294 41.6840 0.0000 2.3238 0.0000
# 3 24.7026 41.6840 111.2317 0.0000 11.6102 0.0000
# 4 0.0000 0.0000 0.0000 8.0549 0.0000 21.5349
# 5 9.5174 2.3238 11.6102 0.0000 22.8491 0.0000
# 6 0.0000 0.0000 0.0000 21.5349 0.0000 29.7860
#
#
#
# Elastic Compliance Matrix: (Units=1/GPa)
#
#
# Indices 1 2 3 4 5 6 
#
# 1 0.025025 -0.002859 -0.003620 0.000000 -0.008293 0.000000
# 2 -0.002859 0.011560 -0.003906 0.000000 0.002000 0.000000
# 3 -0.003620 -0.003906 0.011679 0.000000 -0.004029 0.000000
# 4 0.000000 0.000000 0.000000 -0.133075 0.000000 0.096211
# 5 -0.008293 0.002000 -0.004029 0.000000 0.049064 0.000000
# 6 0.000000 0.000000 0.000000 0.096211 0.000000 -0.035987
#
#
# Mechanical properties :
#
#
# Convention : Reuss Voigt Hill
#
# Bulk Modulus (GPa) = 36.37346 48.35821 42.36584
# Shear Modulus (GPa) = -119.62322 24.11996 -47.75163
#
# Velocity S-wave (km/s) = -7.39324 3.31983 -4.67112
# Velocity P-wave (km/s) = 7.50065 6.06560 3.11995
#
# Compressibility (1/GPa) = 0.02749258
#
# Stress axis : x y z
#
# Youngs Moduli (GPa) = 39.95970 86.50282 85.62685
#
# Poissons Ratio (x) = 0.24734 0.31001
# Poissons Ratio (y) = 0.11426 0.33446
# Poissons Ratio (z) = 0.14467 0.33788
#
# Static dielectric constant tensor:
#      x y z
#    x 1.856870 0.000000 0.091420 
#    y 0.000000 1.806320 0.000000 
#    z 0.091420 0.000000 1.856190 
# 
# From -- ./inp_files/106912.got.cif
#   From: 2010.05.17/outbox.cif.g08.bks.cpg/sg15_54_cif.got.tgz:106912.got - 2010.06.03 18:47:42.
