data_PCOD9302925
_publ_section_title
;
Structure prediction by ZEFSAII (Michael W. Deem and Ramdas Pophale) SiO2 
 PCOD9302925
Probable space group: C 2/C
;
_chemical_formula_sum "Si O2"
_cell_formula_units_Z 48
_cell_length_a 9.729121
_cell_length_b 17.061150
_cell_length_c 17.229466
_cell_angle_alpha 90.000000
_cell_angle_beta 52.091849
_cell_angle_gamma 90.000000
_cell_volume 2256.466567
_symmetry_space_group_name_H-M "C 2/C"
_symmetry_group_IT_number 15
_symmetry_cell_setting 'monoclinic'
loop_
_space_group_symop_operation_xyz
x,y,z
-x,y,1/2-z
-x,-y,-z
x,-y,1/2+z
1/2+x,1/2+y,z
1/2-x,1/2+y,1/2-z
1/2-x,1/2-y,-z
1/2+x,1/2-y,1/2+z
loop_
_atom_site_type_symbol
_atom_site_label
_atom_site_fract_x
_atom_site_fract_y
_atom_site_fract_z
Si Si1 0.500000 0.966233 0.250000
Si Si2 0.249496 0.162890 0.773194
Si Si3 0.079036 0.344741 0.444939
Si Si4 0.172980 0.544562 0.046099
Si Si5 0.945292 0.823402 0.485401
Si Si6 0.000000 0.798343 0.750000
Si Si7 0.691217 0.376617 0.539893
O O1 0.543771 0.015717 0.158391
O O2 0.662253 0.909276 0.211372
O O3 0.283512 0.146594 0.671542
O O4 0.052420 0.172243 0.868344
O O5 0.357093 0.240874 0.760223
O O6 0.080361 0.415761 0.504839
O O7 0.115641 0.264312 0.476796
O O8 0.887033 0.342000 0.473340
O O9 0.297582 0.611424 0.037228
O O10 0.283659 0.469518 0.979813
O O11 0.082784 0.843525 0.505596
O O12 0.094124 0.850151 0.651875
#
# Coordination Sequence:
#
# PCOD9302925 Si02
#       7
#     4   8   8   8   8   4   8
#     4  11  24  42  72  97 144 184 222 287 364 394
#     4  11  22  41  74 102 134 186 232 284 342 398
#     4  12  25  46  71 102 140 183 232 281 340 418
#     4  12  28  45  67 108 147 177 218 296 360 401
#     4  12  25  46  71 102 140 183 232 281 340 418
#     4  11  22  40  74 109 130 178 248 281 322 406
#     4  12  23  43  72 103 131 179 240 280 324 406
#
# _framework density 21.272195
#
# number of rings (size 3 to 8) (size 9 to 14) (size 15 to 20)
#    0.000    0.333    6.667    3.000    0.000    4.667 
#    0.000    0.000    0.000    0.000    0.000    0.000 
#    0.000    0.000    0.000    0.000    0.000    0.000 
#
# Total GULP energy -134409.562142 kJ/mol
# GULP energy per Si atom -5600.398423 kJ/mol
# Density = 2.122378 g / cm^3
# Si number density = 21.272195 Si / 1000 Ang^3
#
#
#
# Elastic Constant Matrix: (Units=GPa)
#
#
# Indices 1 2 3 4 5 6 
#
# 1 59.4598 12.2062 4.7875 0.0000 15.3257 0.0000
# 2 12.2062 114.1941 13.5099 0.0000 5.1062 0.0000
# 3 4.7875 13.5099 124.3803 0.0000 28.3062 0.0000
# 4 0.0000 0.0000 0.0000 45.2128 0.0000 6.5067
# 5 15.3257 5.1062 28.3062 0.0000 20.9812 0.0000
# 6 0.0000 0.0000 0.0000 6.5067 0.0000 17.1321
#
#
#
# Elastic Compliance Matrix: (Units=1/GPa)
#
#
# Indices 1 2 3 4 5 6 
#
# 1 0.022472 -0.001938 0.004291 0.000000 -0.021733 0.000000
# 2 -0.001938 0.009061 -0.001053 0.000000 0.000631 0.000000
# 3 0.004291 -0.001053 0.012474 0.000000 -0.019707 0.000000
# 4 0.000000 0.000000 0.000000 0.023396 0.000000 -0.008886
# 5 -0.021733 0.000631 -0.019707 0.000000 0.089970 0.000000
# 6 0.000000 0.000000 0.000000 -0.008886 0.000000 0.061745
#
#
# Mechanical properties :
#
#
# Convention : Reuss Voigt Hill
#
# Bulk Modulus (GPa) = 21.45604 39.89349 30.67477
# Shear Modulus (GPa) = 21.54678 34.50059 28.02368
#
# Velocity S-wave (km/s) = 3.18607 4.03161 3.63352
# Velocity P-wave (km/s) = 4.86242 6.36131 5.66169
#
# Compressibility (1/GPa) = 0.04660692
#
# Stress axis : x y z
#
# Youngs Moduli (GPa) = 44.49990 110.36874 80.16662
#
# Poissons Ratio (x) = 0.21389 -0.34403
# Poissons Ratio (y) = 0.08624 0.08444
# Poissons Ratio (z) = -0.19097 0.11625
#
# Static dielectric constant tensor:
#      x y z
#    x 1.792270 0.000000 0.008570 
#    y 0.000000 1.748310 0.000000 
#    z 0.008570 0.000000 1.739700 
# 
# From -- ./inp_files/238993.got.cif
#   From: 2010.05.17/outbox.cif.g08.bks.cpg/sg15_120_cif.got.tgz:238993.got - 2010.06.03 18:47:42.
