data_PCOD9302237
_publ_section_title
;
Structure prediction by ZEFSAII (Michael W. Deem and Ramdas Pophale) SiO2 
 PCOD9302237
Probable space group: C 2/C
;
_chemical_formula_sum "Si O2"
_cell_formula_units_Z 64
_cell_length_a 23.994069
_cell_length_b 13.747265
_cell_length_c 14.000698
_cell_angle_alpha 90.000000
_cell_angle_beta 139.266766
_cell_angle_gamma 90.000000
_cell_volume 3013.531481
_symmetry_space_group_name_H-M "C 2/C"
_symmetry_group_IT_number 15
_symmetry_cell_setting 'monoclinic'
loop_
_space_group_symop_operation_xyz
x,y,z
-x,y,1/2-z
-x,-y,-z
x,-y,1/2+z
1/2+x,1/2+y,z
1/2-x,1/2+y,1/2-z
1/2-x,1/2-y,-z
1/2+x,1/2-y,1/2+z
loop_
_atom_site_type_symbol
_atom_site_label
_atom_site_fract_x
_atom_site_fract_y
_atom_site_fract_z
Si Si1 0.128348 0.311649 0.794418
Si Si2 0.092609 0.936956 0.920017
Si Si3 0.809415 0.461714 0.474794
Si Si4 0.179890 0.174611 0.692250
Si Si5 0.596761 0.662581 0.910991
Si Si6 0.285221 0.646384 0.079874
Si Si7 0.042473 0.418956 0.987827
Si Si8 0.651663 0.755495 0.178204
O O1 0.153806 0.264121 0.726624
O O2 0.142198 0.221405 0.885313
O O3 0.032691 0.354227 0.656932
O O4 0.175166 0.401115 0.907605
O O5 0.163904 0.900569 0.939853
O O6 0.000000 0.926438 0.750000
O O7 0.113840 0.051048 0.957348
O O8 0.105207 0.877058 0.034632
O O9 0.731305 0.407626 0.318910
O O10 0.783834 0.571153 0.468357
O O11 0.891826 0.454359 0.510521
O O12 0.250073 0.217577 0.711257
O O13 0.500000 0.665797 0.750000
O O14 0.616097 0.721364 0.030893
O O15 0.352488 0.671609 0.250459
O O16 0.250000 0.750000 0.000000
O O17 0.098727 0.351679 0.131507
O O18 0.000000 0.500000 0.000000
#
# Coordination Sequence:
#
# PCOD9302237 Si02
#       8
#     8   8   8   8   8   8   8   8
#     4  12  23  43  75 108 141 184 242 299 368 424
#     4  11  27  45  69 103 142 188 245 287 363 434
#     4  11  25  46  71 108 141 187 249 294 368 435
#     4  11  24  43  70 104 139 186 234 297 360 428
#     4  11  21  43  72 101 138 178 227 303 346 428
#     4  12  27  47  68  98 143 193 237 294 362 437
#     4  11  26  43  72 107 144 185 240 305 368 425
#     4  11  24  45  68  99 142 180 235 290 365 420
#
# _framework density 21.237539999999999
#
# number of rings (size 3 to 8) (size 9 to 14) (size 15 to 20)
#    0.000    0.750    5.000    2.250    7.000    0.000 
#    0.000    3.125    0.000    0.000    0.000    0.000 
#    0.000    0.000    0.000    0.000    0.000    0.000 
#
# Total GULP energy -178713.021127 kJ/mol
# GULP energy per Si atom -5584.781910 kJ/mol
# Density = 2.118920 g / cm^3
# Si number density = 21.237540 Si / 1000 Ang^3
#
#
#
# Elastic Constant Matrix: (Units=GPa)
#
#
# Indices 1 2 3 4 5 6 
#
# 1 82.2889 66.1716 44.2305 0.0000 -0.2743 0.0000
# 2 66.1716 128.9235 43.4769 0.0000 5.0328 0.0000
# 3 44.2305 43.4769 94.3895 0.0000 -6.7728 0.0000
# 4 0.0000 0.0000 0.0000 25.2783 0.0000 15.1712
# 5 -0.2743 5.0328 -6.7728 0.0000 26.8785 0.0000
# 6 0.0000 0.0000 0.0000 15.1712 0.0000 28.3556
#
#
#
# Elastic Compliance Matrix: (Units=1/GPa)
#
#
# Indices 1 2 3 4 5 6 
#
# 1 0.023646 -0.009981 -0.006448 0.000000 0.000485 0.000000
# 2 -0.009981 0.013613 -0.001816 0.000000 -0.003109 0.000000
# 3 -0.006448 -0.001816 0.014739 0.000000 0.003988 0.000000
# 4 0.000000 0.000000 0.000000 0.058271 0.000000 -0.031177
# 5 0.000485 -0.003109 0.003988 0.000000 0.038796 0.000000
# 6 0.000000 0.000000 0.000000 -0.031177 0.000000 0.051947
#
#
# Mechanical properties :
#
#
# Convention : Reuss Voigt Hill
#
# Bulk Modulus (GPa) = 64.48777 68.15109 66.31943
# Shear Modulus (GPa) = 20.60384 26.21734 23.41059
#
# Velocity S-wave (km/s) = 3.11812 3.51733 3.32372
# Velocity P-wave (km/s) = 6.58745 6.97532 6.78416
#
# Compressibility (1/GPa) = 0.01550682
#
# Stress axis : x y z
#
# Youngs Moduli (GPa) = 42.29052 73.45743 67.84799
#
# Poissons Ratio (x) = 0.73318 0.43750
# Poissons Ratio (y) = 0.42210 0.12324
# Poissons Ratio (z) = 0.27270 0.13343
#
# Static dielectric constant tensor:
#      x y z
#    x 1.797400 0.000000 -0.035660 
#    y 0.000000 1.784680 0.000000 
#    z -0.035660 0.000000 1.855810 
# 
# From -- ./inp_files/177873.got.cif
#   From: 2010.05.17/outbox.cif.g08.bks.cpg/sg15_89_cif.got.tgz:177873.got - 2010.06.03 18:47:42.
