data_PCOD9302545
_publ_section_title
;
Structure prediction by ZEFSAII (Michael W. Deem and Ramdas Pophale) SiO2 
 PCOD9302545
Probable space group: C 2/C
;
_chemical_formula_sum "Si O2"
_cell_formula_units_Z 32
_cell_length_a 11.192775
_cell_length_b 9.825845
_cell_length_c 13.706012
_cell_angle_alpha 90.000000
_cell_angle_beta 102.672273
_cell_angle_gamma 90.000000
_cell_volume 1470.648054
_symmetry_space_group_name_H-M "C 2/C"
_symmetry_group_IT_number 15
_symmetry_cell_setting 'monoclinic'
loop_
_space_group_symop_operation_xyz
x,y,z
-x,y,1/2-z
-x,-y,-z
x,-y,1/2+z
1/2+x,1/2+y,z
1/2-x,1/2+y,1/2-z
1/2-x,1/2-y,-z
1/2+x,1/2-y,1/2+z
loop_
_atom_site_type_symbol
_atom_site_label
_atom_site_fract_x
_atom_site_fract_y
_atom_site_fract_z
Si Si1 0.968108 0.887004 0.132437
Si Si2 0.787269 0.479820 0.459314
Si Si3 0.983167 0.525524 0.635933
Si Si4 0.925905 0.176146 0.052086
O O1 0.821354 0.878599 0.089670
O O2 0.000000 0.854373 0.250000
O O3 0.998510 0.047920 0.114652
O O4 0.034817 0.812914 0.054377
O O5 0.868533 0.447089 0.568157
O O6 0.711078 0.617711 0.463641
O O7 0.889586 0.499466 0.396128
O O8 0.952954 0.684769 0.611758
O O9 0.000000 0.493081 0.750000
#
# Coordination Sequence:
#
# PCOD9302545 Si02
#       4
#     8   8   8   8
#     4   9  19  37  60  86 120 158 193 251 302 345
#     4   9  22  38  56  88 121 149 203 246 287 368
#     4  11  22  38  61  86 121 161 194 247 307 351
#     4   9  20  38  58  87 117 152 206 236 292 365
#
# _framework density 21.759114
#
# number of rings (size 3 to 8) (size 9 to 14) (size 15 to 20)
#    1.500    1.000    0.000    1.500    3.500    1.000 
#    0.000    5.000    0.000    0.000    0.000    0.000 
#    0.000    0.000    0.000    0.000    0.000    0.000 
#
# Total GULP energy -89219.561253 kJ/mol
# GULP energy per Si atom -5576.222578 kJ/mol
# Density = 2.170959 g / cm^3
# Si number density = 21.759114 Si / 1000 Ang^3
#
#
#
# Elastic Constant Matrix: (Units=GPa)
#
#
# Indices 1 2 3 4 5 6 
#
# 1 159.9409 24.1015 77.8964 0.0000 20.3684 0.0000
# 2 24.1015 75.8960 6.4025 0.0000 5.2359 0.0000
# 3 77.8964 6.4025 209.9796 0.0000 2.4221 0.0000
# 4 0.0000 0.0000 0.0000 28.6050 0.0000 0.6725
# 5 20.3684 5.2359 2.4221 0.0000 16.2248 0.0000
# 6 0.0000 0.0000 0.0000 0.6725 0.0000 8.0953
#
#
#
# Elastic Compliance Matrix: (Units=1/GPa)
#
#
# Indices 1 2 3 4 5 6 
#
# 1 0.009580 -0.002008 -0.003367 0.000000 -0.010876 0.000000
# 2 -0.002008 0.013924 0.000344 0.000000 -0.002024 0.000000
# 3 -0.003367 0.000344 0.005964 0.000000 0.003226 0.000000
# 4 0.000000 0.000000 0.000000 0.035027 0.000000 -0.002910
# 5 -0.010876 -0.002024 0.003226 0.000000 0.075459 0.000000
# 6 0.000000 0.000000 0.000000 -0.002910 0.000000 0.123770
#
#
# Mechanical properties :
#
#
# Convention : Reuss Voigt Hill
#
# Bulk Modulus (GPa) = 51.53286 73.62415 62.57851
# Shear Modulus (GPa) = 17.84091 33.07944 25.46018
#
# Velocity S-wave (km/s) = 2.86655 3.90328 3.42437
# Velocity P-wave (km/s) = 5.88990 7.36366 6.66762
#
# Compressibility (1/GPa) = 0.01940509
#
# Stress axis : x y z
#
# Youngs Moduli (GPa) = 104.38622 71.81748 167.67840
#
# Poissons Ratio (x) = 0.14420 0.56460
# Poissons Ratio (y) = 0.20959 -0.05762
# Poissons Ratio (z) = 0.35149 -0.02468
#
# Static dielectric constant tensor:
#      x y z
#    x 1.777070 0.000000 0.021240 
#    y 0.000000 1.861310 0.000000 
#    z 0.021240 0.000000 1.759140 
# 
# From -- ./inp_files/84034.got.cif
#   From: 2010.05.17/outbox.cif.g08.bks.cpg/sg15_43_cif.got.tgz:84034.got - 2010.06.03 18:47:42.
