data_PCOD9302817
_publ_section_title
;
Structure prediction by ZEFSAII (Michael W. Deem and Ramdas Pophale) SiO2 
 PCOD9302817
Probable space group: C 2/C
;
_chemical_formula_sum "Si O2"
_cell_formula_units_Z 56
_cell_length_a 9.721762
_cell_length_b 26.839406
_cell_length_c 11.209316
_cell_angle_alpha 90.000000
_cell_angle_beta 63.732150
_cell_angle_gamma 90.000000
_cell_volume 2622.775227
_symmetry_space_group_name_H-M "C 2/C"
_symmetry_group_IT_number 15
_symmetry_cell_setting 'monoclinic'
loop_
_space_group_symop_operation_xyz
x,y,z
-x,y,1/2-z
-x,-y,-z
x,-y,1/2+z
1/2+x,1/2+y,z
1/2-x,1/2+y,1/2-z
1/2-x,1/2-y,-z
1/2+x,1/2-y,1/2+z
loop_
_atom_site_type_symbol
_atom_site_label
_atom_site_fract_x
_atom_site_fract_y
_atom_site_fract_z
Si Si1 0.161508 0.959747 0.338782
Si Si2 0.322167 0.193249 0.112636
Si Si3 0.410147 0.874141 0.976815
Si Si4 0.091761 0.794419 0.513357
Si Si5 0.672715 0.144556 0.730573
Si Si6 0.306037 0.533036 0.948692
Si Si7 0.751095 0.792719 0.599932
O O1 0.262126 0.910574 0.317349
O O2 0.196259 0.982575 0.192110
O O3 0.979762 0.945656 0.401551
O O4 0.198253 0.993845 0.440114
O O5 0.410571 0.140467 0.079044
O O6 0.409417 0.234323 0.997951
O O7 0.307943 0.219645 0.245780
O O8 0.156525 0.189552 0.116233
O O9 0.353970 0.838414 0.895554
O O10 0.331222 0.852272 0.125937
O O11 0.336255 0.928302 0.986324
O O12 0.214739 0.817126 0.375280
O O13 0.923639 0.811938 0.547649
O O14 0.500000 0.149506 0.750000
O O15 0.750000 0.750000 0.500000
#
# Coordination Sequence:
#
# PCOD9302817 Si02
#       7
#     8   8   8   8   8   8   8
#     4   9  19  39  66  97 131 175 225 274 342 405
#     4  11  24  41  61  90 129 170 215 271 337 394
#     4  11  22  40  65  96 132 171 214 280 333 394
#     4  11  24  40  65  87 125 175 217 271 326 401
#     4  11  22  41  65  93 129 174 226 271 333 404
#     4   9  19  39  67  98 133 175 223 279 338 417
#     4  12  24  40  61  93 126 167 223 275 330 395
#
# _framework density 21.351430000000001
#
# number of rings (size 3 to 8) (size 9 to 14) (size 15 to 20)
#    0.000    1.429    2.857    2.571    0.000    2.857 
#    2.571    4.286    0.000    0.000    0.000    0.000 
#    0.000    0.000    0.000    0.000    0.000    0.000 
#
# Total GULP energy -156135.564007 kJ/mol
# GULP energy per Si atom -5576.270143 kJ/mol
# Density = 2.130283 g / cm^3
# Si number density = 21.351430 Si / 1000 Ang^3
#
#
#
# Elastic Constant Matrix: (Units=GPa)
#
#
# Indices 1 2 3 4 5 6 
#
# 1 117.5157 38.6642 30.3669 0.0000 -2.2369 0.0000
# 2 38.6642 66.3830 45.8817 0.0000 1.0285 0.0000
# 3 30.3669 45.8817 91.1349 0.0000 11.3908 0.0000
# 4 0.0000 0.0000 0.0000 30.3573 0.0000 -4.0816
# 5 -2.2369 1.0285 11.3908 0.0000 31.8711 0.0000
# 6 0.0000 0.0000 0.0000 -4.0816 0.0000 31.3034
#
#
#
# Elastic Compliance Matrix: (Units=1/GPa)
#
#
# Indices 1 2 3 4 5 6 
#
# 1 0.010597 -0.005589 -0.000872 0.000000 0.001236 0.000000
# 2 -0.005589 0.026446 -0.011824 0.000000 0.002980 0.000000
# 3 -0.000872 -0.011824 0.017979 0.000000 -0.006105 0.000000
# 4 0.000000 0.000000 0.000000 0.033529 0.000000 0.004372
# 5 0.001236 0.002980 -0.006105 0.000000 0.033549 0.000000
# 6 0.000000 0.000000 0.000000 0.004372 0.000000 0.032515
#
#
# Mechanical properties :
#
#
# Convention : Reuss Voigt Hill
#
# Bulk Modulus (GPa) = 54.19404 56.09547 55.14475
# Shear Modulus (GPa) = 25.33754 29.38107 27.35931
#
# Velocity S-wave (km/s) = 3.44857 3.71357 3.58352
# Velocity P-wave (km/s) = 6.42603 6.68707 6.55785
#
# Compressibility (1/GPa) = 0.01845221
#
# Stress axis : x y z
#
# Youngs Moduli (GPa) = 94.36558 37.81352 55.61961
#
# Poissons Ratio (x) = 0.21133 0.04849
# Poissons Ratio (y) = 0.52738 0.65766
# Poissons Ratio (z) = 0.08227 0.44712
#
# Static dielectric constant tensor:
#      x y z
#    x 1.850890 0.000000 0.055010 
#    y 0.000000 1.738170 0.000000 
#    z 0.055010 0.000000 1.835290 
# 
# From -- ./inp_files/81271.got.cif
#   From: 2010.05.17/outbox.cif.g08.bks.cpg/sg15_41_cif.got.tgz:81271.got - 2010.06.03 18:47:42.
