data_PCOD9302528
_publ_section_title
;
Structure prediction by ZEFSAII (Michael W. Deem and Ramdas Pophale) SiO2 
 PCOD9302528
Probable space group: C 2/C
;
_chemical_formula_sum "Si O2"
_cell_formula_units_Z 64
_cell_length_a 9.485372
_cell_length_b 19.322751
_cell_length_c 24.767906
_cell_angle_alpha 90.000000
_cell_angle_beta 53.139305
_cell_angle_gamma 90.000000
_cell_volume 3632.075858
_symmetry_space_group_name_H-M "C 2/C"
_symmetry_group_IT_number 15
_symmetry_cell_setting 'monoclinic'
loop_
_space_group_symop_operation_xyz
x,y,z
-x,y,1/2-z
-x,-y,-z
x,-y,1/2+z
1/2+x,1/2+y,z
1/2-x,1/2+y,1/2-z
1/2-x,1/2-y,-z
1/2+x,1/2-y,1/2+z
loop_
_atom_site_type_symbol
_atom_site_label
_atom_site_fract_x
_atom_site_fract_y
_atom_site_fract_z
Si Si1 0.110261 0.434465 0.777405
Si Si2 0.575941 0.168782 0.792147
Si Si3 0.572852 0.930617 0.572369
Si Si4 0.194864 0.063811 0.578140
Si Si5 0.754415 0.601029 0.070916
Si Si6 0.480730 0.096462 0.921934
Si Si7 0.875459 0.064579 0.726691
Si Si8 0.931733 0.166472 0.205243
O O1 0.235342 0.501245 0.760469
O O2 0.246837 0.371615 0.739157
O O3 0.000000 0.450505 0.750000
O O4 0.967264 0.415633 0.856310
O O5 0.500000 0.151746 0.750000
O O6 0.476160 0.133256 0.865396
O O7 0.767384 0.135084 0.753656
O O8 0.579481 0.251139 0.796941
O O9 0.745184 0.914404 0.496226
O O10 0.411701 0.893780 0.578131
O O11 0.551567 0.014093 0.575412
O O12 0.331558 0.099516 0.589133
O O13 0.997931 0.070027 0.645572
O O14 0.226514 0.981411 0.573573
O O15 0.578528 0.637105 0.131021
O O16 0.832500 0.625517 0.996172
O O17 0.000000 0.055215 0.750000
O O18 0.000000 0.149201 0.250000
#
# Coordination Sequence:
#
# PCOD9302528 Si02
#       8
#     8   8   8   8   8   8   8   8
#     4  12  23  36  58  87 116 145 184 241 291 327
#     4  11  24  37  53  85 120 149 189 236 286 324
#     4   9  17  32  57  85 115 138 179 242 288 326
#     4   9  17  31  58  89 105 141 192 231 279 340
#     4   9  16  32  59  85 110 140 196 227 273 344
#     4   9  17  32  55  87 113 145 179 238 281 329
#     4  12  20  36  62  84 109 150 195 228 277 348
#     4  11  22  38  58  81 111 158 195 228 275 343
#
# _framework density 17.620778000000001
#
# number of rings (size 3 to 8) (size 9 to 14) (size 15 to 20)
#    0.000    1.750    5.000    3.000    0.000    1.000 
#    0.000    1.875    0.000    0.750    0.000    0.000 
#    0.000    0.000    0.000    0.000    0.000    0.000 
#
# Total GULP energy -178252.975751 kJ/mol
# GULP energy per Si atom -5570.405492 kJ/mol
# Density = 1.758067 g / cm^3
# Si number density = 17.620778 Si / 1000 Ang^3
#
#
#
# Elastic Constant Matrix: (Units=GPa)
#
#
# Indices 1 2 3 4 5 6 
#
# 1 72.1569 30.2695 37.7857 -0.0002 13.4039 0.0000
# 2 30.2695 53.3551 29.6588 -0.0002 4.9613 0.0001
# 3 37.7857 29.6588 171.8381 -0.0006 3.1693 0.0004
# 4 -0.0002 -0.0002 -0.0006 12.4807 0.0003 -1.1490
# 5 13.4039 4.9613 3.1693 0.0003 20.1940 -0.0002
# 6 0.0000 0.0001 0.0004 -1.1490 -0.0002 19.4710
#
#
#
# Elastic Compliance Matrix: (Units=1/GPa)
#
#
# Indices 1 2 3 4 5 6 
#
# 1 0.021490 -0.009530 -0.002869 0.000000 -0.011473 0.000000
# 2 -0.009530 0.025382 -0.002294 0.000000 0.000450 0.000000
# 3 -0.002869 -0.002294 0.006820 0.000000 0.001397 0.000000
# 4 0.000000 0.000000 0.000000 0.080561 -0.000002 0.004754
# 5 -0.011473 0.000450 0.001397 -0.000002 0.056805 0.000000
# 6 0.000000 0.000000 0.000000 0.004754 0.000000 0.051639
#
#
# Mechanical properties :
#
#
# Convention : Reuss Voigt Hill
#
# Bulk Modulus (GPa) = 41.14027 54.75313 47.94670
# Shear Modulus (GPa) = 17.84530 23.73821 20.79176
#
# Velocity S-wave (km/s) = 3.18581 3.67437 3.43878
# Velocity P-wave (km/s) = 6.07707 7.01012 6.56021
#
# Compressibility (1/GPa) = 0.02430708
#
# Stress axis : x y z
#
# Youngs Moduli (GPa) = 46.53304 39.39770 146.61918
#
# Poissons Ratio (x) = 0.37547 0.42065
# Poissons Ratio (y) = 0.44347 0.33628
# Poissons Ratio (z) = 0.13350 0.09036
#
# Static dielectric constant tensor:
#      x y z
#    x 1.588610 0.000000 0.002650 
#    y 0.000000 1.576430 0.000000 
#    z 0.002650 0.000000 1.672220 
# 
# From -- ./inp_files/265913.got.cif
#   From: 2010.05.17/outbox.cif.g08.bks.cpg/sg15_133_cif.got.tgz:265913.got - 2010.06.03 18:47:42.
