data_PCOD9302374
_publ_section_title
;
Structure prediction by ZEFSAII (Michael W. Deem and Ramdas Pophale) SiO2 
 PCOD9302374
Probable space group: C 2/C
;
_chemical_formula_sum "Si O2"
_cell_formula_units_Z 52
_cell_length_a 25.132488
_cell_length_b 9.131474
_cell_length_c 13.543901
_cell_angle_alpha 90.000000
_cell_angle_beta 48.284861
_cell_angle_gamma 90.000000
_cell_volume 2320.214143
_symmetry_space_group_name_H-M "C 2/C"
_symmetry_group_IT_number 15
_symmetry_cell_setting 'monoclinic'
loop_
_space_group_symop_operation_xyz
x,y,z
-x,y,1/2-z
-x,-y,-z
x,-y,1/2+z
1/2+x,1/2+y,z
1/2-x,1/2+y,1/2-z
1/2-x,1/2-y,-z
1/2+x,1/2-y,1/2+z
loop_
_atom_site_type_symbol
_atom_site_label
_atom_site_fract_x
_atom_site_fract_y
_atom_site_fract_z
Si Si1 0.620063 0.229219 0.002767
Si Si2 0.834035 0.336603 0.840308
Si Si3 0.000000 0.271286 0.250000
Si Si4 0.262437 0.615769 0.776187
Si Si5 0.120446 0.054028 0.033258
Si Si6 0.515558 0.034273 0.368897
Si Si7 0.265814 0.417678 0.955953
O O1 0.681615 0.168930 0.853695
O O2 0.661606 0.230781 0.055802
O O3 0.595219 0.396443 0.023105
O O4 0.553749 0.118599 0.087964
O O5 0.799148 0.237010 0.800784
O O6 0.789374 0.483470 0.913573
O O7 0.915424 0.365957 0.715867
O O8 0.942460 0.170974 0.377149
O O9 0.032018 0.385148 0.289744
O O10 0.314575 0.597367 0.619485
O O11 0.258241 0.470468 0.851448
O O12 0.155882 0.046806 0.098347
O O13 0.500000 0.000000 0.500000
O O14 0.250000 0.250000 0.000000
#
# Coordination Sequence:
#
# PCOD9302374 Si02
#       7
#     8   8   4   8   8   8   8
#     4  11  24  47  72 102 144 199 234 302 371 441
#     4  11  21  48  70  97 143 191 240 290 365 435
#     4  12  28  48  66 114 144 184 244 310 358 442
#     4  11  25  45  73 107 140 188 251 293 373 440
#     4  12  27  43  73 104 148 186 243 308 364 438
#     4  12  27  46  76 103 145 198 240 295 376 442
#     4  11  24  40  70 104 143 183 235 305 359 427
#
# _framework density 22.411725000000001
#
# number of rings (size 3 to 8) (size 9 to 14) (size 15 to 20)
#    0.000    0.615    4.615    2.769    8.615    1.231 
#    0.000    2.308    0.000    0.000    0.000    0.000 
#    0.000    0.000    0.000    0.000    0.000    0.000 
#
# Total GULP energy -145387.546393 kJ/mol
# GULP energy per Si atom -5591.828707 kJ/mol
# Density = 2.236071 g / cm^3
# Si number density = 22.411725 Si / 1000 Ang^3
#
#
#
# Elastic Constant Matrix: (Units=GPa)
#
#
# Indices 1 2 3 4 5 6 
#
# 1 53.6616 19.1002 8.8442 0.0000 -16.6477 0.0000
# 2 19.1002 151.8497 41.5824 0.0000 -17.3017 0.0000
# 3 8.8442 41.5824 123.0616 0.0000 -13.1833 0.0000
# 4 0.0000 0.0000 0.0000 31.6995 0.0000 -8.4829
# 5 -16.6477 -17.3017 -13.1833 0.0000 41.0379 0.0000
# 6 0.0000 0.0000 0.0000 -8.4829 0.0000 28.9694
#
#
#
# Elastic Compliance Matrix: (Units=1/GPa)
#
#
# Indices 1 2 3 4 5 6 
#
# 1 0.021788 -0.001797 -0.000096 0.000000 0.008050 0.000000
# 2 -0.001797 0.007631 -0.002261 0.000000 0.001762 0.000000
# 3 -0.000096 -0.002261 0.009104 0.000000 0.001932 0.000000
# 4 0.000000 0.000000 0.000000 0.034228 0.000000 0.010023
# 5 0.008050 0.001762 0.001932 0.000000 0.028997 0.000000
# 6 0.000000 0.000000 0.000000 0.010023 0.000000 0.037454
#
#
# Mechanical properties :
#
#
# Convention : Reuss Voigt Hill
#
# Bulk Modulus (GPa) = 33.09564 51.95851 42.52708
# Shear Modulus (GPa) = 31.72937 37.61111 34.67024
#
# Velocity S-wave (km/s) = 3.76673 4.10101 3.93742
# Velocity P-wave (km/s) = 5.80662 6.75710 6.29981
#
# Compressibility (1/GPa) = 0.03021546
#
# Stress axis : x y z
#
# Youngs Moduli (GPa) = 45.89636 131.03860 109.84382
#
# Poissons Ratio (x) = 0.23548 0.01057
# Poissons Ratio (y) = 0.08248 0.24832
# Poissons Ratio (z) = 0.00442 0.29624
#
# Static dielectric constant tensor:
#      x y z
#    x 1.828120 0.000000 0.015230 
#    y 0.000000 1.860680 0.000000 
#    z 0.015230 0.000000 1.900510 
# 
# From -- ./inp_files/181080.got.cif
#   From: 2010.05.17/outbox.cif.g08.bks.cpg/sg15_91_cif.got.tgz:181080.got - 2010.06.03 18:47:42.
