data_PCOD9302427
_publ_section_title
;
Structure prediction by ZEFSAII (Michael W. Deem and Ramdas Pophale) SiO2 
 PCOD9302427
Probable space group: C 2/C
;
_chemical_formula_sum "Si O2"
_cell_formula_units_Z 40
_cell_length_a 7.831427
_cell_length_b 26.963656
_cell_length_c 11.032144
_cell_angle_alpha 90.000000
_cell_angle_beta 140.250517
_cell_angle_gamma 90.000000
_cell_volume 1489.614922
_symmetry_space_group_name_H-M "C 2/C"
_symmetry_group_IT_number 15
_symmetry_cell_setting 'monoclinic'
loop_
_space_group_symop_operation_xyz
x,y,z
-x,y,1/2-z
-x,-y,-z
x,-y,1/2+z
1/2+x,1/2+y,z
1/2-x,1/2+y,1/2-z
1/2-x,1/2-y,-z
1/2+x,1/2-y,1/2+z
loop_
_atom_site_type_symbol
_atom_site_label
_atom_site_fract_x
_atom_site_fract_y
_atom_site_fract_z
Si Si1 0.295408 0.314716 0.862734
Si Si2 0.791308 0.378473 0.347482
Si Si3 0.921248 0.721014 0.496051
Si Si4 0.677888 0.410570 0.723535
Si Si5 0.261952 0.516240 0.717483
O O1 0.269145 0.302055 0.707283
O O2 0.422042 0.369088 0.925999
O O3 0.000000 0.319129 0.750000
O O4 0.425789 0.265856 0.987863
O O5 0.500000 0.370196 0.250000
O O6 0.788575 0.428201 0.263427
O O7 0.898749 0.325018 0.359909
O O8 0.019261 0.395088 0.571481
O O9 0.750000 0.750000 0.500000
O O10 0.500000 0.410333 0.750000
O O11 0.679911 0.466623 0.673393
O O12 0.500000 0.521386 0.750000
O O13 0.000000 0.500000 0.500000
#
# Coordination Sequence:
#
# PCOD9302427 Si02
#       5
#     8   8   8   8   8
#     4  11  22  36  55  81 113 152 196 245 294 348
#     4   9  17  30  52  84 113 144 188 238 288 340
#     4  11  22  38  58  83 114 153 197 245 296 353
#     4   9  17  32  53  80 111 148 190 234 283 341
#     4   8  14  26  48  78 109 141 184 232 281 336
#
# _framework density 26.852575999999999
#
# number of rings (size 3 to 8) (size 9 to 14) (size 15 to 20)
#    0.000    2.400    0.000    4.200    0.000    1.600 
#    0.000    0.000    0.000    2.400    0.000  110.600 
#    0.000    0.000    0.000    0.000    0.000    0.200 
#
# Total GULP energy -111730.965934 kJ/mol
# GULP energy per Si atom -5586.548297 kJ/mol
# Density = 2.679146 g / cm^3
# Si number density = 26.852576 Si / 1000 Ang^3
#
#
#
# Elastic Constant Matrix: (Units=GPa)
#
#
# Indices 1 2 3 4 5 6 
#
# 1 111.6926 37.9393 24.9159 0.0000 27.5259 0.0000
# 2 37.9393 328.4588 55.4081 0.0000 11.8157 0.0000
# 3 24.9159 55.4081 81.2620 0.0000 28.8412 0.0000
# 4 0.0000 0.0000 0.0000 -323.2019 0.0000 160.4786
# 5 27.5259 11.8157 28.8412 0.0000 35.7735 0.0000
# 6 0.0000 0.0000 0.0000 160.4786 0.0000 -33.4553
#
#
#
# Elastic Compliance Matrix: (Units=1/GPa)
#
#
# Indices 1 2 3 4 5 6 
#
# 1 0.011375 -0.001053 0.000299 0.000000 -0.008645 0.000000
# 2 -0.001053 0.003567 -0.002771 0.000000 0.001867 0.000000
# 3 0.000299 -0.002771 0.019417 0.000000 -0.014969 0.000000
# 4 0.000000 0.000000 0.000000 0.002239 0.000000 0.010741
# 5 -0.008645 0.001867 -0.014969 0.000000 0.046057 0.000000
# 6 0.000000 0.000000 0.000000 0.010741 0.000000 0.021633
#
#
# Mechanical properties :
#
#
# Convention : Reuss Voigt Hill
#
# Bulk Modulus (GPa) = 36.62162 84.21556 60.41859
# Shear Modulus (GPa) = 41.51423 -37.30009 2.10707
#
# Velocity S-wave (km/s) = 3.93619 -3.73107 0.88678
# Velocity P-wave (km/s) = 5.85882 3.58736 4.85772
#
# Compressibility (1/GPa) = 0.02730627
#
# Stress axis : x y z
#
# Youngs Moduli (GPa) = 87.91320 280.38317 51.50259
#
# Poissons Ratio (x) = 0.29533 -0.01540
# Poissons Ratio (y) = 0.09260 0.14274
# Poissons Ratio (z) = -0.02628 0.77707
#
# Static dielectric constant tensor:
#      x y z
#    x 2.104520 0.000000 -0.042280 
#    y 0.000000 2.345730 0.000000 
#    z -0.042280 0.000000 2.214520 
# 
# From -- ./inp_files/138356.got.cif
#   From: 2010.05.17/outbox.cif.g08.bks.cpg/sg15_70_cif.got.tgz:138356.got - 2010.06.03 18:47:42.
