data_PCOD9302359
_publ_section_title
;
Structure prediction by ZEFSAII (Michael W. Deem and Ramdas Pophale) SiO2 
 PCOD9302359
Probable space group: C 2/C
;
_chemical_formula_sum "Si O2"
_cell_formula_units_Z 32
_cell_length_a 18.982686
_cell_length_b 5.510864
_cell_length_c 13.267999
_cell_angle_alpha 90.000000
_cell_angle_beta 63.024389
_cell_angle_gamma 90.000000
_cell_volume 1236.966151
_symmetry_space_group_name_H-M "C 2/C"
_symmetry_group_IT_number 15
_symmetry_cell_setting 'monoclinic'
loop_
_space_group_symop_operation_xyz
x,y,z
-x,y,1/2-z
-x,-y,-z
x,-y,1/2+z
1/2+x,1/2+y,z
1/2-x,1/2+y,1/2-z
1/2-x,1/2-y,-z
1/2+x,1/2-y,1/2+z
loop_
_atom_site_type_symbol
_atom_site_label
_atom_site_fract_x
_atom_site_fract_y
_atom_site_fract_z
Si Si1 0.792364 0.816294 0.692497
Si Si2 0.536610 0.201697 0.399813
Si Si3 0.117926 0.975528 0.521798
Si Si4 0.089230 0.321016 0.224131
O O1 0.754569 0.554242 0.740222
O O2 0.873966 0.806880 0.703202
O O3 0.812357 0.851217 0.561757
O O4 0.598596 0.317167 0.435810
O O5 0.462367 0.366024 0.414242
O O6 0.500000 0.000000 0.500000
O O7 0.579829 0.094170 0.272861
O O8 0.136244 0.789310 0.599523
O O9 0.000000 0.262875 0.250000
#
# Coordination Sequence:
#
# PCOD9302359 Si02
#       4
#     8   8   8   8
#     4  12  29  51  75 111 166 215 257 319 396 474
#     4  11  21  46  75 115 155 192 255 344 393 451
#     4  11  25  46  74 112 157 202 258 327 392 464
#     4  12  25  47  81 116 142 204 262 324 389 470
#
# _framework density 25.869745000000002
#
# number of rings (size 3 to 8) (size 9 to 14) (size 15 to 20)
#    0.000    0.500    5.000    3.000    0.000    7.000 
#    0.000    0.000    0.000    0.000    0.000    0.000 
#    0.000    0.000    0.000    0.000    0.000    0.000 
#
# Total GULP energy -89370.150185 kJ/mol
# GULP energy per Si atom -5585.634387 kJ/mol
# Density = 2.581086 g / cm^3
# Si number density = 25.869745 Si / 1000 Ang^3
#
#
#
# Elastic Constant Matrix: (Units=GPa)
#
#
# Indices 1 2 3 4 5 6 
#
# 1 39.4198 15.0894 14.2176 0.0001 6.0777 0.0004
# 2 15.0894 106.4508 46.7765 -0.0002 3.6208 0.0009
# 3 14.2176 46.7765 103.8606 0.0000 11.9354 -0.0004
# 4 0.0001 -0.0002 0.0000 49.2904 0.0000 13.3836
# 5 6.0777 3.6208 11.9354 0.0000 33.3860 0.0001
# 6 0.0004 0.0009 -0.0004 13.3836 0.0001 23.0922
#
#
#
# Elastic Compliance Matrix: (Units=1/GPa)
#
#
# Indices 1 2 3 4 5 6 
#
# 1 0.027838 -0.002915 -0.002036 0.000000 -0.004024 0.000000
# 2 -0.002915 0.012030 -0.005141 0.000000 0.001064 -0.000001
# 3 -0.002036 -0.005141 0.012635 0.000000 -0.003589 0.000001
# 4 0.000000 0.000000 0.000000 0.024077 0.000000 -0.013954
# 5 -0.004024 0.001064 -0.003589 0.000000 0.031853 0.000000
# 6 0.000000 -0.000001 0.000001 -0.013954 0.000000 0.051392
#
#
# Mechanical properties :
#
#
# Convention : Reuss Voigt Hill
#
# Bulk Modulus (GPa) = 30.94073 44.65535 37.79804
# Shear Modulus (GPa) = 26.20792 32.73024 29.46908
#
# Velocity S-wave (km/s) = 3.18633 3.56082 3.37877
# Velocity P-wave (km/s) = 5.05204 5.84850 5.46480
#
# Compressibility (1/GPa) = 0.03231986
#
# Stress axis : x y z
#
# Youngs Moduli (GPa) = 35.92176 83.12414 79.14558
#
# Poissons Ratio (x) = 0.24228 0.16112
# Poissons Ratio (y) = 0.10470 0.40692
# Poissons Ratio (z) = 0.07313 0.42737
#
# Static dielectric constant tensor:
#      x y z
#    x 2.091520 0.000000 -0.126010 
#    y 0.000000 2.187290 0.000000 
#    z -0.126010 0.000000 2.099330 
# 
# From -- ./inp_files/115549.got.cif
#   From: 2010.05.17/outbox.cif.g08.bks.cpg/sg15_58_cif.got.tgz:115549.got - 2010.06.03 18:47:42.
