data_PCOD9302432
_publ_section_title
;
Structure prediction by ZEFSAII (Michael W. Deem and Ramdas Pophale) SiO2 
 PCOD9302432
Probable space group: C 2/C
;
_chemical_formula_sum "Si O2"
_cell_formula_units_Z 48
_cell_length_a 13.051268
_cell_length_b 11.968096
_cell_length_c 17.335603
_cell_angle_alpha 90.000000
_cell_angle_beta 110.765066
_cell_angle_gamma 90.000000
_cell_volume 2531.907591
_symmetry_space_group_name_H-M "C 2/C"
_symmetry_group_IT_number 15
_symmetry_cell_setting 'monoclinic'
loop_
_space_group_symop_operation_xyz
x,y,z
-x,y,1/2-z
-x,-y,-z
x,-y,1/2+z
1/2+x,1/2+y,z
1/2-x,1/2+y,1/2-z
1/2-x,1/2-y,-z
1/2+x,1/2-y,1/2+z
loop_
_atom_site_type_symbol
_atom_site_label
_atom_site_fract_x
_atom_site_fract_y
_atom_site_fract_z
Si Si1 0.789150 0.376758 0.997982
Si Si2 0.109192 0.058321 0.998197
Si Si3 0.312953 0.616112 0.180344
Si Si4 0.396123 0.630500 0.673906
Si Si5 0.532257 0.179194 0.839694
Si Si6 0.689000 0.283484 0.655686
O O1 0.696573 0.462427 0.000957
O O2 0.895037 0.388764 0.079931
O O3 0.750000 0.250000 0.000000
O O4 0.790071 0.390498 0.905706
O O5 0.159868 0.136854 0.076918
O O6 0.083610 0.124032 0.912349
O O7 0.000000 0.000000 0.000000
O O8 0.371967 0.496876 0.193798
O O9 0.396196 0.711439 0.168746
O O10 0.283441 0.648667 0.259032
O O11 0.500000 0.672004 0.750000
O O12 0.288565 0.702703 0.661668
O O13 0.500000 0.121714 0.750000
O O14 0.422039 0.217716 0.852218
#
# Coordination Sequence:
#
# PCOD9302432 Si02
#       6
#     8   8   8   8   8   8
#     4   9  18  34  57  85 108 139 193 238 273 332
#     4  11  22  38  61  83 113 154 194 233 281 343
#     4   9  19  37  58  81 107 145 192 231 277 344
#     4  11  23  39  57  83 116 149 189 236 282 340
#     4   9  18  34  56  82 111 144 189 239 283 341
#     4  11  22  36  57  86 114 147 190 237 287 338
#
# _framework density 18.958038999999999
#
# number of rings (size 3 to 8) (size 9 to 14) (size 15 to 20)
#    0.000    2.000    0.000    6.000    0.000    9.333 
#    0.000    5.833    0.000    0.000    0.000    0.000 
#    0.000    0.000    0.000    0.000    0.000    0.000 
#
# Total GULP energy -133912.246028 kJ/mol
# GULP energy per Si atom -5579.676918 kJ/mol
# Density = 1.891489 g / cm^3
# Si number density = 18.958039 Si / 1000 Ang^3
#
#
#
# Elastic Constant Matrix: (Units=GPa)
#
#
# Indices 1 2 3 4 5 6 
#
# 1 83.5306 35.0691 85.0239 0.0000 -4.5247 0.0000
# 2 35.0691 34.2970 47.1331 0.0000 1.5742 0.0000
# 3 85.0239 47.1331 211.7524 0.0000 5.7371 0.0000
# 4 0.0000 0.0000 0.0000 29.2488 0.0000 0.4692
# 5 -4.5247 1.5742 5.7371 0.0000 35.1251 0.0000
# 6 0.0000 0.0000 0.0000 0.4692 0.0000 14.4840
#
#
#
# Elastic Compliance Matrix: (Units=1/GPa)
#
#
# Indices 1 2 3 4 5 6 
#
# 1 0.027005 -0.018381 -0.006899 0.000000 0.005429 0.000000
# 2 -0.018381 0.054522 -0.004646 0.000000 -0.004053 0.000000
# 3 -0.006899 -0.004646 0.008583 0.000000 -0.002082 0.000000
# 4 0.000000 0.000000 0.000000 0.034207 0.000000 -0.001108
# 5 0.005429 -0.004053 -0.002082 0.000000 0.029691 0.000000
# 6 0.000000 0.000000 0.000000 -0.001108 0.000000 0.069078
#
#
# Mechanical properties :
#
#
# Convention : Reuss Voigt Hill
#
# Bulk Modulus (GPa) = 33.04806 73.78133 53.41469
# Shear Modulus (GPa) = 17.06344 26.59517 21.82930
#
# Velocity S-wave (km/s) = 3.00336 3.74952 3.39699
# Velocity P-wave (km/s) = 5.43111 7.59920 6.60473
#
# Compressibility (1/GPa) = 0.03025897
#
# Stress axis : x y z
#
# Youngs Moduli (GPa) = 37.03003 18.34109 116.50904
#
# Poissons Ratio (x) = 0.33713 0.80378
# Poissons Ratio (y) = 0.68066 0.54125
# Poissons Ratio (z) = 0.25547 0.08520
#
# Static dielectric constant tensor:
#      x y z
#    x 1.590180 0.000000 0.039270 
#    y 0.000000 1.648210 0.000000 
#    z 0.039270 0.000000 1.700020 
# 
# From -- ./inp_files/196595.got.cif
#   From: 2010.05.17/outbox.cif.g08.bks.cpg/sg15_99_cif.got.tgz:196595.got - 2010.06.03 18:47:42.
