data_PCOD9302857
_publ_section_title
;
Structure prediction by ZEFSAII (Michael W. Deem and Ramdas Pophale) SiO2 
 PCOD9302857
Probable space group: C 2/C
;
_chemical_formula_sum "Si O2"
_cell_formula_units_Z 40
_cell_length_a 12.058608
_cell_length_b 17.635470
_cell_length_c 17.645413
_cell_angle_alpha 90.000000
_cell_angle_beta 148.226155
_cell_angle_gamma 90.000000
_cell_volume 1975.924376
_symmetry_space_group_name_H-M "C 2/C"
_symmetry_group_IT_number 15
_symmetry_cell_setting 'monoclinic'
loop_
_space_group_symop_operation_xyz
x,y,z
-x,y,1/2-z
-x,-y,-z
x,-y,1/2+z
1/2+x,1/2+y,z
1/2-x,1/2+y,1/2-z
1/2-x,1/2-y,-z
1/2+x,1/2-y,1/2+z
loop_
_atom_site_type_symbol
_atom_site_label
_atom_site_fract_x
_atom_site_fract_y
_atom_site_fract_z
Si Si1 0.049634 0.706194 0.917562
Si Si2 0.586429 0.957398 0.125957
Si Si3 0.021748 0.872810 0.348085
Si Si4 0.513827 0.097573 0.346365
Si Si5 0.101105 0.739850 0.118484
O O1 0.053665 0.614430 0.927121
O O2 0.842314 0.732809 0.752686
O O3 0.250000 0.750000 0.000000
O O4 0.014018 0.730263 0.984034
O O5 0.817090 0.923932 0.243098
O O6 0.600437 0.019515 0.199830
O O7 0.500000 0.000000 0.000000
O O8 0.243028 0.913866 0.487989
O O9 0.000000 0.843072 0.250000
O O10 0.019681 0.804037 0.405430
O O11 0.500000 0.116760 0.250000
O O12 0.421888 0.163189 0.346775
#
# Coordination Sequence:
#
# PCOD9302857 Si02
#       5
#     8   8   8   8   8
#     4  11  24  42  67  93 132 176 219 266 336 395
#     4  11  23  44  63  93 135 174 221 269 328 406
#     4  11  22  40  67  91 128 172 212 265 333 392
#     4  12  24  40  66  97 127 170 220 275 330 387
#     4  11  22  41  64  95 131 163 224 271 318 397
#
# _framework density 20.243690000000001
#
# number of rings (size 3 to 8) (size 9 to 14) (size 15 to 20)
#    0.000    0.800    4.000    4.200    0.000    5.600 
#    3.600    0.000    0.000    0.000    0.000    0.000 
#    0.000    0.000    0.000    0.000    0.000    0.000 
#
# Total GULP energy -111797.033915 kJ/mol
# GULP energy per Si atom -5589.851696 kJ/mol
# Density = 2.019761 g / cm^3
# Si number density = 20.243690 Si / 1000 Ang^3
#
#
#
# Elastic Constant Matrix: (Units=GPa)
#
#
# Indices 1 2 3 4 5 6 
#
# 1 68.5039 26.0185 -12.2203 -0.0014 1.3771 -0.0005
# 2 26.0185 114.6046 1.4043 0.0009 17.4174 0.0003
# 3 -12.2203 1.4043 36.4068 -0.0004 -3.5101 0.0001
# 4 -0.0014 0.0009 -0.0004 24.0219 -0.0005 -1.8209
# 5 1.3771 17.4174 -3.5101 -0.0005 36.7004 -0.0003
# 6 -0.0005 0.0003 0.0001 -1.8209 -0.0003 32.3075
#
#
#
# Elastic Compliance Matrix: (Units=1/GPa)
#
#
# Indices 1 2 3 4 5 6 
#
# 1 0.017291 -0.004302 0.006161 0.000001 0.001982 0.000000
# 2 -0.004302 0.010498 -0.002335 -0.000001 -0.005044 0.000000
# 3 0.006161 -0.002335 0.029987 0.000001 0.003745 0.000000
# 4 0.000001 -0.000001 0.000001 0.041807 0.000001 0.002356
# 5 0.001982 -0.005044 0.003745 0.000001 0.029925 0.000000
# 6 0.000000 0.000000 0.000000 0.002356 0.000000 0.031085
#
#
# Mechanical properties :
#
#
# Convention : Reuss Voigt Hill
#
# Bulk Modulus (GPa) = 17.59887 27.76890 22.68388
# Shear Modulus (GPa) = 27.70285 32.22681 29.96483
#
# Velocity S-wave (km/s) = 3.70330 3.99425 3.85152
# Velocity P-wave (km/s) = 5.19598 5.91769 5.56854
#
# Compressibility (1/GPa) = 0.05682183
#
# Stress axis : x y z
#
# Youngs Moduli (GPa) = 57.83373 95.26017 33.34826
#
# Poissons Ratio (x) = 0.40984 -0.20546
# Poissons Ratio (y) = 0.24882 0.07788
# Poissons Ratio (z) = -0.35631 0.22246
#
# Static dielectric constant tensor:
#      x y z
#    x 1.708020 0.000000 0.010960 
#    y 0.000000 1.726530 0.000000 
#    z 0.010960 0.000000 1.698850 
# 
# From -- ./inp_files/29045.got.cif
#   From: 2010.05.17/outbox.cif.g08.bks.cpg/sg15_15_cif.got.tgz:29045.got - 2010.06.03 18:47:42.
