data_PCOD9302742
_publ_section_title
;
Structure prediction by ZEFSAII (Michael W. Deem and Ramdas Pophale) SiO2 
 PCOD9302742
Probable space group: C 2/C
;
_chemical_formula_sum "Si O2"
_cell_formula_units_Z 64
_cell_length_a 13.959896
_cell_length_b 14.831942
_cell_length_c 18.561638
_cell_angle_alpha 90.000000
_cell_angle_beta 52.154751
_cell_angle_gamma 90.000000
_cell_volume 3034.887093
_symmetry_space_group_name_H-M "C 2/C"
_symmetry_group_IT_number 15
_symmetry_cell_setting 'monoclinic'
loop_
_space_group_symop_operation_xyz
x,y,z
-x,y,1/2-z
-x,-y,-z
x,-y,1/2+z
1/2+x,1/2+y,z
1/2-x,1/2+y,1/2-z
1/2-x,1/2-y,-z
1/2+x,1/2-y,1/2+z
loop_
_atom_site_type_symbol
_atom_site_label
_atom_site_fract_x
_atom_site_fract_y
_atom_site_fract_z
Si Si1 0.017963 0.862345 0.668615
Si Si2 0.789807 0.206979 0.185456
Si Si3 0.516930 0.477158 0.075478
Si Si4 0.681282 0.805736 0.093455
Si Si5 0.869431 0.787010 0.483577
Si Si6 0.969433 0.657466 0.181173
Si Si7 0.499446 0.958621 0.336712
Si Si8 0.237273 0.114413 0.790171
O O1 0.094391 0.775862 0.657801
O O2 0.000000 0.917256 0.750000
O O3 0.897587 0.825761 0.686312
O O4 0.070500 0.934015 0.588189
O O5 0.844132 0.217637 0.080651
O O6 0.674857 0.141408 0.246355
O O7 0.732744 0.299525 0.240519
O O8 0.381113 0.447757 0.162753
O O9 0.500000 0.500000 0.000000
O O10 0.601952 0.390961 0.046169
O O11 0.599470 0.884562 0.095632
O O12 0.748149 0.847998 0.133171
O O13 0.750000 0.750000 0.000000
O O14 0.750000 0.750000 0.500000
O O15 0.980887 0.728895 0.399611
O O16 0.029209 0.561780 0.132737
O O17 0.000000 0.684156 0.250000
O O18 0.500000 0.953711 0.250000
O O19 0.636763 0.932142 0.291701
#
# Coordination Sequence:
#
# PCOD9302742 Si02
#       8
#     8   8   8   8   8   8   8   8
#     4  12  24  44  69 102 140 185 236 296 355 424
#     4  12  23  44  73  97 141 185 234 293 363 422
#     4  12  26  43  71 105 141 187 245 294 358 432
#     4  11  22  39  68  99 138 181 233 289 351 422
#     4  12  27  44  70 103 141 187 238 287 359 437
#     4  11  23  44  72  99 136 183 233 297 359 415
#     4   9  20  39  65  94 129 177 229 277 348 420
#     4  11  22  42  69  98 137 187 234 287 356 422
#
# _framework density 21.088100000000001
#
# number of rings (size 3 to 8) (size 9 to 14) (size 15 to 20)
#    0.000    0.750    6.250    1.875    0.000    3.500 
#    0.000    0.625    0.000    0.000    0.000    0.000 
#    0.000    0.000    0.000    0.000    0.000    0.000 
#
# Total GULP energy -178562.627925 kJ/mol
# GULP energy per Si atom -5580.082123 kJ/mol
# Density = 2.104010 g / cm^3
# Si number density = 21.088100 Si / 1000 Ang^3
#
#
#
# Elastic Constant Matrix: (Units=GPa)
#
#
# Indices 1 2 3 4 5 6 
#
# 1 60.3830 0.1689 14.3795 0.0000 5.2061 0.0000
# 2 0.1689 98.7019 22.6391 0.0000 0.7722 0.0000
# 3 14.3795 22.6391 101.3151 0.0000 3.7930 0.0000
# 4 0.0000 0.0000 0.0000 33.7147 0.0000 3.1106
# 5 5.2061 0.7722 3.7930 0.0000 29.5345 0.0000
# 6 0.0000 0.0000 0.0000 3.1106 0.0000 15.6784
#
#
#
# Elastic Compliance Matrix: (Units=1/GPa)
#
#
# Indices 1 2 3 4 5 6 
#
# 1 0.017390 0.000563 -0.002491 0.000000 -0.002760 0.000000
# 2 0.000563 0.010697 -0.002468 0.000000 -0.000062 0.000000
# 3 -0.002491 -0.002468 0.010808 0.000000 -0.000885 0.000000
# 4 0.000000 0.000000 0.000000 0.030214 0.000000 -0.005994
# 5 -0.002760 -0.000062 -0.000885 0.000000 0.034460 0.000000
# 6 0.000000 0.000000 0.000000 -0.005994 0.000000 0.064971
#
#
# Mechanical properties :
#
#
# Convention : Reuss Voigt Hill
#
# Bulk Modulus (GPa) = 33.21714 37.19721 35.20718
# Shear Modulus (GPa) = 26.68553 30.66635 28.67594
#
# Velocity S-wave (km/s) = 3.56115 3.81754 3.69157
# Velocity P-wave (km/s) = 5.71794 6.09169 5.90777
#
# Compressibility (1/GPa) = 0.03010494
#
# Stress axis : x y z
#
# Youngs Moduli (GPa) = 57.50266 93.48332 92.52179
#
# Poissons Ratio (x) = -0.05264 0.23044
# Poissons Ratio (y) = -0.03238 0.22833
# Poissons Ratio (z) = 0.14322 0.23071
#
# Static dielectric constant tensor:
#      x y z
#    x 1.724470 0.000000 -0.038370 
#    y 0.000000 1.794430 0.000000 
#    z -0.038370 0.000000 1.909520 
# 
# From -- ./inp_files/205704.got.cif
#   From: 2010.05.17/outbox.cif.g08.bks.cpg/sg15_103_cif.got.tgz:205704.got - 2010.06.03 18:47:42.
