data_PCOD9302317
_publ_section_title
;
Structure prediction by ZEFSAII (Michael W. Deem and Ramdas Pophale) SiO2 
 PCOD9302317
Probable space group: C 2/C
;
_chemical_formula_sum "Si O2"
_cell_formula_units_Z 56
_cell_length_a 23.139767
_cell_length_b 13.059297
_cell_length_c 15.036805
_cell_angle_alpha 90.000000
_cell_angle_beta 31.527348
_cell_angle_gamma 90.000000
_cell_volume 2376.060762
_symmetry_space_group_name_H-M "C 2/C"
_symmetry_group_IT_number 15
_symmetry_cell_setting 'monoclinic'
loop_
_space_group_symop_operation_xyz
x,y,z
-x,y,1/2-z
-x,-y,-z
x,-y,1/2+z
1/2+x,1/2+y,z
1/2-x,1/2+y,1/2-z
1/2-x,1/2-y,-z
1/2+x,1/2-y,1/2+z
loop_
_atom_site_type_symbol
_atom_site_label
_atom_site_fract_x
_atom_site_fract_y
_atom_site_fract_z
Si Si1 0.558723 0.805424 0.992486
Si Si2 0.833942 0.395105 0.318763
Si Si3 0.172945 0.400752 0.555335
Si Si4 0.913107 0.796508 0.237213
Si Si5 0.179147 0.489916 0.355540
Si Si6 0.426315 0.468023 0.511185
Si Si7 0.113823 0.838026 0.560796
O O1 0.432525 0.814172 0.191190
O O2 0.639463 0.748182 0.954613
O O3 0.574675 0.749573 0.878087
O O4 0.593422 0.922613 0.943886
O O5 0.851491 0.499566 0.351529
O O6 0.819685 0.419427 0.232570
O O7 0.711511 0.355672 0.501697
O O8 0.105261 0.301644 0.676366
O O9 0.302441 0.366431 0.391530
O O10 0.150540 0.431423 0.483119
O O11 0.019194 0.869643 0.106894
O O12 0.299718 0.541861 0.207992
O O13 0.500000 0.500000 0.500000
O O14 0.419451 0.559233 0.448972
O O15 0.000000 0.802370 0.750000
#
# Coordination Sequence:
#
# PCOD9302317 Si02
#       7
#     8   8   8   8   8   8   8
#     4  12  26  46  70 106 148 193 242 305 375 441
#     4  11  26  49  71 103 155 189 238 316 368 447
#     4  11  24  46  77 107 146 194 251 307 372 440
#     4  11  23  45  76 107 141 187 252 312 360 433
#     4  11  25  45  71 102 150 196 239 300 387 439
#     4  11  21  45  72 101 142 191 241 315 367 428
#     4  11  26  43  72 106 141 193 248 294 372 448
#
# _framework density 23.568422000000002
#
# number of rings (size 3 to 8) (size 9 to 14) (size 15 to 20)
#    0.000    0.857    4.286    2.143    4.000    0.571 
#    0.000    2.857    0.000    0.000    0.000    0.000 
#    0.000    0.000    0.000    0.000    0.000    0.000 
#
# Total GULP energy -156648.426927 kJ/mol
# GULP energy per Si atom -5594.586676 kJ/mol
# Density = 2.351478 g / cm^3
# Si number density = 23.568422 Si / 1000 Ang^3
#
#
#
# Elastic Constant Matrix: (Units=GPa)
#
#
# Indices 1 2 3 4 5 6 
#
# 1 62.6962 27.3883 24.6920 0.0000 -1.2468 0.0000
# 2 27.3883 69.1847 35.6718 0.0000 12.1483 0.0000
# 3 24.6920 35.6718 91.5663 0.0000 0.6037 0.0000
# 4 0.0000 0.0000 0.0000 48.4684 0.0000 -0.7923
# 5 -1.2468 12.1483 0.6037 0.0000 36.6424 0.0000
# 6 0.0000 0.0000 0.0000 -0.7923 0.0000 29.1043
#
#
#
# Elastic Compliance Matrix: (Units=1/GPa)
#
#
# Indices 1 2 3 4 5 6 
#
# 1 0.020193 -0.007159 -0.002677 0.000000 0.003105 0.000000
# 2 -0.007159 0.021988 -0.006586 0.000000 -0.007425 0.000000
# 3 -0.002677 -0.006586 0.014197 0.000000 0.001859 0.000000
# 4 0.000000 0.000000 0.000000 0.020641 0.000000 0.000562
# 5 0.003105 -0.007425 0.001859 0.000000 0.029827 0.000000
# 6 0.000000 0.000000 0.000000 0.000562 0.000000 0.034375
#
#
# Mechanical properties :
#
#
# Convention : Reuss Voigt Hill
#
# Bulk Modulus (GPa) = 42.49327 44.32794 43.41061
# Shear Modulus (GPa) = 27.48619 31.88934 29.68777
#
# Velocity S-wave (km/s) = 3.41872 3.68238 3.55299
# Velocity P-wave (km/s) = 5.80107 6.07692 5.94059
#
# Compressibility (1/GPa) = 0.02353314
#
# Stress axis : x y z
#
# Youngs Moduli (GPa) = 49.52160 45.47981 70.43955
#
# Poissons Ratio (x) = 0.32558 0.18856
# Poissons Ratio (y) = 0.35452 0.46395
# Poissons Ratio (z) = 0.13257 0.29955
#
# Static dielectric constant tensor:
#      x y z
#    x 1.965200 0.000000 0.103950 
#    y 0.000000 1.858870 0.000000 
#    z 0.103950 0.000000 2.173120 
# 
# From -- ./inp_files/173786.got.cif
#   From: 2010.05.17/outbox.cif.g08.bks.cpg/sg15_87_cif.got.tgz:173786.got - 2010.06.03 18:47:42.
