data_PCOD9302641
_publ_section_title
;
Structure prediction by ZEFSAII (Michael W. Deem and Ramdas Pophale) SiO2 
 PCOD9302641
Probable space group: C 2/C
;
_chemical_formula_sum "Si O2"
_cell_formula_units_Z 56
_cell_length_a 10.287873
_cell_length_b 24.618106
_cell_length_c 12.038476
_cell_angle_alpha 90.000000
_cell_angle_beta 129.551145
_cell_angle_gamma 90.000000
_cell_volume 2350.920458
_symmetry_space_group_name_H-M "C 2/C"
_symmetry_group_IT_number 15
_symmetry_cell_setting 'monoclinic'
loop_
_space_group_symop_operation_xyz
x,y,z
-x,y,1/2-z
-x,-y,-z
x,-y,1/2+z
1/2+x,1/2+y,z
1/2-x,1/2+y,1/2-z
1/2-x,1/2-y,-z
1/2+x,1/2-y,1/2+z
loop_
_atom_site_type_symbol
_atom_site_label
_atom_site_fract_x
_atom_site_fract_y
_atom_site_fract_z
Si Si1 0.294404 0.445946 0.633605
Si Si2 0.129297 0.374257 0.893913
Si Si3 0.656296 0.652802 0.195623
Si Si4 0.784873 0.727074 0.724333
Si Si5 0.191767 0.933346 0.308512
Si Si6 0.927138 0.733746 0.041340
Si Si7 0.783081 0.878848 0.421175
O O1 0.500000 0.449702 0.750000
O O2 0.255770 0.396443 0.693310
O O3 0.241758 0.504722 0.648974
O O4 0.225928 0.425691 0.476702
O O5 0.276086 0.351392 0.893819
O O6 0.022600 0.322355 0.875139
O O7 0.000000 0.409262 0.750000
O O8 0.203221 0.400793 0.042940
O O9 0.681579 0.708812 0.277650
O O10 0.458940 0.640089 0.072674
O O11 0.583255 0.725768 0.640797
O O12 0.812467 0.678504 0.652748
O O13 0.891112 0.720632 0.893953
O O14 0.198569 0.906711 0.190132
O O15 0.000000 0.932283 0.250000
O O16 0.750000 0.750000 0.000000
#
# Coordination Sequence:
#
# PCOD9302641 Si02
#       7
#     8   8   8   8   8   8   8
#     4   9  24  42  63  92 122 164 214 263 307 363
#     4  12  22  36  59  92 128 159 196 254 321 371
#     4  11  22  39  62  90 131 165 202 257 314 370
#     4  12  22  35  62  90 127 167 199 255 309 374
#     4  11  23  38  68  94 119 161 210 268 313 358
#     4  12  21  34  54  94 126 160 200 248 312 368
#     4  11  22  40  64  97 126 159 214 259 309 374
#
# _framework density 23.820457999999999
#
# number of rings (size 3 to 8) (size 9 to 14) (size 15 to 20)
#    0.000    0.857    7.143    0.429    2.000    2.286 
#    0.000    0.714    3.143    0.000    0.000    0.000 
#    0.000    0.000    0.000    0.000    0.000    0.000 
#
# Total GULP energy -156350.183831 kJ/mol
# GULP energy per Si atom -5583.935137 kJ/mol
# Density = 2.376624 g / cm^3
# Si number density = 23.820458 Si / 1000 Ang^3
#
#
#
# Elastic Constant Matrix: (Units=GPa)
#
#
# Indices 1 2 3 4 5 6 
#
# 1 47.6714 18.5814 19.4480 0.0000 -2.2149 0.0000
# 2 18.5814 161.3446 51.9977 0.0000 -18.8711 0.0000
# 3 19.4480 51.9977 137.4294 0.0000 -17.1903 0.0000
# 4 0.0000 0.0000 0.0000 47.6289 0.0000 -29.4713
# 5 -2.2149 -18.8711 -17.1903 0.0000 30.8833 0.0000
# 6 0.0000 0.0000 0.0000 -29.4713 0.0000 83.6257
#
#
#
# Elastic Compliance Matrix: (Units=1/GPa)
#
#
# Indices 1 2 3 4 5 6 
#
# 1 0.022738 -0.001887 -0.002627 0.000000 -0.000985 0.000000
# 2 -0.001887 0.007491 -0.002162 0.000000 0.003238 0.000000
# 3 -0.002627 -0.002162 0.008897 0.000000 0.003443 0.000000
# 4 0.000000 0.000000 0.000000 0.026851 0.000000 0.009463
# 5 -0.000985 0.003238 0.003443 0.000000 0.036204 0.000000
# 6 0.000000 0.000000 0.000000 0.009463 0.000000 0.015293
#
#
# Mechanical properties :
#
#
# Convention : Reuss Voigt Hill
#
# Bulk Modulus (GPa) = 38.79922 58.49995 48.64959
# Shear Modulus (GPa) = 35.86331 49.52212 42.69271
#
# Velocity S-wave (km/s) = 3.88437 4.56452 4.23811
# Velocity P-wave (km/s) = 6.03667 7.23822 6.66458
#
# Compressibility (1/GPa) = 0.02577372
#
# Stress axis : x y z
#
# Youngs Moduli (GPa) = 43.97829 133.49667 112.39913
#
# Poissons Ratio (x) = 0.25195 0.29526
# Poissons Ratio (y) = 0.08300 0.24301
# Poissons Ratio (z) = 0.11553 0.28863
#
# Static dielectric constant tensor:
#      x y z
#    x 2.033640 0.000000 0.059450 
#    y 0.000000 1.955210 0.000000 
#    z 0.059450 0.000000 1.907170 
# 
# From -- ./inp_files/92113.got.cif
#   From: 2010.05.17/outbox.cif.g08.bks.cpg/sg15_47_cif.got.tgz:92113.got - 2010.06.03 18:47:42.
