data_PCOD9302439
_publ_section_title
;
Structure prediction by ZEFSAII (Michael W. Deem and Ramdas Pophale) SiO2 
 PCOD9302439
Probable space group: C 2/C
;
_chemical_formula_sum "Si O2"
_cell_formula_units_Z 48
_cell_length_a 10.313858
_cell_length_b 14.951826
_cell_length_c 32.101241
_cell_angle_alpha 90.000000
_cell_angle_beta 25.921845
_cell_angle_gamma 90.000000
_cell_volume 2164.025878
_symmetry_space_group_name_H-M "C 2/C"
_symmetry_group_IT_number 15
_symmetry_cell_setting 'monoclinic'
loop_
_space_group_symop_operation_xyz
x,y,z
-x,y,1/2-z
-x,-y,-z
x,-y,1/2+z
1/2+x,1/2+y,z
1/2-x,1/2+y,1/2-z
1/2-x,1/2-y,-z
1/2+x,1/2-y,1/2+z
loop_
_atom_site_type_symbol
_atom_site_label
_atom_site_fract_x
_atom_site_fract_y
_atom_site_fract_z
Si Si1 0.000000 0.904787 0.750000
Si Si2 0.266245 0.373277 0.902931
Si Si3 0.000000 0.798822 0.250000
Si Si4 0.027715 0.812070 0.909492
Si Si5 0.774065 0.003954 0.637063
Si Si6 0.637040 0.582064 0.601397
Si Si7 0.845759 0.563962 0.693046
O O1 0.157181 0.852895 0.666916
O O2 0.233186 0.971014 0.705641
O O3 0.490211 0.328621 0.870467
O O4 0.292646 0.481015 0.902191
O O5 0.927531 0.357807 0.014547
O O6 0.844362 0.732123 0.327394
O O7 0.716719 0.863543 0.324253
O O8 0.047999 0.912003 0.921842
O O9 0.750000 0.750000 0.000000
O O10 0.500000 0.987875 0.750000
O O11 0.638775 0.044421 0.634236
O O12 0.996325 0.069635 0.596670
O O13 0.381108 0.606524 0.707403
#
# Coordination Sequence:
#
# PCOD9302439 Si02
#       7
#     4   8   4   8   8   8   8
#     4   9  18  30  54  78 111 154 198 235 286 348
#     4   9  17  32  53  84 115 152 195 237 292 358
#     4  11  22  36  58  88 121 144 194 259 298 342
#     4  11  22  36  60  88 117 154 196 246 307 349
#     4   9  17  34  60  85 111 156 200 235 288 356
#     4   8  15  30  57  82 110 144 198 245 277 337
#     4   9  18  33  55  84 112 150 199 243 291 344
#
# _framework density 22.180879999999998
#
# number of rings (size 3 to 8) (size 9 to 14) (size 15 to 20)
#    0.000    2.667    0.833    2.000    0.000    4.000 
#    0.000    3.333    5.500    2.000    0.000    0.000 
#    0.000    0.000    0.000    0.000    0.000    0.000 
#
# Total GULP energy -133624.880940 kJ/mol
# GULP energy per Si atom -5567.703372 kJ/mol
# Density = 2.213040 g / cm^3
# Si number density = 22.180880 Si / 1000 Ang^3
#
#
#
# Elastic Constant Matrix: (Units=GPa)
#
#
# Indices 1 2 3 4 5 6 
#
# 1 103.7422 7.2804 20.0186 0.0259 -6.6475 0.0205
# 2 7.2804 26.9614 15.0562 -0.0402 -3.1616 -0.0300
# 3 20.0186 15.0562 74.5126 0.0656 -4.9701 0.1382
# 4 0.0259 -0.0402 0.0656 24.6001 -0.0354 -14.8687
# 5 -6.6475 -3.1616 -4.9701 -0.0354 35.1767 0.0201
# 6 0.0205 -0.0300 0.1382 -14.8687 0.0201 8.3204
#
#
#
# Elastic Compliance Matrix: (Units=1/GPa)
#
#
# Indices 1 2 3 4 5 6 
#
# 1 0.010288 -0.001257 -0.002411 0.000004 0.001491 0.000014
# 2 -0.001257 0.042175 -0.008009 -0.003318 0.002421 -0.005647
# 3 -0.002411 -0.008009 0.015745 0.002802 0.001049 0.004720
# 4 0.000004 -0.003318 0.002802 -0.506831 0.000106 -0.905776
# 5 0.001491 0.002421 0.001049 0.000106 0.029075 0.000107
# 6 0.000014 -0.005647 0.004720 -0.905776 0.000107 -1.498552
#
#
# Mechanical properties :
#
#
# Convention : Reuss Voigt Hill
#
# Bulk Modulus (GPa) = 22.29441 32.21407 27.25424
# Shear Modulus (GPa) = -2.67409 24.47684 10.90138
#
# Velocity S-wave (km/s) = -1.09918 3.32552 2.21933
# Velocity P-wave (km/s) = 2.90896 5.41298 4.34525
#
# Compressibility (1/GPa) = 0.04485430
#
# Stress axis : x y z
#
# Youngs Moduli (GPa) = 97.19898 23.71077 63.51086
#
# Poissons Ratio (x) = 0.02981 0.15310
# Poissons Ratio (y) = 0.12219 0.50868
# Poissons Ratio (z) = 0.23431 0.18991
#
# Static dielectric constant tensor:
#      x y z
#    x 1.941470 0.000150 0.052910 
#    y 0.000150 1.817110 0.000090 
#    z 0.052910 0.000090 1.912540 
# 
# From -- ./inp_files/308733.got.cif
#   From: 2010.05.17/outbox.cif.g08.bks.cpg/sg15_155_cif.got.tgz:308733.got - 2010.06.03 18:47:42.
