data_PCOD9302610
_publ_section_title
;
Structure prediction by ZEFSAII (Michael W. Deem and Ramdas Pophale) SiO2 
 PCOD9302610
Probable space group: C 2/C
;
_chemical_formula_sum "Si O2"
_cell_formula_units_Z 36
_cell_length_a 12.837731
_cell_length_b 10.955186
_cell_length_c 9.728680
_cell_angle_alpha 90.000000
_cell_angle_beta 84.314187
_cell_angle_gamma 90.000000
_cell_volume 1361.507382
_symmetry_space_group_name_H-M "C 2/C"
_symmetry_group_IT_number 15
_symmetry_cell_setting 'monoclinic'
loop_
_space_group_symop_operation_xyz
x,y,z
-x,y,1/2-z
-x,-y,-z
x,-y,1/2+z
1/2+x,1/2+y,z
1/2-x,1/2+y,1/2-z
1/2-x,1/2-y,-z
1/2+x,1/2-y,1/2+z
loop_
_atom_site_type_symbol
_atom_site_label
_atom_site_fract_x
_atom_site_fract_y
_atom_site_fract_z
Si Si1 0.893428 0.490682 0.596663
Si Si2 0.324493 0.415369 0.967665
Si Si3 0.500000 0.567375 0.250000
Si Si4 0.117341 0.776105 0.273127
Si Si5 0.660675 0.757969 0.282445
O O1 0.785732 0.483607 0.523623
O O2 0.894181 0.361962 0.671588
O O3 0.884717 0.608085 0.695208
O O4 0.000000 0.500000 0.500000
O O5 0.354950 0.377304 0.115333
O O6 0.179738 0.210072 0.123695
O O7 0.414327 0.484718 0.868233
O O8 0.573635 0.658026 0.336066
O O9 0.222945 0.763393 0.168722
O O10 0.000000 0.806913 0.250000
#
# Coordination Sequence:
#
# PCOD9302610 Si02
#       5
#     8   8   4   8   8
#     4  11  22  38  72 100 123 172 230 276 327 392
#     4   9  21  41  66  93 135 175 211 277 335 383
#     4   8  18  38  68  84 136 168 214 258 350 368
#     4  11  24  40  63  99 138 174 222 268 329 395
#     4   9  20  38  63  94 128 171 216 273 328 385
#
# _framework density 26.441282999999999
#
# number of rings (size 3 to 8) (size 9 to 14) (size 15 to 20)
#    1.333    0.889    0.000    4.000    4.667    0.000 
#    2.000    5.556    4.889    0.000    0.000    0.000 
#    0.000    0.000    0.000    0.000    0.000    0.000 
#
# Total GULP energy -100547.035167 kJ/mol
# GULP energy per Si atom -5585.946398 kJ/mol
# Density = 2.638110 g / cm^3
# Si number density = 26.441283 Si / 1000 Ang^3
#
#
#
# Elastic Constant Matrix: (Units=GPa)
#
#
# Indices 1 2 3 4 5 6 
#
# 1 256.4696 29.8094 55.6564 0.0000 -44.7372 0.0000
# 2 29.8094 105.6323 34.5329 0.0000 -21.3565 0.0000
# 3 55.6564 34.5329 77.5126 0.0000 -29.2202 0.0000
# 4 0.0000 0.0000 0.0000 29.5720 0.0000 -14.3423
# 5 -44.7372 -21.3565 -29.2202 0.0000 52.5773 0.0000
# 6 0.0000 0.0000 0.0000 -14.3423 0.0000 47.1634
#
#
#
# Elastic Compliance Matrix: (Units=1/GPa)
#
#
# Indices 1 2 3 4 5 6 
#
# 1 0.004928 -0.000014 -0.002471 0.000000 0.002814 0.000000
# 2 -0.000014 0.011290 -0.004169 0.000000 0.002257 0.000000
# 3 -0.002471 -0.004169 0.019104 0.000000 0.006821 0.000000
# 4 0.000000 0.000000 0.000000 0.039666 0.000000 0.012062
# 5 0.002814 0.002257 0.006821 0.000000 0.026122 0.000000
# 6 0.000000 0.000000 0.000000 0.012062 0.000000 0.024871
#
#
# Mechanical properties :
#
#
# Convention : Reuss Voigt Hill
#
# Bulk Modulus (GPa) = 45.42611 75.51241 60.46926
# Shear Modulus (GPa) = 34.10006 47.17027 40.63517
#
# Velocity S-wave (km/s) = 3.59507 4.22828 3.92447
# Velocity P-wave (km/s) = 5.86941 7.24281 6.59198
#
# Compressibility (1/GPa) = 0.02201377
#
# Stress axis : x y z
#
# Youngs Moduli (GPa) = 202.92722 88.57423 52.34390
#
# Poissons Ratio (x) = 0.00122 0.12937
# Poissons Ratio (y) = 0.00280 0.21822
# Poissons Ratio (z) = 0.50152 0.36927
#
# Static dielectric constant tensor:
#      x y z
#    x 2.279020 0.000000 0.044250 
#    y 0.000000 2.198830 0.000000 
#    z 0.044250 0.000000 2.093310 
# 
# From -- ./inp_files/94461.got.cif
#   From: 2010.05.17/outbox.cif.g08.bks.cpg/sg15_48_cif.got.tgz:94461.got - 2010.06.03 18:47:42.
