data_PCOD9302711
_publ_section_title
;
Structure prediction by ZEFSAII (Michael W. Deem and Ramdas Pophale) SiO2 
 PCOD9302711
Probable space group: C 2/C
;
_chemical_formula_sum "Si O2"
_cell_formula_units_Z 48
_cell_length_a 12.580929
_cell_length_b 14.199274
_cell_length_c 26.772528
_cell_angle_alpha 90.000000
_cell_angle_beta 150.783522
_cell_angle_gamma 90.000000
_cell_volume 2334.460605
_symmetry_space_group_name_H-M "C 2/C"
_symmetry_group_IT_number 15
_symmetry_cell_setting 'monoclinic'
loop_
_space_group_symop_operation_xyz
x,y,z
-x,y,1/2-z
-x,-y,-z
x,-y,1/2+z
1/2+x,1/2+y,z
1/2-x,1/2+y,1/2-z
1/2-x,1/2-y,-z
1/2+x,1/2-y,1/2+z
loop_
_atom_site_type_symbol
_atom_site_label
_atom_site_fract_x
_atom_site_fract_y
_atom_site_fract_z
Si Si1 0.704836 0.201617 0.059906
Si Si2 0.388565 0.064481 0.313853
Si Si3 0.426113 0.517036 0.167774
Si Si4 0.152436 0.650416 0.514524
Si Si5 0.932878 0.246976 0.780320
Si Si6 0.021692 0.354873 0.378195
O O1 0.833122 0.119601 0.140251
O O2 0.848644 0.293221 0.109274
O O3 0.487883 0.210078 0.003197
O O4 0.649487 0.158420 0.982813
O O5 0.502143 0.120399 0.406516
O O6 0.397110 0.141662 0.273908
O O7 0.138999 0.034683 0.222000
O O8 0.506146 0.963814 0.356733
O O9 0.500000 0.472819 0.250000
O O10 0.238994 0.450131 0.070270
O O11 0.377561 0.708621 0.604803
O O12 0.713842 0.191455 0.706515
O O13 0.000000 0.231740 0.750000
#
# Coordination Sequence:
#
# PCOD9302711 Si02
#       6
#     8   8   8   8   8   8
#     4  11  22  39  66  98 130 166 218 272 329 383
#     4  12  25  42  66 100 130 168 221 272 321 387
#     4  12  21  35  68 101 130 159 218 279 325 377
#     4  12  23  41  67  99 130 169 218 278 324 381
#     4  12  25  44  65  94 134 180 214 261 329 396
#     4  11  23  42  67  94 132 173 216 267 328 389
#
# _framework density 20.561495000000001
#
# number of rings (size 3 to 8) (size 9 to 14) (size 15 to 20)
#    0.000    0.333    8.333    2.500    0.000    0.000 
#    0.000    3.333    0.000    0.000    0.000    0.000 
#    0.000    0.000    0.000    0.000    0.000    0.000 
#
# Total GULP energy -133981.435230 kJ/mol
# GULP energy per Si atom -5582.559801 kJ/mol
# Density = 2.051470 g / cm^3
# Si number density = 20.561495 Si / 1000 Ang^3
#
#
#
# Elastic Constant Matrix: (Units=GPa)
#
#
# Indices 1 2 3 4 5 6 
#
# 1 62.4078 53.2242 34.6517 0.0000 11.1393 0.0000
# 2 53.2242 151.5894 11.5109 0.0000 15.6457 0.0000
# 3 34.6517 11.5109 65.0812 -0.0002 16.4773 -0.0001
# 4 0.0000 0.0000 -0.0002 26.7172 0.0001 2.2577
# 5 11.1393 15.6457 16.4773 0.0001 22.5130 0.0001
# 6 0.0000 0.0000 -0.0001 2.2577 0.0001 11.5747
#
#
#
# Elastic Compliance Matrix: (Units=1/GPa)
#
#
# Indices 1 2 3 4 5 6 
#
# 1 0.034517 -0.011150 -0.017238 0.000000 0.003286 0.000000
# 2 -0.011150 0.010708 0.005560 0.000000 -0.005994 0.000000
# 3 -0.017238 0.005560 0.027469 0.000000 -0.015440 0.000000
# 4 0.000000 0.000000 0.000000 0.038056 0.000000 -0.007423
# 5 0.003286 -0.005994 -0.015440 0.000000 0.058259 0.000000
# 6 0.000000 0.000000 0.000000 -0.007423 0.000000 0.087843
#
#
# Mechanical properties :
#
#
# Convention : Reuss Voigt Hill
#
# Bulk Modulus (GPa) = 36.98325 53.09465 45.03895
# Shear Modulus (GPa) = 16.05026 24.14043 20.09534
#
# Velocity S-wave (km/s) = 2.79695 3.43017 3.12962
# Velocity P-wave (km/s) = 5.33444 6.44721 5.91704
#
# Compressibility (1/GPa) = 0.02703927
#
# Stress axis : x y z
#
# Youngs Moduli (GPa) = 28.97086 93.38876 36.40422
#
# Poissons Ratio (x) = 1.04124 0.62755
# Poissons Ratio (y) = 0.32301 -0.20241
# Poissons Ratio (z) = 0.49941 -0.51926
#
# Static dielectric constant tensor:
#      x y z
#    x 1.756220 0.000000 -0.002850 
#    y 0.000000 1.743360 0.000000 
#    z -0.002850 0.000000 1.802090 
# 
# From -- ./inp_files/123451.got.cif
#   From: 2010.05.17/outbox.cif.g08.bks.cpg/sg15_62_cif.got.tgz:123451.got - 2010.06.03 18:47:42.
