data_PCOD9302163
_publ_section_title
;
Structure prediction by ZEFSAII (Michael W. Deem and Ramdas Pophale) SiO2 
 PCOD9302163
Probable space group: C 2/C
;
_chemical_formula_sum "Si O2"
_cell_formula_units_Z 48
_cell_length_a 30.604551
_cell_length_b 7.755071
_cell_length_c 15.274527
_cell_angle_alpha 90.000000
_cell_angle_beta 144.299935
_cell_angle_gamma 90.000000
_cell_volume 2115.493910
_symmetry_space_group_name_H-M "C 2/C"
_symmetry_group_IT_number 15
_symmetry_cell_setting 'monoclinic'
loop_
_space_group_symop_operation_xyz
x,y,z
-x,y,1/2-z
-x,-y,-z
x,-y,1/2+z
1/2+x,1/2+y,z
1/2-x,1/2+y,1/2-z
1/2-x,1/2-y,-z
1/2+x,1/2-y,1/2+z
loop_
_atom_site_type_symbol
_atom_site_label
_atom_site_fract_x
_atom_site_fract_y
_atom_site_fract_z
Si Si1 0.833226 0.230018 0.598955
Si Si2 0.413962 0.544960 0.876434
Si Si3 0.703579 0.282353 0.784190
Si Si4 0.557081 0.108110 0.982512
Si Si5 0.898589 0.418188 0.273608
Si Si6 0.819716 0.432031 0.417378
O O1 0.750000 0.250000 0.500000
O O2 0.873672 0.077125 0.716816
O O3 0.878159 0.400564 0.699141
O O4 0.828325 0.256590 0.487339
O O5 0.371405 0.393461 0.856733
O O6 0.405259 0.719047 0.918402
O O7 0.500000 0.500000 0.000000
O O8 0.676380 0.190747 0.829957
O O9 0.768115 0.426148 0.882111
O O10 0.715528 0.132281 0.731958
O O11 0.569034 0.962770 0.077047
O O12 0.602091 0.028059 0.975396
O O13 0.469131 0.152221 0.834282
#
# Coordination Sequence:
#
# PCOD9302163 Si02
#       6
#     8   8   8   8   8   8
#     4  11  24  42  63  95 132 171 219 275 332 392
#     4  11  21  42  70  93 126 177 223 259 334 413
#     4  11  22  40  65  96 125 176 220 265 333 400
#     4   9  19  39  63  91 122 172 215 262 327 401
#     4   9  20  38  65  88 126 171 215 258 332 399
#     4  11  24  39  64  95 134 168 220 284 325 387
#
# _framework density 22.689737000000001
#
# number of rings (size 3 to 8) (size 9 to 14) (size 15 to 20)
#    0.000    1.667    3.333    1.000    7.000    1.333 
#    0.000    0.000    3.667    0.000    0.000    0.000 
#    0.000    0.000    0.000    0.000    0.000    0.000 
#
# Total GULP energy -133827.174526 kJ/mol
# GULP energy per Si atom -5576.132272 kJ/mol
# Density = 2.263809 g / cm^3
# Si number density = 22.689737 Si / 1000 Ang^3
#
#
#
# Elastic Constant Matrix: (Units=GPa)
#
#
# Indices 1 2 3 4 5 6 
#
# 1 92.6292 10.1872 19.8478 0.0000 20.8696 0.0000
# 2 10.1872 73.5933 -10.4229 0.0000 -2.9897 0.0000
# 3 19.8478 -10.4229 48.6158 0.0000 10.6896 0.0000
# 4 0.0000 0.0000 0.0000 36.7314 0.0000 8.9881
# 5 20.8696 -2.9897 10.6896 0.0000 23.2137 0.0000
# 6 0.0000 0.0000 0.0000 8.9881 0.0000 45.6210
#
#
#
# Elastic Compliance Matrix: (Units=1/GPa)
#
#
# Indices 1 2 3 4 5 6 
#
# 1 0.014638 -0.003077 -0.004067 0.000000 -0.011683 0.000000
# 2 -0.003077 0.014665 0.003757 0.000000 0.002925 0.000000
# 3 -0.004067 0.003757 0.024617 0.000000 -0.007196 0.000000
# 4 0.000000 0.000000 0.000000 0.028604 0.000000 -0.005635
# 5 -0.011683 0.002925 -0.007196 0.000000 0.057272 0.000000
# 6 0.000000 0.000000 0.000000 -0.005635 0.000000 0.023030
#
#
# Mechanical properties :
#
#
# Convention : Reuss Voigt Hill
#
# Bulk Modulus (GPa) = 21.21009 28.22919 24.71964
# Shear Modulus (GPa) = 26.98118 34.12831 30.55475
#
# Velocity S-wave (km/s) = 3.45213 3.88252 3.67363
# Velocity P-wave (km/s) = 5.02571 5.70675 5.37702
#
# Compressibility (1/GPa) = 0.04714736
#
# Stress axis : x y z
#
# Youngs Moduli (GPa) = 68.31642 68.18939 40.62152
#
# Poissons Ratio (x) = 0.20981 0.16520
# Poissons Ratio (y) = 0.21020 -0.15262
# Poissons Ratio (z) = 0.27783 -0.25620
#
# Static dielectric constant tensor:
#      x y z
#    x 1.903350 0.000000 -0.031910 
#    y 0.000000 1.862600 0.000000 
#    z -0.031910 0.000000 1.928440 
# 
# From -- ./inp_files/177010.got.cif
#   From: 2010.05.17/outbox.cif.g08.bks.cpg/sg15_89_cif.got.tgz:177010.got - 2010.06.03 18:47:42.
