data_PCOD9302415
_publ_section_title
;
Structure prediction by ZEFSAII (Michael W. Deem and Ramdas Pophale) SiO2 
 PCOD9302415
Probable space group: C 2/C
;
_chemical_formula_sum "Si O2"
_cell_formula_units_Z 48
_cell_length_a 21.208922
_cell_length_b 11.483412
_cell_length_c 9.320474
_cell_angle_alpha 90.000000
_cell_angle_beta 98.887284
_cell_angle_gamma 90.000000
_cell_volume 2242.755477
_symmetry_space_group_name_H-M "C 2/C"
_symmetry_group_IT_number 15
_symmetry_cell_setting 'monoclinic'
loop_
_space_group_symop_operation_xyz
x,y,z
-x,y,1/2-z
-x,-y,-z
x,-y,1/2+z
1/2+x,1/2+y,z
1/2-x,1/2+y,1/2-z
1/2-x,1/2-y,-z
1/2+x,1/2-y,1/2+z
loop_
_atom_site_type_symbol
_atom_site_label
_atom_site_fract_x
_atom_site_fract_y
_atom_site_fract_z
Si Si1 0.606234 0.045308 0.597402
Si Si2 0.105120 0.973862 0.740753
Si Si3 0.486935 0.836032 0.960631
Si Si4 0.175525 0.877165 0.022133
Si Si5 0.000000 0.783330 0.750000
Si Si6 0.675391 0.119164 0.911567
Si Si7 0.500000 0.360716 0.250000
O O1 0.561765 0.132239 0.490779
O O2 0.637536 0.100988 0.748942
O O3 0.555025 0.942039 0.613248
O O4 0.657156 0.985521 0.511671
O O5 0.055793 0.865151 0.702077
O O6 0.132412 0.047449 0.616970
O O7 0.162304 0.930603 0.860305
O O8 0.059035 0.059625 0.814675
O O9 0.476551 0.722066 0.866185
O O10 0.472738 0.801281 0.118888
O O11 0.249171 0.884379 0.092482
O O12 0.161717 0.739740 0.992733
#
# Coordination Sequence:
#
# PCOD9302415 Si02
#       7
#     8   8   8   8   4   8   4
#     4  11  22  39  63  89 121 159 201 248 304 361
#     4  11  22  39  63  90 122 159 200 246 303 362
#     4  11  22  37  61  92 123 156 196 249 306 361
#     4  11  24  42  63  88 122 163 206 251 297 353
#     4  11  22  39  64  94 126 157 194 249 308 362
#     4  11  24  42  63  88 122 163 206 251 297 353
#     4  11  22  35  58  90 122 155 196 249 302 360
#
# _framework density 21.402245000000001
#
# number of rings (size 3 to 8) (size 9 to 14) (size 15 to 20)
#    0.000    1.000    0.000    8.000    0.000    5.333 
#    0.000    0.000    0.000   10.000    0.000    0.000 
#    0.000    0.000    0.000    0.000    0.000    0.000 
#
# Total GULP energy -134048.718640 kJ/mol
# GULP energy per Si atom -5585.363277 kJ/mol
# Density = 2.135353 g / cm^3
# Si number density = 21.402245 Si / 1000 Ang^3
#
#
#
# Elastic Constant Matrix: (Units=GPa)
#
#
# Indices 1 2 3 4 5 6 
#
# 1 95.6791 29.4847 32.9851 0.0000 20.4905 0.0000
# 2 29.4847 87.1740 19.9182 0.0000 10.2551 0.0000
# 3 32.9851 19.9182 81.0299 0.0000 19.1462 0.0000
# 4 0.0000 0.0000 0.0000 43.3057 0.0000 -2.1800
# 5 20.4905 10.2551 19.1462 0.0000 39.9887 0.0000
# 6 0.0000 0.0000 0.0000 -2.1800 0.0000 40.3182
#
#
#
# Elastic Compliance Matrix: (Units=1/GPa)
#
#
# Indices 1 2 3 4 5 6 
#
# 1 0.013682 -0.003259 -0.003732 0.000000 -0.004388 0.000000
# 2 -0.003259 0.013060 -0.001677 0.000000 -0.000877 0.000000
# 3 -0.003732 -0.001677 0.015469 0.000000 -0.005064 0.000000
# 4 0.000000 0.000000 0.000000 0.023155 0.000000 0.001252
# 5 -0.004388 -0.000877 -0.005064 0.000000 0.029905 0.000000
# 6 0.000000 0.000000 0.000000 0.001252 0.000000 0.024870
#
#
# Mechanical properties :
#
#
# Convention : Reuss Voigt Hill
#
# Bulk Modulus (GPa) = 40.19813 47.62877 43.91345
# Shear Modulus (GPa) = 34.30122 36.82218 35.56170
#
# Velocity S-wave (km/s) = 4.00771 4.15237 4.08068
# Velocity P-wave (km/s) = 6.34339 6.72993 6.53952
#
# Compressibility (1/GPa) = 0.02487678
#
# Stress axis : x y z
#
# Youngs Moduli (GPa) = 73.08792 76.57126 64.64575
#
# Poissons Ratio (x) = 0.24953 0.24124
# Poissons Ratio (y) = 0.23818 0.10838
# Poissons Ratio (z) = 0.27274 0.12838
#
# Static dielectric constant tensor:
#      x y z
#    x 1.966820 0.000000 -0.325570 
#    y 0.000000 1.779870 0.000000 
#    z -0.325570 0.000000 2.392630 
# 
# From -- ./inp_files/60860.got.cif
#   From: 2010.05.17/outbox.cif.g08.bks.cpg/sg15_31_cif.got.tgz:60860.got - 2010.06.03 18:47:42.
