data_PCOD9302758
_publ_section_title
;
Structure prediction by ZEFSAII (Michael W. Deem and Ramdas Pophale) SiO2 
 PCOD9302758
Probable space group: C 2/C
;
_chemical_formula_sum "Si O2"
_cell_formula_units_Z 44
_cell_length_a 18.716869
_cell_length_b 8.180724
_cell_length_c 14.057782
_cell_angle_alpha 90.000000
_cell_angle_beta 112.836408
_cell_angle_gamma 90.000000
_cell_volume 1983.773535
_symmetry_space_group_name_H-M "C 2/C"
_symmetry_group_IT_number 15
_symmetry_cell_setting 'monoclinic'
loop_
_space_group_symop_operation_xyz
x,y,z
-x,y,1/2-z
-x,-y,-z
x,-y,1/2+z
1/2+x,1/2+y,z
1/2-x,1/2+y,1/2-z
1/2-x,1/2-y,-z
1/2+x,1/2-y,1/2+z
loop_
_atom_site_type_symbol
_atom_site_label
_atom_site_fract_x
_atom_site_fract_y
_atom_site_fract_z
Si Si1 0.363025 0.550455 0.759988
Si Si2 0.856930 0.763785 0.631656
Si Si3 0.060517 0.512568 0.445867
Si Si4 0.716380 0.803351 0.084741
Si Si5 0.801415 0.933415 0.416938
Si Si6 0.500000 0.240705 0.250000
O O1 0.381953 0.363947 0.738075
O O2 0.277334 0.593810 0.676883
O O3 0.361330 0.621209 0.866550
O O4 0.425864 0.652421 0.735619
O O5 0.915199 0.646294 0.604167
O O6 0.833123 0.897756 0.538726
O O7 0.781699 0.656483 0.623117
O O8 0.139661 0.591862 0.527639
O O9 0.000000 0.500000 0.500000
O O10 0.022319 0.632626 0.350752
O O11 0.705021 0.621696 0.119574
O O12 0.750000 0.750000 0.000000
#
# Coordination Sequence:
#
# PCOD9302758 Si02
#       6
#     8   8   8   8   8   4
#     4  12  25  42  70 100 135 180 231 279 347 416
#     4  11  22  42  66  99 137 171 228 289 332 408
#     4  12  27  45  70 100 137 181 227 287 350 409
#     4  12  21  47  69  93 141 183 217 281 349 406
#     4  11  22  39  71 102 129 179 231 276 337 411
#     4  12  26  46  64  96 142 178 224 292 346 412
#
# _framework density 22.179950000000002
#
# number of rings (size 3 to 8) (size 9 to 14) (size 15 to 20)
#    0.000    0.364    5.455    3.273    0.000    6.545 
#    0.000    3.636    0.000    0.000    0.000    0.000 
#    0.000    0.000    0.000    0.000    0.000    0.000 
#
# Total GULP energy -122881.818254 kJ/mol
# GULP energy per Si atom -5585.537193 kJ/mol
# Density = 2.212947 g / cm^3
# Si number density = 22.179950 Si / 1000 Ang^3
#
#
#
# Elastic Constant Matrix: (Units=GPa)
#
#
# Indices 1 2 3 4 5 6 
#
# 1 142.3949 42.9564 41.9078 0.0000 -30.5533 0.0000
# 2 42.9564 94.4075 12.7451 0.0000 -5.7877 0.0000
# 3 41.9078 12.7451 61.4071 0.0000 -16.9027 0.0000
# 4 0.0000 0.0000 0.0000 35.2967 0.0000 16.8457
# 5 -30.5533 -5.7877 -16.9027 0.0000 53.7738 0.0000
# 6 0.0000 0.0000 0.0000 16.8457 0.0000 21.2712
#
#
#
# Elastic Compliance Matrix: (Units=1/GPa)
#
#
# Indices 1 2 3 4 5 6 
#
# 1 0.010607 -0.003862 -0.005356 0.000000 0.003927 0.000000
# 2 -0.003862 0.012317 -0.000175 0.000000 -0.000924 0.000000
# 3 -0.005356 -0.000175 0.020946 0.000000 0.003522 0.000000
# 4 0.000000 0.000000 0.000000 0.045546 0.000000 -0.036070
# 5 0.003927 -0.000924 0.003522 0.000000 0.021835 0.000000
# 6 0.000000 0.000000 0.000000 -0.036070 0.000000 0.075578
#
#
# Mechanical properties :
#
#
# Convention : Reuss Voigt Hill
#
# Bulk Modulus (GPa) = 39.86766 54.82535 47.34650
# Shear Modulus (GPa) = 23.36710 35.44170 29.40440
#
# Velocity S-wave (km/s) = 3.24932 4.00173 3.64499
# Velocity P-wave (km/s) = 5.66490 6.79146 6.25360
#
# Compressibility (1/GPa) = 0.02508299
#
# Stress axis : x y z
#
# Youngs Moduli (GPa) = 94.27809 81.19017 47.74244
#
# Poissons Ratio (x) = 0.31359 0.25571
# Poissons Ratio (y) = 0.36414 0.00834
# Poissons Ratio (z) = 0.50496 0.01418
#
# Static dielectric constant tensor:
#      x y z
#    x 1.872340 0.000000 -0.109020 
#    y 0.000000 1.853430 0.000000 
#    z -0.109020 0.000000 1.877280 
# 
# From -- ./inp_files/159433.got.cif
#   From: 2010.05.17/outbox.cif.g08.bks.cpg/sg15_80_cif.got.tgz:159433.got - 2010.06.03 18:47:42.
