data_PCOD9302284
_publ_section_title
;
Structure prediction by ZEFSAII (Michael W. Deem and Ramdas Pophale) SiO2 
 PCOD9302284
Probable space group: C 2/C
;
_chemical_formula_sum "Si O2"
_cell_formula_units_Z 64
_cell_length_a 8.884184
_cell_length_b 19.947142
_cell_length_c 20.408958
_cell_angle_alpha 90.000000
_cell_angle_beta 61.774823
_cell_angle_gamma 90.000000
_cell_volume 3186.707090
_symmetry_space_group_name_H-M "C 2/C"
_symmetry_group_IT_number 15
_symmetry_cell_setting 'monoclinic'
loop_
_space_group_symop_operation_xyz
x,y,z
-x,y,1/2-z
-x,-y,-z
x,-y,1/2+z
1/2+x,1/2+y,z
1/2-x,1/2+y,1/2-z
1/2-x,1/2-y,-z
1/2+x,1/2-y,1/2+z
loop_
_atom_site_type_symbol
_atom_site_label
_atom_site_fract_x
_atom_site_fract_y
_atom_site_fract_z
Si Si1 0.386846 0.764378 0.708336
Si Si2 0.153822 0.315202 0.547300
Si Si3 0.296415 0.128351 0.790905
Si Si4 0.130323 0.077577 0.420927
Si Si5 0.312677 0.091899 0.254581
Si Si6 0.565501 0.071126 0.958411
Si Si7 0.800877 0.023449 0.801263
Si Si8 0.266433 0.432345 0.055705
O O1 0.500000 0.750100 0.750000
O O2 0.502375 0.787605 0.623684
O O3 0.281673 0.699666 0.711009
O O4 0.279448 0.830752 0.746729
O O5 0.250000 0.250000 0.500000
O O6 0.275375 0.357494 0.570525
O O7 0.095763 0.368671 0.503529
O O8 0.500000 0.131878 0.750000
O O9 0.249012 0.075946 0.744459
O O10 0.225377 0.101877 0.874854
O O11 0.174147 0.068630 0.335949
O O12 0.931224 0.084200 0.477929
O O13 0.213713 0.012474 0.438414
O O14 0.500000 0.086364 0.250000
O O15 0.302548 0.044579 0.193655
O O16 0.738950 0.054519 0.882592
O O17 0.412085 0.088694 0.939895
O O18 0.500000 0.000000 0.000000
O O19 0.000000 0.010284 0.750000
#
# Coordination Sequence:
#
# PCOD9302284 Si02
#       8
#     8   8   8   8   8   8   8   8
#     4  11  25  46  70  97 137 184 233 283 345 422
#     4  12  26  44  70 102 140 184 230 282 353 423
#     4  12  25  46  68  97 135 184 231 290 350 411
#     4  11  22  42  72 100 134 182 228 283 344 416
#     4  11  21  44  71  99 135 180 227 283 348 408
#     4  12  26  45  69 101 142 177 229 290 348 412
#     4  12  27  40  72 105 134 176 234 289 344 411
#     4  11  24  43  70 102 138 178 233 286 349 411
#
# _framework density 20.083427
#
# number of rings (size 3 to 8) (size 9 to 14) (size 15 to 20)
#    0.000    0.500    6.250    3.000    7.000    0.500 
#    2.250    1.250    0.000    0.000    0.000    0.000 
#    0.000    0.000    0.000    0.000    0.000    0.000 
#
# Total GULP energy -178937.016387 kJ/mol
# GULP energy per Si atom -5591.781762 kJ/mol
# Density = 2.003772 g / cm^3
# Si number density = 20.083427 Si / 1000 Ang^3
#
#
#
# Elastic Constant Matrix: (Units=GPa)
#
#
# Indices 1 2 3 4 5 6 
#
# 1 48.6900 38.7520 12.4408 0.0000 -1.6078 0.0000
# 2 38.7520 115.3674 13.5767 0.0000 4.2069 0.0000
# 3 12.4408 13.5767 108.9975 0.0000 -5.3819 0.0000
# 4 0.0000 0.0000 0.0000 32.6334 0.0000 4.4757
# 5 -1.6078 4.2069 -5.3819 0.0000 30.4714 0.0000
# 6 0.0000 0.0000 0.0000 4.4757 0.0000 39.0939
#
#
#
# Elastic Compliance Matrix: (Units=1/GPa)
#
#
# Indices 1 2 3 4 5 6 
#
# 1 0.028677 -0.009491 -0.001969 0.000000 0.002476 0.000000
# 2 -0.009491 0.012000 -0.000522 0.000000 -0.002250 0.000000
# 3 -0.001969 -0.000522 0.009546 0.000000 0.001654 0.000000
# 4 0.000000 0.000000 0.000000 0.031132 0.000000 -0.003564
# 5 0.002476 -0.002250 0.001654 0.000000 0.033551 0.000000
# 6 0.000000 0.000000 0.000000 -0.003564 0.000000 0.025988
#
#
# Mechanical properties :
#
#
# Convention : Reuss Voigt Hill
#
# Bulk Modulus (GPa) = 38.08388 44.73265 41.40827
# Shear Modulus (GPa) = 28.80012 34.32544 31.56278
#
# Velocity S-wave (km/s) = 3.79096 4.13866 3.96862
# Velocity P-wave (km/s) = 6.17785 6.72010 6.45467
#
# Compressibility (1/GPa) = 0.02625783
#
# Stress axis : x y z
#
# Youngs Moduli (GPa) = 34.87135 83.33629 104.75614
#
# Poissons Ratio (x) = 0.79096 0.20623
# Poissons Ratio (y) = 0.33097 0.05473
# Poissons Ratio (z) = 0.06865 0.04354
#
# Static dielectric constant tensor:
#      x y z
#    x 1.717090 0.000000 0.017190 
#    y 0.000000 1.692440 0.000000 
#    z 0.017190 0.000000 1.751960 
# 
# From -- ./inp_files/233823.got.cif
#   From: 2010.05.17/outbox.cif.g08.bks.cpg/sg15_117_cif.got.tgz:233823.got - 2010.06.03 18:47:42.
