data_PCOD9302877
_publ_section_title
;
Structure prediction by ZEFSAII (Michael W. Deem and Ramdas Pophale) SiO2 
 PCOD9302877
Probable space group: C 2/C
;
_chemical_formula_sum "Si O2"
_cell_formula_units_Z 56
_cell_length_a 23.198819
_cell_length_b 14.145187
_cell_length_c 13.953428
_cell_angle_alpha 90.000000
_cell_angle_beta 30.959710
_cell_angle_gamma 90.000000
_cell_volume 2355.516535
_symmetry_space_group_name_H-M "C 2/C"
_symmetry_group_IT_number 15
_symmetry_cell_setting 'monoclinic'
loop_
_space_group_symop_operation_xyz
x,y,z
-x,y,1/2-z
-x,-y,-z
x,-y,1/2+z
1/2+x,1/2+y,z
1/2-x,1/2+y,1/2-z
1/2-x,1/2-y,-z
1/2+x,1/2-y,1/2+z
loop_
_atom_site_type_symbol
_atom_site_label
_atom_site_fract_x
_atom_site_fract_y
_atom_site_fract_z
Si Si1 0.725655 0.514063 0.528185
Si Si2 0.824228 0.858946 0.034000
Si Si3 0.265051 0.295397 0.582957
Si Si4 0.770119 0.503839 0.669957
Si Si5 0.517387 0.962061 0.367724
Si Si6 0.535847 0.751198 0.020705
Si Si7 0.838449 0.797230 0.673998
O O1 0.666043 0.418140 0.577473
O O2 0.697807 0.598840 0.496774
O O3 0.709896 0.543114 0.660620
O O4 0.859406 0.496778 0.334113
O O5 0.928475 0.816617 0.943488
O O6 0.739886 0.770760 0.150537
O O7 0.764491 0.933130 0.191109
O O8 0.250000 0.250000 0.500000
O O9 0.145636 0.285944 0.806242
O O10 0.345369 0.258338 0.554182
O O11 0.905431 0.496861 0.472995
O O12 0.721467 0.398151 0.747263
O O13 0.517455 0.848278 0.364454
O O14 0.500000 0.000000 0.500000
O O15 0.456021 0.701014 0.058640
#
# Coordination Sequence:
#
# PCOD9302877 Si02
#       7
#     8   8   8   8   8   8   8
#     4  12  23  40  69  95 131 171 220 274 326 395
#     4  11  22  43  66  92 135 170 216 275 327 389
#     4  11  23  43  66 100 131 167 221 272 330 392
#     4  12  24  42  64  98 128 175 216 268 340 386
#     4  12  19  41  66  95 131 164 216 276 328 380
#     4  11  22  40  68  94 127 177 214 265 332 388
#     4  11  22  43  67  89 134 174 212 273 327 386
#
# _framework density 23.773979000000001
#
# number of rings (size 3 to 8) (size 9 to 14) (size 15 to 20)
#    0.000    0.571    8.571    2.143    0.000    1.714 
#    2.571    0.714    0.000    0.000    0.000    0.000 
#    0.000    0.000    0.000    0.000    0.000    0.000 
#
# Total GULP energy -156597.821600 kJ/mol
# GULP energy per Si atom -5592.779343 kJ/mol
# Density = 2.371987 g / cm^3
# Si number density = 23.773979 Si / 1000 Ang^3
#
#
#
# Elastic Constant Matrix: (Units=GPa)
#
#
# Indices 1 2 3 4 5 6 
#
# 1 140.3376 -9.8328 3.3754 0.0000 -15.6146 0.0000
# 2 -9.8328 72.1891 -10.9454 0.0000 -12.1082 0.0000
# 3 3.3754 -10.9454 16.9144 0.0000 -1.0727 0.0000
# 4 0.0000 0.0000 0.0000 14.0952 0.0000 -0.9261
# 5 -15.6146 -12.1082 -1.0727 0.0000 33.7661 0.0000
# 6 0.0000 0.0000 0.0000 -0.9261 0.0000 48.7898
#
#
#
# Elastic Compliance Matrix: (Units=1/GPa)
#
#
# Indices 1 2 3 4 5 6 
#
# 1 0.007716 0.001729 -0.000156 0.000000 0.004183 0.000000
# 2 0.001729 0.016987 0.011107 0.000000 0.007244 0.000000
# 3 -0.000156 0.011107 0.066722 0.000000 0.006030 0.000000
# 4 0.000000 0.000000 0.000000 0.071035 0.000000 0.001348
# 5 0.004183 0.007244 0.006030 0.000000 0.034339 0.000000
# 6 0.000000 0.000000 0.000000 0.001348 0.000000 0.020522
#
#
# Mechanical properties :
#
#
# Convention : Reuss Voigt Hill
#
# Bulk Modulus (GPa) = 8.56274 21.62617 15.09445
# Shear Modulus (GPa) = 21.65546 35.78646 28.72096
#
# Velocity S-wave (km/s) = 3.02137 3.88400 3.47952
# Velocity P-wave (km/s) = 3.97254 5.40650 4.74402
#
# Compressibility (1/GPa) = 0.11678506
#
# Stress axis : x y z
#
# Youngs Moduli (GPa) = 129.60066 58.86850 14.98760
#
# Poissons Ratio (x) = -0.10179 0.00233
# Poissons Ratio (y) = -0.22408 -0.16646
# Poissons Ratio (z) = 0.02017 -0.65383
#
# Static dielectric constant tensor:
#      x y z
#    x 1.947900 0.000000 0.028400 
#    y 0.000000 1.924730 0.000000 
#    z 0.028400 0.000000 1.904950 
# 
# From -- ./inp_files/168434.got.cif
#   From: 2010.05.17/outbox.cif.g08.bks.cpg/sg15_85_cif.got.tgz:168434.got - 2010.06.03 18:47:42.
