data_PCOD9302943
_publ_section_title
;
Structure prediction by ZEFSAII (Michael W. Deem and Ramdas Pophale) SiO2 
 PCOD9302943
Probable space group: C 2/C
;
_chemical_formula_sum "Si O2"
_cell_formula_units_Z 52
_cell_length_a 11.361447
_cell_length_b 8.478912
_cell_length_c 23.897742
_cell_angle_alpha 90.000000
_cell_angle_beta 89.127819
_cell_angle_gamma 90.000000
_cell_volume 2301.867510
_symmetry_space_group_name_H-M "C 2/C"
_symmetry_group_IT_number 15
_symmetry_cell_setting 'monoclinic'
loop_
_space_group_symop_operation_xyz
x,y,z
-x,y,1/2-z
-x,-y,-z
x,-y,1/2+z
1/2+x,1/2+y,z
1/2-x,1/2+y,1/2-z
1/2-x,1/2-y,-z
1/2+x,1/2-y,1/2+z
loop_
_atom_site_type_symbol
_atom_site_label
_atom_site_fract_x
_atom_site_fract_y
_atom_site_fract_z
Si Si1 0.248778 0.703095 0.725579
Si Si2 0.460560 0.361259 0.541723
Si Si3 0.000000 0.792450 0.250000
Si Si4 0.282039 0.362257 0.931298
Si Si5 0.871442 0.562110 0.484094
Si Si6 0.831498 0.015740 0.818749
Si Si7 0.224069 0.033278 0.886728
O O1 0.379985 0.782670 0.728574
O O2 0.163605 0.840886 0.707753
O O3 0.236845 0.621429 0.785612
O O4 0.253064 0.565701 0.678635
O O5 0.500000 0.500000 0.500000
O O6 0.587061 0.295293 0.559327
O O7 0.380111 0.237987 0.508975
O O8 0.388110 0.431399 0.594175
O O9 0.047885 0.898120 0.198149
O O10 0.222141 0.450714 0.983040
O O11 0.297954 0.490789 0.882497
O O12 0.208259 0.212443 0.910560
O O13 0.832348 0.548151 0.419733
O O14 0.000000 0.500000 0.500000
#
# Coordination Sequence:
#
# PCOD9302943 Si02
#       7
#     8   8   4   8   8   8   8
#     4   9  20  39  63  89 120 159 205 249 307 365
#     4  12  24  40  64  92 123 166 208 255 313 375
#     4   8  18  40  62  84 122 152 200 256 306 350
#     4  11  23  43  62  90 132 161 208 259 313 371
#     4  12  24  42  63  93 127 167 208 254 312 373
#     4   9  20  40  63  89 121 163 199 257 305 360
#     4  11  22  41  63  90 128 164 206 258 310 370
#
# _framework density 22.590354999999999
#
# number of rings (size 3 to 8) (size 9 to 14) (size 15 to 20)
#    0.923    0.615    3.077    2.769    0.000    1.231 
#    0.000    3.846    0.000    0.000    0.000    0.000 
#    0.000    0.000    0.000    0.000    0.000    0.000 
#
# Total GULP energy -145020.721575 kJ/mol
# GULP energy per Si atom -5577.720061 kJ/mol
# Density = 2.253894 g / cm^3
# Si number density = 22.590355 Si / 1000 Ang^3
#
#
#
# Elastic Constant Matrix: (Units=GPa)
#
#
# Indices 1 2 3 4 5 6 
#
# 1 86.6994 8.5693 -3.4516 0.0000 7.2260 0.0000
# 2 8.5693 39.3181 -23.7011 0.0000 -5.5491 0.0000
# 3 -3.4516 -23.7011 44.8365 0.0000 9.3339 0.0000
# 4 0.0000 0.0000 0.0000 22.7117 0.0000 6.0629
# 5 7.2260 -5.5491 9.3339 0.0000 21.6158 0.0000
# 6 0.0000 0.0000 0.0000 6.0629 0.0000 22.3849
#
#
#
# Elastic Compliance Matrix: (Units=1/GPa)
#
#
# Indices 1 2 3 4 5 6 
#
# 1 0.012285 -0.003209 0.000303 0.000000 -0.005062 0.000000
# 2 -0.003209 0.038193 0.019424 0.000000 0.002490 0.000000
# 3 0.000303 0.019424 0.034696 0.000000 -0.010097 0.000000
# 4 0.000000 0.000000 0.000000 0.047462 0.000000 -0.012855
# 5 -0.005062 0.002490 -0.010097 0.000000 0.052954 0.000000
# 6 0.000000 0.000000 0.000000 -0.012855 0.000000 0.048155
#
#
# Mechanical properties :
#
#
# Convention : Reuss Voigt Hill
#
# Bulk Modulus (GPa) = 8.45951 14.85414 11.65683
# Shear Modulus (GPa) = 20.82354 25.97164 23.39759
#
# Velocity S-wave (km/s) = 3.03939 3.39437 3.22177
# Velocity P-wave (km/s) = 4.00875 4.68530 4.36017
#
# Compressibility (1/GPa) = 0.11821014
#
# Stress axis : x y z
#
# Youngs Moduli (GPa) = 81.39859 26.18258 28.82158
#
# Poissons Ratio (x) = 0.08403 -0.00873
# Poissons Ratio (y) = 0.26123 -0.55983
# Poissons Ratio (z) = -0.02466 -0.50857
#
# Static dielectric constant tensor:
#      x y z
#    x 1.867920 0.000000 0.041170 
#    y 0.000000 1.870050 0.000000 
#    z 0.041170 0.000000 1.852970 
# 
# From -- ./inp_files/291203.got.cif
#   From: 2010.05.17/outbox.cif.g08.bks.cpg/sg15_146_cif.got.tgz:291203.got - 2010.06.03 18:47:42.
