data_PCOD9302639
_publ_section_title
;
Structure prediction by ZEFSAII (Michael W. Deem and Ramdas Pophale) SiO2 
 PCOD9302639
Probable space group: C 2/C
;
_chemical_formula_sum "Si O2"
_cell_formula_units_Z 36
_cell_length_a 11.371102
_cell_length_b 8.834882
_cell_length_c 17.528426
_cell_angle_alpha 90.000000
_cell_angle_beta 109.985458
_cell_angle_gamma 90.000000
_cell_volume 1654.901493
_symmetry_space_group_name_H-M "C 2/C"
_symmetry_group_IT_number 15
_symmetry_cell_setting 'monoclinic'
loop_
_space_group_symop_operation_xyz
x,y,z
-x,y,1/2-z
-x,-y,-z
x,-y,1/2+z
1/2+x,1/2+y,z
1/2-x,1/2+y,1/2-z
1/2-x,1/2-y,-z
1/2+x,1/2-y,1/2+z
loop_
_atom_site_type_symbol
_atom_site_label
_atom_site_fract_x
_atom_site_fract_y
_atom_site_fract_z
Si Si1 0.375639 0.418131 0.998496
Si Si2 0.382482 0.335933 0.175544
Si Si3 0.500000 0.248223 0.750000
Si Si4 0.879555 0.490981 0.127571
Si Si5 0.891304 0.681296 0.871998
O O1 0.383291 0.394585 0.089717
O O2 0.500000 0.500000 0.000000
O O3 0.249195 0.506000 0.947268
O O4 0.375790 0.262276 0.949959
O O5 0.500000 0.392085 0.250000
O O6 0.390460 0.153875 0.169315
O O7 0.246951 0.376072 0.179208
O O8 0.440869 0.300580 0.817714
O O9 0.610950 0.139380 0.806657
O O10 0.002689 0.448095 0.105471
#
# Coordination Sequence:
#
# PCOD9302639 Si02
#       5
#     8   8   4   8   8
#     4  11  25  38  57  92 133 157 208 262 299 384
#     4  11  22  39  62  90 119 163 213 258 309 369
#     4   8  18  38  66  88 118 160 206 252 304 380
#     4   9  19  41  63  89 117 164 207 255 311 364
#     4   9  20  40  65  87 120 165 205 253 315 367
#
# _framework density 21.75356
#
# number of rings (size 3 to 8) (size 9 to 14) (size 15 to 20)
#    1.333    0.889    1.111    2.667    3.111    4.444 
#    2.000    0.000    0.000    0.000    0.000    0.000 
#    0.000    0.000    0.000    0.000    0.000    0.000 
#
# Total GULP energy -100245.948758 kJ/mol
# GULP energy per Si atom -5569.219375 kJ/mol
# Density = 2.170405 g / cm^3
# Si number density = 21.753560 Si / 1000 Ang^3
#
#
#
# Elastic Constant Matrix: (Units=GPa)
#
#
# Indices 1 2 3 4 5 6 
#
# 1 182.4498 15.4477 68.2780 0.0000 18.3262 0.0000
# 2 15.4477 10.0241 -6.0810 0.0000 9.5851 0.0000
# 3 68.2780 -6.0810 144.1037 0.0000 12.0115 0.0000
# 4 0.0000 0.0000 0.0000 11.3525 0.0000 18.1265
# 5 18.3262 9.5851 12.0115 0.0000 51.3078 0.0000
# 6 0.0000 0.0000 0.0000 18.1265 0.0000 -21.4244
#
#
#
# Elastic Compliance Matrix: (Units=1/GPa)
#
#
# Indices 1 2 3 4 5 6 
#
# 1 0.008718 -0.017783 -0.004996 0.000000 0.001378 0.000000
# 2 -0.017783 0.165424 0.017800 0.000000 -0.028719 0.000000
# 3 -0.004996 0.017800 0.010389 0.000000 -0.003973 0.000000
# 4 0.000000 0.000000 0.000000 0.037469 0.000000 0.031701
# 5 0.001378 -0.028719 -0.003973 0.000000 0.025293 0.000000
# 6 0.000000 0.000000 0.000000 0.031701 0.000000 -0.019854
#
#
# Mechanical properties :
#
#
# Convention : Reuss Voigt Hill
#
# Bulk Modulus (GPa) = 5.72825 54.65188 30.19006
# Shear Modulus (GPa) = 16.91554 25.50939 21.21246
#
# Velocity S-wave (km/s) = 2.79157 3.42812 3.12609
# Velocity P-wave (km/s) = 3.60963 6.39117 5.19021
#
# Compressibility (1/GPa) = 0.17457347
#
# Stress axis : x y z
#
# Youngs Moduli (GPa) = 114.70803 6.04508 96.25711
#
# Poissons Ratio (x) = 0.10750 0.48089
# Poissons Ratio (y) = 2.03983 -1.71339
# Poissons Ratio (z) = 0.57306 -0.10760
#
# Static dielectric constant tensor:
#      x y z
#    x 1.817040 0.000000 -0.001220 
#    y 0.000000 1.871050 0.000000 
#    z -0.001220 0.000000 1.813720 
# 
# From -- ./inp_files/195772.got.cif
#   From: 2010.05.17/outbox.cif.g08.bks.cpg/sg15_98_cif.got.tgz:195772.got - 2010.06.03 18:47:42.
