data_PCOD9302750
_publ_section_title
;
Structure prediction by ZEFSAII (Michael W. Deem and Ramdas Pophale) SiO2 
 PCOD9302750
Probable space group: C 2/C
;
_chemical_formula_sum "Si O2"
_cell_formula_units_Z 64
_cell_length_a 19.805843
_cell_length_b 17.001400
_cell_length_c 9.307407
_cell_angle_alpha 90.000000
_cell_angle_beta 61.776051
_cell_angle_gamma 90.000000
_cell_volume 2761.434902
_symmetry_space_group_name_H-M "C 2/C"
_symmetry_group_IT_number 15
_symmetry_cell_setting 'monoclinic'
loop_
_space_group_symop_operation_xyz
x,y,z
-x,y,1/2-z
-x,-y,-z
x,-y,1/2+z
1/2+x,1/2+y,z
1/2-x,1/2+y,1/2-z
1/2-x,1/2-y,-z
1/2+x,1/2-y,1/2+z
loop_
_atom_site_type_symbol
_atom_site_label
_atom_site_fract_x
_atom_site_fract_y
_atom_site_fract_z
Si Si1 0.888169 0.812384 0.250585
Si Si2 0.209762 0.601591 0.594292
Si Si3 0.734949 0.122441 0.977259
Si Si4 0.433299 0.787036 0.211744
Si Si5 0.112496 0.860233 0.571247
Si Si6 0.628085 0.536960 0.572102
Si Si7 0.068380 0.336349 0.604851
Si Si8 0.741369 0.050576 0.250343
O O1 0.794251 0.813966 0.357200
O O2 0.913305 0.886742 0.325455
O O3 0.915919 0.734733 0.300272
O O4 0.910351 0.828717 0.063890
O O5 0.208560 0.528415 0.707449
O O6 0.144491 0.664734 0.685714
O O7 0.294849 0.637788 0.521713
O O8 0.203826 0.572640 0.436798
O O9 0.650395 0.122064 0.002337
O O10 0.723046 0.123131 0.160124
O O11 0.500000 0.816678 0.250000
O O12 0.417530 0.697379 0.275805
O O13 0.454147 0.801110 0.025978
O O14 0.091426 0.951894 0.614966
O O15 0.665980 0.546633 0.375412
O O16 0.706868 0.546411 0.591609
O O17 0.000000 0.384289 0.750000
#
# Coordination Sequence:
#
# PCOD9302750 Si02
#       8
#     8   8   8   8   8   8   8   8
#     4   9  21  39  66  98 130 169 226 270 329 402
#     4  11  23  41  70 103 136 172 215 276 337 390
#     4   8  20  37  69  96 130 158 226 266 327 386
#     4  12  30  44  60  96 140 177 226 274 330 393
#     4  11  22  39  69  98 134 169 218 285 333 387
#     4   7  20  33  68  93 131 156 217 271 334 373
#     4  12  25  43  69  89 135 188 222 266 330 408
#     4   8  21  35  66  96 134 157 214 267 323 386
#
# _framework density 23.176358
#
# number of rings (size 3 to 8) (size 9 to 14) (size 15 to 20)
#    1.500    0.500    0.000    2.250   19.250    0.000 
#    0.000    1.875    0.000    3.000    0.000    0.000 
#    0.000    0.000    0.000    0.000    0.000    0.000 
#
# Total GULP energy -178282.225549 kJ/mol
# GULP energy per Si atom -5571.319548 kJ/mol
# Density = 2.312361 g / cm^3
# Si number density = 23.176358 Si / 1000 Ang^3
#
#
#
# Elastic Constant Matrix: (Units=GPa)
#
#
# Indices 1 2 3 4 5 6 
#
# 1 75.9468 0.8222 36.3446 0.0000 -12.9771 0.0000
# 2 0.8222 48.2415 30.3244 0.0000 0.4022 0.0000
# 3 36.3446 30.3244 150.9069 0.0000 18.1933 0.0000
# 4 0.0000 0.0000 0.0000 -3.0812 0.0000 31.3260
# 5 -12.9771 0.4022 18.1933 0.0000 35.8945 0.0000
# 6 0.0000 0.0000 0.0000 31.3260 0.0000 -8.3891
#
#
#
# Elastic Compliance Matrix: (Units=1/GPa)
#
#
# Indices 1 2 3 4 5 6 
#
# 1 0.017649 0.003441 -0.006078 0.000000 0.009423 0.000000
# 2 0.003441 0.024575 -0.006267 0.000000 0.004145 0.000000
# 3 -0.006078 -0.006267 0.010231 0.000000 -0.007313 0.000000
# 4 0.000000 0.000000 0.000000 0.008780 0.000000 0.032786
# 5 0.009423 0.004145 -0.007313 0.000000 0.034926 0.000000
# 6 0.000000 0.000000 0.000000 0.032786 0.000000 0.003225
#
#
# Mechanical properties :
#
#
# Convention : Reuss Voigt Hill
#
# Bulk Modulus (GPa) = 28.86180 45.56418 37.21299
# Shear Modulus (GPa) = 38.83714 18.72510 28.78112
#
# Velocity S-wave (km/s) = 4.09800 2.84551 3.52779
# Velocity P-wave (km/s) = 5.90522 5.52253 5.71708
#
# Compressibility (1/GPa) = 0.03464788
#
# Stress axis : x y z
#
# Youngs Moduli (GPa) = 56.66186 40.69157 97.73835
#
# Poissons Ratio (x) = -0.14003 0.59405
# Poissons Ratio (y) = -0.19499 0.61251
# Poissons Ratio (z) = 0.34439 0.25501
#
# Static dielectric constant tensor:
#      x y z
#    x 1.975130 0.000000 0.028870 
#    y 0.000000 1.945250 0.000000 
#    z 0.028870 0.000000 1.944170 
# 
# From -- ./inp_files/57844.got.cif
#   From: 2010.05.17/outbox.cif.g08.bks.cpg/sg15_29_cif.got.tgz:57844.got - 2010.06.03 18:47:42.
