data_PCOD9302129
_publ_section_title
;
Structure prediction by ZEFSAII (Michael W. Deem and Ramdas Pophale) SiO2 
 PCOD9302129
Probable space group: C 2/C
;
_chemical_formula_sum "Si O2"
_cell_formula_units_Z 52
_cell_length_a 17.940705
_cell_length_b 9.182836
_cell_length_c 19.562672
_cell_angle_alpha 90.000000
_cell_angle_beta 132.464576
_cell_angle_gamma 90.000000
_cell_volume 2377.504139
_symmetry_space_group_name_H-M "C 2/C"
_symmetry_group_IT_number 15
_symmetry_cell_setting 'monoclinic'
loop_
_space_group_symop_operation_xyz
x,y,z
-x,y,1/2-z
-x,-y,-z
x,-y,1/2+z
1/2+x,1/2+y,z
1/2-x,1/2+y,1/2-z
1/2-x,1/2-y,-z
1/2+x,1/2-y,1/2+z
loop_
_atom_site_type_symbol
_atom_site_label
_atom_site_fract_x
_atom_site_fract_y
_atom_site_fract_z
Si Si1 0.218079 0.135517 0.575662
Si Si2 0.777325 0.730831 0.273608
Si Si3 0.548098 0.584731 0.965562
Si Si4 0.861465 0.014383 0.756272
Si Si5 0.004953 0.406967 0.571615
Si Si6 0.500000 0.369952 0.750000
Si Si7 0.595804 0.149976 0.905017
O O1 0.222803 0.167924 0.658699
O O2 0.326192 0.123014 0.607893
O O3 0.158127 0.270860 0.504083
O O4 0.153865 0.992641 0.519353
O O5 0.687124 0.617489 0.229951
O O6 0.880330 0.637111 0.339486
O O7 0.787670 0.845889 0.217900
O O8 0.467642 0.561446 0.855373
O O9 0.553084 0.756484 0.978498
O O10 0.500000 0.500000 0.000000
O O11 0.897798 0.959326 0.704367
O O12 0.956451 0.505495 0.600340
O O13 0.000000 0.500000 0.500000
O O14 0.517839 0.266763 0.826236
#
# Coordination Sequence:
#
# PCOD9302129 Si02
#       7
#     8   8   8   8   8   4   8
#     4  11  21  42  67  97 129 171 218 272 324 393
#     4  11  24  43  68  99 131 170 229 266 326 391
#     4  11  21  42  69  94 130 167 217 275 324 380
#     4  11  25  42  64  99 130 177 214 271 330 392
#     4  11  23  40  68 100 126 171 225 272 318 392
#     4  12  24  42  68  88 142 182 204 270 348 380
#     4  11  24  40  68  97 131 171 223 263 330 399
#
# _framework density 21.871676999999998
#
# number of rings (size 3 to 8) (size 9 to 14) (size 15 to 20)
#    0.000    0.923    7.692    0.000    2.154    0.615 
#    0.000    6.154    0.000    0.000    0.000    0.000 
#    0.000    0.000    0.000    0.000    0.000    0.000 
#
# Total GULP energy -145377.047300 kJ/mol
# GULP energy per Si atom -5591.424896 kJ/mol
# Density = 2.182190 g / cm^3
# Si number density = 21.871677 Si / 1000 Ang^3
#
#
#
# Elastic Constant Matrix: (Units=GPa)
#
#
# Indices 1 2 3 4 5 6 
#
# 1 125.4407 74.9814 7.9937 0.0000 12.5593 0.0000
# 2 74.9814 164.1981 15.5338 0.0000 9.0330 0.0000
# 3 7.9937 15.5338 24.8514 0.0000 2.3299 0.0000
# 4 0.0000 0.0000 0.0000 31.5289 0.0000 0.2813
# 5 12.5593 9.0330 2.3299 0.0000 25.5954 0.0000
# 6 0.0000 0.0000 0.0000 0.2813 0.0000 41.1138
#
#
#
# Elastic Compliance Matrix: (Units=1/GPa)
#
#
# Indices 1 2 3 4 5 6 
#
# 1 0.011317 -0.004941 -0.000196 0.000000 -0.003792 0.000000
# 2 -0.004941 0.008726 -0.003837 0.000000 -0.000306 0.000000
# 3 -0.000196 -0.003837 0.042931 0.000000 -0.002458 0.000000
# 4 0.000000 0.000000 0.000000 0.031719 0.000000 -0.000217
# 5 -0.003792 -0.000306 -0.002458 0.000000 0.041262 0.000000
# 6 0.000000 0.000000 0.000000 -0.000217 0.000000 0.024324
#
#
# Mechanical properties :
#
#
# Convention : Reuss Voigt Hill
#
# Bulk Modulus (GPa) = 22.20902 56.83421 39.52161
# Shear Modulus (GPa) = 25.87507 34.04639 29.96073
#
# Velocity S-wave (km/s) = 3.44327 3.94971 3.70515
# Velocity P-wave (km/s) = 5.09749 6.84412 6.03433
#
# Compressibility (1/GPa) = 0.04502676
#
# Stress axis : x y z
#
# Youngs Moduli (GPa) = 88.35885 114.59622 23.29326
#
# Poissons Ratio (x) = 0.56622 0.00458
# Poissons Ratio (y) = 0.43658 0.08937
# Poissons Ratio (z) = 0.01736 0.43965
#
# Static dielectric constant tensor:
#      x y z
#    x 1.837950 0.000000 -0.005210 
#    y 0.000000 1.843670 0.000000 
#    z -0.005210 0.000000 1.810500 
# 
# From -- ./inp_files/181085.got.cif
#   From: 2010.05.17/outbox.cif.g08.bks.cpg/sg15_91_cif.got.tgz:181085.got - 2010.06.03 18:47:42.
