data_PCOD9302377
_publ_section_title
;
Structure prediction by ZEFSAII (Michael W. Deem and Ramdas Pophale) SiO2 
 PCOD9302377
Probable space group: C 2/C
;
_chemical_formula_sum "Si O2"
_cell_formula_units_Z 64
_cell_length_a 10.185648
_cell_length_b 28.692121
_cell_length_c 21.896041
_cell_angle_alpha 90.000000
_cell_angle_beta 29.513956
_cell_angle_gamma 90.000000
_cell_volume 3152.409729
_symmetry_space_group_name_H-M "C 2/C"
_symmetry_group_IT_number 15
_symmetry_cell_setting 'monoclinic'
loop_
_space_group_symop_operation_xyz
x,y,z
-x,y,1/2-z
-x,-y,-z
x,-y,1/2+z
1/2+x,1/2+y,z
1/2-x,1/2+y,1/2-z
1/2-x,1/2-y,-z
1/2+x,1/2-y,1/2+z
loop_
_atom_site_type_symbol
_atom_site_label
_atom_site_fract_x
_atom_site_fract_y
_atom_site_fract_z
Si Si1 0.391668 0.200710 0.043465
Si Si2 0.433448 0.637976 0.634957
Si Si3 0.060700 0.518224 0.042630
Si Si4 0.627974 0.682090 0.329827
Si Si5 0.121603 0.045990 0.770546
Si Si6 0.787793 0.195867 0.583795
Si Si7 0.265082 0.784067 0.212518
Si Si8 0.466882 0.121568 0.114526
O O1 0.358922 0.253194 0.082664
O O2 0.417386 0.160332 0.082407
O O3 0.123518 0.189909 0.113393
O O4 0.628683 0.203851 0.897878
O O5 0.320772 0.595488 0.720633
O O6 0.280088 0.656896 0.638283
O O7 0.453823 0.681540 0.672967
O O8 0.724196 0.624637 0.494267
O O9 0.892396 0.483900 0.154638
O O10 0.933186 0.569383 0.103775
O O11 0.000000 0.500000 0.000000
O O12 0.383749 0.523307 0.908385
O O13 0.510869 0.681351 0.444797
O O14 0.799768 0.729617 0.256749
O O15 0.784473 0.637164 0.244311
O O16 0.000000 0.052052 0.750000
O O17 0.523664 0.205170 0.650743
#
# Coordination Sequence:
#
# PCOD9302377 Si02
#       8
#     8   8   8   8   8   8   8   8
#     4   9  19  33  55  80 115 143 188 234 265 322
#     4  11  22  32  55  80 114 145 178 227 280 337
#     4   9  20  37  56  80 115 140 179 235 296 348
#     4   9  19  36  53  78 111 150 193 225 259 318
#     4   9  20  38  57  84 114 141 179 236 299 348
#     4   9  19  38  52  78 111 154 194 221 259 323
#     4   9  19  34  55  77 111 152 187 230 259 315
#     4  11  22  33  53  87 110 141 178 229 296 332
#
# _framework density 20.301929999999999
#
# number of rings (size 3 to 8) (size 9 to 14) (size 15 to 20)
#    0.000    2.500    0.000    3.000    5.250    7.500 
#    2.250    2.500    0.000    0.750    3.250    0.000 
#    0.000    0.000    0.000    0.000    0.000    0.000 
#
# Total GULP energy -178467.178727 kJ/mol
# GULP energy per Si atom -5577.099335 kJ/mol
# Density = 2.025572 g / cm^3
# Si number density = 20.301930 Si / 1000 Ang^3
#
#
#
# Elastic Constant Matrix: (Units=GPa)
#
#
# Indices 1 2 3 4 5 6 
#
# 1 57.1143 43.8825 12.6586 -0.0017 7.6136 -0.0008
# 2 43.8825 115.1524 56.1003 -0.0001 14.5015 -0.0015
# 3 12.6586 56.1003 103.2273 -0.0027 19.4652 0.0006
# 4 -0.0017 -0.0001 -0.0027 42.0508 0.0069 10.8003
# 5 7.6136 14.5015 19.4652 0.0069 15.3674 -0.0011
# 6 -0.0008 -0.0015 0.0006 10.8003 -0.0011 26.0438
#
#
#
# Elastic Compliance Matrix: (Units=1/GPa)
#
#
# Indices 1 2 3 4 5 6 
#
# 1 0.026097 -0.011037 0.004299 0.000003 -0.007959 -0.000002
# 2 -0.011037 0.016666 -0.007580 -0.000001 -0.000658 0.000001
# 3 0.004299 -0.007580 0.016202 0.000005 -0.015500 -0.000003
# 4 0.000003 -0.000001 0.000005 0.026616 -0.000019 -0.011037
# 5 -0.007959 -0.000658 -0.015500 -0.000019 0.089270 0.000012
# 6 -0.000002 0.000001 -0.000003 -0.011037 0.000012 0.042974
#
#
# Mechanical properties :
#
#
# Convention : Reuss Voigt Hill
#
# Bulk Modulus (GPa) = 32.97154 55.64186 44.30670
# Shear Modulus (GPa) = 19.48784 27.54925 23.51855
#
# Velocity S-wave (km/s) = 3.10159 3.68771 3.40728
# Velocity P-wave (km/s) = 5.39466 6.75270 6.11152
#
# Compressibility (1/GPa) = 0.03032919
#
# Stress axis : x y z
#
# Youngs Moduli (GPa) = 38.31842 60.00344 61.71970
#
# Poissons Ratio (x) = 0.66226 -0.26533
# Poissons Ratio (y) = 0.42292 0.46782
# Poissons Ratio (z) = -0.16473 0.45481
#
# Static dielectric constant tensor:
#      x y z
#    x 1.746950 0.000000 -0.024680 
#    y 0.000000 1.716550 0.000000 
#    z -0.024680 0.000000 1.782080 
# 
# From -- ./inp_files/271292.got.cif
#   From: 2010.05.17/outbox.cif.g08.bks.cpg/sg15_136_cif.got.tgz:271292.got - 2010.06.03 18:47:42.
