data_PCOD9302180
_publ_section_title
;
Structure prediction by ZEFSAII (Michael W. Deem and Ramdas Pophale) SiO2 
 PCOD9302180
Probable space group: C 2/C
;
_chemical_formula_sum "Si O2"
_cell_formula_units_Z 48
_cell_length_a 19.204604
_cell_length_b 16.397329
_cell_length_c 16.560217
_cell_angle_alpha 90.000000
_cell_angle_beta 157.024298
_cell_angle_gamma 90.000000
_cell_volume 2035.580845
_symmetry_space_group_name_H-M "C 2/C"
_symmetry_group_IT_number 15
_symmetry_cell_setting 'monoclinic'
loop_
_space_group_symop_operation_xyz
x,y,z
-x,y,1/2-z
-x,-y,-z
x,-y,1/2+z
1/2+x,1/2+y,z
1/2-x,1/2+y,1/2-z
1/2-x,1/2-y,-z
1/2+x,1/2-y,1/2+z
loop_
_atom_site_type_symbol
_atom_site_label
_atom_site_fract_x
_atom_site_fract_y
_atom_site_fract_z
Si Si1 0.410072 0.594991 0.231782
Si Si2 0.806433 0.173030 0.692896
Si Si3 0.693610 0.054220 0.439538
Si Si4 0.225658 0.860311 0.635452
Si Si5 0.274413 0.647153 0.836966
Si Si6 0.387398 0.834385 0.976552
O O1 0.500000 0.637641 0.250000
O O2 0.568583 0.588536 0.466144
O O3 0.239821 0.640721 0.086310
O O4 0.338899 0.508590 0.126256
O O5 0.713292 0.134801 0.515756
O O6 0.793080 0.270446 0.680709
O O7 0.724477 0.139336 0.689381
O O8 0.012853 0.147615 0.913447
O O9 0.500000 0.018494 0.250000
O O10 0.718730 0.076794 0.373638
O O11 0.305362 0.876213 0.808721
O O12 0.362993 0.737303 0.938093
O O13 0.096296 0.644334 0.700469
#
# Coordination Sequence:
#
# PCOD9302180 Si02
#       6
#     8   8   8   8   8   8
#     4  12  28  47  66 102 143 187 230 294 351 416
#     4  11  21  42  74 106 139 180 231 294 344 417
#     4  12  27  46  64 104 145 186 231 282 359 426
#     4  11  21  43  74 105 140 179 234 287 350 416
#     4  11  22  45  75 105 137 177 243 287 350 408
#     4  11  22  46  75 106 133 182 233 297 342 413
#
# _framework density 23.580493000000001
#
# number of rings (size 3 to 8) (size 9 to 14) (size 15 to 20)
#    0.000    0.667    3.333    7.000    2.333    1.333 
#    3.000    1.667    0.000    0.000    0.000    0.000 
#    0.000    0.000    0.000    0.000    0.000    0.000 
#
# Total GULP energy -134479.505202 kJ/mol
# GULP energy per Si atom -5603.312717 kJ/mol
# Density = 2.352682 g / cm^3
# Si number density = 23.580493 Si / 1000 Ang^3
#
#
#
# Elastic Constant Matrix: (Units=GPa)
#
#
# Indices 1 2 3 4 5 6 
#
# 1 130.8094 37.9434 28.4712 -0.0057 26.8083 -0.0064
# 2 37.9434 44.9473 22.1551 -0.0072 -1.9971 -0.0085
# 3 28.4712 22.1551 113.4129 -0.0166 33.4721 -0.0201
# 4 -0.0057 -0.0072 -0.0166 38.4157 -0.0067 -4.4663
# 5 26.8083 -1.9971 33.4721 -0.0067 50.9622 -0.0080
# 6 -0.0064 -0.0085 -0.0201 -4.4663 -0.0080 30.2843
#
#
#
# Elastic Compliance Matrix: (Units=1/GPa)
#
#
# Indices 1 2 3 4 5 6 
#
# 1 0.012244 -0.011412 0.001474 -0.000001 -0.007856 -0.000002
# 2 -0.011412 0.036379 -0.007981 0.000005 0.012671 0.000007
# 3 0.001474 -0.007981 0.012811 0.000003 -0.009503 0.000005
# 4 -0.000001 0.000005 0.000003 0.026485 0.000003 0.003906
# 5 -0.007856 0.012671 -0.009503 0.000003 0.030493 0.000004
# 6 -0.000002 0.000007 0.000005 0.003906 0.000004 0.033596
#
#
# Mechanical properties :
#
#
# Convention : Reuss Voigt Hill
#
# Bulk Modulus (GPa) = 39.06870 51.81211 45.44040
# Shear Modulus (GPa) = 25.46092 37.30577 31.38334
#
# Velocity S-wave (km/s) = 3.28951 3.98183 3.65211
# Velocity P-wave (km/s) = 5.57064 6.56963 6.09065
#
# Compressibility (1/GPa) = 0.02559594
#
# Stress axis : x y z
#
# Youngs Moduli (GPa) = 81.67138 27.48824 78.05823
#
# Poissons Ratio (x) = 0.31370 -0.11508
# Poissons Ratio (y) = 0.93203 0.62302
# Poissons Ratio (z) = -0.12041 0.21940
#
# Static dielectric constant tensor:
#      x y z
#    x 1.908420 0.000000 -0.000770 
#    y 0.000000 1.892170 0.000000 
#    z -0.000770 0.000000 1.873460 
# 
# From -- ./inp_files/216302.got.cif
#   From: 2010.05.17/outbox.cif.g08.bks.cpg/sg15_109_cif.got.tgz:216302.got - 2010.06.03 18:47:42.
