data_PCOD9302467
_publ_section_title
;
Structure prediction by ZEFSAII (Michael W. Deem and Ramdas Pophale) SiO2 
 PCOD9302467
Probable space group: C 2/C
;
_chemical_formula_sum "Si O2"
_cell_formula_units_Z 32
_cell_length_a 4.988365
_cell_length_b 29.428327
_cell_length_c 11.398027
_cell_angle_alpha 90.000000
_cell_angle_beta 59.807300
_cell_angle_gamma 90.000000
_cell_volume 1446.230543
_symmetry_space_group_name_H-M "C 2/C"
_symmetry_group_IT_number 15
_symmetry_cell_setting 'monoclinic'
loop_
_space_group_symop_operation_xyz
x,y,z
-x,y,1/2-z
-x,-y,-z
x,-y,1/2+z
1/2+x,1/2+y,z
1/2-x,1/2+y,1/2-z
1/2-x,1/2-y,-z
1/2+x,1/2-y,1/2+z
loop_
_atom_site_type_symbol
_atom_site_label
_atom_site_fract_x
_atom_site_fract_y
_atom_site_fract_z
Si Si1 0.144627 0.016220 0.090998
Si Si2 0.558122 0.375476 0.603285
Si Si3 0.844769 0.327552 0.000665
Si Si4 0.361405 0.258137 0.163222
O O1 0.000000 0.000530 0.250000
O O2 0.084135 0.070390 0.101948
O O3 0.500000 0.000000 0.000000
O O4 0.000000 0.000000 0.000000
O O5 0.500000 0.358608 0.750000
O O6 0.717856 0.356274 0.917048
O O7 0.901406 0.358237 0.491105
O O8 0.034612 0.279579 0.952120
O O9 0.523364 0.306762 0.117089
O O10 0.500000 0.236454 0.250000
O O11 0.000000 0.262576 0.250000
#
# Coordination Sequence:
#
# PCOD9302467 Si02
#       4
#     8   8   8   8
#     4  11  24  45  71 100 133 170 216 271 334 399
#     4  11  22  39  64  90 118 156 209 260 303 371
#     4  11  22  37  59  86 116 158 206 249 301 361
#     4  11  22  37  56  82 121 160 198 248 304 361
#
# _framework density 22.126487999999998
#
# number of rings (size 3 to 8) (size 9 to 14) (size 15 to 20)
#    0.000    1.000    0.000    8.250    0.000    8.000 
#    0.000   12.500    0.000    0.000    0.000    0.000 
#    0.000    0.000    0.000    0.000    0.000    0.000 
#
# Total GULP energy -89202.687077 kJ/mol
# GULP energy per Si atom -5575.167942 kJ/mol
# Density = 2.207613 g / cm^3
# Si number density = 22.126488 Si / 1000 Ang^3
#
#
#
# Elastic Constant Matrix: (Units=GPa)
#
#
# Indices 1 2 3 4 5 6 
#
# 1 178.4971 27.7195 65.3361 0.0000 -24.5040 0.0000
# 2 27.7195 80.8601 36.6221 0.0000 -1.1720 0.0000
# 3 65.3361 36.6221 103.9807 0.0000 -9.9044 0.0000
# 4 0.0000 0.0000 0.0000 24.9058 0.0000 2.1438
# 5 -24.5040 -1.1720 -9.9044 0.0000 38.8580 0.0000
# 6 0.0000 0.0000 0.0000 2.1438 0.0000 40.2578
#
#
#
# Elastic Compliance Matrix: (Units=1/GPa)
#
#
# Indices 1 2 3 4 5 6 
#
# 1 0.007805 -0.000670 -0.004306 0.000000 0.003804 0.000000
# 2 -0.000670 0.014802 -0.004909 0.000000 -0.001228 0.000000
# 3 -0.004306 -0.004909 0.014122 0.000000 0.000736 0.000000
# 4 0.000000 0.000000 0.000000 0.040336 0.000000 -0.002148
# 5 0.003804 -0.001228 0.000736 0.000000 0.028284 0.000000
# 6 0.000000 0.000000 0.000000 -0.002148 0.000000 0.024954
#
#
# Mechanical properties :
#
#
# Convention : Reuss Voigt Hill
#
# Bulk Modulus (GPa) = 58.96707 69.18816 64.07761
# Shear Modulus (GPa) = 32.10759 36.38168 34.24463
#
# Velocity S-wave (km/s) = 3.81345 4.05935 3.93832
# Velocity P-wave (km/s) = 6.78953 7.30125 7.05004
#
# Compressibility (1/GPa) = 0.01695862
#
# Stress axis : x y z
#
# Youngs Moduli (GPa) = 128.12888 67.55648 70.81280
#
# Poissons Ratio (x) = 0.04528 0.30489
# Poissons Ratio (y) = 0.08589 0.34763
# Poissons Ratio (z) = 0.55167 0.33165
#
# Static dielectric constant tensor:
#      x y z
#    x 1.778890 0.000000 0.005130 
#    y 0.000000 1.834350 0.000000 
#    z 0.005130 0.000000 2.022340 
# 
# From -- ./inp_files/73460.got.cif
#   From: 2010.05.17/outbox.cif.g08.bks.cpg/sg15_37_cif.got.tgz:73460.got - 2010.06.03 18:47:42.
