data_PCOD9302051
_publ_section_title
;
Structure prediction by ZEFSAII (Michael W. Deem and Ramdas Pophale) SiO2 
 PCOD9302051
Probable space group: C 2/C
;
_chemical_formula_sum "Si O2"
_cell_formula_units_Z 36
_cell_length_a 9.085117
_cell_length_b 22.886609
_cell_length_c 7.675726
_cell_angle_alpha 90.000000
_cell_angle_beta 77.693731
_cell_angle_gamma 90.000000
_cell_volume 1559.322324
_symmetry_space_group_name_H-M "C 2/C"
_symmetry_group_IT_number 15
_symmetry_cell_setting 'monoclinic'
loop_
_space_group_symop_operation_xyz
x,y,z
-x,y,1/2-z
-x,-y,-z
x,-y,1/2+z
1/2+x,1/2+y,z
1/2-x,1/2+y,1/2-z
1/2-x,1/2-y,-z
1/2+x,1/2-y,1/2+z
loop_
_atom_site_type_symbol
_atom_site_label
_atom_site_fract_x
_atom_site_fract_y
_atom_site_fract_z
Si Si1 0.169513 0.034089 0.133715
Si Si2 0.294063 0.146772 0.189268
Si Si3 0.000000 0.784390 0.750000
Si Si4 0.400863 0.180310 0.538383
Si Si5 0.172496 0.089988 0.749744
O O1 0.264456 0.078503 0.227454
O O2 0.000000 0.034143 0.250000
O O3 0.216583 0.966830 0.123604
O O4 0.174679 0.063366 0.942961
O O5 0.140245 0.175636 0.157809
O O6 0.335237 0.178851 0.359332
O O7 0.434133 0.152225 0.025222
O O8 0.936919 0.742514 0.614533
O O9 0.286148 0.142386 0.682348
O O10 0.000000 0.107348 0.750000
#
# Coordination Sequence:
#
# PCOD9302051 Si02
#       5
#     8   8   4   8   8
#     4  11  21  41  69 101 136 180 223 273 344 407
#     4  11  24  44  71  97 142 178 228 282 335 408
#     4  12  24  46  70  96 140 182 228 280 338 408
#     4  11  25  44  65 105 135 179 230 279 341 397
#     4  11  23  40  69 100 140 177 225 279 337 410
#
# _framework density 23.086950999999999
#
# number of rings (size 3 to 8) (size 9 to 14) (size 15 to 20)
#    0.000    0.889    1.111    8.000    0.000    0.889 
#    4.000    2.222    0.000    0.000    0.000    0.000 
#    0.000    0.000    0.000    0.000    0.000    0.000 
#
# Total GULP energy -100726.488208 kJ/mol
# GULP energy per Si atom -5595.916012 kJ/mol
# Density = 2.303440 g / cm^3
# Si number density = 23.086951 Si / 1000 Ang^3
#
#
#
# Elastic Constant Matrix: (Units=GPa)
#
#
# Indices 1 2 3 4 5 6 
#
# 1 130.0993 63.7784 36.3475 0.0000 -15.5590 0.0000
# 2 63.7784 78.5920 22.9414 0.0000 -21.6943 0.0000
# 3 36.3475 22.9414 104.1360 0.0000 5.0776 0.0000
# 4 0.0000 0.0000 0.0000 -26.6383 0.0000 47.9638
# 5 -15.5590 -21.6943 5.0776 0.0000 36.1511 0.0000
# 6 0.0000 0.0000 0.0000 47.9638 0.0000 21.7153
#
#
#
# Elastic Compliance Matrix: (Units=1/GPa)
#
#
# Indices 1 2 3 4 5 6 
#
# 1 0.013313 -0.010092 -0.002424 0.000000 0.000014 0.000000
# 2 -0.010092 0.024587 -0.002418 0.000000 0.010751 0.000000
# 3 -0.002424 -0.002418 0.011180 0.000000 -0.004065 0.000000
# 4 0.000000 0.000000 0.000000 -0.007543 0.000000 0.016660
# 5 0.000014 0.010751 -0.004065 0.000000 0.034690 0.000000
# 6 0.000000 0.000000 0.000000 0.016660 0.000000 0.009253
#
#
# Mechanical properties :
#
#
# Convention : Reuss Voigt Hill
#
# Bulk Modulus (GPa) = 52.05319 62.10689 57.08004
# Shear Modulus (GPa) = 41.06682 18.89630 29.98156
#
# Velocity S-wave (km/s) = 4.22214 2.86402 3.60757
# Velocity P-wave (km/s) = 6.80913 6.15601 6.49079
#
# Compressibility (1/GPa) = 0.01921112
#
# Stress axis : x y z
#
# Youngs Moduli (GPa) = 75.11605 40.67129 89.44636
#
# Poissons Ratio (x) = 0.41046 0.21682
# Poissons Ratio (y) = 0.75807 0.21631
# Poissons Ratio (z) = 0.18208 0.09836
#
# Static dielectric constant tensor:
#      x y z
#    x 1.879590 0.000000 0.058680 
#    y 0.000000 1.861440 0.000000 
#    z 0.058680 0.000000 1.938620 
# 
# From -- ./inp_files/23327.got.cif
#   From: 2010.05.17/outbox.cif.g08.bks.cpg/sg15_12_cif.got.tgz:23327.got - 2010.06.03 18:47:42.
