data_PCOD9302173
_publ_section_title
;
Structure prediction by ZEFSAII (Michael W. Deem and Ramdas Pophale) SiO2 
 PCOD9302173
Probable space group: C 2/C
;
_chemical_formula_sum "Si O2"
_cell_formula_units_Z 44
_cell_length_a 13.191242
_cell_length_b 16.871005
_cell_length_c 9.736466
_cell_angle_alpha 90.000000
_cell_angle_beta 72.330575
_cell_angle_gamma 90.000000
_cell_volume 2064.621728
_symmetry_space_group_name_H-M "C 2/C"
_symmetry_group_IT_number 15
_symmetry_cell_setting 'monoclinic'
loop_
_space_group_symop_operation_xyz
x,y,z
-x,y,1/2-z
-x,-y,-z
x,-y,1/2+z
1/2+x,1/2+y,z
1/2-x,1/2+y,1/2-z
1/2-x,1/2-y,-z
1/2+x,1/2-y,1/2+z
loop_
_atom_site_type_symbol
_atom_site_label
_atom_site_fract_x
_atom_site_fract_y
_atom_site_fract_z
Si Si1 0.323166 0.260781 0.105032
Si Si2 0.500000 0.941407 0.250000
Si Si3 0.041535 0.206618 0.379931
Si Si4 0.229716 0.902470 0.708359
Si Si5 0.797850 0.487064 0.944970
Si Si6 0.327638 0.849597 0.136143
O O1 0.313381 0.171703 0.172968
O O2 0.267298 0.322801 0.227177
O O3 0.250000 0.250000 0.000000
O O4 0.435974 0.295527 0.013728
O O5 0.418619 0.893034 0.188199
O O6 0.421832 0.990691 0.379975
O O7 0.115654 0.133789 0.300101
O O8 0.118326 0.266986 0.427757
O O9 0.000000 0.239797 0.250000
O O10 0.238375 0.944799 0.556474
O O11 0.258314 0.968864 0.808396
O O12 0.789734 0.405505 0.031276
#
# Coordination Sequence:
#
# PCOD9302173 Si02
#       6
#     8   4   8   8   8   8
#     4  11  21  42  71  96 130 172 229 274 331 394
#     4  12  22  40  68 100 126 172 220 276 352 388
#     4  11  22  40  70  99 127 180 226 267 335 397
#     4  11  26  44  69  99 139 176 225 275 333 399
#     4  12  26  43  64 103 139 175 217 283 338 399
#     4  11  22  40  69  96 129 169 226 281 323 400
#
# _framework density 21.311411
#
# number of rings (size 3 to 8) (size 9 to 14) (size 15 to 20)
#    0.000    0.727    6.364    2.727    2.545    2.909 
#    0.000    6.364    0.000    0.000    0.000    0.000 
#    0.000    0.000    0.000    0.000    0.000    0.000 
#
# Total GULP energy -122837.424250 kJ/mol
# GULP energy per Si atom -5583.519284 kJ/mol
# Density = 2.126291 g / cm^3
# Si number density = 21.311411 Si / 1000 Ang^3
#
#
#
# Elastic Constant Matrix: (Units=GPa)
#
#
# Indices 1 2 3 4 5 6 
#
# 1 58.1483 26.5288 44.8334 0.0000 -44.5359 0.0000
# 2 26.5288 91.2866 48.2626 0.0000 -19.1507 0.0000
# 3 44.8334 48.2626 119.3082 0.0000 -44.9101 0.0000
# 4 0.0000 0.0000 0.0000 23.7686 0.0000 16.2827
# 5 -44.5359 -19.1507 -44.9101 0.0000 55.7498 0.0000
# 6 0.0000 0.0000 0.0000 16.2827 0.0000 21.7024
#
#
#
# Elastic Compliance Matrix: (Units=1/GPa)
#
#
# Indices 1 2 3 4 5 6 
#
# 1 0.048121 -0.005160 -0.003147 0.000000 0.034135 0.000000
# 2 -0.005160 0.014493 -0.005169 0.000000 -0.003307 0.000000
# 3 -0.003147 -0.005169 0.014410 0.000000 0.007319 0.000000
# 4 0.000000 0.000000 0.000000 0.086565 0.000000 -0.064947
# 5 0.034135 -0.003307 0.007319 0.000000 0.049966 0.000000
# 6 0.000000 0.000000 0.000000 -0.064947 0.000000 0.094806
#
#
# Mechanical properties :
#
#
# Convention : Reuss Voigt Hill
#
# Bulk Modulus (GPa) = 19.97051 56.44363 38.20707
# Shear Modulus (GPa) = 14.20447 30.18538 22.19492
#
# Velocity S-wave (km/s) = 2.58450 3.76759 3.23066
# Velocity P-wave (km/s) = 4.27754 6.74307 5.64652
#
# Compressibility (1/GPa) = 0.05007383
#
# Stress axis : x y z
#
# Youngs Moduli (GPa) = 20.78075 68.99975 69.39677
#
# Poissons Ratio (x) = 0.35603 0.21837
# Poissons Ratio (y) = 0.10723 0.35868
# Poissons Ratio (z) = 0.06539 0.35663
#
# Static dielectric constant tensor:
#      x y z
#    x 1.769160 0.000000 -0.008190 
#    y 0.000000 1.850860 0.000000 
#    z -0.008190 0.000000 1.798300 
# 
# From -- ./inp_files/39537.got.cif
#   From: 2010.05.17/outbox.cif.g08.bks.cpg/sg15_20_cif.got.tgz:39537.got - 2010.06.03 18:47:42.
