data_PCOD9302585
_publ_section_title
;
Structure prediction by ZEFSAII (Michael W. Deem and Ramdas Pophale) SiO2 
 PCOD9302585
Probable space group: C 2/C
;
_chemical_formula_sum "Si O2"
_cell_formula_units_Z 36
_cell_length_a 22.094979
_cell_length_b 10.205615
_cell_length_c 11.056421
_cell_angle_alpha 90.000000
_cell_angle_beta 31.156892
_cell_angle_gamma 90.000000
_cell_volume 1289.911021
_symmetry_space_group_name_H-M "C 2/C"
_symmetry_group_IT_number 15
_symmetry_cell_setting 'monoclinic'
loop_
_space_group_symop_operation_xyz
x,y,z
-x,y,1/2-z
-x,-y,-z
x,-y,1/2+z
1/2+x,1/2+y,z
1/2-x,1/2+y,1/2-z
1/2-x,1/2-y,-z
1/2+x,1/2-y,1/2+z
loop_
_atom_site_type_symbol
_atom_site_label
_atom_site_fract_x
_atom_site_fract_y
_atom_site_fract_z
Si Si1 0.265238 0.617140 0.208205
Si Si2 0.422856 0.175237 0.130494
Si Si3 0.859814 0.218046 0.394676
Si Si4 0.866192 0.031329 0.759957
Si Si5 0.000000 0.716045 0.250000
O O1 0.177939 0.580252 0.246998
O O2 0.176585 0.727489 0.415108
O O3 0.287799 0.520153 0.282289
O O4 0.388143 0.691661 0.973824
O O5 0.361491 0.313596 0.269858
O O6 0.472997 0.132536 0.175862
O O7 0.530626 0.212381 0.857534
O O8 0.750000 0.250000 0.500000
O O9 0.864590 0.060436 0.383144
O O10 0.000000 0.000000 0.500000
#
# Coordination Sequence:
#
# PCOD9302585 Si02
#       5
#     8   8   8   8   4
#     4  11  22  38  66  97 131 177 225 276 336 389
#     4  11  22  38  66 100 131 176 224 276 335 397
#     4   9  17  38  62  91 129 171 218 270 322 390
#     4   9  18  39  63  96 126 170 223 278 326 386
#     4  12  22  38  58  88 144 172 214 264 338 394
#
# _framework density 27.908902000000001
#
# number of rings (size 3 to 8) (size 9 to 14) (size 15 to 20)
#    0.000    1.778    6.667    1.333    0.000    1.778 
#    0.000    0.000    9.778    2.667    0.000    0.000 
#    0.000    0.000    0.000    0.000    0.000    0.000 
#
# Total GULP energy -100678.028086 kJ/mol
# GULP energy per Si atom -5593.223783 kJ/mol
# Density = 2.784538 g / cm^3
# Si number density = 27.908902 Si / 1000 Ang^3
#
#
#
# Elastic Constant Matrix: (Units=GPa)
#
#
# Indices 1 2 3 4 5 6 
#
# 1 170.9889 -1.9592 26.8067 0.0000 -29.9766 0.0000
# 2 -1.9592 58.5085 21.7307 0.0000 -10.7836 0.0000
# 3 26.8067 21.7307 176.9476 0.0000 -22.1240 0.0000
# 4 0.0000 0.0000 0.0000 35.2445 0.0000 -12.7113
# 5 -29.9766 -10.7836 -22.1240 0.0000 51.5685 0.0000
# 6 0.0000 0.0000 0.0000 -12.7113 0.0000 33.1880
#
#
#
# Elastic Compliance Matrix: (Units=1/GPa)
#
#
# Indices 1 2 3 4 5 6 
#
# 1 0.006636 0.001175 -0.000673 0.000000 0.003815 0.000000
# 2 0.001175 0.018555 -0.001993 0.000000 0.003708 0.000000
# 3 -0.000673 -0.001993 0.006231 0.000000 0.001866 0.000000
# 4 0.000000 0.000000 0.000000 0.032921 0.000000 0.012609
# 5 0.003815 0.003708 0.001866 0.000000 0.023185 0.000000
# 6 0.000000 0.000000 0.000000 0.012609 0.000000 0.034961
#
#
# Mechanical properties :
#
#
# Convention : Reuss Voigt Hill
#
# Bulk Modulus (GPa) = 35.16098 55.51127 45.33613
# Shear Modulus (GPa) = 37.05083 47.99132 42.52107
#
# Velocity S-wave (km/s) = 3.64753 4.15127 3.90752
# Velocity P-wave (km/s) = 5.51045 6.55063 6.05293
#
# Compressibility (1/GPa) = 0.02844062
#
# Stress axis : x y z
#
# Youngs Moduli (GPa) = 150.69284 53.89518 160.47961
#
# Poissons Ratio (x) = -0.06333 0.10795
# Poissons Ratio (y) = -0.17708 0.31985
# Poissons Ratio (z) = 0.10137 0.10742
#
# Static dielectric constant tensor:
#      x y z
#    x 2.404030 0.000000 0.223260 
#    y 0.000000 2.256260 0.000000 
#    z 0.223260 0.000000 2.414280 
# 
# From -- ./inp_files/117848.got.cif
#   From: 2010.05.17/outbox.cif.g08.bks.cpg/sg15_59_cif.got.tgz:117848.got - 2010.06.03 18:47:42.
