data_PCOD9302460
_publ_section_title
;
Structure prediction by ZEFSAII (Michael W. Deem and Ramdas Pophale) SiO2 
 PCOD9302460
Probable space group: C 2/C
;
_chemical_formula_sum "Si O2"
_cell_formula_units_Z 64
_cell_length_a 19.399373
_cell_length_b 14.127935
_cell_length_c 15.130364
_cell_angle_alpha 90.000000
_cell_angle_beta 43.934916
_cell_angle_gamma 90.000000
_cell_volume 2877.236716
_symmetry_space_group_name_H-M "C 2/C"
_symmetry_group_IT_number 15
_symmetry_cell_setting 'monoclinic'
loop_
_space_group_symop_operation_xyz
x,y,z
-x,y,1/2-z
-x,-y,-z
x,-y,1/2+z
1/2+x,1/2+y,z
1/2-x,1/2+y,1/2-z
1/2-x,1/2-y,-z
1/2+x,1/2-y,1/2+z
loop_
_atom_site_type_symbol
_atom_site_label
_atom_site_fract_x
_atom_site_fract_y
_atom_site_fract_z
Si Si1 0.802099 0.582122 0.707285
Si Si2 0.701147 0.639519 0.494576
Si Si3 0.515230 0.410845 0.920005
Si Si4 0.525946 0.203650 0.990503
Si Si5 0.679244 0.558968 0.994455
Si Si6 0.774090 0.079469 0.351715
Si Si7 0.396825 0.825742 0.887682
Si Si8 0.206589 0.718558 0.271917
O O1 0.912905 0.625077 0.621456
O O2 0.757233 0.549513 0.842300
O O3 0.788528 0.500218 0.645670
O O4 0.731333 0.670540 0.745542
O O5 0.636717 0.546814 0.547714
O O6 0.643317 0.720945 0.601028
O O7 0.802053 0.611995 0.452843
O O8 0.740631 0.672596 0.362295
O O9 0.539492 0.311602 0.946509
O O10 0.609936 0.439355 0.774745
O O11 0.500000 0.500000 0.000000
O O12 0.416908 0.387043 0.953560
O O13 0.581218 0.186222 0.031081
O O14 0.409579 0.193432 0.117367
O O15 0.730163 0.590249 0.038651
O O16 0.748482 0.176245 0.324315
O O17 0.500000 0.853891 0.750000
#
# Coordination Sequence:
#
# PCOD9302460 Si02
#       8
#     8   8   8   8   8   8   8   8
#     4  12  25  47  71 100 142 183 232 296 350 418
#     4  11  23  42  65 103 143 179 224 296 356 411
#     4  12  22  45  72 101 141 178 232 287 355 416
#     4  12  24  42  70  99 133 192 230 284 352 413
#     4  12  26  44  70 104 138 183 235 292 346 421
#     4  12  26  46  71 105 140 186 234 293 356 420
#     4  11  22  36  66 106 139 179 229 285 355 431
#     4  12  23  46  71  96 139 186 230 287 354 419
#
# _framework density 22.243565
#
# number of rings (size 3 to 8) (size 9 to 14) (size 15 to 20)
#    0.000    0.250    7.500    1.875    1.750    3.000 
#    0.000    0.625    0.000    0.000    0.000    0.000 
#    0.000    0.000    0.000    0.000    0.000    0.000 
#
# Total GULP energy -178653.785513 kJ/mol
# GULP energy per Si atom -5582.930797 kJ/mol
# Density = 2.219294 g / cm^3
# Si number density = 22.243565 Si / 1000 Ang^3
#
#
#
# Elastic Constant Matrix: (Units=GPa)
#
#
# Indices 1 2 3 4 5 6 
#
# 1 102.1434 1.7859 22.6169 0.0000 16.7226 0.0000
# 2 1.7859 46.1853 -10.4275 0.0000 13.3687 0.0000
# 3 22.6169 -10.4275 47.7118 0.0000 -1.9083 0.0000
# 4 0.0000 0.0000 0.0000 25.0126 0.0000 -3.3824
# 5 16.7226 13.3687 -1.9083 0.0000 51.2520 0.0000
# 6 0.0000 0.0000 0.0000 -3.3824 0.0000 31.5366
#
#
#
# Elastic Compliance Matrix: (Units=1/GPa)
#
#
# Indices 1 2 3 4 5 6 
#
# 1 0.011734 -0.000655 -0.005860 0.000000 -0.003876 0.000000
# 2 -0.000655 0.024650 0.005457 0.000000 -0.006013 0.000000
# 3 -0.005860 0.005457 0.024987 0.000000 0.001419 0.000000
# 4 0.000000 0.000000 0.000000 0.040568 0.000000 0.004351
# 5 -0.003876 -0.006013 0.001419 0.000000 0.022397 0.000000
# 6 0.000000 0.000000 0.000000 0.004351 0.000000 0.032176
#
#
# Mechanical properties :
#
#
# Convention : Reuss Voigt Hill
#
# Bulk Modulus (GPa) = 16.87647 24.88791 20.88219
# Shear Modulus (GPa) = 28.03021 33.69793 30.86407
#
# Velocity S-wave (km/s) = 3.55371 3.89646 3.72902
# Velocity P-wave (km/s) = 4.94389 5.60859 5.28670
#
# Compressibility (1/GPa) = 0.05925409
#
# Stress axis : x y z
#
# Youngs Moduli (GPa) = 85.22411 40.56829 40.02146
#
# Poissons Ratio (x) = 0.02657 0.23454
# Poissons Ratio (y) = 0.05582 -0.21841
# Poissons Ratio (z) = 0.49944 -0.22139
#
# Static dielectric constant tensor:
#      x y z
#    x 1.858830 0.000000 0.013740 
#    y 0.000000 1.845940 0.000000 
#    z 0.013740 0.000000 1.919890 
# 
# From -- ./inp_files/162549.got.cif
#   From: 2010.05.17/outbox.cif.g08.bks.cpg/sg15_82_cif.got.tgz:162549.got - 2010.06.03 18:47:42.
