data_PCOD9302574
_publ_section_title
;
Structure prediction by ZEFSAII (Michael W. Deem and Ramdas Pophale) SiO2 
 PCOD9302574
Probable space group: C 2/C
;
_chemical_formula_sum "Si O2"
_cell_formula_units_Z 64
_cell_length_a 19.786715
_cell_length_b 11.864524
_cell_length_c 18.933985
_cell_angle_alpha 90.000000
_cell_angle_beta 141.179097
_cell_angle_gamma 90.000000
_cell_volume 2786.480877
_symmetry_space_group_name_H-M "C 2/C"
_symmetry_group_IT_number 15
_symmetry_cell_setting 'monoclinic'
loop_
_space_group_symop_operation_xyz
x,y,z
-x,y,1/2-z
-x,-y,-z
x,-y,1/2+z
1/2+x,1/2+y,z
1/2-x,1/2+y,1/2-z
1/2-x,1/2-y,-z
1/2+x,1/2-y,1/2+z
loop_
_atom_site_type_symbol
_atom_site_label
_atom_site_fract_x
_atom_site_fract_y
_atom_site_fract_z
Si Si1 0.186139 0.308252 0.534966
Si Si2 0.655661 0.539003 0.645565
Si Si3 0.440202 0.231659 0.421590
Si Si4 0.456041 0.929276 0.822928
Si Si5 0.400232 0.368192 0.778424
Si Si6 0.607198 0.860878 0.146475
Si Si7 0.845700 0.488820 0.587169
Si Si8 0.135332 0.050567 0.466490
O O1 0.129776 0.307340 0.566879
O O2 0.306419 0.354612 0.645369
O O3 0.133605 0.391030 0.434696
O O4 0.183668 0.178352 0.509799
O O5 0.565691 0.634581 0.584711
O O6 0.644199 0.438803 0.691141
O O7 0.767959 0.605593 0.749657
O O8 0.645111 0.507294 0.555144
O O9 0.403279 0.177256 0.318339
O O10 0.559139 0.184567 0.534528
O O11 0.452719 0.026096 0.879029
O O12 0.389870 0.979014 0.702848
O O13 0.576581 0.906669 0.893346
O O14 0.419220 0.241014 0.821290
O O15 0.510986 0.428295 0.846006
O O16 0.717071 0.476226 0.487023
#
# Coordination Sequence:
#
# PCOD9302574 Si02
#       8
#     8   8   8   8   8   8   8   8
#     4  11  22  38  64  96 132 172 218 271 337 398
#     4  11  24  39  65 100 132 172 214 275 339 391
#     4  11  23  41  65  98 131 171 226 274 325 391
#     4  11  23  40  65  95 135 169 219 274 329 396
#     4  12  23  40  63  98 135 166 220 275 331 391
#     4  12  21  37  66  98 128 170 214 278 334 384
#     4  11  23  38  62  96 128 174 213 267 338 395
#     4  11  22  39  61  94 138 170 213 264 339 405
#
# _framework density 22.968038
#
# number of rings (size 3 to 8) (size 9 to 14) (size 15 to 20)
#    0.000    0.750    7.500    1.875    1.750    1.500 
#    0.000    0.000    0.000    4.500    0.000    0.000 
#    0.000    0.000    0.000    0.000    0.000    0.000 
#
# Total GULP energy -178818.182241 kJ/mol
# GULP energy per Si atom -5588.068195 kJ/mol
# Density = 2.291576 g / cm^3
# Si number density = 22.968038 Si / 1000 Ang^3
#
#
#
# Elastic Constant Matrix: (Units=GPa)
#
#
# Indices 1 2 3 4 5 6 
#
# 1 98.9824 25.7790 30.3398 0.0000 8.0867 0.0000
# 2 25.7790 21.3763 -7.6105 0.0000 -10.3396 0.0000
# 3 30.3398 -7.6105 98.8503 0.0000 10.2159 0.0000
# 4 0.0000 0.0000 0.0000 22.0088 0.0000 -6.3302
# 5 8.0867 -10.3396 10.2159 0.0000 48.3653 0.0000
# 6 0.0000 0.0000 0.0000 -6.3302 0.0000 26.6107
#
#
#
# Elastic Compliance Matrix: (Units=1/GPa)
#
#
# Indices 1 2 3 4 5 6 
#
# 1 0.022619 -0.034916 -0.008657 0.000000 -0.009418 0.000000
# 2 -0.034916 0.106915 0.016339 0.000000 0.025243 0.000000
# 3 -0.008657 0.016339 0.013823 0.000000 0.002021 0.000000
# 4 0.000000 0.000000 0.000000 0.048773 0.000000 0.011602
# 5 -0.009418 0.025243 0.002021 0.000000 0.027220 0.000000
# 6 0.000000 0.000000 0.000000 0.011602 0.000000 0.040339
#
#
# Mechanical properties :
#
#
# Convention : Reuss Voigt Hill
#
# Bulk Modulus (GPa) = 11.24995 35.13617 23.19306
# Shear Modulus (GPa) = 14.54391 30.77701 22.66046
#
# Velocity S-wave (km/s) = 2.51912 3.66456 3.14444
# Velocity P-wave (km/s) = 3.65651 5.76510 4.82734
#
# Compressibility (1/GPa) = 0.08888928
#
# Stress axis : x y z
#
# Youngs Moduli (GPa) = 44.21012 9.35324 72.34532
#
# Poissons Ratio (x) = 0.32657 0.62632
# Poissons Ratio (y) = 1.54362 -1.18206
# Poissons Ratio (z) = 0.38274 -0.15282
#
# Static dielectric constant tensor:
#      x y z
#    x 1.925310 0.000000 0.045430 
#    y 0.000000 1.823350 0.000000 
#    z 0.045430 0.000000 1.944130 
# 
# From -- ./inp_files/252600.got.cif
#   From: 2010.05.17/outbox.cif.g08.bks.cpg/sg15_127_cif.got.tgz:252600.got - 2010.06.03 18:47:42.
