data_PCOD9302023
_publ_section_title
;
Structure prediction by ZEFSAII (Michael W. Deem and Ramdas Pophale) SiO2 
 PCOD9302023
Probable space group: C 2/C
;
_chemical_formula_sum "Si O2"
_cell_formula_units_Z 48
_cell_length_a 11.942400
_cell_length_b 8.315699
_cell_length_c 23.945396
_cell_angle_alpha 90.000000
_cell_angle_beta 59.601025
_cell_angle_gamma 90.000000
_cell_volume 2051.081619
_symmetry_space_group_name_H-M "C 2/C"
_symmetry_group_IT_number 15
_symmetry_cell_setting 'monoclinic'
loop_
_space_group_symop_operation_xyz
x,y,z
-x,y,1/2-z
-x,-y,-z
x,-y,1/2+z
1/2+x,1/2+y,z
1/2-x,1/2+y,1/2-z
1/2-x,1/2-y,-z
1/2+x,1/2-y,1/2+z
loop_
_atom_site_type_symbol
_atom_site_label
_atom_site_fract_x
_atom_site_fract_y
_atom_site_fract_z
Si Si1 0.637119 0.651712 0.078546
Si Si2 0.371988 0.828831 0.597797
Si Si3 0.252126 0.226098 0.758314
Si Si4 0.138031 0.142348 0.501622
Si Si5 0.941083 0.970838 0.711880
Si Si6 0.879570 0.299122 0.107679
O O1 0.754558 0.719005 0.085733
O O2 0.661849 0.536067 0.019591
O O3 0.555346 0.534632 0.139653
O O4 0.528504 0.780618 0.089903
O O5 0.339451 0.814232 0.672364
O O6 0.499448 0.723966 0.552982
O O7 0.375600 0.020430 0.585363
O O8 0.189167 0.049980 0.779140
O O9 0.391133 0.294303 0.742363
O O10 0.280036 0.228508 0.684060
O O11 0.250000 0.250000 0.500000
O O12 0.145042 0.165971 0.433314
O O13 0.000000 0.060126 0.750000
#
# Coordination Sequence:
#
# PCOD9302023 Si02
#       6
#     8   8   8   8   8   8
#     4  11  24  44  71  97 139 183 224 283 340 408
#     4  12  24  47  70  99 138 182 229 285 344 407
#     4  11  22  40  71  99 134 176 227 278 337 406
#     4  12  26  47  73  99 137 187 228 289 349 405
#     4  11  21  41  67  95 136 177 222 279 339 393
#     4  11  25  44  69 106 139 176 234 278 341 415
#
# _framework density 23.402287000000001
#
# number of rings (size 3 to 8) (size 9 to 14) (size 15 to 20)
#    0.000    0.667    6.667    1.000    0.000    0.667 
#    3.000    2.500    3.667    0.000    0.000    0.000 
#    0.000    0.000    0.000    0.000    0.000    0.000 
#
# Total GULP energy -133681.597554 kJ/mol
# GULP energy per Si atom -5570.066565 kJ/mol
# Density = 2.334902 g / cm^3
# Si number density = 23.402287 Si / 1000 Ang^3
#
#
#
# Elastic Constant Matrix: (Units=GPa)
#
#
# Indices 1 2 3 4 5 6 
#
# 1 128.8162 8.7642 14.4264 0.0000 -11.0084 0.0000
# 2 8.7642 23.4799 10.9031 0.0000 -6.1466 0.0000
# 3 14.4264 10.9031 129.6264 0.0000 -19.9536 0.0000
# 4 0.0000 0.0000 0.0000 32.5337 0.0000 -9.0707
# 5 -11.0084 -6.1466 -19.9536 0.0000 14.5014 0.0000
# 6 0.0000 0.0000 0.0000 -9.0707 0.0000 23.4739
#
#
#
# Elastic Compliance Matrix: (Units=1/GPa)
#
#
# Indices 1 2 3 4 5 6 
#
# 1 0.008358 -0.001653 0.000099 0.000000 0.005780 0.000000
# 2 -0.001653 0.048366 -0.001169 0.000000 0.017637 0.000000
# 3 0.000099 -0.001169 0.009816 0.000000 0.013086 0.000000
# 4 0.000000 0.000000 0.000000 0.034449 0.000000 0.013312
# 5 0.005780 0.017637 0.013086 0.000000 0.098829 0.000000
# 6 0.000000 0.000000 0.000000 0.013312 0.000000 0.047744
#
#
# Mechanical properties :
#
#
# Convention : Reuss Voigt Hill
#
# Bulk Modulus (GPa) = 16.36811 38.90110 27.63461
# Shear Modulus (GPa) = 18.28993 30.62371 24.45682
#
# Velocity S-wave (km/s) = 2.79864 3.62135 3.23625
# Velocity P-wave (km/s) = 4.17764 5.84332 5.07923
#
# Compressibility (1/GPa) = 0.06109441
#
# Stress axis : x y z
#
# Youngs Moduli (GPa) = 119.64071 20.67549 101.87200
#
# Poissons Ratio (x) = 0.03417 -0.01004
# Poissons Ratio (y) = 0.19771 0.11912
# Poissons Ratio (z) = -0.01179 0.02418
#
# Static dielectric constant tensor:
#      x y z
#    x 1.835400 0.000000 0.027820 
#    y 0.000000 1.954320 0.000000 
#    z 0.027820 0.000000 1.956170 
# 
# From -- ./inp_files/268018.got.cif
#   From: 2010.05.17/outbox.cif.g08.bks.cpg/sg15_135_cif.got.tgz:268018.got - 2010.06.03 18:47:42.
