data_PCOD9302944
_publ_section_title
;
Structure prediction by ZEFSAII (Michael W. Deem and Ramdas Pophale) SiO2 
 PCOD9302944
Probable space group: C 2/C
;
_chemical_formula_sum "Si O2"
_cell_formula_units_Z 48
_cell_length_a 22.031203
_cell_length_b 21.081732
_cell_length_c 14.169509
_cell_angle_alpha 90.000000
_cell_angle_beta 22.179115
_cell_angle_gamma 90.000000
_cell_volume 2484.391419
_symmetry_space_group_name_H-M "C 2/C"
_symmetry_group_IT_number 15
_symmetry_cell_setting 'monoclinic'
loop_
_space_group_symop_operation_xyz
x,y,z
-x,y,1/2-z
-x,-y,-z
x,-y,1/2+z
1/2+x,1/2+y,z
1/2-x,1/2+y,1/2-z
1/2-x,1/2-y,-z
1/2+x,1/2-y,1/2+z
loop_
_atom_site_type_symbol
_atom_site_label
_atom_site_fract_x
_atom_site_fract_y
_atom_site_fract_z
Si Si1 0.963671 0.434225 0.493713
Si Si2 0.043691 0.806219 0.298733
Si Si3 0.000000 0.433492 0.750000
Si Si4 0.405282 0.840158 0.743153
Si Si5 0.500000 0.481253 0.250000
Si Si6 0.136733 0.916767 0.868953
Si Si7 0.751625 0.033650 0.475637
O O1 0.908319 0.377435 0.640866
O O2 0.814870 0.440253 0.637634
O O3 0.000000 0.500000 0.500000
O O4 0.115135 0.418867 0.209476
O O5 0.049633 0.733362 0.322589
O O6 0.000000 0.807246 0.250000
O O7 0.913056 0.843801 0.548601
O O8 0.222322 0.837817 0.047932
O O9 0.029751 0.383089 0.623730
O O10 0.145767 0.475994 0.582150
O O11 0.463067 0.443709 0.398877
O O12 0.344161 0.517738 0.439118
O O13 0.121652 0.941437 0.784045
#
# Coordination Sequence:
#
# PCOD9302944 Si02
#       7
#     8   8   4   8   4   8   8
#     4  12  20  40  64  92 129 168 212 264 329 383
#     4  11  22  41  63  93 127 169 218 273 311 375
#     4  12  20  37  62  96 121 160 210 268 314 378
#     4  11  23  38  65  95 127 165 220 266 321 377
#     4  12  24  39  60  92 131 170 206 268 330 378
#     4  12  21  41  63  90 129 170 216 260 323 390
#     4  12  25  39  62  97 130 167 210 264 330 394
#
# _framework density 19.320627000000002
#
# number of rings (size 3 to 8) (size 9 to 14) (size 15 to 20)
#    0.000    0.333    8.333    1.500    0.000    0.000 
#    0.000    0.833    0.000    0.000    0.000    0.000 
#    0.000    0.000    0.000    0.000    0.000    0.000 
#
# Total GULP energy -133623.118897 kJ/mol
# GULP energy per Si atom -5567.629954 kJ/mol
# Density = 1.927665 g / cm^3
# Si number density = 19.320627 Si / 1000 Ang^3
#
#
#
# Elastic Constant Matrix: (Units=GPa)
#
#
# Indices 1 2 3 4 5 6 
#
# 1 66.2950 33.9355 -0.0298 -0.0057 -0.7550 0.0043
# 2 33.9355 105.5620 32.4214 -0.0010 5.3954 0.0012
# 3 -0.0298 32.4214 67.8525 -0.0015 5.3336 0.0053
# 4 -0.0057 -0.0010 -0.0015 14.5942 0.0035 -2.3102
# 5 -0.7550 5.3954 5.3336 0.0035 40.2846 -0.0046
# 6 0.0043 0.0012 0.0053 -2.3102 -0.0046 21.2924
#
#
#
# Elastic Compliance Matrix: (Units=1/GPa)
#
#
# Indices 1 2 3 4 5 6 
#
# 1 0.018721 -0.007084 0.003325 0.000007 0.000859 -0.000003
# 2 -0.007084 0.013808 -0.006513 -0.000002 -0.001120 0.000002
# 3 0.003325 -0.006513 0.017965 0.000002 -0.001444 -0.000005
# 4 0.000007 -0.000002 0.000002 0.069718 -0.000005 0.007564
# 5 0.000859 -0.001120 -0.001444 -0.000005 0.025181 0.000005
# 6 -0.000003 0.000002 -0.000005 0.007564 0.000005 0.047786
#
#
# Mechanical properties :
#
#
# Convention : Reuss Voigt Hill
#
# Bulk Modulus (GPa) = 33.38686 41.37375 37.38031
# Shear Modulus (GPa) = 22.35091 26.79307 24.57199
#
# Velocity S-wave (km/s) = 3.40493 3.72796 3.57010
# Velocity P-wave (km/s) = 5.72503 6.32385 6.03188
#
# Compressibility (1/GPa) = 0.02995190
#
# Stress axis : x y z
#
# Youngs Moduli (GPa) = 53.41467 72.42244 55.66452
#
# Poissons Ratio (x) = 0.51302 -0.18511
# Poissons Ratio (y) = 0.37838 0.36253
# Poissons Ratio (z) = -0.17763 0.47167
#
# Static dielectric constant tensor:
#      x y z
#    x 1.783760 0.000000 0.027300 
#    y 0.000000 1.712570 0.000000 
#    z 0.027300 0.000000 1.782520 
# 
# From -- ./inp_files/146873.got.cif
#   From: 2010.05.17/outbox.cif.g08.bks.cpg/sg15_74_cif.got.tgz:146873.got - 2010.06.03 18:47:42.
