data_PCOD9302858
_publ_section_title
;
Structure prediction by ZEFSAII (Michael W. Deem and Ramdas Pophale) SiO2 
 PCOD9302858
Probable space group: C 2/C
;
_chemical_formula_sum "Si O2"
_cell_formula_units_Z 56
_cell_length_a 25.889648
_cell_length_b 16.298029
_cell_length_c 8.415211
_cell_angle_alpha 90.000000
_cell_angle_beta 136.002710
_cell_angle_gamma 90.000000
_cell_volume 2466.472301
_symmetry_space_group_name_H-M "C 2/C"
_symmetry_group_IT_number 15
_symmetry_cell_setting 'monoclinic'
loop_
_space_group_symop_operation_xyz
x,y,z
-x,y,1/2-z
-x,-y,-z
x,-y,1/2+z
1/2+x,1/2+y,z
1/2-x,1/2+y,1/2-z
1/2-x,1/2-y,-z
1/2+x,1/2-y,1/2+z
loop_
_atom_site_type_symbol
_atom_site_label
_atom_site_fract_x
_atom_site_fract_y
_atom_site_fract_z
Si Si1 0.553109 0.043470 0.743915
Si Si2 0.667128 0.821542 0.388655
Si Si3 0.671046 0.913266 0.078629
Si Si4 0.186059 0.879355 0.598363
Si Si5 0.913020 0.189194 0.103186
Si Si6 0.163507 0.733737 0.354425
Si Si7 0.676760 0.462722 0.228876
O O1 0.500000 0.087441 0.750000
O O2 0.606204 0.109669 0.787078
O O3 0.500000 0.000000 0.500000
O O4 0.604320 0.976943 0.949482
O O5 0.690192 0.848761 0.261020
O O6 0.737864 0.841973 0.658186
O O7 0.625581 0.734086 0.328250
O O8 0.743997 0.961197 0.184918
O O9 0.651308 0.856738 0.886382
O O10 0.141746 0.799203 0.442032
O O11 0.189063 0.929847 0.435630
O O12 0.152046 0.943265 0.649864
O O13 0.000000 0.181878 0.250000
O O14 0.882519 0.249904 0.901891
O O15 0.875274 0.101616 0.979139
O O16 0.250000 0.750000 0.500000
#
# Coordination Sequence:
#
# PCOD9302858 Si02
#       7
#     8   8   8   8   8   8   8
#     4  12  27  41  57  96 143 176 206 260 332 402
#     4  12  24  39  66 100 128 172 220 267 328 393
#     4  12  24  39  65  95 136 170 220 269 318 401
#     4  11  22  40  67  94 126 167 216 277 320 378
#     4  11  25  45  68  93 132 180 219 271 336 392
#     4  11  22  44  64  94 133 169 216 268 332 388
#     4  11  23  42  65  97 128 169 223 270 327 387
#
# _framework density 22.704492999999999
#
# number of rings (size 3 to 8) (size 9 to 14) (size 15 to 20)
#    0.000    0.571    7.143    1.286    6.000    3.429 
#    0.000    2.857    0.000    0.857    0.000    0.000 
#    0.000    0.000    0.000    0.000    0.000    0.000 
#
# Total GULP energy -156292.030810 kJ/mol
# GULP energy per Si atom -5581.858243 kJ/mol
# Density = 2.265282 g / cm^3
# Si number density = 22.704493 Si / 1000 Ang^3
#
#
#
# Elastic Constant Matrix: (Units=GPa)
#
#
# Indices 1 2 3 4 5 6 
#
# 1 28.5384 -7.8930 6.4832 0.0000 6.0753 0.0000
# 2 -7.8930 88.7817 -2.9524 0.0000 4.7404 0.0000
# 3 6.4832 -2.9524 67.7640 0.0000 6.1306 0.0000
# 4 0.0000 0.0000 0.0000 36.1640 0.0000 -10.7145
# 5 6.0753 4.7404 6.1306 0.0000 23.6724 0.0000
# 6 0.0000 0.0000 0.0000 -10.7145 0.0000 35.8455
#
#
#
# Elastic Compliance Matrix: (Units=1/GPa)
#
#
# Indices 1 2 3 4 5 6 
#
# 1 0.038864 0.003905 -0.002637 0.000000 -0.010073 0.000000
# 2 0.003905 0.011812 0.000456 0.000000 -0.003486 0.000000
# 3 -0.002637 0.000456 0.015336 0.000000 -0.003386 0.000000
# 4 0.000000 0.000000 0.000000 0.030339 0.000000 0.009068
# 5 -0.010073 -0.003486 -0.003386 0.000000 0.046404 0.000000
# 6 0.000000 0.000000 0.000000 0.009068 0.000000 0.030608
#
#
# Mechanical properties :
#
#
# Convention : Reuss Voigt Hill
#
# Bulk Modulus (GPa) = 14.39648 19.59554 16.99601
# Shear Modulus (GPa) = 25.89788 31.76613 28.83201
#
# Velocity S-wave (km/s) = 3.38102 3.74453 3.56740
# Velocity P-wave (km/s) = 4.64718 5.22922 4.94677
#
# Compressibility (1/GPa) = 0.06946142
#
# Stress axis : x y z
#
# Youngs Moduli (GPa) = 25.73076 84.65920 65.20770
#
# Poissons Ratio (x) = -0.33062 0.17194
# Poissons Ratio (y) = -0.10049 -0.02976
# Poissons Ratio (z) = 0.06785 -0.03864
#
# Static dielectric constant tensor:
#      x y z
#    x 1.984680 0.000000 -0.050910 
#    y 0.000000 1.597200 0.000000 
#    z -0.050910 0.000000 1.910090 
# 
# From -- ./inp_files/67168.got.cif
#   From: 2010.05.17/outbox.cif.g08.bks.cpg/sg15_34_cif.got.tgz:67168.got - 2010.06.03 18:47:42.
