data_PCOD9302710
_publ_section_title
;
Structure prediction by ZEFSAII (Michael W. Deem and Ramdas Pophale) SiO2 
 PCOD9302710
Probable space group: C 2/C
;
_chemical_formula_sum "Si O2"
_cell_formula_units_Z 60
_cell_length_a 19.222107
_cell_length_b 12.285503
_cell_length_c 19.092280
_cell_angle_alpha 90.000000
_cell_angle_beta 39.049737
_cell_angle_gamma 90.000000
_cell_volume 2840.459980
_symmetry_space_group_name_H-M "C 2/C"
_symmetry_group_IT_number 15
_symmetry_cell_setting 'monoclinic'
loop_
_space_group_symop_operation_xyz
x,y,z
-x,y,1/2-z
-x,-y,-z
x,-y,1/2+z
1/2+x,1/2+y,z
1/2-x,1/2+y,1/2-z
1/2-x,1/2-y,-z
1/2+x,1/2-y,1/2+z
loop_
_atom_site_type_symbol
_atom_site_label
_atom_site_fract_x
_atom_site_fract_y
_atom_site_fract_z
Si Si1 0.631836 0.175633 0.535414
Si Si2 0.908015 0.142125 0.547761
Si Si3 0.965477 0.462723 0.947283
Si Si4 0.240342 0.830018 0.074676
Si Si5 0.340923 0.456689 0.828682
Si Si6 0.149137 0.708037 0.279527
Si Si7 0.500000 0.291382 0.750000
Si Si8 0.656524 0.560039 0.330516
O O1 0.629260 0.275358 0.483052
O O2 0.748709 0.117592 0.437012
O O3 0.590671 0.218811 0.641471
O O4 0.549927 0.078963 0.577034
O O5 0.904403 0.208293 0.623595
O O6 0.031523 0.101763 0.435464
O O7 0.833077 0.035773 0.620240
O O8 0.064846 0.391660 0.839511
O O9 0.854514 0.388668 0.015440
O O10 0.000000 0.500000 0.000000
O O11 0.183585 0.761318 0.180244
O O12 0.158510 0.933264 0.126969
O O13 0.250000 0.750000 0.000000
O O14 0.444708 0.377286 0.740789
O O15 0.315472 0.486548 0.768222
O O16 0.261162 0.659366 0.223849
#
# Coordination Sequence:
#
# PCOD9302710 Si02
#       8
#     8   8   8   8   8   8   4   8
#     4  11  24  43  66  96 134 171 223 285 341 415
#     4  11  22  39  66  98 129 168 223 288 348 402
#     4  11  24  44  72 102 131 174 236 282 333 414
#     4  11  27  46  66  99 143 180 225 283 352 427
#     4  11  23  44  65  93 133 178 229 275 347 423
#     4  12  23  40  72  97 130 178 223 286 350 407
#     4  12  26  40  66  94 132 180 216 276 352 416
#     4  11  23  39  66 102 131 165 231 291 342 413
#
# _framework density 21.123339999999999
#
# number of rings (size 3 to 8) (size 9 to 14) (size 15 to 20)
#    0.000    0.800    5.333    2.000    0.000    5.867 
#    0.000    0.000    0.000    0.000    0.000    0.000 
#    0.000    0.000    0.000    0.000    0.000    0.000 
#
# Total GULP energy -167331.224853 kJ/mol
# GULP energy per Si atom -5577.707495 kJ/mol
# Density = 2.107526 g / cm^3
# Si number density = 21.123340 Si / 1000 Ang^3
#
#
#
# Elastic Constant Matrix: (Units=GPa)
#
#
# Indices 1 2 3 4 5 6 
#
# 1 32.1474 23.6245 23.1508 0.0000 9.4650 0.0000
# 2 23.6245 122.6046 54.4945 0.0000 18.7435 0.0000
# 3 23.1508 54.4945 128.6478 0.0000 19.0503 0.0000
# 4 0.0000 0.0000 0.0000 32.4357 0.0000 4.4815
# 5 9.4650 18.7435 19.0503 0.0000 27.5131 0.0000
# 6 0.0000 0.0000 0.0000 4.4815 0.0000 29.6393
#
#
#
# Elastic Compliance Matrix: (Units=1/GPa)
#
#
# Indices 1 2 3 4 5 6 
#
# 1 0.039711 -0.004690 -0.004022 0.000000 -0.007681 0.000000
# 2 -0.004690 0.011091 -0.003314 0.000000 -0.003648 0.000000
# 3 -0.004022 -0.003314 0.010431 0.000000 -0.003581 0.000000
# 4 0.000000 0.000000 0.000000 0.031488 0.000000 -0.004761
# 5 -0.007681 -0.003648 -0.003581 0.000000 0.043954 0.000000
# 6 0.000000 0.000000 0.000000 -0.004761 0.000000 0.034459
#
#
# Mechanical properties :
#
#
# Convention : Reuss Voigt Hill
#
# Bulk Modulus (GPa) = 26.89530 53.99324 40.44427
# Shear Modulus (GPa) = 24.08725 30.05961 27.07343
#
# Velocity S-wave (km/s) = 3.38052 3.77643 3.58394
# Velocity P-wave (km/s) = 5.29125 6.68069 6.02615
#
# Compressibility (1/GPa) = 0.03718122
#
# Stress axis : x y z
#
# Youngs Moduli (GPa) = 25.18174 90.16721 95.86826
#
# Poissons Ratio (x) = 0.42287 0.38560
# Poissons Ratio (y) = 0.11810 0.31769
# Poissons Ratio (z) = 0.10129 0.29879
#
# Static dielectric constant tensor:
#      x y z
#    x 1.941370 0.000000 0.056260 
#    y 0.000000 1.761850 0.000000 
#    z 0.056260 0.000000 1.800690 
# 
# From -- ./inp_files/215167.got.cif
#   From: 2010.05.17/outbox.cif.g08.bks.cpg/sg15_108_cif.got.tgz:215167.got - 2010.06.03 18:47:42.
