data_PCOD9302597
_publ_section_title
;
Structure prediction by ZEFSAII (Michael W. Deem and Ramdas Pophale) SiO2 
 PCOD9302597
Probable space group: C 2/C
;
_chemical_formula_sum "Si O2"
_cell_formula_units_Z 32
_cell_length_a 18.517504
_cell_length_b 4.866118
_cell_length_c 29.745595
_cell_angle_alpha 90.000000
_cell_angle_beta 147.356471
_cell_angle_gamma 90.000000
_cell_volume 1445.796834
_symmetry_space_group_name_H-M "C 2/C"
_symmetry_group_IT_number 15
_symmetry_cell_setting 'monoclinic'
loop_
_space_group_symop_operation_xyz
x,y,z
-x,y,1/2-z
-x,-y,-z
x,-y,1/2+z
1/2+x,1/2+y,z
1/2-x,1/2+y,1/2-z
1/2-x,1/2-y,-z
1/2+x,1/2-y,1/2+z
loop_
_atom_site_type_symbol
_atom_site_label
_atom_site_fract_x
_atom_site_fract_y
_atom_site_fract_z
Si Si1 0.113659 0.800922 0.539692
Si Si2 0.899914 0.639282 0.068916
Si Si3 0.520323 0.382461 0.835211
Si Si4 0.712887 0.311109 0.853443
O O1 0.076427 0.690763 0.471001
O O2 0.167945 0.528602 0.593229
O O3 0.236819 0.014913 0.604202
O O4 0.000000 0.000000 0.500000
O O5 0.921926 0.332942 0.098333
O O6 0.997219 0.830915 0.149016
O O7 0.750000 0.750000 0.000000
O O8 0.627024 0.420797 0.850821
O O9 0.384980 0.286610 0.740180
#
# Coordination Sequence:
#
# PCOD9302597 Si02
#       4
#     8   8   8   8
#     4  12  25  41  63  92 133 174 211 261 328 400
#     4  12  21  39  64  97 127 164 221 268 321 385
#     4  11  22  38  67  97 124 162 219 283 321 375
#     4  11  22  41  63  95 129 165 215 270 333 380
#
# _framework density 22.133123999999999
#
# number of rings (size 3 to 8) (size 9 to 14) (size 15 to 20)
#    0.000    0.500    5.000    4.500    0.000    4.000 
#    0.000    5.000    0.000    0.000    0.000    0.000 
#    0.000    0.000    0.000    0.000    0.000    0.000 
#
# Total GULP energy -89483.909092 kJ/mol
# GULP energy per Si atom -5592.744318 kJ/mol
# Density = 2.208275 g / cm^3
# Si number density = 22.133124 Si / 1000 Ang^3
#
#
#
# Elastic Constant Matrix: (Units=GPa)
#
#
# Indices 1 2 3 4 5 6 
#
# 1 73.3072 12.3021 39.9634 -0.0327 -3.1168 -0.0126
# 2 12.3021 115.3277 24.3641 -0.0423 1.5970 0.0042
# 3 39.9634 24.3641 88.7509 -0.0001 -19.4560 -0.0048
# 4 -0.0327 -0.0423 -0.0001 31.4942 0.0230 -1.8172
# 5 -3.1168 1.5970 -19.4560 0.0230 19.3630 -0.0136
# 6 -0.0126 0.0042 -0.0048 -1.8172 -0.0136 37.8870
#
#
#
# Elastic Compliance Matrix: (Units=1/GPa)
#
#
# Indices 1 2 3 4 5 6 
#
# 1 0.018802 0.000225 -0.010091 0.000025 -0.007132 0.000004
# 2 0.000225 0.009486 -0.003679 0.000016 -0.004443 -0.000002
# 3 -0.010091 -0.003679 0.021202 -0.000030 0.019983 0.000005
# 4 0.000025 0.000016 -0.000030 0.031840 -0.000064 0.001527
# 5 -0.007132 -0.004443 0.019983 -0.000064 0.070943 0.000023
# 6 0.000004 -0.000002 0.000005 0.001527 0.000023 0.026468
#
#
# Mechanical properties :
#
#
# Convention : Reuss Voigt Hill
#
# Bulk Modulus (GPa) = 44.64646 47.84944 46.24795
# Shear Modulus (GPa) = 23.44139 31.13257 27.28698
#
# Velocity S-wave (km/s) = 3.25793 3.75454 3.51502
# Velocity P-wave (km/s) = 5.86240 6.36092 6.11674
#
# Compressibility (1/GPa) = 0.02239819
#
# Stress axis : x y z
#
# Youngs Moduli (GPa) = 53.18713 105.42083 47.16452
#
# Poissons Ratio (x) = -0.02373 0.47595
# Poissons Ratio (y) = -0.01197 0.17354
# Poissons Ratio (z) = 0.53673 0.38789
#
# Static dielectric constant tensor:
#      x y z
#    x 1.982410 0.000170 0.113270 
#    y 0.000170 1.793810 0.000070 
#    z 0.113270 0.000070 1.873230 
# 
# From -- ./inp_files/217272.got.cif
#   From: 2010.05.17/outbox.cif.g08.bks.cpg/sg15_109_cif.got.tgz:217272.got - 2010.06.03 18:47:42.
