data_PCOD9302215
_publ_section_title
;
Structure prediction by ZEFSAII (Michael W. Deem and Ramdas Pophale) SiO2 
 PCOD9302215
Probable space group: C 2/C
;
_chemical_formula_sum "Si O2"
_cell_formula_units_Z 40
_cell_length_a 8.390885
_cell_length_b 12.647161
_cell_length_c 21.861949
_cell_angle_alpha 90.000000
_cell_angle_beta 125.111519
_cell_angle_gamma 90.000000
_cell_volume 1897.846575
_symmetry_space_group_name_H-M "C 2/C"
_symmetry_group_IT_number 15
_symmetry_cell_setting 'monoclinic'
loop_
_space_group_symop_operation_xyz
x,y,z
-x,y,1/2-z
-x,-y,-z
x,-y,1/2+z
1/2+x,1/2+y,z
1/2-x,1/2+y,1/2-z
1/2-x,1/2-y,-z
1/2+x,1/2-y,1/2+z
loop_
_atom_site_type_symbol
_atom_site_label
_atom_site_fract_x
_atom_site_fract_y
_atom_site_fract_z
Si Si1 0.436997 0.109749 0.670504
Si Si2 0.140927 0.404213 0.012537
Si Si3 0.187418 0.158629 0.832000
Si Si4 0.255061 0.894437 0.606707
Si Si5 0.894198 0.196960 0.984879
O O1 0.500000 0.154242 0.750000
O O2 0.614898 0.128265 0.661860
O O3 0.239726 0.158796 0.599593
O O4 0.370901 0.988402 0.663988
O O5 0.306969 0.400735 0.101282
O O6 0.194199 0.409863 0.953742
O O7 0.000000 0.500000 0.000000
O O8 0.038088 0.289969 0.996268
O O9 0.188604 0.283157 0.849680
O O10 0.000000 0.133169 0.750000
O O11 0.019572 0.890226 0.549354
O O12 0.750000 0.250000 0.000000
#
# Coordination Sequence:
#
# PCOD9302215 Si02
#       5
#     8   8   8   8   8
#     4  12  26  43  65 103 136 174 227 284 348 407
#     4  11  22  43  70  97 130 179 234 272 339 416
#     4  11  24  44  66  96 140 176 222 284 349 405
#     4  11  23  45  71  94 134 182 226 279 347 409
#     4  11  21  43  69  97 130 177 227 284 333 408
#
# _framework density 21.076521
#
# number of rings (size 3 to 8) (size 9 to 14) (size 15 to 20)
#    0.000    0.800    6.000    3.600    5.600    0.000 
#    0.000    1.000    0.000    0.000    0.000    0.000 
#    0.000    0.000    0.000    0.000    0.000    0.000 
#
# Total GULP energy -111667.990072 kJ/mol
# GULP energy per Si atom -5583.399504 kJ/mol
# Density = 2.102855 g / cm^3
# Si number density = 21.076521 Si / 1000 Ang^3
#
#
#
# Elastic Constant Matrix: (Units=GPa)
#
#
# Indices 1 2 3 4 5 6 
#
# 1 67.4436 5.0474 16.9981 0.0000 6.7173 0.0000
# 2 5.0474 85.7967 26.6952 0.0000 14.0394 0.0000
# 3 16.9981 26.6952 174.3071 0.0000 19.6047 0.0000
# 4 0.0000 0.0000 0.0000 32.5633 0.0000 -0.7618
# 5 6.7173 14.0394 19.6047 0.0000 32.8882 0.0000
# 6 0.0000 0.0000 0.0000 -0.7618 0.0000 37.7292
#
#
#
# Elastic Compliance Matrix: (Units=1/GPa)
#
#
# Indices 1 2 3 4 5 6 
#
# 1 0.015378 -0.000142 -0.001213 0.000000 -0.002358 0.000000
# 2 -0.000142 0.012865 -0.001438 0.000000 -0.004605 0.000000
# 3 -0.001213 -0.001438 0.006408 0.000000 -0.002958 0.000000
# 4 0.000000 0.000000 0.000000 0.030724 0.000000 0.000620
# 5 -0.002358 -0.004605 -0.002958 0.000000 0.034617 0.000000
# 6 0.000000 0.000000 0.000000 0.000620 0.000000 0.026517
#
#
# Mechanical properties :
#
#
# Convention : Reuss Voigt Hill
#
# Bulk Modulus (GPa) = 34.40468 47.22544 40.81506
# Shear Modulus (GPa) = 35.26491 39.22324 37.24407
#
# Velocity S-wave (km/s) = 4.09490 4.31860 4.20824
# Velocity P-wave (km/s) = 6.22227 6.87913 6.55893
#
# Compressibility (1/GPa) = 0.02906581
#
# Stress axis : x y z
#
# Youngs Moduli (GPa) = 65.02680 77.73042 156.04770
#
# Poissons Ratio (x) = 0.01100 0.18926
# Poissons Ratio (y) = 0.00920 0.22447
# Poissons Ratio (z) = 0.07887 0.11181
#
# Static dielectric constant tensor:
#      x y z
#    x 1.741260 0.000000 -0.005420 
#    y 0.000000 1.783500 0.000000 
#    z -0.005420 0.000000 1.760760 
# 
# From -- ./inp_files/187800.got.cif
#   From: 2010.05.17/outbox.cif.g08.bks.cpg/sg15_94_cif.got.tgz:187800.got - 2010.06.03 18:47:42.
