data_PCOD9302972
_publ_section_title
;
Structure prediction by ZEFSAII (Michael W. Deem and Ramdas Pophale) SiO2 
 PCOD9302972
Probable space group: C 2/C
;
_chemical_formula_sum "Si O2"
_cell_formula_units_Z 36
_cell_length_a 5.035111
_cell_length_b 27.271417
_cell_length_c 10.604313
_cell_angle_alpha 90.000000
_cell_angle_beta 75.402668
_cell_angle_gamma 90.000000
_cell_volume 1409.124660
_symmetry_space_group_name_H-M "C 2/C"
_symmetry_group_IT_number 15
_symmetry_cell_setting 'monoclinic'
loop_
_space_group_symop_operation_xyz
x,y,z
-x,y,1/2-z
-x,-y,-z
x,-y,1/2+z
1/2+x,1/2+y,z
1/2-x,1/2+y,1/2-z
1/2-x,1/2-y,-z
1/2+x,1/2-y,1/2+z
loop_
_atom_site_type_symbol
_atom_site_label
_atom_site_fract_x
_atom_site_fract_y
_atom_site_fract_z
Si Si1 0.205868 0.512934 0.825045
Si Si2 0.500000 0.673926 0.750000
Si Si3 0.392847 0.916127 0.953115
Si Si4 0.088647 0.854386 0.529664
Si Si5 0.269033 0.265221 0.644698
O O1 0.500000 0.495617 0.750000
O O2 0.263862 0.555799 0.916389
O O3 0.000000 0.536638 0.750000
O O4 0.049766 0.463664 0.882871
O O5 0.456503 0.649755 0.617584
O O6 0.757745 0.711308 0.706679
O O7 0.162299 0.889923 0.898074
O O8 0.618898 0.877215 0.972032
O O9 0.022618 0.802769 0.606542
O O10 0.250000 0.250000 0.500000
O O11 0.000000 0.287765 0.750000
#
# Coordination Sequence:
#
# PCOD9302972 Si02
#       5
#     8   4   8   8   8
#     4  11  24  45  68  93 142 179 217 282 354 411
#     4   8  20  40  66  96 136 182 224 278 354 398
#     4  11  26  41  66 106 130 174 232 281 342 409
#     4  11  22  41  66 100 136 175 236 283 333 420
#     4   8  17  39  66  93 140 179 225 280 347 396
#
# _framework density 25.547778000000001
#
# number of rings (size 3 to 8) (size 9 to 14) (size 15 to 20)
#    0.667    1.333    0.000    2.667    4.667    6.222 
#    0.000   12.222    0.000    0.000    0.000    0.000 
#    0.000    0.000    0.000    0.000    0.000    0.000 
#
# Total GULP energy -100393.369493 kJ/mol
# GULP energy per Si atom -5577.409416 kJ/mol
# Density = 2.548963 g / cm^3
# Si number density = 25.547778 Si / 1000 Ang^3
#
#
#
# Elastic Constant Matrix: (Units=GPa)
#
#
# Indices 1 2 3 4 5 6 
#
# 1 81.5943 15.5527 7.4771 0.0000 -0.1717 0.0000
# 2 15.5527 103.7048 24.8563 0.0000 -5.0387 0.0000
# 3 7.4771 24.8563 82.8413 0.0000 -8.5591 0.0000
# 4 0.0000 0.0000 0.0000 46.8745 0.0000 -31.2312
# 5 -0.1717 -5.0387 -8.5591 0.0000 19.1064 0.0000
# 6 0.0000 0.0000 0.0000 -31.2312 0.0000 31.0290
#
#
#
# Elastic Compliance Matrix: (Units=1/GPa)
#
#
# Indices 1 2 3 4 5 6 
#
# 1 0.012653 -0.001767 -0.000680 0.000000 -0.000657 0.000000
# 2 -0.001767 0.010673 -0.002887 0.000000 0.001505 0.000000
# 3 -0.000680 -0.002887 0.013547 0.000000 0.005301 0.000000
# 4 0.000000 0.000000 0.000000 0.064768 0.000000 0.065190
# 5 -0.000657 0.001505 0.005301 0.000000 0.055104 0.000000
# 6 0.000000 0.000000 0.000000 0.065190 0.000000 0.097842
#
#
# Mechanical properties :
#
#
# Convention : Reuss Voigt Hill
#
# Bulk Modulus (GPa) = 38.16028 40.43473 39.29751
# Shear Modulus (GPa) = 18.24886 34.08559 26.16722
#
# Velocity S-wave (km/s) = 2.67554 3.65662 3.20386
# Velocity P-wave (km/s) = 4.95116 5.80425 5.39459
#
# Compressibility (1/GPa) = 0.02620526
#
# Stress axis : x y z
#
# Youngs Moduli (GPa) = 79.03006 93.69531 73.81877
#
# Poissons Ratio (x) = 0.16552 0.05019
# Poissons Ratio (y) = 0.13961 0.21314
# Poissons Ratio (z) = 0.05373 0.27054
#
# Static dielectric constant tensor:
#      x y z
#    x 1.972150 0.000000 -0.008160 
#    y 0.000000 1.949480 0.000000 
#    z -0.008160 0.000000 2.236700 
# 
# From -- ./inp_files/72990.got.cif
#   From: 2010.05.17/outbox.cif.g08.bks.cpg/sg15_37_cif.got.tgz:72990.got - 2010.06.03 18:47:42.
