data_PCOD9302800
_publ_section_title
;
Structure prediction by ZEFSAII (Michael W. Deem and Ramdas Pophale) SiO2 
 PCOD9302800
Probable space group: C 2/C
;
_chemical_formula_sum "Si O2"
_cell_formula_units_Z 52
_cell_length_a 31.294378
_cell_length_b 8.134695
_cell_length_c 13.383494
_cell_angle_alpha 90.000000
_cell_angle_beta 46.744125
_cell_angle_gamma 90.000000
_cell_volume 2481.348929
_symmetry_space_group_name_H-M "C 2/C"
_symmetry_group_IT_number 15
_symmetry_cell_setting 'monoclinic'
loop_
_space_group_symop_operation_xyz
x,y,z
-x,y,1/2-z
-x,-y,-z
x,-y,1/2+z
1/2+x,1/2+y,z
1/2-x,1/2+y,1/2-z
1/2-x,1/2-y,-z
1/2+x,1/2-y,1/2+z
loop_
_atom_site_type_symbol
_atom_site_label
_atom_site_fract_x
_atom_site_fract_y
_atom_site_fract_z
Si Si1 0.905088 0.089257 0.541559
Si Si2 0.184972 0.833440 0.761590
Si Si3 0.500000 0.558653 0.750000
Si Si4 0.091497 0.777033 0.247190
Si Si5 0.836422 0.517915 0.840294
Si Si6 0.790991 0.955779 0.474718
Si Si7 0.689185 0.224976 0.421542
O O1 0.920872 0.125830 0.630441
O O2 0.862100 0.235617 0.573441
O O3 0.867451 0.920855 0.598070
O O4 0.959942 0.058287 0.382994
O O5 0.165968 0.665782 0.736640
O O6 0.245879 0.814722 0.724432
O O7 0.201160 0.960175 0.646754
O O8 0.458712 0.673709 0.748709
O O9 0.104923 0.588772 0.253269
O O10 0.154423 0.835310 0.101742
O O11 0.777625 0.411032 0.910018
O O12 0.828663 0.596231 0.963498
O O13 0.800690 0.105535 0.535131
#
# Coordination Sequence:
#
# PCOD9302800 Si02
#       7
#     8   8   4   8   8   8   8
#     4  11  23  42  66  90 120 178 218 246 305 384
#     4   8  18  35  61  93 130 153 203 259 310 376
#     4  12  26  46  62  82 128 174 226 254 286 386
#     4  11  22  40  64  91 120 167 219 254 313 367
#     4   9  18  36  64  96 131 152 195 274 327 360
#     4   8  15  34  62  92 124 164 196 248 319 379
#     4   9  17  36  62  96 127 160 197 257 323 365
#
# _framework density 20.956344000000001
#
# number of rings (size 3 to 8) (size 9 to 14) (size 15 to 20)
#    0.000    2.462    1.538    2.769    0.000    2.462 
#   11.077    1.538    0.000    0.000    0.000    0.000 
#    0.000    0.000    0.000    0.000    0.000    0.000 
#
# Total GULP energy -145098.052311 kJ/mol
# GULP energy per Si atom -5580.694320 kJ/mol
# Density = 2.090865 g / cm^3
# Si number density = 20.956344 Si / 1000 Ang^3
#
#
#
# Elastic Constant Matrix: (Units=GPa)
#
#
# Indices 1 2 3 4 5 6 
#
# 1 155.4917 37.9674 36.0633 0.0000 -13.7163 0.0000
# 2 37.9674 58.6844 34.7627 0.0000 -14.2405 0.0001
# 3 36.0633 34.7627 95.1534 0.0000 -5.6421 0.0000
# 4 0.0000 0.0000 0.0000 13.2791 0.0000 -1.9630
# 5 -13.7163 -14.2405 -5.6421 0.0000 22.0725 0.0000
# 6 0.0000 0.0001 0.0000 -1.9630 0.0000 24.1241
#
#
#
# Elastic Compliance Matrix: (Units=1/GPa)
#
#
# Indices 1 2 3 4 5 6 
#
# 1 0.007868 -0.003678 -0.001512 0.000000 0.002130 0.000000
# 2 -0.003678 0.027255 -0.007774 0.000000 0.013312 0.000000
# 3 -0.001512 -0.007774 0.013778 0.000000 -0.002433 0.000000
# 4 0.000000 0.000000 0.000000 0.076223 0.000000 0.006202
# 5 0.002130 0.013312 -0.002433 0.000000 0.054595 0.000000
# 6 0.000000 0.000000 0.000000 0.006202 0.000000 0.041957
#
#
# Mechanical properties :
#
#
# Convention : Reuss Voigt Hill
#
# Bulk Modulus (GPa) = 43.52835 58.54625 51.03730
# Shear Modulus (GPa) = 19.58775 25.26422 22.42599
#
# Velocity S-wave (km/s) = 3.06059 3.47589 3.27483
# Velocity P-wave (km/s) = 5.77111 6.64131 6.22144
#
# Compressibility (1/GPa) = 0.02297353
#
# Stress axis : x y z
#
# Youngs Moduli (GPa) = 127.10041 36.69054 72.57836
#
# Poissons Ratio (x) = 0.13494 0.10974
# Poissons Ratio (y) = 0.46744 0.56422
# Poissons Ratio (z) = 0.19218 0.28523
#
# Static dielectric constant tensor:
#      x y z
#    x 1.769670 0.000000 0.006740 
#    y 0.000000 1.788330 0.000000 
#    z 0.006740 0.000000 1.767780 
# 
# From -- ./inp_files/181084.got.cif
#   From: 2010.05.17/outbox.cif.g08.bks.cpg/sg15_91_cif.got.tgz:181084.got - 2010.06.03 18:47:42.
