data_PCOD9302759
_publ_section_title
;
Structure prediction by ZEFSAII (Michael W. Deem and Ramdas Pophale) SiO2 
 PCOD9302759
Probable space group: C 2/C
;
_chemical_formula_sum "Si O2"
_cell_formula_units_Z 52
_cell_length_a 13.542839
_cell_length_b 8.706778
_cell_length_c 27.659762
_cell_angle_alpha 90.000000
_cell_angle_beta 50.034263
_cell_angle_gamma 90.000000
_cell_volume 2499.697073
_symmetry_space_group_name_H-M "C 2/C"
_symmetry_group_IT_number 15
_symmetry_cell_setting 'monoclinic'
loop_
_space_group_symop_operation_xyz
x,y,z
-x,y,1/2-z
-x,-y,-z
x,-y,1/2+z
1/2+x,1/2+y,z
1/2-x,1/2+y,1/2-z
1/2-x,1/2-y,-z
1/2+x,1/2-y,1/2+z
loop_
_atom_site_type_symbol
_atom_site_label
_atom_site_fract_x
_atom_site_fract_y
_atom_site_fract_z
Si Si1 0.254281 0.903010 0.064763
Si Si2 0.931821 0.594986 0.672123
Si Si3 0.767293 0.775507 0.656788
Si Si4 0.694865 0.250200 0.571393
Si Si5 0.500000 0.056543 0.250000
Si Si6 0.608906 0.560234 0.929002
Si Si7 0.544359 0.812735 0.579371
O O1 0.299805 0.831625 0.100746
O O2 0.137928 0.795243 0.082082
O O3 0.215834 0.078700 0.084258
O O4 0.363526 0.894031 0.989113
O O5 0.803955 0.679903 0.693182
O O6 0.046210 0.708157 0.620213
O O7 0.949105 0.551580 0.722615
O O8 0.964461 0.436421 0.634481
O O9 0.620590 0.833602 0.699992
O O10 0.850331 0.928494 0.621038
O O11 0.750000 0.250000 0.500000
O O12 0.770062 0.119928 0.578031
O O13 0.551022 0.702957 0.919134
O O14 0.500000 0.500000 0.000000
#
# Coordination Sequence:
#
# PCOD9302759 Si02
#       7
#     8   8   8   8   4   8   8
#     4  11  22  40  68 110 144 179 232 289 369 433
#     4  12  26  49  75 101 141 191 244 298 366 429
#     4  12  26  49  75 101 140 194 238 305 361 438
#     4  12  23  40  68 110 146 183 230 296 365 440
#     4  12  28  56  72  98 152 194 258 302 356 440
#     4  12  23  39  69 109 148 183 234 294 372 436
#     4  11  22  39  71 107 146 183 224 297 366 434
#
# _framework density 20.802520999999999
#
# number of rings (size 3 to 8) (size 9 to 14) (size 15 to 20)
#    0.000    0.308    6.154    3.692    0.000    2.462 
#    5.538    0.000    0.000    0.000    0.000    0.000 
#    0.000    0.000    0.000    0.000    0.000    0.000 
#
# Total GULP energy -145474.199557 kJ/mol
# GULP energy per Si atom -5595.161521 kJ/mol
# Density = 2.075517 g / cm^3
# Si number density = 20.802521 Si / 1000 Ang^3
#
#
#
# Elastic Constant Matrix: (Units=GPa)
#
#
# Indices 1 2 3 4 5 6 
#
# 1 77.1003 12.4827 7.1521 0.0000 16.0290 0.0000
# 2 12.4827 97.3775 10.1218 0.0000 5.7776 0.0000
# 3 7.1521 10.1218 45.1329 0.0000 12.1748 0.0000
# 4 0.0000 0.0000 0.0000 18.6113 0.0000 7.9672
# 5 16.0290 5.7776 12.1748 0.0000 37.1164 0.0000
# 6 0.0000 0.0000 0.0000 7.9672 0.0000 49.1481
#
#
#
# Elastic Compliance Matrix: (Units=1/GPa)
#
#
# Indices 1 2 3 4 5 6 
#
# 1 0.014468 -0.001466 -0.000373 0.000000 -0.005898 0.000000
# 2 -0.001466 0.010693 -0.002071 0.000000 -0.000352 0.000000
# 3 -0.000373 -0.002071 0.024739 0.000000 -0.007631 0.000000
# 4 0.000000 0.000000 0.000000 0.057737 0.000000 -0.009360
# 5 -0.005898 -0.000352 -0.007631 0.000000 0.032047 0.000000
# 6 0.000000 0.000000 0.000000 -0.009360 0.000000 0.021864
#
#
# Mechanical properties :
#
#
# Convention : Reuss Voigt Hill
#
# Bulk Modulus (GPa) = 23.76385 31.01376 27.38880
# Shear Modulus (GPa) = 27.26347 33.63210 30.44778
#
# Velocity S-wave (km/s) = 3.62413 4.02522 3.82993
# Velocity P-wave (km/s) = 5.38152 6.04518 5.72298
#
# Compressibility (1/GPa) = 0.04208073
#
# Stress axis : x y z
#
# Youngs Moduli (GPa) = 69.11720 93.51586 40.42216
#
# Poissons Ratio (x) = 0.13709 0.01508
# Poissons Ratio (y) = 0.10132 0.08371
# Poissons Ratio (z) = 0.02579 0.19366
#
# Static dielectric constant tensor:
#      x y z
#    x 1.784210 0.000000 0.004250 
#    y 0.000000 1.724470 0.000000 
#    z 0.004250 0.000000 1.739920 
# 
# From -- ./inp_files/291467.got.cif
#   From: 2010.05.17/outbox.cif.g08.bks.cpg/sg15_146_cif.got.tgz:291467.got - 2010.06.03 18:47:42.
