data_PCOD9302368
_publ_section_title
;
Structure prediction by ZEFSAII (Michael W. Deem and Ramdas Pophale) SiO2 
 PCOD9302368
Probable space group: C 2/C
;
_chemical_formula_sum "Si O2"
_cell_formula_units_Z 52
_cell_length_a 30.017116
_cell_length_b 19.351237
_cell_length_c 14.815672
_cell_angle_alpha 90.000000
_cell_angle_beta 16.628833
_cell_angle_gamma 90.000000
_cell_volume 2462.771091
_symmetry_space_group_name_H-M "C 2/C"
_symmetry_group_IT_number 15
_symmetry_cell_setting 'monoclinic'
loop_
_space_group_symop_operation_xyz
x,y,z
-x,y,1/2-z
-x,-y,-z
x,-y,1/2+z
1/2+x,1/2+y,z
1/2-x,1/2+y,1/2-z
1/2-x,1/2-y,-z
1/2+x,1/2-y,1/2+z
loop_
_atom_site_type_symbol
_atom_site_label
_atom_site_fract_x
_atom_site_fract_y
_atom_site_fract_z
Si Si1 0.565344 0.674129 0.522879
Si Si2 0.000000 0.558218 0.750000
Si Si3 0.413753 0.174169 0.584036
Si Si4 0.084813 0.536828 0.248724
Si Si5 0.447116 0.669747 0.257821
Si Si6 0.425479 0.575297 0.648469
Si Si7 0.066690 0.673518 0.739103
O O1 0.500000 0.671799 0.750000
O O2 0.525190 0.750229 0.561065
O O3 0.478823 0.614740 0.634589
O O4 0.754347 0.665969 0.145517
O O5 0.905545 0.509921 0.861895
O O6 0.047477 0.616272 0.582399
O O7 0.499046 0.106466 0.383665
O O8 0.416699 0.167072 0.686283
O O9 0.237675 0.171501 0.892159
O O10 0.000000 0.500000 0.500000
O O11 0.246014 0.561757 0.977801
O O12 0.500000 0.640039 0.250000
O O13 0.497265 0.749888 0.154819
O O14 0.512415 0.624487 0.050986
O O15 0.500000 0.500000 0.500000
#
# Coordination Sequence:
#
# PCOD9302368 Si02
#       7
#     8   4   8   8   8   8   8
#     4  11  25  42  74 106 139 183 234 301 349 425
#     4  12  26  44  68 102 134 186 236 280 362 418
#     4  11  23  48  69 101 146 182 234 294 361 413
#     4  12  28  44  68 102 147 189 226 296 357 423
#     4  11  23  43  75 102 131 189 239 287 349 420
#     4  12  26  48  69 103 142 183 239 292 357 419
#     4  11  21  47  74  96 138 186 242 289 353 422
#
# _framework density 21.114426000000002
#
# number of rings (size 3 to 8) (size 9 to 14) (size 15 to 20)
#    0.000    0.615    5.385    2.769    5.385    2.462 
#    0.000    0.000    0.000    0.000    0.000    0.000 
#    0.000    0.000    0.000    0.000    0.000    0.000 
#
# Total GULP energy -145084.505106 kJ/mol
# GULP energy per Si atom -5580.173273 kJ/mol
# Density = 2.106637 g / cm^3
# Si number density = 21.114426 Si / 1000 Ang^3
#
#
#
# Elastic Constant Matrix: (Units=GPa)
#
#
# Indices 1 2 3 4 5 6 
#
# 1 167.3434 55.8931 32.2311 0.0003 15.5558 0.0001
# 2 55.8931 170.0635 53.0748 -0.0012 3.9614 -0.0010
# 3 32.2311 53.0748 56.6623 -0.0019 5.8451 -0.0015
# 4 0.0003 -0.0012 -0.0019 118.0901 0.0003 85.8230
# 5 15.5558 3.9614 5.8451 0.0003 23.4326 0.0001
# 6 0.0001 -0.0010 -0.0015 85.8230 0.0001 133.6587
#
#
#
# Elastic Compliance Matrix: (Units=1/GPa)
#
#
# Indices 1 2 3 4 5 6 
#
# 1 0.007320 -0.001614 -0.002236 0.000000 -0.004029 0.000000
# 2 -0.001614 0.008672 -0.007353 0.000000 0.001440 0.000000
# 3 -0.002236 -0.007353 0.026201 0.000000 -0.003808 0.000000
# 4 0.000000 0.000000 0.000000 0.015877 0.000000 -0.010195
# 5 -0.004029 0.001440 -0.003808 0.000000 0.046057 0.000000
# 6 0.000000 0.000000 0.000000 -0.010195 0.000000 0.014028
#
#
# Mechanical properties :
#
#
# Convention : Reuss Voigt Hill
#
# Bulk Modulus (GPa) = 50.54179 75.16303 62.85241
# Shear Modulus (GPa) = 33.97710 71.89428 52.93569
#
# Velocity S-wave (km/s) = 4.01582 5.84155 5.01251
# Velocity P-wave (km/s) = 6.74474 9.00964 7.95817
#
# Compressibility (1/GPa) = 0.01978561
#
# Stress axis : x y z
#
# Youngs Moduli (GPa) = 136.61071 115.31407 38.16627
#
# Poissons Ratio (x) = 0.18612 0.08536
# Poissons Ratio (y) = 0.22049 0.28065
# Poissons Ratio (z) = 0.30552 0.84794
#
# Static dielectric constant tensor:
#      x y z
#    x 1.747950 -0.000010 0.046700 
#    y -0.000010 1.508490 0.000010 
#    z 0.046700 0.000010 1.776150 
# 
# From -- ./inp_files/182813.got.cif
#   From: 2010.05.17/outbox.cif.g08.bks.cpg/sg15_92_cif.got.tgz:182813.got - 2010.06.03 18:47:42.
