data_PCOD9302888
_publ_section_title
;
Structure prediction by ZEFSAII (Michael W. Deem and Ramdas Pophale) SiO2 
 PCOD9302888
Probable space group: C 2/C
;
_chemical_formula_sum "Si O2"
_cell_formula_units_Z 56
_cell_length_a 14.400101
_cell_length_b 15.262220
_cell_length_c 11.761964
_cell_angle_alpha 90.000000
_cell_angle_beta 92.290692
_cell_angle_gamma 90.000000
_cell_volume 2582.949473
_symmetry_space_group_name_H-M "C 2/C"
_symmetry_group_IT_number 15
_symmetry_cell_setting 'monoclinic'
loop_
_space_group_symop_operation_xyz
x,y,z
-x,y,1/2-z
-x,-y,-z
x,-y,1/2+z
1/2+x,1/2+y,z
1/2-x,1/2+y,1/2-z
1/2-x,1/2-y,-z
1/2+x,1/2-y,1/2+z
loop_
_atom_site_type_symbol
_atom_site_label
_atom_site_fract_x
_atom_site_fract_y
_atom_site_fract_z
Si Si1 0.500000 0.774018 0.250000
Si Si2 0.333848 0.105804 0.747567
Si Si3 0.367308 0.349505 0.311657
Si Si4 0.429484 0.632293 0.072567
Si Si5 0.500000 0.499432 0.250000
Si Si6 0.594716 0.010978 0.436445
Si Si7 0.229156 0.556335 0.121968
Si Si8 0.895011 0.663515 0.209973
O O1 0.590161 0.825323 0.206821
O O2 0.458063 0.717773 0.144455
O O3 0.244582 0.147514 0.679638
O O4 0.400523 0.039109 0.682306
O O5 0.281592 0.042498 0.832603
O O6 0.419257 0.346440 0.437778
O O7 0.411503 0.436111 0.257505
O O8 0.386779 0.267205 0.229638
O O9 0.496412 0.558734 0.134966
O O10 0.329583 0.594420 0.103804
O O11 0.618364 0.112369 0.409982
O O12 0.500000 0.000000 0.500000
O O13 0.671046 0.954594 0.505585
O O14 0.177613 0.620420 0.206749
O O15 0.000000 0.639955 0.250000
#
# Coordination Sequence:
#
# PCOD9302888 Si02
#       8
#     4   8   8   8   4   8   8   8
#     4  11  26  42  65 110 140 178 239 300 350 419
#     4  11  24  42  69 102 141 182 233 296 351 429
#     4  12  24  45  72 100 140 182 242 295 356 415
#     4  11  25  45  73  97 137 191 239 293 356 434
#     4  11  24  48  69  98 136 188 249 288 346 439
#     4  11  22  40  69 100 144 183 229 284 367 432
#     4  11  22  42  69  97 139 185 235 276 360 436
#     4  11  24  38  62 106 138 179 230 295 344 419
#
# _framework density 21.680641000000001
#
# number of rings (size 3 to 8) (size 9 to 14) (size 15 to 20)
#    0.000    0.857    5.000    2.143    4.000    2.286 
#    0.000    0.714    0.000    0.000    0.000    0.000 
#    0.000    0.000    0.000    0.000    0.000    0.000 
#
# Total GULP energy -156068.964799 kJ/mol
# GULP energy per Si atom -5573.891600 kJ/mol
# Density = 2.163129 g / cm^3
# Si number density = 21.680641 Si / 1000 Ang^3
#
#
#
# Elastic Constant Matrix: (Units=GPa)
#
#
# Indices 1 2 3 4 5 6 
#
# 1 123.8534 41.9452 12.3246 0.0000 2.1096 0.0000
# 2 41.9452 91.5050 16.5564 0.0000 -6.1202 0.0000
# 3 12.3246 16.5564 44.9886 0.0000 -11.9386 0.0000
# 4 0.0000 0.0000 0.0000 4.7492 0.0000 9.8099
# 5 2.1096 -6.1202 -11.9386 0.0000 23.2687 0.0000
# 6 0.0000 0.0000 0.0000 9.8099 0.0000 34.0833
#
#
#
# Elastic Compliance Matrix: (Units=1/GPa)
#
#
# Indices 1 2 3 4 5 6 
#
# 1 0.009783 -0.004345 -0.001875 0.000000 -0.002992 0.000000
# 2 -0.004345 0.013658 -0.003216 0.000000 0.002336 0.000000
# 3 -0.001875 -0.003216 0.027488 0.000000 0.013428 0.000000
# 4 0.000000 0.000000 0.000000 0.519296 0.000000 -0.149465
# 5 -0.002992 0.002336 0.013428 0.000000 0.050751 0.000000
# 6 0.000000 0.000000 0.000000 -0.149465 0.000000 0.072359
#
#
# Mechanical properties :
#
#
# Convention : Reuss Voigt Hill
#
# Bulk Modulus (GPa) = 31.19419 44.66659 37.93039
# Shear Modulus (GPa) = 6.91663 25.05496 15.98580
#
# Velocity S-wave (km/s) = 1.78806 3.40315 2.71833
# Velocity P-wave (km/s) = 4.32229 6.00739 5.23311
#
# Compressibility (1/GPa) = 0.03205726
#
# Stress axis : x y z
#
# Youngs Moduli (GPa) = 102.21545 73.21484 36.37908
#
# Poissons Ratio (x) = 0.31815 0.06821
# Poissons Ratio (y) = 0.44417 0.11700
# Poissons Ratio (z) = 0.19164 0.23546
#
# Static dielectric constant tensor:
#      x y z
#    x 1.766820 0.000000 0.059260 
#    y 0.000000 1.803190 0.000000 
#    z 0.059260 0.000000 1.877400 
# 
# From -- ./inp_files/97084.got.cif
#   From: 2010.05.17/outbox.cif.g08.bks.cpg/sg15_49_cif.got.tgz:97084.got - 2010.06.03 18:47:42.
