data_PCOD9302358
_publ_section_title
;
Structure prediction by ZEFSAII (Michael W. Deem and Ramdas Pophale) SiO2 
 PCOD9302358
Probable space group: C 2/C
;
_chemical_formula_sum "Si O2"
_cell_formula_units_Z 28
_cell_length_a 6.674858
_cell_length_b 13.151095
_cell_length_c 15.723655
_cell_angle_alpha 90.000000
_cell_angle_beta 61.722341
_cell_angle_gamma 90.000000
_cell_volume 1215.533076
_symmetry_space_group_name_H-M "C 2/C"
_symmetry_group_IT_number 15
_symmetry_cell_setting 'monoclinic'
loop_
_space_group_symop_operation_xyz
x,y,z
-x,y,1/2-z
-x,-y,-z
x,-y,1/2+z
1/2+x,1/2+y,z
1/2-x,1/2+y,1/2-z
1/2-x,1/2-y,-z
1/2+x,1/2-y,1/2+z
loop_
_atom_site_type_symbol
_atom_site_label
_atom_site_fract_x
_atom_site_fract_y
_atom_site_fract_z
Si Si1 0.336370 0.930679 0.475385
Si Si2 0.500000 0.440163 0.250000
Si Si3 0.675498 0.564315 0.352272
Si Si4 0.223359 0.721117 0.906340
O O1 0.473786 0.825710 0.438914
O O2 0.091019 0.922892 0.568949
O O3 0.500000 0.000000 0.500000
O O4 0.287963 0.987994 0.396908
O O5 0.681450 0.512946 0.259071
O O6 0.605084 0.367121 0.157362
O O7 0.768585 0.677209 0.344157
O O8 0.250000 0.750000 0.000000
#
# Coordination Sequence:
#
# PCOD9302358 Si02
#       4
#     8   4   8   8
#     4  11  21  46  75 100 137 182 241 302 361 437
#     4  12  28  44  66 114 144 186 254 296 358 436
#     4  11  25  44  70 103 142 186 237 304 366 426
#     4  12  25  46  76 104 144 197 243 296 371 436
#
# _framework density 23.035160999999999
#
# number of rings (size 3 to 8) (size 9 to 14) (size 15 to 20)
#    0.000    0.571    5.714    2.571    0.000    8.000 
#    0.000    0.000    0.000    0.000    0.000    0.000 
#    0.000    0.000    0.000    0.000    0.000    0.000 
#
# Total GULP energy -78395.691544 kJ/mol
# GULP energy per Si atom -5599.692253 kJ/mol
# Density = 2.298273 g / cm^3
# Si number density = 23.035161 Si / 1000 Ang^3
#
#
#
# Elastic Constant Matrix: (Units=GPa)
#
#
# Indices 1 2 3 4 5 6 
#
# 1 114.4352 45.7454 40.6921 0.0000 10.0685 0.0000
# 2 45.7454 170.2927 54.3241 0.0000 24.6521 0.0000
# 3 40.6921 54.3241 81.3891 0.0000 7.3909 0.0000
# 4 0.0000 0.0000 0.0000 34.9017 0.0000 1.4849
# 5 10.0685 24.6521 7.3909 0.0000 53.5653 0.0000
# 6 0.0000 0.0000 0.0000 1.4849 0.0000 51.8695
#
#
#
# Elastic Compliance Matrix: (Units=1/GPa)
#
#
# Indices 1 2 3 4 5 6 
#
# 1 0.010959 -0.001402 -0.004471 0.000000 -0.000798 0.000000
# 2 -0.001402 0.008073 -0.004429 0.000000 -0.002841 0.000000
# 3 -0.004471 -0.004429 0.017435 0.000000 0.000473 0.000000
# 4 0.000000 0.000000 0.000000 0.028687 0.000000 -0.000821
# 5 -0.000798 -0.002841 0.000473 0.000000 0.020061 0.000000
# 6 0.000000 0.000000 0.000000 -0.000821 0.000000 0.019303
#
#
# Mechanical properties :
#
#
# Convention : Reuss Voigt Hill
#
# Bulk Modulus (GPa) = 63.04127 71.96002 67.50064
# Shear Modulus (GPa) = 38.34041 43.09101 40.71571
#
# Velocity S-wave (km/s) = 4.08417 4.32981 4.20878
# Velocity P-wave (km/s) = 7.04751 7.50355 7.27910
#
# Compressibility (1/GPa) = 0.01586263
#
# Stress axis : x y z
#
# Youngs Moduli (GPa) = 91.24846 123.86697 57.35433
#
# Poissons Ratio (x) = 0.17369 0.25642
# Poissons Ratio (y) = 0.12795 0.25405
# Poissons Ratio (z) = 0.40796 0.54867
#
# Static dielectric constant tensor:
#      x y z
#    x 1.828330 0.000000 -0.053060 
#    y 0.000000 1.864500 0.000000 
#    z -0.053060 0.000000 1.884780 
# 
# From -- ./inp_files/183649.got.cif
#   From: 2010.05.17/outbox.cif.g08.bks.cpg/sg15_92_cif.got.tgz:183649.got - 2010.06.03 18:47:42.
