data_PCOD9302628
_publ_section_title
;
Structure prediction by ZEFSAII (Michael W. Deem and Ramdas Pophale) SiO2 
 PCOD9302628
Probable space group: C 2/C
;
_chemical_formula_sum "Si O2"
_cell_formula_units_Z 48
_cell_length_a 10.699983
_cell_length_b 20.773102
_cell_length_c 11.764310
_cell_angle_alpha 90.000000
_cell_angle_beta 49.793959
_cell_angle_gamma 90.000000
_cell_volume 1997.053031
_symmetry_space_group_name_H-M "C 2/C"
_symmetry_group_IT_number 15
_symmetry_cell_setting 'monoclinic'
loop_
_space_group_symop_operation_xyz
x,y,z
-x,y,1/2-z
-x,-y,-z
x,-y,1/2+z
1/2+x,1/2+y,z
1/2-x,1/2+y,1/2-z
1/2-x,1/2-y,-z
1/2+x,1/2-y,1/2+z
loop_
_atom_site_type_symbol
_atom_site_label
_atom_site_fract_x
_atom_site_fract_y
_atom_site_fract_z
Si Si1 0.260836 0.596962 0.086182
Si Si2 0.073593 0.215884 0.087543
Si Si3 0.392785 0.363087 0.151151
Si Si4 0.961260 0.647109 0.639382
Si Si5 0.039136 0.563102 0.405917
Si Si6 0.824349 0.266962 0.834200
O O1 0.122586 0.586426 0.070067
O O2 0.270028 0.667876 0.141580
O O3 0.188523 0.553661 0.230035
O O4 0.444319 0.594893 0.925514
O O5 0.000000 0.194586 0.250000
O O6 0.958449 0.276012 0.114099
O O7 0.250000 0.250000 0.000000
O O8 0.103281 0.160170 0.981236
O O9 0.211101 0.389111 0.277128
O O10 0.375807 0.295924 0.232250
O O11 0.080386 0.616480 0.477410
O O12 0.000000 0.642158 0.750000
O O13 0.000000 0.500000 0.500000
O O14 0.000000 0.298580 0.750000
O O15 0.750000 0.250000 0.000000
#
# Coordination Sequence:
#
# PCOD9302628 Si02
#       6
#     8   8   8   8   8   8
#     4  11  25  43  69 105 131 179 232 280 359 410
#     4  11  22  39  60  99 147 192 223 254 328 424
#     4  12  24  39  67 102 149 177 219 281 334 433
#     4  11  24  41  65  96 134 184 227 270 341 406
#     4  11  26  47  72  90 126 170 236 302 352 414
#     4  12  22  36  63 104 147 176 207 266 344 422
#
# _framework density 24.035415
#
# number of rings (size 3 to 8) (size 9 to 14) (size 15 to 20)
#    0.000    0.667    6.667    3.000    4.667    0.000 
#    0.000    0.833    3.667    0.000    0.000    0.000 
#    0.000    0.000    0.000    0.000    0.000    0.000 
#
# Total GULP energy -133830.088543 kJ/mol
# GULP energy per Si atom -5576.253689 kJ/mol
# Density = 2.398071 g / cm^3
# Si number density = 24.035415 Si / 1000 Ang^3
#
#
#
# Elastic Constant Matrix: (Units=GPa)
#
#
# Indices 1 2 3 4 5 6 
#
# 1 50.2941 5.2167 21.8365 0.0000 -23.4732 0.0000
# 2 5.2167 71.3097 24.2764 0.0000 16.8715 0.0000
# 3 21.8365 24.2764 176.0273 0.0000 6.7401 0.0000
# 4 0.0000 0.0000 0.0000 41.6637 0.0000 16.0840
# 5 -23.4732 16.8715 6.7401 0.0000 61.3426 0.0000
# 6 0.0000 0.0000 0.0000 16.0840 0.0000 8.2231
#
#
#
# Elastic Compliance Matrix: (Units=1/GPa)
#
#
# Indices 1 2 3 4 5 6 
#
# 1 0.027199 -0.003645 -0.003322 0.000000 0.011776 0.000000
# 2 -0.003645 0.016162 -0.001560 0.000000 -0.005668 0.000000
# 3 -0.003322 -0.001560 0.006367 0.000000 -0.001542 0.000000
# 4 0.000000 0.000000 0.000000 0.097998 0.000000 -0.191680
# 5 0.011776 -0.005668 -0.001542 0.000000 0.022536 0.000000
# 6 0.000000 0.000000 0.000000 -0.191680 0.000000 0.496525
#
#
# Mechanical properties :
#
#
# Convention : Reuss Voigt Hill
#
# Bulk Modulus (GPa) = 30.60443 44.47668 37.54055
# Shear Modulus (GPa) = 7.19700 38.66598 22.93149
#
# Velocity S-wave (km/s) = 1.73229 4.01522 3.09215
# Velocity P-wave (km/s) = 4.09412 6.32778 5.32929
#
# Compressibility (1/GPa) = 0.03267501
#
# Stress axis : x y z
#
# Youngs Moduli (GPa) = 36.76539 61.87309 157.05400
#
# Poissons Ratio (x) = 0.22551 0.52179
# Poissons Ratio (y) = 0.13400 0.24497
# Poissons Ratio (z) = 0.12215 0.09651
#
# Static dielectric constant tensor:
#      x y z
#    x 2.086830 0.000000 -0.112150 
#    y 0.000000 1.979840 0.000000 
#    z -0.112150 0.000000 1.889210 
# 
# From -- ./inp_files/90622.got.cif
#   From: 2010.05.17/outbox.cif.g08.bks.cpg/sg15_46_cif.got.tgz:90622.got - 2010.06.03 18:47:42.
