data_PCOD9302951
_publ_section_title
;
Structure prediction by ZEFSAII (Michael W. Deem and Ramdas Pophale) SiO2 
 PCOD9302951
Probable space group: C 2/C
;
_chemical_formula_sum "Si O2"
_cell_formula_units_Z 64
_cell_length_a 12.465224
_cell_length_b 26.551293
_cell_length_c 14.751818
_cell_angle_alpha 90.000000
_cell_angle_beta 39.883332
_cell_angle_gamma 90.000000
_cell_volume 3130.709139
_symmetry_space_group_name_H-M "C 2/C"
_symmetry_group_IT_number 15
_symmetry_cell_setting 'monoclinic'
loop_
_space_group_symop_operation_xyz
x,y,z
-x,y,1/2-z
-x,-y,-z
x,-y,1/2+z
1/2+x,1/2+y,z
1/2-x,1/2+y,1/2-z
1/2-x,1/2-y,-z
1/2+x,1/2-y,1/2+z
loop_
_atom_site_type_symbol
_atom_site_label
_atom_site_fract_x
_atom_site_fract_y
_atom_site_fract_z
Si Si1 0.412284 0.589528 0.098588
Si Si2 0.460720 0.793602 0.590105
Si Si3 0.158281 0.798624 0.216990
Si Si4 0.347022 0.444558 0.913956
Si Si5 0.575727 0.409276 0.302502
Si Si6 0.340782 0.026257 0.561254
Si Si7 0.045536 0.599115 0.322309
Si Si8 0.666086 0.341196 0.685555
O O1 0.568759 0.561007 0.042796
O O2 0.398265 0.638855 0.173670
O O3 0.220539 0.572031 0.233715
O O4 0.446403 0.592220 0.969664
O O5 0.657356 0.787423 0.441893
O O6 0.387726 0.743069 0.679623
O O7 0.443189 0.840979 0.670143
O O8 0.335109 0.810140 0.590390
O O9 0.164540 0.855106 0.251617
O O10 0.000000 0.797380 0.250000
O O11 0.500000 0.459472 0.750000
O O12 0.218816 0.488909 0.979709
O O13 0.294832 0.390792 0.902431
O O14 0.500000 0.412151 0.250000
O O15 0.699673 0.456961 0.224208
O O16 0.401440 0.078546 0.479531
O O17 0.500000 0.000000 0.500000
O O18 0.000000 0.587923 0.250000
O O19 0.500000 0.316541 0.750000
#
# Coordination Sequence:
#
# PCOD9302951 Si02
#       8
#     8   8   8   8   8   8   8   8
#     4   9  20  39  64  86 120 168 213 251 311 386
#     4  11  22  41  64  93 126 167 209 268 324 388
#     4  11  25  39  64  93 129 169 213 261 329 387
#     4   9  19  39  65  90 119 172 214 251 318 383
#     4  11  24  41  61  92 131 164 211 265 317 377
#     4  12  23  39  62  89 128 165 205 268 323 372
#     4  11  23  38  60  90 125 164 210 260 321 379
#     4   8  18  40  70  93 124 171 214 263 321 385
#
# _framework density 20.442651999999999
#
# number of rings (size 3 to 8) (size 9 to 14) (size 15 to 20)
#    0.000    2.000    1.250    4.125    5.250    1.000 
#    0.000    8.750    0.000    0.000    0.000    0.000 
#    0.000    0.000    0.000    0.000    0.000    0.000 
#
# Total GULP energy -178266.395477 kJ/mol
# GULP energy per Si atom -5570.824859 kJ/mol
# Density = 2.039612 g / cm^3
# Si number density = 20.442652 Si / 1000 Ang^3
#
#
#
# Elastic Constant Matrix: (Units=GPa)
#
#
# Indices 1 2 3 4 5 6 
#
# 1 114.1192 25.0511 35.8247 0.0000 -22.9994 0.0000
# 2 25.0511 89.3664 20.7259 0.0000 -18.7301 0.0000
# 3 35.8247 20.7259 84.8483 0.0000 -8.4738 0.0000
# 4 0.0000 0.0000 0.0000 17.5109 0.0000 -9.5676
# 5 -22.9994 -18.7301 -8.4738 0.0000 33.6456 0.0000
# 6 0.0000 0.0000 0.0000 -9.5676 0.0000 14.3464
#
#
#
# Elastic Compliance Matrix: (Units=1/GPa)
#
#
# Indices 1 2 3 4 5 6 
#
# 1 0.011501 -0.000976 -0.003987 0.000000 0.006315 0.000000
# 2 -0.000976 0.013268 -0.002214 0.000000 0.006162 0.000000
# 3 -0.003987 -0.002214 0.013966 0.000000 -0.000440 0.000000
# 4 0.000000 0.000000 0.000000 0.089845 0.000000 0.059917
# 5 0.006315 0.006162 -0.000440 0.000000 0.037357 0.000000
# 6 0.000000 0.000000 0.000000 0.059917 0.000000 0.109663
#
#
# Mechanical properties :
#
#
# Convention : Reuss Voigt Hill
#
# Bulk Modulus (GPa) = 41.01341 50.17082 45.59211
# Shear Modulus (GPa) = 16.77398 26.88274 21.82836
#
# Velocity S-wave (km/s) = 2.86761 3.63027 3.27124
# Velocity P-wave (km/s) = 5.57409 6.49364 6.05136
#
# Compressibility (1/GPa) = 0.02438227
#
# Stress axis : x y z
#
# Youngs Moduli (GPa) = 86.94707 75.36792 71.60301
#
# Poissons Ratio (x) = 0.07355 0.28548
# Poissons Ratio (y) = 0.08485 0.15850
# Poissons Ratio (z) = 0.34666 0.16684
#
# Static dielectric constant tensor:
#      x y z
#    x 1.804800 0.000000 -0.024270 
#    y 0.000000 1.749480 0.000000 
#    z -0.024270 0.000000 1.746410 
# 
# From -- ./inp_files/149169.got.cif
#   From: 2010.05.17/outbox.cif.g08.bks.cpg/sg15_75_cif.got.tgz:149169.got - 2010.06.03 18:47:42.
