data_PCOD9302094
_publ_section_title
;
Structure prediction by ZEFSAII (Michael W. Deem and Ramdas Pophale) SiO2 
 PCOD9302094
Probable space group: C 2/C
;
_chemical_formula_sum "Si O2"
_cell_formula_units_Z 52
_cell_length_a 6.619807
_cell_length_b 23.933839
_cell_length_c 20.403316
_cell_angle_alpha 90.000000
_cell_angle_beta 117.380005
_cell_angle_gamma 90.000000
_cell_volume 2870.513826
_symmetry_space_group_name_H-M "C 2/C"
_symmetry_group_IT_number 15
_symmetry_cell_setting 'monoclinic'
loop_
_space_group_symop_operation_xyz
x,y,z
-x,y,1/2-z
-x,-y,-z
x,-y,1/2+z
1/2+x,1/2+y,z
1/2-x,1/2+y,1/2-z
1/2-x,1/2-y,-z
1/2+x,1/2-y,1/2+z
loop_
_atom_site_type_symbol
_atom_site_label
_atom_site_fract_x
_atom_site_fract_y
_atom_site_fract_z
Si Si1 0.551548 0.910969 0.591558
Si Si2 0.519910 0.806011 0.676620
Si Si3 0.554917 0.910343 0.076838
Si Si4 0.926455 0.995569 0.664802
Si Si5 0.771030 0.803928 0.175471
Si Si6 0.210217 0.991332 0.081140
Si Si7 0.000000 0.251501 0.250000
O O1 0.483958 0.855772 0.620988
O O2 0.520586 0.904815 0.509413
O O3 0.804255 0.935056 0.642913
O O4 0.385634 0.959871 0.590636
O O5 0.500000 0.824818 0.750000
O O6 0.352171 0.752093 0.649005
O O7 0.776199 0.784665 0.702503
O O8 0.743054 0.958862 0.113052
O O9 0.671132 0.853628 0.118133
O O10 0.338566 0.932953 0.085865
O O11 0.000000 0.006745 0.750000
O O12 0.128807 0.001389 0.643208
O O13 0.579170 0.787464 0.199655
O O14 0.000000 0.820730 0.250000
O O15 0.000000 0.000000 0.000000
#
# Coordination Sequence:
#
# PCOD9302094 Si02
#       7
#     8   8   8   8   8   8   4
#     4  11  23  37  60  89 119 155 196 244 300 359
#     4   9  21  38  59  87 118 153 197 249 294 352
#     4  11  22  39  60  87 121 157 196 245 298 355
#     4  11  24  38  60  91 118 154 202 245 293 361
#     4   9  20  39  61  86 117 153 201 248 292 348
#     4  11  21  42  59  82 123 162 190 240 307 352
#     4   8  18  40  58  82 118 154 194 240 294 348
#
# _framework density 18.115224000000001
#
# number of rings (size 3 to 8) (size 9 to 14) (size 15 to 20)
#    0.000    2.154    3.077    1.385    3.231    7.385 
#    0.000    0.769    0.000    0.000    0.000    0.000 
#    0.000    0.000    0.000    0.000    0.000    0.000 
#
# Total GULP energy -145003.721337 kJ/mol
# GULP energy per Si atom -5577.066205 kJ/mol
# Density = 1.807399 g / cm^3
# Si number density = 18.115224 Si / 1000 Ang^3
#
#
#
# Elastic Constant Matrix: (Units=GPa)
#
#
# Indices 1 2 3 4 5 6 
#
# 1 134.8319 44.5973 40.1323 0.0000 -19.8605 0.0000
# 2 44.5973 109.8428 39.0999 0.0000 -10.0644 0.0000
# 3 40.1323 39.0999 72.0680 0.0000 -19.5543 0.0000
# 4 0.0000 0.0000 0.0000 49.3515 0.0000 -0.5555
# 5 -19.8605 -10.0644 -19.5543 0.0000 23.0756 0.0000
# 6 0.0000 0.0000 0.0000 -0.5555 0.0000 14.2547
#
#
#
# Elastic Compliance Matrix: (Units=1/GPa)
#
#
# Indices 1 2 3 4 5 6 
#
# 1 0.009810 -0.002557 -0.002711 0.000000 0.005031 0.000000
# 2 -0.002557 0.011952 -0.005510 0.000000 -0.001657 0.000000
# 3 -0.002711 -0.005510 0.022192 0.000000 0.014070 0.000000
# 4 0.000000 0.000000 0.000000 0.020272 0.000000 0.000790
# 5 0.005031 -0.001657 0.014070 0.000000 0.058866 0.000000
# 6 0.000000 0.000000 0.000000 0.000790 0.000000 0.070183
#
#
# Mechanical properties :
#
#
# Convention : Reuss Voigt Hill
#
# Bulk Modulus (GPa) = 44.64546 62.71130 53.67838
# Shear Modulus (GPa) = 22.49249 30.19723 26.34486
#
# Velocity S-wave (km/s) = 3.52751 4.08726 3.81766
# Velocity P-wave (km/s) = 6.42572 7.54768 7.00918
#
# Compressibility (1/GPa) = 0.02239869
#
# Stress axis : x y z
#
# Youngs Moduli (GPa) = 101.93298 83.67036 45.06115
#
# Poissons Ratio (x) = 0.21397 0.12214
# Poissons Ratio (y) = 0.26067 0.24828
# Poissons Ratio (z) = 0.27629 0.46102
#
# Static dielectric constant tensor:
#      x y z
#    x 1.623840 0.000000 0.001140 
#    y 0.000000 1.636340 0.000000 
#    z 0.001140 0.000000 1.600550 
# 
# From -- ./inp_files/228202.got.cif
#   From: 2010.05.17/outbox.cif.g08.bks.cpg/sg15_115_cif.got.tgz:228202.got - 2010.06.03 18:47:42.
