data_PCOD9302470
_publ_section_title
;
Structure prediction by ZEFSAII (Michael W. Deem and Ramdas Pophale) SiO2 
 PCOD9302470
Probable space group: C 2/C
;
_chemical_formula_sum "Si O2"
_cell_formula_units_Z 52
_cell_length_a 17.346652
_cell_length_b 19.903730
_cell_length_c 8.435048
_cell_angle_alpha 90.000000
_cell_angle_beta 122.905061
_cell_angle_gamma 90.000000
_cell_volume 2445.094120
_symmetry_space_group_name_H-M "C 2/C"
_symmetry_group_IT_number 15
_symmetry_cell_setting 'monoclinic'
loop_
_space_group_symop_operation_xyz
x,y,z
-x,y,1/2-z
-x,-y,-z
x,-y,1/2+z
1/2+x,1/2+y,z
1/2-x,1/2+y,1/2-z
1/2-x,1/2-y,-z
1/2+x,1/2-y,1/2+z
loop_
_atom_site_type_symbol
_atom_site_label
_atom_site_fract_x
_atom_site_fract_y
_atom_site_fract_z
Si Si1 0.891217 0.803215 0.159791
Si Si2 0.678407 0.701483 0.567952
Si Si3 0.835735 0.596269 0.775155
Si Si4 0.333453 0.952571 0.859542
Si Si5 0.607149 0.852469 0.837353
Si Si6 0.000000 0.432787 0.250000
Si Si7 0.293134 0.662995 0.222410
O O1 0.870282 0.820489 0.321782
O O2 0.864126 0.724636 0.122087
O O3 0.000000 0.810413 0.250000
O O4 0.838140 0.835799 0.949771
O O5 0.766707 0.653749 0.649530
O O6 0.638372 0.686773 0.345472
O O7 0.715426 0.777644 0.629006
O O8 0.806989 0.518239 0.731312
O O9 0.932957 0.606456 0.794686
O O10 0.843481 0.608169 0.969470
O O11 0.372575 0.892589 0.797065
O O12 0.249956 0.912134 0.847477
O O13 0.423242 0.972479 0.064323
O O14 0.500000 0.853329 0.750000
#
# Coordination Sequence:
#
# PCOD9302470 Si02
#       7
#     8   8   8   8   8   4   8
#     4  11  24  44  69  95 121 169 222 277 332 372
#     4  11  23  43  64  92 133 171 213 267 322 381
#     4  12  24  38  61  92 133 175 210 254 314 392
#     4  12  24  38  61  92 133 175 210 254 314 392
#     4  11  22  37  58  87 128 168 205 258 311 382
#     4  12  24  38  54 100 136 178 216 234 310 404
#     4  11  23  43  64  92 133 171 213 267 322 381
#
# _framework density 21.267074999999998
#
# number of rings (size 3 to 8) (size 9 to 14) (size 15 to 20)
#    0.000    0.615    6.154    2.769    2.154    0.615 
#    0.000    0.000    0.000    0.923    0.000    0.000 
#    0.000    0.000    0.000    0.000    0.000    0.000 
#
# Total GULP energy -144858.098719 kJ/mol
# GULP energy per Si atom -5571.465335 kJ/mol
# Density = 2.121867 g / cm^3
# Si number density = 21.267075 Si / 1000 Ang^3
#
#
#
# Elastic Constant Matrix: (Units=GPa)
#
#
# Indices 1 2 3 4 5 6 
#
# 1 108.6893 27.1440 30.4144 0.0000 -31.5685 0.0000
# 2 27.1440 108.8875 19.9244 0.0000 8.9641 0.0000
# 3 30.4144 19.9244 78.1122 0.0000 -21.1155 0.0000
# 4 0.0000 0.0000 0.0000 34.1710 0.0000 -8.6372
# 5 -31.5685 8.9641 -21.1155 0.0000 35.1753 0.0000
# 6 0.0000 0.0000 0.0000 -8.6372 0.0000 27.1000
#
#
#
# Elastic Compliance Matrix: (Units=1/GPa)
#
#
# Indices 1 2 3 4 5 6 
#
# 1 0.014582 -0.004632 -0.000763 0.000000 0.013809 0.000000
# 2 -0.004632 0.011800 -0.003752 0.000000 -0.009417 0.000000
# 3 -0.000763 -0.003752 0.016867 0.000000 0.010396 0.000000
# 4 0.000000 0.000000 0.000000 0.031829 0.000000 0.010144
# 5 0.013809 -0.009417 0.010396 0.000000 0.049462 0.000000
# 6 0.000000 0.000000 0.000000 0.010144 0.000000 0.040134
#
#
# Mechanical properties :
#
#
# Convention : Reuss Voigt Hill
#
# Bulk Modulus (GPa) = 40.07379 50.07274 45.07327
# Shear Modulus (GPa) = 26.13891 33.83632 29.98762
#
# Velocity S-wave (km/s) = 3.50963 3.99309 3.75914
# Velocity P-wave (km/s) = 5.94200 6.69742 6.33099
#
# Compressibility (1/GPa) = 0.02495396
#
# Stress axis : x y z
#
# Youngs Moduli (GPa) = 68.57918 84.74397 59.28893
#
# Poissons Ratio (x) = 0.39255 0.04525
# Poissons Ratio (y) = 0.31767 0.22244
# Poissons Ratio (z) = 0.05235 0.31795
#
# Static dielectric constant tensor:
#      x y z
#    x 1.838530 0.000000 -0.094180 
#    y 0.000000 1.731410 0.000000 
#    z -0.094180 0.000000 1.959110 
# 
# From -- ./inp_files/49215.got.cif
#   From: 2010.05.17/outbox.cif.g08.bks.cpg/sg15_25_cif.got.tgz:49215.got - 2010.06.03 18:47:42.
