data_PCOD9302214
_publ_section_title
;
Structure prediction by ZEFSAII (Michael W. Deem and Ramdas Pophale) SiO2 
 PCOD9302214
Probable space group: C 2/C
;
_chemical_formula_sum "Si O2"
_cell_formula_units_Z 64
_cell_length_a 13.234758
_cell_length_b 19.869575
_cell_length_c 16.286175
_cell_angle_alpha 90.000000
_cell_angle_beta 138.906718
_cell_angle_gamma 90.000000
_cell_volume 2815.001602
_symmetry_space_group_name_H-M "C 2/C"
_symmetry_group_IT_number 15
_symmetry_cell_setting 'monoclinic'
loop_
_space_group_symop_operation_xyz
x,y,z
-x,y,1/2-z
-x,-y,-z
x,-y,1/2+z
1/2+x,1/2+y,z
1/2-x,1/2+y,1/2-z
1/2-x,1/2-y,-z
1/2+x,1/2-y,1/2+z
loop_
_atom_site_type_symbol
_atom_site_label
_atom_site_fract_x
_atom_site_fract_y
_atom_site_fract_z
Si Si1 0.919742 0.691404 0.485775
Si Si2 0.249521 0.738269 0.734977
Si Si3 0.370744 0.361722 0.607983
Si Si4 0.666827 0.515697 0.935060
Si Si5 0.734537 0.994685 0.813473
Si Si6 0.900916 0.106954 0.819899
Si Si7 0.587515 0.634829 0.091348
Si Si8 0.527404 0.059346 0.451672
O O1 0.839255 0.744522 0.374015
O O2 0.790122 0.672211 0.471686
O O3 0.072244 0.714285 0.626799
O O4 0.968292 0.627649 0.458092
O O5 0.334636 0.675999 0.742777
O O6 0.224692 0.811452 0.679477
O O7 0.500000 0.336446 0.750000
O O8 0.344503 0.440937 0.607449
O O9 0.447298 0.351554 0.566874
O O10 0.503514 0.552886 0.835855
O O11 0.727139 0.504134 0.066408
O O12 0.794466 0.558819 0.964899
O O13 0.851701 0.939101 0.848709
O O14 0.570579 0.964768 0.687491
O O15 0.770837 0.065215 0.790691
O O16 0.024291 0.131880 0.962097
O O17 0.500000 0.000000 0.500000
#
# Coordination Sequence:
#
# PCOD9302214 Si02
#       8
#     8   8   8   8   8   8   8   8
#     4  12  27  46  70 101 149 193 236 300 362 433
#     4  12  25  47  69 100 144 195 235 288 369 429
#     4  12  22  40  68 105 142 184 232 294 361 427
#     4  11  24  41  71 108 137 183 243 296 367 430
#     4  11  21  43  71 102 136 185 237 297 358 431
#     4  11  23  43  73 100 137 185 239 291 353 437
#     4  11  21  43  69  95 139 189 233 285 358 431
#     4  12  24  42  70 107 141 179 239 309 366 412
#
# _framework density 22.735334000000002
#
# number of rings (size 3 to 8) (size 9 to 14) (size 15 to 20)
#    0.000    0.500    7.500    1.875    0.000    1.500 
#    2.250    0.625    5.500    0.000    0.000    0.000 
#    0.000    0.000    0.000    0.000    0.000    0.000 
#
# Total GULP energy -178817.417790 kJ/mol
# GULP energy per Si atom -5588.044306 kJ/mol
# Density = 2.268359 g / cm^3
# Si number density = 22.735334 Si / 1000 Ang^3
#
#
#
# Elastic Constant Matrix: (Units=GPa)
#
#
# Indices 1 2 3 4 5 6 
#
# 1 61.7422 8.3978 11.3390 0.0001 9.9066 0.0000
# 2 8.3978 106.8128 24.5659 0.0001 3.8953 0.0000
# 3 11.3390 24.5659 82.8083 0.0001 16.5080 0.0000
# 4 0.0001 0.0001 0.0001 48.1031 0.0002 7.9321
# 5 9.9066 3.8953 16.5080 0.0002 35.2969 0.0001
# 6 0.0000 0.0000 0.0000 7.9321 0.0001 27.1753
#
#
#
# Elastic Compliance Matrix: (Units=1/GPa)
#
#
# Indices 1 2 3 4 5 6 
#
# 1 0.017217 -0.000913 -0.001261 0.000000 -0.004142 0.000000
# 2 -0.000913 0.010099 -0.002978 0.000000 0.000534 0.000000
# 3 -0.001261 -0.002978 0.014332 0.000000 -0.006021 0.000000
# 4 0.000000 0.000000 0.000000 0.021840 0.000000 -0.006375
# 5 -0.004142 0.000534 -0.006021 0.000000 0.032250 0.000000
# 6 0.000000 0.000000 0.000000 -0.006375 0.000000 0.038659
#
#
# Mechanical properties :
#
#
# Convention : Reuss Voigt Hill
#
# Bulk Modulus (GPa) = 31.90231 37.77430 34.83830
# Shear Modulus (GPa) = 32.22725 35.91909 34.07317
#
# Velocity S-wave (km/s) = 3.76905 3.97908 3.87549
# Velocity P-wave (km/s) = 5.74487 6.14505 5.94832
#
# Compressibility (1/GPa) = 0.03134569
#
# Stress axis : x y z
#
# Youngs Moduli (GPa) = 58.08346 99.01722 69.77251
#
# Poissons Ratio (x) = 0.09036 0.08799
# Poissons Ratio (y) = 0.05300 0.20775
# Poissons Ratio (z) = 0.07325 0.29483
#
# Static dielectric constant tensor:
#      x y z
#    x 1.846510 0.000000 -0.008000 
#    y 0.000000 1.896480 0.000000 
#    z -0.008000 0.000000 1.883890 
# 
# From -- ./inp_files/206477.got.cif
#   From: 2010.05.17/outbox.cif.g08.bks.cpg/sg15_104_cif.got.tgz:206477.got - 2010.06.03 18:47:42.
