data_PCOD9302876
_publ_section_title
;
Structure prediction by ZEFSAII (Michael W. Deem and Ramdas Pophale) SiO2 
 PCOD9302876
Probable space group: C 2/C
;
_chemical_formula_sum "Si O2"
_cell_formula_units_Z 48
_cell_length_a 11.646598
_cell_length_b 14.949067
_cell_length_c 15.026894
_cell_angle_alpha 90.000000
_cell_angle_beta 81.697531
_cell_angle_gamma 90.000000
_cell_volume 2588.849377
_symmetry_space_group_name_H-M "C 2/C"
_symmetry_group_IT_number 15
_symmetry_cell_setting 'monoclinic'
loop_
_space_group_symop_operation_xyz
x,y,z
-x,y,1/2-z
-x,-y,-z
x,-y,1/2+z
1/2+x,1/2+y,z
1/2-x,1/2+y,1/2-z
1/2-x,1/2-y,-z
1/2+x,1/2-y,1/2+z
loop_
_atom_site_type_symbol
_atom_site_label
_atom_site_fract_x
_atom_site_fract_y
_atom_site_fract_z
Si Si1 0.399083 0.499441 0.436090
Si Si2 0.697493 0.727347 0.249225
Si Si3 0.000000 0.913421 0.750000
Si Si4 0.241865 0.180852 0.580804
Si Si5 0.008988 0.411872 0.443142
Si Si6 0.783691 0.663124 0.051095
Si Si7 0.500000 0.125243 0.750000
O O1 0.500000 0.500000 0.500000
O O2 0.452858 0.528302 0.335831
O O3 0.346646 0.399942 0.429889
O O4 0.298205 0.576104 0.461510
O O5 0.602662 0.649319 0.278250
O O6 0.770259 0.763038 0.325507
O O7 0.768438 0.689975 0.156654
O O8 0.613120 0.810641 0.234561
O O9 0.250000 0.250000 0.500000
O O10 0.366967 0.133983 0.569809
O O11 0.912534 0.352508 0.501307
O O12 0.000000 0.500000 0.500000
O O13 0.989563 0.430029 0.341117
O O14 0.750000 0.750000 0.000000
#
# Coordination Sequence:
#
# PCOD9302876 Si02
#       7
#     8   8   4   8   8   8   4
#     4  11  24  41  63  93 126 168 210 259 311 375
#     4   9  19  38  63  87 118 166 211 253 313 372
#     4   9  20  40  62  87 120 166 216 255 310 379
#     4  11  24  42  62  91 132 167 204 264 320 371
#     4  11  22  43  62  94 126 162 213 260 321 373
#     4  11  22  40  68  94 120 165 214 260 311 383
#     4   9  18  36  64  85 122 166 202 253 314 375
#
# _framework density 18.541055
#
# number of rings (size 3 to 8) (size 9 to 14) (size 15 to 20)
#    0.000    1.667    3.333    1.000    4.667    1.333 
#    3.000    0.000    0.000    0.000    0.000    0.000 
#    0.000    0.000    0.000    0.000    0.000    0.000 
#
# Total GULP energy -133720.774331 kJ/mol
# GULP energy per Si atom -5571.698930 kJ/mol
# Density = 1.849885 g / cm^3
# Si number density = 18.541055 Si / 1000 Ang^3
#
#
#
# Elastic Constant Matrix: (Units=GPa)
#
#
# Indices 1 2 3 4 5 6 
#
# 1 72.1262 30.3337 47.2587 0.0000 4.9635 0.0000
# 2 30.3337 118.9968 66.7898 0.0000 14.1408 0.0000
# 3 47.2587 66.7898 140.6412 0.0000 9.3800 0.0000
# 4 0.0000 0.0000 0.0000 39.6898 0.0000 -2.1032
# 5 4.9635 14.1408 9.3800 0.0000 33.5394 0.0000
# 6 0.0000 0.0000 0.0000 -2.1032 0.0000 28.8328
#
#
#
# Elastic Compliance Matrix: (Units=1/GPa)
#
#
# Indices 1 2 3 4 5 6 
#
# 1 0.018016 -0.001570 -0.005273 0.000000 -0.000530 0.000000
# 2 -0.001570 0.011981 -0.004933 0.000000 -0.003440 0.000000
# 3 -0.005273 -0.004933 0.011244 0.000000 -0.000284 0.000000
# 4 0.000000 0.000000 0.000000 0.025293 0.000000 0.001845
# 5 -0.000530 -0.003440 -0.000284 0.000000 0.031424 0.000000
# 6 0.000000 0.000000 0.000000 0.001845 0.000000 0.034817
#
#
# Mechanical properties :
#
#
# Convention : Reuss Voigt Hill
#
# Bulk Modulus (GPa) = 56.53079 68.94761 62.73920
# Shear Modulus (GPa) = 30.82164 32.90454 31.86309
#
# Velocity S-wave (km/s) = 4.08161 4.21727 4.15000
# Velocity P-wave (km/s) = 7.26419 7.80903 7.54153
#
# Compressibility (1/GPa) = 0.01768948
#
# Stress axis : x y z
#
# Youngs Moduli (GPa) = 55.50521 83.46389 88.93878
#
# Poissons Ratio (x) = 0.13104 0.46897
# Poissons Ratio (y) = 0.08715 0.43872
# Poissons Ratio (z) = 0.29268 0.41171
#
# Static dielectric constant tensor:
#      x y z
#    x 1.632710 0.000000 0.039570 
#    y 0.000000 1.605490 0.000000 
#    z 0.039570 0.000000 1.637230 
# 
# From -- ./inp_files/143597.got.cif
#   From: 2010.05.17/outbox.cif.g08.bks.cpg/sg15_72_cif.got.tgz:143597.got - 2010.06.03 18:47:42.
