data_PCOD9302948
_publ_section_title
;
Structure prediction by ZEFSAII (Michael W. Deem and Ramdas Pophale) SiO2 
 PCOD9302948
Probable space group: C 2/C
;
_chemical_formula_sum "Si O2"
_cell_formula_units_Z 56
_cell_length_a 25.863711
_cell_length_b 9.573018
_cell_length_c 11.227942
_cell_angle_alpha 90.000000
_cell_angle_beta 66.395252
_cell_angle_gamma 90.000000
_cell_volume 2547.367285
_symmetry_space_group_name_H-M "C 2/C"
_symmetry_group_IT_number 15
_symmetry_cell_setting 'monoclinic'
loop_
_space_group_symop_operation_xyz
x,y,z
-x,y,1/2-z
-x,-y,-z
x,-y,1/2+z
1/2+x,1/2+y,z
1/2-x,1/2+y,1/2-z
1/2-x,1/2-y,-z
1/2+x,1/2-y,1/2+z
loop_
_atom_site_type_symbol
_atom_site_label
_atom_site_fract_x
_atom_site_fract_y
_atom_site_fract_z
Si Si1 0.475634 0.920094 0.637494
Si Si2 0.303930 0.758629 0.869539
Si Si3 0.348594 0.969002 0.250305
Si Si4 0.857376 0.953854 0.481888
Si Si5 0.266732 0.529241 0.755975
Si Si6 0.983955 0.901155 0.403458
Si Si7 0.689519 0.308887 0.599405
O O1 0.500000 0.954746 0.750000
O O2 0.410655 0.968837 0.683784
O O3 0.488920 0.754160 0.610473
O O4 0.500000 0.000000 0.500000
O O5 0.321936 0.916973 0.861992
O O6 0.287064 0.689318 0.758342
O O7 0.250000 0.750000 0.000000
O O8 0.350203 0.657123 0.882484
O O9 0.300860 0.974485 0.190768
O O10 0.342899 0.813274 0.302946
O O11 0.856099 0.115687 0.443209
O O12 0.801293 0.958858 0.615896
O O13 0.916049 0.904292 0.481082
O O14 0.288956 0.438938 0.843673
O O15 0.000000 0.945983 0.250000
O O16 0.000000 0.000000 0.500000
O O17 0.750000 0.250000 0.500000
#
# Coordination Sequence:
#
# PCOD9302948 Si02
#       7
#     8   8   8   8   8   8   8
#     4  11  29  52  72 108 150 201 256 309 378 445
#     4  11  22  41  64 101 143 184 229 292 383 438
#     4  12  24  43  73 104 148 187 239 314 366 448
#     4  11  25  43  72  97 147 186 241 304 363 456
#     4  11  24  40  68 107 138 187 241 293 377 446
#     4  11  28  50  77 106 142 198 261 312 366 444
#     4  11  24  43  66 111 148 182 239 295 381 457
#
# _framework density 21.983481000000001
#
# number of rings (size 3 to 8) (size 9 to 14) (size 15 to 20)
#    0.000    0.857    2.857    3.429    8.000    4.000 
#    0.000    0.000    0.000    0.000    0.000    0.000 
#    0.000    0.000    0.000    0.000    0.000    0.000 
#
# Total GULP energy -155883.664903 kJ/mol
# GULP energy per Si atom -5567.273747 kJ/mol
# Density = 2.193345 g / cm^3
# Si number density = 21.983481 Si / 1000 Ang^3
#
#
#
# Elastic Constant Matrix: (Units=GPa)
#
#
# Indices 1 2 3 4 5 6 
#
# 1 158.4182 33.3577 20.0603 0.0000 -8.9103 0.0000
# 2 33.3577 87.5382 12.4476 0.0000 12.3815 0.0000
# 3 20.0603 12.4476 74.4873 0.0000 4.0729 0.0000
# 4 0.0000 0.0000 0.0000 39.7279 0.0000 3.6784
# 5 -8.9103 12.3815 4.0729 0.0000 35.7689 0.0000
# 6 0.0000 0.0000 0.0000 3.6784 0.0000 13.8450
#
#
#
# Elastic Compliance Matrix: (Units=1/GPa)
#
#
# Indices 1 2 3 4 5 6 
#
# 1 0.007320 -0.002987 -0.001639 0.000000 0.003044 0.000000
# 2 -0.002987 0.013473 -0.001159 0.000000 -0.005276 0.000000
# 3 -0.001639 -0.001159 0.014149 0.000000 -0.001618 0.000000
# 4 0.000000 0.000000 0.000000 0.025806 0.000000 -0.006856
# 5 0.003044 -0.005276 -0.001618 0.000000 0.030726 0.000000
# 6 0.000000 0.000000 0.000000 -0.006856 0.000000 0.074050
#
#
# Mechanical properties :
#
#
# Convention : Reuss Voigt Hill
#
# Bulk Modulus (GPa) = 42.78439 50.24165 46.51302
# Shear Modulus (GPa) = 27.04415 34.84023 30.94219
#
# Velocity S-wave (km/s) = 3.51123 3.98532 3.75576
# Velocity P-wave (km/s) = 5.99522 6.63935 6.32549
#
# Compressibility (1/GPa) = 0.02337301
#
# Stress axis : x y z
#
# Youngs Moduli (GPa) = 136.61063 74.22388 70.67879
#
# Poissons Ratio (x) = 0.22170 0.11582
# Poissons Ratio (y) = 0.40805 0.08188
# Poissons Ratio (z) = 0.22386 0.08599
#
# Static dielectric constant tensor:
#      x y z
#    x 1.787050 0.000000 0.024760 
#    y 0.000000 1.841360 0.000000 
#    z 0.024760 0.000000 1.951180 
# 
# From -- ./inp_files/121862.got.cif
#   From: 2010.05.17/outbox.cif.g08.bks.cpg/sg15_61_cif.got.tgz:121862.got - 2010.06.03 18:47:42.
