data_PCOD9302630
_publ_section_title
;
Structure prediction by ZEFSAII (Michael W. Deem and Ramdas Pophale) SiO2 
 PCOD9302630
Probable space group: C 2/C
;
_chemical_formula_sum "Si O2"
_cell_formula_units_Z 40
_cell_length_a 9.110326
_cell_length_b 28.886884
_cell_length_c 14.843350
_cell_angle_alpha 90.000000
_cell_angle_beta 151.875752
_cell_angle_gamma 90.000000
_cell_volume 1841.375884
_symmetry_space_group_name_H-M "C 2/C"
_symmetry_group_IT_number 15
_symmetry_cell_setting 'monoclinic'
loop_
_space_group_symop_operation_xyz
x,y,z
-x,y,1/2-z
-x,-y,-z
x,-y,1/2+z
1/2+x,1/2+y,z
1/2-x,1/2+y,1/2-z
1/2-x,1/2-y,-z
1/2+x,1/2-y,1/2+z
loop_
_atom_site_type_symbol
_atom_site_label
_atom_site_fract_x
_atom_site_fract_y
_atom_site_fract_z
Si Si1 0.267969 0.810910 0.705674
Si Si2 0.860191 0.362070 0.078824
Si Si3 0.781483 0.044319 0.056973
Si Si4 0.719637 0.026870 0.298473
Si Si5 0.156089 0.295263 0.096712
O O1 0.500000 0.826771 0.750000
O O2 0.157505 0.759603 0.616157
O O3 0.968129 0.841152 0.567563
O O4 0.443847 0.805790 0.895791
O O5 0.000000 0.379273 0.250000
O O6 0.048985 0.322187 0.128423
O O7 0.864646 0.405321 0.011001
O O8 0.000000 0.020387 0.250000
O O9 0.072254 0.058398 0.150329
O O10 0.515726 0.009340 0.878016
O O11 0.500000 0.052060 0.250000
O O12 0.000000 0.000000 0.500000
O O13 0.500000 0.308685 0.250000
#
# Coordination Sequence:
#
# PCOD9302630 Si02
#       5
#     8   8   8   8   8
#     4  11  22  39  62  89 121 160 201 246 299 357
#     4  12  24  40  60  88 122 159 201 251 301 355
#     4  11  22  39  61  89 118 151 196 247 299 357
#     4   9  19  38  61  84 113 152 191 234 293 361
#     4  11  22  40  61  88 121 160 203 246 297 358
#
# _framework density 21.722888000000001
#
# number of rings (size 3 to 8) (size 9 to 14) (size 15 to 20)
#    0.000    1.200    0.000    9.600    0.000    0.800 
#    0.000   11.000    0.000    0.000    0.000    0.000 
#    0.000    0.000    0.000    0.000    0.000    0.000 
#
# Total GULP energy -111386.164720 kJ/mol
# GULP energy per Si atom -5569.308236 kJ/mol
# Density = 2.167345 g / cm^3
# Si number density = 21.722888 Si / 1000 Ang^3
#
#
#
# Elastic Constant Matrix: (Units=GPa)
#
#
# Indices 1 2 3 4 5 6 
#
# 1 64.6132 9.0224 2.4895 0.0000 16.0321 0.0000
# 2 9.0224 68.6980 18.7865 0.0000 15.9367 0.0000
# 3 2.4895 18.7865 141.2098 0.0000 -6.3573 0.0000
# 4 0.0000 0.0000 0.0000 16.2707 0.0000 -5.3563
# 5 16.0321 15.9367 -6.3573 0.0000 40.9027 0.0000
# 6 0.0000 0.0000 0.0000 -5.3563 0.0000 40.1296
#
#
#
# Elastic Compliance Matrix: (Units=1/GPa)
#
#
# Indices 1 2 3 4 5 6 
#
# 1 0.017217 -0.000587 -0.000523 0.000000 -0.006601 0.000000
# 2 -0.000587 0.016894 -0.002541 0.000000 -0.006747 0.000000
# 3 -0.000523 -0.002541 0.007535 0.000000 0.002366 0.000000
# 4 0.000000 0.000000 0.000000 0.064285 0.000000 0.008580
# 5 -0.006601 -0.006747 0.002366 0.000000 0.030032 0.000000
# 6 0.000000 0.000000 0.000000 0.008580 0.000000 0.026065
#
#
# Mechanical properties :
#
#
# Convention : Reuss Voigt Hill
#
# Bulk Modulus (GPa) = 29.11662 37.23529 33.17596
# Shear Modulus (GPa) = 27.65851 35.74211 31.70031
#
# Velocity S-wave (km/s) = 3.57212 4.06071 3.82423
# Velocity P-wave (km/s) = 5.51781 6.25812 5.89959
#
# Compressibility (1/GPa) = 0.03434464
#
# Stress axis : x y z
#
# Youngs Moduli (GPa) = 58.08348 59.19403 132.70631
#
# Poissons Ratio (x) = 0.03475 0.06935
# Poissons Ratio (y) = 0.03409 0.33720
# Poissons Ratio (z) = 0.03035 0.15041
#
# Static dielectric constant tensor:
#      x y z
#    x 2.140140 0.000000 -0.195220 
#    y 0.000000 1.732610 0.000000 
#    z -0.195220 0.000000 1.940040 
# 
# From -- ./inp_files/25334.got.cif
#   From: 2010.05.17/outbox.cif.g08.bks.cpg/sg15_13_cif.got.tgz:25334.got - 2010.06.03 18:47:42.
