data_PCOD9302315
_publ_section_title
;
Structure prediction by ZEFSAII (Michael W. Deem and Ramdas Pophale) SiO2 
 PCOD9302315
Probable space group: C 2/C
;
_chemical_formula_sum "Si O2"
_cell_formula_units_Z 40
_cell_length_a 5.410042
_cell_length_b 27.272929
_cell_length_c 10.989188
_cell_angle_alpha 90.000000
_cell_angle_beta 68.910246
_cell_angle_gamma 90.000000
_cell_volume 1512.822573
_symmetry_space_group_name_H-M "C 2/C"
_symmetry_group_IT_number 15
_symmetry_cell_setting 'monoclinic'
loop_
_space_group_symop_operation_xyz
x,y,z
-x,y,1/2-z
-x,-y,-z
x,-y,1/2+z
1/2+x,1/2+y,z
1/2-x,1/2+y,1/2-z
1/2-x,1/2-y,-z
1/2+x,1/2-y,1/2+z
loop_
_atom_site_type_symbol
_atom_site_label
_atom_site_fract_x
_atom_site_fract_y
_atom_site_fract_z
Si Si1 0.063451 0.286909 0.106112
Si Si2 0.000000 0.497844 0.250000
Si Si3 0.783508 0.576280 0.133912
Si Si4 0.396517 0.824156 0.888659
Si Si5 0.000000 0.935230 0.250000
Si Si6 0.580533 0.378406 0.457763
O O1 0.206994 0.337847 0.115726
O O2 0.000000 0.265061 0.250000
O O3 0.250000 0.250000 0.000000
O O4 0.867597 0.299657 0.027638
O O5 0.998749 0.537236 0.361539
O O6 0.254498 0.466083 0.242055
O O7 0.500000 0.567623 0.250000
O O8 0.899097 0.630535 0.135974
O O9 0.717695 0.576975 0.003756
O O10 0.500000 0.795660 0.750000
O O11 0.114622 0.849512 0.917681
O O12 0.081899 0.899781 0.125425
#
# Coordination Sequence:
#
# PCOD9302315 Si02
#       6
#     8   4   8   8   4   8
#     4  11  28  49  79 117 158 202 262 327 403 487
#     4  12  26  46  72 111 158 207 282 324 404 468
#     4  11  21  45  71 112 149 201 265 334 384 473
#     4  11  23  44  80 108 153 204 263 324 405 471
#     4  12  30  46  72 107 160 215 258 340 404 468
#     4  11  26  47  77 105 157 204 262 324 408 473
#
# _framework density 26.440642
#
# number of rings (size 3 to 8) (size 9 to 14) (size 15 to 20)
#    0.000    0.800    4.000    1.200    9.800    2.400 
#    1.800    0.000    0.000    0.000    0.000    0.000 
#    0.000    0.000    0.000    0.000    0.000    0.000 
#
# Total GULP energy -111780.418109 kJ/mol
# GULP energy per Si atom -5589.020905 kJ/mol
# Density = 2.638046 g / cm^3
# Si number density = 26.440642 Si / 1000 Ang^3
#
#
#
# Elastic Constant Matrix: (Units=GPa)
#
#
# Indices 1 2 3 4 5 6 
#
# 1 135.1892 44.6376 38.6885 0.0000 21.7174 0.0000
# 2 44.6376 85.3586 45.1801 0.0000 18.4578 0.0000
# 3 38.6885 45.1801 200.6166 0.0000 18.8897 0.0000
# 4 0.0000 0.0000 0.0000 20.2227 0.0000 13.0825
# 5 21.7174 18.4578 18.8897 0.0000 40.2024 0.0000
# 6 0.0000 0.0000 0.0000 13.0825 0.0000 54.1113
#
#
#
# Elastic Compliance Matrix: (Units=1/GPa)
#
#
# Indices 1 2 3 4 5 6 
#
# 1 0.009346 -0.003908 -0.000644 0.000000 -0.002952 0.000000
# 2 -0.003908 0.015934 -0.002453 0.000000 -0.004052 0.000000
# 3 -0.000644 -0.002453 0.005778 0.000000 -0.001241 0.000000
# 4 0.000000 0.000000 0.000000 0.058617 0.000000 -0.014172
# 5 -0.002952 -0.004052 -0.001241 0.000000 0.028912 0.000000
# 6 0.000000 0.000000 0.000000 -0.014172 0.000000 0.021907
#
#
# Mechanical properties :
#
#
# Convention : Reuss Voigt Hill
#
# Bulk Modulus (GPa) = 58.66285 75.35297 67.00791
# Shear Modulus (GPa) = 31.21351 42.41783 36.81567
#
# Velocity S-wave (km/s) = 3.43959 4.00967 3.73552
# Velocity P-wave (km/s) = 6.16515 7.07089 6.63350
#
# Compressibility (1/GPa) = 0.01704656
#
# Stress axis : x y z
#
# Youngs Moduli (GPa) = 106.99754 62.76050 173.06524
#
# Poissons Ratio (x) = 0.24528 0.11151
# Poissons Ratio (y) = 0.41816 0.42456
# Poissons Ratio (z) = 0.06894 0.15396
#
# Static dielectric constant tensor:
#      x y z
#    x 2.138770 0.000000 0.025810 
#    y 0.000000 2.142360 0.000000 
#    z 0.025810 0.000000 2.114880 
# 
# From -- ./inp_files/73161.got.cif
#   From: 2010.05.17/outbox.cif.g08.bks.cpg/sg15_37_cif.got.tgz:73161.got - 2010.06.03 18:47:42.
