data_PCOD9302297
_publ_section_title
;
Structure prediction by ZEFSAII (Michael W. Deem and Ramdas Pophale) SiO2 
 PCOD9302297
Probable space group: C 2/C
;
_chemical_formula_sum "Si O2"
_cell_formula_units_Z 40
_cell_length_a 10.740311
_cell_length_b 22.074129
_cell_length_c 11.462593
_cell_angle_alpha 90.000000
_cell_angle_beta 141.776444
_cell_angle_gamma 90.000000
_cell_volume 1681.455913
_symmetry_space_group_name_H-M "C 2/C"
_symmetry_group_IT_number 15
_symmetry_cell_setting 'monoclinic'
loop_
_space_group_symop_operation_xyz
x,y,z
-x,y,1/2-z
-x,-y,-z
x,-y,1/2+z
1/2+x,1/2+y,z
1/2-x,1/2+y,1/2-z
1/2-x,1/2-y,-z
1/2+x,1/2-y,1/2+z
loop_
_atom_site_type_symbol
_atom_site_label
_atom_site_fract_x
_atom_site_fract_y
_atom_site_fract_z
Si Si1 0.380695 0.693097 0.332824
Si Si2 0.199211 0.859924 0.476171
Si Si3 0.119440 0.005679 0.961780
Si Si4 0.282413 0.878507 0.124373
Si Si5 0.553475 0.171994 0.551752
O O1 0.346607 0.676743 0.442040
O O2 0.589543 0.661800 0.451383
O O3 0.386567 0.765601 0.339842
O O4 0.187254 0.667777 0.122483
O O5 0.377534 0.831516 0.531239
O O6 0.000000 0.857074 0.250000
O O7 0.229567 0.929562 0.538027
O O8 0.000000 0.003559 0.750000
O O9 0.254439 0.945808 0.058256
O O10 0.000000 0.000000 0.000000
O O11 0.500000 0.853378 0.250000
O O12 0.314724 0.879547 0.288187
#
# Coordination Sequence:
#
# PCOD9302297 Si02
#       5
#     8   8   8   8   8
#     4  12  24  46  73 108 147 192 257 324 393 456
#     4  11  21  44  77 109 148 192 253 326 395 452
#     4  11  24  49  79 112 158 206 260 324 385 468
#     4  12  28  46  70 107 149 205 252 310 382 465
#     4  12  25  46  73 109 145 196 255 324 388 454
#
# _framework density 23.788907999999999
#
# number of rings (size 3 to 8) (size 9 to 14) (size 15 to 20)
#    0.000    0.400    6.000    2.400    2.800    2.400 
#    0.000    3.000    0.000    0.000    0.000    0.000 
#    0.000    0.000    0.000    0.000    0.000    0.000 
#
# Total GULP energy -111854.295583 kJ/mol
# GULP energy per Si atom -5592.714779 kJ/mol
# Density = 2.373476 g / cm^3
# Si number density = 23.788908 Si / 1000 Ang^3
#
#
#
# Elastic Constant Matrix: (Units=GPa)
#
#
# Indices 1 2 3 4 5 6 
#
# 1 125.3222 13.0454 33.4056 0.0000 19.3422 0.0000
# 2 13.0454 107.0674 26.6639 0.0000 10.7724 0.0000
# 3 33.4056 26.6639 121.7938 0.0000 12.9437 0.0000
# 4 0.0000 0.0000 0.0000 46.8868 0.0000 9.1415
# 5 19.3422 10.7724 12.9437 0.0000 49.6527 0.0000
# 6 0.0000 0.0000 0.0000 9.1415 0.0000 82.8952
#
#
#
# Elastic Compliance Matrix: (Units=1/GPa)
#
#
# Indices 1 2 3 4 5 6 
#
# 1 0.009017 -0.000283 -0.002103 0.000000 -0.002903 0.000000
# 2 -0.000283 0.010016 -0.001950 0.000000 -0.001555 0.000000
# 3 -0.002103 -0.001950 0.009341 0.000000 -0.001193 0.000000
# 4 0.000000 0.000000 0.000000 0.021797 0.000000 -0.002404
# 5 -0.002903 -0.001555 -0.001193 0.000000 0.021919 0.000000
# 6 0.000000 0.000000 0.000000 -0.002404 0.000000 0.012329
#
#
# Mechanical properties :
#
#
# Convention : Reuss Voigt Hill
#
# Bulk Modulus (GPa) = 50.75282 55.60146 53.17714
# Shear Modulus (GPa) = 50.17131 54.62484 52.39808
#
# Velocity S-wave (km/s) = 4.59739 4.79710 4.69831
# Velocity P-wave (km/s) = 7.04005 7.35571 7.19961
#
# Compressibility (1/GPa) = 0.01970334
#
# Stress axis : x y z
#
# Youngs Moduli (GPa) = 110.89567 99.83593 107.05431
#
# Poissons Ratio (x) = 0.02825 0.22512
# Poissons Ratio (y) = 0.03138 0.20876
# Poissons Ratio (z) = 0.23320 0.19469
#
# Static dielectric constant tensor:
#      x y z
#    x 2.077500 0.000000 -0.089680 
#    y 0.000000 1.875500 0.000000 
#    z -0.089680 0.000000 1.954080 
# 
# From -- ./inp_files/89884.got.cif
#   From: 2010.05.17/outbox.cif.g08.bks.cpg/sg15_45_cif.got.tgz:89884.got - 2010.06.03 18:47:42.
