data_PCOD9302076
_publ_section_title
;
Structure prediction by ZEFSAII (Michael W. Deem and Ramdas Pophale) SiO2 
 PCOD9302076
Probable space group: C 2/C
;
_chemical_formula_sum "Si O2"
_cell_formula_units_Z 48
_cell_length_a 13.232070
_cell_length_b 18.210122
_cell_length_c 16.193654
_cell_angle_alpha 90.000000
_cell_angle_beta 35.421456
_cell_angle_gamma 90.000000
_cell_volume 2261.536864
_symmetry_space_group_name_H-M "C 2/C"
_symmetry_group_IT_number 15
_symmetry_cell_setting 'monoclinic'
loop_
_space_group_symop_operation_xyz
x,y,z
-x,y,1/2-z
-x,-y,-z
x,-y,1/2+z
1/2+x,1/2+y,z
1/2-x,1/2+y,1/2-z
1/2-x,1/2-y,-z
1/2+x,1/2-y,1/2+z
loop_
_atom_site_type_symbol
_atom_site_label
_atom_site_fract_x
_atom_site_fract_y
_atom_site_fract_z
Si Si1 0.189181 0.513787 0.163796
Si Si2 0.865540 0.685431 0.271856
Si Si3 0.539495 0.206275 0.984091
Si Si4 0.663820 0.049370 0.863311
Si Si5 0.789735 0.195089 0.401042
Si Si6 0.680714 0.531838 0.091816
O O1 0.185596 0.601572 0.174419
O O2 0.218810 0.479842 0.235441
O O3 0.000000 0.492555 0.250000
O O4 0.319009 0.491242 0.003630
O O5 0.686782 0.731122 0.382544
O O6 0.000000 0.716409 0.250000
O O7 0.988058 0.683719 0.110395
O O8 0.622849 0.134886 0.885604
O O9 0.346119 0.222669 0.077732
O O10 0.772831 0.032846 0.874429
O O11 0.500000 0.000000 0.000000
O O12 0.750000 0.250000 0.500000
O O13 0.726004 0.111226 0.462411
O O14 0.000000 0.200230 0.250000
O O15 0.500000 0.554536 0.250000
#
# Coordination Sequence:
#
# PCOD9302076 Si02
#       6
#     8   8   8   8   8   8
#     4  11  21  41  71  96 127 175 217 264 331 395
#     4  11  24  41  65  98 135 172 217 269 330 399
#     4  12  24  43  68  95 135 175 216 276 328 393
#     4  12  21  43  70  94 126 172 221 266 326 387
#     4  11  24  43  64  92 129 170 217 273 327 384
#     4  11  25  43  66  98 132 166 220 280 325 388
#
# _framework density 21.224505000000001
#
# number of rings (size 3 to 8) (size 9 to 14) (size 15 to 20)
#    0.000    0.667    5.000    2.500    0.000    7.333 
#    0.000    0.000    0.000    0.000    0.000    0.000 
#    0.000    0.000    0.000    0.000    0.000    0.000 
#
# Total GULP energy -133621.006052 kJ/mol
# GULP energy per Si atom -5567.541919 kJ/mol
# Density = 2.117620 g / cm^3
# Si number density = 21.224505 Si / 1000 Ang^3
#
#
#
# Elastic Constant Matrix: (Units=GPa)
#
#
# Indices 1 2 3 4 5 6 
#
# 1 107.5675 43.6730 40.0017 0.0024 14.0841 -0.0013
# 2 43.6730 69.9319 66.2415 0.0018 -1.8630 -0.0008
# 3 40.0017 66.2415 118.0853 0.0098 23.8492 -0.0043
# 4 0.0024 0.0018 0.0098 32.4116 -0.0026 2.9479
# 5 14.0841 -1.8630 23.8492 -0.0026 42.1501 0.0007
# 6 -0.0013 -0.0008 -0.0043 2.9479 0.0007 19.6401
#
#
#
# Elastic Compliance Matrix: (Units=1/GPa)
#
#
# Indices 1 2 3 4 5 6 
#
# 1 0.013904 -0.012404 0.003722 -0.000002 -0.007300 0.000002
# 2 -0.012404 0.048729 -0.027554 0.000009 0.021889 -0.000007
# 3 0.003722 -0.027554 0.026150 -0.000009 -0.017258 0.000007
# 4 -0.000002 0.000009 -0.000009 0.031280 0.000008 -0.004695
# 5 -0.007300 0.021889 -0.017258 0.000008 0.036896 -0.000006
# 6 0.000002 -0.000007 0.000007 -0.004695 -0.000006 0.051621
#
#
# Mechanical properties :
#
#
# Convention : Reuss Voigt Hill
#
# Bulk Modulus (GPa) = 61.30472 66.15746 63.73109
# Shear Modulus (GPa) = 17.45268 28.55160 23.00214
#
# Velocity S-wave (km/s) = 2.87067 3.67170 3.29561
# Velocity P-wave (km/s) = 6.31936 7.01521 6.67636
#
# Compressibility (1/GPa) = 0.01631196
#
# Stress axis : x y z
#
# Youngs Moduli (GPa) = 71.92169 20.52158 38.24096
#
# Poissons Ratio (x) = 0.25454 -0.14235
# Poissons Ratio (y) = 0.89208 1.05371
# Poissons Ratio (z) = -0.26772 0.56546
#
# Static dielectric constant tensor:
#      x y z
#    x 1.283270 -0.000070 -0.457220 
#    y -0.000070 1.403770 -0.000050 
#    z -0.457220 -0.000050 1.438520 
# 
# From -- ./inp_files/147348.got.cif
#   From: 2010.05.17/outbox.cif.g08.bks.cpg/sg15_74_cif.got.tgz:147348.got - 2010.06.03 18:47:42.
