data_PCOD9302422
_publ_section_title
;
Structure prediction by ZEFSAII (Michael W. Deem and Ramdas Pophale) SiO2 
 PCOD9302422
Probable space group: C 2/C
;
_chemical_formula_sum "Si O2"
_cell_formula_units_Z 52
_cell_length_a 9.556691
_cell_length_b 14.989998
_cell_length_c 18.270506
_cell_angle_alpha 90.000000
_cell_angle_beta 71.230838
_cell_angle_gamma 90.000000
_cell_volume 2478.154039
_symmetry_space_group_name_H-M "C 2/C"
_symmetry_group_IT_number 15
_symmetry_cell_setting 'monoclinic'
loop_
_space_group_symop_operation_xyz
x,y,z
-x,y,1/2-z
-x,-y,-z
x,-y,1/2+z
1/2+x,1/2+y,z
1/2-x,1/2+y,1/2-z
1/2-x,1/2-y,-z
1/2+x,1/2-y,1/2+z
loop_
_atom_site_type_symbol
_atom_site_label
_atom_site_fract_x
_atom_site_fract_y
_atom_site_fract_z
Si Si1 0.301101 0.810081 0.652599
Si Si2 0.067873 0.638407 0.516886
Si Si3 0.422679 0.472229 0.833835
Si Si4 0.632212 0.862858 0.173961
Si Si5 0.287318 0.453100 0.634792
Si Si6 0.726060 0.056407 0.980170
Si Si7 0.500000 0.858594 0.750000
O O1 0.356084 0.802057 0.558821
O O2 0.200994 0.900122 0.669456
O O3 0.201699 0.727385 0.692092
O O4 0.435881 0.813841 0.687026
O O5 0.077879 0.659834 0.600754
O O6 0.146338 0.540979 0.497652
O O7 0.898967 0.625319 0.521851
O O8 0.500000 0.512527 0.750000
O O9 0.557337 0.427559 0.855536
O O10 0.348501 0.544866 0.897998
O O11 0.500000 0.892073 0.250000
O O12 0.754205 0.940881 0.147023
O O13 0.288468 0.426543 0.549762
O O14 0.143926 0.411337 0.697270
#
# Coordination Sequence:
#
# PCOD9302422 Si02
#       7
#     8   8   8   8   8   8   4
#     4  11  23  43  63  91 123 164 206 254 312 361
#     4   9  19  37  64  89 123 163 206 245 307 371
#     4  11  22  35  64  90 123 160 209 253 300 363
#     4  11  24  38  62  93 126 160 201 258 312 366
#     4  11  22  40  62  93 125 160 209 252 305 363
#     4   9  19  35  61  94 123 160 202 258 298 358
#     4  12  22  40  66  88 120 168 208 252 302 380
#
# _framework density 20.983360999999999
#
# number of rings (size 3 to 8) (size 9 to 14) (size 15 to 20)
#    0.000    1.538    3.846    1.385    4.308    0.000 
#    1.385    0.000    0.000    2.769    0.000    0.000 
#    0.000    0.000    0.000    0.000    0.000    0.000 
#
# Total GULP energy -145113.430742 kJ/mol
# GULP energy per Si atom -5581.285798 kJ/mol
# Density = 2.093560 g / cm^3
# Si number density = 20.983361 Si / 1000 Ang^3
#
#
#
# Elastic Constant Matrix: (Units=GPa)
#
#
# Indices 1 2 3 4 5 6 
#
# 1 100.8474 -7.3821 41.8109 0.0000 13.2067 0.0000
# 2 -7.3821 6.5765 -5.5613 0.0000 1.1571 0.0000
# 3 41.8109 -5.5613 136.1340 0.0000 -1.2277 0.0000
# 4 0.0000 0.0000 0.0000 0.5060 0.0000 -4.1883
# 5 13.2067 1.1571 -1.2277 0.0000 45.6760 0.0000
# 6 0.0000 0.0000 0.0000 -4.1883 0.0000 11.1688
#
#
#
# Elastic Compliance Matrix: (Units=1/GPa)
#
#
# Indices 1 2 3 4 5 6 
#
# 1 0.012777 0.012132 -0.003466 0.000000 -0.004095 0.000000
# 2 0.012132 0.169685 0.003136 0.000000 -0.007722 0.000000
# 3 -0.003466 0.003136 0.008549 0.000000 0.001152 0.000000
# 4 0.000000 0.000000 0.000000 -0.939335 0.000000 -0.352253
# 5 -0.004095 -0.007722 0.001152 0.000000 0.023304 0.000000
# 6 0.000000 0.000000 0.000000 -0.352253 0.000000 -0.042560
#
#
# Mechanical properties :
#
#
# Convention : Reuss Voigt Hill
#
# Bulk Modulus (GPa) = 4.65949 33.47698 19.06824
# Shear Modulus (GPa) = -6.94784 25.78287 9.41752
#
# Velocity S-wave (km/s) = -1.82162 3.50913 2.12081
# Velocity P-wave (km/s) = 1.48291 5.69274 3.88641
#
# Compressibility (1/GPa) = 0.21461560
#
# Stress axis : x y z
#
# Youngs Moduli (GPa) = 78.26495 5.89329 116.97842
#
# Poissons Ratio (x) = -0.07150 0.40539
# Poissons Ratio (y) = -0.94952 -0.36685
# Poissons Ratio (z) = 0.27123 -0.01848
#
# Static dielectric constant tensor:
#      x y z
#    x 1.752080 0.000000 0.013350 
#    y 0.000000 1.717260 0.000000 
#    z 0.013350 0.000000 1.773630 
# 
# From -- ./inp_files/190320.got.cif
#   From: 2010.05.17/outbox.cif.g08.bks.cpg/sg15_96_cif.got.tgz:190320.got - 2010.06.03 18:47:42.
