data_PCOD9302253
_publ_section_title
;
Structure prediction by ZEFSAII (Michael W. Deem and Ramdas Pophale) SiO2 
 PCOD9302253
Probable space group: C 2/C
;
_chemical_formula_sum "Si O2"
_cell_formula_units_Z 64
_cell_length_a 19.075861
_cell_length_b 12.250622
_cell_length_c 30.851395
_cell_angle_alpha 90.000000
_cell_angle_beta 152.369617
_cell_angle_gamma 90.000000
_cell_volume 3343.612314
_symmetry_space_group_name_H-M "C 2/C"
_symmetry_group_IT_number 15
_symmetry_cell_setting 'monoclinic'
loop_
_space_group_symop_operation_xyz
x,y,z
-x,y,1/2-z
-x,-y,-z
x,-y,1/2+z
1/2+x,1/2+y,z
1/2-x,1/2+y,1/2-z
1/2-x,1/2-y,-z
1/2+x,1/2-y,1/2+z
loop_
_atom_site_type_symbol
_atom_site_label
_atom_site_fract_x
_atom_site_fract_y
_atom_site_fract_z
Si Si1 0.083998 0.230418 0.842920
Si Si2 0.033367 0.651772 0.133534
Si Si3 0.759839 0.986619 0.048728
Si Si4 0.185750 0.108629 0.071943
Si Si5 0.175371 0.196176 0.360720
Si Si6 0.361313 0.299579 0.386817
Si Si7 0.200912 0.577445 0.922947
Si Si8 0.144581 0.503273 0.258073
O O1 0.116220 0.106398 0.874631
O O2 0.234382 0.301218 0.914777
O O3 0.000000 0.231020 0.750000
O O4 0.014932 0.287916 0.847999
O O5 0.100061 0.733921 0.135456
O O6 0.148122 0.560021 0.213438
O O7 0.894027 0.584250 0.037022
O O8 0.775903 0.081243 0.092594
O O9 0.761780 0.049178 0.003810
O O10 0.196229 0.993326 0.053009
O O11 0.286340 0.086782 0.169295
O O12 0.017478 0.147484 0.988998
O O13 0.282877 0.223617 0.379296
O O14 0.195451 0.297115 0.405478
O O15 0.000000 0.194552 0.250000
O O16 0.243648 0.395610 0.313318
O O17 0.029034 0.529237 0.825773
#
# Coordination Sequence:
#
# PCOD9302253 Si02
#       8
#     8   8   8   8   8   8   8   8
#     4  12  21  43  73  97 131 173 220 274 331 396
#     4  11  24  44  64  99 133 168 223 278 335 380
#     4  11  24  41  68 100 128 173 221 276 326 395
#     4  12  20  41  72  99 121 168 230 275 324 386
#     4  12  25  47  66  92 138 183 224 263 333 412
#     4  12  26  43  64  99 139 173 218 278 332 392
#     4  11  21  43  74  93 128 171 229 275 326 390
#     4  11  22  43  67  98 128 176 221 275 327 393
#
# _framework density 19.140974
#
# number of rings (size 3 to 8) (size 9 to 14) (size 15 to 20)
#    0.000    0.500    7.500    2.625    0.000    0.500 
#   11.250    0.000    0.000    0.000    0.000    0.000 
#    0.000    0.000    0.000    0.000    0.000    0.000 
#
# Total GULP energy -178704.507617 kJ/mol
# GULP energy per Si atom -5584.515863 kJ/mol
# Density = 1.909741 g / cm^3
# Si number density = 19.140974 Si / 1000 Ang^3
#
#
#
# Elastic Constant Matrix: (Units=GPa)
#
#
# Indices 1 2 3 4 5 6 
#
# 1 97.9131 64.5172 59.3913 0.0000 7.2031 -0.0002
# 2 64.5172 146.0987 56.8958 0.0002 -14.5033 0.0000
# 3 59.3913 56.8958 75.3993 0.0022 -6.3094 -0.0006
# 4 0.0000 0.0002 0.0022 8.5465 0.0000 0.7969
# 5 7.2031 -14.5033 -6.3094 0.0000 17.9240 0.0000
# 6 -0.0002 0.0000 -0.0006 0.7969 0.0000 9.2736
#
#
#
# Elastic Compliance Matrix: (Units=1/GPa)
#
#
# Indices 1 2 3 4 5 6 
#
# 1 0.028236 -0.007663 -0.018471 0.000005 -0.024050 -0.000001
# 2 -0.007663 0.012314 -0.002230 0.000000 0.012259 0.000000
# 3 -0.018471 -0.002230 0.030875 -0.000008 0.016487 0.000002
# 4 0.000005 0.000000 -0.000008 0.117952 -0.000005 -0.010136
# 5 -0.024050 0.012259 0.016487 -0.000005 0.081179 0.000001
# 6 -0.000001 0.000000 0.000002 -0.010136 0.000001 0.108704
#
#
# Mechanical properties :
#
#
# Convention : Reuss Voigt Hill
#
# Bulk Modulus (GPa) = 68.04606 75.66884 71.85745
# Shear Modulus (GPa) = 11.34078 16.38927 13.86503
#
# Velocity S-wave (km/s) = 2.43675 2.92933 2.69432
# Velocity P-wave (km/s) = 6.59880 7.14560 6.87763
#
# Compressibility (1/GPa) = 0.01469593
#
# Stress axis : x y z
#
# Youngs Moduli (GPa) = 35.41608 81.20733 32.38905
#
# Poissons Ratio (x) = 0.62230 0.59826
# Poissons Ratio (y) = 0.27140 0.07223
# Poissons Ratio (z) = 0.65417 0.18111
#
# Static dielectric constant tensor:
#      x y z
#    x 1.666920 0.000000 -0.017910 
#    y 0.000000 1.678920 0.000000 
#    z -0.017910 0.000000 1.695970 
# 
# From -- ./inp_files/316233.got.cif
#   From: 2010.05.17/outbox.cif.g08.bks.cpg/sg15_159_cif.got.tgz:316233.got - 2010.06.03 18:47:42.
