data_PCOD9302217
_publ_section_title
;
Structure prediction by ZEFSAII (Michael W. Deem and Ramdas Pophale) SiO2 
 PCOD9302217
Probable space group: C 2/C
;
_chemical_formula_sum "Si O2"
_cell_formula_units_Z 56
_cell_length_a 9.743395
_cell_length_b 27.089027
_cell_length_c 10.978183
_cell_angle_alpha 90.000000
_cell_angle_beta 116.172572
_cell_angle_gamma 90.000000
_cell_volume 2600.482512
_symmetry_space_group_name_H-M "C 2/C"
_symmetry_group_IT_number 15
_symmetry_cell_setting 'monoclinic'
loop_
_space_group_symop_operation_xyz
x,y,z
-x,y,1/2-z
-x,-y,-z
x,-y,1/2+z
1/2+x,1/2+y,z
1/2-x,1/2+y,1/2-z
1/2-x,1/2-y,-z
1/2+x,1/2-y,1/2+z
loop_
_atom_site_type_symbol
_atom_site_label
_atom_site_fract_x
_atom_site_fract_y
_atom_site_fract_z
Si Si1 0.183896 0.729193 0.843682
Si Si2 0.656663 0.625237 0.566362
Si Si3 0.634033 0.973967 0.711115
Si Si4 0.682939 0.395181 0.576175
Si Si5 0.928868 0.613047 0.493921
Si Si6 0.863348 0.307979 0.773302
Si Si7 0.237253 0.423499 0.164903
O O1 0.277207 0.678181 0.867633
O O2 0.239034 0.768614 0.765196
O O3 0.000000 0.722739 0.750000
O O4 0.250000 0.750000 0.000000
O O5 0.483932 0.624107 0.452033
O O6 0.775717 0.607283 0.511256
O O7 0.654809 0.589237 0.681040
O O8 0.500000 0.991510 0.750000
O O9 0.766243 0.945434 0.836653
O O10 0.561977 0.931549 0.598711
O O11 0.697266 0.018865 0.657133
O O12 0.797267 0.352202 0.664834
O O13 0.702074 0.405168 0.440552
O O14 0.922024 0.664195 0.418096
O O15 0.081029 0.606759 0.630711
O O16 0.000000 0.284334 0.750000
#
# Coordination Sequence:
#
# PCOD9302217 Si02
#       7
#     8   8   8   8   8   8   8
#     4  12  26  48  75 109 143 190 246 298 364 446
#     4  12  27  43  67 101 143 183 226 301 365 419
#     4  11  23  42  74  98 130 192 240 290 346 427
#     4  11  25  47  64 103 143 182 239 290 362 430
#     4  11  21  43  69  98 137 177 237 287 346 421
#     4  11  23  44  75 100 136 186 234 297 351 427
#     4  12  24  43  68  98 142 180 235 294 346 428
#
# _framework density 21.534465000000001
#
# number of rings (size 3 to 8) (size 9 to 14) (size 15 to 20)
#    0.000    0.571    4.286    4.714    2.000    3.429 
#    2.571    2.143    0.000    0.000    0.000    0.000 
#    0.000    0.000    0.000    0.000    0.000    0.000 
#
# Total GULP energy -156531.723454 kJ/mol
# GULP energy per Si atom -5590.418695 kJ/mol
# Density = 2.148545 g / cm^3
# Si number density = 21.534465 Si / 1000 Ang^3
#
#
#
# Elastic Constant Matrix: (Units=GPa)
#
#
# Indices 1 2 3 4 5 6 
#
# 1 127.8065 34.7356 27.1448 0.0000 8.0449 0.0000
# 2 34.7356 59.6051 -8.1817 0.0000 4.2157 0.0000
# 3 27.1448 -8.1817 50.0580 0.0000 0.4852 0.0000
# 4 0.0000 0.0000 0.0000 22.4552 0.0000 -5.1048
# 5 8.0449 4.2157 0.4852 0.0000 38.5082 0.0000
# 6 0.0000 0.0000 0.0000 -5.1048 0.0000 32.5660
#
#
#
# Elastic Compliance Matrix: (Units=1/GPa)
#
#
# Indices 1 2 3 4 5 6 
#
# 1 0.011611 -0.007696 -0.007540 0.000000 -0.001488 0.000000
# 2 -0.007696 0.022406 0.007845 0.000000 -0.000944 0.000000
# 3 -0.007540 0.007845 0.025344 0.000000 0.000397 0.000000
# 4 0.000000 0.000000 0.000000 0.046179 0.000000 0.007239
# 5 -0.001488 -0.000944 0.000397 0.000000 0.026378 0.000000
# 6 0.000000 0.000000 0.000000 0.007239 0.000000 0.031842
#
#
# Mechanical properties :
#
#
# Convention : Reuss Voigt Hill
#
# Bulk Modulus (GPa) = 22.43266 38.31855 30.37560
# Shear Modulus (GPa) = 25.85311 30.95728 28.40519
#
# Velocity S-wave (km/s) = 3.46865 3.79564 3.63582
# Velocity P-wave (km/s) = 5.14604 6.08620 5.63576
#
# Compressibility (1/GPa) = 0.04457787
#
# Stress axis : x y z
#
# Youngs Moduli (GPa) = 86.12471 44.63146 39.45747
#
# Poissons Ratio (x) = 0.34349 0.29750
# Poissons Ratio (y) = 0.66283 -0.30953
# Poissons Ratio (z) = 0.64936 -0.35012
#
# Static dielectric constant tensor:
#      x y z
#    x 1.792360 0.000000 0.025230 
#    y 0.000000 1.752350 0.000000 
#    z 0.025230 0.000000 1.812020 
# 
# From -- ./inp_files/81250.got.cif
#   From: 2010.05.17/outbox.cif.g08.bks.cpg/sg15_41_cif.got.tgz:81250.got - 2010.06.03 18:47:42.
