data_PCOD9302197
_publ_section_title
;
Structure prediction by ZEFSAII (Michael W. Deem and Ramdas Pophale) SiO2 
 PCOD9302197
Probable space group: C 2/C
;
_chemical_formula_sum "Si O2"
_cell_formula_units_Z 36
_cell_length_a 15.794315
_cell_length_b 12.859719
_cell_length_c 8.048706
_cell_angle_alpha 90.000000
_cell_angle_beta 119.197911
_cell_angle_gamma 90.000000
_cell_volume 1427.061418
_symmetry_space_group_name_H-M "C 2/C"
_symmetry_group_IT_number 15
_symmetry_cell_setting 'monoclinic'
loop_
_space_group_symop_operation_xyz
x,y,z
-x,y,1/2-z
-x,-y,-z
x,-y,1/2+z
1/2+x,1/2+y,z
1/2-x,1/2+y,1/2-z
1/2-x,1/2-y,-z
1/2+x,1/2-y,1/2+z
loop_
_atom_site_type_symbol
_atom_site_label
_atom_site_fract_x
_atom_site_fract_y
_atom_site_fract_z
Si Si1 0.328774 0.836264 0.247388
Si Si2 0.423112 0.610075 0.326677
Si Si3 0.176888 0.727703 0.280675
Si Si4 0.000000 0.851641 0.250000
Si Si5 0.706313 0.034968 0.103737
O O1 0.219619 0.791106 0.163705
O O2 0.335526 0.921454 0.400264
O O3 0.107573 0.767255 0.688654
O O4 0.338918 0.903782 0.093009
O O5 0.500000 0.604410 0.250000
O O6 0.458955 0.587341 0.549988
O O7 0.324384 0.542514 0.200752
O O8 0.250000 0.750000 0.500000
O O9 0.181266 0.608255 0.236145
O O10 0.078448 0.777034 0.242391
#
# Coordination Sequence:
#
# PCOD9302197 Si02
#       5
#     8   8   8   4   8
#     4  11  23  42  69  96 139 180 227 282 348 412
#     4  11  24  46  69 103 137 182 232 293 342 413
#     4  11  21  43  66  96 135 181 224 277 350 408
#     4  12  22  40  78  92 136 174 238 272 354 404
#     4  11  23  42  69  96 139 180 227 282 348 412
#
# _framework density 25.226665000000001
#
# number of rings (size 3 to 8) (size 9 to 14) (size 15 to 20)
#    0.000    0.889    4.444    6.667    0.000    0.000 
#    4.000    4.444    0.000    0.000    0.000    0.000 
#    0.000    0.000    0.000    0.000    0.000    0.000 
#
# Total GULP energy -100801.988449 kJ/mol
# GULP energy per Si atom -5600.110469 kJ/mol
# Density = 2.516925 g / cm^3
# Si number density = 25.226665 Si / 1000 Ang^3
#
#
#
# Elastic Constant Matrix: (Units=GPa)
#
#
# Indices 1 2 3 4 5 6 
#
# 1 131.4777 48.9733 28.8399 0.0000 -25.2146 0.0000
# 2 48.9733 163.0382 27.5742 0.0000 -23.4433 0.0000
# 3 28.8399 27.5742 107.3456 0.0000 -25.8241 0.0000
# 4 0.0000 0.0000 0.0000 34.4860 0.0000 -27.1423
# 5 -25.2146 -23.4433 -25.8241 0.0000 38.9768 0.0000
# 6 0.0000 0.0000 0.0000 -27.1423 0.0000 26.5838
#
#
#
# Elastic Compliance Matrix: (Units=1/GPa)
#
#
# Indices 1 2 3 4 5 6 
#
# 1 0.009389 -0.002051 -0.000989 0.000000 0.004185 0.000000
# 2 -0.002051 0.007236 -0.000690 0.000000 0.002568 0.000000
# 3 -0.000989 -0.000690 0.011307 0.000000 0.006437 0.000000
# 4 0.000000 0.000000 0.000000 0.147633 0.000000 0.150734
# 5 0.004185 0.002568 0.006437 0.000000 0.034173 0.000000
# 6 0.000000 0.000000 0.000000 0.150734 0.000000 0.191518
#
#
# Mechanical properties :
#
#
# Convention : Reuss Voigt Hill
#
# Bulk Modulus (GPa) = 48.84655 68.07071 58.45863
# Shear Modulus (GPa) = 12.03254 39.77429 25.90341
#
# Velocity S-wave (km/s) = 2.18635 3.97505 3.20789
# Velocity P-wave (km/s) = 5.07726 6.93615 6.07819
#
# Compressibility (1/GPa) = 0.02047227
#
# Stress axis : x y z
#
# Youngs Moduli (GPa) = 106.50202 138.20511 88.44021
#
# Poissons Ratio (x) = 0.28351 0.08745
# Poissons Ratio (y) = 0.21848 0.06100
# Poissons Ratio (z) = 0.10531 0.09533
#
# Static dielectric constant tensor:
#      x y z
#    x 1.939790 0.000000 0.031260 
#    y 0.000000 2.045710 0.000000 
#    z 0.031260 0.000000 2.021350 
# 
# From -- ./inp_files/46789.got.cif
#   From: 2010.05.17/outbox.cif.g08.bks.cpg/sg15_24_cif.got.tgz:46789.got - 2010.06.03 18:47:42.
