data_PCOD9302625
_publ_section_title
;
Structure prediction by ZEFSAII (Michael W. Deem and Ramdas Pophale) SiO2 
 PCOD9302625
Probable space group: C 2/C
;
_chemical_formula_sum "Si O2"
_cell_formula_units_Z 64
_cell_length_a 25.823051
_cell_length_b 7.703245
_cell_length_c 13.939176
_cell_angle_alpha 90.000000
_cell_angle_beta 76.108532
_cell_angle_gamma 90.000000
_cell_volume 2691.700705
_symmetry_space_group_name_H-M "C 2/C"
_symmetry_group_IT_number 15
_symmetry_cell_setting 'monoclinic'
loop_
_space_group_symop_operation_xyz
x,y,z
-x,y,1/2-z
-x,-y,-z
x,-y,1/2+z
1/2+x,1/2+y,z
1/2-x,1/2+y,1/2-z
1/2-x,1/2-y,-z
1/2+x,1/2-y,1/2+z
loop_
_atom_site_type_symbol
_atom_site_label
_atom_site_fract_x
_atom_site_fract_y
_atom_site_fract_z
Si Si1 0.440234 0.318001 0.998412
Si Si2 0.971794 0.349864 0.157535
Si Si3 0.697688 0.323784 0.267963
Si Si4 0.750599 0.071450 0.396790
Si Si5 0.605995 0.914962 0.717553
Si Si6 0.898039 0.032045 0.179944
Si Si7 0.053172 0.894994 0.162121
Si Si8 0.661469 0.816022 0.061803
O O1 0.483976 0.180281 0.943341
O O2 0.451775 0.492805 0.930847
O O3 0.383369 0.242324 0.992512
O O4 0.433174 0.388983 0.107949
O O5 0.941034 0.528644 0.188970
O O6 0.925111 0.215081 0.150802
O O7 0.000000 0.309787 0.250000
O O8 0.729949 0.222127 0.333874
O O9 0.735313 0.401027 0.168997
O O10 0.653329 0.192348 0.245554
O O11 0.662753 0.489724 0.319827
O O12 0.703389 0.051813 0.494415
O O13 0.802667 0.153007 0.423111
O O14 0.577636 0.797409 0.648298
O O15 0.631259 0.086943 0.660842
O O16 0.905015 0.999156 0.289653
O O17 0.000000 0.893744 0.250000
#
# Coordination Sequence:
#
# PCOD9302625 Si02
#       8
#     8   8   8   8   8   8   8   8
#     4  12  22  42  69 102 138 184 226 276 338 422
#     4  12  21  40  70  99 139 187 219 266 348 410
#     4  11  24  45  67  99 133 177 230 291 354 405
#     4  11  24  45  72  94 133 177 233 295 350 403
#     4  11  24  42  66  98 139 176 222 284 342 408
#     4  11  22  41  67  99 136 177 230 277 338 418
#     4  11  22  39  60  95 136 180 223 267 328 404
#     4  11  23  43  69 100 132 178 232 286 342 413
#
# _framework density 23.776788
#
# number of rings (size 3 to 8) (size 9 to 14) (size 15 to 20)
#    0.000    0.750    5.000    3.750    0.000    0.500 
#    4.500    2.500    0.000    0.000    0.000    0.000 
#    0.000    0.000    0.000    0.000    0.000    0.000 
#
# Total GULP energy -179006.768174 kJ/mol
# GULP energy per Si atom -5593.961505 kJ/mol
# Density = 2.372267 g / cm^3
# Si number density = 23.776788 Si / 1000 Ang^3
#
#
#
# Elastic Constant Matrix: (Units=GPa)
#
#
# Indices 1 2 3 4 5 6 
#
# 1 103.6230 30.9598 19.4049 0.0000 -13.3699 0.0000
# 2 30.9598 70.0868 12.2682 0.0000 -3.7191 0.0000
# 3 19.4049 12.2682 80.5206 0.0000 -17.2538 0.0000
# 4 0.0000 0.0000 0.0000 33.7193 0.0000 -7.4904
# 5 -13.3699 -3.7191 -17.2538 0.0000 36.7836 0.0000
# 6 0.0000 0.0000 0.0000 -7.4904 0.0000 53.0397
#
#
#
# Elastic Compliance Matrix: (Units=1/GPa)
#
#
# Indices 1 2 3 4 5 6 
#
# 1 0.011747 -0.004772 -0.001437 0.000000 0.003113 0.000000
# 2 -0.004772 0.016606 -0.001547 0.000000 -0.000782 0.000000
# 3 -0.001437 -0.001547 0.014292 0.000000 0.006025 0.000000
# 4 0.000000 0.000000 0.000000 0.030617 0.000000 0.004324
# 5 0.003113 -0.000782 0.006025 0.000000 0.031065 0.000000
# 6 0.000000 0.000000 0.000000 0.004324 0.000000 0.019464
#
#
# Mechanical properties :
#
#
# Convention : Reuss Voigt Hill
#
# Bulk Modulus (GPa) = 36.85704 42.16624 39.51164
# Shear Modulus (GPa) = 33.70455 37.48170 35.59312
#
# Velocity S-wave (km/s) = 3.76911 3.97470 3.87327
# Velocity P-wave (km/s) = 5.87167 6.23193 6.05448
#
# Compressibility (1/GPa) = 0.02713186
#
# Stress axis : x y z
#
# Youngs Moduli (GPa) = 85.12847 60.22092 69.96795
#
# Poissons Ratio (x) = 0.28740 0.10052
# Poissons Ratio (y) = 0.40626 0.10827
# Poissons Ratio (z) = 0.12230 0.09319
#
# Static dielectric constant tensor:
#      x y z
#    x 1.919890 0.000000 -0.015240 
#    y 0.000000 1.929710 0.000000 
#    z -0.015240 0.000000 1.902050 
# 
# From -- ./inp_files/176587.got.cif
#   From: 2010.05.17/outbox.cif.g08.bks.cpg/sg15_89_cif.got.tgz:176587.got - 2010.06.03 18:47:42.
