data_PCOD9302240
_publ_section_title
;
Structure prediction by ZEFSAII (Michael W. Deem and Ramdas Pophale) SiO2 
 PCOD9302240
Probable space group: C 2/C
;
_chemical_formula_sum "Si O2"
_cell_formula_units_Z 64
_cell_length_a 27.954229
_cell_length_b 12.104279
_cell_length_c 8.997406
_cell_angle_alpha 90.000000
_cell_angle_beta 81.484153
_cell_angle_gamma 90.000000
_cell_volume 3010.849524
_symmetry_space_group_name_H-M "C 2/C"
_symmetry_group_IT_number 15
_symmetry_cell_setting 'monoclinic'
loop_
_space_group_symop_operation_xyz
x,y,z
-x,y,1/2-z
-x,-y,-z
x,-y,1/2+z
1/2+x,1/2+y,z
1/2-x,1/2+y,1/2-z
1/2-x,1/2-y,-z
1/2+x,1/2-y,1/2+z
loop_
_atom_site_type_symbol
_atom_site_label
_atom_site_fract_x
_atom_site_fract_y
_atom_site_fract_z
Si Si1 0.918048 0.949457 0.937299
Si Si2 0.050835 0.845864 0.281530
Si Si3 0.370346 0.149859 0.258380
Si Si4 0.778877 0.790120 0.341956
Si Si5 0.157073 0.787217 0.673721
Si Si6 0.742586 0.402701 0.436890
Si Si7 0.672251 0.584937 0.445736
Si Si8 0.848958 0.445613 0.463999
O O1 0.949842 0.888898 0.047643
O O2 0.875204 0.012033 0.044805
O O3 0.889399 0.858811 0.854753
O O4 0.940526 0.045234 0.824876
O O5 0.092297 0.751799 0.245321
O O6 0.000000 0.798003 0.250000
O O7 0.316262 0.198726 0.271308
O O8 0.376101 0.084235 0.102401
O O9 0.368161 0.059862 0.389462
O O10 0.750000 0.750000 0.500000
O O11 0.748366 0.830903 0.215778
O O12 0.814965 0.883684 0.391502
O O13 0.202247 0.837028 0.553764
O O14 0.166435 0.812387 0.841097
O O15 0.145341 0.660974 0.644757
O O16 0.717382 0.510745 0.381107
O O17 0.789975 0.443398 0.501757
#
# Coordination Sequence:
#
# PCOD9302240 Si02
#       8
#     8   8   8   8   8   8   8   8
#     4  11  21  43  72 106 134 162 211 283 363 409
#     4  12  25  49  78 105 135 165 217 292 363 427
#     4  12  28  47  63 100 136 186 233 280 335 403
#     4  12  24  40  61  93 140 181 233 275 320 387
#     4  11  22  40  66  94 141 184 222 279 335 395
#     4  11  23  39  61  96 135 190 235 281 328 388
#     4  11  22  35  65  97 135 174 220 275 339 392
#     4  12  27  41  64  88 142 188 236 273 319 397
#
# _framework density 21.256460000000001
#
# number of rings (size 3 to 8) (size 9 to 14) (size 15 to 20)
#    0.000    0.500    5.000    4.500    8.750    0.000 
#    0.000    0.625    0.000    0.000    0.000    0.000 
#    0.000    0.000    0.000    0.000    0.000    0.000 
#
# Total GULP energy -178824.026452 kJ/mol
# GULP energy per Si atom -5588.250827 kJ/mol
# Density = 2.120808 g / cm^3
# Si number density = 21.256460 Si / 1000 Ang^3
#
#
#
# Elastic Constant Matrix: (Units=GPa)
#
#
# Indices 1 2 3 4 5 6 
#
# 1 64.5577 2.6078 27.6701 0.0000 14.6799 0.0000
# 2 2.6078 65.8921 26.0185 0.0000 0.2730 0.0000
# 3 27.6701 26.0185 76.6206 0.0000 24.2826 0.0000
# 4 0.0000 0.0000 0.0000 38.8384 0.0000 4.3548
# 5 14.6799 0.2730 24.2826 0.0000 22.3886 0.0000
# 6 0.0000 0.0000 0.0000 4.3548 0.0000 22.2717
#
#
#
# Elastic Compliance Matrix: (Units=1/GPa)
#
#
# Indices 1 2 3 4 5 6 
#
# 1 0.019251 0.001307 -0.005167 0.000000 -0.007035 0.000000
# 2 0.001307 0.019053 -0.010052 0.000000 0.009813 0.000000
# 3 -0.005167 -0.010052 0.026236 0.000000 -0.024945 0.000000
# 4 0.000000 0.000000 0.000000 0.026325 0.000000 -0.005147
# 5 -0.007035 0.009813 -0.024945 0.000000 0.076215 0.000000
# 6 0.000000 0.000000 0.000000 -0.005147 0.000000 0.045907
#
#
# Mechanical properties :
#
#
# Convention : Reuss Voigt Hill
#
# Bulk Modulus (GPa) = 27.23437 35.51812 31.37624
# Shear Modulus (GPa) = 19.75905 26.75133 23.25519
#
# Velocity S-wave (km/s) = 3.05217 3.55139 3.31120
# Velocity P-wave (km/s) = 5.02604 5.79328 5.42324
#
# Compressibility (1/GPa) = 0.03671831
#
# Stress axis : x y z
#
# Youngs Moduli (GPa) = 51.94421 52.48491 38.11522
#
# Poissons Ratio (x) = -0.06862 0.19693
# Poissons Ratio (y) = -0.06791 0.38313
# Poissons Ratio (z) = 0.26838 0.52758
#
# Static dielectric constant tensor:
#      x y z
#    x 1.785740 0.000000 -0.013110 
#    y 0.000000 1.837520 0.000000 
#    z -0.013110 0.000000 1.802300 
# 
# From -- ./inp_files/69393.got.cif
#   From: 2010.05.17/outbox.cif.g08.bks.cpg/sg15_35_cif.got.tgz:69393.got - 2010.06.03 18:47:42.
