data_PCOD9302860
_publ_section_title
;
Structure prediction by ZEFSAII (Michael W. Deem and Ramdas Pophale) SiO2 
 PCOD9302860
Probable space group: C 2/C
;
_chemical_formula_sum "Si O2"
_cell_formula_units_Z 48
_cell_length_a 10.159885
_cell_length_b 23.619389
_cell_length_c 8.657296
_cell_angle_alpha 90.000000
_cell_angle_beta 73.422402
_cell_angle_gamma 90.000000
_cell_volume 1991.141027
_symmetry_space_group_name_H-M "C 2/C"
_symmetry_group_IT_number 15
_symmetry_cell_setting 'monoclinic'
loop_
_space_group_symop_operation_xyz
x,y,z
-x,y,1/2-z
-x,-y,-z
x,-y,1/2+z
1/2+x,1/2+y,z
1/2-x,1/2+y,1/2-z
1/2-x,1/2-y,-z
1/2+x,1/2-y,1/2+z
loop_
_atom_site_type_symbol
_atom_site_label
_atom_site_fract_x
_atom_site_fract_y
_atom_site_fract_z
Si Si1 0.176540 0.839784 0.663150
Si Si2 0.968882 0.349347 0.430179
Si Si3 0.841479 0.447076 0.148677
Si Si4 0.840818 0.569306 0.298978
Si Si5 0.384812 0.637972 0.653315
Si Si6 0.307115 0.229976 0.640801
O O1 0.323241 0.830310 0.531825
O O2 0.226945 0.890922 0.757748
O O3 0.083394 0.857430 0.543556
O O4 0.144188 0.783467 0.772243
O O5 0.010135 0.415123 0.408131
O O6 0.088113 0.315785 0.469921
O O7 0.000000 0.326725 0.250000
O O8 0.851585 0.510023 0.205892
O O9 0.733845 0.410090 0.284771
O O10 0.794769 0.444162 0.987654
O O11 0.000000 0.592936 0.250000
O O12 0.500000 0.628455 0.750000
O O13 0.309491 0.696109 0.726419
O O14 0.250000 0.250000 0.500000
#
# Coordination Sequence:
#
# PCOD9302860 Si02
#       6
#     8   8   8   8   8   8
#     4  12  24  44  67 103 135 178 225 280 339 393
#     4  11  22  40  67  94 137 168 223 278 332 397
#     4  11  23  43  63 107 131 171 219 274 344 397
#     4  12  24  38  73 102 137 166 219 284 341 403
#     4  11  26  46  68  93 135 183 227 273 329 403
#     4  11  26  40  65 100 137 177 221 275 337 403
#
# _framework density 24.106777999999998
#
# number of rings (size 3 to 8) (size 9 to 14) (size 15 to 20)
#    0.000    0.667    5.000    4.500    2.333    0.000 
#    0.000    5.833    0.000    0.000    0.000    0.000 
#    0.000    0.000    0.000    0.000    0.000    0.000 
#
# Total GULP energy -133941.007780 kJ/mol
# GULP energy per Si atom -5580.875324 kJ/mol
# Density = 2.405191 g / cm^3
# Si number density = 24.106778 Si / 1000 Ang^3
#
#
#
# Elastic Constant Matrix: (Units=GPa)
#
#
# Indices 1 2 3 4 5 6 
#
# 1 79.6996 32.8268 5.9068 0.0000 11.7233 0.0000
# 2 32.8268 141.4868 48.3869 0.0000 4.5951 0.0000
# 3 5.9068 48.3869 125.0378 0.0000 31.7911 0.0000
# 4 0.0000 0.0000 0.0000 44.3087 0.0000 12.5841
# 5 11.7233 4.5951 31.7911 0.0000 41.0322 0.0000
# 6 0.0000 0.0000 0.0000 12.5841 0.0000 25.2176
#
#
#
# Elastic Compliance Matrix: (Units=1/GPa)
#
#
# Indices 1 2 3 4 5 6 
#
# 1 0.014862 -0.004046 0.002277 0.000000 -0.005557 0.000000
# 2 -0.004046 0.009369 -0.004311 0.000000 0.003447 0.000000
# 3 0.002277 -0.004311 0.011956 0.000000 -0.009431 0.000000
# 4 0.000000 0.000000 0.000000 0.026296 0.000000 -0.013122
# 5 -0.005557 0.003447 -0.009431 0.000000 0.032880 0.000000
# 6 0.000000 0.000000 0.000000 -0.013122 0.000000 0.046203
#
#
# Mechanical properties :
#
#
# Convention : Reuss Voigt Hill
#
# Bulk Modulus (GPa) = 41.62080 57.82947 49.72513
# Shear Modulus (GPa) = 30.91458 39.38529 35.14994
#
# Velocity S-wave (km/s) = 3.58495 4.04640 3.82264
# Velocity P-wave (km/s) = 5.86843 6.77289 6.33682
#
# Compressibility (1/GPa) = 0.02402645
#
# Stress axis : x y z
#
# Youngs Moduli (GPa) = 67.28368 106.73600 83.63947
#
# Poissons Ratio (x) = 0.43190 -0.19042
# Poissons Ratio (y) = 0.27226 0.36055
# Poissons Ratio (z) = -0.15318 0.46011
#
# Static dielectric constant tensor:
#      x y z
#    x 1.790510 0.000000 -0.079240 
#    y 0.000000 1.896030 0.000000 
#    z -0.079240 0.000000 1.959730 
# 
# From -- ./inp_files/31893.got.cif
#   From: 2010.05.17/outbox.cif.g08.bks.cpg/sg15_16_cif.got.tgz:31893.got - 2010.06.03 18:47:42.
