data_PCOD9302299
_publ_section_title
;
Structure prediction by ZEFSAII (Michael W. Deem and Ramdas Pophale) SiO2 
 PCOD9302299
Probable space group: C 2/C
;
_chemical_formula_sum "Si O2"
_cell_formula_units_Z 40
_cell_length_a 27.686828
_cell_length_b 12.370265
_cell_length_c 4.942385
_cell_angle_alpha 90.000000
_cell_angle_beta 74.186814
_cell_angle_gamma 90.000000
_cell_volume 1628.673230
_symmetry_space_group_name_H-M "C 2/C"
_symmetry_group_IT_number 15
_symmetry_cell_setting 'monoclinic'
loop_
_space_group_symop_operation_xyz
x,y,z
-x,y,1/2-z
-x,-y,-z
x,-y,1/2+z
1/2+x,1/2+y,z
1/2-x,1/2+y,1/2-z
1/2-x,1/2-y,-z
1/2+x,1/2-y,1/2+z
loop_
_atom_site_type_symbol
_atom_site_label
_atom_site_fract_x
_atom_site_fract_y
_atom_site_fract_z
Si Si1 0.791946 0.941408 0.305934
Si Si2 0.613424 0.628227 0.083603
Si Si3 0.628906 0.075449 0.030268
Si Si4 0.440670 0.720192 0.860059
Si Si5 0.797139 0.246219 0.230367
O O1 0.789395 0.832251 0.483228
O O2 0.770489 0.029523 0.546314
O O3 0.851571 0.956486 0.138213
O O4 0.574039 0.629619 0.391856
O O5 0.658103 0.698671 0.151771
O O6 0.583557 0.685402 0.886886
O O7 0.585370 0.163850 0.038816
O O8 0.625809 0.024833 0.331257
O O9 0.680843 0.141227 0.912650
O O10 0.500000 0.730100 0.750000
O O11 0.750000 0.250000 0.500000
#
# Coordination Sequence:
#
# PCOD9302299 Si02
#       5
#     8   8   8   8   8
#     4  12  23  43  71 101 131 180 235 283 343 415
#     4  11  21  45  66 100 137 180 224 287 346 400
#     4  11  24  43  66 100 143 180 226 283 340 405
#     4  11  23  42  73 102 135 187 232 280 352 423
#     4  11  26  45  71 100 144 185 232 285 355 410
#
# _framework density 24.559868000000002
#
# number of rings (size 3 to 8) (size 9 to 14) (size 15 to 20)
#    0.000    0.800    6.000    3.000    0.000    3.200 
#    0.000    0.000    0.000   12.000    0.000    0.000 
#    0.000    0.000    0.000    0.000    0.000    0.000 
#
# Total GULP energy -111742.309467 kJ/mol
# GULP energy per Si atom -5587.115473 kJ/mol
# Density = 2.450397 g / cm^3
# Si number density = 24.559868 Si / 1000 Ang^3
#
#
#
# Elastic Constant Matrix: (Units=GPa)
#
#
# Indices 1 2 3 4 5 6 
#
# 1 80.9815 18.2524 47.2287 0.0000 -16.7870 0.0000
# 2 18.2524 57.7306 35.5979 0.0000 -1.9157 0.0000
# 3 47.2287 35.5979 166.6678 0.0000 2.8156 0.0000
# 4 0.0000 0.0000 0.0000 53.4786 0.0000 -1.3804
# 5 -16.7870 -1.9157 2.8156 0.0000 60.2749 0.0000
# 6 0.0000 0.0000 0.0000 -1.3804 0.0000 31.5007
#
#
#
# Elastic Compliance Matrix: (Units=1/GPa)
#
#
# Indices 1 2 3 4 5 6 
#
# 1 0.016297 -0.002421 -0.004180 0.000000 0.004657 0.000000
# 2 -0.002421 0.020351 -0.003663 0.000000 0.000144 0.000000
# 3 -0.004180 -0.003663 0.007995 0.000000 -0.001654 0.000000
# 4 0.000000 0.000000 0.000000 0.018720 0.000000 0.000820
# 5 0.004657 0.000144 -0.001654 0.000000 0.017970 0.000000
# 6 0.000000 0.000000 0.000000 0.000820 0.000000 0.031781
#
#
# Mechanical properties :
#
#
# Convention : Reuss Voigt Hill
#
# Bulk Modulus (GPa) = 41.46729 56.39312 48.93021
# Shear Modulus (GPa) = 35.29099 42.67091 38.98095
#
# Velocity S-wave (km/s) = 3.79481 4.17276 3.98827
# Velocity P-wave (km/s) = 6.01012 6.79906 6.41673
#
# Compressibility (1/GPa) = 0.02411539
#
# Stress axis : x y z
#
# Youngs Moduli (GPa) = 61.36035 49.13837 125.08268
#
# Poissons Ratio (x) = 0.11895 0.52282
# Poissons Ratio (y) = 0.14854 0.45819
# Poissons Ratio (z) = 0.25647 0.18000
#
# Static dielectric constant tensor:
#      x y z
#    x 1.978940 0.000000 0.013850 
#    y 0.000000 2.099970 0.000000 
#    z 0.013850 0.000000 1.971540 
# 
# From -- ./inp_files/16833.got.cif
#   From: 2010.05.17/outbox.cif.g08.bks.cpg/sg15_9_cif.got.tgz:16833.got - 2010.06.03 18:47:42.
