data_PCOD9302527
_publ_section_title
;
Structure prediction by ZEFSAII (Michael W. Deem and Ramdas Pophale) SiO2 
 PCOD9302527
Probable space group: C 2/C
;
_chemical_formula_sum "Si O2"
_cell_formula_units_Z 36
_cell_length_a 10.979078
_cell_length_b 22.268970
_cell_length_c 8.548771
_cell_angle_alpha 90.000000
_cell_angle_beta 121.116844
_cell_angle_gamma 90.000000
_cell_volume 1789.377161
_symmetry_space_group_name_H-M "C 2/C"
_symmetry_group_IT_number 15
_symmetry_cell_setting 'monoclinic'
loop_
_space_group_symop_operation_xyz
x,y,z
-x,y,1/2-z
-x,-y,-z
x,-y,1/2+z
1/2+x,1/2+y,z
1/2-x,1/2+y,1/2-z
1/2-x,1/2-y,-z
1/2+x,1/2-y,1/2+z
loop_
_atom_site_type_symbol
_atom_site_label
_atom_site_fract_x
_atom_site_fract_y
_atom_site_fract_z
Si Si1 0.791618 0.170332 0.932534
Si Si2 0.500000 0.156243 0.250000
Si Si3 0.269854 0.357295 0.780764
Si Si4 0.476706 0.567248 0.921409
Si Si5 0.070480 0.256990 0.082325
O O1 0.840327 0.109446 0.874416
O O2 0.654775 0.202607 0.765417
O O3 0.756601 0.153359 0.087593
O O4 0.927599 0.217114 0.024431
O O5 0.367493 0.118690 0.222539
O O6 0.534409 0.199353 0.417625
O O7 0.312318 0.293121 0.883031
O O8 0.400464 0.398876 0.903492
O O9 0.500000 0.569035 0.750000
O O10 0.500000 0.500000 0.000000
#
# Coordination Sequence:
#
# PCOD9302527 Si02
#       5
#     8   4   8   8   8
#     4  11  24  39  65  93 132 170 219 263 324 381
#     4  12  24  34  60  90 140 166 216 260 324 388
#     4  11  24  38  60  95 125 173 212 260 322 375
#     4  11  23  43  70  95 123 164 220 269 314 384
#     4  11  22  38  57  93 130 174 209 267 319 384
#
# _framework density 20.118732999999999
#
# number of rings (size 3 to 8) (size 9 to 14) (size 15 to 20)
#    0.000    0.889    2.222    6.667    9.333    0.000 
#    0.000    0.000    0.000   12.000    0.000    0.000 
#    0.000    0.000    0.000    0.000    0.000    0.000 
#
# Total GULP energy -100456.667234 kJ/mol
# GULP energy per Si atom -5580.925957 kJ/mol
# Density = 2.007294 g / cm^3
# Si number density = 20.118733 Si / 1000 Ang^3
#
#
#
# Elastic Constant Matrix: (Units=GPa)
#
#
# Indices 1 2 3 4 5 6 
#
# 1 80.0568 0.8017 11.3567 0.0000 -5.7458 0.0000
# 2 0.8017 98.0190 27.1555 0.0000 -0.8788 0.0000
# 3 11.3567 27.1555 106.8061 0.0000 7.0522 0.0000
# 4 0.0000 0.0000 0.0000 25.7500 0.0000 -1.4108
# 5 -5.7458 -0.8788 7.0522 0.0000 24.9871 0.0000
# 6 0.0000 0.0000 0.0000 -1.4108 0.0000 15.9491
#
#
#
# Elastic Compliance Matrix: (Units=1/GPa)
#
#
# Indices 1 2 3 4 5 6 
#
# 1 0.012980 0.000399 -0.001712 0.000000 0.003482 0.000000
# 2 0.000399 0.011023 -0.002931 0.000000 0.001307 0.000000
# 3 -0.001712 -0.002931 0.010519 0.000000 -0.003465 0.000000
# 4 0.000000 0.000000 0.000000 0.039024 0.000000 0.003452
# 5 0.003482 0.001307 -0.003465 0.000000 0.041845 0.000000
# 6 0.000000 0.000000 0.000000 0.003452 0.000000 0.063005
#
#
# Mechanical properties :
#
#
# Convention : Reuss Voigt Hill
#
# Bulk Modulus (GPa) = 38.41106 40.38997 39.40052
# Shear Modulus (GPa) = 25.56751 29.70845 27.63798
#
# Velocity S-wave (km/s) = 3.56874 3.84690 3.71043
# Velocity P-wave (km/s) = 6.00956 6.31275 6.16302
#
# Compressibility (1/GPa) = 0.02603417
#
# Stress axis : x y z
#
# Youngs Moduli (GPa) = 77.04269 90.72239 95.06756
#
# Poissons Ratio (x) = -0.03622 0.16271
# Poissons Ratio (y) = -0.03076 0.27867
# Poissons Ratio (z) = 0.13186 0.26593
#
# Static dielectric constant tensor:
#      x y z
#    x 1.831830 0.000000 0.009000 
#    y 0.000000 1.722080 0.000000 
#    z 0.009000 0.000000 1.711360 
# 
# From -- ./inp_files/30568.got.cif
#   From: 2010.05.17/outbox.cif.g08.bks.cpg/sg15_16_cif.got.tgz:30568.got - 2010.06.03 18:47:42.
