data_PCOD9302373
_publ_section_title
;
Structure prediction by ZEFSAII (Michael W. Deem and Ramdas Pophale) SiO2 
 PCOD9302373
Probable space group: C 2/C
;
_chemical_formula_sum "Si O2"
_cell_formula_units_Z 56
_cell_length_a 14.429778
_cell_length_b 8.060983
_cell_length_c 19.833850
_cell_angle_alpha 90.000000
_cell_angle_beta 97.176325
_cell_angle_gamma 90.000000
_cell_volume 2288.965237
_symmetry_space_group_name_H-M "C 2/C"
_symmetry_group_IT_number 15
_symmetry_cell_setting 'monoclinic'
loop_
_space_group_symop_operation_xyz
x,y,z
-x,y,1/2-z
-x,-y,-z
x,-y,1/2+z
1/2+x,1/2+y,z
1/2-x,1/2+y,1/2-z
1/2-x,1/2-y,-z
1/2+x,1/2-y,1/2+z
loop_
_atom_site_type_symbol
_atom_site_label
_atom_site_fract_x
_atom_site_fract_y
_atom_site_fract_z
Si Si1 0.287518 0.909657 0.541166
Si Si2 0.225305 0.485019 0.318161
Si Si3 0.072807 0.567758 0.202643
Si Si4 0.594267 0.397781 0.996801
Si Si5 0.314412 0.611572 0.135851
Si Si6 0.391955 0.950142 0.938186
Si Si7 0.594841 0.452717 0.234692
O O1 0.250000 0.750000 0.500000
O O2 0.310114 0.906824 0.622174
O O3 0.196043 0.031363 0.530197
O O4 0.380622 0.953426 0.507206
O O5 0.171856 0.527103 0.244853
O O6 0.204178 0.291793 0.332397
O O7 0.334694 0.520992 0.315032
O O8 0.058501 0.499362 0.126402
O O9 0.000000 0.500304 0.250000
O O10 0.069150 0.769081 0.205509
O O11 0.612564 0.369492 0.918917
O O12 0.500000 0.500000 0.000000
O O13 0.579144 0.231238 0.036823
O O14 0.216296 0.559213 0.094879
O O15 0.347714 0.471028 0.190715
O O16 0.500000 0.540766 0.250000
#
# Coordination Sequence:
#
# PCOD9302373 Si02
#       7
#     8   8   8   8   8   8   8
#     4  11  25  42  68  98 133 180 232 281 352 425
#     4  12  22  45  64  98 137 178 221 290 351 409
#     4  11  26  42  68  97 138 179 225 282 351 414
#     4  11  24  42  71  98 132 180 232 286 346 415
#     4  11  22  40  68  96 133 180 220 281 349 411
#     4  11  21  48  66  97 136 185 225 288 354 416
#     4  11  24  40  69 100 129 174 235 280 340 429
#
# _framework density 24.465202999999999
#
# number of rings (size 3 to 8) (size 9 to 14) (size 15 to 20)
#    0.000    0.857    5.714    0.857   10.000    1.714 
#    2.571    1.429    0.000    0.000    0.000    0.000 
#    0.000    0.000    0.000    0.000    0.000    0.000 
#
# Total GULP energy -156418.742941 kJ/mol
# GULP energy per Si atom -5586.383676 kJ/mol
# Density = 2.440952 g / cm^3
# Si number density = 24.465203 Si / 1000 Ang^3
#
#
#
# Elastic Constant Matrix: (Units=GPa)
#
#
# Indices 1 2 3 4 5 6 
#
# 1 102.7535 0.8969 42.9060 0.0000 -37.9888 0.0000
# 2 0.8969 39.3477 13.0463 0.0000 -8.0142 0.0000
# 3 42.9060 13.0463 159.7119 0.0000 -45.2489 0.0000
# 4 0.0000 0.0000 0.0000 21.3729 0.0000 5.0636
# 5 -37.9888 -8.0142 -45.2489 0.0000 51.3844 0.0000
# 6 0.0000 0.0000 0.0000 5.0636 0.0000 27.0829
#
#
#
# Elastic Compliance Matrix: (Units=1/GPa)
#
#
# Indices 1 2 3 4 5 6 
#
# 1 0.013676 0.001990 -0.001178 0.000000 0.009384 0.000000
# 2 0.001990 0.026746 -0.001493 0.000000 0.004328 0.000000
# 3 -0.001178 -0.001493 0.008510 0.000000 0.006390 0.000000
# 4 0.000000 0.000000 0.000000 0.048957 0.000000 -0.009153
# 5 0.009384 0.004328 0.006390 0.000000 0.032701 0.000000
# 6 0.000000 0.000000 0.000000 -0.009153 0.000000 0.038635
#
#
# Mechanical properties :
#
#
# Convention : Reuss Voigt Hill
#
# Bulk Modulus (GPa) = 21.02202 46.16796 33.59499
# Shear Modulus (GPa) = 26.81787 36.29896 31.55842
#
# Velocity S-wave (km/s) = 3.31443 3.85606 3.59546
# Velocity P-wave (km/s) = 4.82271 6.22394 5.56758
#
# Compressibility (1/GPa) = 0.04756917
#
# Stress axis : x y z
#
# Youngs Moduli (GPa) = 73.12222 37.38925 117.50646
#
# Poissons Ratio (x) = -0.07441 0.13842
# Poissons Ratio (y) = -0.14552 0.17547
# Poissons Ratio (z) = 0.08614 0.05583
#
# Static dielectric constant tensor:
#      x y z
#    x 2.099140 0.000000 -0.053480 
#    y 0.000000 1.940710 0.000000 
#    z -0.053480 0.000000 2.005760 
# 
# From -- ./inp_files/242780.got.cif
#   From: 2010.05.17/outbox.cif.g08.bks.cpg/sg15_122_cif.got.tgz:242780.got - 2010.06.03 18:47:42.
