data_PCOD9302908
_publ_section_title
;
Structure prediction by ZEFSAII (Michael W. Deem and Ramdas Pophale) SiO2 
 PCOD9302908
Probable space group: C 2/C
;
_chemical_formula_sum "Si O2"
_cell_formula_units_Z 64
_cell_length_a 6.394090
_cell_length_b 26.480760
_cell_length_c 27.605462
_cell_angle_alpha 90.000000
_cell_angle_beta 138.823328
_cell_angle_gamma 90.000000
_cell_volume 3077.392264
_symmetry_space_group_name_H-M "C 2/C"
_symmetry_group_IT_number 15
_symmetry_cell_setting 'monoclinic'
loop_
_space_group_symop_operation_xyz
x,y,z
-x,y,1/2-z
-x,-y,-z
x,-y,1/2+z
1/2+x,1/2+y,z
1/2-x,1/2+y,1/2-z
1/2-x,1/2-y,-z
1/2+x,1/2-y,1/2+z
loop_
_atom_site_type_symbol
_atom_site_label
_atom_site_fract_x
_atom_site_fract_y
_atom_site_fract_z
Si Si1 0.814747 0.676614 0.419330
Si Si2 0.735637 0.180005 0.587043
Si Si3 0.262390 0.103800 0.061407
Si Si4 0.080040 0.645557 0.818798
Si Si5 0.462978 0.913559 0.095384
Si Si6 0.644704 0.984924 0.576942
Si Si7 0.706794 0.412295 0.662531
Si Si8 0.684800 0.239796 0.674726
O O1 0.545470 0.633122 0.373826
O O2 0.626771 0.726669 0.372351
O O3 0.972127 0.684369 0.499410
O O4 0.091356 0.656613 0.431831
O O5 0.673973 0.128868 0.606391
O O6 0.721276 0.224053 0.624740
O O7 0.072336 0.170845 0.620429
O O8 0.435596 0.060939 0.060587
O O9 0.327322 0.094188 0.128853
O O10 0.889409 0.096471 0.987061
O O11 0.056874 0.598831 0.851311
O O12 0.000000 0.632432 0.750000
O O13 0.851819 0.689178 0.799677
O O14 0.596253 0.967730 0.103897
O O15 0.999717 0.963444 0.632674
O O16 0.500000 0.000000 0.500000
O O17 0.000000 0.410483 0.750000
O O18 0.000000 0.266568 0.750000
#
# Coordination Sequence:
#
# PCOD9302908 Si02
#       8
#     8   8   8   8   8   8   8   8
#     4  11  23  41  67 103 125 176 228 272 334 410
#     4  11  22  42  66  94 134 169 227 283 327 397
#     4  11  22  42  70  97 132 170 222 275 328 399
#     4  11  24  43  65  94 140 175 218 289 336 394
#     4  11  22  40  70  97 127 176 226 270 338 400
#     4  11  23  40  72  99 127 174 228 269 327 406
#     4  11  25  45  66  95 143 172 215 287 337 390
#     4  11  24  42  65  95 136 179 221 274 344 403
#
# _framework density 20.796828999999999
#
# number of rings (size 3 to 8) (size 9 to 14) (size 15 to 20)
#    0.000    1.000    5.000    1.875    0.000    3.500 
#    2.250    3.750    0.000    0.000    0.000    0.000 
#    0.000    0.000    0.000    0.000    0.000    0.000 
#
# Total GULP energy -178918.636983 kJ/mol
# GULP energy per Si atom -5591.207406 kJ/mol
# Density = 2.074949 g / cm^3
# Si number density = 20.796829 Si / 1000 Ang^3
#
#
#
# Elastic Constant Matrix: (Units=GPa)
#
#
# Indices 1 2 3 4 5 6 
#
# 1 107.9020 36.6837 49.1967 0.0000 -15.2806 0.0000
# 2 36.6837 82.7469 36.7290 0.0000 -9.7417 0.0000
# 3 49.1967 36.7290 156.5387 0.0000 -18.6278 0.0000
# 4 0.0000 0.0000 0.0000 2.2016 0.0000 18.1816
# 5 -15.2806 -9.7417 -18.6278 0.0000 37.4430 0.0000
# 6 0.0000 0.0000 0.0000 18.1816 0.0000 30.9515
#
#
#
# Elastic Compliance Matrix: (Units=1/GPa)
#
#
# Indices 1 2 3 4 5 6 
#
# 1 0.012157 -0.003931 -0.002583 0.000000 0.002654 0.000000
# 2 -0.003931 0.014912 -0.002118 0.000000 0.001222 0.000000
# 3 -0.002583 -0.002118 0.007978 0.000000 0.002364 0.000000
# 4 0.000000 0.000000 0.000000 -0.117943 0.000000 0.069282
# 5 0.002654 0.001222 0.002364 0.000000 0.029284 0.000000
# 6 0.000000 0.000000 0.000000 0.069282 0.000000 -0.008389
#
#
# Mechanical properties :
#
#
# Convention : Reuss Voigt Hill
#
# Bulk Modulus (GPa) = 56.22990 65.82293 61.02641
# Shear Modulus (GPa) = -128.83394 29.09109 -49.87143
#
# Velocity S-wave (km/s) = -7.87930 3.74414 -4.90228
# Velocity P-wave (km/s) = 7.46199 7.10005 1.62338
#
# Compressibility (1/GPa) = 0.01778413
#
# Stress axis : x y z
#
# Youngs Moduli (GPa) = 82.25423 67.06167 125.34236
#
# Poissons Ratio (x) = 0.26361 0.32372
# Poissons Ratio (y) = 0.32333 0.26547
# Poissons Ratio (z) = 0.21244 0.14204
#
# Static dielectric constant tensor:
#      x y z
#    x 1.764740 0.000000 0.017610 
#    y 0.000000 1.740140 0.000000 
#    z 0.017610 0.000000 1.740200 
# 
# From -- ./inp_files/286786.got.cif
#   From: 2010.05.17/outbox.cif.g08.bks.cpg/sg15_144_cif.got.tgz:286786.got - 2010.06.03 18:47:42.
