data_PCOD9302661
_publ_section_title
;
Structure prediction by ZEFSAII (Michael W. Deem and Ramdas Pophale) SiO2 
 PCOD9302661
Probable space group: C 2/C
;
_chemical_formula_sum "Si O2"
_cell_formula_units_Z 40
_cell_length_a 10.080759
_cell_length_b 10.133655
_cell_length_c 18.909873
_cell_angle_alpha 90.000000
_cell_angle_beta 84.602277
_cell_angle_gamma 90.000000
_cell_volume 1923.170932
_symmetry_space_group_name_H-M "C 2/C"
_symmetry_group_IT_number 15
_symmetry_cell_setting 'monoclinic'
loop_
_space_group_symop_operation_xyz
x,y,z
-x,y,1/2-z
-x,-y,-z
x,-y,1/2+z
1/2+x,1/2+y,z
1/2-x,1/2+y,1/2-z
1/2-x,1/2-y,-z
1/2+x,1/2-y,1/2+z
loop_
_atom_site_type_symbol
_atom_site_label
_atom_site_fract_x
_atom_site_fract_y
_atom_site_fract_z
Si Si1 0.250048 0.813986 0.406488
Si Si2 0.753372 0.789535 0.416333
Si Si3 0.488521 0.371259 0.169785
Si Si4 0.351699 0.952135 0.523924
Si Si5 0.012586 0.183522 0.333637
O O1 0.266994 0.940646 0.455904
O O2 0.165737 0.696526 0.447443
O O3 0.395200 0.760559 0.380022
O O4 0.163322 0.849654 0.344094
O O5 0.750000 0.750000 0.500000
O O6 0.904096 0.789050 0.380580
O O7 0.650155 0.717615 0.368194
O O8 0.708463 0.942789 0.419663
O O9 0.500000 0.333488 0.250000
O O10 0.513915 0.527273 0.159401
O O11 0.500000 0.000000 0.500000
O O12 0.000000 0.216251 0.250000
#
# Coordination Sequence:
#
# PCOD9302661 Si02
#       5
#     8   8   8   8   8
#     4  11  23  41  66  89 129 168 206 264 324 373
#     4  12  24  41  69  99 131 167 222 271 320 384
#     4  11  25  44  64  95 132 172 217 265 323 389
#     4  11  22  39  63  96 126 159 211 267 320 375
#     4  11  24  44  66  93 131 174 213 263 326 389
#
# _framework density 20.798983
#
# number of rings (size 3 to 8) (size 9 to 14) (size 15 to 20)
#    0.000    0.800    4.000    3.600    2.800    1.600 
#    0.000    1.000    0.000    0.000    0.000    0.000 
#    0.000    0.000    0.000    0.000    0.000    0.000 
#
# Total GULP energy -111657.115976 kJ/mol
# GULP energy per Si atom -5582.855799 kJ/mol
# Density = 2.075164 g / cm^3
# Si number density = 20.798983 Si / 1000 Ang^3
#
#
#
# Elastic Constant Matrix: (Units=GPa)
#
#
# Indices 1 2 3 4 5 6 
#
# 1 97.1095 20.2916 24.4626 0.0000 11.3891 0.0000
# 2 20.2916 38.4262 25.2847 0.0000 -4.1244 0.0000
# 3 24.4626 25.2847 110.4882 0.0000 27.7328 0.0000
# 4 0.0000 0.0000 0.0000 32.6132 0.0000 2.7552
# 5 11.3891 -4.1244 27.7328 0.0000 39.1457 0.0000
# 6 0.0000 0.0000 0.0000 2.7552 0.0000 27.5645
#
#
#
# Elastic Compliance Matrix: (Units=1/GPa)
#
#
# Indices 1 2 3 4 5 6 
#
# 1 0.012250 -0.006873 -0.000077 0.000000 -0.004234 0.000000
# 2 -0.006873 0.038063 -0.010579 0.000000 0.013504 0.000000
# 3 -0.000077 -0.010579 0.014307 0.000000 -0.011228 0.000000
# 4 0.000000 0.000000 0.000000 0.030924 0.000000 -0.003091
# 5 -0.004234 0.013504 -0.011228 0.000000 0.036155 0.000000
# 6 0.000000 0.000000 0.000000 -0.003091 0.000000 0.036587
#
#
# Mechanical properties :
#
#
# Convention : Reuss Voigt Hill
#
# Bulk Modulus (GPa) = 33.82493 42.90020 38.36256
# Shear Modulus (GPa) = 23.45263 31.59701 27.52482
#
# Velocity S-wave (km/s) = 3.36160 3.90187 3.64177
# Velocity P-wave (km/s) = 5.60046 6.40081 6.01396
#
# Compressibility (1/GPa) = 0.02956400
#
# Stress axis : x y z
#
# Youngs Moduli (GPa) = 81.63565 26.27203 69.89665
#
# Poissons Ratio (x) = 0.18055 0.00536
# Poissons Ratio (y) = 0.56104 0.73941
# Poissons Ratio (z) = 0.00626 0.27792
#
# Static dielectric constant tensor:
#      x y z
#    x 1.545450 0.000000 0.028420 
#    y 0.000000 1.735520 0.000000 
#    z 0.028420 0.000000 1.779640 
# 
# From -- ./inp_files/187819.got.cif
#   From: 2010.05.17/outbox.cif.g08.bks.cpg/sg15_94_cif.got.tgz:187819.got - 2010.06.03 18:47:42.
