data_PCOD9302357
_publ_section_title
;
Structure prediction by ZEFSAII (Michael W. Deem and Ramdas Pophale) SiO2 
 PCOD9302357
Probable space group: C 2/C
;
_chemical_formula_sum "Si O2"
_cell_formula_units_Z 44
_cell_length_a 10.960519
_cell_length_b 11.584685
_cell_length_c 22.795671
_cell_angle_alpha 90.000000
_cell_angle_beta 143.650101
_cell_angle_gamma 90.000000
_cell_volume 1715.590090
_symmetry_space_group_name_H-M "C 2/C"
_symmetry_group_IT_number 15
_symmetry_cell_setting 'monoclinic'
loop_
_space_group_symop_operation_xyz
x,y,z
-x,y,1/2-z
-x,-y,-z
x,-y,1/2+z
1/2+x,1/2+y,z
1/2-x,1/2+y,1/2-z
1/2-x,1/2-y,-z
1/2+x,1/2-y,1/2+z
loop_
_atom_site_type_symbol
_atom_site_label
_atom_site_fract_x
_atom_site_fract_y
_atom_site_fract_z
Si Si1 0.302811 0.681344 0.316362
Si Si2 0.500000 0.960225 0.750000
Si Si3 0.959737 0.789196 0.110536
Si Si4 0.730819 0.741785 0.365465
Si Si5 0.332821 0.527116 0.096151
Si Si6 0.439382 0.895345 0.110219
O O1 0.209503 0.615354 0.335579
O O2 0.469513 0.601654 0.348680
O O3 0.394578 0.810056 0.355046
O O4 0.096466 0.697105 0.198040
O O5 0.482345 0.036709 0.802255
O O6 0.113418 0.809833 0.115320
O O7 0.910913 0.897663 0.133460
O O8 0.750000 0.750000 0.000000
O O9 0.500000 0.746725 0.250000
O O10 0.765998 0.605389 0.390649
O O11 0.728056 0.806882 0.426505
O O12 0.170756 0.527337 0.980237
#
# Coordination Sequence:
#
# PCOD9302357 Si02
#       6
#     8   4   8   8   8   8
#     4  11  23  43  67 105 141 189 247 297 360 444
#     4  12  24  42  74 100 144 198 228 316 374 412
#     4  12  26  44  68 107 154 186 252 315 353 445
#     4  11  21  46  74  99 146 200 242 298 377 435
#     4  11  25  42  74 106 141 198 249 301 369 441
#     4  11  22  43  71 105 141 189 253 296 363 450
#
# _framework density 25.647151000000001
#
# number of rings (size 3 to 8) (size 9 to 14) (size 15 to 20)
#    0.000    0.727    4.545    5.455    0.000    8.000 
#    1.636    0.000    0.000    0.000    0.000    0.000 
#    0.000    0.000    0.000    0.000    0.000    0.000 
#
# Total GULP energy -123059.808962 kJ/mol
# GULP energy per Si atom -5593.627680 kJ/mol
# Density = 2.558878 g / cm^3
# Si number density = 25.647151 Si / 1000 Ang^3
#
#
#
# Elastic Constant Matrix: (Units=GPa)
#
#
# Indices 1 2 3 4 5 6 
#
# 1 78.2062 20.0956 6.9683 0.0000 11.4316 0.0000
# 2 20.0956 123.7451 19.5288 0.0000 5.4697 0.0000
# 3 6.9683 19.5288 118.5379 -0.0001 12.9042 0.0000
# 4 0.0000 0.0000 -0.0001 35.7382 0.0000 12.5062
# 5 11.4316 5.4697 12.9042 0.0000 28.6224 0.0000
# 6 0.0000 0.0000 0.0000 12.5062 0.0000 28.1310
#
#
#
# Elastic Compliance Matrix: (Units=1/GPa)
#
#
# Indices 1 2 3 4 5 6 
#
# 1 0.014080 -0.002067 0.000086 0.000000 -0.005267 0.000000
# 2 -0.002067 0.008629 -0.001273 0.000000 -0.000249 0.000000
# 3 0.000086 -0.001273 0.009063 0.000000 -0.003877 0.000000
# 4 0.000000 0.000000 0.000000 0.033136 0.000000 -0.014731
# 5 -0.005267 -0.000249 -0.003877 0.000000 0.038837 0.000000
# 6 0.000000 0.000000 0.000000 -0.014731 0.000000 0.042097
#
#
# Mechanical properties :
#
#
# Convention : Reuss Voigt Hill
#
# Bulk Modulus (GPa) = 39.58218 45.96382 42.77300
# Shear Modulus (GPa) = 31.10006 36.75810 33.92908
#
# Velocity S-wave (km/s) = 3.48604 3.78990 3.64114
# Velocity P-wave (km/s) = 5.62762 6.09193 5.86437
#
# Compressibility (1/GPa) = 0.02526390
#
# Stress axis : x y z
#
# Youngs Moduli (GPa) = 71.02181 115.89151 110.34094
#
# Poissons Ratio (x) = 0.23959 -0.00952
# Poissons Ratio (y) = 0.14683 0.14045
# Poissons Ratio (z) = -0.00613 0.14752
#
# Static dielectric constant tensor:
#      x y z
#    x 2.126140 0.000000 -0.040190 
#    y 0.000000 2.087390 0.000000 
#    z -0.040190 0.000000 2.038430 
# 
# From -- ./inp_files/269347.got.cif
#   From: 2010.05.17/outbox.cif.g08.bks.cpg/sg15_135_cif.got.tgz:269347.got - 2010.06.03 18:47:42.
