data_PCOD9302193
_publ_section_title
;
Structure prediction by ZEFSAII (Michael W. Deem and Ramdas Pophale) SiO2 
 PCOD9302193
Probable space group: C 2/C
;
_chemical_formula_sum "Si O2"
_cell_formula_units_Z 52
_cell_length_a 17.989070
_cell_length_b 18.447329
_cell_length_c 10.001726
_cell_angle_alpha 90.000000
_cell_angle_beta 126.366880
_cell_angle_gamma 90.000000
_cell_volume 2672.641532
_symmetry_space_group_name_H-M "C 2/C"
_symmetry_group_IT_number 15
_symmetry_cell_setting 'monoclinic'
loop_
_space_group_symop_operation_xyz
x,y,z
-x,y,1/2-z
-x,-y,-z
x,-y,1/2+z
1/2+x,1/2+y,z
1/2-x,1/2+y,1/2-z
1/2-x,1/2-y,-z
1/2+x,1/2-y,1/2+z
loop_
_atom_site_type_symbol
_atom_site_label
_atom_site_fract_x
_atom_site_fract_y
_atom_site_fract_z
Si Si1 0.418467 0.843373 0.431025
Si Si2 0.546922 0.953349 0.668281
Si Si3 0.230340 0.074800 0.730079
Si Si4 0.292004 0.283332 0.908671
Si Si5 0.267737 0.443182 0.955497
Si Si6 0.183400 0.770415 0.054897
Si Si7 0.500000 0.789405 0.250000
O O1 0.506111 0.872744 0.603227
O O2 0.339285 0.904740 0.351099
O O3 0.373280 0.770085 0.443054
O O4 0.448600 0.833557 0.310531
O O5 0.500000 0.985015 0.750000
O O6 0.656374 0.945617 0.808546
O O7 0.500000 0.000000 0.500000
O O8 0.192584 0.149384 0.626361
O O9 0.201170 0.010962 0.599927
O O10 0.210792 0.054127 0.863215
O O11 0.311434 0.367349 0.954234
O O12 0.216220 0.280433 0.710635
O O13 0.250000 0.250000 0.000000
O O14 0.250000 0.750000 0.000000
O O15 0.079286 0.757099 0.903083
#
# Coordination Sequence:
#
# PCOD9302193 Si02
#       7
#     8   8   8   8   8   8   4
#     4  11  23  39  60  99 133 170 219 259 330 391
#     4  12  22  36  56  94 135 168 211 262 324 404
#     4  11  24  41  62  98 128 171 224 263 332 397
#     4  11  21  43  65  92 135 173 219 268 323 393
#     4  12  23  40  65  91 132 179 208 273 333 392
#     4  11  23  44  66  98 132 172 229 270 326 403
#     4  12  24  40  70  94 130 176 214 282 324 384
#
# _framework density 19.456406999999999
#
# number of rings (size 3 to 8) (size 9 to 14) (size 15 to 20)
#    0.000    0.615    9.231    0.923    3.231    1.231 
#    0.000    0.000    0.000    3.692    0.000    0.000 
#    0.000    0.000    0.000    0.000    0.000    0.000 
#
# Total GULP energy -145013.070664 kJ/mol
# GULP energy per Si atom -5577.425795 kJ/mol
# Density = 1.941212 g / cm^3
# Si number density = 19.456407 Si / 1000 Ang^3
#
#
#
# Elastic Constant Matrix: (Units=GPa)
#
#
# Indices 1 2 3 4 5 6 
#
# 1 49.2598 20.2652 29.3534 0.0000 -26.4569 0.0000
# 2 20.2652 114.6641 36.2529 0.0000 -31.1118 0.0000
# 3 29.3534 36.2529 130.7608 0.0000 -34.2442 0.0000
# 4 0.0000 0.0000 0.0000 43.8628 0.0000 -3.5349
# 5 -26.4569 -31.1118 -34.2442 0.0000 46.4877 0.0000
# 6 0.0000 0.0000 0.0000 -3.5349 0.0000 19.8834
#
#
#
# Elastic Compliance Matrix: (Units=1/GPa)
#
#
# Indices 1 2 3 4 5 6 
#
# 1 0.030064 -0.000428 -0.002756 0.000000 0.014793 0.000000
# 2 -0.000428 0.010857 -0.001332 0.000000 0.006041 0.000000
# 3 -0.002756 -0.001332 0.009901 0.000000 0.004834 0.000000
# 4 0.000000 0.000000 0.000000 0.023130 0.000000 0.004112
# 5 0.014793 0.006041 0.004834 0.000000 0.037534 0.000000
# 6 0.000000 0.000000 0.000000 0.004112 0.000000 0.051024
#
#
# Mechanical properties :
#
#
# Convention : Reuss Voigt Hill
#
# Bulk Modulus (GPa) = 23.92879 51.82531 37.87705
# Shear Modulus (GPa) = 26.95807 35.96765 31.46286
#
# Velocity S-wave (km/s) = 3.72635 4.30423 4.02567
# Velocity P-wave (km/s) = 5.55335 7.16912 6.41233
#
# Compressibility (1/GPa) = 0.04179066
#
# Stress axis : x y z
#
# Youngs Moduli (GPa) = 33.26205 92.10590 100.99602
#
# Poissons Ratio (x) = 0.03944 0.27835
# Poissons Ratio (y) = 0.01424 0.13451
# Poissons Ratio (z) = 0.09167 0.12267
#
# Static dielectric constant tensor:
#      x y z
#    x 1.840830 0.000000 -0.011370 
#    y 0.000000 1.723220 0.000000 
#    z -0.011370 0.000000 1.701840 
# 
# From -- ./inp_files/49241.got.cif
#   From: 2010.05.17/outbox.cif.g08.bks.cpg/sg15_25_cif.got.tgz:49241.got - 2010.06.03 18:47:42.
