data_PCOD9302371
_publ_section_title
;
Structure prediction by ZEFSAII (Michael W. Deem and Ramdas Pophale) SiO2 
 PCOD9302371
Probable space group: C 2/C
;
_chemical_formula_sum "Si O2"
_cell_formula_units_Z 28
_cell_length_a 6.372340
_cell_length_b 14.352691
_cell_length_c 13.383490
_cell_angle_alpha 90.000000
_cell_angle_beta 58.734506
_cell_angle_gamma 90.000000
_cell_volume 1046.289130
_symmetry_space_group_name_H-M "C 2/C"
_symmetry_group_IT_number 15
_symmetry_cell_setting 'monoclinic'
loop_
_space_group_symop_operation_xyz
x,y,z
-x,y,1/2-z
-x,-y,-z
x,-y,1/2+z
1/2+x,1/2+y,z
1/2-x,1/2+y,1/2-z
1/2-x,1/2-y,-z
1/2+x,1/2-y,1/2+z
loop_
_atom_site_type_symbol
_atom_site_label
_atom_site_fract_x
_atom_site_fract_y
_atom_site_fract_z
Si Si1 0.500000 0.556768 0.250000
Si Si2 0.932734 0.102430 0.476362
Si Si3 0.500000 0.237565 0.250000
Si Si4 0.398836 0.900304 0.163342
Si Si5 0.250000 0.250000 0.500000
O O1 0.541369 0.614350 0.339399
O O2 0.728433 0.486796 0.178154
O O3 0.640740 0.110673 0.538627
O O4 0.032650 0.176729 0.529477
O O5 0.000000 0.000000 0.500000
O O6 0.734696 0.308700 0.189744
O O7 0.440031 0.191161 0.371146
O O8 0.500000 0.910802 0.250000
#
# Coordination Sequence:
#
# PCOD9302371 Si02
#       5
#     4   8   4   8   4
#     4  11  24  42  80 118 148 211 280 323 396 500
#     4  12  25  47  79 115 158 212 268 335 404 491
#     4  11  26  48  72 110 154 207 264 331 406 486
#     4  11  21  47  76 106 156 208 252 331 409 467
#     4  12  28  48  76 110 158 206 264 330 408 476
#
# _framework density 26.761246
#
# number of rings (size 3 to 8) (size 9 to 14) (size 15 to 20)
#    0.000    0.571    5.714    2.571    0.000    5.714 
#    2.571    0.000    0.000    0.000    0.000    0.000 
#    0.000    0.000    0.000    0.000    0.000    0.000 
#
# Total GULP energy -78076.573043 kJ/mol
# GULP energy per Si atom -5576.898075 kJ/mol
# Density = 2.670034 g / cm^3
# Si number density = 26.761246 Si / 1000 Ang^3
#
#
#
# Elastic Constant Matrix: (Units=GPa)
#
#
# Indices 1 2 3 4 5 6 
#
# 1 132.4293 67.2646 16.8420 0.0000 -7.3789 0.0000
# 2 67.2646 92.1577 7.2856 0.0000 2.1187 0.0000
# 3 16.8420 7.2856 113.8150 0.0000 -25.9003 0.0000
# 4 0.0000 0.0000 0.0000 10.5915 0.0000 -1.2838
# 5 -7.3789 2.1187 -25.9003 0.0000 74.8976 0.0000
# 6 0.0000 0.0000 0.0000 -1.2838 0.0000 35.6839
#
#
#
# Elastic Compliance Matrix: (Units=1/GPa)
#
#
# Indices 1 2 3 4 5 6 
#
# 1 0.012256 -0.008893 -0.000990 0.000000 0.001117 0.000000
# 2 -0.008893 0.017384 -0.000117 0.000000 -0.001408 0.000000
# 3 -0.000990 -0.000117 0.009681 0.000000 0.003253 0.000000
# 4 0.000000 0.000000 0.000000 0.094829 0.000000 0.003412
# 5 0.001117 -0.001408 0.003253 0.000000 0.014626 0.000000
# 6 0.000000 0.000000 0.000000 0.003412 0.000000 0.028147
#
#
# Mechanical properties :
#
#
# Convention : Reuss Voigt Hill
#
# Bulk Modulus (GPa) = 51.76220 57.90959 54.83590
# Shear Modulus (GPa) = 24.58643 40.70191 32.64417
#
# Velocity S-wave (km/s) = 3.03435 3.90414 3.49640
# Velocity P-wave (km/s) = 5.62677 6.48146 6.06918
#
# Compressibility (1/GPa) = 0.01931912
#
# Stress axis : x y z
#
# Youngs Moduli (GPa) = 81.58953 57.52530 103.29938
#
# Poissons Ratio (x) = 0.51158 0.10230
# Poissons Ratio (y) = 0.72559 0.01212
# Poissons Ratio (z) = 0.08080 0.00675
#
# Static dielectric constant tensor:
#      x y z
#    x 2.668940 0.000000 0.824130 
#    y 0.000000 1.762410 0.000000 
#    z 0.824130 0.000000 3.351570 
# 
# From -- ./inp_files/128052.got.cif
#   From: 2010.05.17/outbox.cif.g08.bks.cpg/sg15_65_cif.got.tgz:128052.got - 2010.06.03 18:47:42.
