data_PCOD9302819
_publ_section_title
;
Structure prediction by ZEFSAII (Michael W. Deem and Ramdas Pophale) SiO2 
 PCOD9302819
Probable space group: C 2/C
;
_chemical_formula_sum "Si O2"
_cell_formula_units_Z 64
_cell_length_a 12.272055
_cell_length_b 26.817186
_cell_length_c 13.625073
_cell_angle_alpha 90.000000
_cell_angle_beta 136.547892
_cell_angle_gamma 90.000000
_cell_volume 3083.888591
_symmetry_space_group_name_H-M "C 2/C"
_symmetry_group_IT_number 15
_symmetry_cell_setting 'monoclinic'
loop_
_space_group_symop_operation_xyz
x,y,z
-x,y,1/2-z
-x,-y,-z
x,-y,1/2+z
1/2+x,1/2+y,z
1/2-x,1/2+y,1/2-z
1/2-x,1/2-y,-z
1/2+x,1/2-y,1/2+z
loop_
_atom_site_type_symbol
_atom_site_label
_atom_site_fract_x
_atom_site_fract_y
_atom_site_fract_z
Si Si1 0.874053 0.581054 0.579987
Si Si2 0.658059 0.967492 0.918354
Si Si3 0.053785 0.386768 0.001026
Si Si4 0.039805 0.788356 0.507452
Si Si5 0.909514 0.298663 0.793327
Si Si6 0.447435 0.363887 0.603883
Si Si7 0.103598 0.871509 0.223988
Si Si8 0.540439 0.557448 0.010365
O O1 0.805905 0.524685 0.530082
O O2 0.732116 0.617711 0.513145
O O3 0.000000 0.581956 0.750000
O O4 0.956995 0.597467 0.533445
O O5 0.500000 0.968165 0.750000
O O6 0.619654 0.935166 0.988343
O O7 0.798199 0.942640 0.946827
O O8 0.948239 0.354006 0.858000
O O9 0.216220 0.357623 0.134705
O O10 0.226471 0.788598 0.650221
O O11 0.972538 0.736976 0.421595
O O12 0.964525 0.812490 0.555708
O O13 0.991991 0.827516 0.391346
O O14 0.000000 0.289923 0.750000
O O15 0.500000 0.359379 0.750000
O O16 0.546076 0.407098 0.609820
O O17 0.000000 0.885557 0.250000
O O18 0.097716 0.917644 0.145296
O O19 0.500000 0.500000 0.000000
#
# Coordination Sequence:
#
# PCOD9302819 Si02
#       8
#     8   8   8   8   8   8   8   8
#     4  11  24  45  63  95 140 187 228 281 332 408
#     4  11  25  40  64  99 138 180 234 288 344 400
#     4  12  25  42  69 101 136 181 227 286 349 405
#     4  11  25  45  70 101 134 175 224 281 352 417
#     4  12  25  45  73 105 139 173 224 291 358 415
#     4  11  25  44  69  96 137 181 234 280 338 413
#     4  11  22  40  65  96 133 170 221 275 338 408
#     4  11  23  41  64  96 136 183 233 283 341 402
#
# _framework density 20.753019999999999
#
# number of rings (size 3 to 8) (size 9 to 14) (size 15 to 20)
#    0.000    0.750    2.500    5.250    8.750    1.500 
#    0.000    3.125    0.000    0.000    0.000    0.000 
#    0.000    0.000    0.000    0.000    0.000    0.000 
#
# Total GULP energy -178981.291161 kJ/mol
# GULP energy per Si atom -5593.165349 kJ/mol
# Density = 2.070579 g / cm^3
# Si number density = 20.753020 Si / 1000 Ang^3
#
#
#
# Elastic Constant Matrix: (Units=GPa)
#
#
# Indices 1 2 3 4 5 6 
#
# 1 163.0988 34.4576 36.2602 0.0000 -0.3678 0.0000
# 2 34.4576 60.2269 19.7645 0.0000 -7.6302 0.0000
# 3 36.2602 19.7645 103.5750 0.0000 10.4109 0.0000
# 4 0.0000 0.0000 0.0000 45.5990 0.0000 -17.2075
# 5 -0.3678 -7.6302 10.4109 0.0000 40.0473 0.0000
# 6 0.0000 0.0000 0.0000 -17.2075 0.0000 21.0558
#
#
#
# Elastic Compliance Matrix: (Units=1/GPa)
#
#
# Indices 1 2 3 4 5 6 
#
# 1 0.007301 -0.003584 -0.001859 0.000000 -0.000133 0.000000
# 2 -0.003584 0.020249 -0.003074 0.000000 0.004624 0.000000
# 3 -0.001859 -0.003074 0.011247 0.000000 -0.003527 0.000000
# 4 0.000000 0.000000 0.000000 0.031709 0.000000 0.025914
# 5 -0.000133 0.004624 -0.003527 0.000000 0.026767 0.000000
# 6 0.000000 0.000000 0.000000 0.025914 0.000000 0.068670
#
#
# Mechanical properties :
#
#
# Convention : Reuss Voigt Hill
#
# Bulk Modulus (GPa) = 45.94936 56.42950 51.18943
# Shear Modulus (GPa) = 26.28362 37.10164 31.69263
#
# Velocity S-wave (km/s) = 3.56265 4.23279 3.91209
# Velocity P-wave (km/s) = 6.25399 7.15113 6.71755
#
# Compressibility (1/GPa) = 0.02176309
#
# Stress axis : x y z
#
# Youngs Moduli (GPa) = 136.95932 49.38485 88.91519
#
# Poissons Ratio (x) = 0.17700 0.16528
# Poissons Ratio (y) = 0.49088 0.27333
# Poissons Ratio (z) = 0.25459 0.15181
#
# Static dielectric constant tensor:
#      x y z
#    x 1.721770 0.000000 -0.000640 
#    y 0.000000 1.771530 0.000000 
#    z -0.000640 0.000000 1.771080 
# 
# From -- ./inp_files/148804.got.cif
#   From: 2010.05.17/outbox.cif.g08.bks.cpg/sg15_75_cif.got.tgz:148804.got - 2010.06.03 18:47:42.
