data_PCOD9302004
_publ_section_title
;
Structure prediction by ZEFSAII (Michael W. Deem and Ramdas Pophale) SiO2 
 PCOD9302004
Probable space group: C 2/C
;
_chemical_formula_sum "Si O2"
_cell_formula_units_Z 56
_cell_length_a 20.099984
_cell_length_b 18.077739
_cell_length_c 8.758297
_cell_angle_alpha 90.000000
_cell_angle_beta 63.819493
_cell_angle_gamma 90.000000
_cell_volume 2855.943971
_symmetry_space_group_name_H-M "C 2/C"
_symmetry_group_IT_number 15
_symmetry_cell_setting 'monoclinic'
loop_
_space_group_symop_operation_xyz
x,y,z
-x,y,1/2-z
-x,-y,-z
x,-y,1/2+z
1/2+x,1/2+y,z
1/2-x,1/2+y,1/2-z
1/2-x,1/2-y,-z
1/2+x,1/2-y,1/2+z
loop_
_atom_site_type_symbol
_atom_site_label
_atom_site_fract_x
_atom_site_fract_y
_atom_site_fract_z
Si Si1 0.890936 0.296243 0.193789
Si Si2 0.227560 0.204571 0.372490
Si Si3 0.212386 0.950621 0.764783
Si Si4 0.654185 0.275514 0.446961
Si Si5 0.231146 0.408155 0.109879
Si Si6 0.458192 0.434691 0.630276
Si Si7 0.507777 0.285821 0.422820
O O1 0.841915 0.248081 0.126134
O O2 0.884296 0.255358 0.362926
O O3 0.847785 0.373701 0.258224
O O4 0.972804 0.286005 0.042953
O O5 0.250000 0.250000 0.500000
O O6 0.212787 0.117032 0.387186
O O7 0.293484 0.215478 0.184291
O O8 0.265795 0.933451 0.568208
O O9 0.129121 0.953898 0.778530
O O10 0.239376 0.025054 0.816972
O O11 0.708795 0.342087 0.434959
O O12 0.592298 0.296803 0.387966
O O13 0.500000 0.425781 0.750000
O O14 0.500000 0.500000 0.500000
O O15 0.467228 0.358442 0.529193
O O16 0.500000 0.279958 0.250000
#
# Coordination Sequence:
#
# PCOD9302004 Si02
#       7
#     8   8   8   8   8   8   8
#     4  11  21  44  62  88 127 169 220 260 317 388
#     4  11  22  38  63  93 125 165 218 270 305 377
#     4  12  23  41  62  93 131 170 214 256 328 373
#     4  11  21  41  65  88 126 170 210 259 320 383
#     4  11  24  39  63  94 125 171 214 266 312 388
#     4  12  24  40  60  91 138 176 206 250 317 402
#     4  12  24  38  64  97 125 163 212 266 330 382
#
# _framework density 19.608228
#
# number of rings (size 3 to 8) (size 9 to 14) (size 15 to 20)
#    0.000    0.571    4.286    6.000    4.000    0.000 
#    0.000    0.000    0.000    0.857    0.000    0.000 
#    0.000    0.000    0.000    0.000    0.000    0.000 
#
# Total GULP energy -156466.384822 kJ/mol
# GULP energy per Si atom -5588.085172 kJ/mol
# Density = 1.956360 g / cm^3
# Si number density = 19.608228 Si / 1000 Ang^3
#
#
#
# Elastic Constant Matrix: (Units=GPa)
#
#
# Indices 1 2 3 4 5 6 
#
# 1 49.8285 21.9162 23.9669 0.0000 21.1785 0.0000
# 2 21.9162 96.7857 41.6124 0.0000 6.8367 0.0000
# 3 23.9669 41.6124 85.6451 0.0000 18.0569 0.0000
# 4 0.0000 0.0000 0.0000 25.8559 0.0000 2.5901
# 5 21.1785 6.8367 18.0569 0.0000 37.2558 0.0000
# 6 0.0000 0.0000 0.0000 2.5901 0.0000 31.2386
#
#
#
# Elastic Compliance Matrix: (Units=1/GPa)
#
#
# Indices 1 2 3 4 5 6 
#
# 1 0.029669 -0.004348 -0.003121 0.000000 -0.014555 0.000000
# 2 -0.004348 0.013717 -0.006057 0.000000 0.002890 0.000000
# 3 -0.003121 -0.006057 0.016578 0.000000 -0.005149 0.000000
# 4 0.000000 0.000000 0.000000 0.039000 0.000000 -0.003234
# 5 -0.014555 0.002890 -0.005149 0.000000 0.037081 0.000000
# 6 0.000000 0.000000 0.000000 -0.003234 0.000000 0.032280
#
#
# Mechanical properties :
#
#
# Convention : Reuss Voigt Hill
#
# Bulk Modulus (GPa) = 30.38525 45.25003 37.81764
# Shear Modulus (GPa) = 24.23099 28.52097 26.37598
#
# Velocity S-wave (km/s) = 3.51915 3.81798 3.67161
# Velocity P-wave (km/s) = 5.66059 6.52404 6.10760
#
# Compressibility (1/GPa) = 0.03291071
#
# Stress axis : x y z
#
# Youngs Moduli (GPa) = 33.70541 72.90347 60.32033
#
# Poissons Ratio (x) = 0.31699 0.18827
# Poissons Ratio (y) = 0.14656 0.36537
# Poissons Ratio (z) = 0.10520 0.44159
#
# Static dielectric constant tensor:
#      x y z
#    x 1.748180 0.000000 -0.031710 
#    y 0.000000 1.703380 0.000000 
#    z -0.031710 0.000000 1.728830 
# 
# From -- ./inp_files/56500.got.cif
#   From: 2010.05.17/outbox.cif.g08.bks.cpg/sg15_29_cif.got.tgz:56500.got - 2010.06.03 18:47:42.
