data_PCOD9302249
_publ_section_title
;
Structure prediction by ZEFSAII (Michael W. Deem and Ramdas Pophale) SiO2 
 PCOD9302249
Probable space group: C 2/C
;
_chemical_formula_sum "Si O2"
_cell_formula_units_Z 44
_cell_length_a 19.588510
_cell_length_b 8.900174
_cell_length_c 14.169271
_cell_angle_alpha 90.000000
_cell_angle_beta 132.441855
_cell_angle_gamma 90.000000
_cell_volume 1822.979293
_symmetry_space_group_name_H-M "C 2/C"
_symmetry_group_IT_number 15
_symmetry_cell_setting 'monoclinic'
loop_
_space_group_symop_operation_xyz
x,y,z
-x,y,1/2-z
-x,-y,-z
x,-y,1/2+z
1/2+x,1/2+y,z
1/2-x,1/2+y,1/2-z
1/2-x,1/2-y,-z
1/2+x,1/2-y,1/2+z
loop_
_atom_site_type_symbol
_atom_site_label
_atom_site_fract_x
_atom_site_fract_y
_atom_site_fract_z
Si Si1 0.500000 0.359725 0.250000
Si Si2 0.489056 0.085163 0.589820
Si Si3 0.155067 0.630665 0.471734
Si Si4 0.188241 0.518891 0.312562
Si Si5 0.549332 0.417567 0.631864
Si Si6 0.734495 0.253959 0.741890
O O1 0.577593 0.253161 0.369474
O O2 0.454055 0.468447 0.284419
O O3 0.583940 0.036020 0.729329
O O4 0.492700 0.263709 0.592600
O O5 0.500000 0.000000 0.500000
O O6 0.398944 0.021656 0.554076
O O7 0.217989 0.594057 0.438951
O O8 0.199039 0.677851 0.611797
O O9 0.186279 0.640336 0.225766
O O10 0.247721 0.377470 0.330654
O O11 0.500000 0.500000 0.500000
O O12 0.652597 0.361579 0.703310
#
# Coordination Sequence:
#
# PCOD9302249 Si02
#       6
#     4   8   8   8   8   8
#     4  12  24  38  72 102 136 170 228 290 322 398
#     4  11  21  43  73  94 130 178 225 274 336 402
#     4  12  23  45  70  99 130 186 222 273 341 404
#     4  11  25  42  68  93 139 176 221 273 338 398
#     4  11  24  41  67 104 131 175 228 280 333 398
#     4  11  26  46  65  99 136 180 219 278 343 400
#
# _framework density 24.136313999999999
#
# number of rings (size 3 to 8) (size 9 to 14) (size 15 to 20)
#    0.000    0.727    7.273    0.545    7.636    0.000 
#    0.000    0.909    0.000    0.000    0.000    0.000 
#    0.000    0.000    0.000    0.000    0.000    0.000 
#
# Total GULP energy -123159.078530 kJ/mol
# GULP energy per Si atom -5598.139933 kJ/mol
# Density = 2.408138 g / cm^3
# Si number density = 24.136314 Si / 1000 Ang^3
#
#
#
# Elastic Constant Matrix: (Units=GPa)
#
#
# Indices 1 2 3 4 5 6 
#
# 1 89.3530 37.2179 15.1611 0.0000 -26.4654 0.0000
# 2 37.2179 134.4690 33.1010 0.0000 -5.4682 0.0000
# 3 15.1611 33.1010 72.7245 0.0000 -25.6487 0.0000
# 4 0.0000 0.0000 0.0000 42.1434 0.0000 -10.7008
# 5 -26.4654 -5.4682 -25.6487 0.0000 39.2363 0.0000
# 6 0.0000 0.0000 0.0000 -10.7008 0.0000 50.8452
#
#
#
# Elastic Compliance Matrix: (Units=1/GPa)
#
#
# Indices 1 2 3 4 5 6 
#
# 1 0.016326 -0.004790 0.003152 0.000000 0.012405 0.000000
# 2 -0.004790 0.009871 -0.005392 0.000000 -0.005380 0.000000
# 3 0.003152 -0.005392 0.020836 0.000000 0.014995 0.000000
# 4 0.000000 0.000000 0.000000 0.025068 0.000000 0.005276
# 5 0.012405 -0.005380 0.014995 0.000000 0.042906 0.000000
# 6 0.000000 0.000000 0.000000 0.005276 0.000000 0.020778
#
#
# Mechanical properties :
#
#
# Convention : Reuss Voigt Hill
#
# Bulk Modulus (GPa) = 30.32779 51.94515 41.13647
# Shear Modulus (GPa) = 31.08756 40.51606 35.80181
#
# Velocity S-wave (km/s) = 3.59276 4.10156 3.85556
# Velocity P-wave (km/s) = 5.45922 6.63315 6.07461
#
# Compressibility (1/GPa) = 0.03297306
#
# Stress axis : x y z
#
# Youngs Moduli (GPa) = 61.25124 101.30835 47.99414
#
# Poissons Ratio (x) = 0.48528 -0.15126
# Poissons Ratio (y) = 0.29340 0.25876
# Poissons Ratio (z) = -0.19304 0.54621
#
# Static dielectric constant tensor:
#      x y z
#    x 1.890910 0.000000 -0.130720 
#    y 0.000000 1.950740 0.000000 
#    z -0.130720 0.000000 1.622040 
# 
# From -- ./inp_files/172096.got.cif
#   From: 2010.05.17/outbox.cif.g08.bks.cpg/sg15_87_cif.got.tgz:172096.got - 2010.06.03 18:47:42.
