data_PCOD9302820
_publ_section_title
;
Structure prediction by ZEFSAII (Michael W. Deem and Ramdas Pophale) SiO2 
 PCOD9302820
Probable space group: C 2/C
;
_chemical_formula_sum "Si O2"
_cell_formula_units_Z 56
_cell_length_a 11.880484
_cell_length_b 11.378896
_cell_length_c 27.200029
_cell_angle_alpha 90.000000
_cell_angle_beta 54.058334
_cell_angle_gamma 90.000000
_cell_volume 2977.022937
_symmetry_space_group_name_H-M "C 2/C"
_symmetry_group_IT_number 15
_symmetry_cell_setting 'monoclinic'
loop_
_space_group_symop_operation_xyz
x,y,z
-x,y,1/2-z
-x,-y,-z
x,-y,1/2+z
1/2+x,1/2+y,z
1/2-x,1/2+y,1/2-z
1/2-x,1/2-y,-z
1/2+x,1/2-y,1/2+z
loop_
_atom_site_type_symbol
_atom_site_label
_atom_site_fract_x
_atom_site_fract_y
_atom_site_fract_z
Si Si1 0.527499 0.760763 0.080247
Si Si2 0.627279 0.034977 0.931883
Si Si3 0.790079 0.863110 0.824093
Si Si4 0.674567 0.634566 0.537680
Si Si5 0.360874 0.622253 0.631814
Si Si6 0.575572 0.586726 0.310072
Si Si7 0.193992 0.093328 0.965497
O O1 0.421444 0.854442 0.086561
O O2 0.453720 0.685628 0.141379
O O3 0.661843 0.834243 0.064935
O O4 0.582216 0.675877 0.022460
O O5 0.755257 0.076090 0.932616
O O6 0.669718 0.929862 0.884912
O O7 0.500000 0.000000 0.000000
O O8 0.752662 0.725058 0.833682
O O9 0.811431 0.894428 0.761621
O O10 0.929131 0.905362 0.817451
O O11 0.750000 0.750000 0.500000
O O12 0.517007 0.671157 0.588229
O O13 0.688897 0.530565 0.494338
O O14 0.376173 0.527134 0.671304
O O15 0.333812 0.570939 0.584475
#
# Coordination Sequence:
#
# PCOD9302820 Si02
#       7
#     8   8   8   8   8   8   8
#     4  11  22  40  66  95 132 176 223 269 336 406
#     4  12  23  41  67  98 137 172 221 285 342 394
#     4  11  25  47  68  95 134 181 227 280 336 409
#     4  12  24  38  61 103 138 170 213 280 345 397
#     4  12  24  43  69  97 133 173 225 276 338 398
#     4  11  25  46  68  94 132 183 232 271 336 411
#     4  11  22  40  65  96 134 172 220 275 336 401
#
# _framework density 18.810737
#
# number of rings (size 3 to 8) (size 9 to 14) (size 15 to 20)
#    0.000    0.571    5.714    3.000    4.000    0.000 
#    0.000    0.000    0.000    1.714    0.000    0.000 
#    0.000    0.000    0.000    0.000    0.000    0.000 
#
# Total GULP energy -156288.492113 kJ/mol
# GULP energy per Si atom -5581.731861 kJ/mol
# Density = 1.876792 g / cm^3
# Si number density = 18.810737 Si / 1000 Ang^3
#
#
#
# Elastic Constant Matrix: (Units=GPa)
#
#
# Indices 1 2 3 4 5 6 
#
# 1 72.7233 24.7574 30.9209 0.0000 19.3316 0.0000
# 2 24.7574 85.7873 35.0129 0.0000 17.3477 0.0000
# 3 30.9209 35.0129 124.0902 0.0000 19.3505 0.0000
# 4 0.0000 0.0000 0.0000 22.9251 0.0000 5.5649
# 5 19.3316 17.3477 19.3505 0.0000 29.1017 0.0000
# 6 0.0000 0.0000 0.0000 5.5649 0.0000 29.1423
#
#
#
# Elastic Compliance Matrix: (Units=1/GPa)
#
#
# Indices 1 2 3 4 5 6 
#
# 1 0.017957 -0.002400 -0.002410 0.000000 -0.008895 0.000000
# 2 -0.002400 0.014507 -0.002672 0.000000 -0.005277 0.000000
# 3 -0.002410 -0.002672 0.009947 0.000000 -0.003420 0.000000
# 4 0.000000 0.000000 0.000000 0.045741 0.000000 -0.008734
# 5 -0.008895 -0.005277 -0.003420 0.000000 0.045690 0.000000
# 6 0.000000 0.000000 0.000000 -0.008734 0.000000 0.035982
#
#
# Mechanical properties :
#
#
# Convention : Reuss Voigt Hill
#
# Bulk Modulus (GPa) = 36.43564 51.55369 43.99467
# Shear Modulus (GPa) = 25.78148 29.02778 27.40463
#
# Velocity S-wave (km/s) = 3.70614 3.93256 3.82103
# Velocity P-wave (km/s) = 6.14212 6.93441 6.55025
#
# Compressibility (1/GPa) = 0.02744566
#
# Stress axis : x y z
#
# Youngs Moduli (GPa) = 55.68818 68.93210 100.53727
#
# Poissons Ratio (x) = 0.16542 0.24233
# Poissons Ratio (y) = 0.13364 0.26868
# Poissons Ratio (z) = 0.13423 0.18422
#
# Static dielectric constant tensor:
#      x y z
#    x 2.040530 0.000000 0.308190 
#    y 0.000000 1.648810 0.000000 
#    z 0.308190 0.000000 1.912570 
# 
# From -- ./inp_files/268495.got.cif
#   From: 2010.05.17/outbox.cif.g08.bks.cpg/sg15_135_cif.got.tgz:268495.got - 2010.06.03 18:47:42.
