data_PCOD9302017
_publ_section_title
;
Structure prediction by ZEFSAII (Michael W. Deem and Ramdas Pophale) SiO2 
 PCOD9302017
Probable space group: C 2/C
;
_chemical_formula_sum "Si O2"
_cell_formula_units_Z 44
_cell_length_a 9.142843
_cell_length_b 16.975492
_cell_length_c 17.571051
_cell_angle_alpha 90.000000
_cell_angle_beta 134.347317
_cell_angle_gamma 90.000000
_cell_volume 1950.193443
_symmetry_space_group_name_H-M "C 2/C"
_symmetry_group_IT_number 15
_symmetry_cell_setting 'monoclinic'
loop_
_space_group_symop_operation_xyz
x,y,z
-x,y,1/2-z
-x,-y,-z
x,-y,1/2+z
1/2+x,1/2+y,z
1/2-x,1/2+y,1/2-z
1/2-x,1/2-y,-z
1/2+x,1/2-y,1/2+z
loop_
_atom_site_type_symbol
_atom_site_label
_atom_site_fract_x
_atom_site_fract_y
_atom_site_fract_z
Si Si1 0.160680 0.494435 0.863660
Si Si2 0.446674 0.452507 0.595632
Si Si3 0.500000 0.423369 0.250000
Si Si4 0.521377 0.828280 0.871023
Si Si5 0.051745 0.216426 0.186640
Si Si6 0.830752 0.298279 0.408478
O O1 0.355306 0.463583 0.886365
O O2 0.044882 0.416835 0.850882
O O3 0.000000 0.537751 0.750000
O O4 0.251949 0.539322 0.969413
O O5 0.466148 0.521776 0.664490
O O6 0.452038 0.369262 0.639816
O O7 0.694469 0.365538 0.319580
O O8 0.296163 0.796374 0.775076
O O9 0.683151 0.772213 0.886158
O O10 0.566366 0.828107 0.977041
O O11 0.012169 0.266342 0.096711
O O12 0.000000 0.250826 0.250000
#
# Coordination Sequence:
#
# PCOD9302017 Si02
#       6
#     8   8   4   8   8   8
#     4  11  21  41  67 102 140 179 234 286 349 412
#     4  11  24  39  69 106 138 180 230 294 346 413
#     4  12  22  44  66 108 136 176 236 292 336 422
#     4  11  21  41  74  98 131 189 236 288 342 425
#     4  12  24  44  68  99 149 183 229 290 360 414
#     4  11  23  42  73 100 132 182 244 280 347 420
#
# _framework density 22.561865000000001
#
# number of rings (size 3 to 8) (size 9 to 14) (size 15 to 20)
#    0.000    0.727    8.182    0.000    0.000    0.727 
#    3.273    3.636    0.000    0.000    0.000    0.000 
#    0.000    0.000    0.000    0.000    0.000    0.000 
#
# Total GULP energy -123149.284874 kJ/mol
# GULP energy per Si atom -5597.694767 kJ/mol
# Density = 2.251051 g / cm^3
# Si number density = 22.561865 Si / 1000 Ang^3
#
#
#
# Elastic Constant Matrix: (Units=GPa)
#
#
# Indices 1 2 3 4 5 6 
#
# 1 85.5660 19.3111 28.0914 0.0000 -31.3488 0.0000
# 2 19.3111 75.5869 30.2363 0.0000 -20.9529 0.0000
# 3 28.0914 30.2363 167.7651 0.0000 -27.1510 0.0000
# 4 0.0000 0.0000 0.0000 7.7404 0.0000 -9.6537
# 5 -31.3488 -20.9529 -27.1510 0.0000 39.5289 0.0000
# 6 0.0000 0.0000 0.0000 -9.6537 0.0000 9.5442
#
#
#
# Elastic Compliance Matrix: (Units=1/GPa)
#
#
# Indices 1 2 3 4 5 6 
#
# 1 0.016569 -0.000527 -0.000673 0.000000 0.012399 0.000000
# 2 -0.000527 0.015941 -0.001671 0.000000 0.006884 0.000000
# 3 -0.000673 -0.001671 0.006913 0.000000 0.003329 0.000000
# 4 0.000000 0.000000 0.000000 -0.494045 0.000000 -0.499713
# 5 0.012399 0.006884 0.003329 0.000000 0.041067 0.000000
# 6 0.000000 0.000000 0.000000 -0.499713 0.000000 -0.400671
#
#
# Mechanical properties :
#
#
# Convention : Reuss Voigt Hill
#
# Bulk Modulus (GPa) = 29.68874 53.79951 41.74413
# Shear Modulus (GPa) = -6.27151 28.11465 10.92157
#
# Velocity S-wave (km/s) = -1.66905 3.53386 2.20255
# Velocity P-wave (km/s) = 3.07784 6.36773 5.00105
#
# Compressibility (1/GPa) = 0.03368280
#
# Stress axis : x y z
#
# Youngs Moduli (GPa) = 60.35249 62.73093 144.64869
#
# Poissons Ratio (x) = 0.03306 0.09732
# Poissons Ratio (y) = 0.03180 0.24166
# Poissons Ratio (z) = 0.04061 0.10480
#
# Static dielectric constant tensor:
#      x y z
#    x 1.832950 0.000000 -0.000670 
#    y 0.000000 1.792140 0.000000 
#    z -0.000670 0.000000 1.849450 
# 
# From -- ./inp_files/134743.got.cif
#   From: 2010.05.17/outbox.cif.g08.bks.cpg/sg15_68_cif.got.tgz:134743.got - 2010.06.03 18:47:42.
