data_PCOD9302468
_publ_section_title
;
Structure prediction by ZEFSAII (Michael W. Deem and Ramdas Pophale) SiO2 
 PCOD9302468
Probable space group: C 2/C
;
_chemical_formula_sum "Si O2"
_cell_formula_units_Z 28
_cell_length_a 22.893871
_cell_length_b 8.610644
_cell_length_c 5.095011
_cell_angle_alpha 90.000000
_cell_angle_beta 98.211765
_cell_angle_gamma 90.000000
_cell_volume 994.086444
_symmetry_space_group_name_H-M "C 2/C"
_symmetry_group_IT_number 15
_symmetry_cell_setting 'monoclinic'
loop_
_space_group_symop_operation_xyz
x,y,z
-x,y,1/2-z
-x,-y,-z
x,-y,1/2+z
1/2+x,1/2+y,z
1/2-x,1/2+y,1/2-z
1/2-x,1/2-y,-z
1/2+x,1/2-y,1/2+z
loop_
_atom_site_type_symbol
_atom_site_label
_atom_site_fract_x
_atom_site_fract_y
_atom_site_fract_z
Si Si1 0.000000 0.885735 0.250000
Si Si2 0.080879 0.594180 0.382991
Si Si3 0.292116 0.852714 0.717812
Si Si4 0.175225 0.076392 0.400694
O O1 0.946322 0.760933 0.202988
O O2 0.000000 0.000000 0.500000
O O3 0.062613 0.532452 0.654436
O O4 0.152155 0.593244 0.414183
O O5 0.250000 0.750000 0.500000
O O6 0.350688 0.541245 0.400177
O O7 0.324031 0.740139 0.955874
O O8 0.245020 0.945211 0.869065
#
# Coordination Sequence:
#
# PCOD9302468 Si02
#       4
#     4   8   8   8
#     4  12  28  58  84 114 152 196 266 334 408 474
#     4  12  28  49  83 117 155 205 263 327 393 465
#     4  11  25  40  67 107 153 204 250 302 374 458
#     4  11  22  37  57  88 141 196 245 295 351 429
#
# _framework density 28.166563
#
# number of rings (size 3 to 8) (size 9 to 14) (size 15 to 20)
#    0.000    0.571    2.857    4.286    8.000    2.286 
#    0.000    0.000    0.000    0.000    0.000    0.000 
#    0.000    0.000    0.000    0.000    0.000    0.000 
#
# Total GULP energy -78425.708771 kJ/mol
# GULP energy per Si atom -5601.836341 kJ/mol
# Density = 2.810245 g / cm^3
# Si number density = 28.166563 Si / 1000 Ang^3
#
#
#
# Elastic Constant Matrix: (Units=GPa)
#
#
# Indices 1 2 3 4 5 6 
#
# 1 140.2162 19.7676 18.6376 0.0000 8.1264 0.0000
# 2 19.7676 146.3317 46.5943 0.0000 3.9429 0.0000
# 3 18.6376 46.5943 203.5791 0.0000 -22.8519 0.0000
# 4 0.0000 0.0000 0.0000 56.4116 0.0000 -7.0402
# 5 8.1264 3.9429 -22.8519 0.0000 32.8704 0.0000
# 6 0.0000 0.0000 0.0000 -7.0402 0.0000 57.0404
#
#
#
# Elastic Compliance Matrix: (Units=1/GPa)
#
#
# Indices 1 2 3 4 5 6 
#
# 1 0.007468 -0.000697 -0.000783 0.000000 -0.002307 0.000000
# 2 -0.000697 0.007590 -0.001905 0.000000 -0.002062 0.000000
# 3 -0.000783 -0.001905 0.005930 0.000000 0.004545 0.000000
# 4 0.000000 0.000000 0.000000 0.018004 0.000000 0.002222
# 5 -0.002307 -0.002062 0.004545 0.000000 0.034400 0.000000
# 6 0.000000 0.000000 0.000000 0.002222 0.000000 0.017806
#
#
# Mechanical properties :
#
#
# Convention : Reuss Voigt Hill
#
# Bulk Modulus (GPa) = 70.33597 73.34735 71.84166
# Shear Modulus (GPa) = 48.68210 56.27297 52.47753
#
# Velocity S-wave (km/s) = 4.16187 4.47460 4.32106
# Velocity P-wave (km/s) = 6.93690 7.26589 7.10330
#
# Compressibility (1/GPa) = 0.01421748
#
# Stress axis : x y z
#
# Youngs Moduli (GPa) = 133.90569 131.75070 168.63711
#
# Poissons Ratio (x) = 0.09187 0.13205
# Poissons Ratio (y) = 0.09338 0.32123
# Poissons Ratio (z) = 0.10485 0.25096
#
# Static dielectric constant tensor:
#      x y z
#    x 2.243030 0.000000 0.134020 
#    y 0.000000 2.310780 0.000000 
#    z 0.134020 0.000000 2.273650 
# 
# From -- ./inp_files/16638.got.cif
#   From: 2010.05.17/outbox.cif.g08.bks.cpg/sg15_9_cif.got.tgz:16638.got - 2010.06.03 18:47:42.
