data_PCOD9302168
_publ_section_title
;
Structure prediction by ZEFSAII (Michael W. Deem and Ramdas Pophale) SiO2 
 PCOD9302168
Probable space group: C 2/C
;
_chemical_formula_sum "Si O2"
_cell_formula_units_Z 56
_cell_length_a 17.723663
_cell_length_b 7.955768
_cell_length_c 18.240107
_cell_angle_alpha 90.000000
_cell_angle_beta 116.284786
_cell_angle_gamma 90.000000
_cell_volume 2306.023196
_symmetry_space_group_name_H-M "C 2/C"
_symmetry_group_IT_number 15
_symmetry_cell_setting 'monoclinic'
loop_
_space_group_symop_operation_xyz
x,y,z
-x,y,1/2-z
-x,-y,-z
x,-y,1/2+z
1/2+x,1/2+y,z
1/2-x,1/2+y,1/2-z
1/2-x,1/2-y,-z
1/2+x,1/2-y,1/2+z
loop_
_atom_site_type_symbol
_atom_site_label
_atom_site_fract_x
_atom_site_fract_y
_atom_site_fract_z
Si Si1 0.595357 0.051974 0.066370
Si Si2 0.659110 0.382739 0.006585
Si Si3 0.487194 0.440110 0.661166
Si Si4 0.349564 0.573776 0.351953
Si Si5 0.804177 0.415450 0.505588
Si Si6 0.936474 0.685901 0.170559
Si Si7 0.171274 0.281662 0.736043
O O1 0.627307 0.218953 0.036522
O O2 0.616505 0.090116 0.160819
O O3 0.500000 0.000000 0.000000
O O4 0.665290 0.922754 0.065037
O O5 0.643004 0.533254 0.058601
O O6 0.751566 0.428030 0.015640
O O7 0.601021 0.391614 0.910625
O O8 0.500000 0.387477 0.750000
O O9 0.561159 0.369430 0.642036
O O10 0.482291 0.645780 0.660831
O O11 0.268132 0.670316 0.288474
O O12 0.335185 0.392722 0.308206
O O13 0.750000 0.250000 0.500000
O O14 0.891505 0.409107 0.587008
O O15 0.864822 0.737257 0.197679
O O16 0.000000 0.586333 0.250000
#
# Coordination Sequence:
#
# PCOD9302168 Si02
#       7
#     8   8   8   8   8   8   8
#     4  11  28  47  69 100 149 189 232 294 360 418
#     4  11  25  45  66 107 144 182 230 297 355 419
#     4  11  23  41  73 101 138 180 238 288 347 421
#     4  11  24  43  66 103 140 181 227 293 348 419
#     4  12  25  43  74 103 134 190 238 287 354 428
#     4  11  21  42  71 100 134 176 242 286 349 417
#     4  11  24  42  68 101 137 180 230 290 350 415
#
# _framework density 24.284233
#
# number of rings (size 3 to 8) (size 9 to 14) (size 15 to 20)
#    0.000    0.857    5.714    1.714    6.000    2.286 
#    0.000    2.143    0.000    0.000    0.000    0.000 
#    0.000    0.000    0.000    0.000    0.000    0.000 
#
# Total GULP energy -156477.114817 kJ/mol
# GULP energy per Si atom -5588.468386 kJ/mol
# Density = 2.422896 g / cm^3
# Si number density = 24.284233 Si / 1000 Ang^3
#
#
#
# Elastic Constant Matrix: (Units=GPa)
#
#
# Indices 1 2 3 4 5 6 
#
# 1 123.0970 7.0641 12.2037 0.0000 -2.0226 0.0000
# 2 7.0641 61.1289 -7.7485 0.0000 4.1995 0.0000
# 3 12.2037 -7.7485 110.9004 0.0000 8.4864 0.0000
# 4 0.0000 0.0000 0.0000 6.5198 0.0000 13.9693
# 5 -2.0226 4.1995 8.4864 0.0000 49.5436 0.0000
# 6 0.0000 0.0000 0.0000 13.9693 0.0000 33.2422
#
#
#
# Elastic Compliance Matrix: (Units=1/GPa)
#
#
# Indices 1 2 3 4 5 6 
#
# 1 0.008302 -0.001133 -0.001040 0.000000 0.000613 0.000000
# 2 -0.001133 0.016789 0.001429 0.000000 -0.001714 0.000000
# 3 -0.001040 0.001429 0.009367 0.000000 -0.001768 0.000000
# 4 0.000000 0.000000 0.000000 1.539717 0.000000 -0.647031
# 5 0.000613 -0.001714 -0.001768 0.000000 0.020657 0.000000
# 6 0.000000 0.000000 0.000000 -0.647031 0.000000 0.301983
#
#
# Mechanical properties :
#
#
# Convention : Reuss Voigt Hill
#
# Bulk Modulus (GPa) = 30.33139 35.35165 32.84152
# Shear Modulus (GPa) = 2.61877 36.76823 19.69350
#
# Velocity S-wave (km/s) = 1.03958 3.89534 2.85082
# Velocity P-wave (km/s) = 3.73607 5.90090 4.93856
#
# Compressibility (1/GPa) = 0.03296915
#
# Stress axis : x y z
#
# Youngs Moduli (GPa) = 120.45502 59.56380 106.76200
#
# Poissons Ratio (x) = 0.06750 0.11099
# Poissons Ratio (y) = 0.13651 -0.15255
# Poissons Ratio (z) = 0.12523 -0.08511
#
# Static dielectric constant tensor:
#      x y z
#    x 1.955700 0.000000 -0.027350 
#    y 0.000000 2.049880 0.000000 
#    z -0.027350 0.000000 1.933940 
# 
# From -- ./inp_files/209611.got.cif
#   From: 2010.05.17/outbox.cif.g08.bks.cpg/sg15_105_cif.got.tgz:209611.got - 2010.06.03 18:47:42.
