data_PCOD9302608
_publ_section_title
;
Structure prediction by ZEFSAII (Michael W. Deem and Ramdas Pophale) SiO2 
 PCOD9302608
Probable space group: C 2/C
;
_chemical_formula_sum "Si O2"
_cell_formula_units_Z 32
_cell_length_a 18.671852
_cell_length_b 14.196856
_cell_length_c 5.306322
_cell_angle_alpha 90.000000
_cell_angle_beta 80.987032
_cell_angle_gamma 90.000000
_cell_volume 1389.240774
_symmetry_space_group_name_H-M "C 2/C"
_symmetry_group_IT_number 15
_symmetry_cell_setting 'monoclinic'
loop_
_space_group_symop_operation_xyz
x,y,z
-x,y,1/2-z
-x,-y,-z
x,-y,1/2+z
1/2+x,1/2+y,z
1/2-x,1/2+y,1/2-z
1/2-x,1/2-y,-z
1/2+x,1/2-y,1/2+z
loop_
_atom_site_type_symbol
_atom_site_label
_atom_site_fract_x
_atom_site_fract_y
_atom_site_fract_z
Si Si1 0.666455 0.733081 0.989638
Si Si2 0.406201 0.768826 0.984042
Si Si3 0.000000 0.437142 0.750000
Si Si4 0.857465 0.025645 0.300515
Si Si5 0.000000 0.898092 0.250000
O O1 0.620795 0.792939 0.220483
O O2 0.642235 0.630229 0.096248
O O3 0.750000 0.750000 0.000000
O O4 0.650801 0.738277 0.701244
O O5 0.436346 0.862570 0.837805
O O6 0.463692 0.680024 0.958137
O O7 0.000000 0.500000 0.500000
O O8 0.819872 0.971637 0.550789
O O9 0.934185 0.969613 0.215364
#
# Coordination Sequence:
#
# PCOD9302608 Si02
#       5
#     8   8   4   8   4
#     4  12  25  44  62  95 143 189 224 259 330 422
#     4  11  25  41  73  98 131 175 221 296 346 399
#     4  11  24  46  71 104 130 168 233 302 348 401
#     4  12  23  38  64 104 136 164 214 278 339 404
#     4  11  22  38  71 106 132 152 221 284 372 369
#
# _framework density 23.034161999999998
#
# number of rings (size 3 to 8) (size 9 to 14) (size 15 to 20)
#    0.000    0.500    5.000    3.000    0.000    3.000 
#    0.000    7.500    0.000    0.000    0.000    0.000 
#    0.000    0.000    0.000    0.000    0.000    0.000 
#
# Total GULP energy -89099.807271 kJ/mol
# GULP energy per Si atom -5568.737954 kJ/mol
# Density = 2.298174 g / cm^3
# Si number density = 23.034162 Si / 1000 Ang^3
#
#
#
# Elastic Constant Matrix: (Units=GPa)
#
#
# Indices 1 2 3 4 5 6 
#
# 1 38.3409 35.6899 21.0233 0.0000 0.6523 0.0000
# 2 35.6899 118.5607 17.1465 0.0000 2.0963 0.0000
# 3 21.0233 17.1465 122.2798 0.0000 17.1451 0.0000
# 4 0.0000 0.0000 0.0000 27.2150 0.0000 18.7710
# 5 0.6523 2.0963 17.1451 0.0000 30.4580 0.0000
# 6 0.0000 0.0000 0.0000 18.7710 0.0000 12.4330
#
#
#
# Elastic Compliance Matrix: (Units=1/GPa)
#
#
# Indices 1 2 3 4 5 6 
#
# 1 0.039489 -0.011123 -0.005666 0.000000 0.003109 0.000000
# 2 -0.011123 0.011742 0.000375 0.000000 -0.000781 0.000000
# 3 -0.005666 0.000375 0.009865 0.000000 -0.005457 0.000000
# 4 0.000000 0.000000 0.000000 -0.889061 0.000000 1.342274
# 5 0.003109 -0.000781 -0.005457 0.000000 0.035891 0.000000
# 6 0.000000 0.000000 0.000000 1.342274 0.000000 -1.946087
#
#
# Mechanical properties :
#
#
# Convention : Reuss Voigt Hill
#
# Bulk Modulus (GPa) = 35.37323 47.43340 41.40332
# Shear Modulus (GPa) = -1.85466 27.70933 12.92734
#
# Velocity S-wave (km/s) = -0.89829 3.47214 2.37159
# Velocity P-wave (km/s) = 3.78342 6.05902 5.05104
#
# Compressibility (1/GPa) = 0.02826996
#
# Stress axis : x y z
#
# Youngs Moduli (GPa) = 25.32334 85.16204 101.37271
#
# Poissons Ratio (x) = 0.94725 0.57433
# Poissons Ratio (y) = 0.28167 -0.03805
# Poissons Ratio (z) = 0.14347 -0.03196
#
# Static dielectric constant tensor:
#      x y z
#    x 1.946580 0.000000 0.075080 
#    y 0.000000 1.923720 0.000000 
#    z 0.075080 0.000000 2.153370 
# 
# From -- ./inp_files/9519.got.cif
#   From: 2010.05.17/outbox.cif.g08.bks.cpg/sg15_5_cif.got.tgz:9519.got - 2010.06.03 18:47:42.
