data_PCOD9302672
_publ_section_title
;
Structure prediction by ZEFSAII (Michael W. Deem and Ramdas Pophale) SiO2 
 PCOD9302672
Probable space group: C 2/C
;
_chemical_formula_sum "Si O2"
_cell_formula_units_Z 32
_cell_length_a 25.939827
_cell_length_b 4.736220
_cell_length_c 18.104076
_cell_angle_alpha 90.000000
_cell_angle_beta 149.560468
_cell_angle_gamma 90.000000
_cell_volume 1126.847473
_symmetry_space_group_name_H-M "C 2/C"
_symmetry_group_IT_number 15
_symmetry_cell_setting 'monoclinic'
loop_
_space_group_symop_operation_xyz
x,y,z
-x,y,1/2-z
-x,-y,-z
x,-y,1/2+z
1/2+x,1/2+y,z
1/2-x,1/2+y,1/2-z
1/2-x,1/2-y,-z
1/2+x,1/2-y,1/2+z
loop_
_atom_site_type_symbol
_atom_site_label
_atom_site_fract_x
_atom_site_fract_y
_atom_site_fract_z
Si Si1 0.552091 0.771689 0.618892
Si Si2 0.179096 0.017741 0.654232
Si Si3 0.149644 0.436010 0.365577
Si Si4 0.924761 0.465327 0.073997
O O1 0.599731 0.535836 0.624891
O O2 0.464448 0.771549 0.573185
O O3 0.500000 0.000000 0.500000
O O4 0.646728 0.882504 0.786835
O O5 0.273097 0.214988 0.799747
O O6 0.143526 0.220836 0.544389
O O7 0.250000 0.250000 0.500000
O O8 0.126953 0.584211 0.415999
O O9 0.035958 0.301666 0.218187
#
# Coordination Sequence:
#
# PCOD9302672 Si02
#       4
#     8   8   8   8
#     4   8  16  33  55  87 128 163 209 267 318 375
#     4  11  22  39  64  94 127 171 217 262 323 387
#     4   9  15  30  63  87 129 167 213 259 326 382
#     4   8  18  34  57  93 130 163 216 267 318 385
#
# _framework density 28.397808999999999
#
# number of rings (size 3 to 8) (size 9 to 14) (size 15 to 20)
#    1.500    1.500    0.000    1.500    0.000    0.000 
#    0.000   12.500    0.000    6.000    0.000    0.000 
#    0.000    0.000    0.000    0.000    0.000    0.000 
#
# Total GULP energy -89189.366852 kJ/mol
# GULP energy per Si atom -5574.335428 kJ/mol
# Density = 2.833317 g / cm^3
# Si number density = 28.397809 Si / 1000 Ang^3
#
#
#
# Elastic Constant Matrix: (Units=GPa)
#
#
# Indices 1 2 3 4 5 6 
#
# 1 175.3919 38.2429 7.7357 -0.0001 -6.1449 0.0001
# 2 38.2429 130.6781 -13.5465 0.0021 -5.4317 0.0014
# 3 7.7357 -13.5465 60.9951 -0.0011 10.5947 -0.0002
# 4 -0.0001 0.0021 -0.0011 9.1857 0.0000 8.2782
# 5 -6.1449 -5.4317 10.5947 0.0000 66.4304 -0.0001
# 6 0.0001 0.0014 -0.0002 8.2782 -0.0001 33.1615
#
#
#
# Elastic Compliance Matrix: (Units=1/GPa)
#
#
# Indices 1 2 3 4 5 6 
#
# 1 0.006202 -0.001926 -0.001323 0.000000 0.000627 0.000000
# 2 -0.001926 0.008440 0.002088 -0.000002 0.000179 0.000000
# 3 -0.001323 0.002088 0.017503 0.000002 -0.002743 0.000000
# 4 0.000000 -0.000002 0.000002 0.140466 0.000000 -0.035065
# 5 0.000627 0.000179 -0.002743 0.000000 0.015564 0.000000
# 6 0.000000 0.000000 0.000000 -0.035065 0.000000 0.038909
#
#
# Mechanical properties :
#
#
# Convention : Reuss Voigt Hill
#
# Bulk Modulus (GPa) = 33.53338 47.99214 40.76276
# Shear Modulus (GPa) = 20.89021 44.06436 32.47729
#
# Velocity S-wave (km/s) = 2.71519 3.94341 3.38547
# Velocity P-wave (km/s) = 4.65443 6.13764 5.44676
#
# Compressibility (1/GPa) = 0.02982103
#
# Stress axis : x y z
#
# Youngs Moduli (GPa) = 161.24300 118.48475 57.13399
#
# Poissons Ratio (x) = 0.22821 0.07560
# Poissons Ratio (y) = 0.31056 -0.11927
# Poissons Ratio (z) = 0.21337 -0.24735
#
# Static dielectric constant tensor:
#      x y z
#    x 2.240840 0.000000 -0.034680 
#    y 0.000000 2.233550 0.000000 
#    z -0.034680 0.000000 2.834980 
# 
# From -- ./inp_files/170215.got.cif
#   From: 2010.05.17/outbox.cif.g08.bks.cpg/sg15_86_cif.got.tgz:170215.got - 2010.06.03 18:47:42.
