data_PCOD9302151
_publ_section_title
;
Structure prediction by ZEFSAII (Michael W. Deem and Ramdas Pophale) SiO2 
 PCOD9302151
Probable space group: C 2/C
;
_chemical_formula_sum "Si O2"
_cell_formula_units_Z 52
_cell_length_a 19.855057
_cell_length_b 14.036145
_cell_length_c 18.443969
_cell_angle_alpha 90.000000
_cell_angle_beta 149.061736
_cell_angle_gamma 90.000000
_cell_volume 2642.609254
_symmetry_space_group_name_H-M "C 2/C"
_symmetry_group_IT_number 15
_symmetry_cell_setting 'monoclinic'
loop_
_space_group_symop_operation_xyz
x,y,z
-x,y,1/2-z
-x,-y,-z
x,-y,1/2+z
1/2+x,1/2+y,z
1/2-x,1/2+y,1/2-z
1/2-x,1/2-y,-z
1/2+x,1/2-y,1/2+z
loop_
_atom_site_type_symbol
_atom_site_label
_atom_site_fract_x
_atom_site_fract_y
_atom_site_fract_z
Si Si1 0.235320 0.965194 0.925313
Si Si2 0.782324 0.343966 0.381670
Si Si3 0.000000 0.862163 0.750000
Si Si4 0.120116 0.510980 0.305639
Si Si5 0.033485 0.275439 0.697685
Si Si6 0.147239 0.660523 0.720567
Si Si7 0.626062 0.231322 0.983415
O O1 0.087680 0.928694 0.780096
O O2 0.275971 0.052547 0.912931
O O3 0.323289 0.872851 0.991335
O O4 0.255371 0.998735 0.026893
O O5 0.642565 0.293689 0.265514
O O6 0.816195 0.353924 0.328820
O O7 0.898436 0.285016 0.528547
O O8 0.094693 0.794078 0.883547
O O9 0.096334 0.618459 0.258389
O O10 0.127712 0.437448 0.247033
O O11 0.000000 0.489028 0.250000
O O12 0.000000 0.248884 0.750000
O O13 0.011499 0.718093 0.602580
O O14 0.262896 0.717954 0.867068
#
# Coordination Sequence:
#
# PCOD9302151 Si02
#       7
#     8   8   4   8   8   8   8
#     4  12  24  42  70 102 134 176 229 274 338 405
#     4  12  27  44  68 104 135 185 224 280 344 396
#     4  12  24  40  72 106 130 174 222 286 334 400
#     4  11  21  42  69  95 125 174 231 276 323 402
#     4  11  24  46  72  96 132 181 239 279 326 395
#     4  12  25  42  67 101 143 176 220 281 346 408
#     4  12  23  42  68 100 140 174 221 274 343 407
#
# _framework density 19.677520999999999
#
# number of rings (size 3 to 8) (size 9 to 14) (size 15 to 20)
#    0.000    0.308    7.692    2.769    1.077    3.692 
#    0.000    0.769    0.000    0.000    0.000    0.000 
#    0.000    0.000    0.000    0.000    0.000    0.000 
#
# Total GULP energy -145425.027602 kJ/mol
# GULP energy per Si atom -5593.270292 kJ/mol
# Density = 1.963273 g / cm^3
# Si number density = 19.677521 Si / 1000 Ang^3
#
#
#
# Elastic Constant Matrix: (Units=GPa)
#
#
# Indices 1 2 3 4 5 6 
#
# 1 110.6142 31.2121 24.8509 0.0000 2.2334 0.0000
# 2 31.2121 41.1331 14.1581 0.0000 10.4501 0.0000
# 3 24.8509 14.1581 80.1536 0.0000 17.8073 0.0000
# 4 0.0000 0.0000 0.0000 13.4512 0.0000 2.1116
# 5 2.2334 10.4501 17.8073 0.0000 30.2448 -0.0001
# 6 0.0000 0.0000 0.0000 2.1116 -0.0001 18.1338
#
#
#
# Elastic Compliance Matrix: (Units=1/GPa)
#
#
# Indices 1 2 3 4 5 6 
#
# 1 0.012273 -0.009300 -0.003077 0.000000 0.004119 0.000000
# 2 -0.009300 0.034368 -0.000807 0.000000 -0.010712 0.000000
# 3 -0.003077 -0.000807 0.015486 0.000000 -0.008612 0.000000
# 4 0.000000 0.000000 0.000000 0.075727 0.000000 -0.008818
# 5 0.004119 -0.010712 -0.008612 0.000000 0.041531 0.000000
# 6 0.000000 0.000000 0.000000 -0.008818 0.000000 0.056173
#
#
# Mechanical properties :
#
#
# Convention : Reuss Voigt Hill
#
# Bulk Modulus (GPa) = 27.96647 41.37146 34.66897
# Shear Modulus (GPa) = 18.25848 23.14460 20.70154
#
# Velocity S-wave (km/s) = 3.04943 3.43329 3.24704
# Velocity P-wave (km/s) = 5.16158 6.06523 5.63156
#
# Compressibility (1/GPa) = 0.03575710
#
# Stress axis : x y z
#
# Youngs Moduli (GPa) = 81.48087 29.09718 64.57459
#
# Poissons Ratio (x) = 0.27060 0.19873
# Poissons Ratio (y) = 0.75776 0.05213
# Poissons Ratio (z) = 0.25075 0.02349
#
# Static dielectric constant tensor:
#      x y z
#    x 1.687590 0.000000 0.034610 
#    y 0.000000 1.672590 0.000000 
#    z 0.034610 0.000000 1.730050 
# 
# From -- ./inp_files/215612.got.cif
#   From: 2010.05.17/outbox.cif.g08.bks.cpg/sg15_108_cif.got.tgz:215612.got - 2010.06.03 18:47:42.
