data_PCOD9302992
_publ_section_title
;
Structure prediction by ZEFSAII (Michael W. Deem and Ramdas Pophale) SiO2 
 PCOD9302992
Probable space group: C 2/C
;
_chemical_formula_sum "Si O2"
_cell_formula_units_Z 60
_cell_length_a 15.377742
_cell_length_b 12.585109
_cell_length_c 15.115306
_cell_angle_alpha 90.000000
_cell_angle_beta 120.589481
_cell_angle_gamma 90.000000
_cell_volume 2518.179289
_symmetry_space_group_name_H-M "C 2/C"
_symmetry_group_IT_number 15
_symmetry_cell_setting 'monoclinic'
loop_
_space_group_symop_operation_xyz
x,y,z
-x,y,1/2-z
-x,-y,-z
x,-y,1/2+z
1/2+x,1/2+y,z
1/2-x,1/2+y,1/2-z
1/2-x,1/2-y,-z
1/2+x,1/2-y,1/2+z
loop_
_atom_site_type_symbol
_atom_site_label
_atom_site_fract_x
_atom_site_fract_y
_atom_site_fract_z
Si Si1 0.000000 0.041393 0.250000
Si Si2 0.334037 0.231230 0.181054
Si Si3 0.630062 0.252594 0.506163
Si Si4 0.393344 0.003522 0.730352
Si Si5 0.552308 0.613803 0.628129
Si Si6 0.785579 0.877410 0.422252
Si Si7 0.381431 0.023516 0.924791
Si Si8 0.207226 0.149714 0.371082
O O1 0.009985 0.967160 0.342660
O O2 0.899149 0.107618 0.220320
O O3 0.351279 0.267592 0.088849
O O4 0.392776 0.123849 0.234950
O O5 0.376363 0.321866 0.266266
O O6 0.215315 0.203472 0.116455
O O7 0.521492 0.305326 0.461433
O O8 0.636660 0.127226 0.526481
O O9 0.500000 0.041686 0.750000
O O10 0.306733 0.041642 0.620385
O O11 0.369743 0.047844 0.814845
O O12 0.627841 0.571182 0.592817
O O13 0.816941 0.847228 0.536799
O O14 0.743531 0.766195 0.360289
O O15 0.300287 0.931263 0.902770
O O16 0.500000 0.000000 0.000000
#
# Coordination Sequence:
#
# PCOD9302992 Si02
#       8
#     4   8   8   8   8   8   8   8
#     4  12  26  46  76 102 152 188 232 294 374 426
#     4  11  22  41  67 102 134 174 228 300 351 413
#     4  11  23  39  71  99 134 178 228 287 366 415
#     4  12  25  41  70 100 134 180 236 287 352 421
#     4  12  24  45  70 107 142 178 235 300 356 426
#     4  11  26  46  69  98 142 185 244 284 339 431
#     4  12  24  44  70 100 136 183 234 297 351 420
#     4  11  26  48  68  99 145 191 233 290 354 431
#
# _framework density 23.826737999999999
#
# number of rings (size 3 to 8) (size 9 to 14) (size 15 to 20)
#    0.000    0.533    1.333    8.000    4.667    1.600 
#    4.800    0.000    0.000    0.000    0.000    0.000 
#    0.000    0.000    0.000    0.000    0.000    0.000 
#
# Total GULP energy -167892.724204 kJ/mol
# GULP energy per Si atom -5596.424140 kJ/mol
# Density = 2.377251 g / cm^3
# Si number density = 23.826738 Si / 1000 Ang^3
#
#
#
# Elastic Constant Matrix: (Units=GPa)
#
#
# Indices 1 2 3 4 5 6 
#
# 1 110.2660 17.3634 4.3037 0.0000 8.5179 0.0000
# 2 17.3634 56.3065 -7.8662 0.0000 3.5229 0.0000
# 3 4.3037 -7.8662 62.2366 0.0000 7.6856 0.0000
# 4 0.0000 0.0000 0.0000 34.7237 0.0000 9.3988
# 5 8.5179 3.5229 7.6856 0.0000 36.9651 0.0000
# 6 0.0000 0.0000 0.0000 9.3988 0.0000 -1.8959
#
#
#
# Elastic Compliance Matrix: (Units=1/GPa)
#
#
# Indices 1 2 3 4 5 6 
#
# 1 0.009711 -0.002999 -0.000831 0.000000 -0.001779 0.000000
# 2 -0.002999 0.019191 0.002847 0.000000 -0.001730 0.000000
# 3 -0.000831 0.002847 0.016929 0.000000 -0.003600 0.000000
# 4 0.000000 0.000000 0.000000 0.012297 0.000000 0.060964
# 5 -0.001779 -0.001730 -0.003600 0.000000 0.028376 0.000000
# 6 0.000000 0.000000 0.000000 0.060964 0.000000 -0.225234
#
#
# Mechanical properties :
#
#
# Convention : Reuss Voigt Hill
#
# Bulk Modulus (GPa) = 22.79782 28.49009 25.64396
# Shear Modulus (GPa) = -40.93662 28.29246 -6.32208
#
# Velocity S-wave (km/s) = -4.14949 3.44964 -1.63068
# Velocity P-wave (km/s) = 3.65633 5.27730 2.69083
#
# Compressibility (1/GPa) = 0.04386385
#
# Stress axis : x y z
#
# Youngs Moduli (GPa) = 102.97425 52.10831 59.06851
#
# Poissons Ratio (x) = 0.15630 0.04908
# Poissons Ratio (y) = 0.30886 -0.16814
# Poissons Ratio (z) = 0.08556 -0.14833
#
# Static dielectric constant tensor:
#      x y z
#    x 1.937080 0.000000 0.040340 
#    y 0.000000 1.904530 0.000000 
#    z 0.040340 0.000000 1.957660 
# 
# From -- ./inp_files/154294.got.cif
#   From: 2010.05.17/outbox.cif.g08.bks.cpg/sg15_78_cif.got.tgz:154294.got - 2010.06.03 18:47:42.
