data_PCOD9302030
_publ_section_title
;
Structure prediction by ZEFSAII (Michael W. Deem and Ramdas Pophale) SiO2 
 PCOD9302030
Probable space group: C 2/C
;
_chemical_formula_sum "Si O2"
_cell_formula_units_Z 44
_cell_length_a 12.937635
_cell_length_b 13.511240
_cell_length_c 12.886609
_cell_angle_alpha 90.000000
_cell_angle_beta 95.291295
_cell_angle_gamma 90.000000
_cell_volume 2243.025186
_symmetry_space_group_name_H-M "C 2/C"
_symmetry_group_IT_number 15
_symmetry_cell_setting 'monoclinic'
loop_
_space_group_symop_operation_xyz
x,y,z
-x,y,1/2-z
-x,-y,-z
x,-y,1/2+z
1/2+x,1/2+y,z
1/2-x,1/2+y,1/2-z
1/2-x,1/2-y,-z
1/2+x,1/2-y,1/2+z
loop_
_atom_site_type_symbol
_atom_site_label
_atom_site_fract_x
_atom_site_fract_y
_atom_site_fract_z
Si Si1 0.042815 0.785161 0.989675
Si Si2 0.500000 0.219128 0.750000
Si Si3 0.900779 0.437185 0.951421
Si Si4 0.826295 0.837642 0.039330
Si Si5 0.806852 0.575213 0.785065
Si Si6 0.304076 0.462986 0.434420
O O1 0.017342 0.775190 0.862808
O O2 0.085775 0.679264 0.031465
O O3 0.120299 0.876586 0.017734
O O4 0.941863 0.796438 0.053266
O O5 0.397125 0.151848 0.759259
O O6 0.867087 0.479532 0.836401
O O7 0.804062 0.461096 0.014951
O O8 0.000000 0.500000 0.000000
O O9 0.768395 0.881378 0.133504
O O10 0.750000 0.750000 0.000000
O O11 0.843556 0.927002 0.959554
O O12 0.729014 0.551631 0.685899
#
# Coordination Sequence:
#
# PCOD9302030 Si02
#       6
#     8   4   8   8   8   8
#     4  12  24  42  70 101 139 177 233 286 356 415
#     4  12  22  40  74  96 130 182 230 280 350 420
#     4  11  21  41  67  97 131 177 232 288 331 414
#     4  11  24  45  67  99 140 180 226 295 344 418
#     4  11  23  42  68  98 134 179 233 277 350 411
#     4  11  25  42  67 100 139 179 226 286 350 422
#
# _framework density 19.616364999999998
#
# number of rings (size 3 to 8) (size 9 to 14) (size 15 to 20)
#    0.000    0.727    5.455    2.182    0.000    5.091 
#    0.000    1.818    0.000    0.000    0.000    0.000 
#    0.000    0.000    0.000    0.000    0.000    0.000 
#
# Total GULP energy -122692.487419 kJ/mol
# GULP energy per Si atom -5576.931246 kJ/mol
# Density = 1.957172 g / cm^3
# Si number density = 19.616365 Si / 1000 Ang^3
#
#
#
# Elastic Constant Matrix: (Units=GPa)
#
#
# Indices 1 2 3 4 5 6 
#
# 1 5.2718 -50.9961 -0.6504 0.0000 -35.2778 0.0000
# 2 -50.9961 59.3540 32.4631 0.0000 -3.9697 0.0000
# 3 -0.6504 32.4631 103.6290 0.0000 3.6069 0.0000
# 4 0.0000 0.0000 0.0000 -14.2835 0.0000 10.0715
# 5 -35.2778 -3.9697 3.6069 0.0000 21.6890 0.0000
# 6 0.0000 0.0000 0.0000 10.0715 0.0000 48.3027
#
#
#
# Elastic Compliance Matrix: (Units=1/GPa)
#
#
# Indices 1 2 3 4 5 6 
#
# 1 -0.007984 -0.009840 0.003568 0.000000 -0.015381 0.000000
# 2 -0.009840 0.008716 -0.002304 0.000000 -0.014027 0.000000
# 3 0.003568 -0.002304 0.010266 0.000000 0.003674 0.000000
# 4 0.000000 0.000000 0.000000 -0.061037 0.000000 0.012727
# 5 -0.015381 -0.014027 0.003674 0.000000 0.017910 0.000000
# 6 0.000000 0.000000 0.000000 0.012727 0.000000 0.018049
#
#
# Mechanical properties :
#
#
# Convention : Reuss Voigt Hill
#
# Bulk Modulus (GPa) = -162.47089 14.43202 -74.01944
# Shear Modulus (GPa) = 4901.43541 23.63752 2462.53647
#
# Velocity S-wave (km/s) = 50.04069 3.47506 35.46933
# Velocity P-wave (km/s) = 57.05924 4.84505 40.49217
#
# Compressibility (1/GPa) = -0.00615495
#
# Stress axis : x y z
#
# Youngs Moduli (GPa) = -125.24565 114.73779 97.40887
#
# Poissons Ratio (x) = 1.12903 -0.34753
# Poissons Ratio (y) = -1.23243 0.22441
# Poissons Ratio (z) = 0.44685 0.26433
#
# Static dielectric constant tensor:
#      x y z
#    x 1.658280 0.000000 0.017360 
#    y 0.000000 1.734360 0.000000 
#    z 0.017360 0.000000 1.738460 
# 
# From -- ./inp_files/86112.got.cif
#   From: 2010.05.17/outbox.cif.g08.bks.cpg/sg15_44_cif.got.tgz:86112.got - 2010.06.03 18:47:42.
