data_PCOD9302316
_publ_section_title
;
Structure prediction by ZEFSAII (Michael W. Deem and Ramdas Pophale) SiO2 
 PCOD9302316
Probable space group: C 2/C
;
_chemical_formula_sum "Si O2"
_cell_formula_units_Z 48
_cell_length_a 27.998614
_cell_length_b 8.201663
_cell_length_c 15.895390
_cell_angle_alpha 90.000000
_cell_angle_beta 139.289339
_cell_angle_gamma 90.000000
_cell_volume 2380.765992
_symmetry_space_group_name_H-M "C 2/C"
_symmetry_group_IT_number 15
_symmetry_cell_setting 'monoclinic'
loop_
_space_group_symop_operation_xyz
x,y,z
-x,y,1/2-z
-x,-y,-z
x,-y,1/2+z
1/2+x,1/2+y,z
1/2-x,1/2+y,1/2-z
1/2-x,1/2-y,-z
1/2+x,1/2-y,1/2+z
loop_
_atom_site_type_symbol
_atom_site_label
_atom_site_fract_x
_atom_site_fract_y
_atom_site_fract_z
Si Si1 0.825096 0.375106 0.271744
Si Si2 0.044449 0.684888 0.885151
Si Si3 0.797735 0.415239 0.562987
Si Si4 0.515484 0.692199 0.022044
Si Si5 0.033194 0.334314 0.716015
Si Si6 0.704263 0.894377 0.606182
O O1 0.803236 0.477319 0.157180
O O2 0.903740 0.280629 0.367969
O O3 0.765976 0.234866 0.210527
O O4 0.819015 0.494445 0.344810
O O5 0.000000 0.765362 0.750000
O O6 0.025697 0.752734 0.949907
O O7 0.015380 0.498829 0.851045
O O8 0.129524 0.694755 0.980299
O O9 0.750000 0.250000 0.500000
O O10 0.882204 0.371459 0.656921
O O11 0.770446 0.512279 0.444228
O O12 0.500000 0.500000 0.000000
O O13 0.477060 0.755393 0.887071
O O14 0.000000 0.235212 0.750000
#
# Coordination Sequence:
#
# PCOD9302316 Si02
#       6
#     8   8   8   8   8   8
#     4  12  26  44  67 100 140 177 223 285 346 412
#     4  11  21  45  71  90 124 179 224 272 337 402
#     4  12  25  44  70  98 134 178 226 281 344 414
#     4  12  26  41  68 100 134 171 229 288 333 394
#     4  11  21  45  71  91 126 177 227 272 336 409
#     4  12  25  44  67  96 135 176 222 275 346 413
#
# _framework density 20.161579
#
# number of rings (size 3 to 8) (size 9 to 14) (size 15 to 20)
#    0.000    0.333    6.667    3.000    4.667    0.667 
#    0.000    0.000    0.000    0.000    0.000    0.000 
#    0.000    0.000    0.000    0.000    0.000    0.000 
#
# Total GULP energy -133908.207854 kJ/mol
# GULP energy per Si atom -5579.508661 kJ/mol
# Density = 2.011569 g / cm^3
# Si number density = 20.161579 Si / 1000 Ang^3
#
#
#
# Elastic Constant Matrix: (Units=GPa)
#
#
# Indices 1 2 3 4 5 6 
#
# 1 76.2400 25.6198 12.1185 0.0000 -21.5068 0.0000
# 2 25.6198 65.8966 23.6813 0.0000 -9.1616 0.0000
# 3 12.1185 23.6813 59.5481 0.0000 -13.3287 0.0000
# 4 0.0000 0.0000 0.0000 42.7400 0.0000 -28.9823
# 5 -21.5068 -9.1616 -13.3287 0.0000 62.7629 0.0000
# 6 0.0000 0.0000 0.0000 -28.9823 0.0000 74.6270
#
#
#
# Elastic Compliance Matrix: (Units=1/GPa)
#
#
# Indices 1 2 3 4 5 6 
#
# 1 0.016382 -0.005706 0.000006 0.000000 0.004782 0.000000
# 2 -0.005706 0.019772 -0.006817 0.000000 -0.000517 0.000000
# 3 0.000006 -0.006817 0.020243 0.000000 0.003306 0.000000
# 4 0.000000 0.000000 0.000000 0.031762 0.000000 0.012335
# 5 0.004782 -0.000517 0.003306 0.000000 0.018198 0.000000
# 6 0.000000 0.000000 0.000000 0.012335 0.000000 0.018190
#
#
# Mechanical properties :
#
#
# Convention : Reuss Voigt Hill
#
# Bulk Modulus (GPa) = 31.88669 36.05821 33.97245
# Shear Modulus (GPa) = 31.24274 45.37700 38.30987
#
# Velocity S-wave (km/s) = 3.94079 4.74927 4.36379
# Velocity P-wave (km/s) = 6.04618 6.92802 6.50207
#
# Compressibility (1/GPa) = 0.03136105
#
# Stress axis : x y z
#
# Youngs Moduli (GPa) = 61.04229 50.57664 49.39964
#
# Poissons Ratio (x) = 0.28861 -0.00029
# Poissons Ratio (y) = 0.34833 0.33678
# Poissons Ratio (z) = -0.00035 0.34480
#
# Static dielectric constant tensor:
#      x y z
#    x 1.803960 0.000000 -0.105470 
#    y 0.000000 5.743610 0.000000 
#    z -0.105470 0.000000 1.782030 
# 
# From -- ./inp_files/176906.got.cif
#   From: 2010.05.17/outbox.cif.g08.bks.cpg/sg15_89_cif.got.tgz:176906.got - 2010.06.03 18:47:42.
