data_PCOD9302022
_publ_section_title
;
Structure prediction by ZEFSAII (Michael W. Deem and Ramdas Pophale) SiO2 
 PCOD9302022
Probable space group: C 2/C
;
_chemical_formula_sum "Si O2"
_cell_formula_units_Z 44
_cell_length_a 17.441981
_cell_length_b 8.784018
_cell_length_c 17.242756
_cell_angle_alpha 90.000000
_cell_angle_beta 52.814754
_cell_angle_gamma 90.000000
_cell_volume 2104.663478
_symmetry_space_group_name_H-M "C 2/C"
_symmetry_group_IT_number 15
_symmetry_cell_setting 'monoclinic'
loop_
_space_group_symop_operation_xyz
x,y,z
-x,y,1/2-z
-x,-y,-z
x,-y,1/2+z
1/2+x,1/2+y,z
1/2-x,1/2+y,1/2-z
1/2-x,1/2-y,-z
1/2+x,1/2-y,1/2+z
loop_
_atom_site_type_symbol
_atom_site_label
_atom_site_fract_x
_atom_site_fract_y
_atom_site_fract_z
Si Si1 0.500000 0.818088 0.750000
Si Si2 0.169931 0.172690 0.413060
Si Si3 0.365416 0.670470 0.240508
Si Si4 0.170286 0.449984 0.128119
Si Si5 0.735207 0.474274 0.080805
Si Si6 0.531252 0.430616 0.118131
O O1 0.523665 0.708973 0.807672
O O2 0.411632 0.923405 0.825224
O O3 0.163112 0.219680 0.328154
O O4 0.212295 0.314170 0.436164
O O5 0.068153 0.119428 0.511313
O O6 0.240843 0.029113 0.381200
O O7 0.368540 0.806848 0.300437
O O8 0.285691 0.558359 0.326127
O O9 0.464797 0.577425 0.168913
O O10 0.205499 0.426768 0.018175
O O11 0.630412 0.449634 0.105958
#
# Coordination Sequence:
#
# PCOD9302022 Si02
#       6
#     4   8   8   8   8   8
#     4  12  20  40  68  86 122 170 230 256 310 386
#     4  11  22  44  65  94 133 174 208 263 337 391
#     4  12  24  38  65 102 135 156 215 288 323 360
#     4  11  24  39  65  95 123 175 220 261 315 399
#     4  11  21  43  66  90 130 179 217 254 321 404
#     4  11  21  41  67  93 123 178 220 257 316 404
#
# _framework density 20.905956
#
# number of rings (size 3 to 8) (size 9 to 14) (size 15 to 20)
#    0.000    0.727    5.455    3.273    2.545    0.000 
#    0.000    0.909    0.000    0.000    0.000    0.000 
#    0.000    0.000    0.000    0.000    0.000    0.000 
#
# Total GULP energy -122947.166541 kJ/mol
# GULP energy per Si atom -5588.507570 kJ/mol
# Density = 2.085837 g / cm^3
# Si number density = 20.905956 Si / 1000 Ang^3
#
#
#
# Elastic Constant Matrix: (Units=GPa)
#
#
# Indices 1 2 3 4 5 6 
#
# 1 49.7595 27.8046 43.8420 0.0000 7.4053 0.0000
# 2 27.8046 110.1711 46.2985 0.0000 0.5621 0.0001
# 3 43.8420 46.2985 153.8423 0.0000 17.4510 0.0000
# 4 0.0000 0.0000 0.0000 39.8981 0.0000 0.8025
# 5 7.4053 0.5621 17.4510 0.0000 28.9114 0.0000
# 6 0.0000 0.0001 0.0000 0.8025 0.0000 25.7591
#
#
#
# Elastic Compliance Matrix: (Units=1/GPa)
#
#
# Indices 1 2 3 4 5 6 
#
# 1 0.028837 -0.004543 -0.006466 0.000000 -0.003395 0.000000
# 2 -0.004543 0.011196 -0.002342 0.000000 0.002360 0.000000
# 3 -0.006466 -0.002342 0.009505 0.000000 -0.004036 0.000000
# 4 0.000000 0.000000 0.000000 0.025080 0.000000 -0.000781
# 5 -0.003395 0.002360 -0.004036 0.000000 0.037848 0.000000
# 6 0.000000 0.000000 0.000000 -0.000781 0.000000 0.038846
#
#
# Mechanical properties :
#
#
# Convention : Reuss Voigt Hill
#
# Bulk Modulus (GPa) = 43.79042 61.07368 52.43205
# Shear Modulus (GPa) = 26.93579 31.96891 29.45235
#
# Velocity S-wave (km/s) = 3.59336 3.91471 3.75747
# Velocity P-wave (km/s) = 6.18128 7.05055 6.63017
#
# Compressibility (1/GPa) = 0.02283605
#
# Stress axis : x y z
#
# Youngs Moduli (GPa) = 34.67707 89.31993 105.20309
#
# Poissons Ratio (x) = 0.40582 0.68020
# Poissons Ratio (y) = 0.15755 0.24641
# Poissons Ratio (z) = 0.22421 0.20921
#
# Static dielectric constant tensor:
#      x y z
#    x 1.747550 0.000000 0.006670 
#    y 0.000000 1.759710 0.000000 
#    z 0.006670 0.000000 1.791470 
# 
# From -- ./inp_files/159791.got.cif
#   From: 2010.05.17/outbox.cif.g08.bks.cpg/sg15_80_cif.got.tgz:159791.got - 2010.06.03 18:47:42.
