data_PCOD9302902
_publ_section_title
;
Structure prediction by ZEFSAII (Michael W. Deem and Ramdas Pophale) SiO2 
 PCOD9302902
Probable space group: C 2/C
;
_chemical_formula_sum "Si O2"
_cell_formula_units_Z 48
_cell_length_a 18.969113
_cell_length_b 15.280729
_cell_length_c 11.188010
_cell_angle_alpha 90.000000
_cell_angle_beta 134.150428
_cell_angle_gamma 90.000000
_cell_volume 2326.880251
_symmetry_space_group_name_H-M "C 2/C"
_symmetry_group_IT_number 15
_symmetry_cell_setting 'monoclinic'
loop_
_space_group_symop_operation_xyz
x,y,z
-x,y,1/2-z
-x,-y,-z
x,-y,1/2+z
1/2+x,1/2+y,z
1/2-x,1/2+y,1/2-z
1/2-x,1/2-y,-z
1/2+x,1/2-y,1/2+z
loop_
_atom_site_type_symbol
_atom_site_label
_atom_site_fract_x
_atom_site_fract_y
_atom_site_fract_z
Si Si1 0.455860 0.684769 0.002087
Si Si2 0.500000 0.827064 0.250000
Si Si3 0.000000 0.048495 0.250000
Si Si4 0.904563 0.825010 0.050558
Si Si5 0.760715 0.330369 0.333052
Si Si6 0.185686 0.972977 0.413241
Si Si7 0.709085 0.153205 0.910039
O O1 0.480041 0.768078 0.110474
O O2 0.444720 0.608834 0.088321
O O3 0.546907 0.667685 0.022516
O O4 0.353721 0.698866 0.812417
O O5 0.396291 0.869350 0.157301
O O6 0.929004 0.991237 0.249797
O O7 0.834400 0.907672 0.998610
O O8 0.000000 0.816814 0.250000
O O9 0.833961 0.740505 0.975730
O O10 0.749961 0.419160 0.395689
O O11 0.795563 0.343790 0.238613
O O12 0.226136 0.069735 0.478845
O O13 0.750000 0.250000 0.000000
#
# Coordination Sequence:
#
# PCOD9302902 Si02
#       7
#     8   4   4   8   8   8   8
#     4  11  22  41  74 102 138 182 232 289 347 402
#     4  11  22  46  68 105 136 182 240 277 340 421
#     4  11  22  40  70 105 144 168 234 307 336 401
#     4  12  26  45  69 103 145 182 230 293 351 412
#     4  12  25  44  71 102 140 187 227 286 352 411
#     4  12  26  42  67 111 143 177 231 290 349 413
#     4  12  25  46  72 103 140 185 236 286 341 416
#
# _framework density 20.62848
#
# number of rings (size 3 to 8) (size 9 to 14) (size 15 to 20)
#    0.000    0.333    7.500    1.500    2.333    1.333 
#    1.500    0.833    0.000    0.000    0.000    0.000 
#    0.000    0.000    0.000    0.000    0.000    0.000 
#
# Total GULP energy -133851.657808 kJ/mol
# GULP energy per Si atom -5577.152409 kJ/mol
# Density = 2.058153 g / cm^3
# Si number density = 20.628480 Si / 1000 Ang^3
#
#
#
# Elastic Constant Matrix: (Units=GPa)
#
#
# Indices 1 2 3 4 5 6 
#
# 1 174.2156 59.6252 25.1363 0.0000 4.9736 0.0000
# 2 59.6252 133.1009 53.8706 0.0000 12.0096 0.0000
# 3 25.1363 53.8706 62.2672 0.0000 13.3053 0.0000
# 4 0.0000 0.0000 0.0000 -5.9404 0.0000 9.7004
# 5 4.9736 12.0096 13.3053 0.0000 32.5397 0.0000
# 6 0.0000 0.0000 0.0000 9.7004 0.0000 25.3005
#
#
#
# Elastic Compliance Matrix: (Units=1/GPa)
#
#
# Indices 1 2 3 4 5 6 
#
# 1 0.006781 -0.002970 -0.000198 0.000000 0.000141 0.000000
# 2 -0.002970 0.012864 -0.009875 0.000000 -0.000256 0.000000
# 3 -0.000198 -0.009875 0.026186 0.000000 -0.007032 0.000000
# 4 0.000000 0.000000 0.000000 -0.103523 0.000000 0.039692
# 5 0.000141 -0.000256 -0.007032 0.000000 0.033680 0.000000
# 6 0.000000 0.000000 0.000000 0.039692 0.000000 0.024307
#
#
# Mechanical properties :
#
#
# Convention : Reuss Voigt Hill
#
# Bulk Modulus (GPa) = 50.64821 71.87198 61.26009
# Shear Modulus (GPa) = 151.68706 25.77672 88.73189
#
# Velocity S-wave (km/s) = 8.58443 3.53876 6.56564
# Velocity P-wave (km/s) = 11.08434 7.18428 9.34014
#
# Compressibility (1/GPa) = 0.01974403
#
# Stress axis : x y z
#
# Youngs Moduli (GPa) = 147.46767 77.73797 38.18854
#
# Poissons Ratio (x) = 0.23092 0.00755
# Poissons Ratio (y) = 0.43805 0.37712
# Poissons Ratio (z) = 0.02914 0.76769
#
# Static dielectric constant tensor:
#      x y z
#    x 1.794000 0.000000 0.010210 
#    y 0.000000 1.770210 0.000000 
#    z 0.010210 0.000000 1.820720 
# 
# From -- ./inp_files/113016.got.cif
#   From: 2010.05.17/outbox.cif.g08.bks.cpg/sg15_57_cif.got.tgz:113016.got - 2010.06.03 18:47:42.
