data_PCOD9302289
_publ_section_title
;
Structure prediction by ZEFSAII (Michael W. Deem and Ramdas Pophale) SiO2 
 PCOD9302289
Probable space group: C 2/C
;
_chemical_formula_sum "Si O2"
_cell_formula_units_Z 64
_cell_length_a 17.559349
_cell_length_b 8.674174
_cell_length_c 29.893741
_cell_angle_alpha 90.000000
_cell_angle_beta 38.156396
_cell_angle_gamma 90.000000
_cell_volume 2813.013711
_symmetry_space_group_name_H-M "C 2/C"
_symmetry_group_IT_number 15
_symmetry_cell_setting 'monoclinic'
loop_
_space_group_symop_operation_xyz
x,y,z
-x,y,1/2-z
-x,-y,-z
x,-y,1/2+z
1/2+x,1/2+y,z
1/2-x,1/2+y,1/2-z
1/2-x,1/2-y,-z
1/2+x,1/2-y,1/2+z
loop_
_atom_site_type_symbol
_atom_site_label
_atom_site_fract_x
_atom_site_fract_y
_atom_site_fract_z
Si Si1 0.746628 0.364674 0.222931
Si Si2 0.648212 0.675320 0.935193
Si Si3 0.875899 0.683321 0.147097
Si Si4 0.006086 0.995684 0.697772
Si Si5 0.850570 0.736009 0.913853
Si Si6 0.882591 0.836441 0.590907
Si Si7 0.623980 0.084052 0.066043
Si Si8 0.744045 0.684708 0.575634
O O1 0.831942 0.513327 0.180003
O O2 0.711315 0.306326 0.288365
O O3 0.619886 0.421352 0.257926
O O4 0.812938 0.223466 0.166738
O O5 0.625654 0.793598 0.905134
O O6 0.770373 0.713465 0.905925
O O7 0.650499 0.508310 0.910110
O O8 0.530598 0.674534 0.022825
O O9 0.012416 0.697223 0.104796
O O10 0.053454 0.872995 0.639212
O O11 0.000000 0.921292 0.750000
O O12 0.114150 0.121700 0.651906
O O13 0.918390 0.576086 0.893849
O O14 0.750000 0.750000 0.000000
O O15 0.833418 0.724968 0.574394
O O16 0.715826 0.164896 0.058571
O O17 0.695168 0.063188 0.986365
#
# Coordination Sequence:
#
# PCOD9302289 Si02
#       8
#     8   8   8   8   8   8   8   8
#     4  12  28  45  70 101 147 187 230 289 355 435
#     4  11  26  47  73 106 142 185 236 299 353 424
#     4  12  27  47  69 104 143 188 236 285 361 425
#     4  12  25  45  70 101 146 188 234 293 362 429
#     4  12  27  45  71 109 141 182 241 302 355 417
#     4  11  24  45  75 105 143 184 235 293 360 422
#     4  11  24  44  73 103 137 185 238 297 344 423
#     4  11  21  44  73 102 136 183 243 288 349 421
#
# _framework density 22.751401000000001
#
# number of rings (size 3 to 8) (size 9 to 14) (size 15 to 20)
#    0.000    0.500    6.250    1.500    3.500    2.500 
#    2.250    0.625    0.000    0.000    0.000    0.000 
#    0.000    0.000    0.000    0.000    0.000    0.000 
#
# Total GULP energy -179101.820467 kJ/mol
# GULP energy per Si atom -5596.931890 kJ/mol
# Density = 2.269962 g / cm^3
# Si number density = 22.751401 Si / 1000 Ang^3
#
#
#
# Elastic Constant Matrix: (Units=GPa)
#
#
# Indices 1 2 3 4 5 6 
#
# 1 64.2236 -2.9389 15.8173 0.0002 -6.4023 -0.0022
# 2 -2.9389 61.4734 17.7446 0.0002 -9.5127 -0.0014
# 3 15.8173 17.7446 103.4235 0.0003 0.1747 -0.0009
# 4 0.0002 0.0002 0.0003 37.8193 0.0001 -0.6560
# 5 -6.4023 -9.5127 0.1747 0.0001 32.4263 -0.0003
# 6 -0.0022 -0.0014 -0.0009 -0.6560 -0.0003 26.4575
#
#
#
# Elastic Compliance Matrix: (Units=1/GPa)
#
#
# Indices 1 2 3 4 5 6 
#
# 1 0.016805 0.002280 -0.002968 0.000000 0.004003 0.000001
# 2 0.002280 0.018288 -0.003496 0.000000 0.005834 0.000001
# 3 -0.002968 -0.003496 0.010726 0.000000 -0.001669 0.000000
# 4 0.000000 0.000000 0.000000 0.026453 0.000000 0.000656
# 5 0.004003 0.005834 -0.001669 0.000000 0.033350 0.000001
# 6 0.000001 0.000001 0.000000 0.000656 0.000001 0.037813
#
#
# Mechanical properties :
#
#
# Convention : Reuss Voigt Hill
#
# Bulk Modulus (GPa) = 26.70276 32.26294 29.48285
# Shear Modulus (GPa) = 30.43461 32.57378 31.50420
#
# Velocity S-wave (km/s) = 3.66143 3.78792 3.72521
# Velocity P-wave (km/s) = 5.44399 5.77430 5.61157
#
# Compressibility (1/GPa) = 0.03744931
#
# Stress axis : x y z
#
# Youngs Moduli (GPa) = 59.50643 54.68021 93.23517
#
# Poissons Ratio (x) = -0.12464 0.27672
# Poissons Ratio (y) = -0.13565 0.32597
# Poissons Ratio (z) = 0.17661 0.19117
#
# Static dielectric constant tensor:
#      x y z
#    x 1.801910 0.000000 -0.006990 
#    y 0.000000 1.870650 0.000000 
#    z -0.006990 0.000000 1.866370 
# 
# From -- ./inp_files/315695.got.cif
#   From: 2010.05.17/outbox.cif.g08.bks.cpg/sg15_158_cif.got.tgz:315695.got - 2010.06.03 18:47:42.
