data_PCOD9302721
_publ_section_title
;
Structure prediction by ZEFSAII (Michael W. Deem and Ramdas Pophale) SiO2 
 PCOD9302721
Probable space group: C 2/C
;
_chemical_formula_sum "Si O2"
_cell_formula_units_Z 60
_cell_length_a 11.062911
_cell_length_b 21.077356
_cell_length_c 18.123233
_cell_angle_alpha 90.000000
_cell_angle_beta 40.362563
_cell_angle_gamma 90.000000
_cell_volume 2736.799198
_symmetry_space_group_name_H-M "C 2/C"
_symmetry_group_IT_number 15
_symmetry_cell_setting 'monoclinic'
loop_
_space_group_symop_operation_xyz
x,y,z
-x,y,1/2-z
-x,-y,-z
x,-y,1/2+z
1/2+x,1/2+y,z
1/2-x,1/2+y,1/2-z
1/2-x,1/2-y,-z
1/2+x,1/2-y,1/2+z
loop_
_atom_site_type_symbol
_atom_site_label
_atom_site_fract_x
_atom_site_fract_y
_atom_site_fract_z
Si Si1 0.215376 0.328642 0.558795
Si Si2 0.970282 0.328612 0.112098
Si Si3 0.440379 0.610805 0.693625
Si Si4 0.500000 0.067900 0.250000
Si Si5 0.782407 0.152652 0.584512
Si Si6 0.160294 0.979283 0.368863
Si Si7 0.633975 0.311982 0.851037
Si Si8 0.102566 0.290657 0.898465
O O1 0.400614 0.354441 0.430814
O O2 0.259921 0.300478 0.620107
O O3 0.092901 0.389192 0.642876
O O4 0.085964 0.286901 0.564207
O O5 0.761562 0.354803 0.211118
O O6 0.104627 0.349608 0.114730
O O7 0.961550 0.253374 0.126000
O O8 0.058385 0.333758 0.989681
O O9 0.500000 0.612580 0.750000
O O10 0.420913 0.538690 0.673102
O O11 0.333122 0.026434 0.293760
O O12 0.772841 0.091132 0.638996
O O13 0.818143 0.221559 0.608966
O O14 0.968123 0.141667 0.448835
O O15 0.000000 0.000000 0.500000
O O16 0.758819 0.324839 0.722738
#
# Coordination Sequence:
#
# PCOD9302721 Si02
#       8
#     8   8   8   4   8   8   8   8
#     4  12  24  46  71 108 148 192 247 306 370 434
#     4  11  26  41  67 105 149 197 233 298 378 448
#     4  12  25  48  72 105 145 186 251 307 373 439
#     4  12  24  48  78 104 142 192 260 302 364 442
#     4  11  25  46  66 107 148 196 247 297 376 447
#     4  12  25  46  77 100 137 196 250 307 359 435
#     4  11  22  39  67 101 148 188 241 296 357 450
#     4  11  23  42  70 107 150 189 234 301 374 443
#
# _framework density 21.923421000000001
#
# number of rings (size 3 to 8) (size 9 to 14) (size 15 to 20)
#    0.000    0.533    5.333    3.200    1.867    7.467 
#    0.000    2.000    0.000    0.000    0.000    0.000 
#    0.000    0.000    0.000    0.000    0.000    0.000 
#
# Total GULP energy -167524.568803 kJ/mol
# GULP energy per Si atom -5584.152293 kJ/mol
# Density = 2.187352 g / cm^3
# Si number density = 21.923421 Si / 1000 Ang^3
#
#
#
# Elastic Constant Matrix: (Units=GPa)
#
#
# Indices 1 2 3 4 5 6 
#
# 1 132.2860 27.1011 57.2085 0.0002 -0.7616 -0.0035
# 2 27.1011 57.3284 30.2531 -0.0003 5.0383 -0.0025
# 3 57.2085 30.2531 173.3474 0.0015 21.3671 0.0078
# 4 0.0002 -0.0003 0.0015 35.1738 -0.0014 -20.9576
# 5 -0.7616 5.0383 21.3671 -0.0014 34.4638 -0.0042
# 6 -0.0035 -0.0025 0.0078 -20.9576 -0.0042 -34.0900
#
#
#
# Elastic Compliance Matrix: (Units=1/GPa)
#
#
# Indices 1 2 3 4 5 6 
#
# 1 0.009466 -0.003175 -0.002872 -0.000001 0.002454 -0.000001
# 2 -0.003175 0.020298 -0.002296 0.000000 -0.001614 -0.000001
# 3 -0.002872 -0.002296 0.007670 0.000001 -0.004483 0.000002
# 4 -0.000001 0.000000 0.000001 0.020808 -0.000001 -0.012792
# 5 0.002454 -0.001614 -0.004483 -0.000001 0.032086 -0.000004
# 6 -0.000001 -0.000001 0.000002 -0.012792 -0.000004 -0.021470
#
#
# Mechanical properties :
#
#
# Convention : Reuss Voigt Hill
#
# Bulk Modulus (GPa) = 48.19793 65.78746 56.99269
# Shear Modulus (GPa) = 54.07768 23.66947 38.87358
#
# Velocity S-wave (km/s) = 4.97194 3.28936 4.21545
# Velocity P-wave (km/s) = 7.41570 6.67079 7.05309
#
# Compressibility (1/GPa) = 0.02074778
#
# Stress axis : x y z
#
# Youngs Moduli (GPa) = 105.63954 49.26711 130.37832
#
# Poissons Ratio (x) = 0.15641 0.37451
# Poissons Ratio (y) = 0.33539 0.29930
# Poissons Ratio (z) = 0.30345 0.11310
#
# Static dielectric constant tensor:
#      x y z
#    x 1.889130 0.000000 -0.002480 
#    y 0.000000 1.844730 0.000000 
#    z -0.002480 0.000000 1.915710 
# 
# From -- ./inp_files/245451.got.cif
#   From: 2010.05.17/outbox.cif.g08.bks.cpg/sg15_123_cif.got.tgz:245451.got - 2010.06.03 18:47:42.
