data_PCOD9302764
_publ_section_title
;
Structure prediction by ZEFSAII (Michael W. Deem and Ramdas Pophale) SiO2 
 PCOD9302764
Probable space group: C 2/C
;
_chemical_formula_sum "Si O2"
_cell_formula_units_Z 48
_cell_length_a 9.185524
_cell_length_b 13.773608
_cell_length_c 29.208902
_cell_angle_alpha 90.000000
_cell_angle_beta 139.518660
_cell_angle_gamma 90.000000
_cell_volume 2399.085040
_symmetry_space_group_name_H-M "C 2/C"
_symmetry_group_IT_number 15
_symmetry_cell_setting 'monoclinic'
loop_
_space_group_symop_operation_xyz
x,y,z
-x,y,1/2-z
-x,-y,-z
x,-y,1/2+z
1/2+x,1/2+y,z
1/2-x,1/2+y,1/2-z
1/2-x,1/2-y,-z
1/2+x,1/2-y,1/2+z
loop_
_atom_site_type_symbol
_atom_site_label
_atom_site_fract_x
_atom_site_fract_y
_atom_site_fract_z
Si Si1 0.077113 0.189686 0.819883
Si Si2 0.664248 0.991628 0.612108
Si Si3 0.289996 0.524802 0.039865
Si Si4 0.983428 0.195912 0.045559
Si Si5 0.263594 0.792775 0.820743
Si Si6 0.458670 0.322622 0.046208
O O1 0.145988 0.074637 0.836407
O O2 0.308559 0.238382 0.891204
O O3 0.000000 0.212922 0.750000
O O4 0.895523 0.237687 0.811189
O O5 0.703168 0.951730 0.569823
O O6 0.413044 0.034469 0.545559
O O7 0.667603 0.904182 0.649661
O O8 0.484086 0.599505 0.075572
O O9 0.384593 0.417223 0.056359
O O10 0.750000 0.250000 0.000000
O O11 0.999123 0.162590 0.996924
O O12 0.330156 0.729026 0.880607
O O13 0.000000 0.792888 0.750000
O O14 0.250000 0.250000 0.000000
#
# Coordination Sequence:
#
# PCOD9302764 Si02
#       6
#     8   8   8   8   8   8
#     4  12  27  48  68 104 145 181 233 290 348 425
#     4  11  22  45  73 100 137 182 235 287 351 419
#     4  11  22  39  72 108 133 176 238 293 347 414
#     4  12  24  41  70 105 137 181 232 292 351 410
#     4  12  27  45  73 101 139 192 230 283 357 420
#     4  12  22  45  70  99 139 178 237 290 339 414
#
# _framework density 20.007625999999998
#
# number of rings (size 3 to 8) (size 9 to 14) (size 15 to 20)
#    0.000    0.333    6.667    2.000    4.667    0.000 
#    0.000    2.500    0.000    0.000    0.000    0.000 
#    0.000    0.000    0.000    0.000    0.000    0.000 
#
# Total GULP energy -133982.956157 kJ/mol
# GULP energy per Si atom -5582.623173 kJ/mol
# Density = 1.996209 g / cm^3
# Si number density = 20.007626 Si / 1000 Ang^3
#
#
#
# Elastic Constant Matrix: (Units=GPa)
#
#
# Indices 1 2 3 4 5 6 
#
# 1 69.1721 16.8844 15.9331 0.0000 0.2039 0.0000
# 2 16.8844 104.6568 8.2625 0.0000 3.9370 0.0000
# 3 15.9331 8.2625 99.3341 0.0000 5.9372 0.0000
# 4 0.0000 0.0000 0.0000 13.8693 0.0000 -2.1501
# 5 0.2039 3.9370 5.9372 0.0000 36.0557 0.0000
# 6 0.0000 0.0000 0.0000 -2.1501 0.0000 33.0837
#
#
#
# Elastic Compliance Matrix: (Units=1/GPa)
#
#
# Indices 1 2 3 4 5 6 
#
# 1 0.015566 -0.002348 -0.002335 0.000000 0.000553 0.000000
# 2 -0.002348 0.010003 -0.000395 0.000000 -0.001014 0.000000
# 3 -0.002335 -0.000395 0.010575 0.000000 -0.001685 0.000000
# 4 0.000000 0.000000 0.000000 0.072835 0.000000 0.004733
# 5 0.000553 -0.001014 -0.001685 0.000000 0.028120 0.000000
# 6 0.000000 0.000000 0.000000 0.004733 0.000000 0.030534
#
#
# Mechanical properties :
#
#
# Convention : Reuss Voigt Hill
#
# Bulk Modulus (GPa) = 38.47665 39.48034 38.97850
# Shear Modulus (GPa) = 26.81673 32.07393 29.44533
#
# Velocity S-wave (km/s) = 3.66502 4.00820 3.84044
# Velocity P-wave (km/s) = 6.09775 6.41844 6.26015
#
# Compressibility (1/GPa) = 0.02598979
#
# Stress axis : x y z
#
# Youngs Moduli (GPa) = 64.24313 99.96884 94.56220
#
# Poissons Ratio (x) = 0.23470 0.22076
# Poissons Ratio (y) = 0.15083 0.03734
# Poissons Ratio (z) = 0.14998 0.03947
#
# Static dielectric constant tensor:
#      x y z
#    x 1.685640 0.000000 0.025590 
#    y 0.000000 2.143160 0.000000 
#    z 0.025590 0.000000 1.741580 
# 
# From -- ./inp_files/289115.got.cif
#   From: 2010.05.17/outbox.cif.g08.bks.cpg/sg15_145_cif.got.tgz:289115.got - 2010.06.03 18:47:42.
