data_PCOD9302946
_publ_section_title
;
Structure prediction by ZEFSAII (Michael W. Deem and Ramdas Pophale) SiO2 
 PCOD9302946
Probable space group: C 2/C
;
_chemical_formula_sum "Si O2"
_cell_formula_units_Z 64
_cell_length_a 16.126328
_cell_length_b 14.423776
_cell_length_c 13.160842
_cell_angle_alpha 90.000000
_cell_angle_beta 57.314956
_cell_angle_gamma 90.000000
_cell_volume 2576.502546
_symmetry_space_group_name_H-M "C 2/C"
_symmetry_group_IT_number 15
_symmetry_cell_setting 'monoclinic'
loop_
_space_group_symop_operation_xyz
x,y,z
-x,y,1/2-z
-x,-y,-z
x,-y,1/2+z
1/2+x,1/2+y,z
1/2-x,1/2+y,1/2-z
1/2-x,1/2-y,-z
1/2+x,1/2-y,1/2+z
loop_
_atom_site_type_symbol
_atom_site_label
_atom_site_fract_x
_atom_site_fract_y
_atom_site_fract_z
Si Si1 0.869341 0.629483 0.765916
Si Si2 0.740636 0.662070 0.402869
Si Si3 0.431267 0.411486 0.030155
Si Si4 0.472327 0.203901 0.981296
Si Si5 0.735107 0.516029 0.979095
Si Si6 0.777724 0.969393 0.291063
Si Si7 0.424337 0.783454 0.883513
Si Si8 0.254122 0.689176 0.322403
O O1 0.815655 0.571962 0.708786
O O2 0.820666 0.729776 0.823246
O O3 0.974533 0.655810 0.648808
O O4 0.836289 0.566556 0.883385
O O5 0.709732 0.556792 0.406281
O O6 0.656191 0.710307 0.523627
O O7 0.851004 0.649631 0.371815
O O8 0.749990 0.717448 0.293220
O O9 0.488990 0.315455 0.976210
O O10 0.366327 0.414651 0.176792
O O11 0.500000 0.500000 0.000000
O O12 0.356665 0.415953 0.982376
O O13 0.519858 0.172624 0.057558
O O14 0.355751 0.190219 0.061834
O O15 0.731907 0.453666 0.081578
O O16 0.788148 0.082245 0.298088
O O17 0.500000 0.745498 0.750000
#
# Coordination Sequence:
#
# PCOD9302946 Si02
#       8
#     8   8   8   8   8   8   8   8
#     4  11  24  47  68 104 143 186 235 296 357 426
#     4  11  22  41  63  99 141 180 225 292 361 416
#     4  11  23  44  67 106 139 178 241 295 355 419
#     4  12  23  40  70  97 137 186 229 291 351 425
#     4  11  24  45  69  97 140 188 233 287 352 433
#     4  11  25  45  71 101 140 191 235 294 363 425
#     4  11  23  33  64 107 135 177 229 288 359 429
#     4  12  22  44  69  96 140 188 233 290 360 425
#
# _framework density 24.839874999999999
#
# number of rings (size 3 to 8) (size 9 to 14) (size 15 to 20)
#    0.000    0.750    7.500    2.250    3.500    1.500 
#    0.000    0.625    0.000    0.000    0.000    0.000 
#    0.000    0.000    0.000    0.000    0.000    0.000 
#
# Total GULP energy -178526.214191 kJ/mol
# GULP energy per Si atom -5578.944193 kJ/mol
# Density = 2.478334 g / cm^3
# Si number density = 24.839875 Si / 1000 Ang^3
#
#
#
# Elastic Constant Matrix: (Units=GPa)
#
#
# Indices 1 2 3 4 5 6 
#
# 1 46.9839 -7.3878 40.4445 0.0000 -5.4256 0.0000
# 2 -7.3878 79.8328 10.0684 0.0000 -4.0310 0.0000
# 3 40.4445 10.0684 138.7484 0.0000 -31.2835 0.0000
# 4 0.0000 0.0000 0.0000 40.9752 0.0000 -2.4775
# 5 -5.4256 -4.0310 -31.2835 0.0000 33.5484 0.0000
# 6 0.0000 0.0000 0.0000 -2.4775 0.0000 31.0007
#
#
#
# Elastic Compliance Matrix: (Units=1/GPa)
#
#
# Indices 1 2 3 4 5 6 
#
# 1 0.029945 0.003821 -0.009890 0.000000 -0.003920 0.000000
# 2 0.003821 0.013148 -0.001991 0.000000 0.000341 0.000000
# 3 -0.009890 -0.001991 0.012434 0.000000 0.009756 0.000000
# 4 0.000000 0.000000 0.000000 0.024524 0.000000 0.001960
# 5 -0.003920 0.000341 0.009756 0.000000 0.038312 0.000000
# 6 0.000000 0.000000 0.000000 0.001960 0.000000 0.032414
#
#
# Mechanical properties :
#
#
# Convention : Reuss Voigt Hill
#
# Bulk Modulus (GPa) = 25.37613 39.09060 32.23336
# Shear Modulus (GPa) = 27.77250 35.93420 31.85335
#
# Velocity S-wave (km/s) = 3.34737 3.80759 3.58487
# Velocity P-wave (km/s) = 5.01776 5.92465 5.48996
#
# Compressibility (1/GPa) = 0.03940711
#
# Stress axis : x y z
#
# Youngs Moduli (GPa) = 33.39403 76.05694 80.42193
#
# Poissons Ratio (x) = -0.29058 0.79538
# Poissons Ratio (y) = -0.12758 0.16011
# Poissons Ratio (z) = 0.33027 0.15142
#
# Static dielectric constant tensor:
#      x y z
#    x 2.076050 0.000000 0.076820 
#    y 0.000000 2.060690 0.000000 
#    z 0.076820 0.000000 2.038010 
# 
# From -- ./inp_files/162548.got.cif
#   From: 2010.05.17/outbox.cif.g08.bks.cpg/sg15_82_cif.got.tgz:162548.got - 2010.06.03 18:47:42.
