data_PCOD9302803
_publ_section_title
;
Structure prediction by ZEFSAII (Michael W. Deem and Ramdas Pophale) SiO2 
 PCOD9302803
Probable space group: C 2/C
;
_chemical_formula_sum "Si O2"
_cell_formula_units_Z 48
_cell_length_a 8.040823
_cell_length_b 27.923322
_cell_length_c 13.089106
_cell_angle_alpha 90.000000
_cell_angle_beta 129.502618
_cell_angle_gamma 90.000000
_cell_volume 2267.604280
_symmetry_space_group_name_H-M "C 2/C"
_symmetry_group_IT_number 15
_symmetry_cell_setting 'monoclinic'
loop_
_space_group_symop_operation_xyz
x,y,z
-x,y,1/2-z
-x,-y,-z
x,-y,1/2+z
1/2+x,1/2+y,z
1/2-x,1/2+y,1/2-z
1/2-x,1/2-y,-z
1/2+x,1/2-y,1/2+z
loop_
_atom_site_type_symbol
_atom_site_label
_atom_site_fract_x
_atom_site_fract_y
_atom_site_fract_z
Si Si1 0.641906 0.293262 0.092078
Si Si2 0.109073 0.902391 0.044088
Si Si3 0.037195 0.393649 0.490780
Si Si4 0.780146 0.966523 0.217146
Si Si5 0.937764 0.710664 0.893924
Si Si6 0.804151 0.430741 0.744691
O O1 0.557742 0.347478 0.052891
O O2 0.734759 0.282971 0.240487
O O3 0.850231 0.290836 0.097309
O O4 0.476454 0.253862 0.986801
O O5 0.318947 0.900941 0.053991
O O6 0.162067 0.932618 0.165085
O O7 0.915397 0.924788 0.903527
O O8 0.185564 0.400246 0.647609
O O9 0.858305 0.435035 0.415660
O O10 0.933509 0.341184 0.445183
O O11 0.000000 0.982880 0.250000
O O12 0.664134 0.013993 0.211102
O O13 0.000000 0.415120 0.750000
#
# Coordination Sequence:
#
# PCOD9302803 Si02
#       6
#     8   8   8   8   8   8
#     4   9  18  33  58  92 125 157 199 251 301 355
#     4  11  22  40  64  93 126 163 207 256 306 361
#     4  11  22  40  64  93 126 163 207 256 306 361
#     4  12  24  42  65  90 123 165 206 253 311 370
#     4   9  18  33  58  92 125 157 199 251 301 355
#     4  12  26  42  61  90 125 163 208 257 309 370
#
# _framework density 21.167712999999999
#
# number of rings (size 3 to 8) (size 9 to 14) (size 15 to 20)
#    0.000    1.333    1.667    5.000    2.333    0.000 
#    0.000    0.000    0.000    6.000    0.000    0.000 
#    0.000    0.000    0.000    0.000    0.000    0.000 
#
# Total GULP energy -134267.560881 kJ/mol
# GULP energy per Si atom -5594.481703 kJ/mol
# Density = 2.111953 g / cm^3
# Si number density = 21.167713 Si / 1000 Ang^3
#
#
#
# Elastic Constant Matrix: (Units=GPa)
#
#
# Indices 1 2 3 4 5 6 
#
# 1 34.4814 -12.8306 -11.3647 0.0000 -7.2167 0.0000
# 2 -12.8306 112.3227 45.1161 0.0000 -18.5152 0.0000
# 3 -11.3647 45.1161 90.2778 0.0000 -15.8134 0.0000
# 4 0.0000 0.0000 0.0000 39.6489 0.0000 -5.4653
# 5 -7.2167 -18.5152 -15.8134 0.0000 21.3651 0.0000
# 6 0.0000 0.0000 0.0000 -5.4653 0.0000 10.2489
#
#
#
# Elastic Compliance Matrix: (Units=1/GPa)
#
#
# Indices 1 2 3 4 5 6 
#
# 1 0.037519 0.005560 0.005755 0.000000 0.021750 0.000000
# 2 0.005560 0.012769 -0.003922 0.000000 0.010040 0.000000
# 3 0.005755 -0.003922 0.015519 0.000000 0.010031 0.000000
# 4 0.000000 0.000000 0.000000 0.027222 0.000000 0.014517
# 5 0.021750 0.010040 0.010031 0.000000 0.070277 0.000000
# 6 0.000000 0.000000 0.000000 0.014517 0.000000 0.105313
#
#
# Mechanical properties :
#
#
# Convention : Reuss Voigt Hill
#
# Bulk Modulus (GPa) = 12.40859 30.99150 21.70004
# Shear Modulus (GPa) = 17.81276 28.66332 23.23804
#
# Velocity S-wave (km/s) = 2.90402 3.68381 3.31691
# Velocity P-wave (km/s) = 4.13754 5.72422 4.99429
#
# Compressibility (1/GPa) = 0.08058933
#
# Stress axis : x y z
#
# Youngs Moduli (GPa) = 26.65333 78.31749 64.43890
#
# Poissons Ratio (x) = -0.43542 -0.37081
# Poissons Ratio (y) = -0.14818 0.25276
# Poissons Ratio (z) = -0.15338 0.30720
#
# Static dielectric constant tensor:
#      x y z
#    x 1.768570 0.000000 0.012660 
#    y 0.000000 1.725760 0.000000 
#    z 0.012660 0.000000 1.723260 
# 
# From -- ./inp_files/139048.got.cif
#   From: 2010.05.17/outbox.cif.g08.bks.cpg/sg15_70_cif.got.tgz:139048.got - 2010.06.03 18:47:42.
