data_PCOD9302312
_publ_section_title
;
Structure prediction by ZEFSAII (Michael W. Deem and Ramdas Pophale) SiO2 
 PCOD9302312
Probable space group: C 2/C
;
_chemical_formula_sum "Si O2"
_cell_formula_units_Z 56
_cell_length_a 26.383972
_cell_length_b 9.699556
_cell_length_c 10.111924
_cell_angle_alpha 90.000000
_cell_angle_beta 114.780644
_cell_angle_gamma 90.000000
_cell_volume 2349.486723
_symmetry_space_group_name_H-M "C 2/C"
_symmetry_group_IT_number 15
_symmetry_cell_setting 'monoclinic'
loop_
_space_group_symop_operation_xyz
x,y,z
-x,y,1/2-z
-x,-y,-z
x,-y,1/2+z
1/2+x,1/2+y,z
1/2-x,1/2+y,1/2-z
1/2-x,1/2-y,-z
1/2+x,1/2-y,1/2+z
loop_
_atom_site_type_symbol
_atom_site_label
_atom_site_fract_x
_atom_site_fract_y
_atom_site_fract_z
Si Si1 0.825373 0.984413 0.594602
Si Si2 0.554429 0.539376 0.723594
Si Si3 0.143035 0.403325 0.246925
Si Si4 0.792761 0.840431 0.821104
Si Si5 0.916788 0.686420 0.392411
Si Si6 0.472664 0.253869 0.864271
Si Si7 0.184851 0.704333 0.045133
O O1 0.891622 0.982933 0.640340
O O2 0.801708 0.110266 0.481320
O O3 0.816959 0.957699 0.743639
O O4 0.798205 0.846425 0.505428
O O5 0.500000 0.569517 0.750000
O O6 0.578920 0.681201 0.695401
O O7 0.537971 0.413092 0.607810
O O8 0.178543 0.308060 0.182578
O O9 0.116397 0.551887 0.190594
O O10 0.086940 0.314706 0.202594
O O11 0.177679 0.406831 0.420913
O O12 0.728238 0.831502 0.706942
O O13 0.877130 0.727481 0.469044
O O14 0.981642 0.669587 0.502410
O O15 0.500000 0.262126 0.750000
#
# Coordination Sequence:
#
# PCOD9302312 Si02
#       7
#     8   8   8   8   8   8   8
#     4  11  23  48  71 107 137 193 249 297 354 443
#     4  11  24  43  73 106 142 179 241 299 358 437
#     4  11  24  45  67  99 147 189 232 299 373 434
#     4  11  26  44  78 101 147 191 249 303 367 425
#     4  12  26  41  70 106 140 185 242 299 363 439
#     4  11  21  45  69  98 140 189 233 292 367 439
#     4  11  24  45  71  98 145 193 239 298 375 426
#
# _framework density 23.834993000000001
#
# number of rings (size 3 to 8) (size 9 to 14) (size 15 to 20)
#    0.000    0.857    4.286    4.286    6.000    1.714 
#    0.000    1.429    0.000    0.000    0.000    0.000 
#    0.000    0.000    0.000    0.000    0.000    0.000 
#
# Total GULP energy -156306.848861 kJ/mol
# GULP energy per Si atom -5582.387459 kJ/mol
# Density = 2.378074 g / cm^3
# Si number density = 23.834993 Si / 1000 Ang^3
#
#
#
# Elastic Constant Matrix: (Units=GPa)
#
#
# Indices 1 2 3 4 5 6 
#
# 1 61.3030 32.1755 41.0070 0.0000 27.7571 0.0000
# 2 32.1755 152.7805 42.2274 0.0000 -0.3772 0.0000
# 3 41.0070 42.2274 55.8069 0.0000 26.8328 0.0000
# 4 0.0000 0.0000 0.0000 44.6183 0.0000 6.7526
# 5 27.7571 -0.3772 26.8328 0.0000 41.3940 0.0000
# 6 0.0000 0.0000 0.0000 6.7526 0.0000 37.6722
#
#
#
# Elastic Compliance Matrix: (Units=1/GPa)
#
#
# Indices 1 2 3 4 5 6 
#
# 1 0.035160 -0.002320 -0.018500 0.000000 -0.011606 0.000000
# 2 -0.002320 0.009603 -0.009228 0.000000 0.007625 0.000000
# 3 -0.018500 -0.009228 0.047319 0.000000 -0.018353 0.000000
# 4 0.000000 0.000000 0.000000 0.023037 0.000000 -0.004129
# 5 -0.011606 0.007625 -0.018353 0.000000 0.043907 0.000000
# 6 0.000000 0.000000 0.000000 -0.004129 0.000000 0.027285
#
#
# Mechanical properties :
#
#
# Convention : Reuss Voigt Hill
#
# Bulk Modulus (GPa) = 31.26276 55.63447 43.44862
# Shear Modulus (GPa) = 19.44998 35.03562 27.24280
#
# Velocity S-wave (km/s) = 2.85972 3.83812 3.38446
# Velocity P-wave (km/s) = 4.90395 6.56001 5.79148
#
# Compressibility (1/GPa) = 0.03198694
#
# Stress axis : x y z
#
# Youngs Moduli (GPa) = 28.44132 104.13060 21.13304
#
# Poissons Ratio (x) = 0.24160 0.39096
# Poissons Ratio (y) = 0.06599 0.19501
# Poissons Ratio (z) = 0.52616 0.96091
#
# Static dielectric constant tensor:
#      x y z
#    x 1.889670 0.000000 -0.020570 
#    y 0.000000 1.973240 0.000000 
#    z -0.020570 0.000000 2.013620 
# 
# From -- ./inp_files/125972.got.cif
#   From: 2010.05.17/outbox.cif.g08.bks.cpg/sg15_63_cif.got.tgz:125972.got - 2010.06.03 18:47:42.
