data_PCOD9302778
_publ_section_title
;
Structure prediction by ZEFSAII (Michael W. Deem and Ramdas Pophale) SiO2 
 PCOD9302778
Probable space group: C 2/C
;
_chemical_formula_sum "Si O2"
_cell_formula_units_Z 56
_cell_length_a 29.367532
_cell_length_b 12.042045
_cell_length_c 24.029234
_cell_angle_alpha 90.000000
_cell_angle_beta 18.403081
_cell_angle_gamma 90.000000
_cell_volume 2682.762882
_symmetry_space_group_name_H-M "C 2/C"
_symmetry_group_IT_number 15
_symmetry_cell_setting 'monoclinic'
loop_
_space_group_symop_operation_xyz
x,y,z
-x,y,1/2-z
-x,-y,-z
x,-y,1/2+z
1/2+x,1/2+y,z
1/2-x,1/2+y,1/2-z
1/2-x,1/2-y,-z
1/2+x,1/2-y,1/2+z
loop_
_atom_site_type_symbol
_atom_site_label
_atom_site_fract_x
_atom_site_fract_y
_atom_site_fract_z
Si Si1 0.568413 0.616629 0.089103
Si Si2 0.010549 0.363280 0.172620
Si Si3 0.785118 0.940043 0.971640
Si Si4 0.235797 0.165571 0.566198
Si Si5 0.056905 0.474353 0.520398
Si Si6 0.588136 0.263344 0.033760
Si Si7 0.762518 0.475422 0.794320
O O1 0.592965 0.747962 0.067756
O O2 0.630396 0.541500 0.068205
O O3 0.397486 0.608355 0.296984
O O4 0.639980 0.565387 0.951830
O O5 0.838741 0.359274 0.362274
O O6 0.000000 0.388179 0.250000
O O7 0.067684 0.458509 0.065657
O O8 0.729974 0.049090 0.003845
O O9 0.250000 0.250000 0.500000
O O10 0.342041 0.208834 0.491451
O O11 0.066786 0.175481 0.779525
O O12 0.066509 0.343072 0.519520
O O13 0.178832 0.513028 0.335990
O O14 0.901373 0.497615 0.672724
O O15 0.697908 0.354802 0.882802
#
# Coordination Sequence:
#
# PCOD9302778 Si02
#       7
#     8   8   8   8   8   8   8
#     4  11  23  40  68  95 134 186 227 286 348 423
#     4  12  24  41  68 101 138 177 229 292 351 419
#     4  11  22  40  62 101 135 175 227 282 355 407
#     4  12  24  39  72 102 146 182 228 290 360 429
#     4  11  26  46  72 100 140 187 237 299 354 423
#     4  12  24  46  68 107 136 187 238 290 356 425
#     4  11  24  48  72  96 139 190 244 287 357 428
#
# _framework density 20.874002999999998
#
# number of rings (size 3 to 8) (size 9 to 14) (size 15 to 20)
#    0.000    0.571    5.714    3.429    4.000    0.000 
#    0.000    0.714    0.000    0.000    0.000    0.000 
#    0.000    0.000    0.000    0.000    0.000    0.000 
#
# Total GULP energy -156209.335487 kJ/mol
# GULP energy per Si atom -5578.904839 kJ/mol
# Density = 2.082649 g / cm^3
# Si number density = 20.874003 Si / 1000 Ang^3
#
#
#
# Elastic Constant Matrix: (Units=GPa)
#
#
# Indices 1 2 3 4 5 6 
#
# 1 48.4461 21.2896 4.0913 -0.0002 18.5810 0.0005
# 2 21.2896 125.6946 32.6110 -0.0003 24.3547 0.0004
# 3 4.0913 32.6110 84.1684 -0.0005 29.5019 0.0009
# 4 -0.0002 -0.0003 -0.0005 29.9228 0.0002 -5.7676
# 5 18.5810 24.3547 29.5019 0.0002 37.0735 -0.0004
# 6 0.0005 0.0004 0.0009 -5.7676 -0.0004 13.6655
#
#
#
# Elastic Compliance Matrix: (Units=1/GPa)
#
#
# Indices 1 2 3 4 5 6 
#
# 1 0.027755 -0.002966 0.005538 0.000000 -0.016369 -0.000002
# 2 -0.002966 0.009679 -0.002633 0.000000 -0.002777 0.000000
# 3 0.005538 -0.002633 0.018026 0.000000 -0.015391 -0.000002
# 4 0.000000 0.000000 0.000000 0.036379 0.000000 0.015354
# 5 -0.016369 -0.002777 -0.015391 0.000000 0.049249 0.000003
# 6 -0.000002 0.000000 -0.000002 0.015354 0.000003 0.079657
#
#
# Mechanical properties :
#
#
# Convention : Reuss Voigt Hill
#
# Bulk Modulus (GPa) = 18.07053 41.58808 29.82931
# Shear Modulus (GPa) = 20.89296 29.48684 25.18990
#
# Velocity S-wave (km/s) = 3.16715 3.76255 3.47761
# Velocity P-wave (km/s) = 4.69576 6.23236 5.51781
#
# Compressibility (1/GPa) = 0.05533873
#
# Stress axis : x y z
#
# Youngs Moduli (GPa) = 36.02890 103.31338 55.47406
#
# Poissons Ratio (x) = 0.30644 -0.30719
# Poissons Ratio (y) = 0.10687 0.14605
# Poissons Ratio (z) = -0.19951 0.27199
#
# Static dielectric constant tensor:
#      x y z
#    x 1.723180 0.000000 -0.050490 
#    y 0.000000 1.555170 0.000010 
#    z -0.050490 0.000010 1.831990 
# 
# From -- ./inp_files/284599.got.cif
#   From: 2010.05.17/outbox.cif.g08.bks.cpg/sg15_143_cif.got.tgz:284599.got - 2010.06.03 18:47:42.
