data_PCOD9302308
_publ_section_title
;
Structure prediction by ZEFSAII (Michael W. Deem and Ramdas Pophale) SiO2 
 PCOD9302308
Probable space group: C 2/C
;
_chemical_formula_sum "Si O2"
_cell_formula_units_Z 48
_cell_length_a 9.380939
_cell_length_b 16.329207
_cell_length_c 25.610493
_cell_angle_alpha 90.000000
_cell_angle_beta 146.062202
_cell_angle_gamma 90.000000
_cell_volume 2190.237320
_symmetry_space_group_name_H-M "C 2/C"
_symmetry_group_IT_number 15
_symmetry_cell_setting 'monoclinic'
loop_
_space_group_symop_operation_xyz
x,y,z
-x,y,1/2-z
-x,-y,-z
x,-y,1/2+z
1/2+x,1/2+y,z
1/2-x,1/2+y,1/2-z
1/2-x,1/2-y,-z
1/2+x,1/2-y,1/2+z
loop_
_atom_site_type_symbol
_atom_site_label
_atom_site_fract_x
_atom_site_fract_y
_atom_site_fract_z
Si Si1 0.947484 0.460394 0.331167
Si Si2 0.730780 0.950033 0.014167
Si Si3 0.032305 0.109210 0.416833
Si Si4 0.045291 0.681548 0.537986
Si Si5 0.416070 0.357707 0.455309
Si Si6 0.000000 0.129961 0.750000
Si Si7 0.500000 0.084215 0.250000
O O1 0.671817 0.425859 0.263528
O O2 0.983477 0.523840 0.294880
O O3 0.054772 0.506085 0.416408
O O4 0.118385 0.381431 0.365493
O O5 0.582704 0.894838 0.010220
O O6 0.935778 0.891372 0.048954
O O7 0.891645 0.024726 0.087224
O O8 0.274508 0.166640 0.484190
O O9 0.996447 0.091045 0.467252
O O10 0.752315 0.138384 0.317599
O O11 0.287234 0.678078 0.650643
O O12 0.004350 0.765724 0.494378
#
# Coordination Sequence:
#
# PCOD9302308 Si02
#       7
#     8   8   8   8   8   4   4
#     4  11  24  42  70  99 133 176 233 274 326 396
#     4  11  21  45  68  96 130 181 222 273 334 397
#     4  11  22  41  69  96 129 179 227 272 324 397
#     4  12  26  42  69  98 142 174 217 280 346 391
#     4  11  22  46  65  94 135 181 218 274 339 399
#     4  12  26  41  68 101 136 174 226 278 336 395
#     4  12  22  41  74 101 128 180 236 274 314 401
#
# _framework density 21.915433
#
# number of rings (size 3 to 8) (size 9 to 14) (size 15 to 20)
#    0.000    0.667    6.667    3.500    2.333    0.667 
#    0.000    0.000    0.000    0.000    0.000    0.000 
#    0.000    0.000    0.000    0.000    0.000    0.000 
#
# Total GULP energy -133858.898251 kJ/mol
# GULP energy per Si atom -5577.454094 kJ/mol
# Density = 2.186555 g / cm^3
# Si number density = 21.915433 Si / 1000 Ang^3
#
#
#
# Elastic Constant Matrix: (Units=GPa)
#
#
# Indices 1 2 3 4 5 6 
#
# 1 116.7901 37.1530 44.4152 0.0000 34.3156 0.0002
# 2 37.1530 100.8521 40.7558 0.0002 13.5693 -0.0001
# 3 44.4152 40.7558 110.1312 0.0007 41.3445 -0.0002
# 4 0.0000 0.0002 0.0007 -2.6311 0.0001 21.2522
# 5 34.3156 13.5693 41.3445 0.0001 44.3443 -0.0001
# 6 0.0002 -0.0001 -0.0002 21.2522 -0.0001 -30.4154
#
#
#
# Elastic Compliance Matrix: (Units=1/GPa)
#
#
# Indices 1 2 3 4 5 6 
#
# 1 0.012115 -0.003080 -0.000893 0.000000 -0.007600 0.000000
# 2 -0.003080 0.012456 -0.004356 0.000000 0.002633 0.000000
# 3 -0.000893 -0.004356 0.015835 -0.000001 -0.012740 -0.000001
# 4 0.000000 0.000000 -0.000001 0.081843 0.000001 0.057186
# 5 -0.007600 0.002633 -0.012740 0.000001 0.039504 0.000000
# 6 0.000000 0.000000 -0.000001 0.057186 0.000000 0.007080
#
#
# Mechanical properties :
#
#
# Convention : Reuss Voigt Hill
#
# Bulk Modulus (GPa) = 42.10804 63.60237 52.85520
# Shear Modulus (GPa) = 25.85237 15.95620 20.90428
#
# Velocity S-wave (km/s) = 3.43832 2.70122 3.09182
# Velocity P-wave (km/s) = 5.91763 6.23005 6.07585
#
# Compressibility (1/GPa) = 0.02374843
#
# Stress axis : x y z
#
# Youngs Moduli (GPa) = 82.54453 80.28216 63.15179
#
# Poissons Ratio (x) = 0.24723 0.05640
# Poissons Ratio (y) = 0.25420 0.27509
# Poissons Ratio (z) = 0.07372 0.34971
#
# Static dielectric constant tensor:
#      x y z
#    x 1.769670 0.000000 0.026320 
#    y 0.000000 1.803790 0.000000 
#    z 0.026320 0.000000 1.950580 
# 
# From -- ./inp_files/182578.got.cif
#   From: 2010.05.17/outbox.cif.g08.bks.cpg/sg15_92_cif.got.tgz:182578.got - 2010.06.03 18:47:42.
