data_PCOD9302979
_publ_section_title
;
Structure prediction by ZEFSAII (Michael W. Deem and Ramdas Pophale) SiO2 
 PCOD9302979
Probable space group: C 2/C
;
_chemical_formula_sum "Si O2"
_cell_formula_units_Z 60
_cell_length_a 17.674120
_cell_length_b 16.756546
_cell_length_c 18.244135
_cell_angle_alpha 90.000000
_cell_angle_beta 34.240395
_cell_angle_gamma 90.000000
_cell_volume 3040.160582
_symmetry_space_group_name_H-M "C 2/C"
_symmetry_group_IT_number 15
_symmetry_cell_setting 'monoclinic'
loop_
_space_group_symop_operation_xyz
x,y,z
-x,y,1/2-z
-x,-y,-z
x,-y,1/2+z
1/2+x,1/2+y,z
1/2-x,1/2+y,1/2-z
1/2-x,1/2-y,-z
1/2+x,1/2-y,1/2+z
loop_
_atom_site_type_symbol
_atom_site_label
_atom_site_fract_x
_atom_site_fract_y
_atom_site_fract_z
Si Si1 0.868908 0.766321 0.752716
Si Si2 0.490823 0.399756 0.095203
Si Si3 0.125241 0.596284 0.691240
Si Si4 0.414582 0.078604 0.053417
Si Si5 0.051800 0.754202 0.470601
Si Si6 0.782687 0.908306 0.920815
Si Si7 0.000000 0.046205 0.750000
Si Si8 0.782700 0.988732 0.678083
O O1 0.919507 0.682122 0.743070
O O2 0.712665 0.749932 0.855676
O O3 0.861029 0.835804 0.819150
O O4 0.967507 0.788432 0.606976
O O5 0.476176 0.311277 0.075022
O O6 0.499708 0.404631 0.175220
O O7 0.366894 0.452414 0.163311
O O8 0.618950 0.442686 0.955667
O O9 0.238098 0.610879 0.538865
O O10 0.182898 0.542455 0.709729
O O11 0.000000 0.556866 0.750000
O O12 0.491282 0.161833 0.002970
O O13 0.347014 0.078457 0.027425
O O14 0.294327 0.073253 0.208621
O O15 0.500000 0.000000 0.000000
O O16 0.872297 0.987145 0.850089
#
# Coordination Sequence:
#
# PCOD9302979 Si02
#       8
#     8   8   8   8   8   8   4   8
#     4  11  24  40  63  99 139 175 213 272 345 420
#     4  11  23  42  69  92 130 173 230 278 323 394
#     4  12  23  39  61  98 136 175 212 276 344 409
#     4  11  23  43  67  93 130 172 218 274 337 405
#     4  11  24  42  69  99 130 174 225 276 332 403
#     4  11  24  38  59  97 132 170 216 271 336 400
#     4  12  24  40  66  94 130 172 226 280 324 380
#     4  11  22  41  66  94 127 180 224 269 331 401
#
# _framework density 19.735799
#
# number of rings (size 3 to 8) (size 9 to 14) (size 15 to 20)
#    0.000    0.800    4.000    5.200    4.667    0.000 
#    0.000    0.000    4.400    2.400    0.000    0.000 
#    0.000    0.000    0.000    0.000    0.000    0.000 
#
# Total GULP energy -167818.523564 kJ/mol
# GULP energy per Si atom -5593.950785 kJ/mol
# Density = 1.969088 g / cm^3
# Si number density = 19.735799 Si / 1000 Ang^3
#
#
#
# Elastic Constant Matrix: (Units=GPa)
#
#
# Indices 1 2 3 4 5 6 
#
# 1 102.1469 35.6535 32.0286 0.0001 16.8554 -0.0001
# 2 35.6535 79.8339 10.2751 0.0001 8.6158 -0.0001
# 3 32.0286 10.2751 92.4776 0.0001 23.0657 -0.0001
# 4 0.0001 0.0001 0.0001 34.9995 -0.0001 5.1876
# 5 16.8554 8.6158 23.0657 -0.0001 42.1251 0.0001
# 6 -0.0001 -0.0001 -0.0001 5.1876 0.0001 34.8535
#
#
#
# Elastic Compliance Matrix: (Units=1/GPa)
#
#
# Indices 1 2 3 4 5 6 
#
# 1 0.013017 -0.005131 -0.003360 0.000000 -0.002319 0.000000
# 2 -0.005131 0.014895 0.000428 0.000000 -0.001228 0.000000
# 3 -0.003360 0.000428 0.013453 0.000000 -0.006110 0.000000
# 4 0.000000 0.000000 0.000000 0.029216 0.000000 -0.004349
# 5 -0.002319 -0.001228 -0.006110 0.000000 0.028263 0.000000
# 6 0.000000 0.000000 0.000000 -0.004349 0.000000 0.029339
#
#
# Mechanical properties :
#
#
# Convention : Reuss Voigt Hill
#
# Bulk Modulus (GPa) = 39.61819 47.81919 43.71869
# Shear Modulus (GPa) = 32.73949 35.49570 34.11759
#
# Velocity S-wave (km/s) = 4.07736 4.24552 4.16229
# Velocity P-wave (km/s) = 6.50264 6.95089 6.73050
#
# Compressibility (1/GPa) = 0.02524093
#
# Stress axis : x y z
#
# Youngs Moduli (GPa) = 76.82409 67.13809 74.33114
#
# Poissons Ratio (x) = 0.34445 0.24973
# Poissons Ratio (y) = 0.39415 -0.03183
# Poissons Ratio (z) = 0.25810 -0.02875
#
# Static dielectric constant tensor:
#      x y z
#    x 1.684720 0.000000 -0.024820 
#    y 0.000000 1.673950 0.000000 
#    z -0.024820 0.000000 1.758400 
# 
# From -- ./inp_files/211728.got.cif
#   From: 2010.05.17/outbox.cif.g08.bks.cpg/sg15_106_cif.got.tgz:211728.got - 2010.06.03 18:47:42.
