data_PCOD9302103
_publ_section_title
;
Structure prediction by ZEFSAII (Michael W. Deem and Ramdas Pophale) SiO2 
 PCOD9302103
Probable space group: C 2/C
;
_chemical_formula_sum "Si O2"
_cell_formula_units_Z 48
_cell_length_a 27.227404
_cell_length_b 6.758480
_cell_length_c 15.173836
_cell_angle_alpha 90.000000
_cell_angle_beta 46.139030
_cell_angle_gamma 90.000000
_cell_volume 2013.260386
_symmetry_space_group_name_H-M "C 2/C"
_symmetry_group_IT_number 15
_symmetry_cell_setting 'monoclinic'
loop_
_space_group_symop_operation_xyz
x,y,z
-x,y,1/2-z
-x,-y,-z
x,-y,1/2+z
1/2+x,1/2+y,z
1/2-x,1/2+y,1/2-z
1/2-x,1/2-y,-z
1/2+x,1/2-y,1/2+z
loop_
_atom_site_type_symbol
_atom_site_label
_atom_site_fract_x
_atom_site_fract_y
_atom_site_fract_z
Si Si1 0.848508 0.961555 0.026928
Si Si2 0.807278 0.339442 0.992135
Si Si3 0.103960 0.111346 0.859014
Si Si4 0.226688 0.193166 0.167298
Si Si5 0.388675 0.996249 0.248403
Si Si6 0.556779 0.385111 0.752153
O O1 0.908605 0.924512 0.022190
O O2 0.784858 0.829150 0.139412
O O3 0.823104 0.188365 0.050935
O O4 0.874430 0.909342 0.895290
O O5 0.778042 0.550961 0.051899
O O6 0.750000 0.250000 0.000000
O O7 0.874660 0.371407 0.851563
O O8 0.106224 0.345538 0.836476
O O9 0.171945 0.972882 0.765426
O O10 0.059372 0.024699 0.834567
O O11 0.177464 0.360359 0.188209
O O12 0.445258 0.836266 0.203997
O O13 0.500000 0.423981 0.750000
#
# Coordination Sequence:
#
# PCOD9302103 Si02
#       6
#     8   8   8   8   8   8
#     4  12  25  40  67 104 136 177 220 271 340 406
#     4  12  19  36  65  95 135 180 210 261 334 407
#     4  11  26  41  66 102 140 172 220 275 339 410
#     4  11  22  34  63 101 142 173 207 262 333 418
#     4  11  21  42  63  97 133 175 221 271 336 398
#     4  11  26  49  70  90 128 182 241 290 327 383
#
# _framework density 23.841925
#
# number of rings (size 3 to 8) (size 9 to 14) (size 15 to 20)
#    0.000    0.667    6.667    1.500    4.667    2.667 
#    0.000    0.833    0.000    0.000    0.000    0.000 
#    0.000    0.000    0.000    0.000    0.000    0.000 
#
# Total GULP energy -133719.204751 kJ/mol
# GULP energy per Si atom -5571.633531 kJ/mol
# Density = 2.378766 g / cm^3
# Si number density = 23.841925 Si / 1000 Ang^3
#
#
#
# Elastic Constant Matrix: (Units=GPa)
#
#
# Indices 1 2 3 4 5 6 
#
# 1 147.9493 55.5278 21.9361 -0.0006 30.5983 0.0001
# 2 55.5278 141.8211 18.8985 0.0093 29.2028 -0.0028
# 3 21.9361 18.8985 30.4029 0.0032 19.9996 -0.0010
# 4 -0.0006 0.0093 0.0032 14.3882 -0.0019 13.0479
# 5 30.5983 29.2028 19.9996 -0.0019 40.3505 0.0004
# 6 0.0001 -0.0028 -0.0010 13.0479 0.0004 31.6302
#
#
#
# Elastic Compliance Matrix: (Units=1/GPa)
#
#
# Indices 1 2 3 4 5 6 
#
# 1 0.008772 -0.002339 -0.002393 0.000003 -0.003773 -0.000002
# 2 -0.002339 0.008976 -0.001165 -0.000011 -0.004145 0.000005
# 3 -0.002393 -0.001165 0.049846 -0.000024 -0.022048 0.000012
# 4 0.000003 -0.000011 -0.000024 0.111041 0.000023 -0.045806
# 5 -0.003773 -0.004145 -0.022048 0.000023 0.041572 -0.000011
# 6 -0.000002 0.000005 0.000012 -0.045806 -0.000011 0.050511
#
#
# Mechanical properties :
#
#
# Convention : Reuss Voigt Hill
#
# Bulk Modulus (GPa) = 17.92141 56.98866 37.45503
# Shear Modulus (GPa) = 16.60515 32.19450 24.39982
#
# Velocity S-wave (km/s) = 2.64193 3.67867 3.20253
# Velocity P-wave (km/s) = 4.10359 6.48059 5.42391
#
# Compressibility (1/GPa) = 0.05579919
#
# Stress axis : x y z
#
# Youngs Moduli (GPa) = 113.99890 111.41345 20.06167
#
# Poissons Ratio (x) = 0.26056 0.04802
# Poissons Ratio (y) = 0.26661 0.02338
# Poissons Ratio (z) = 0.27284 0.12983
#
# Static dielectric constant tensor:
#      x y z
#    x 1.919460 0.000000 0.018030 
#    y 0.000000 1.976970 0.000010 
#    z 0.018030 0.000010 1.901940 
# 
# From -- ./inp_files/217741.got.cif
#   From: 2010.05.17/outbox.cif.g08.bks.cpg/sg15_109_cif.got.tgz:217741.got - 2010.06.03 18:47:42.
