data_PCOD9302586
_publ_section_title
;
Structure prediction by ZEFSAII (Michael W. Deem and Ramdas Pophale) SiO2 
 PCOD9302586
Probable space group: C 2/C
;
_chemical_formula_sum "Si O2"
_cell_formula_units_Z 40
_cell_length_a 25.369195
_cell_length_b 10.915850
_cell_length_c 21.121388
_cell_angle_alpha 90.000000
_cell_angle_beta 159.133393
_cell_angle_gamma 90.000000
_cell_volume 2083.399958
_symmetry_space_group_name_H-M "C 2/C"
_symmetry_group_IT_number 15
_symmetry_cell_setting 'monoclinic'
loop_
_space_group_symop_operation_xyz
x,y,z
-x,y,1/2-z
-x,-y,-z
x,-y,1/2+z
1/2+x,1/2+y,z
1/2-x,1/2+y,1/2-z
1/2-x,1/2-y,-z
1/2+x,1/2-y,1/2+z
loop_
_atom_site_type_symbol
_atom_site_label
_atom_site_fract_x
_atom_site_fract_y
_atom_site_fract_z
Si Si1 0.413583 0.229378 0.710917
Si Si2 0.127669 0.354424 0.090646
Si Si3 0.870819 0.468362 0.268804
Si Si4 0.448486 0.391931 0.394936
Si Si5 0.962787 0.996322 0.137682
O O1 0.500000 0.166877 0.750000
O O2 0.250000 0.250000 0.500000
O O3 0.410722 0.146000 0.769163
O O4 0.492006 0.359464 0.812337
O O5 0.148826 0.421733 0.181593
O O6 0.283491 0.352578 0.229648
O O7 0.001487 0.432673 0.913336
O O8 0.061889 0.220427 0.028853
O O9 0.712217 0.517549 0.068947
O O10 0.500000 0.500000 0.500000
O O11 0.455795 0.435212 0.330289
O O12 0.000000 0.950786 0.250000
#
# Coordination Sequence:
#
# PCOD9302586 Si02
#       5
#     8   8   8   8   8
#     4  11  22  38  66 101 133 174 223 278 343 399
#     4  11  27  42  69  99 132 178 232 273 338 401
#     4  11  23  43  64  98 138 172 224 282 334 401
#     4  12  25  46  71  98 137 180 228 276 338 404
#     4  11  23  43  66 100 136 176 225 280 335 402
#
# _framework density 19.199386000000001
#
# number of rings (size 3 to 8) (size 9 to 14) (size 15 to 20)
#    0.000    0.800    6.000    2.400    5.600    0.000 
#    0.000    5.000    0.000    0.000    0.000    0.000 
#    0.000    0.000    0.000    0.000    0.000    0.000 
#
# Total GULP energy -111797.119783 kJ/mol
# GULP energy per Si atom -5589.855989 kJ/mol
# Density = 1.915569 g / cm^3
# Si number density = 19.199386 Si / 1000 Ang^3
#
#
#
# Elastic Constant Matrix: (Units=GPa)
#
#
# Indices 1 2 3 4 5 6 
#
# 1 121.3278 22.6594 71.4276 0.0000 16.2745 0.0000
# 2 22.6594 68.7905 51.9576 0.0001 4.4233 0.0001
# 3 71.4276 51.9576 162.3795 0.0002 13.3976 0.0001
# 4 0.0000 0.0001 0.0002 33.3863 0.0001 -3.4064
# 5 16.2745 4.4233 13.3976 0.0001 42.5013 0.0000
# 6 0.0000 0.0001 0.0001 -3.4064 0.0000 37.1875
#
#
#
# Elastic Compliance Matrix: (Units=1/GPa)
#
#
# Indices 1 2 3 4 5 6 
#
# 1 0.011454 0.000050 -0.004818 0.000000 -0.002873 0.000000
# 2 0.000050 0.019170 -0.006150 0.000000 -0.000076 0.000000
# 3 -0.004818 -0.006150 0.010309 0.000000 -0.000765 0.000000
# 4 0.000000 0.000000 0.000000 0.030235 0.000000 0.002770
# 5 -0.002873 -0.000076 -0.000765 0.000000 0.024878 0.000000
# 6 0.000000 0.000000 0.000000 0.002770 0.000000 0.027144
#
#
# Mechanical properties :
#
#
# Convention : Reuss Voigt Hill
#
# Bulk Modulus (GPa) = 52.35938 71.62076 61.99007
# Shear Modulus (GPa) = 33.02715 36.37855 34.70285
#
# Velocity S-wave (km/s) = 4.15205 4.35763 4.25608
# Velocity P-wave (km/s) = 7.09342 7.91853 7.51731
#
# Compressibility (1/GPa) = 0.01909877
#
# Stress axis : x y z
#
# Youngs Moduli (GPa) = 87.30378 52.16423 97.00693
#
# Poissons Ratio (x) = -0.00263 0.46734
# Poissons Ratio (y) = -0.00441 0.59659
# Poissons Ratio (z) = 0.42060 0.32081
#
# Static dielectric constant tensor:
#      x y z
#    x 1.640860 0.000000 -0.095680 
#    y 0.000000 1.666080 0.000000 
#    z -0.095680 0.000000 1.419990 
# 
# From -- ./inp_files/46074.got.cif
#   From: 2010.05.17/outbox.cif.g08.bks.cpg/sg15_24_cif.got.tgz:46074.got - 2010.06.03 18:47:42.
