data_PCOD9302776
_publ_section_title
;
Structure prediction by ZEFSAII (Michael W. Deem and Ramdas Pophale) SiO2 
 PCOD9302776
Probable space group: C 2/C
;
_chemical_formula_sum "Si O2"
_cell_formula_units_Z 56
_cell_length_a 26.916045
_cell_length_b 10.865445
_cell_length_c 8.573043
_cell_angle_alpha 90.000000
_cell_angle_beta 65.168280
_cell_angle_gamma 90.000000
_cell_volume 2275.422210
_symmetry_space_group_name_H-M "C 2/C"
_symmetry_group_IT_number 15
_symmetry_cell_setting 'monoclinic'
loop_
_space_group_symop_operation_xyz
x,y,z
-x,y,1/2-z
-x,-y,-z
x,-y,1/2+z
1/2+x,1/2+y,z
1/2-x,1/2+y,1/2-z
1/2-x,1/2-y,-z
1/2+x,1/2-y,1/2+z
loop_
_atom_site_type_symbol
_atom_site_label
_atom_site_fract_x
_atom_site_fract_y
_atom_site_fract_z
Si Si1 0.260644 0.384709 0.050818
Si Si2 0.853152 0.928948 0.474184
Si Si3 0.072761 0.921206 0.392648
Si Si4 0.500000 0.924389 0.750000
Si Si5 0.148705 0.525274 0.563665
Si Si6 0.210400 0.295860 0.415571
Si Si7 0.500000 0.418378 0.750000
Si Si8 0.424006 0.928488 0.592613
O O1 0.209253 0.453487 0.045065
O O2 0.248695 0.370434 0.248945
O O3 0.250000 0.250000 0.000000
O O4 0.316968 0.456702 0.960526
O O5 0.881535 0.867176 0.284429
O O6 0.813982 0.832838 0.611897
O O7 0.896638 0.978833 0.539839
O O8 0.038955 0.847851 0.572963
O O9 0.034070 0.993888 0.321954
O O10 0.460288 0.857425 0.676012
O O11 0.536412 0.008471 0.586581
O O12 0.156778 0.381233 0.510864
O O13 0.105549 0.531796 0.760748
O O14 0.127394 0.610219 0.449705
O O15 0.250000 0.250000 0.500000
#
# Coordination Sequence:
#
# PCOD9302776 Si02
#       8
#     8   8   8   4   8   8   4   8
#     4  12  27  41  64  95 133 169 216 266 313 387
#     4  11  22  40  62  95 128 170 214 254 320 375
#     4   9  18  35  64  93 121 163 213 262 318 380
#     4   8  16  34  64  94 114 168 210 272 326 362
#     4  11  22  40  61  97 128 174 211 259 324 380
#     4  12  25  40  63  88 136 177 215 260 311 387
#     4   8  16  34  64  94 116 164 208 264 330 362
#     4   9  18  35  64  92 123 162 218 262 323 377
#
# _framework density 24.610818999999999
#
# number of rings (size 3 to 8) (size 9 to 14) (size 15 to 20)
#    0.000    1.714    2.857    1.714    4.000    0.000 
#    0.000    0.000    0.000   32.571    0.000    0.000 
#    0.000    0.000    0.000    0.000    0.000    0.000 
#
# Total GULP energy -155960.207504 kJ/mol
# GULP energy per Si atom -5570.007411 kJ/mol
# Density = 2.455480 g / cm^3
# Si number density = 24.610819 Si / 1000 Ang^3
#
#
#
# Elastic Constant Matrix: (Units=GPa)
#
#
# Indices 1 2 3 4 5 6 
#
# 1 159.6736 13.9930 46.4994 0.0000 39.8612 0.0000
# 2 13.9930 53.9525 16.8408 0.0000 1.1770 0.0000
# 3 46.4994 16.8408 156.8062 0.0000 4.4812 0.0000
# 4 0.0000 0.0000 0.0000 24.7121 0.0000 6.8958
# 5 39.8612 1.1770 4.4812 0.0000 50.3377 0.0000
# 6 0.0000 0.0000 0.0000 6.8958 0.0000 15.0771
#
#
#
# Elastic Compliance Matrix: (Units=1/GPa)
#
#
# Indices 1 2 3 4 5 6 
#
# 1 0.008700 -0.001413 -0.002238 0.000000 -0.006657 0.000000
# 2 -0.001413 0.019411 -0.001689 0.000000 0.000815 0.000000
# 3 -0.002238 -0.001689 0.007189 0.000000 0.001172 0.000000
# 4 0.000000 0.000000 0.000000 0.046386 0.000000 -0.021216
# 5 -0.006657 0.000815 0.001172 0.000000 0.025014 0.000000
# 6 0.000000 0.000000 0.000000 -0.021216 0.000000 0.076029
#
#
# Mechanical properties :
#
#
# Convention : Reuss Voigt Hill
#
# Bulk Modulus (GPa) = 40.61689 58.34429 49.48059
# Shear Modulus (GPa) = 24.79969 37.56532 31.18251
#
# Velocity S-wave (km/s) = 3.17783 3.91112 3.56339
# Velocity P-wave (km/s) = 5.47762 6.64485 6.08927
#
# Compressibility (1/GPa) = 0.02462030
#
# Stress axis : x y z
#
# Youngs Moduli (GPa) = 114.93933 51.51809 139.10387
#
# Poissons Ratio (x) = 0.07278 0.31131
# Poissons Ratio (y) = 0.16237 0.23495
# Poissons Ratio (z) = 0.25723 0.08702
#
# Static dielectric constant tensor:
#      x y z
#    x 2.003680 0.000000 -0.091590 
#    y 0.000000 2.510980 0.000000 
#    z -0.091590 0.000000 1.980030 
# 
# From -- ./inp_files/65484.got.cif
#   From: 2010.05.17/outbox.cif.g08.bks.cpg/sg15_33_cif.got.tgz:65484.got - 2010.06.03 18:47:42.
