data_PCOD9302796
_publ_section_title
;
Structure prediction by ZEFSAII (Michael W. Deem and Ramdas Pophale) SiO2 
 PCOD9302796
Probable space group: C 2/C
;
_chemical_formula_sum "Si O2"
_cell_formula_units_Z 60
_cell_length_a 8.587658
_cell_length_b 25.194952
_cell_length_c 16.245233
_cell_angle_alpha 90.000000
_cell_angle_beta 117.428221
_cell_angle_gamma 90.000000
_cell_volume 3119.794149
_symmetry_space_group_name_H-M "C 2/C"
_symmetry_group_IT_number 15
_symmetry_cell_setting 'monoclinic'
loop_
_space_group_symop_operation_xyz
x,y,z
-x,y,1/2-z
-x,-y,-z
x,-y,1/2+z
1/2+x,1/2+y,z
1/2-x,1/2+y,1/2-z
1/2-x,1/2-y,-z
1/2+x,1/2-y,1/2+z
loop_
_atom_site_type_symbol
_atom_site_label
_atom_site_fract_x
_atom_site_fract_y
_atom_site_fract_z
Si Si1 0.792897 0.290676 0.216135
Si Si2 0.692012 0.583515 0.934815
Si Si3 0.859934 0.319428 0.779827
Si Si4 0.579690 0.114567 0.046333
Si Si5 0.694632 0.308950 0.010949
Si Si6 0.616315 0.379291 0.600929
Si Si7 0.110428 0.034299 0.360765
Si Si8 0.500000 0.348108 0.250000
O O1 0.767654 0.227308 0.220910
O O2 0.701092 0.310357 0.110385
O O3 0.674045 0.316581 0.259657
O O4 0.000000 0.302133 0.250000
O O5 0.646504 0.521931 0.911524
O O6 0.571634 0.616345 0.842582
O O7 0.668173 0.603822 0.022167
O O8 0.897326 0.593081 0.968028
O O9 0.942424 0.346600 0.880381
O O10 0.765106 0.364260 0.702311
O O11 0.000000 0.295626 0.750000
O O12 0.708347 0.066973 0.105875
O O13 0.674361 0.149360 0.999361
O O14 0.750000 0.250000 0.000000
O O15 0.504086 0.326682 0.934097
O O16 0.504498 0.427346 0.610172
O O17 0.000000 0.027089 0.250000
#
# Coordination Sequence:
#
# PCOD9302796 Si02
#       8
#     8   8   8   8   8   8   8   4
#     4  12  25  43  66  99 142 179 230 277 334 415
#     4  12  24  45  66  92 135 176 226 283 345 402
#     4  12  23  41  65 101 135 174 224 280 336 401
#     4  11  24  41  69  98 131 175 227 283 342 410
#     4  11  22  40  63  97 130 171 220 270 339 405
#     4  11  24  40  68  94 127 174 217 278 335 403
#     4  11  23  42  69  96 130 172 227 281 349 406
#     4  12  26  46  68  98 140 190 220 282 346 408
#
# _framework density 19.232036999999998
#
# number of rings (size 3 to 8) (size 9 to 14) (size 15 to 20)
#    0.000    0.533    6.667    2.400    1.867    0.000 
#    0.000    2.667    0.000    0.000    0.000    0.000 
#    0.000    0.000    0.000    0.000    0.000    0.000 
#
# Total GULP energy -167472.424739 kJ/mol
# GULP energy per Si atom -5582.414158 kJ/mol
# Density = 1.918826 g / cm^3
# Si number density = 19.232037 Si / 1000 Ang^3
#
#
#
# Elastic Constant Matrix: (Units=GPa)
#
#
# Indices 1 2 3 4 5 6 
#
# 1 81.4568 25.0357 14.0302 0.0000 1.7172 0.0000
# 2 25.0357 101.4022 28.0693 0.0000 1.9245 0.0000
# 3 14.0302 28.0693 85.5897 0.0000 -5.7239 0.0000
# 4 0.0000 0.0000 0.0000 30.4216 0.0000 4.5976
# 5 1.7172 1.9245 -5.7239 0.0000 34.3688 0.0000
# 6 0.0000 0.0000 0.0000 4.5976 0.0000 15.5006
#
#
#
# Elastic Compliance Matrix: (Units=1/GPa)
#
#
# Indices 1 2 3 4 5 6 
#
# 1 0.013417 -0.002944 -0.001282 0.000000 -0.000719 0.000000
# 2 -0.002944 0.011543 -0.003374 0.000000 -0.001061 0.000000
# 3 -0.001282 -0.003374 0.013164 0.000000 0.002445 0.000000
# 4 0.000000 0.000000 0.000000 0.034414 0.000000 -0.010207
# 5 -0.000719 -0.001061 0.002445 0.000000 0.029599 0.000000
# 6 0.000000 0.000000 0.000000 -0.010207 0.000000 0.067541
#
#
# Mechanical properties :
#
#
# Convention : Reuss Voigt Hill
#
# Bulk Modulus (GPa) = 43.62257 44.74658 44.18458
# Shear Modulus (GPa) = 25.97148 29.47910 27.72529
#
# Velocity S-wave (km/s) = 3.67880 3.91936 3.80099
# Velocity P-wave (km/s) = 6.38563 6.61809 6.50290
#
# Compressibility (1/GPa) = 0.02292391
#
# Stress axis : x y z
#
# Youngs Moduli (GPa) = 74.53063 86.63518 75.96616
#
# Poissons Ratio (x) = 0.25507 0.09739
# Poissons Ratio (y) = 0.21943 0.25629
# Poissons Ratio (z) = 0.09555 0.29229
#
# Static dielectric constant tensor:
#      x y z
#    x 1.713520 0.000000 0.007650 
#    y 0.000000 1.648820 0.000000 
#    z 0.007650 0.000000 1.657590 
# 
# From -- ./inp_files/137905.got.cif
#   From: 2010.05.17/outbox.cif.g08.bks.cpg/sg15_69_cif.got.tgz:137905.got - 2010.06.03 18:47:42.
