data_PCOD9302715
_publ_section_title
;
Structure prediction by ZEFSAII (Michael W. Deem and Ramdas Pophale) SiO2 
 PCOD9302715
Probable space group: C 2/C
;
_chemical_formula_sum "Si O2"
_cell_formula_units_Z 48
_cell_length_a 12.106753
_cell_length_b 8.428536
_cell_length_c 22.359270
_cell_angle_alpha 90.000000
_cell_angle_beta 89.440848
_cell_angle_gamma 90.000000
_cell_volume 2281.480532
_symmetry_space_group_name_H-M "C 2/C"
_symmetry_group_IT_number 15
_symmetry_cell_setting 'monoclinic'
loop_
_space_group_symop_operation_xyz
x,y,z
-x,y,1/2-z
-x,-y,-z
x,-y,1/2+z
1/2+x,1/2+y,z
1/2-x,1/2+y,1/2-z
1/2-x,1/2-y,-z
1/2+x,1/2-y,1/2+z
loop_
_atom_site_type_symbol
_atom_site_label
_atom_site_fract_x
_atom_site_fract_y
_atom_site_fract_z
Si Si1 0.936365 0.302084 0.844280
Si Si2 0.213147 0.578186 0.255581
Si Si3 0.768468 0.405893 0.122560
Si Si4 0.653003 0.617780 0.825972
Si Si5 0.491707 0.070317 0.566628
Si Si6 0.217659 0.250339 0.069418
O O1 0.890048 0.401139 0.788452
O O2 0.831018 0.217996 0.874573
O O3 0.995695 0.420889 0.889062
O O4 0.025783 0.169134 0.825918
O O5 0.201549 0.451412 0.309015
O O6 0.315580 0.536612 0.211860
O O7 0.219279 0.744579 0.289872
O O8 0.730376 0.572041 0.093498
O O9 0.874853 0.352345 0.084383
O O10 0.702953 0.633331 0.892109
O O11 0.500000 0.000000 0.500000
O O12 0.593673 0.186709 0.576661
O O13 0.250000 0.250000 0.000000
#
# Coordination Sequence:
#
# PCOD9302715 Si02
#       6
#     8   8   8   8   8   8
#     4  12  24  43  69  96 139 170 217 282 329 396
#     4  11  22  39  66  99 132 172 216 261 340 397
#     4  11  26  41  66 104 125 176 229 264 340 401
#     4  11  23  41  68  96 134 177 212 275 334 391
#     4  12  24  45  70  90 132 180 220 277 336 391
#     4  11  22  45  66  93 133 174 224 274 323 395
#
# _framework density 21.038969000000002
#
# number of rings (size 3 to 8) (size 9 to 14) (size 15 to 20)
#    0.000    0.667    8.333    0.500    0.000    2.000 
#    0.000    3.333    0.000    0.000    0.000    0.000 
#    0.000    0.000    0.000    0.000    0.000    0.000 
#
# Total GULP energy -134132.646611 kJ/mol
# GULP energy per Si atom -5588.860275 kJ/mol
# Density = 2.099108 g / cm^3
# Si number density = 21.038969 Si / 1000 Ang^3
#
#
#
# Elastic Constant Matrix: (Units=GPa)
#
#
# Indices 1 2 3 4 5 6 
#
# 1 149.2145 22.4086 24.7010 0.0000 -29.9664 0.0000
# 2 22.4086 22.8862 0.2113 0.0000 -10.4231 0.0000
# 3 24.7010 0.2113 119.5540 0.0000 -4.1177 0.0000
# 4 0.0000 0.0000 0.0000 15.6004 0.0000 -7.7624
# 5 -29.9664 -10.4231 -4.1177 0.0000 35.4889 0.0000
# 6 0.0000 0.0000 0.0000 -7.7624 0.0000 49.7908
#
#
#
# Elastic Compliance Matrix: (Units=1/GPa)
#
#
# Indices 1 2 3 4 5 6 
#
# 1 0.009047 -0.006293 -0.001665 0.000000 0.005597 0.000000
# 2 -0.006293 0.054841 0.001581 0.000000 0.010976 0.000000
# 3 -0.001665 0.001581 0.008708 0.000000 0.000069 0.000000
# 4 0.000000 0.000000 0.000000 0.069492 0.000000 0.010834
# 5 0.005597 0.010976 0.000069 0.000000 0.036136 0.000000
# 6 0.000000 0.000000 0.000000 0.010834 0.000000 0.021773
#
#
# Mechanical properties :
#
#
# Convention : Reuss Voigt Hill
#
# Bulk Modulus (GPa) = 16.71086 42.92182 29.81634
# Shear Modulus (GPa) = 21.48716 36.46494 28.97605
#
# Velocity S-wave (km/s) = 3.19925 4.16770 3.71517
# Velocity P-wave (km/s) = 4.64833 6.60341 5.71017
#
# Compressibility (1/GPa) = 0.05984132
#
# Stress axis : x y z
#
# Youngs Moduli (GPa) = 110.53864 18.23459 114.83635
#
# Poissons Ratio (x) = 0.11475 0.19123
# Poissons Ratio (y) = 0.69565 -0.18160
# Poissons Ratio (z) = 0.18407 -0.02884
#
# Static dielectric constant tensor:
#      x y z
#    x 1.757440 0.000000 -0.008510 
#    y 0.000000 1.788080 0.000000 
#    z -0.008510 0.000000 1.787170 
# 
# From -- ./inp_files/267740.got.cif
#   From: 2010.05.17/outbox.cif.g08.bks.cpg/sg15_134_cif.got.tgz:267740.got - 2010.06.03 18:47:42.
