data_PCOD9302032
_publ_section_title
;
Structure prediction by ZEFSAII (Michael W. Deem and Ramdas Pophale) SiO2 
 PCOD9302032
Probable space group: C 2/C
;
_chemical_formula_sum "Si O2"
_cell_formula_units_Z 60
_cell_length_a 9.337061
_cell_length_b 20.321476
_cell_length_c 20.983363
_cell_angle_alpha 90.000000
_cell_angle_beta 135.729134
_cell_angle_gamma 90.000000
_cell_volume 2779.251599
_symmetry_space_group_name_H-M "C 2/C"
_symmetry_group_IT_number 15
_symmetry_cell_setting 'monoclinic'
loop_
_space_group_symop_operation_xyz
x,y,z
-x,y,1/2-z
-x,-y,-z
x,-y,1/2+z
1/2+x,1/2+y,z
1/2-x,1/2+y,1/2-z
1/2-x,1/2-y,-z
1/2+x,1/2-y,1/2+z
loop_
_atom_site_type_symbol
_atom_site_label
_atom_site_fract_x
_atom_site_fract_y
_atom_site_fract_z
Si Si1 0.500000 0.195144 0.750000
Si Si2 0.291317 0.564970 0.198234
Si Si3 0.740788 0.196319 0.240660
Si Si4 0.625957 0.639755 0.096392
Si Si5 0.902482 0.485673 0.657152
Si Si6 0.002165 0.580063 0.997921
Si Si7 0.817264 0.385852 0.071661
Si Si8 0.808216 0.676188 0.033008
O O1 0.662326 0.242879 0.765682
O O2 0.607069 0.154827 0.842478
O O3 0.500000 0.524788 0.250000
O O4 0.355025 0.627843 0.260148
O O5 0.205660 0.591692 0.104326
O O6 0.094356 0.534294 0.172439
O O7 0.768777 0.195268 0.325790
O O8 0.514156 0.181814 0.141797
O O9 0.767706 0.574004 0.143007
O O10 0.632039 0.651909 0.022967
O O11 0.383422 0.638826 0.029401
O O12 0.769764 0.539338 0.578422
O O13 0.000000 0.519121 0.750000
O O14 0.840619 0.623781 0.986751
O O15 0.011874 0.605870 0.929149
O O16 0.000000 0.500000 0.000000
O O17 0.750000 0.750000 0.000000
#
# Coordination Sequence:
#
# PCOD9302032 Si02
#       8
#     4   8   8   8   8   8   8   8
#     4  12  28  46  64 100 144 182 230 294 360 416
#     4  11  21  41  67  99 131 176 234 285 334 413
#     4  11  23  42  69  94 136 180 237 283 336 418
#     4  12  23  43  73 102 131 186 239 282 344 427
#     4  12  22  44  69 104 140 178 229 296 351 421
#     4  11  23  43  69  98 139 181 231 292 349 429
#     4  12  27  44  68 103 144 181 227 295 366 426
#     4  11  24  43  67 103 142 179 233 295 353 421
#
# _framework density 21.588546000000001
#
# number of rings (size 3 to 8) (size 9 to 14) (size 15 to 20)
#    0.000    0.533    6.667    2.400    3.733    0.533 
#    0.000    0.000    0.000    0.000    0.000    0.000 
#    0.000    0.000    0.000    0.000    0.000    0.000 
#
# Total GULP energy -167021.232838 kJ/mol
# GULP energy per Si atom -5567.374428 kJ/mol
# Density = 2.153941 g / cm^3
# Si number density = 21.588546 Si / 1000 Ang^3
#
#
#
# Elastic Constant Matrix: (Units=GPa)
#
#
# Indices 1 2 3 4 5 6 
#
# 1 95.0797 38.4907 24.9167 -0.0001 -23.8410 0.0000
# 2 38.4907 85.9330 17.1278 -0.0001 -12.9178 0.0000
# 3 24.9167 17.1278 76.9208 -0.0002 -16.2712 0.0000
# 4 -0.0001 -0.0001 -0.0002 27.4428 -0.0001 -10.1964
# 5 -23.8410 -12.9178 -16.2712 -0.0001 39.1797 0.0000
# 6 0.0000 0.0000 0.0000 -10.1964 0.0000 32.0145
#
#
#
# Elastic Compliance Matrix: (Units=1/GPa)
#
#
# Indices 1 2 3 4 5 6 
#
# 1 0.014827 -0.005230 -0.002296 0.000000 0.006344 0.000000
# 2 -0.005230 0.014392 -0.001294 0.000000 0.001025 0.000000
# 3 -0.002296 -0.001294 0.014961 0.000000 0.004389 0.000000
# 4 0.000000 0.000000 0.000000 0.041330 0.000000 0.013163
# 5 0.006344 0.001025 0.004389 0.000000 0.031545 0.000000
# 6 0.000000 0.000000 0.000000 0.013163 0.000000 0.035428
#
#
# Mechanical properties :
#
#
# Convention : Reuss Voigt Hill
#
# Bulk Modulus (GPa) = 37.67910 46.55598 42.11754
# Shear Modulus (GPa) = 27.93771 31.55395 29.74583
#
# Velocity S-wave (km/s) = 3.60126 3.82724 3.71597
# Velocity P-wave (km/s) = 5.89774 6.41423 6.16140
#
# Compressibility (1/GPa) = 0.02653991
#
# Stress axis : x y z
#
# Youngs Moduli (GPa) = 67.44280 69.48538 66.84152
#
# Poissons Ratio (x) = 0.36341 0.15349
# Poissons Ratio (y) = 0.35273 0.08646
# Poissons Ratio (z) = 0.15487 0.08988
#
# Static dielectric constant tensor:
#      x y z
#    x 1.958870 0.000000 -0.074680 
#    y 0.000000 1.394740 0.000000 
#    z -0.074680 0.000000 1.815080 
# 
# From -- ./inp_files/234093.got.cif
#   From: 2010.05.17/outbox.cif.g08.bks.cpg/sg15_118_cif.got.tgz:234093.got - 2010.06.03 18:47:42.
