data_PCOD9302064
_publ_section_title
;
Structure prediction by ZEFSAII (Michael W. Deem and Ramdas Pophale) SiO2 
 PCOD9302064
Probable space group: C 2/C
;
_chemical_formula_sum "Si O2"
_cell_formula_units_Z 48
_cell_length_a 9.127628
_cell_length_b 11.351557
_cell_length_c 23.622470
_cell_angle_alpha 90.000000
_cell_angle_beta 129.688410
_cell_angle_gamma 90.000000
_cell_volume 1883.490886
_symmetry_space_group_name_H-M "C 2/C"
_symmetry_group_IT_number 15
_symmetry_cell_setting 'monoclinic'
loop_
_space_group_symop_operation_xyz
x,y,z
-x,y,1/2-z
-x,-y,-z
x,-y,1/2+z
1/2+x,1/2+y,z
1/2-x,1/2+y,1/2-z
1/2-x,1/2-y,-z
1/2+x,1/2-y,1/2+z
loop_
_atom_site_type_symbol
_atom_site_label
_atom_site_fract_x
_atom_site_fract_y
_atom_site_fract_z
Si Si1 0.142578 0.347346 0.088662
Si Si2 0.500000 0.082399 0.750000
Si Si3 0.915028 0.883429 0.557535
Si Si4 0.500000 0.315220 0.250000
Si Si5 0.219553 0.051062 0.599126
Si Si6 0.068869 0.613635 0.186719
Si Si7 0.078092 0.610891 0.064836
O O1 0.342752 0.370922 0.169658
O O2 0.038013 0.472818 0.068194
O O3 0.040452 0.235353 0.091176
O O4 0.105328 0.331855 0.011669
O O5 0.355378 0.134513 0.669769
O O6 0.369665 0.997935 0.759405
O O7 0.743516 0.619629 0.433437
O O8 0.038269 0.003455 0.588501
O O9 0.834203 0.891447 0.473274
O O10 0.606380 0.225439 0.234474
O O11 0.347677 0.930440 0.624142
O O12 0.131987 0.649404 0.140602
#
# Coordination Sequence:
#
# PCOD9302064 Si02
#       7
#     8   4   8   4   8   8   8
#     4  11  24  47  69  98 149 180 232 296 356 422
#     4   7  16  36  62  87 134 184 217 284 350 413
#     4  11  21  41  70 103 138 182 235 297 352 429
#     4  11  22  48  72  97 134 192 227 288 360 423
#     4   9  18  37  68  96 133 183 229 284 360 415
#     4   9  18  42  70  94 132 180 231 287 347 421
#     4  11  25  43  72 105 139 187 235 301 357 418
#
# _framework density 25.484593
#
# number of rings (size 3 to 8) (size 9 to 14) (size 15 to 20)
#    1.000    1.000    1.667    2.500    0.000    0.667 
#   12.000    0.000    3.667    1.000    0.000    0.000 
#    0.000    0.000    0.000    0.000    0.000    0.000 
#
# Total GULP energy -133643.524669 kJ/mol
# GULP energy per Si atom -5568.480195 kJ/mol
# Density = 2.542659 g / cm^3
# Si number density = 25.484593 Si / 1000 Ang^3
#
#
#
# Elastic Constant Matrix: (Units=GPa)
#
#
# Indices 1 2 3 4 5 6 
#
# 1 92.0510 27.3243 71.5031 0.0000 -17.8603 0.0000
# 2 27.3243 69.2772 24.4756 0.0000 5.0941 0.0000
# 3 71.5031 24.4756 200.0712 0.0000 -25.0906 0.0000
# 4 0.0000 0.0000 0.0000 39.9701 0.0000 7.8499
# 5 -17.8603 5.0941 -25.0906 0.0000 37.2426 0.0000
# 6 0.0000 0.0000 0.0000 7.8499 0.0000 12.4021
#
#
#
# Elastic Compliance Matrix: (Units=1/GPa)
#
#
# Indices 1 2 3 4 5 6 
#
# 1 0.017388 -0.005597 -0.004793 0.000000 0.005875 0.000000
# 2 -0.005597 0.017347 -0.000826 0.000000 -0.005613 0.000000
# 3 -0.004793 -0.000826 0.007141 0.000000 0.002626 0.000000
# 4 0.000000 0.000000 0.000000 0.028570 0.000000 -0.018083
# 5 0.005875 -0.005613 0.002626 0.000000 0.032205 0.000000
# 6 0.000000 0.000000 0.000000 -0.018083 0.000000 0.092077
#
#
# Mechanical properties :
#
#
# Convention : Reuss Voigt Hill
#
# Bulk Modulus (GPa) = 51.42643 67.55614 59.49129
# Shear Modulus (GPa) = 22.35728 33.79605 28.07667
#
# Velocity S-wave (km/s) = 2.96511 3.64557 3.32280
# Velocity P-wave (km/s) = 5.65206 6.65480 6.17382
#
# Compressibility (1/GPa) = 0.01944525
#
# Stress axis : x y z
#
# Youngs Moduli (GPa) = 57.51200 57.64768 140.02914
#
# Poissons Ratio (x) = 0.32264 0.67111
# Poissons Ratio (y) = 0.32188 0.11564
# Poissons Ratio (z) = 0.27564 0.04761
#
# Static dielectric constant tensor:
#      x y z
#    x 2.078480 0.000000 -0.005390 
#    y 0.000000 2.059720 0.000000 
#    z -0.005390 0.000000 2.120370 
# 
# From -- ./inp_files/313353.got.cif
#   From: 2010.05.17/outbox.cif.g08.bks.cpg/sg15_157_cif.got.tgz:313353.got - 2010.06.03 18:47:42.
