data_PCOD9302031
_publ_section_title
;
Structure prediction by ZEFSAII (Michael W. Deem and Ramdas Pophale) SiO2 
 PCOD9302031
Probable space group: C 2/C
;
_chemical_formula_sum "Si O2"
_cell_formula_units_Z 64
_cell_length_a 23.943448
_cell_length_b 17.714329
_cell_length_c 19.177101
_cell_angle_alpha 90.000000
_cell_angle_beta 23.663156
_cell_angle_gamma 90.000000
_cell_volume 3264.579334
_symmetry_space_group_name_H-M "C 2/C"
_symmetry_group_IT_number 15
_symmetry_cell_setting 'monoclinic'
loop_
_space_group_symop_operation_xyz
x,y,z
-x,y,1/2-z
-x,-y,-z
x,-y,1/2+z
1/2+x,1/2+y,z
1/2-x,1/2+y,1/2-z
1/2-x,1/2-y,-z
1/2+x,1/2-y,1/2+z
loop_
_atom_site_type_symbol
_atom_site_label
_atom_site_fract_x
_atom_site_fract_y
_atom_site_fract_z
Si Si1 0.959268 0.101716 0.402570
Si Si2 0.396625 0.280025 0.305183
Si Si3 0.009061 0.685760 0.044215
Si Si4 0.348042 0.297549 0.726815
Si Si5 0.239275 0.411277 0.735922
Si Si6 0.540006 0.562824 0.829228
Si Si7 0.262894 0.573311 0.760215
Si Si8 0.146783 0.225851 0.058223
O O1 0.853848 0.093468 0.588239
O O2 0.877519 0.137490 0.430970
O O3 0.068321 0.163727 0.305808
O O4 0.034807 0.021863 0.305243
O O5 0.500000 0.265008 0.250000
O O6 0.250000 0.250000 0.500000
O O7 0.451453 0.236853 0.173360
O O8 0.398179 0.369555 0.287179
O O9 0.885970 0.630883 0.159301
O O10 0.057011 0.740319 0.926191
O O11 0.144899 0.635933 0.909053
O O12 0.294843 0.361452 0.735939
O O13 0.213027 0.257029 0.911869
O O14 0.377216 0.419609 0.530507
O O15 0.197406 0.492535 0.814702
O O16 0.629521 0.563346 0.798674
O O17 0.000000 0.258684 0.250000
O O18 0.250000 0.250000 0.000000
#
# Coordination Sequence:
#
# PCOD9302031 Si02
#       8
#     8   8   8   8   8   8   8   8
#     4  11  21  41  67  98 130 176 222 272 331 405
#     4  12  26  44  66  97 136 178 225 276 329 396
#     4  12  25  39  69 101 132 170 222 285 336 387
#     4  12  22  41  70  97 128 172 223 276 331 398
#     4  11  22  39  66 104 131 163 223 281 334 392
#     4  11  22  42  69  95 132 177 223 271 336 406
#     4  11  21  41  68 101 131 168 220 284 339 393
#     4  12  26  42  64  97 135 175 220 271 331 400
#
# _framework density 19.604364
#
# number of rings (size 3 to 8) (size 9 to 14) (size 15 to 20)
#    0.000    0.500    6.250    3.375    1.750    0.500 
#    0.000    0.000    2.750    0.000    0.000    0.000 
#    0.000    0.000    0.000    0.000    0.000    0.000 
#
# Total GULP energy -178795.200604 kJ/mol
# GULP energy per Si atom -5587.350019 kJ/mol
# Density = 1.955974 g / cm^3
# Si number density = 19.604364 Si / 1000 Ang^3
#
#
#
# Elastic Constant Matrix: (Units=GPa)
#
#
# Indices 1 2 3 4 5 6 
#
# 1 75.6047 40.6016 46.2336 -0.0004 -12.9073 0.0006
# 2 40.6016 144.2319 67.7567 -0.0002 1.1604 0.0003
# 3 46.2336 67.7567 118.6312 -0.0002 3.6790 0.0003
# 4 -0.0004 -0.0002 -0.0002 29.4922 0.0002 -6.4373
# 5 -12.9073 1.1604 3.6790 0.0002 37.8940 -0.0004
# 6 0.0006 0.0003 0.0003 -6.4373 -0.0004 39.7241
#
#
#
# Elastic Compliance Matrix: (Units=1/GPa)
#
#
# Indices 1 2 3 4 5 6 
#
# 1 0.019870 -0.002606 -0.006487 0.000000 0.007478 0.000000
# 2 -0.002606 0.009820 -0.004570 0.000000 -0.000745 0.000000
# 3 -0.006487 -0.004570 0.013673 0.000000 -0.003397 0.000000
# 4 0.000000 0.000000 0.000000 0.035151 0.000000 0.005696
# 5 0.007478 -0.000745 -0.003397 0.000000 0.029289 0.000000
# 6 0.000000 0.000000 0.000000 0.005696 0.000000 0.026097
#
#
# Mechanical properties :
#
#
# Convention : Reuss Voigt Hill
#
# Bulk Modulus (GPa) = 62.35774 71.96128 67.15951
# Shear Modulus (GPa) = 30.01733 33.68047 31.84890
#
# Velocity S-wave (km/s) = 3.91724 4.14938 4.03498
# Velocity P-wave (km/s) = 7.23442 7.72936 7.48598
#
# Compressibility (1/GPa) = 0.01603650
#
# Stress axis : x y z
#
# Youngs Moduli (GPa) = 50.32758 101.83658 73.13604
#
# Poissons Ratio (x) = 0.26539 0.47445
# Poissons Ratio (y) = 0.13115 0.33422
# Poissons Ratio (z) = 0.32649 0.46537
#
# Static dielectric constant tensor:
#      x y z
#    x 1.698330 0.000000 0.011980 
#    y 0.000000 1.727510 0.000000 
#    z 0.011980 0.000000 1.682740 
# 
# From -- ./inp_files/255966.got.cif
#   From: 2010.05.17/outbox.cif.g08.bks.cpg/sg15_128_cif.got.tgz:255966.got - 2010.06.03 18:47:42.
