data_PCOD9302070
_publ_section_title
;
Structure prediction by ZEFSAII (Michael W. Deem and Ramdas Pophale) SiO2 
 PCOD9302070
Probable space group: C 2/C
;
_chemical_formula_sum "Si O2"
_cell_formula_units_Z 56
_cell_length_a 9.888615
_cell_length_b 12.845757
_cell_length_c 19.598922
_cell_angle_alpha 90.000000
_cell_angle_beta 81.340972
_cell_angle_gamma 90.000000
_cell_volume 2461.210461
_symmetry_space_group_name_H-M "C 2/C"
_symmetry_group_IT_number 15
_symmetry_cell_setting 'monoclinic'
loop_
_space_group_symop_operation_xyz
x,y,z
-x,y,1/2-z
-x,-y,-z
x,-y,1/2+z
1/2+x,1/2+y,z
1/2-x,1/2+y,1/2-z
1/2-x,1/2-y,-z
1/2+x,1/2-y,1/2+z
loop_
_atom_site_type_symbol
_atom_site_label
_atom_site_fract_x
_atom_site_fract_y
_atom_site_fract_z
Si Si1 0.029158 0.117772 0.523690
Si Si2 0.660017 0.718673 0.724515
Si Si3 0.688751 0.578207 0.308955
Si Si4 0.737559 0.925676 0.399991
Si Si5 0.613098 0.606621 0.158243
Si Si6 0.725678 0.631868 0.865225
Si Si7 0.033832 0.295464 0.082247
O O1 0.183069 0.118875 0.540631
O O2 0.925845 0.141311 0.593037
O O3 0.001389 0.207846 0.470513
O O4 0.000000 0.000000 0.500000
O O5 0.500000 0.737896 0.750000
O O6 0.735680 0.814197 0.680607
O O7 0.687969 0.620894 0.673241
O O8 0.721346 0.697663 0.795029
O O9 0.665700 0.588277 0.230042
O O10 0.533897 0.554809 0.344497
O O11 0.768702 0.481387 0.333394
O O12 0.584356 0.881688 0.407616
O O13 0.771279 0.049668 0.395873
O O14 0.563032 0.724412 0.147506
O O15 0.818512 0.651164 0.925612
#
# Coordination Sequence:
#
# PCOD9302070 Si02
#       7
#     8   8   8   8   8   8   8
#     4  12  25  48  75  97 142 202 249 291 360 447
#     4  12  23  41  71 105 141 183 240 305 367 439
#     4  11  22  40  68 102 140 180 229 290 368 437
#     4  12  24  44  75 103 138 189 247 296 368 433
#     4  11  21  41  71 101 136 184 234 287 357 440
#     4  12  25  45  71 103 144 185 236 307 371 430
#     4  12  26  45  71 106 141 189 241 301 358 435
#
# _framework density 22.753031
#
# number of rings (size 3 to 8) (size 9 to 14) (size 15 to 20)
#    0.000    0.286    8.571    0.857    0.000    1.714 
#    0.000    0.714    0.000    0.000    0.000    0.000 
#    0.000    0.000    0.000    0.000    0.000    0.000 
#
# Total GULP energy -155999.407761 kJ/mol
# GULP energy per Si atom -5571.407420 kJ/mol
# Density = 2.270124 g / cm^3
# Si number density = 22.753031 Si / 1000 Ang^3
#
#
#
# Elastic Constant Matrix: (Units=GPa)
#
#
# Indices 1 2 3 4 5 6 
#
# 1 75.4228 25.9040 0.0960 0.0000 27.0876 0.0000
# 2 25.9040 52.8721 -14.4389 0.0000 -5.7787 0.0000
# 3 0.0960 -14.4389 57.6449 0.0000 12.6968 0.0000
# 4 0.0000 0.0000 0.0000 19.7225 0.0000 6.0219
# 5 27.0876 -5.7787 12.6968 0.0000 31.6383 0.0000
# 6 0.0000 0.0000 0.0000 6.0219 0.0000 31.7816
#
#
#
# Elastic Compliance Matrix: (Units=1/GPa)
#
#
# Indices 1 2 3 4 5 6 
#
# 1 0.029755 -0.017218 0.002130 0.000000 -0.029475 0.000000
# 2 -0.017218 0.030363 0.003472 0.000000 0.018894 0.000000
# 3 0.002130 0.003472 0.020267 0.000000 -0.009323 0.000000
# 4 0.000000 0.000000 0.000000 0.053817 0.000000 -0.010197
# 5 -0.029475 0.018894 -0.009323 0.000000 0.064035 0.000000
# 6 0.000000 0.000000 0.000000 -0.010197 0.000000 0.033397
#
#
# Mechanical properties :
#
#
# Convention : Reuss Voigt Hill
#
# Bulk Modulus (GPa) = 17.49683 23.22914 20.36298
# Shear Modulus (GPa) = 18.25371 28.25371 23.25371
#
# Velocity S-wave (km/s) = 2.83548 3.52768 3.20035
# Velocity P-wave (km/s) = 4.29261 5.17920 4.75661
#
# Compressibility (1/GPa) = 0.05715319
#
# Stress axis : x y z
#
# Youngs Moduli (GPa) = 33.60760 32.93518 49.34085
#
# Poissons Ratio (x) = 0.56708 -0.10508
# Poissons Ratio (y) = 0.57866 -0.17133
# Poissons Ratio (z) = -0.07158 -0.11436
#
# Static dielectric constant tensor:
#      x y z
#    x 2.002730 0.000000 -0.014720 
#    y 0.000000 2.322890 0.000000 
#    z -0.014720 0.000000 1.871790 
# 
# From -- ./inp_files/231569.got.cif
#   From: 2010.05.17/outbox.cif.g08.bks.cpg/sg15_116_cif.got.tgz:231569.got - 2010.06.03 18:47:42.
