data_PCOD9302808
_publ_section_title
;
Structure prediction by ZEFSAII (Michael W. Deem and Ramdas Pophale) SiO2 
 PCOD9302808
Probable space group: C 2/C
;
_chemical_formula_sum "Si O2"
_cell_formula_units_Z 48
_cell_length_a 14.829158
_cell_length_b 20.238486
_cell_length_c 8.461476
_cell_angle_alpha 90.000000
_cell_angle_beta 108.713282
_cell_angle_gamma 90.000000
_cell_volume 2405.209729
_symmetry_space_group_name_H-M "C 2/C"
_symmetry_group_IT_number 15
_symmetry_cell_setting 'monoclinic'
loop_
_space_group_symop_operation_xyz
x,y,z
-x,y,1/2-z
-x,-y,-z
x,-y,1/2+z
1/2+x,1/2+y,z
1/2-x,1/2+y,1/2-z
1/2-x,1/2-y,-z
1/2+x,1/2-y,1/2+z
loop_
_atom_site_type_symbol
_atom_site_label
_atom_site_fract_x
_atom_site_fract_y
_atom_site_fract_z
Si Si1 0.008127 0.847825 0.510961
Si Si2 0.000000 0.256505 0.250000
Si Si3 0.183231 0.689193 0.510413
Si Si4 0.821070 0.924763 0.063076
Si Si5 0.190760 0.688851 0.895237
Si Si6 0.328021 0.573161 0.947610
Si Si7 0.500000 0.247649 0.250000
O O1 0.088208 0.889674 0.467591
O O2 0.049548 0.795007 0.657729
O O3 0.930201 0.894830 0.546405
O O4 0.957596 0.798895 0.355602
O O5 0.080545 0.299955 0.379519
O O6 0.250000 0.750000 0.500000
O O7 0.230684 0.621625 0.475895
O O8 0.184968 0.687203 0.701210
O O9 0.081131 0.704733 0.377811
O O10 0.829635 0.926779 0.257552
O O11 0.815262 0.999259 0.999665
O O12 0.246232 0.621715 0.967490
O O13 0.250000 0.750000 0.000000
#
# Coordination Sequence:
#
# PCOD9302808 Si02
#       7
#     8   4   8   8   8   8   4
#     4  12  22  38  64  94 125 161 206 263 314 374
#     4  12  24  38  66  98 124 160 214 260 318 364
#     4  11  22  40  65  91 125 164 211 259 311 373
#     4  11  24  41  60  91 127 167 207 252 313 376
#     4  11  23  41  62  92 127 163 209 263 308 372
#     4  11  24  41  61  89 129 165 206 255 312 376
#     4  12  20  40  66  94 122 162 210 266 314 360
#
# _framework density 19.956678
#
# number of rings (size 3 to 8) (size 9 to 14) (size 15 to 20)
#    0.000    0.667    6.667    1.500    2.333    1.333 
#    0.000    0.833    0.000    4.000    0.000    0.000 
#    0.000    0.000    0.000    0.000    0.000    0.000 
#
# Total GULP energy -134065.523629 kJ/mol
# GULP energy per Si atom -5586.063485 kJ/mol
# Density = 1.991126 g / cm^3
# Si number density = 19.956678 Si / 1000 Ang^3
#
#
#
# Elastic Constant Matrix: (Units=GPa)
#
#
# Indices 1 2 3 4 5 6 
#
# 1 102.6643 82.3221 27.9352 0.0000 27.2885 0.0000
# 2 82.3221 175.1905 37.3434 0.0000 13.9267 0.0000
# 3 27.9352 37.3434 51.4279 0.0000 17.6534 0.0000
# 4 0.0000 0.0000 0.0000 30.6175 0.0000 -6.0689
# 5 27.2885 13.9267 17.6534 0.0000 33.4681 0.0000
# 6 0.0000 0.0000 0.0000 -6.0689 0.0000 41.6070
#
#
#
# Elastic Compliance Matrix: (Units=1/GPa)
#
#
# Indices 1 2 3 4 5 6 
#
# 1 0.019740 -0.008178 -0.000522 0.000000 -0.012417 0.000000
# 2 -0.008178 0.010143 -0.004595 0.000000 0.004871 0.000000
# 3 -0.000522 -0.004595 0.027185 0.000000 -0.012001 0.000000
# 4 0.000000 0.000000 0.000000 0.033634 0.000000 0.004906
# 5 -0.012417 0.004871 -0.012001 0.000000 0.044307 0.000000
# 6 0.000000 0.000000 0.000000 0.004906 0.000000 0.024750
#
#
# Mechanical properties :
#
#
# Convention : Reuss Voigt Hill
#
# Bulk Modulus (GPa) = 32.81087 69.38712 51.09900
# Shear Modulus (GPa) = 25.44427 33.25065 29.34746
#
# Velocity S-wave (km/s) = 3.57455 4.08627 3.83895
# Velocity P-wave (km/s) = 5.78907 7.55697 6.73131
#
# Compressibility (1/GPa) = 0.03047770
#
# Stress axis : x y z
#
# Youngs Moduli (GPa) = 50.65764 98.59024 36.78546
#
# Poissons Ratio (x) = 0.80623 0.01922
# Poissons Ratio (y) = 0.41425 0.16903
# Poissons Ratio (z) = 0.02647 0.45303
#
# Static dielectric constant tensor:
#      x y z
#    x 1.762510 0.000000 -0.025250 
#    y 0.000000 1.674080 0.000000 
#    z -0.025250 0.000000 1.809100 
# 
# From -- ./inp_files/40714.got.cif
#   From: 2010.05.17/outbox.cif.g08.bks.cpg/sg15_21_cif.got.tgz:40714.got - 2010.06.03 18:47:42.
