data_PCOD9302306
_publ_section_title
;
Structure prediction by ZEFSAII (Michael W. Deem and Ramdas Pophale) SiO2 
 PCOD9302306
Probable space group: C 2/C
;
_chemical_formula_sum "Si O2"
_cell_formula_units_Z 48
_cell_length_a 9.579360
_cell_length_b 16.253737
_cell_length_c 14.443554
_cell_angle_alpha 90.000000
_cell_angle_beta 89.121995
_cell_angle_gamma 90.000000
_cell_volume 2248.603065
_symmetry_space_group_name_H-M "C 2/C"
_symmetry_group_IT_number 15
_symmetry_cell_setting 'monoclinic'
loop_
_space_group_symop_operation_xyz
x,y,z
-x,y,1/2-z
-x,-y,-z
x,-y,1/2+z
1/2+x,1/2+y,z
1/2-x,1/2+y,1/2-z
1/2-x,1/2-y,-z
1/2+x,1/2-y,1/2+z
loop_
_atom_site_type_symbol
_atom_site_label
_atom_site_fract_x
_atom_site_fract_y
_atom_site_fract_z
Si Si1 0.063030 0.352682 0.849381
Si Si2 0.506621 0.383335 0.859576
Si Si3 0.705288 0.238273 0.606306
Si Si4 0.694039 0.908138 0.559465
Si Si5 0.771319 0.004046 0.875868
Si Si6 0.353049 0.062340 0.806225
O O1 0.161751 0.274070 0.839958
O O2 0.163731 0.427371 0.877249
O O3 0.000000 0.371128 0.750000
O O4 0.935339 0.347110 0.922355
O O5 0.500000 0.395207 0.750000
O O6 0.424555 0.299052 0.878487
O O7 0.662161 0.378811 0.896228
O O8 0.419039 0.461585 0.898577
O O9 0.750000 0.250000 0.500000
O O10 0.673239 0.147197 0.640446
O O11 0.722908 0.931912 0.453698
O O12 0.651182 0.990081 0.617670
O O13 0.759794 0.042255 0.773250
O O14 0.500000 0.065648 0.750000
#
# Coordination Sequence:
#
# PCOD9302306 Si02
#       6
#     8   8   8   8   8   8
#     4  11  21  45  68  95 131 179 218 266 337 400
#     4  11  22  45  67  93 136 176 212 270 348 395
#     4  11  27  46  66  94 138 181 219 274 338 395
#     4  12  22  41  74  99 130 170 228 275 330 398
#     4  11  22  38  71 102 128 170 224 277 324 396
#     4  12  23  42  69 104 130 172 230 278 323 398
#
# _framework density 21.346585999999999
#
# number of rings (size 3 to 8) (size 9 to 14) (size 15 to 20)
#    0.000    0.667    5.000    4.500    2.333    0.000 
#    6.000    0.833    0.000    0.000    0.000    0.000 
#    0.000    0.000    0.000    0.000    0.000    0.000 
#
# Total GULP energy -134276.953050 kJ/mol
# GULP energy per Si atom -5594.873044 kJ/mol
# Density = 2.129800 g / cm^3
# Si number density = 21.346586 Si / 1000 Ang^3
#
#
#
# Elastic Constant Matrix: (Units=GPa)
#
#
# Indices 1 2 3 4 5 6 
#
# 1 99.0495 42.8659 -11.5068 0.0000 -8.3741 0.0000
# 2 42.8659 74.0796 2.2301 0.0000 -5.6312 0.0000
# 3 -11.5068 2.2301 61.5913 0.0000 -6.5754 0.0000
# 4 0.0000 0.0000 0.0000 -25.4673 0.0000 -0.8083
# 5 -8.3741 -5.6312 -6.5754 0.0000 28.4132 0.0000
# 6 0.0000 0.0000 0.0000 -0.8083 0.0000 12.5269
#
#
#
# Elastic Compliance Matrix: (Units=1/GPa)
#
#
# Indices 1 2 3 4 5 6 
#
# 1 0.014273 -0.008103 0.003320 0.000000 0.003369 0.000000
# 2 -0.008103 0.018308 -0.002096 0.000000 0.000755 0.000000
# 3 0.003320 -0.002096 0.017423 0.000000 0.004595 0.000000
# 4 0.000000 0.000000 0.000000 -0.039186 0.000000 -0.002529
# 5 0.003369 0.000755 0.004595 0.000000 0.037401 0.000000
# 6 0.000000 0.000000 0.000000 -0.002529 0.000000 0.079665
#
#
# Mechanical properties :
#
#
# Convention : Reuss Voigt Hill
#
# Bulk Modulus (GPa) = 27.58979 33.54431 30.56705
# Shear Modulus (GPa) = 32.52567 16.50331 24.51449
#
# Velocity S-wave (km/s) = 3.90769 2.78351 3.39249
# Velocity P-wave (km/s) = 5.77172 5.10674 5.44938
#
# Compressibility (1/GPa) = 0.03624529
#
# Stress axis : x y z
#
# Youngs Moduli (GPa) = 70.06146 54.62020 57.39633
#
# Poissons Ratio (x) = 0.44259 -0.19054
# Poissons Ratio (y) = 0.56771 0.12031
# Poissons Ratio (z) = -0.23258 0.11449
#
# Static dielectric constant tensor:
#      x y z
#    x 1.825770 0.000000 0.026990 
#    y 0.000000 1.791210 0.000000 
#    z 0.026990 0.000000 1.692780 
# 
# From -- ./inp_files/134796.got.cif
#   From: 2010.05.17/outbox.cif.g08.bks.cpg/sg15_68_cif.got.tgz:134796.got - 2010.06.03 18:47:42.
