data_PCOD9302328
_publ_section_title
;
Structure prediction by ZEFSAII (Michael W. Deem and Ramdas Pophale) SiO2 
 PCOD9302328
Probable space group: C 2/C
;
_chemical_formula_sum "Si O2"
_cell_formula_units_Z 56
_cell_length_a 14.634374
_cell_length_b 14.297640
_cell_length_c 10.609951
_cell_angle_alpha 90.000000
_cell_angle_beta 84.998418
_cell_angle_gamma 90.000000
_cell_volume 2211.541343
_symmetry_space_group_name_H-M "C 2/C"
_symmetry_group_IT_number 15
_symmetry_cell_setting 'monoclinic'
loop_
_space_group_symop_operation_xyz
x,y,z
-x,y,1/2-z
-x,-y,-z
x,-y,1/2+z
1/2+x,1/2+y,z
1/2-x,1/2+y,1/2-z
1/2-x,1/2-y,-z
1/2+x,1/2-y,1/2+z
loop_
_atom_site_type_symbol
_atom_site_label
_atom_site_fract_x
_atom_site_fract_y
_atom_site_fract_z
Si Si1 0.365062 0.157902 0.753374
Si Si2 0.092737 0.784461 0.525664
Si Si3 0.645943 0.879631 0.837482
Si Si4 0.000000 0.494376 0.750000
Si Si5 0.158902 0.064173 0.181825
Si Si6 0.000000 0.081324 0.750000
Si Si7 0.115087 0.188381 0.436405
Si Si8 0.831568 0.800279 0.293707
O O1 0.411964 0.232952 0.838279
O O2 0.378295 0.204607 0.614133
O O3 0.255520 0.162118 0.772248
O O4 0.415122 0.063066 0.786076
O O5 0.140683 0.702679 0.440757
O O6 0.151514 0.873652 0.556863
O O7 0.990565 0.820340 0.511768
O O8 0.546794 0.927950 0.847414
O O9 0.730825 0.951694 0.831808
O O10 0.661551 0.812331 0.714213
O O11 0.139685 0.118585 0.317891
O O12 0.075262 0.990585 0.180806
O O13 0.921175 0.155602 0.717362
O O14 0.170464 0.173246 0.558656
#
# Coordination Sequence:
#
# PCOD9302328 Si02
#       8
#     8   8   8   4   8   4   8   8
#     4  11  23  45  74 102 138 194 244 293 356 442
#     4  11  21  45  77  98 139 195 246 286 363 437
#     4  12  26  45  70 106 147 187 234 299 367 434
#     4  12  25  47  66 112 146 180 240 311 365 420
#     4  11  23  45  74 102 138 194 244 293 356 442
#     4  12  25  47  66 112 146 180 240 311 365 420
#     4  11  21  45  77  98 139 195 246 286 363 437
#     4  12  26  45  70 106 147 187 234 299 367 434
#
# _framework density 25.321707
#
# number of rings (size 3 to 8) (size 9 to 14) (size 15 to 20)
#    0.000    0.571    5.714    4.714    0.000    1.143 
#    5.143    2.857    0.000    0.000    0.000    0.000 
#    0.000    0.000    0.000    0.000    0.000    0.000 
#
# Total GULP energy -155982.130040 kJ/mol
# GULP energy per Si atom -5570.790359 kJ/mol
# Density = 2.526407 g / cm^3
# Si number density = 25.321707 Si / 1000 Ang^3
#
#
#
# Elastic Constant Matrix: (Units=GPa)
#
#
# Indices 1 2 3 4 5 6 
#
# 1 219.4515 40.8130 15.8200 0.0000 10.7955 0.0000
# 2 40.8130 80.2741 -13.0321 0.0000 8.1653 0.0000
# 3 15.8200 -13.0321 60.3323 0.0000 -13.9245 0.0000
# 4 0.0000 0.0000 0.0000 3.3784 0.0000 3.7326
# 5 10.7955 8.1653 -13.9245 0.0000 26.0174 0.0000
# 6 0.0000 0.0000 0.0000 3.7326 0.0000 49.6782
#
#
#
# Elastic Compliance Matrix: (Units=1/GPa)
#
#
# Indices 1 2 3 4 5 6 
#
# 1 0.005430 -0.002916 -0.002695 0.000000 -0.002781 0.000000
# 2 -0.002916 0.014673 0.003594 0.000000 -0.001471 0.000000
# 3 -0.002695 0.003594 0.020600 0.000000 0.011016 0.000000
# 4 0.000000 0.000000 0.000000 0.322796 0.000000 -0.024253
# 5 -0.002781 -0.001471 0.011016 0.000000 0.045947 0.000000
# 6 0.000000 0.000000 0.000000 -0.024253 0.000000 0.021952
#
#
# Mechanical properties :
#
#
# Convention : Reuss Voigt Hill
#
# Bulk Modulus (GPa) = 27.27021 49.69552 38.48287
# Shear Modulus (GPa) = 11.16931 36.91194 24.04062
#
# Velocity S-wave (km/s) = 2.10251 3.82215 3.08459
# Velocity P-wave (km/s) = 4.08496 6.25673 5.28364
#
# Compressibility (1/GPa) = 0.03667005
#
# Stress axis : x y z
#
# Youngs Moduli (GPa) = 184.15729 68.15317 48.54271
#
# Poissons Ratio (x) = 0.19870 0.13084
# Poissons Ratio (y) = 0.53692 -0.17448
# Poissons Ratio (z) = 0.49638 -0.24496
#
# Static dielectric constant tensor:
#      x y z
#    x 2.060240 0.000000 -0.016450 
#    y 0.000000 2.084250 0.000000 
#    z -0.016450 0.000000 2.113730 
# 
# From -- ./inp_files/97094.got.cif
#   From: 2010.05.17/outbox.cif.g08.bks.cpg/sg15_49_cif.got.tgz:97094.got - 2010.06.03 18:47:42.
