data_PCOD9302508
_publ_section_title
;
Structure prediction by ZEFSAII (Michael W. Deem and Ramdas Pophale) SiO2 
 PCOD9302508
Probable space group: C 2/C
;
_chemical_formula_sum "Si O2"
_cell_formula_units_Z 48
_cell_length_a 11.523969
_cell_length_b 14.829942
_cell_length_c 14.537640
_cell_angle_alpha 90.000000
_cell_angle_beta 72.219631
_cell_angle_gamma 90.000000
_cell_volume 2365.806184
_symmetry_space_group_name_H-M "C 2/C"
_symmetry_group_IT_number 15
_symmetry_cell_setting 'monoclinic'
loop_
_space_group_symop_operation_xyz
x,y,z
-x,y,1/2-z
-x,-y,-z
x,-y,1/2+z
1/2+x,1/2+y,z
1/2-x,1/2+y,1/2-z
1/2-x,1/2-y,-z
1/2+x,1/2-y,1/2+z
loop_
_atom_site_type_symbol
_atom_site_label
_atom_site_fract_x
_atom_site_fract_y
_atom_site_fract_z
Si Si1 0.574968 0.706507 0.328588
Si Si2 0.235097 0.348547 0.200361
Si Si3 0.376464 0.237233 0.024105
Si Si4 0.844886 0.471633 0.559585
Si Si5 0.363567 0.480103 0.754288
Si Si6 0.051016 0.474551 0.144053
O O1 0.500000 0.706278 0.250000
O O2 0.674633 0.784228 0.290847
O O3 0.485924 0.724467 0.435520
O O4 0.635196 0.607780 0.310998
O O5 0.340622 0.293121 0.123140
O O6 0.296938 0.437984 0.222262
O O7 0.121719 0.385412 0.164233
O O8 0.393667 0.131521 0.041282
O O9 0.250000 0.250000 0.000000
O O10 0.712406 0.461558 0.634535
O O11 0.853854 0.512128 0.454677
O O12 0.930801 0.527346 0.608589
O O13 0.500000 0.502451 0.750000
O O14 0.000000 0.519741 0.250000
#
# Coordination Sequence:
#
# PCOD9302508 Si02
#       6
#     8   8   8   8   8   8
#     4  11  22  40  64  92 125 163 218 263 309 384
#     4  12  23  41  68  95 128 168 214 268 325 379
#     4  12  21  37  64  94 127 168 219 260 320 390
#     4  11  22  40  65  98 127 165 220 273 318 383
#     4  11  25  43  62  96 134 169 210 266 326 392
#     4  11  22  37  64 100 125 162 215 277 323 370
#
# _framework density 20.289066999999999
#
# number of rings (size 3 to 8) (size 9 to 14) (size 15 to 20)
#    0.000    0.667    6.667    2.500    2.333    0.667 
#    0.000    2.500    0.000    2.000    0.000    0.000 
#    0.000    0.000    0.000    0.000    0.000    0.000 
#
# Total GULP energy -133792.349114 kJ/mol
# GULP energy per Si atom -5574.681213 kJ/mol
# Density = 2.024289 g / cm^3
# Si number density = 20.289067 Si / 1000 Ang^3
#
#
#
# Elastic Constant Matrix: (Units=GPa)
#
#
# Indices 1 2 3 4 5 6 
#
# 1 71.0078 52.9801 52.1974 0.0000 -31.5455 0.0000
# 2 52.9801 137.9328 47.2821 0.0000 -16.3423 0.0000
# 3 52.1974 47.2821 179.1981 0.0000 -51.5205 0.0000
# 4 0.0000 0.0000 0.0000 20.0027 0.0000 0.9361
# 5 -31.5455 -16.3423 -51.5205 0.0000 45.8004 0.0000
# 6 0.0000 0.0000 0.0000 0.9361 0.0000 34.8379
#
#
#
# Elastic Compliance Matrix: (Units=1/GPa)
#
#
# Indices 1 2 3 4 5 6 
#
# 1 0.028089 -0.008466 -0.001854 0.000000 0.014240 0.000000
# 2 -0.008466 0.010538 -0.001345 0.000000 -0.003584 0.000000
# 3 -0.001854 -0.001345 0.008824 0.000000 0.008169 0.000000
# 4 0.000000 0.000000 0.000000 0.050056 0.000000 -0.001345
# 5 0.014240 -0.003584 0.008169 0.000000 0.039553 0.000000
# 6 0.000000 0.000000 0.000000 -0.001345 0.000000 0.028740
#
#
# Mechanical properties :
#
#
# Convention : Reuss Voigt Hill
#
# Bulk Modulus (GPa) = 41.45742 77.00644 59.23193
# Shear Modulus (GPa) = 25.35875 35.84013 30.59944
#
# Velocity S-wave (km/s) = 3.53919 4.20750 3.88773
# Velocity P-wave (km/s) = 6.09745 7.85119 7.02923
#
# Compressibility (1/GPa) = 0.02412113
#
# Stress axis : x y z
#
# Youngs Moduli (GPa) = 35.60145 94.89297 113.32773
#
# Poissons Ratio (x) = 0.80339 0.21009
# Poissons Ratio (y) = 0.30141 0.15241
# Poissons Ratio (z) = 0.06600 0.12762
#
# Static dielectric constant tensor:
#      x y z
#    x 1.730020 0.000000 -0.021310 
#    y 0.000000 1.747050 0.000000 
#    z -0.021310 0.000000 1.819500 
# 
# From -- ./inp_files/143450.got.cif
#   From: 2010.05.17/outbox.cif.g08.bks.cpg/sg15_72_cif.got.tgz:143450.got - 2010.06.03 18:47:42.
