data_PCOD9302410
_publ_section_title
;
Structure prediction by ZEFSAII (Michael W. Deem and Ramdas Pophale) SiO2 
 PCOD9302410
Probable space group: C 2/C
;
_chemical_formula_sum "Si O2"
_cell_formula_units_Z 60
_cell_length_a 24.920805
_cell_length_b 20.111200
_cell_length_c 15.978685
_cell_angle_alpha 90.000000
_cell_angle_beta 161.022829
_cell_angle_gamma 90.000000
_cell_volume 2604.234766
_symmetry_space_group_name_H-M "C 2/C"
_symmetry_group_IT_number 15
_symmetry_cell_setting 'monoclinic'
loop_
_space_group_symop_operation_xyz
x,y,z
-x,y,1/2-z
-x,-y,-z
x,-y,1/2+z
1/2+x,1/2+y,z
1/2-x,1/2+y,1/2-z
1/2-x,1/2-y,-z
1/2+x,1/2-y,1/2+z
loop_
_atom_site_type_symbol
_atom_site_label
_atom_site_fract_x
_atom_site_fract_y
_atom_site_fract_z
Si Si1 0.161464 0.719097 0.951482
Si Si2 0.684650 0.043563 0.225209
Si Si3 0.500000 0.086854 0.250000
Si Si4 0.545267 0.427356 0.675916
Si Si5 0.198843 0.613210 0.698982
Si Si6 0.372062 0.118724 0.732158
Si Si7 0.312467 0.434664 0.100977
Si Si8 0.612680 0.632134 0.102658
O O1 0.081387 0.655988 0.783824
O O2 0.000000 0.755406 0.750000
O O3 0.250000 0.750000 0.000000
O O4 0.293100 0.695044 0.215586
O O5 0.735211 0.061882 0.394611
O O6 0.776935 0.098753 0.305539
O O7 0.707100 0.966876 0.231508
O O8 0.494094 0.058011 0.924826
O O9 0.580311 0.125206 0.446224
O O10 0.662893 0.052766 0.447033
O O11 0.388747 0.379637 0.454782
O O12 0.551291 0.506167 0.698528
O O13 0.605890 0.417226 0.671565
O O14 0.684595 0.402650 0.943845
O O15 0.134287 0.651732 0.685364
O O16 0.422582 0.369894 0.287954
#
# Coordination Sequence:
#
# PCOD9302410 Si02
#       8
#     8   8   4   8   8   8   8   8
#     4  11  26  50  75 101 126 166 224 294 356 392
#     4  12  22  37  61  89 137 178 215 257 313 398
#     4  12  24  34  54  76 132 178 230 266 302 372
#     4  11  22  35  56  86 137 179 222 258 309 382
#     4  12  22  38  54  93 136 186 221 257 312 390
#     4  11  23  39  63  95 131 169 221 265 327 393
#     4  12  22  39  54  93 132 184 217 259 316 393
#     4  11  23  39  64  93 126 172 218 271 324 396
#
# _framework density 23.039397000000001
#
# number of rings (size 3 to 8) (size 9 to 14) (size 15 to 20)
#    0.000    0.533    6.667    3.200    0.000    3.200 
#    0.000    0.000    0.000    0.800    3.467    0.000 
#    0.000    0.000    0.000    0.000    0.000    0.000 
#
# Total GULP energy -167193.450231 kJ/mol
# GULP energy per Si atom -5573.115008 kJ/mol
# Density = 2.298696 g / cm^3
# Si number density = 23.039397 Si / 1000 Ang^3
#
#
#
# Elastic Constant Matrix: (Units=GPa)
#
#
# Indices 1 2 3 4 5 6 
#
# 1 134.3714 14.9450 29.1396 0.0000 -15.6521 0.0000
# 2 14.9450 40.1976 17.3871 0.0000 -3.8445 0.0000
# 3 29.1396 17.3871 140.4666 0.0000 -11.1320 0.0000
# 4 0.0000 0.0000 0.0000 7.5299 0.0000 1.4226
# 5 -15.6521 -3.8445 -11.1320 0.0000 52.8232 0.0000
# 6 0.0000 0.0000 0.0000 1.4226 0.0000 25.0976
#
#
#
# Elastic Compliance Matrix: (Units=1/GPa)
#
#
# Indices 1 2 3 4 5 6 
#
# 1 0.008205 -0.002316 -0.001257 0.000000 0.001998 0.000000
# 2 -0.002316 0.027019 -0.002810 0.000000 0.000688 0.000000
# 3 -0.001257 -0.002810 0.007812 0.000000 0.001069 0.000000
# 4 0.000000 0.000000 0.000000 0.134242 0.000000 -0.007609
# 5 0.001998 0.000688 0.001069 0.000000 0.019798 0.000000
# 6 0.000000 0.000000 0.000000 -0.007609 0.000000 0.040276
#
#
# Mechanical properties :
#
#
# Convention : Reuss Voigt Hill
#
# Bulk Modulus (GPa) = 33.03403 48.66432 40.84918
# Shear Modulus (GPa) = 19.21538 33.99439 26.60489
#
# Velocity S-wave (km/s) = 2.89108 3.84538 3.40186
# Velocity P-wave (km/s) = 5.05110 6.39406 5.76184
#
# Compressibility (1/GPa) = 0.03027181
#
# Stress axis : x y z
#
# Youngs Moduli (GPa) = 121.87774 37.01086 128.00096
#
# Poissons Ratio (x) = 0.08570 0.16092
# Poissons Ratio (y) = 0.28223 0.35962
# Poissons Ratio (z) = 0.15322 0.10398
#
# Static dielectric constant tensor:
#      x y z
#    x 1.974680 0.000000 0.059040 
#    y 0.000000 1.948780 0.000000 
#    z 0.059040 0.000000 1.937390 
# 
# From -- ./inp_files/174943.got.cif
#   From: 2010.05.17/outbox.cif.g08.bks.cpg/sg15_88_cif.got.tgz:174943.got - 2010.06.03 18:47:42.
