data_PCOD9302898
_publ_section_title
;
Structure prediction by ZEFSAII (Michael W. Deem and Ramdas Pophale) SiO2 
 PCOD9302898
Probable space group: C 2/C
;
_chemical_formula_sum "Si O2"
_cell_formula_units_Z 44
_cell_length_a 8.613666
_cell_length_b 33.680883
_cell_length_c 8.269156
_cell_angle_alpha 90.000000
_cell_angle_beta 120.651346
_cell_angle_gamma 90.000000
_cell_volume 2063.836481
_symmetry_space_group_name_H-M "C 2/C"
_symmetry_group_IT_number 15
_symmetry_cell_setting 'monoclinic'
loop_
_space_group_symop_operation_xyz
x,y,z
-x,y,1/2-z
-x,-y,-z
x,-y,1/2+z
1/2+x,1/2+y,z
1/2-x,1/2+y,1/2-z
1/2-x,1/2-y,-z
1/2+x,1/2-y,1/2+z
loop_
_atom_site_type_symbol
_atom_site_label
_atom_site_fract_x
_atom_site_fract_y
_atom_site_fract_z
Si Si1 0.086415 0.315158 0.969851
Si Si2 0.000000 0.189684 0.750000
Si Si3 0.796426 0.040064 0.205871
Si Si4 0.052689 0.762974 0.945322
Si Si5 0.986288 0.604177 0.554245
Si Si6 0.206456 0.952704 0.411070
O O1 0.000000 0.302973 0.750000
O O2 0.299174 0.327505 0.097187
O O3 0.973479 0.353768 0.959754
O O4 0.057794 0.277403 0.072293
O O5 0.039321 0.212704 0.603146
O O6 0.786991 0.044790 0.392690
O O7 0.000000 0.043184 0.250000
O O8 0.735225 0.995635 0.127186
O O9 0.677104 0.074291 0.064905
O O10 0.000000 0.784839 0.750000
O O11 0.250000 0.750000 0.000000
O O12 0.161992 0.580811 0.584775
O O13 0.000000 0.612216 0.750000
O O14 0.000000 0.945673 0.250000
#
# Coordination Sequence:
#
# PCOD9302898 Si02
#       6
#     8   4   8   8   8   8
#     4  12  26  47  70 105 141 185 230 288 353 413
#     4  12  26  48  76 104 146 182 234 298 344 418
#     4  11  22  42  67  99 130 179 226 279 337 409
#     4  12  23  44  76 105 139 184 236 284 348 418
#     4  12  26  44  64  96 140 177 224 283 343 410
#     4  11  22  40  69  97 133 175 227 279 337 408
#
# _framework density 21.319519
#
# number of rings (size 3 to 8) (size 9 to 14) (size 15 to 20)
#    0.000    0.364    2.727    8.727    1.273    0.000 
#    3.273    0.909    0.000    0.000    0.000    0.000 
#    0.000    0.000    0.000    0.000    0.000    0.000 
#
# Total GULP energy -122885.146321 kJ/mol
# GULP energy per Si atom -5585.688469 kJ/mol
# Density = 2.127100 g / cm^3
# Si number density = 21.319519 Si / 1000 Ang^3
#
#
#
# Elastic Constant Matrix: (Units=GPa)
#
#
# Indices 1 2 3 4 5 6 
#
# 1 78.2257 9.5717 17.8092 0.0000 -16.7885 0.0000
# 2 9.5717 54.7720 8.0851 0.0000 -8.3727 0.0000
# 3 17.8092 8.0851 96.1283 0.0000 -19.2279 0.0000
# 4 0.0000 0.0000 0.0000 11.1341 0.0000 -8.9179
# 5 -16.7885 -8.3727 -19.2279 0.0000 47.2762 0.0000
# 6 0.0000 0.0000 0.0000 -8.9179 0.0000 9.1355
#
#
#
# Elastic Compliance Matrix: (Units=1/GPa)
#
#
# Indices 1 2 3 4 5 6 
#
# 1 0.014242 -0.001615 -0.001685 0.000000 0.004086 0.000000
# 2 -0.001615 0.019037 -0.000808 0.000000 0.002469 0.000000
# 3 -0.001685 -0.000808 0.011576 0.000000 0.003967 0.000000
# 4 0.000000 0.000000 0.000000 0.411748 0.000000 0.401938
# 5 0.004086 0.002469 0.003967 0.000000 0.024654 0.000000
# 6 0.000000 0.000000 0.000000 0.401938 0.000000 0.501825
#
#
# Mechanical properties :
#
#
# Convention : Reuss Voigt Hill
#
# Bulk Modulus (GPa) = 27.29466 33.33977 30.31722
# Shear Modulus (GPa) = 4.98251 26.41983 15.70117
#
# Velocity S-wave (km/s) = 1.53040 3.52409 2.71674
# Velocity P-wave (km/s) = 3.99416 5.67724 4.90838
#
# Compressibility (1/GPa) = 0.03663721
#
# Stress axis : x y z
#
# Youngs Moduli (GPa) = 70.21588 52.53056 86.38274
#
# Poissons Ratio (x) = 0.08486 0.14559
# Poissons Ratio (y) = 0.11343 0.06979
# Poissons Ratio (z) = 0.11834 0.04244
#
# Static dielectric constant tensor:
#      x y z
#    x 1.753890 0.000000 0.029440 
#    y 0.000000 27.096490 0.000000 
#    z 0.029440 0.000000 1.756110 
# 
# From -- ./inp_files/26227.got.cif
#   From: 2010.05.17/outbox.cif.g08.bks.cpg/sg15_14_cif.got.tgz:26227.got - 2010.06.03 18:47:42.
