data_PCOD9302931
_publ_section_title
;
Structure prediction by ZEFSAII (Michael W. Deem and Ramdas Pophale) SiO2 
 PCOD9302931
Probable space group: C 2/C
;
_chemical_formula_sum "Si O2"
_cell_formula_units_Z 48
_cell_length_a 14.856499
_cell_length_b 11.229648
_cell_length_c 12.951341
_cell_angle_alpha 90.000000
_cell_angle_beta 60.765246
_cell_angle_gamma 90.000000
_cell_volume 1885.495523
_symmetry_space_group_name_H-M "C 2/C"
_symmetry_group_IT_number 15
_symmetry_cell_setting 'monoclinic'
loop_
_space_group_symop_operation_xyz
x,y,z
-x,y,1/2-z
-x,-y,-z
x,-y,1/2+z
1/2+x,1/2+y,z
1/2-x,1/2+y,1/2-z
1/2-x,1/2-y,-z
1/2+x,1/2-y,1/2+z
loop_
_atom_site_type_symbol
_atom_site_label
_atom_site_fract_x
_atom_site_fract_y
_atom_site_fract_z
Si Si1 0.772065 0.061825 0.434037
Si Si2 0.500000 0.793383 0.250000
Si Si3 0.000000 0.322564 0.750000
Si Si4 0.561810 0.402452 0.841996
Si Si5 0.820299 0.388147 0.700027
Si Si6 0.594559 0.623849 0.557579
Si Si7 0.727514 0.137435 0.680196
O O1 0.855771 0.904817 0.798086
O O2 0.801988 0.929441 0.451015
O O3 0.667102 0.080275 0.429169
O O4 0.722664 0.368679 0.461522
O O5 0.513251 0.705574 0.145007
O O6 0.393894 0.854871 0.278759
O O7 0.082076 0.385039 0.779055
O O8 0.063351 0.239653 0.635769
O O9 0.497701 0.525098 0.878119
O O10 0.603757 0.367496 0.930165
O O11 0.775566 0.249911 0.716564
O O12 0.760171 0.509371 0.772420
#
# Coordination Sequence:
#
# PCOD9302931 Si02
#       7
#     8   4   4   8   8   8   8
#     4  12  23  48  78 116 147 211 268 323 373 478
#     4  12  24  48  72 116 153 208 253 324 407 464
#     4  12  26  46  76 116 165 196 257 326 403 448
#     4  11  22  40  77 116 155 199 267 317 389 459
#     4  12  28  51  76 116 156 211 255 329 388 470
#     4  11  23  42  78 117 156 201 261 328 375 467
#     4  12  29  50  83 110 164 205 270 316 400 466
#
# _framework density 25.457497
#
# number of rings (size 3 to 8) (size 9 to 14) (size 15 to 20)
#    0.000    0.333    5.000    3.000    7.000    0.000 
#    3.000    4.167    0.000    0.000    0.000    0.000 
#    0.000    0.000    0.000    0.000    0.000    0.000 
#
# Total GULP energy -133893.488061 kJ/mol
# GULP energy per Si atom -5578.895336 kJ/mol
# Density = 2.539955 g / cm^3
# Si number density = 25.457497 Si / 1000 Ang^3
#
#
#
# Elastic Constant Matrix: (Units=GPa)
#
#
# Indices 1 2 3 4 5 6 
#
# 1 106.9604 50.5994 56.2823 0.0000 28.6136 0.0000
# 2 50.5994 144.1842 69.6353 0.0000 22.8392 0.0000
# 3 56.2823 69.6353 179.4933 0.0000 32.8260 0.0000
# 4 0.0000 0.0000 0.0000 36.3035 0.0000 17.3405
# 5 28.6136 22.8392 32.8260 0.0000 58.2784 0.0000
# 6 0.0000 0.0000 0.0000 17.3405 0.0000 40.4163
#
#
#
# Elastic Compliance Matrix: (Units=1/GPa)
#
#
# Indices 1 2 3 4 5 6 
#
# 1 0.012925 -0.002830 -0.002227 0.000000 -0.003983 0.000000
# 2 -0.002830 0.009299 -0.002573 0.000000 -0.000806 0.000000
# 3 -0.002227 -0.002573 0.007674 0.000000 -0.002221 0.000000
# 4 0.000000 0.000000 0.000000 0.034646 0.000000 -0.014865
# 5 -0.003983 -0.000806 -0.002221 0.000000 0.020681 0.000000
# 6 0.000000 0.000000 0.000000 -0.014865 0.000000 0.031120
#
#
# Mechanical properties :
#
#
# Convention : Reuss Voigt Hill
#
# Bulk Modulus (GPa) = 68.30953 87.07464 77.69209
# Shear Modulus (GPa) = 36.63474 43.94103 40.28789
#
# Velocity S-wave (km/s) = 3.79760 4.15909 3.98245
# Velocity P-wave (km/s) = 6.79118 7.57246 7.19244
#
# Compressibility (1/GPa) = 0.01463925
#
# Stress axis : x y z
#
# Youngs Moduli (GPa) = 77.36976 107.54064 130.31446
#
# Poissons Ratio (x) = 0.30429 0.29016
# Poissons Ratio (y) = 0.21892 0.33529
# Poissons Ratio (z) = 0.17228 0.27669
#
# Static dielectric constant tensor:
#      x y z
#    x 2.541830 0.000000 0.003060 
#    y 0.000000 2.087550 0.000000 
#    z 0.003060 0.000000 2.000430 
# 
# From -- ./inp_files/203664.got.cif
#   From: 2010.05.17/outbox.cif.g08.bks.cpg/sg15_102_cif.got.tgz:203664.got - 2010.06.03 18:47:42.
