data_PCOD9302079
_publ_section_title
;
Structure prediction by ZEFSAII (Michael W. Deem and Ramdas Pophale) SiO2 
 PCOD9302079
Probable space group: C 2/C
;
_chemical_formula_sum "Si O2"
_cell_formula_units_Z 48
_cell_length_a 16.368074
_cell_length_b 10.107292
_cell_length_c 15.510105
_cell_angle_alpha 90.000000
_cell_angle_beta 111.272264
_cell_angle_gamma 90.000000
_cell_volume 2391.118202
_symmetry_space_group_name_H-M "C 2/C"
_symmetry_group_IT_number 15
_symmetry_cell_setting 'monoclinic'
loop_
_space_group_symop_operation_xyz
x,y,z
-x,y,1/2-z
-x,-y,-z
x,-y,1/2+z
1/2+x,1/2+y,z
1/2-x,1/2+y,1/2-z
1/2-x,1/2-y,-z
1/2+x,1/2-y,1/2+z
loop_
_atom_site_type_symbol
_atom_site_label
_atom_site_fract_x
_atom_site_fract_y
_atom_site_fract_z
Si Si1 0.246222 0.447353 0.695022
Si Si2 0.327896 0.732472 0.958342
Si Si3 0.017672 0.650583 0.542532
Si Si4 0.310610 0.141279 0.979397
Si Si5 0.795915 0.539612 0.635310
Si Si6 0.910023 0.233816 0.256198
O O1 0.194742 0.331041 0.627621
O O2 0.232710 0.570313 0.622312
O O3 0.205932 0.467566 0.773840
O O4 0.344078 0.388783 0.744927
O O5 0.304637 0.585683 0.918490
O O6 0.250000 0.750000 0.000000
O O7 0.428021 0.766652 0.014875
O O8 0.095071 0.699874 0.509461
O O9 0.063077 0.674513 0.652413
O O10 0.000000 0.500000 0.500000
O O11 0.250000 0.250000 0.000000
O O12 0.325176 0.034519 0.060770
O O13 0.858725 0.665095 0.674320
O O14 0.000000 0.184789 0.250000
#
# Coordination Sequence:
#
# PCOD9302079 Si02
#       6
#     8   8   8   8   8   8
#     4  11  23  44  63  95 133 171 222 269 330 395
#     4  11  21  41  72  97 128 172 221 273 327 386
#     4  12  21  42  68 103 133 169 227 277 320 402
#     4  12  25  43  66  95 137 173 215 282 341 385
#     4  11  23  41  68  91 128 177 214 270 337 393
#     4  11  23  38  68  96 125 170 226 267 320 396
#
# _framework density 20.074290000000001
#
# number of rings (size 3 to 8) (size 9 to 14) (size 15 to 20)
#    0.000    0.667    5.000    4.000    2.333    0.000 
#    3.000    1.667    0.000    0.000    0.000    0.000 
#    0.000    0.000    0.000    0.000    0.000    0.000 
#
# Total GULP energy -133686.353077 kJ/mol
# GULP energy per Si atom -5570.264712 kJ/mol
# Density = 2.002860 g / cm^3
# Si number density = 20.074290 Si / 1000 Ang^3
#
#
#
# Elastic Constant Matrix: (Units=GPa)
#
#
# Indices 1 2 3 4 5 6 
#
# 1 151.9218 24.0853 47.1687 0.0000 9.0164 0.0000
# 2 24.0853 16.8973 20.8197 0.0000 -0.5520 0.0000
# 3 47.1687 20.8197 127.2602 0.0000 3.8451 0.0000
# 4 0.0000 0.0000 0.0000 31.2709 0.0000 1.9303
# 5 9.0164 -0.5520 3.8451 0.0000 32.6357 0.0000
# 6 0.0000 0.0000 0.0000 1.9303 0.0000 31.3291
#
#
#
# Elastic Compliance Matrix: (Units=1/GPa)
#
#
# Indices 1 2 3 4 5 6 
#
# 1 0.008923 -0.011044 -0.001426 0.000000 -0.002484 0.000000
# 2 -0.011044 0.088027 -0.010482 0.000000 0.005775 0.000000
# 3 -0.001426 -0.010482 0.010131 0.000000 -0.000977 0.000000
# 4 0.000000 0.000000 0.000000 0.032101 0.000000 -0.001978
# 5 -0.002484 0.005775 -0.000977 0.000000 0.031540 0.000000
# 6 0.000000 0.000000 0.000000 -0.001978 0.000000 0.032041
#
#
# Mechanical properties :
#
#
# Convention : Reuss Voigt Hill
#
# Bulk Modulus (GPa) = 16.34585 53.35855 34.85220
# Shear Modulus (GPa) = 18.58329 32.64750 25.61540
#
# Velocity S-wave (km/s) = 3.04588 4.03716 3.57603
# Velocity P-wave (km/s) = 4.53102 6.95484 5.86941
#
# Compressibility (1/GPa) = 0.06117761
#
# Stress axis : x y z
#
# Youngs Moduli (GPa) = 112.06712 11.36015 98.70967
#
# Poissons Ratio (x) = 0.12546 0.14072
# Poissons Ratio (y) = 1.23764 1.03471
# Poissons Ratio (z) = 0.15976 0.11908
#
# Static dielectric constant tensor:
#      x y z
#    x 1.730990 0.000000 0.045770 
#    y 0.000000 1.794690 0.000000 
#    z 0.045770 0.000000 1.640570 
# 
# From -- ./inp_files/152213.got.cif
#   From: 2010.05.17/outbox.cif.g08.bks.cpg/sg15_77_cif.got.tgz:152213.got - 2010.06.03 18:47:42.
