data_PCOD9302136
_publ_section_title
;
Structure prediction by ZEFSAII (Michael W. Deem and Ramdas Pophale) SiO2 
 PCOD9302136
Probable space group: C 2/C
;
_chemical_formula_sum "Si O2"
_cell_formula_units_Z 52
_cell_length_a 25.630122
_cell_length_b 12.553469
_cell_length_c 17.730327
_cell_angle_alpha 90.000000
_cell_angle_beta 154.194208
_cell_angle_gamma 90.000000
_cell_volume 2483.372678
_symmetry_space_group_name_H-M "C 2/C"
_symmetry_group_IT_number 15
_symmetry_cell_setting 'monoclinic'
loop_
_space_group_symop_operation_xyz
x,y,z
-x,y,1/2-z
-x,-y,-z
x,-y,1/2+z
1/2+x,1/2+y,z
1/2-x,1/2+y,1/2-z
1/2-x,1/2-y,-z
1/2+x,1/2-y,1/2+z
loop_
_atom_site_type_symbol
_atom_site_label
_atom_site_fract_x
_atom_site_fract_y
_atom_site_fract_z
Si Si1 0.000000 0.524712 0.750000
Si Si2 0.000391 0.153593 0.341691
Si Si3 0.761423 0.036616 0.852255
Si Si4 0.346085 0.838408 0.149386
Si Si5 0.160819 0.404764 0.068914
Si Si6 0.911691 0.036980 0.817855
Si Si7 0.926891 0.171725 0.576202
O O1 0.108461 0.597202 0.863121
O O2 0.953198 0.454059 0.621247
O O3 0.958947 0.265571 0.321056
O O4 0.000000 0.157032 0.250000
O O5 0.133653 0.119081 0.535641
O O6 0.914423 0.060351 0.261323
O O7 0.701483 0.083829 0.848690
O O8 0.672758 0.041919 0.666425
O O9 0.830759 0.925552 0.956554
O O10 0.250000 0.750000 0.000000
O O11 0.281980 0.434804 0.181016
O O12 0.139423 0.278189 0.037304
O O13 0.975475 0.134440 0.858348
O O14 0.000000 0.000000 0.000000
O O15 0.000000 0.184865 0.750000
#
# Coordination Sequence:
#
# PCOD9302136 Si02
#       7
#     4   8   8   8   8   8   8
#     4  12  28  46  66 108 146 184 246 298 362 430
#     4  11  21  42  68 110 129 183 240 288 356 429
#     4  11  25  43  73 100 143 189 241 297 352 441
#     4  12  24  42  73 104 142 183 232 308 363 417
#     4  12  27  47  70 107 145 190 241 301 362 424
#     4  11  23  44  74 102 142 187 240 296 350 432
#     4  11  26  47  71 106 142 193 245 286 364 446
#
# _framework density 20.939264999999999
#
# number of rings (size 3 to 8) (size 9 to 14) (size 15 to 20)
#    0.000    0.615    6.154    2.769    4.308    4.923 
#    0.000    0.000    0.000    0.000    0.000    0.000 
#    0.000    0.000    0.000    0.000    0.000    0.000 
#
# Total GULP energy -145353.333965 kJ/mol
# GULP energy per Si atom -5590.512845 kJ/mol
# Density = 2.089161 g / cm^3
# Si number density = 20.939265 Si / 1000 Ang^3
#
#
#
# Elastic Constant Matrix: (Units=GPa)
#
#
# Indices 1 2 3 4 5 6 
#
# 1 102.8766 20.9406 1.8749 0.0000 -1.9578 0.0000
# 2 20.9406 91.6139 10.6561 0.0000 4.7087 0.0000
# 3 1.8749 10.6561 76.8069 0.0000 -21.0989 0.0000
# 4 0.0000 0.0000 0.0000 32.9860 0.0000 8.7898
# 5 -1.9578 4.7087 -21.0989 0.0000 26.8914 0.0000
# 6 0.0000 0.0000 0.0000 8.7898 0.0000 24.7547
#
#
#
# Elastic Compliance Matrix: (Units=1/GPa)
#
#
# Indices 1 2 3 4 5 6 
#
# 1 0.010247 -0.002487 0.000535 0.000000 0.001601 0.000000
# 2 -0.002487 0.012049 -0.002856 0.000000 -0.004531 0.000000
# 3 0.000535 -0.002856 0.017274 0.000000 0.014092 0.000000
# 4 0.000000 0.000000 0.000000 0.033484 0.000000 -0.011889
# 5 0.001601 -0.004531 0.014092 0.000000 0.049153 0.000000
# 6 0.000000 0.000000 0.000000 -0.011889 0.000000 0.044618
#
#
# Mechanical properties :
#
#
# Convention : Reuss Voigt Hill
#
# Bulk Modulus (GPa) = 33.38408 37.58229 35.48318
# Shear Modulus (GPa) = 26.82035 32.78146 29.80090
#
# Velocity S-wave (km/s) = 3.58280 3.96100 3.77663
# Velocity P-wave (km/s) = 5.75267 6.23751 5.99999
#
# Compressibility (1/GPa) = 0.02995440
#
# Stress axis : x y z
#
# Youngs Moduli (GPa) = 97.58681 82.99554 57.89082
#
# Poissons Ratio (x) = 0.20639 -0.03095
# Poissons Ratio (y) = 0.24267 0.16532
# Poissons Ratio (z) = -0.05217 0.23701
#
# Static dielectric constant tensor:
#      x y z
#    x 1.751470 0.000000 -0.014490 
#    y 0.000000 1.764090 0.000000 
#    z -0.014490 0.000000 1.841260 
# 
# From -- ./inp_files/222480.got.cif
#   From: 2010.05.17/outbox.cif.g08.bks.cpg/sg15_112_cif.got.tgz:222480.got - 2010.06.03 18:47:42.
