data_PCOD9302390
_publ_section_title
;
Structure prediction by ZEFSAII (Michael W. Deem and Ramdas Pophale) SiO2 
 PCOD9302390
Probable space group: C 2/C
;
_chemical_formula_sum "Si O2"
_cell_formula_units_Z 48
_cell_length_a 25.441175
_cell_length_b 15.031001
_cell_length_c 10.602355
_cell_angle_alpha 90.000000
_cell_angle_beta 148.824207
_cell_angle_gamma 90.000000
_cell_volume 2098.827273
_symmetry_space_group_name_H-M "C 2/C"
_symmetry_group_IT_number 15
_symmetry_cell_setting 'monoclinic'
loop_
_space_group_symop_operation_xyz
x,y,z
-x,y,1/2-z
-x,-y,-z
x,-y,1/2+z
1/2+x,1/2+y,z
1/2-x,1/2+y,1/2-z
1/2-x,1/2-y,-z
1/2+x,1/2-y,1/2+z
loop_
_atom_site_type_symbol
_atom_site_label
_atom_site_fract_x
_atom_site_fract_y
_atom_site_fract_z
Si Si1 0.089072 0.922775 0.528819
Si Si2 0.559131 0.192336 0.050542
Si Si3 0.631456 0.759563 0.231058
Si Si4 0.243814 0.621389 0.313010
Si Si5 0.669789 0.820197 0.040825
Si Si6 0.354883 0.391966 0.301881
O O1 0.092028 0.841666 0.632390
O O2 0.199818 0.922378 0.688853
O O3 0.072041 0.024481 0.531577
O O4 0.000000 0.896850 0.250000
O O5 0.623781 0.128122 0.092337
O O6 0.597284 0.169063 0.271162
O O7 0.593193 0.294898 0.095323
O O8 0.437661 0.193567 0.806007
O O9 0.750000 0.750000 0.500000
O O10 0.621201 0.813574 0.078466
O O11 0.281446 0.722955 0.378359
O O12 0.297162 0.589899 0.551437
O O13 0.766109 0.884706 0.224599
#
# Coordination Sequence:
#
# PCOD9302390 Si02
#       6
#     8   8   8   8   8   8
#     4  11  22  35  54  84 119 142 170 231 296 334
#     4   9  17  35  59  78 104 146 189 222 268 331
#     4  11  22  34  53  80 110 145 189 233 268 320
#     4   8  17  34  53  75 107 145 180 214 261 330
#     4   8  16  34  55  77 105 144 184 215 262 332
#     4   9  18  32  57  84 105 136 177 224 281 337
#
# _framework density 22.869914999999999
#
# number of rings (size 3 to 8) (size 9 to 14) (size 15 to 20)
#    0.000    2.667    0.000    5.500    0.000    5.333 
#    0.000    6.667    0.000   13.000    0.000    0.000 
#    0.000    0.000    0.000    0.000    0.000    0.000 
#
# Total GULP energy -133851.894884 kJ/mol
# GULP energy per Si atom -5577.162287 kJ/mol
# Density = 2.281786 g / cm^3
# Si number density = 22.869915 Si / 1000 Ang^3
#
#
#
# Elastic Constant Matrix: (Units=GPa)
#
#
# Indices 1 2 3 4 5 6 
#
# 1 105.6465 -3.6267 21.2326 0.0000 33.6754 0.0000
# 2 -3.6267 37.3573 6.7248 0.0000 -2.8978 0.0000
# 3 21.2326 6.7248 77.7083 0.0000 22.9643 0.0000
# 4 0.0000 0.0000 0.0000 23.3145 0.0000 -3.2618
# 5 33.6754 -2.8978 22.9643 0.0000 42.1781 0.0000
# 6 0.0000 0.0000 0.0000 -3.2618 0.0000 -0.1878
#
#
#
# Elastic Compliance Matrix: (Units=1/GPa)
#
#
# Indices 1 2 3 4 5 6 
#
# 1 0.012730 0.000593 -0.000641 0.000000 -0.009774 0.000000
# 2 0.000593 0.027728 -0.003557 0.000000 0.003368 0.000000
# 3 -0.000641 -0.003557 0.015818 0.000000 -0.008344 0.000000
# 4 0.000000 0.000000 0.000000 0.012505 0.000000 -0.217192
# 5 -0.009774 0.003368 -0.008344 0.000000 0.036287 0.000000
# 6 0.000000 0.000000 0.000000 -0.217192 0.000000 -1.552432
#
#
# Mechanical properties :
#
#
# Convention : Reuss Voigt Hill
#
# Bulk Modulus (GPa) = 20.38090 29.93040 25.15565
# Shear Modulus (GPa) = -3.51173 26.15307 11.32067
#
# Velocity S-wave (km/s) = -1.24051 3.38532 2.22728
# Velocity P-wave (km/s) = 2.62282 5.32881 4.19973
#
# Compressibility (1/GPa) = 0.04906554
#
# Stress axis : x y z
#
# Youngs Moduli (GPa) = 78.55266 36.06512 63.22069
#
# Poissons Ratio (x) = -0.02139 0.04054
# Poissons Ratio (y) = -0.04659 0.22487
# Poissons Ratio (z) = 0.05037 0.12828
#
# Static dielectric constant tensor:
#      x y z
#    x 1.973270 0.000000 -0.020090 
#    y 0.000000 1.837840 0.000000 
#    z -0.020090 0.000000 1.928490 
# 
# From -- ./inp_files/96331.got.cif
#   From: 2010.05.17/outbox.cif.g08.bks.cpg/sg15_49_cif.got.tgz:96331.got - 2010.06.03 18:47:42.
