data_PCOD9302131
_publ_section_title
;
Structure prediction by ZEFSAII (Michael W. Deem and Ramdas Pophale) SiO2 
 PCOD9302131
Probable space group: C 2/C
;
_chemical_formula_sum "Si O2"
_cell_formula_units_Z 48
_cell_length_a 25.057497
_cell_length_b 5.737510
_cell_length_c 16.954083
_cell_angle_alpha 90.000000
_cell_angle_beta 107.688794
_cell_angle_gamma 90.000000
_cell_volume 2322.208188
_symmetry_space_group_name_H-M "C 2/C"
_symmetry_group_IT_number 15
_symmetry_cell_setting 'monoclinic'
loop_
_space_group_symop_operation_xyz
x,y,z
-x,y,1/2-z
-x,-y,-z
x,-y,1/2+z
1/2+x,1/2+y,z
1/2-x,1/2+y,1/2-z
1/2-x,1/2-y,-z
1/2+x,1/2-y,1/2+z
loop_
_atom_site_type_symbol
_atom_site_label
_atom_site_fract_x
_atom_site_fract_y
_atom_site_fract_z
Si Si1 0.106638 0.671698 0.649893
Si Si2 0.603510 0.944394 0.474819
Si Si3 0.725072 0.975736 0.269444
Si Si4 0.507714 0.926760 0.665442
Si Si5 0.939904 0.087595 0.939304
Si Si6 0.274673 0.999989 0.541776
O O1 0.099173 0.573079 0.557454
O O2 0.160779 0.562186 0.713387
O O3 0.051513 0.640331 0.679326
O O4 0.106657 0.941473 0.628819
O O5 0.592412 0.682125 0.498583
O O6 0.661369 0.993185 0.459072
O O7 0.551995 0.013174 0.397280
O O8 0.746202 0.226919 0.244059
O O9 0.729799 0.996287 0.365752
O O10 0.500000 0.840189 0.750000
O O11 0.538165 0.757953 0.618540
O O12 0.000000 0.000000 0.000000
O O13 0.250000 0.250000 0.500000
O O14 0.250000 0.750000 0.500000
#
# Coordination Sequence:
#
# PCOD9302131 Si02
#       6
#     8   8   8   8   8   8
#     4  11  23  43  70  96 140 183 232 295 362 431
#     4  11  23  42  70  98 140 182 236 296 363 437
#     4  12  28  50  74 108 145 193 250 305 368 438
#     4  11  23  40  63 103 140 177 232 291 364 435
#     4  11  21  42  68 100 135 186 234 290 366 439
#     4  12  28  50  74 108 145 194 251 308 372 439
#
# _framework density 20.669981
#
# number of rings (size 3 to 8) (size 9 to 14) (size 15 to 20)
#    0.000    0.667    3.333    5.000    9.333    0.667 
#    6.000    0.000    0.000    0.000    0.000    0.000 
#    0.000    0.000    0.000    0.000    0.000    0.000 
#
# Total GULP energy -133702.576779 kJ/mol
# GULP energy per Si atom -5570.940699 kJ/mol
# Density = 2.062294 g / cm^3
# Si number density = 20.669981 Si / 1000 Ang^3
#
#
#
# Elastic Constant Matrix: (Units=GPa)
#
#
# Indices 1 2 3 4 5 6 
#
# 1 156.7262 57.5428 61.8887 0.0000 -3.3227 0.0000
# 2 57.5428 100.7159 57.2769 0.0000 -3.7734 0.0000
# 3 61.8887 57.2769 155.5639 0.0000 -12.1222 0.0000
# 4 0.0000 0.0000 0.0000 39.9776 0.0000 2.3111
# 5 -3.3227 -3.7734 -12.1222 0.0000 42.9384 0.0000
# 6 0.0000 0.0000 0.0000 2.3111 0.0000 32.9504
#
#
#
# Elastic Compliance Matrix: (Units=1/GPa)
#
#
# Indices 1 2 3 4 5 6 
#
# 1 0.008554 -0.003732 -0.002048 0.000000 -0.000244 0.000000
# 2 -0.003732 0.014188 -0.003747 0.000000 -0.000100 0.000000
# 3 -0.002048 -0.003747 0.008778 0.000000 0.001990 0.000000
# 4 0.000000 0.000000 0.000000 0.025116 0.000000 -0.001762
# 5 -0.000244 -0.000100 0.001990 0.000000 0.023823 0.000000
# 6 0.000000 0.000000 0.000000 -0.001762 0.000000 0.030472
#
#
# Mechanical properties :
#
#
# Convention : Reuss Voigt Hill
#
# Bulk Modulus (GPa) = 80.21693 85.15809 82.68751
# Shear Modulus (GPa) = 37.27409 38.92645 38.10027
#
# Velocity S-wave (km/s) = 4.25113 4.34433 4.29798
# Velocity P-wave (km/s) = 7.93655 8.15185 8.04492
#
# Compressibility (1/GPa) = 0.01246620
#
# Stress axis : x y z
#
# Youngs Moduli (GPa) = 116.89993 70.48095 113.92327
#
# Poissons Ratio (x) = 0.26302 0.23334
# Poissons Ratio (y) = 0.43624 0.42688
# Poissons Ratio (z) = 0.23944 0.26410
#
# Static dielectric constant tensor:
#      x y z
#    x 1.671490 0.000000 -0.013600 
#    y 0.000000 2.029060 0.000000 
#    z -0.013600 0.000000 1.680100 
# 
# From -- ./inp_files/217572.got.cif
#   From: 2010.05.17/outbox.cif.g08.bks.cpg/sg15_109_cif.got.tgz:217572.got - 2010.06.03 18:47:42.
