data_PCOD9302827
_publ_section_title
;
Structure prediction by ZEFSAII (Michael W. Deem and Ramdas Pophale) SiO2 
 PCOD9302827
Probable space group: C 2/C
;
_chemical_formula_sum "Si O2"
_cell_formula_units_Z 52
_cell_length_a 7.696905
_cell_length_b 28.298349
_cell_length_c 11.438778
_cell_angle_alpha 90.000000
_cell_angle_beta 108.072181
_cell_angle_gamma 90.000000
_cell_volume 2368.563485
_symmetry_space_group_name_H-M "C 2/C"
_symmetry_group_IT_number 15
_symmetry_cell_setting 'monoclinic'
loop_
_space_group_symop_operation_xyz
x,y,z
-x,y,1/2-z
-x,-y,-z
x,-y,1/2+z
1/2+x,1/2+y,z
1/2-x,1/2+y,1/2-z
1/2-x,1/2-y,-z
1/2+x,1/2-y,1/2+z
loop_
_atom_site_type_symbol
_atom_site_label
_atom_site_fract_x
_atom_site_fract_y
_atom_site_fract_z
Si Si1 0.205857 0.495684 0.781119
Si Si2 0.799458 0.475985 0.467407
Si Si3 0.705168 0.775057 0.324612
Si Si4 0.799773 0.891465 0.750288
Si Si5 0.111308 0.318662 0.538686
Si Si6 0.763352 0.133042 0.502795
Si Si7 0.000000 0.829059 0.250000
O O1 0.289368 0.516291 0.678932
O O2 0.193772 0.439953 0.749742
O O3 0.000000 0.515811 0.750000
O O4 0.285556 0.497759 0.929946
O O5 0.809498 0.419891 0.488571
O O6 0.000000 0.500000 0.500000
O O7 0.500000 0.758550 0.250000
O O8 0.824173 0.731478 0.396552
O O9 0.672545 0.814695 0.417319
O O10 0.825968 0.797765 0.249048
O O11 0.708326 0.859113 0.633921
O O12 0.811328 0.864407 0.876037
O O13 0.000000 0.904922 0.750000
O O14 0.897915 0.329867 0.505961
O O15 0.933424 0.141755 0.623700
#
# Coordination Sequence:
#
# PCOD9302827 Si02
#       7
#     8   8   8   8   8   8   4
#     4   9  18  37  60  92 128 171 225 275 341 408
#     4   9  18  38  63  97 129 174 226 280 339 416
#     4  11  25  46  67 102 141 174 231 284 351 419
#     4  11  22  40  65  99 133 176 235 286 338 414
#     4  11  23  44  70  97 130 181 230 283 342 414
#     4  11  24  44  70  99 139 181 232 281 349 414
#     4  12  26  46  66 102 144 180 224 288 346 412
#
# _framework density 21.954236999999999
#
# number of rings (size 3 to 8) (size 9 to 14) (size 15 to 20)
#    0.000    1.538    1.538    4.615    2.154    1.846 
#   15.231    1.538    0.000    0.000    0.000    0.000 
#    0.000    0.000    0.000    0.000    0.000    0.000 
#
# Total GULP energy -145121.448405 kJ/mol
# GULP energy per Si atom -5581.594169 kJ/mol
# Density = 2.190427 g / cm^3
# Si number density = 21.954237 Si / 1000 Ang^3
#
#
#
# Elastic Constant Matrix: (Units=GPa)
#
#
# Indices 1 2 3 4 5 6 
#
# 1 99.2862 23.7009 46.3601 0.0000 2.5012 0.0000
# 2 23.7009 35.0106 15.5330 0.0000 -2.6730 0.0000
# 3 46.3601 15.5330 127.4828 0.0000 -18.0765 0.0000
# 4 0.0000 0.0000 0.0000 19.6895 0.0000 -26.4520
# 5 2.5012 -2.6730 -18.0765 0.0000 44.0298 0.0000
# 6 0.0000 0.0000 0.0000 -26.4520 0.0000 -19.1765
#
#
#
# Elastic Compliance Matrix: (Units=1/GPa)
#
#
# Indices 1 2 3 4 5 6 
#
# 1 0.014187 -0.007779 -0.004664 0.000000 -0.003193 0.000000
# 2 -0.007779 0.034465 -0.001074 0.000000 0.002093 0.000000
# 3 -0.004664 -0.001074 0.010299 0.000000 0.004428 0.000000
# 4 0.000000 0.000000 0.000000 0.017801 0.000000 -0.024554
# 5 -0.003193 0.002093 0.004428 0.000000 0.024838 0.000000
# 6 0.000000 0.000000 0.000000 -0.024554 0.000000 -0.018277
#
#
# Mechanical properties :
#
#
# Convention : Reuss Voigt Hill
#
# Bulk Modulus (GPa) = 31.33046 48.10753 39.71900
# Shear Modulus (GPa) = 41.32733 20.65427 30.99080
#
# Velocity S-wave (km/s) = 4.34341 3.07055 3.76121
# Velocity P-wave (km/s) = 6.28135 5.87633 6.08221
#
# Compressibility (1/GPa) = 0.03191782
#
# Stress axis : x y z
#
# Youngs Moduli (GPa) = 70.48682 29.01517 97.09599
#
# Poissons Ratio (x) = 0.22570 0.45288
# Poissons Ratio (y) = 0.54828 0.10426
# Poissons Ratio (z) = 0.32877 0.03116
#
# Static dielectric constant tensor:
#      x y z
#    x 1.873520 0.000000 0.198050 
#    y 0.000000 1.756850 0.000000 
#    z 0.198050 0.000000 2.420580 
# 
# From -- ./inp_files/80878.got.cif
#   From: 2010.05.17/outbox.cif.g08.bks.cpg/sg15_41_cif.got.tgz:80878.got - 2010.06.03 18:47:42.
