data_PCOD9302871
_publ_section_title
;
Structure prediction by ZEFSAII (Michael W. Deem and Ramdas Pophale) SiO2 
 PCOD9302871
Probable space group: C 2/C
;
_chemical_formula_sum "Si O2"
_cell_formula_units_Z 64
_cell_length_a 17.083521
_cell_length_b 23.388284
_cell_length_c 20.002883
_cell_angle_alpha 90.000000
_cell_angle_beta 159.263124
_cell_angle_gamma 90.000000
_cell_volume 2829.865842
_symmetry_space_group_name_H-M "C 2/C"
_symmetry_group_IT_number 15
_symmetry_cell_setting 'monoclinic'
loop_
_space_group_symop_operation_xyz
x,y,z
-x,y,1/2-z
-x,-y,-z
x,-y,1/2+z
1/2+x,1/2+y,z
1/2-x,1/2+y,1/2-z
1/2-x,1/2-y,-z
1/2+x,1/2-y,1/2+z
loop_
_atom_site_type_symbol
_atom_site_label
_atom_site_fract_x
_atom_site_fract_y
_atom_site_fract_z
Si Si1 0.287915 0.450680 0.128305
Si Si2 0.182378 0.825196 0.293143
Si Si3 0.557306 0.179967 0.636258
Si Si4 0.442245 0.703095 0.279464
Si Si5 0.291157 0.795495 0.630038
Si Si6 0.506639 0.496991 0.424969
Si Si7 0.728711 0.110115 0.896915
Si Si8 0.892195 0.587827 0.235867
O O1 0.500000 0.465030 0.250000
O O2 0.286327 0.382679 0.140703
O O3 0.306837 0.483846 0.213963
O O4 0.051175 0.455391 0.902846
O O5 0.295140 0.828968 0.311019
O O6 0.275131 0.765727 0.394958
O O7 0.919573 0.817266 0.078419
O O8 0.571650 0.243271 0.681246
O O9 0.297074 0.172865 0.413215
O O10 0.653221 0.136320 0.766524
O O11 0.500000 0.723259 0.250000
O O12 0.631953 0.659016 0.453388
O O13 0.500000 0.785027 0.750000
O O14 0.348688 0.847459 0.727078
O O15 0.500000 0.500000 0.500000
O O16 0.620476 0.554911 0.491362
O O17 0.662776 0.442564 0.538894
O O18 0.500000 0.095024 0.750000
O O19 0.000000 0.597192 0.250000
#
# Coordination Sequence:
#
# PCOD9302871 Si02
#       8
#     8   8   8   8   8   8   8   8
#     4  12  24  46  76  99 141 194 239 294 364 437
#     4  12  24  41  66 112 147 186 246 297 364 442
#     4  12  25  43  71 105 150 186 229 305 369 430
#     4  12  24  45  72 103 143 190 240 291 373 441
#     4  11  22  40  68 101 147 191 240 296 355 439
#     4  12  28  48  73 104 146 185 239 311 369 429
#     4  12  27  46  75 104 138 189 244 296 356 447
#     4  11  23  46  72 100 138 190 239 294 359 429
#
# _framework density 22.615912999999999
#
# number of rings (size 3 to 8) (size 9 to 14) (size 15 to 20)
#    0.000    0.250    5.000    4.875    0.000    3.000 
#    0.000    0.000    0.000    0.000    0.000    0.000 
#    0.000    0.000    0.000    0.000    0.000    0.000 
#
# Total GULP energy -178992.841909 kJ/mol
# GULP energy per Si atom -5593.526310 kJ/mol
# Density = 2.256444 g / cm^3
# Si number density = 22.615913 Si / 1000 Ang^3
#
#
#
# Elastic Constant Matrix: (Units=GPa)
#
#
# Indices 1 2 3 4 5 6 
#
# 1 64.0013 -1.7289 -20.6787 -0.1703 -1.7541 -0.1831
# 2 -1.7289 79.7889 -3.5781 0.2418 -5.7222 0.2676
# 3 -20.6787 -3.5781 77.4119 0.2433 -12.4428 0.4583
# 4 -0.1703 0.2418 0.2433 31.3268 0.0358 11.2901
# 5 -1.7541 -5.7222 -12.4428 0.0358 26.0759 0.1308
# 6 -0.1831 0.2676 0.4583 11.2901 0.1308 65.4490
#
#
#
# Elastic Compliance Matrix: (Units=1/GPa)
#
#
# Indices 1 2 3 4 5 6 
#
# 1 0.017483 0.000900 0.005342 0.000045 0.003923 -0.000008
# 2 0.000900 0.012871 0.001408 -0.000091 0.003557 -0.000051
# 3 0.005342 0.001408 0.015724 -0.000076 0.008172 -0.000104
# 4 0.000045 -0.000091 -0.000076 0.034039 -0.000070 -0.005871
# 5 0.003923 0.003557 0.008172 -0.000070 0.043294 -0.000135
# 6 -0.000008 -0.000051 -0.000104 -0.005871 -0.000135 0.016293
#
#
# Mechanical properties :
#
#
# Convention : Reuss Voigt Hill
#
# Bulk Modulus (GPa) = 16.29285 18.80339 17.54812
# Shear Modulus (GPa) = 34.51492 41.04953 37.78223
#
# Velocity S-wave (km/s) = 3.91081 4.26499 4.09174
# Velocity P-wave (km/s) = 5.25475 5.70840 5.48627
#
# Compressibility (1/GPa) = 0.06137660
#
# Stress axis : x y z
#
# Youngs Moduli (GPa) = 57.19978 77.69257 63.59550
#
# Poissons Ratio (x) = -0.06989 -0.33973
# Poissons Ratio (y) = -0.05146 -0.08952
# Poissons Ratio (z) = -0.30556 -0.10936
#
# Static dielectric constant tensor:
#      x y z
#    x 1.635340 0.000160 0.050440 
#    y 0.000160 1.865830 -0.000110 
#    z 0.050440 -0.000110 1.832170 
# 
# From -- ./inp_files/250280.got.cif
#   From: 2010.05.17/outbox.cif.g08.bks.cpg/sg15_126_cif.got.tgz:250280.got - 2010.06.03 18:47:42.
