data_PCOD9302397
_publ_section_title
;
Structure prediction by ZEFSAII (Michael W. Deem and Ramdas Pophale) SiO2 
 PCOD9302397
Probable space group: C 2/C
;
_chemical_formula_sum "Si O2"
_cell_formula_units_Z 56
_cell_length_a 24.591101
_cell_length_b 12.408796
_cell_length_c 20.314374
_cell_angle_alpha 90.000000
_cell_angle_beta 156.861399
_cell_angle_gamma 90.000000
_cell_volume 2435.879427
_symmetry_space_group_name_H-M "C 2/C"
_symmetry_group_IT_number 15
_symmetry_cell_setting 'monoclinic'
loop_
_space_group_symop_operation_xyz
x,y,z
-x,y,1/2-z
-x,-y,-z
x,-y,1/2+z
1/2+x,1/2+y,z
1/2-x,1/2+y,1/2-z
1/2-x,1/2-y,-z
1/2+x,1/2-y,1/2+z
loop_
_atom_site_type_symbol
_atom_site_label
_atom_site_fract_x
_atom_site_fract_y
_atom_site_fract_z
Si Si1 0.923740 0.663803 0.018620
Si Si2 0.736402 0.206731 0.143306
Si Si3 0.179084 0.990896 0.264890
Si Si4 0.617771 0.418934 0.548273
Si Si5 0.164499 0.156770 0.444293
Si Si6 0.651036 0.015596 0.299478
Si Si7 0.991846 0.658527 0.948998
O O1 0.777198 0.612574 0.874993
O O2 0.912308 0.791424 0.995545
O O3 0.960829 0.617756 0.986979
O O4 0.049065 0.615304 0.202063
O O5 0.892869 0.239870 0.329284
O O6 0.740846 0.091195 0.113996
O O7 0.671855 0.299181 0.027437
O O8 0.646992 0.196327 0.109705
O O9 0.156018 0.031772 0.163208
O O10 0.030923 0.972457 0.131698
O O11 0.739320 0.449083 0.633962
O O12 0.250000 0.250000 0.500000
O O13 0.254614 0.047035 0.542283
O O14 0.000000 0.146190 0.250000
O O15 0.552383 0.924389 0.156789
#
# Coordination Sequence:
#
# PCOD9302397 Si02
#       7
#     8   8   8   8   8   8   8
#     4  12  22  38  59  92 137 179 212 244 308 398
#     4  11  23  38  62  92 128 167 209 265 321 380
#     4  11  23  37  58  91 134 175 213 252 303 390
#     4  11  24  35  59  95 131 176 212 250 311 390
#     4  11  26  45  70  97 119 159 218 281 334 378
#     4  11  23  40  61  89 129 169 209 269 326 368
#     4  11  22  34  60  92 136 171 208 247 317 388
#
# _framework density 22.989643000000001
#
# number of rings (size 3 to 8) (size 9 to 14) (size 15 to 20)
#    0.000    0.857    4.286    3.857    8.000    0.000 
#    0.000    0.000    0.000    0.857    0.000    0.000 
#    0.000    0.000    0.000    0.000    0.000    0.000 
#
# Total GULP energy -156400.557666 kJ/mol
# GULP energy per Si atom -5585.734202 kJ/mol
# Density = 2.293732 g / cm^3
# Si number density = 22.989643 Si / 1000 Ang^3
#
#
#
# Elastic Constant Matrix: (Units=GPa)
#
#
# Indices 1 2 3 4 5 6 
#
# 1 30.6615 3.0818 23.4508 0.0000 22.1415 0.0000
# 2 3.0818 97.7836 40.2851 -0.0002 11.7023 0.0000
# 3 23.4508 40.2851 113.6455 0.0000 35.5978 0.0001
# 4 0.0000 -0.0002 0.0000 43.6233 0.0000 11.2951
# 5 22.1415 11.7023 35.5978 0.0000 38.3710 0.0001
# 6 0.0000 0.0000 0.0001 11.2951 0.0001 24.2951
#
#
#
# Elastic Compliance Matrix: (Units=1/GPa)
#
#
# Indices 1 2 3 4 5 6 
#
# 1 0.057105 0.003238 -0.003243 0.000000 -0.030930 0.000000
# 2 0.003238 0.012164 -0.004557 0.000000 -0.001350 0.000000
# 3 -0.003243 -0.004557 0.014184 0.000000 -0.009898 0.000000
# 4 0.000000 0.000000 0.000000 0.026061 0.000000 -0.012116
# 5 -0.030930 -0.001350 -0.009898 0.000000 0.053504 0.000000
# 6 0.000000 0.000000 0.000000 -0.012116 0.000000 0.046793
#
#
# Mechanical properties :
#
#
# Convention : Reuss Voigt Hill
#
# Bulk Modulus (GPa) = 13.45375 41.74735 27.60055
# Shear Modulus (GPa) = 20.51616 32.94275 26.72946
#
# Velocity S-wave (km/s) = 2.99056 3.78952 3.41350
# Velocity P-wave (km/s) = 4.21775 6.11113 5.25049
#
# Compressibility (1/GPa) = 0.07432873
#
# Stress axis : x y z
#
# Youngs Moduli (GPa) = 17.51171 82.21256 70.50093
#
# Poissons Ratio (x) = -0.26619 0.22862
# Poissons Ratio (y) = -0.05670 0.32126
# Poissons Ratio (z) = 0.05679 0.37463
#
# Static dielectric constant tensor:
#      x y z
#    x 1.874600 0.000000 -0.058730 
#    y 0.000000 1.905640 0.000000 
#    z -0.058730 0.000000 1.896950 
# 
# From -- ./inp_files/284629.got.cif
#   From: 2010.05.17/outbox.cif.g08.bks.cpg/sg15_143_cif.got.tgz:284629.got - 2010.06.03 18:47:42.
