data_PCOD9302566
_publ_section_title
;
Structure prediction by ZEFSAII (Michael W. Deem and Ramdas Pophale) SiO2 
 PCOD9302566
Probable space group: C 2/C
;
_chemical_formula_sum "Si O2"
_cell_formula_units_Z 56
_cell_length_a 9.556740
_cell_length_b 24.827522
_cell_length_c 13.472872
_cell_angle_alpha 90.000000
_cell_angle_beta 58.378372
_cell_angle_gamma 90.000000
_cell_volume 2722.092089
_symmetry_space_group_name_H-M "C 2/C"
_symmetry_group_IT_number 15
_symmetry_cell_setting 'monoclinic'
loop_
_space_group_symop_operation_xyz
x,y,z
-x,y,1/2-z
-x,-y,-z
x,-y,1/2+z
1/2+x,1/2+y,z
1/2-x,1/2+y,1/2-z
1/2-x,1/2-y,-z
1/2+x,1/2-y,1/2+z
loop_
_atom_site_type_symbol
_atom_site_label
_atom_site_fract_x
_atom_site_fract_y
_atom_site_fract_z
Si Si1 0.978329 0.148457 0.140896
Si Si2 0.325347 0.884637 0.869003
Si Si3 0.558759 0.764356 0.109001
Si Si4 0.183302 0.040815 0.712091
Si Si5 0.177579 0.496869 0.139732
Si Si6 0.269086 0.068964 0.062996
Si Si7 0.921440 0.366494 0.037617
O O1 0.810073 0.126163 0.163360
O O2 0.000000 0.154985 0.250000
O O3 0.981510 0.208805 0.099285
O O4 0.124092 0.105690 0.071815
O O5 0.500000 0.879853 0.750000
O O6 0.330006 0.850760 0.969187
O O7 0.276158 0.945307 0.920976
O O8 0.500000 0.769874 0.250000
O O9 0.750000 0.750000 0.000000
O O10 0.485663 0.816984 0.081219
O O11 0.203623 0.026635 0.820792
O O12 0.308147 0.088997 0.635707
O O13 0.000000 0.057147 0.750000
O O14 0.215670 0.982355 0.647889
O O15 0.000000 0.506724 0.250000
O O16 0.149018 0.455624 0.063827
O O17 0.410971 0.103753 0.060550
#
# Coordination Sequence:
#
# PCOD9302566 Si02
#       7
#     8   8   8   8   8   8   8
#     4  11  24  45  73 100 131 186 247 295 353 434
#     4  11  24  41  68 103 143 180 229 302 366 430
#     4  11  27  51  79 106 138 193 258 309 364 439
#     4  12  26  40  62 103 150 184 231 291 366 448
#     4  11  22  38  63  96 136 186 227 273 353 438
#     4  12  22  42  69  95 138 186 237 282 351 436
#     4  12  25  45  69 103 144 187 240 306 371 430
#
# _framework density 20.572412
#
# number of rings (size 3 to 8) (size 9 to 14) (size 15 to 20)
#    0.000    0.571    4.286    5.143    6.000    1.714 
#    0.000    0.714    0.000    0.000    0.000    0.000 
#    0.000    0.000    0.000    0.000    0.000    0.000 
#
# Total GULP energy -155922.715491 kJ/mol
# GULP energy per Si atom -5568.668410 kJ/mol
# Density = 2.052559 g / cm^3
# Si number density = 20.572412 Si / 1000 Ang^3
#
#
#
# Elastic Constant Matrix: (Units=GPa)
#
#
# Indices 1 2 3 4 5 6 
#
# 1 111.0117 20.8068 10.8362 0.0000 -3.8575 0.0000
# 2 20.8068 109.0579 20.5055 0.0000 -8.5138 0.0000
# 3 10.8362 20.5055 56.6808 0.0000 6.9361 0.0000
# 4 0.0000 0.0000 0.0000 3.2412 0.0000 -6.3922
# 5 -3.8575 -8.5138 6.9361 0.0000 37.5288 0.0000
# 6 0.0000 0.0000 0.0000 -6.3922 0.0000 -3.1525
#
#
#
# Elastic Compliance Matrix: (Units=1/GPa)
#
#
# Indices 1 2 3 4 5 6 
#
# 1 0.009450 -0.001473 -0.001383 0.000000 0.000893 0.000000
# 2 -0.001473 0.010400 -0.003838 0.000000 0.002917 0.000000
# 3 -0.001383 -0.003838 0.019869 0.000000 -0.004685 0.000000
# 4 0.000000 0.000000 0.000000 0.061719 0.000000 -0.125145
# 5 0.000893 0.002917 -0.004685 0.000000 0.028266 0.000000
# 6 0.000000 0.000000 0.000000 -0.125145 0.000000 -0.063456
#
#
# Mechanical properties :
#
#
# Convention : Reuss Voigt Hill
#
# Bulk Modulus (GPa) = 37.97808 42.33860 40.15834
# Shear Modulus (GPa) = 56.55365 22.49698 39.52531
#
# Velocity S-wave (km/s) = 5.24878 3.31048 4.38799
# Velocity P-wave (km/s) = 7.43194 5.93610 6.72573
#
# Compressibility (1/GPa) = 0.02633098
#
# Stress axis : x y z
#
# Youngs Moduli (GPa) = 105.81783 96.15546 50.33040
#
# Poissons Ratio (x) = 0.14166 0.06960
# Poissons Ratio (y) = 0.15590 0.19315
# Poissons Ratio (z) = 0.14634 0.36901
#
# Static dielectric constant tensor:
#      x y z
#    x 1.734240 0.000000 -0.021280 
#    y 0.000000 1.880750 0.000000 
#    z -0.021280 0.000000 1.716060 
# 
# From -- ./inp_files/137724.got.cif
#   From: 2010.05.17/outbox.cif.g08.bks.cpg/sg15_69_cif.got.tgz:137724.got - 2010.06.03 18:47:42.
