data_PCOD9302493
_publ_section_title
;
Structure prediction by ZEFSAII (Michael W. Deem and Ramdas Pophale) SiO2 
 PCOD9302493
Probable space group: C 2/C
;
_chemical_formula_sum "Si O2"
_cell_formula_units_Z 32
_cell_length_a 8.833202
_cell_length_b 35.681829
_cell_length_c 5.154019
_cell_angle_alpha 90.000000
_cell_angle_beta 94.719180
_cell_angle_gamma 90.000000
_cell_volume 1618.961357
_symmetry_space_group_name_H-M "C 2/C"
_symmetry_group_IT_number 15
_symmetry_cell_setting 'monoclinic'
loop_
_space_group_symop_operation_xyz
x,y,z
-x,y,1/2-z
-x,-y,-z
x,-y,1/2+z
1/2+x,1/2+y,z
1/2-x,1/2+y,1/2-z
1/2-x,1/2-y,-z
1/2+x,1/2-y,1/2+z
loop_
_atom_site_type_symbol
_atom_site_label
_atom_site_fract_x
_atom_site_fract_y
_atom_site_fract_z
Si Si1 0.185239 0.022258 0.786279
Si Si2 0.681826 0.392115 0.276933
Si Si3 0.830512 0.359160 0.787918
Si Si4 0.101239 0.274648 0.524873
O O1 0.229989 0.065081 0.842619
O O2 0.000000 0.022154 0.750000
O O3 0.235824 0.005560 0.519812
O O4 0.500000 0.390837 0.250000
O O5 0.740089 0.364541 0.508801
O O6 0.749110 0.380947 0.008654
O O7 0.000000 0.373305 0.750000
O O8 0.847961 0.316278 0.881777
O O9 0.250000 0.250000 0.500000
O O10 0.000000 0.276583 0.250000
O O11 0.000000 0.259510 0.750000
#
# Coordination Sequence:
#
# PCOD9302493 Si02
#       4
#     8   8   8   8
#     4   9  17  31  53  82 115 148 189 247 302 340
#     4  11  22  37  62  92 116 152 208 253 287 344
#     4  11  23  41  60  85 124 163 191 234 305 365
#     4  11  24  43  65  91 121 158 200 242 295 354
#
# _framework density 19.76576
#
# number of rings (size 3 to 8) (size 9 to 14) (size 15 to 20)
#    0.000    1.500    0.000    6.750    0.000    7.000 
#    0.000    0.000    0.000   15.000    0.000    0.000 
#    0.000    0.000    0.000    0.000    0.000    0.000 
#
# Total GULP energy -89408.584483 kJ/mol
# GULP energy per Si atom -5588.036530 kJ/mol
# Density = 1.972077 g / cm^3
# Si number density = 19.765760 Si / 1000 Ang^3
#
#
#
# Elastic Constant Matrix: (Units=GPa)
#
#
# Indices 1 2 3 4 5 6 
#
# 1 81.0922 -5.7690 -5.1458 0.0000 -33.4904 0.0000
# 2 -5.7690 -114.2192 -145.1343 0.0000 -69.6971 0.0000
# 3 -5.1458 -145.1343 -29.5080 0.0000 -70.4071 0.0000
# 4 0.0000 0.0000 0.0000 10.2763 0.0000 11.8256
# 5 -33.4904 -69.6971 -70.4071 0.0000 17.7876 0.0000
# 6 0.0000 0.0000 0.0000 11.8256 0.0000 -8.3964
#
#
#
# Elastic Compliance Matrix: (Units=1/GPa)
#
#
# Indices 1 2 3 4 5 6 
#
# 1 0.015232 -0.004146 -0.001142 0.000000 0.007912 0.000000
# 2 -0.004146 0.006453 -0.006963 0.000000 -0.010081 0.000000
# 3 -0.001142 -0.006963 0.006777 0.000000 -0.002607 0.000000
# 4 0.000000 0.000000 0.000000 0.037131 0.000000 0.052296
# 5 0.007912 -0.010081 -0.002607 0.000000 0.021295 0.000000
# 6 0.000000 0.000000 0.000000 0.052296 0.000000 -0.045444
#
#
# Mechanical properties :
#
#
# Convention : Reuss Voigt Hill
#
# Bulk Modulus (GPa) = 252.51593 -41.63703 105.43945
# Shear Modulus (GPa) = 74.33195 10.16109 42.24652
#
# Velocity S-wave (km/s) = 6.13906 2.26978 4.62817
# Velocity P-wave (km/s) = 13.35224 3.77382 9.05651
#
# Compressibility (1/GPa) = 0.00396015
#
# Stress axis : x y z
#
# Youngs Moduli (GPa) = 65.65204 154.96392 147.55639
#
# Poissons Ratio (x) = 0.64250 0.16852
# Poissons Ratio (y) = 0.27220 1.02740
# Poissons Ratio (z) = 0.07498 1.07897
#
# Static dielectric constant tensor:
#      x y z
#    x 1.640740 0.000000 -0.003010 
#    y 0.000000 1.698540 0.000000 
#    z -0.003010 0.000000 1.669980 
# 
# From -- ./inp_files/2365.got.cif
#   From: 2010.05.17/outbox.cif.g08.bks.cpg/sg15_2_cif.got.tgz:2365.got - 2010.06.03 18:47:42.
