data_PCOD9302008
_publ_section_title
;
Structure prediction by ZEFSAII (Michael W. Deem and Ramdas Pophale) SiO2 
 PCOD9302008
Probable space group: C 2/C
;
_chemical_formula_sum "Si O2"
_cell_formula_units_Z 48
_cell_length_a 6.040711
_cell_length_b 28.006529
_cell_length_c 13.843701
_cell_angle_alpha 90.000000
_cell_angle_beta 107.025312
_cell_angle_gamma 90.000000
_cell_volume 2239.428332
_symmetry_space_group_name_H-M "C 2/C"
_symmetry_group_IT_number 15
_symmetry_cell_setting 'monoclinic'
loop_
_space_group_symop_operation_xyz
x,y,z
-x,y,1/2-z
-x,-y,-z
x,-y,1/2+z
1/2+x,1/2+y,z
1/2-x,1/2+y,1/2-z
1/2-x,1/2-y,-z
1/2+x,1/2-y,1/2+z
loop_
_atom_site_type_symbol
_atom_site_label
_atom_site_fract_x
_atom_site_fract_y
_atom_site_fract_z
Si Si1 0.000000 0.417923 0.250000
Si Si2 0.542402 0.593469 0.359250
Si Si3 0.862341 0.320846 0.825191
Si Si4 0.500000 0.238976 0.750000
Si Si5 0.239429 0.637111 0.480287
Si Si6 0.059387 0.551504 0.967708
Si Si7 0.355038 0.664910 0.824975
O O1 0.041676 0.448374 0.350523
O O2 0.223241 0.382920 0.273958
O O3 0.500000 0.568605 0.250000
O O4 0.688625 0.640138 0.346067
O O5 0.327624 0.611899 0.393612
O O6 0.693780 0.563967 0.454129
O O7 0.712537 0.276320 0.767536
O O8 0.000000 0.338035 0.750000
O O9 0.064659 0.319303 0.932267
O O10 0.646550 0.200200 0.832185
O O11 0.461594 0.654872 0.567855
O O12 0.104850 0.595531 0.520287
O O13 0.000000 0.500000 0.000000
O O14 0.500000 0.683387 0.750000
#
# Coordination Sequence:
#
# PCOD9302008 Si02
#       7
#     4   8   8   4   8   8   8
#     4  11  22  46  70  96 146 174 222 282 336 405
#     4  11  22  42  69  98 138 182 223 280 348 407
#     4  11  21  41  65  97 136 176 220 288 339 397
#     4  11  24  38  68 100 136 168 234 286 330 415
#     4  11  23  42  70  93 133 185 224 275 355 404
#     4  11  26  43  70 107 135 176 232 283 340 406
#     4  11  23  43  67  94 131 187 223 272 345 411
#
# _framework density 21.43404
#
# number of rings (size 3 to 8) (size 9 to 14) (size 15 to 20)
#    0.000    1.000    5.833    0.500    0.000    2.667 
#    3.000    4.167    0.000    0.000    0.000    0.000 
#    0.000    0.000    0.000    0.000    0.000    0.000 
#
# Total GULP energy -133629.724955 kJ/mol
# GULP energy per Si atom -5567.905206 kJ/mol
# Density = 2.138526 g / cm^3
# Si number density = 21.434040 Si / 1000 Ang^3
#
#
#
# Elastic Constant Matrix: (Units=GPa)
#
#
# Indices 1 2 3 4 5 6 
#
# 1 62.0774 26.3004 55.4695 0.0000 22.9926 0.0000
# 2 26.3004 72.5610 43.8466 0.0000 16.3051 0.0000
# 3 55.4695 43.8466 178.4803 0.0000 24.8869 0.0000
# 4 0.0000 0.0000 0.0000 8.7441 0.0000 11.7023
# 5 22.9926 16.3051 24.8869 0.0000 57.6287 0.0000
# 6 0.0000 0.0000 0.0000 11.7023 0.0000 45.2100
#
#
#
# Elastic Compliance Matrix: (Units=1/GPa)
#
#
# Indices 1 2 3 4 5 6 
#
# 1 0.025684 -0.004205 -0.006051 0.000000 -0.006445 0.000000
# 2 -0.004205 0.017391 -0.002674 0.000000 -0.002088 0.000000
# 3 -0.006051 -0.002674 0.008191 0.000000 -0.000367 0.000000
# 4 0.000000 0.000000 0.000000 0.174977 0.000000 -0.045292
# 5 -0.006445 -0.002088 -0.000367 0.000000 0.020673 0.000000
# 6 0.000000 0.000000 0.000000 -0.045292 0.000000 0.033842
#
#
# Mechanical properties :
#
#
# Convention : Reuss Voigt Hill
#
# Bulk Modulus (GPa) = 39.36021 62.70572 51.03297
# Shear Modulus (GPa) = 15.86862 34.81671 25.34266
#
# Velocity S-wave (km/s) = 2.72388 4.03471 3.44227
# Velocity P-wave (km/s) = 5.31940 7.14310 6.29762
#
# Compressibility (1/GPa) = 0.02540637
#
# Stress axis : x y z
#
# Youngs Moduli (GPa) = 38.93469 57.50153 122.07846
#
# Poissons Ratio (x) = 0.24179 0.73865
# Poissons Ratio (y) = 0.16372 0.32648
# Poissons Ratio (z) = 0.23558 0.15378
#
# Static dielectric constant tensor:
#      x y z
#    x 1.811780 0.000000 0.007290 
#    y 0.000000 1.780630 0.000000 
#    z 0.007290 0.000000 1.840160 
# 
# From -- ./inp_files/130501.got.cif
#   From: 2010.05.17/outbox.cif.g08.bks.cpg/sg15_66_cif.got.tgz:130501.got - 2010.06.03 18:47:42.
