data_PCOD9302434
_publ_section_title
;
Structure prediction by ZEFSAII (Michael W. Deem and Ramdas Pophale) SiO2 
 PCOD9302434
Probable space group: C 2/C
;
_chemical_formula_sum "Si O2"
_cell_formula_units_Z 48
_cell_length_a 23.305206
_cell_length_b 13.514206
_cell_length_c 20.074303
_cell_angle_alpha 90.000000
_cell_angle_beta 20.197848
_cell_angle_gamma 90.000000
_cell_volume 2182.900458
_symmetry_space_group_name_H-M "C 2/C"
_symmetry_group_IT_number 15
_symmetry_cell_setting 'monoclinic'
loop_
_space_group_symop_operation_xyz
x,y,z
-x,y,1/2-z
-x,-y,-z
x,-y,1/2+z
1/2+x,1/2+y,z
1/2-x,1/2+y,1/2-z
1/2-x,1/2-y,-z
1/2+x,1/2-y,1/2+z
loop_
_atom_site_type_symbol
_atom_site_label
_atom_site_fract_x
_atom_site_fract_y
_atom_site_fract_z
Si Si1 0.010821 0.413812 0.127725
Si Si2 0.689545 0.509638 0.429784
Si Si3 0.094717 0.204987 0.206756
Si Si4 0.719971 0.847405 0.775522
Si Si5 0.333119 0.506983 0.305993
Si Si6 0.894980 0.876717 0.107564
O O1 0.824451 0.456124 0.328639
O O2 0.003495 0.300437 0.160397
O O3 0.365305 0.374334 0.780871
O O4 0.134513 0.484509 0.035058
O O5 0.779227 0.603226 0.298199
O O6 0.501447 0.533465 0.658843
O O7 0.655787 0.436149 0.403439
O O8 0.000000 0.151565 0.250000
O O9 0.250000 0.250000 0.000000
O O10 0.590659 0.901091 0.966530
O O11 0.682644 0.731622 0.811646
O O12 0.907796 0.862735 0.596882
O O13 0.339985 0.443059 0.230512
#
# Coordination Sequence:
#
# PCOD9302434 Si02
#       6
#     8   8   8   8   8   8
#     4  12  23  37  62  87 126 167 199 250 306 360
#     4  11  22  37  57  89 127 162 205 240 297 377
#     4  12  25  42  62  89 118 159 214 258 311 358
#     4  11  22  36  58  90 127 173 197 235 302 372
#     4  11  23  41  56  87 121 160 203 254 303 356
#     4  11  22  36  57  88 130 161 208 240 288 381
#
# _framework density 21.989090999999998
#
# number of rings (size 3 to 8) (size 9 to 14) (size 15 to 20)
#    0.000    0.667    5.000    4.500    4.667    0.000 
#    0.000    0.000    0.000    0.000    0.000   11.667 
#    0.000    0.167    0.000    0.000    0.000    0.000 
#
# Total GULP energy -133749.224126 kJ/mol
# GULP energy per Si atom -5572.884339 kJ/mol
# Density = 2.193904 g / cm^3
# Si number density = 21.989091 Si / 1000 Ang^3
#
#
#
# Elastic Constant Matrix: (Units=GPa)
#
#
# Indices 1 2 3 4 5 6 
#
# 1 49.4292 9.2319 17.2144 0.0004 -11.0372 -0.0001
# 2 9.2319 78.6595 9.7949 0.0015 0.2383 -0.0006
# 3 17.2144 9.7949 113.6104 0.0001 -15.1179 -0.0002
# 4 0.0004 0.0015 0.0001 37.7760 0.0001 -0.1715
# 5 -11.0372 0.2383 -15.1179 0.0001 32.6764 -0.0001
# 6 -0.0001 -0.0006 -0.0002 -0.1715 -0.0001 30.8335
#
#
#
# Elastic Compliance Matrix: (Units=1/GPa)
#
#
# Indices 1 2 3 4 5 6 
#
# 1 0.023008 -0.002423 -0.002388 0.000000 0.006684 0.000000
# 2 -0.002423 0.013119 -0.000944 0.000000 -0.001351 0.000000
# 3 -0.002388 -0.000944 0.009738 0.000000 0.003706 0.000000
# 4 0.000000 0.000000 0.000000 0.026472 0.000000 0.000147
# 5 0.006684 -0.001351 0.003706 0.000000 0.034585 0.000000
# 6 0.000000 0.000000 0.000000 0.000147 0.000000 0.032433
#
#
# Mechanical properties :
#
#
# Convention : Reuss Voigt Hill
#
# Bulk Modulus (GPa) = 29.10719 34.90905 32.00812
# Shear Modulus (GPa) = 30.80390 33.95437 32.37913
#
# Velocity S-wave (km/s) = 3.74688 3.93383 3.84149
# Velocity P-wave (km/s) = 5.65550 6.04511 5.85355
#
# Compressibility (1/GPa) = 0.03435578
#
# Stress axis : x y z
#
# Youngs Moduli (GPa) = 43.46369 76.22522 102.68748
#
# Poissons Ratio (x) = 0.18471 0.24519
# Poissons Ratio (y) = 0.10532 0.09690
# Poissons Ratio (z) = 0.10378 0.07193
#
# Static dielectric constant tensor:
#      x y z
#    x 1.884190 0.000000 -0.011170 
#    y 0.000000 1.814890 0.000000 
#    z -0.011170 0.000000 1.922770 
# 
# From -- ./inp_files/282043.got.cif
#   From: 2010.05.17/outbox.cif.g08.bks.cpg/sg15_142_cif.got.tgz:282043.got - 2010.06.03 18:47:42.
