data_PCOD9302600
_publ_section_title
;
Structure prediction by ZEFSAII (Michael W. Deem and Ramdas Pophale) SiO2 
 PCOD9302600
Probable space group: C 2/C
;
_chemical_formula_sum "Si O2"
_cell_formula_units_Z 48
_cell_length_a 17.094088
_cell_length_b 6.364420
_cell_length_c 26.037555
_cell_angle_alpha 90.000000
_cell_angle_beta 53.553042
_cell_angle_gamma 90.000000
_cell_volume 2278.667219
_symmetry_space_group_name_H-M "C 2/C"
_symmetry_group_IT_number 15
_symmetry_cell_setting 'monoclinic'
loop_
_space_group_symop_operation_xyz
x,y,z
-x,y,1/2-z
-x,-y,-z
x,-y,1/2+z
1/2+x,1/2+y,z
1/2-x,1/2+y,1/2-z
1/2-x,1/2-y,-z
1/2+x,1/2-y,1/2+z
loop_
_atom_site_type_symbol
_atom_site_label
_atom_site_fract_x
_atom_site_fract_y
_atom_site_fract_z
Si Si1 0.298675 0.534320 0.655645
Si Si2 0.510669 0.497258 0.689731
Si Si3 0.817572 0.558336 0.492863
Si Si4 0.302183 0.767095 0.399809
Si Si5 0.517279 0.802785 0.889776
Si Si6 0.356556 0.811989 0.200552
O O1 0.244885 0.581846 0.623912
O O2 0.400408 0.659441 0.616331
O O3 0.317892 0.294203 0.663367
O O4 0.231044 0.617164 0.728765
O O5 0.500000 0.595967 0.750000
O O6 0.598757 0.334265 0.658735
O O7 0.528630 0.668030 0.638920
O O8 0.416888 0.366302 0.707530
O O9 0.750000 0.750000 0.500000
O O10 0.768716 0.425672 0.557439
O O11 0.824310 0.396925 0.442513
O O12 0.927217 0.633940 0.460595
O O13 0.572824 0.999201 0.842754
#
# Coordination Sequence:
#
# PCOD9302600 Si02
#       6
#     8   8   8   8   8   8
#     4  11  24  40  66  98 134 170 212 269 339 400
#     4  11  22  38  68 100 130 167 225 273 338 397
#     4  11  24  45  67  92 130 175 229 271 322 390
#     4  11  24  42  68  98 127 172 227 279 319 392
#     4  11  24  42  64  94 134 176 211 271 332 393
#     4  11  22  41  62  99 139 167 208 274 338 405
#
# _framework density 21.064947
#
# number of rings (size 3 to 8) (size 9 to 14) (size 15 to 20)
#    0.000    1.000    6.667    0.000    0.000    4.000 
#    0.000    1.667    0.000    0.000    0.000    0.000 
#    0.000    0.000    0.000    0.000    0.000    0.000 
#
# Total GULP energy -134207.085131 kJ/mol
# GULP energy per Si atom -5591.961880 kJ/mol
# Density = 2.101700 g / cm^3
# Si number density = 21.064947 Si / 1000 Ang^3
#
#
#
# Elastic Constant Matrix: (Units=GPa)
#
#
# Indices 1 2 3 4 5 6 
#
# 1 63.4448 -16.4289 9.3993 -0.0124 -7.6029 -0.0041
# 2 -16.4289 24.0941 -17.3771 -0.0238 -1.9343 -0.0119
# 3 9.3993 -17.3771 26.9660 -0.0125 -15.9250 -0.0055
# 4 -0.0124 -0.0238 -0.0125 23.0243 0.0012 -1.7916
# 5 -7.6029 -1.9343 -15.9250 0.0012 44.1936 -0.0006
# 6 -0.0041 -0.0119 -0.0055 -1.7916 -0.0006 23.6441
#
#
#
# Elastic Compliance Matrix: (Units=1/GPa)
#
#
# Indices 1 2 3 4 5 6 
#
# 1 0.021845 0.028108 0.017079 0.000051 0.011143 0.000026
# 2 0.028108 0.152174 0.120751 0.000245 0.055008 0.000129
# 3 0.017079 0.120751 0.144565 0.000218 0.060317 0.000115
# 4 0.000051 0.000245 0.000218 0.043690 0.000097 0.003311
# 5 0.011143 0.055008 0.060317 0.000097 0.048687 0.000052
# 6 0.000026 0.000129 0.000115 0.003311 0.000052 0.042545
#
#
# Mechanical properties :
#
#
# Convention : Reuss Voigt Hill
#
# Bulk Modulus (GPa) = 1.53737 7.29904 4.41820
# Shear Modulus (GPa) = 14.77322 27.43318 21.10320
#
# Velocity S-wave (km/s) = 2.65111 3.61267 3.16858
# Velocity P-wave (km/s) = 3.17846 4.56885 3.93555
#
# Compressibility (1/GPa) = 0.65046138
#
# Stress axis : x y z
#
# Youngs Moduli (GPa) = 45.77642 6.57141 6.91732
#
# Poissons Ratio (x) = -0.18471 -0.11814
# Poissons Ratio (y) = -1.28669 -0.83527
# Poissons Ratio (z) = -0.78183 -0.79351
#
# Static dielectric constant tensor:
#      x y z
#    x 1.745800 0.000000 -0.000110 
#    y 0.000000 1.758990 0.000000 
#    z -0.000110 0.000000 1.733240 
# 
# From -- ./inp_files/275629.got.cif
#   From: 2010.05.17/outbox.cif.g08.bks.cpg/sg15_138_cif.got.tgz:275629.got - 2010.06.03 18:47:42.
