data_PCOD9302956
_publ_section_title
;
Structure prediction by ZEFSAII (Michael W. Deem and Ramdas Pophale) SiO2 
 PCOD9302956
Probable space group: C 2/C
;
_chemical_formula_sum "Si O2"
_cell_formula_units_Z 48
_cell_length_a 14.089929
_cell_length_b 13.670265
_cell_length_c 12.233349
_cell_angle_alpha 90.000000
_cell_angle_beta 120.253117
_cell_angle_gamma 90.000000
_cell_volume 2035.393461
_symmetry_space_group_name_H-M "C 2/C"
_symmetry_group_IT_number 15
_symmetry_cell_setting 'monoclinic'
loop_
_space_group_symop_operation_xyz
x,y,z
-x,y,1/2-z
-x,-y,-z
x,-y,1/2+z
1/2+x,1/2+y,z
1/2-x,1/2+y,1/2-z
1/2-x,1/2-y,-z
1/2+x,1/2-y,1/2+z
loop_
_atom_site_type_symbol
_atom_site_label
_atom_site_fract_x
_atom_site_fract_y
_atom_site_fract_z
Si Si1 0.119539 0.837001 0.662283
Si Si2 0.821097 0.050843 0.846998
Si Si3 0.935913 0.707992 0.050896
Si Si4 0.350556 0.258641 0.224831
Si Si5 0.289391 0.644034 0.059045
Si Si6 0.131066 0.487705 0.078623
O O1 0.041247 0.766873 0.547753
O O2 0.236307 0.790975 0.690137
O O3 0.122743 0.837560 0.794377
O O4 0.114689 0.949609 0.626075
O O5 0.861351 0.136812 0.790006
O O6 0.695893 0.029985 0.730385
O O7 0.826711 0.087948 0.973083
O O8 0.875140 0.768701 0.110741
O O9 0.054904 0.687933 0.171519
O O10 0.861213 0.614142 0.983719
O O11 0.194516 0.576289 0.057464
O O12 0.250000 0.750000 0.000000
O O13 0.000000 0.500000 0.000000
#
# Coordination Sequence:
#
# PCOD9302956 Si02
#       6
#     8   8   8   8   8   8
#     4  11  23  41  67  93 130 177 224 275 347 410
#     4  11  24  40  66  93 136 178 218 281 348 408
#     4  11  23  41  68  95 131 176 228 285 332 412
#     4  11  23  42  64  97 132 171 227 281 340 413
#     4  11  22  41  64  97 138 177 214 280 349 407
#     4  11  24  41  69 104 133 174 231 283 350 419
#
# _framework density 23.582663
#
# number of rings (size 3 to 8) (size 9 to 14) (size 15 to 20)
#    0.000    1.000    3.333    3.500    4.667    2.667 
#    0.000    2.500    0.000    0.000    0.000    0.000 
#    0.000    0.000    0.000    0.000    0.000    0.000 
#
# Total GULP energy -134248.117944 kJ/mol
# GULP energy per Si atom -5593.671581 kJ/mol
# Density = 2.352899 g / cm^3
# Si number density = 23.582663 Si / 1000 Ang^3
#
#
#
# Elastic Constant Matrix: (Units=GPa)
#
#
# Indices 1 2 3 4 5 6 
#
# 1 63.6797 7.0096 24.4096 0.0000 3.7834 0.0000
# 2 7.0096 134.8885 38.8994 0.0000 -22.0120 0.0000
# 3 24.4096 38.8994 159.0615 0.0000 -23.3151 0.0000
# 4 0.0000 0.0000 0.0000 44.8503 0.0000 -3.8838
# 5 3.7834 -22.0120 -23.3151 0.0000 45.2249 0.0000
# 6 0.0000 0.0000 0.0000 -3.8838 0.0000 33.3696
#
#
#
# Elastic Compliance Matrix: (Units=1/GPa)
#
#
# Indices 1 2 3 4 5 6 
#
# 1 0.017091 -0.000562 -0.002959 0.000000 -0.003229 0.000000
# 2 -0.000562 0.008421 -0.001477 0.000000 0.003384 0.000000
# 3 -0.002959 -0.001477 0.007608 0.000000 0.003451 0.000000
# 4 0.000000 0.000000 0.000000 0.022523 0.000000 0.002621
# 5 -0.003229 0.003384 0.003451 0.000000 0.025808 0.000000
# 6 0.000000 0.000000 0.000000 0.002621 0.000000 0.030272
#
#
# Mechanical properties :
#
#
# Convention : Reuss Voigt Hill
#
# Bulk Modulus (GPa) = 43.24317 55.36301 49.30309
# Shear Modulus (GPa) = 38.63160 43.84304 41.23732
#
# Velocity S-wave (km/s) = 4.05178 4.31643 4.18620
# Velocity P-wave (km/s) = 6.34554 6.95480 6.65714
#
# Compressibility (1/GPa) = 0.02312504
#
# Stress axis : x y z
#
# Youngs Moduli (GPa) = 58.50900 118.75147 131.44115
#
# Poissons Ratio (x) = 0.06671 0.38890
# Poissons Ratio (y) = 0.03287 0.19416
# Poissons Ratio (z) = 0.17311 0.17541
#
# Static dielectric constant tensor:
#      x y z
#    x 1.927910 0.000000 0.040550 
#    y 0.000000 1.898100 0.000000 
#    z 0.040550 0.000000 1.886070 
# 
# From -- ./inp_files/96536.got.cif
#   From: 2010.05.17/outbox.cif.g08.bks.cpg/sg15_49_cif.got.tgz:96536.got - 2010.06.03 18:47:42.
