data_PCOD9302557
_publ_section_title
;
Structure prediction by ZEFSAII (Michael W. Deem and Ramdas Pophale) SiO2 
 PCOD9302557
Probable space group: C 2/C
;
_chemical_formula_sum "Si O2"
_cell_formula_units_Z 48
_cell_length_a 22.536238
_cell_length_b 20.565137
_cell_length_c 4.962539
_cell_angle_alpha 90.000000
_cell_angle_beta 84.410441
_cell_angle_gamma 90.000000
_cell_volume 2289.006559
_symmetry_space_group_name_H-M "C 2/C"
_symmetry_group_IT_number 15
_symmetry_cell_setting 'monoclinic'
loop_
_space_group_symop_operation_xyz
x,y,z
-x,y,1/2-z
-x,-y,-z
x,-y,1/2+z
1/2+x,1/2+y,z
1/2-x,1/2+y,1/2-z
1/2-x,1/2-y,-z
1/2+x,1/2-y,1/2+z
loop_
_atom_site_type_symbol
_atom_site_label
_atom_site_fract_x
_atom_site_fract_y
_atom_site_fract_z
Si Si1 0.566165 0.674319 0.607575
Si Si2 0.792297 0.748602 0.730219
Si Si3 0.752637 0.041129 0.571981
Si Si4 0.865011 0.867397 0.888731
Si Si5 0.363811 0.872027 0.388942
Si Si6 0.433720 0.168965 0.390446
O O1 0.500000 0.662518 0.750000
O O2 0.580397 0.626384 0.348011
O O3 0.567988 0.752765 0.543032
O O4 0.610305 0.658429 0.837827
O O5 0.750000 0.750000 0.500000
O O6 0.832143 0.811165 0.736865
O O7 0.829658 0.684231 0.741634
O O8 0.750000 0.750000 0.000000
O O9 0.812625 0.080756 0.468026
O O10 0.688609 0.075378 0.545679
O O11 0.754381 0.022850 0.885044
O O12 0.389003 0.846996 0.662252
O O13 0.418378 0.877830 0.152024
O O14 0.500000 0.156711 0.250000
#
# Coordination Sequence:
#
# PCOD9302557 Si02
#       6
#     8   8   8   8   8   8
#     4  11  22  38  63 100 136 164 196 246 317 391
#     4  12  22  34  59  98 129 160 194 251 329 388
#     4  12  28  45  64  89 122 170 220 268 312 354
#     4  12  23  40  65  91 132 165 205 257 316 380
#     4  12  23  40  65  91 132 165 205 257 316 380
#     4  11  22  38  63 100 136 164 196 246 317 391
#
# _framework density 20.969797
#
# number of rings (size 3 to 8) (size 9 to 14) (size 15 to 20)
#    0.000    0.333    5.000    5.000    2.333    2.667 
#    0.000    0.000    0.000   20.000    0.000    0.000 
#    0.000    0.000    0.000    0.000    0.000    0.000 
#
# Total GULP energy -133874.517400 kJ/mol
# GULP energy per Si atom -5578.104892 kJ/mol
# Density = 2.092207 g / cm^3
# Si number density = 20.969797 Si / 1000 Ang^3
#
#
#
# Elastic Constant Matrix: (Units=GPa)
#
#
# Indices 1 2 3 4 5 6 
#
# 1 86.7599 23.5815 22.4052 0.0000 -18.2260 0.0000
# 2 23.5815 35.3034 2.8268 0.0000 -10.5640 0.0000
# 3 22.4052 2.8268 120.3797 0.0000 -12.1596 0.0000
# 4 0.0000 0.0000 0.0000 21.0689 0.0000 5.6977
# 5 -18.2260 -10.5640 -12.1596 0.0000 57.8104 0.0000
# 6 0.0000 0.0000 0.0000 5.6977 0.0000 16.8824
#
#
#
# Elastic Compliance Matrix: (Units=1/GPa)
#
#
# Indices 1 2 3 4 5 6 
#
# 1 0.015172 -0.009164 -0.002344 0.000000 0.002616 0.000000
# 2 -0.009164 0.035502 0.001262 0.000000 0.003864 0.000000
# 3 -0.002344 0.001262 0.008850 0.000000 0.001353 0.000000
# 4 0.000000 0.000000 0.000000 0.052230 0.000000 -0.017628
# 5 0.002616 0.003864 0.001353 0.000000 0.019113 0.000000
# 6 0.000000 0.000000 0.000000 -0.017628 0.000000 0.065183
#
#
# Mechanical properties :
#
#
# Convention : Reuss Voigt Hill
#
# Bulk Modulus (GPa) = 25.61984 37.78557 31.70271
# Shear Modulus (GPa) = 21.78146 32.06097 26.92121
#
# Velocity S-wave (km/s) = 3.22639 3.91437 3.58692
# Velocity P-wave (km/s) = 5.11112 6.20386 5.68381
#
# Compressibility (1/GPa) = 0.03903224
#
# Stress axis : x y z
#
# Youngs Moduli (GPa) = 65.91227 28.16731 112.98888
#
# Poissons Ratio (x) = 0.25812 0.26489
# Poissons Ratio (y) = 0.60401 -0.14261
# Poissons Ratio (z) = 0.15452 -0.03555
#
# Static dielectric constant tensor:
#      x y z
#    x 1.911910 0.000000 -0.184320 
#    y 0.000000 1.731370 0.000000 
#    z -0.184320 0.000000 1.889360 
# 
# From -- ./inp_files/13179.got.cif
#   From: 2010.05.17/outbox.cif.g08.bks.cpg/sg15_7_cif.got.tgz:13179.got - 2010.06.03 18:47:42.
