data_PCOD9302626
_publ_section_title
;
Structure prediction by ZEFSAII (Michael W. Deem and Ramdas Pophale) SiO2 
 PCOD9302626
Probable space group: C 2/C
;
_chemical_formula_sum "Si O2"
_cell_formula_units_Z 56
_cell_length_a 17.332531
_cell_length_b 20.660359
_cell_length_c 15.164314
_cell_angle_alpha 90.000000
_cell_angle_beta 149.425716
_cell_angle_gamma 90.000000
_cell_volume 2762.141791
_symmetry_space_group_name_H-M "C 2/C"
_symmetry_group_IT_number 15
_symmetry_cell_setting 'monoclinic'
loop_
_space_group_symop_operation_xyz
x,y,z
-x,y,1/2-z
-x,-y,-z
x,-y,1/2+z
1/2+x,1/2+y,z
1/2-x,1/2+y,1/2-z
1/2-x,1/2-y,-z
1/2+x,1/2-y,1/2+z
loop_
_atom_site_type_symbol
_atom_site_label
_atom_site_fract_x
_atom_site_fract_y
_atom_site_fract_z
Si Si1 0.857990 0.112946 0.663989
Si Si2 0.358570 0.928868 0.933396
Si Si3 0.214849 0.536025 0.785272
Si Si4 0.838326 0.692237 0.132553
Si Si5 0.837382 0.970802 0.599935
Si Si6 0.733406 0.300124 0.730790
Si Si7 0.125578 0.165041 0.626321
O O1 0.717767 0.124681 0.462568
O O2 0.842645 0.149580 0.739770
O O3 0.000000 0.139780 0.750000
O O4 0.878837 0.036852 0.693284
O O5 0.284297 0.938541 0.956076
O O6 0.320754 0.856095 0.868387
O O7 0.283668 0.978539 0.786946
O O8 0.538354 0.942282 0.112692
O O9 0.319949 0.598321 0.865437
O O10 0.269588 0.515394 0.936535
O O11 0.802205 0.695019 0.199582
O O12 0.000000 0.700393 0.250000
O O13 0.750000 0.750000 0.000000
O O14 0.000000 0.935329 0.750000
O O15 0.774826 0.227521 0.802582
O O16 0.553319 0.316718 0.556756
#
# Coordination Sequence:
#
# PCOD9302626 Si02
#       7
#     8   8   8   8   8   8   8
#     4  11  22  39  60  96 131 175 217 271 333 402
#     4  11  25  44  68 102 134 180 231 281 341 403
#     4  11  25  44  70  99 137 179 229 285 340 402
#     4  12  23  34  56  86 129 172 215 261 330 396
#     4  11  24  43  70  97 134 174 226 282 340 397
#     4  12  25  40  65  95 138 179 227 280 337 403
#     4  12  24  42  65  96 137 178 226 278 336 404
#
# _framework density 20.274121000000001
#
# number of rings (size 3 to 8) (size 9 to 14) (size 15 to 20)
#    0.000    0.571    4.286    4.286    4.000    2.286 
#    0.000    0.714    0.000    0.000    0.000    0.000 
#    0.000    0.000    0.000    0.000    0.000    0.000 
#
# Total GULP energy -156297.708888 kJ/mol
# GULP energy per Si atom -5582.061032 kJ/mol
# Density = 2.022798 g / cm^3
# Si number density = 20.274121 Si / 1000 Ang^3
#
#
#
# Elastic Constant Matrix: (Units=GPa)
#
#
# Indices 1 2 3 4 5 6 
#
# 1 100.6116 31.8521 33.9583 0.0000 9.5872 0.0000
# 2 31.8521 103.1725 21.7177 0.0000 4.6303 0.0000
# 3 33.9583 21.7177 82.3551 0.0000 4.8952 0.0000
# 4 0.0000 0.0000 0.0000 29.0924 0.0000 -8.4144
# 5 9.5872 4.6303 4.8952 0.0000 37.6489 0.0000
# 6 0.0000 0.0000 0.0000 -8.4144 0.0000 19.2101
#
#
#
# Elastic Compliance Matrix: (Units=1/GPa)
#
#
# Indices 1 2 3 4 5 6 
#
# 1 0.012501 -0.002859 -0.004265 0.000000 -0.002277 0.000000
# 2 -0.002859 0.010948 -0.001684 0.000000 -0.000399 0.000000
# 3 -0.004265 -0.001684 0.014380 0.000000 -0.000576 0.000000
# 4 0.000000 0.000000 0.000000 0.039360 0.000000 0.017240
# 5 -0.002277 -0.000399 -0.000576 0.000000 0.027265 0.000000
# 6 0.000000 0.000000 0.000000 0.017240 0.000000 0.059607
#
#
# Mechanical properties :
#
#
# Convention : Reuss Voigt Hill
#
# Bulk Modulus (GPa) = 49.47883 51.24395 50.36139
# Shear Modulus (GPa) = 26.53713 30.43102 28.48408
#
# Velocity S-wave (km/s) = 3.62182 3.87845 3.75233
# Velocity P-wave (km/s) = 6.47673 6.73698 6.60814
#
# Compressibility (1/GPa) = 0.02021067
#
# Stress axis : x y z
#
# Youngs Moduli (GPa) = 79.99326 91.34323 69.54251
#
# Poissons Ratio (x) = 0.26118 0.29662
# Poissons Ratio (y) = 0.22873 0.11713
# Poissons Ratio (z) = 0.34119 0.15384
#
# Static dielectric constant tensor:
#      x y z
#    x 1.770540 0.000000 0.027890 
#    y 0.000000 1.767600 0.000000 
#    z 0.027890 0.000000 1.750750 
# 
# From -- ./inp_files/163842.got.cif
#   From: 2010.05.17/outbox.cif.g08.bks.cpg/sg15_82_cif.got.tgz:163842.got - 2010.06.03 18:47:42.
