data_PCOD9302292
_publ_section_title
;
Structure prediction by ZEFSAII (Michael W. Deem and Ramdas Pophale) SiO2 
 PCOD9302292
Probable space group: C 2/C
;
_chemical_formula_sum "Si O2"
_cell_formula_units_Z 64
_cell_length_a 8.800046
_cell_length_b 16.836113
_cell_length_c 28.521400
_cell_angle_alpha 90.000000
_cell_angle_beta 137.979142
_cell_angle_gamma 90.000000
_cell_volume 2828.681392
_symmetry_space_group_name_H-M "C 2/C"
_symmetry_group_IT_number 15
_symmetry_cell_setting 'monoclinic'
loop_
_space_group_symop_operation_xyz
x,y,z
-x,y,1/2-z
-x,-y,-z
x,-y,1/2+z
1/2+x,1/2+y,z
1/2-x,1/2+y,1/2-z
1/2-x,1/2-y,-z
1/2+x,1/2-y,1/2+z
loop_
_atom_site_type_symbol
_atom_site_label
_atom_site_fract_x
_atom_site_fract_y
_atom_site_fract_z
Si Si1 0.461151 0.216999 0.653530
Si Si2 0.753898 0.130416 0.585117
Si Si3 0.753802 0.825150 0.535547
Si Si4 0.454111 0.571507 0.456043
Si Si5 0.435468 0.320280 0.038376
Si Si6 0.069914 0.258697 0.710793
Si Si7 0.514582 0.944581 0.697682
Si Si8 0.736205 0.930263 0.177843
O O1 0.430849 0.296970 0.615749
O O2 0.671181 0.228738 0.736792
O O3 0.557995 0.141970 0.646188
O O4 0.199794 0.202320 0.607338
O O5 0.504872 0.157837 0.512007
O O6 0.881315 0.114520 0.565850
O O7 0.735141 0.062985 0.620875
O O8 0.894242 0.203689 0.641728
O O9 0.750000 0.750000 0.500000
O O10 0.844242 0.902121 0.530659
O O11 0.500000 0.500000 0.500000
O O12 0.410590 0.645394 0.480776
O O13 0.241073 0.548207 0.377339
O O14 0.250000 0.250000 0.000000
O O15 0.072134 0.352243 0.701308
O O16 0.000000 0.253881 0.750000
O O17 0.500000 0.962188 0.750000
O O18 0.661326 0.000954 0.696877
O O19 0.000000 0.912552 0.250000
#
# Coordination Sequence:
#
# PCOD9302292 Si02
#       8
#     8   8   8   8   8   8   8   8
#     4  12  22  42  74 107 137 189 252 304 369 446
#     4  12  22  42  70 107 147 188 245 306 361 441
#     4  12  19  38  75  99 137 189 237 298 363 433
#     4  12  26  47  72 110 150 198 248 301 380 455
#     4  12  25  42  70 112 147 185 245 311 361 440
#     4  11  21  44  73 106 139 192 252 304 375 451
#     4  11  26  48  74 103 151 195 245 312 383 449
#     4  12  25  46  70 106 145 192 249 303 372 445
#
# _framework density 22.625382999999999
#
# number of rings (size 3 to 8) (size 9 to 14) (size 15 to 20)
#    0.000    0.250    6.250    4.500    0.000    2.500 
#    4.500    2.500    0.000    0.000    0.000    0.000 
#    0.000    0.000    0.000    0.000    0.000    0.000 
#
# Total GULP energy -178713.114153 kJ/mol
# GULP energy per Si atom -5584.784817 kJ/mol
# Density = 2.257389 g / cm^3
# Si number density = 22.625383 Si / 1000 Ang^3
#
#
#
# Elastic Constant Matrix: (Units=GPa)
#
#
# Indices 1 2 3 4 5 6 
#
# 1 120.7482 34.5548 47.9206 0.0000 18.8447 0.0000
# 2 34.5548 73.9147 29.7305 0.0001 9.6291 0.0000
# 3 47.9206 29.7305 135.2213 -0.0002 25.2351 -0.0001
# 4 0.0000 0.0001 -0.0002 -21.2117 0.0000 -19.9989
# 5 18.8447 9.6291 25.2351 0.0000 46.8550 0.0000
# 6 0.0000 0.0000 -0.0001 -19.9989 0.0000 24.3482
#
#
#
# Elastic Compliance Matrix: (Units=1/GPa)
#
#
# Indices 1 2 3 4 5 6 
#
# 1 0.010695 -0.003682 -0.002578 0.000000 -0.002156 0.000000
# 2 -0.003682 0.016197 -0.002125 0.000000 -0.000703 0.000000
# 3 -0.002578 -0.002125 0.009451 0.000000 -0.003617 0.000000
# 4 0.000000 0.000000 0.000000 -0.026569 0.000000 -0.021823
# 5 -0.002156 -0.000703 -0.003617 0.000000 0.024302 0.000000
# 6 0.000000 0.000000 0.000000 -0.021823 0.000000 0.023146
#
#
# Mechanical properties :
#
#
# Convention : Reuss Voigt Hill
#
# Bulk Modulus (GPa) = 51.09220 61.58843 56.34031
# Shear Modulus (GPa) = 62.09860 24.51019 43.30440
#
# Velocity S-wave (km/s) = 5.24462 3.29493 4.37965
# Velocity P-wave (km/s) = 7.70101 6.46185 7.10848
#
# Compressibility (1/GPa) = 0.01957246
#
# Stress axis : x y z
#
# Youngs Moduli (GPa) = 93.50069 61.74072 105.80752
#
# Poissons Ratio (x) = 0.22733 0.27280
# Poissons Ratio (y) = 0.34427 0.22484
# Poissons Ratio (z) = 0.24107 0.13120
#
# Static dielectric constant tensor:
#      x y z
#    x 1.862350 0.000000 -0.028810 
#    y 0.000000 1.864100 0.000000 
#    z -0.028810 0.000000 1.841540 
# 
# From -- ./inp_files/308808.got.cif
#   From: 2010.05.17/outbox.cif.g08.bks.cpg/sg15_155_cif.got.tgz:308808.got - 2010.06.03 18:47:42.
