data_PCOD9302150
_publ_section_title
;
Structure prediction by ZEFSAII (Michael W. Deem and Ramdas Pophale) SiO2 
 PCOD9302150
Probable space group: C 2/C
;
_chemical_formula_sum "Si O2"
_cell_formula_units_Z 56
_cell_length_a 9.477996
_cell_length_b 31.541442
_cell_length_c 11.383263
_cell_angle_alpha 90.000000
_cell_angle_beta 134.991589
_cell_angle_gamma 90.000000
_cell_volume 2406.653587
_symmetry_space_group_name_H-M "C 2/C"
_symmetry_group_IT_number 15
_symmetry_cell_setting 'monoclinic'
loop_
_space_group_symop_operation_xyz
x,y,z
-x,y,1/2-z
-x,-y,-z
x,-y,1/2+z
1/2+x,1/2+y,z
1/2-x,1/2+y,1/2-z
1/2-x,1/2-y,-z
1/2+x,1/2-y,1/2+z
loop_
_atom_site_type_symbol
_atom_site_label
_atom_site_fract_x
_atom_site_fract_y
_atom_site_fract_z
Si Si1 0.815739 0.719159 0.226833
Si Si2 0.791750 0.434748 0.693960
Si Si3 0.067713 0.896202 0.155925
Si Si4 0.732405 0.031178 0.856340
Si Si5 0.629665 0.302716 0.117343
Si Si6 0.724044 0.408978 0.908509
Si Si7 0.765424 0.815813 0.572314
O O1 0.843791 0.700076 0.374628
O O2 0.000000 0.709097 0.250000
O O3 0.807416 0.769480 0.246811
O O4 0.606771 0.703777 0.048936
O O5 0.626723 0.404286 0.540228
O O6 0.710689 0.482808 0.632835
O O7 0.824111 0.425107 0.849280
O O8 0.000000 0.430850 0.750000
O O9 0.158051 0.851140 0.173289
O O10 0.000000 0.896139 0.250000
O O11 0.211833 0.936116 0.213694
O O12 0.500000 0.030196 0.750000
O O13 0.809001 0.053883 0.018325
O O14 0.742382 0.294101 0.060053
O O15 0.500000 0.395852 0.750000
O O16 0.810818 0.363933 0.997979
O O17 0.000000 0.812132 0.750000
#
# Coordination Sequence:
#
# PCOD9302150 Si02
#       7
#     8   8   8   8   8   8   8
#     4  11  23  40  66  95 130 166 217 278 336 394
#     4  11  26  42  69 101 135 181 230 275 339 401
#     4  12  26  45  68  99 137 175 225 285 340 399
#     4  11  26  44  64 101 138 179 223 279 341 399
#     4  11  23  46  63  96 131 174 218 271 341 402
#     4  11  21  42  69  93 135 183 227 273 331 403
#     4   9  19  39  65  90 126 171 221 267 319 404
#
# _framework density 23.268825
#
# number of rings (size 3 to 8) (size 9 to 14) (size 15 to 20)
#    0.000    1.143    2.857    3.429    4.000    3.429 
#    2.571    0.714    0.000    0.000    0.000    0.000 
#    0.000    0.000    0.000    0.000    0.000    0.000 
#
# Total GULP energy -156562.564840 kJ/mol
# GULP energy per Si atom -5591.520173 kJ/mol
# Density = 2.321586 g / cm^3
# Si number density = 23.268825 Si / 1000 Ang^3
#
#
#
# Elastic Constant Matrix: (Units=GPa)
#
#
# Indices 1 2 3 4 5 6 
#
# 1 153.8173 29.0301 19.3893 0.0000 -42.7828 0.0000
# 2 29.0301 89.1009 -8.8322 0.0000 -10.3428 0.0000
# 3 19.3893 -8.8322 31.7964 0.0000 -12.4932 0.0000
# 4 0.0000 0.0000 0.0000 15.6471 0.0000 -6.8938
# 5 -42.7828 -10.3428 -12.4932 0.0000 42.9958 0.0000
# 6 0.0000 0.0000 0.0000 -6.8938 0.0000 24.9014
#
#
#
# Elastic Compliance Matrix: (Units=1/GPa)
#
#
# Indices 1 2 3 4 5 6 
#
# 1 0.009636 -0.002557 -0.003455 0.000000 0.007969 0.000000
# 2 -0.002557 0.012928 0.006065 0.000000 0.002328 0.000000
# 3 -0.003455 0.006065 0.038906 0.000000 0.009326 0.000000
# 4 0.000000 0.000000 0.000000 0.072788 0.000000 0.020151
# 5 0.007969 0.002328 0.009326 0.000000 0.034457 0.000000
# 6 0.000000 0.000000 0.000000 0.020151 0.000000 0.045737
#
#
# Mechanical properties :
#
#
# Convention : Reuss Voigt Hill
#
# Bulk Modulus (GPa) = 16.24036 39.32101 27.78068
# Shear Modulus (GPa) = 21.28834 32.38401 26.83618
#
# Velocity S-wave (km/s) = 3.02799 3.73464 3.39973
# Velocity P-wave (km/s) = 4.38401 5.96087 5.23219
#
# Compressibility (1/GPa) = 0.06157501
#
# Stress axis : x y z
#
# Youngs Moduli (GPa) = 103.77929 77.35345 25.70319
#
# Poissons Ratio (x) = 0.19778 0.08880
# Poissons Ratio (y) = 0.26535 -0.15588
# Poissons Ratio (z) = 0.35855 -0.46913
#
# Static dielectric constant tensor:
#      x y z
#    x 1.869620 0.000000 0.024420 
#    y 0.000000 1.896490 0.000000 
#    z 0.024420 0.000000 1.865650 
# 
# From -- ./inp_files/82684.got.cif
#   From: 2010.05.17/outbox.cif.g08.bks.cpg/sg15_42_cif.got.tgz:82684.got - 2010.06.03 18:47:42.
