data_PCOD9302285
_publ_section_title
;
Structure prediction by ZEFSAII (Michael W. Deem and Ramdas Pophale) SiO2 
 PCOD9302285
Probable space group: C 2/C
;
_chemical_formula_sum "Si O2"
_cell_formula_units_Z 36
_cell_length_a 14.344406
_cell_length_b 14.142167
_cell_length_c 15.676865
_cell_angle_alpha 90.000000
_cell_angle_beta 26.827482
_cell_angle_gamma 90.000000
_cell_volume 1435.253086
_symmetry_space_group_name_H-M "C 2/C"
_symmetry_group_IT_number 15
_symmetry_cell_setting 'monoclinic'
loop_
_space_group_symop_operation_xyz
x,y,z
-x,y,1/2-z
-x,-y,-z
x,-y,1/2+z
1/2+x,1/2+y,z
1/2-x,1/2+y,1/2-z
1/2-x,1/2-y,-z
1/2+x,1/2-y,1/2+z
loop_
_atom_site_type_symbol
_atom_site_label
_atom_site_fract_x
_atom_site_fract_y
_atom_site_fract_z
Si Si1 0.754087 0.976410 0.705836
Si Si2 0.348639 0.617913 0.749155
Si Si3 0.500000 0.482822 0.750000
Si Si4 0.940908 0.619837 0.889731
Si Si5 0.036354 0.295001 0.941468
O O1 0.697940 0.868663 0.768669
O O2 0.706887 0.032704 0.831788
O O3 0.605990 0.032685 0.762117
O O4 0.000000 0.000000 0.500000
O O5 0.521677 0.560623 0.656533
O O6 0.412720 0.688111 0.622248
O O7 0.177790 0.682083 0.934164
O O8 0.706045 0.419812 0.582942
O O9 0.000000 0.666496 0.750000
O O10 0.967917 0.684946 0.952818
#
# Coordination Sequence:
#
# PCOD9302285 Si02
#       5
#     8   8   4   8   8
#     4  11  21  44  71  99 144 205 239 293 376 439
#     4  11  23  41  71 104 144 192 244 300 360 437
#     4  12  22  46  74 112 148 182 254 314 356 428
#     4  11  24  43  74 106 144 195 248 301 366 428
#     4  11  23  46  67 105 153 194 241 292 375 446
#
# _framework density 25.082684
#
# number of rings (size 3 to 8) (size 9 to 14) (size 15 to 20)
#    0.000    0.889    4.444    4.000    0.000    0.889 
#    2.000    4.444    2.444    0.000    0.000    0.000 
#    0.000    0.000    0.000    0.000    0.000    0.000 
#
# Total GULP energy -100267.383352 kJ/mol
# GULP energy per Si atom -5570.410186 kJ/mol
# Density = 2.502559 g / cm^3
# Si number density = 25.082684 Si / 1000 Ang^3
#
#
#
# Elastic Constant Matrix: (Units=GPa)
#
#
# Indices 1 2 3 4 5 6 
#
# 1 52.6147 -6.1223 -3.3690 -0.0056 4.9402 -0.0014
# 2 -6.1223 87.8017 -0.1798 0.0155 7.8249 -0.0077
# 3 -3.3690 -0.1798 117.1474 -0.0032 -14.4393 -0.0013
# 4 -0.0056 0.0155 -0.0032 26.8732 0.0025 13.1770
# 5 4.9402 7.8249 -14.4393 0.0025 38.2547 0.0003
# 6 -0.0014 -0.0077 -0.0013 13.1770 0.0003 38.1494
#
#
#
# Elastic Compliance Matrix: (Units=1/GPa)
#
#
# Indices 1 2 3 4 5 6 
#
# 1 0.019466 0.001604 0.000222 0.000003 -0.002758 0.000000
# 2 0.001604 0.011742 -0.000270 -0.000009 -0.002711 0.000006
# 3 0.000222 -0.000270 0.008962 0.000001 0.003409 0.000000
# 4 0.000003 -0.000009 0.000001 0.044799 -0.000001 -0.015474
# 5 -0.002758 -0.002711 0.003409 -0.000001 0.028338 0.000000
# 6 0.000000 0.000006 0.000000 -0.015474 0.000000 0.031557
#
#
# Mechanical properties :
#
#
# Convention : Reuss Voigt Hill
#
# Bulk Modulus (GPa) = 23.10413 26.46907 24.78660
# Shear Modulus (GPa) = 32.01416 38.47114 35.24265
#
# Velocity S-wave (km/s) = 3.57647 3.92059 3.75248
# Velocity P-wave (km/s) = 5.12699 5.57408 5.35520
#
# Compressibility (1/GPa) = 0.04328231
#
# Stress axis : x y z
#
# Youngs Moduli (GPa) = 51.37200 85.16330 111.57637
#
# Poissons Ratio (x) = -0.13656 -0.02481
# Poissons Ratio (y) = -0.08238 0.03012
# Poissons Ratio (z) = -0.01142 0.02299
#
# Static dielectric constant tensor:
#      x y z
#    x 2.233820 0.000000 0.110780 
#    y 0.000000 1.992020 0.000000 
#    z 0.110780 0.000000 2.188040 
# 
# From -- ./inp_files/205256.got.cif
#   From: 2010.05.17/outbox.cif.g08.bks.cpg/sg15_103_cif.got.tgz:205256.got - 2010.06.03 18:47:42.
