data_PCOD9302855
_publ_section_title
;
Structure prediction by ZEFSAII (Michael W. Deem and Ramdas Pophale) SiO2 
 PCOD9302855
Probable space group: C 2/C
;
_chemical_formula_sum "Si O2"
_cell_formula_units_Z 40
_cell_length_a 26.284543
_cell_length_b 7.425696
_cell_length_c 20.791298
_cell_angle_alpha 90.000000
_cell_angle_beta 157.751481
_cell_angle_gamma 90.000000
_cell_volume 1536.484326
_symmetry_space_group_name_H-M "C 2/C"
_symmetry_group_IT_number 15
_symmetry_cell_setting 'monoclinic'
loop_
_space_group_symop_operation_xyz
x,y,z
-x,y,1/2-z
-x,-y,-z
x,-y,1/2+z
1/2+x,1/2+y,z
1/2-x,1/2+y,1/2-z
1/2-x,1/2-y,-z
1/2+x,1/2-y,1/2+z
loop_
_atom_site_type_symbol
_atom_site_label
_atom_site_fract_x
_atom_site_fract_y
_atom_site_fract_z
Si Si1 0.337285 0.525585 0.262205
Si Si2 0.165244 0.594729 0.672843
Si Si3 0.528248 0.212659 0.153117
Si Si4 0.851428 0.295158 0.060579
Si Si5 0.302671 0.587511 0.452011
O O1 0.283555 0.405673 0.258186
O O2 0.366718 0.720911 0.326941
O O3 0.445483 0.404132 0.352401
O O4 0.225401 0.577073 0.078743
O O5 0.038613 0.572268 0.476305
O O6 0.225536 0.457212 0.794930
O O7 0.675138 0.145555 0.346306
O O8 0.417834 0.266011 0.076389
O O9 0.000000 0.364070 0.250000
O O10 0.750000 0.250000 0.000000
O O11 0.869914 0.098665 0.050418
#
# Coordination Sequence:
#
# PCOD9302855 Si02
#       5
#     8   8   8   8   8
#     4  11  23  42  73 103 142 183 227 293 346 427
#     4  11  22  40  67 109 144 177 225 284 363 408
#     4  12  22  43  66 109 142 175 227 285 362 411
#     4  11  27  51  73  98 139 191 246 282 345 416
#     4  11  26  42  73 104 142 185 230 290 345 422
#
# _framework density 26.033456999999999
#
# number of rings (size 3 to 8) (size 9 to 14) (size 15 to 20)
#    0.000    0.800    4.000    2.400    2.800    0.000 
#    0.000    5.000    0.000    0.000    0.000    0.000 
#    0.000    0.000    0.000    0.000    0.000    0.000 
#
# Total GULP energy -111808.462448 kJ/mol
# GULP energy per Si atom -5590.423122 kJ/mol
# Density = 2.597420 g / cm^3
# Si number density = 26.033457 Si / 1000 Ang^3
#
#
#
# Elastic Constant Matrix: (Units=GPa)
#
#
# Indices 1 2 3 4 5 6 
#
# 1 58.7771 2.7565 25.9830 0.0000 6.3095 0.0000
# 2 2.7565 94.8010 4.1237 0.0000 -0.8550 0.0000
# 3 25.9830 4.1237 141.4021 0.0000 11.9157 0.0000
# 4 0.0000 0.0000 0.0000 36.4992 0.0000 17.3650
# 5 6.3095 -0.8550 11.9157 0.0000 35.8050 0.0000
# 6 0.0000 0.0000 0.0000 17.3650 0.0000 21.1503
#
#
#
# Elastic Compliance Matrix: (Units=1/GPa)
#
#
# Indices 1 2 3 4 5 6 
#
# 1 0.018703 -0.000423 -0.003237 0.000000 -0.002229 0.000000
# 2 -0.000423 0.010576 -0.000266 0.000000 0.000416 0.000000
# 3 -0.003237 -0.000266 0.007847 0.000000 -0.002047 0.000000
# 4 0.000000 0.000000 0.000000 0.044960 0.000000 -0.036913
# 5 -0.002229 0.000416 -0.002047 0.000000 0.029013 0.000000
# 6 0.000000 0.000000 0.000000 -0.036913 0.000000 0.077588
#
#
# Mechanical properties :
#
#
# Convention : Reuss Voigt Hill
#
# Bulk Modulus (GPa) = 34.15829 40.07851 37.11840
# Shear Modulus (GPa) = 24.23694 36.16536 30.20115
#
# Velocity S-wave (km/s) = 3.05453 3.73122 3.40970
# Velocity P-wave (km/s) = 5.05861 5.83019 5.45805
#
# Compressibility (1/GPa) = 0.02927547
#
# Stress axis : x y z
#
# Youngs Moduli (GPa) = 53.46646 94.55353 127.43638
#
# Poissons Ratio (x) = 0.04001 0.41246
# Poissons Ratio (y) = 0.02262 0.03386
# Poissons Ratio (z) = 0.17305 0.02512
#
# Static dielectric constant tensor:
#      x y z
#    x 2.092490 0.000000 -0.018980 
#    y 0.000000 2.027310 0.000000 
#    z -0.018980 0.000000 2.283950 
# 
# From -- ./inp_files/284352.got.cif
#   From: 2010.05.17/outbox.cif.g08.bks.cpg/sg15_143_cif.got.tgz:284352.got - 2010.06.03 18:47:42.
