data_PCOD9302683
_publ_section_title
;
Structure prediction by ZEFSAII (Michael W. Deem and Ramdas Pophale) SiO2 
 PCOD9302683
Probable space group: C 2/C
;
_chemical_formula_sum "Si O2"
_cell_formula_units_Z 56
_cell_length_a 16.851069
_cell_length_b 23.885995
_cell_length_c 8.689095
_cell_angle_alpha 90.000000
_cell_angle_beta 46.166015
_cell_angle_gamma 90.000000
_cell_volume 2522.848134
_symmetry_space_group_name_H-M "C 2/C"
_symmetry_group_IT_number 15
_symmetry_cell_setting 'monoclinic'
loop_
_space_group_symop_operation_xyz
x,y,z
-x,y,1/2-z
-x,-y,-z
x,-y,1/2+z
1/2+x,1/2+y,z
1/2-x,1/2+y,1/2-z
1/2-x,1/2-y,-z
1/2+x,1/2-y,1/2+z
loop_
_atom_site_type_symbol
_atom_site_label
_atom_site_fract_x
_atom_site_fract_y
_atom_site_fract_z
Si Si1 0.209048 0.568015 0.738546
Si Si2 0.956594 0.392123 0.538017
Si Si3 0.805528 0.346977 0.996416
Si Si4 0.383972 0.353086 0.489194
Si Si5 0.331045 0.240321 0.687886
Si Si6 0.744828 0.050604 0.339783
Si Si7 0.894122 0.279466 0.437065
O O1 0.247468 0.619432 0.790829
O O2 0.256582 0.560354 0.504981
O O3 0.244767 0.513271 0.785887
O O4 0.077604 0.582084 0.894775
O O5 0.878513 0.431030 0.541369
O O6 0.940416 0.332215 0.471555
O O7 0.893244 0.384056 0.784569
O O8 0.708067 0.333330 0.010659
O O9 0.868634 0.296502 0.994292
O O10 0.500000 0.362194 0.250000
O O11 0.386679 0.301234 0.605197
O O12 0.330637 0.408596 0.637040
O O13 0.342453 0.209251 0.837209
O O14 0.201034 0.250452 0.841843
O O15 0.000000 0.243766 0.250000
#
# Coordination Sequence:
#
# PCOD9302683 Si02
#       7
#     8   8   8   8   8   8   8
#     4  12  25  42  73  98 139 181 222 292 362 414
#     4  11  22  39  65 103 143 177 220 280 347 423
#     4  11  24  42  64 102 140 178 235 284 347 420
#     4  11  26  46  69  96 136 186 240 292 347 413
#     4  11  24  42  66  98 147 189 232 285 344 417
#     4  11  23  45  65 100 137 174 233 282 344 423
#     4  11  23  38  64 101 144 182 231 279 346 406
#
# _framework density 22.197136
#
# number of rings (size 3 to 8) (size 9 to 14) (size 15 to 20)
#    0.000    0.857    2.857    6.000    4.000    2.286 
#    0.000    3.571    0.000    0.000    0.000    0.000 
#    0.000    0.000    0.000    0.000    0.000    0.000 
#
# Total GULP energy -156313.712850 kJ/mol
# GULP energy per Si atom -5582.632602 kJ/mol
# Density = 2.214661 g / cm^3
# Si number density = 22.197136 Si / 1000 Ang^3
#
#
#
# Elastic Constant Matrix: (Units=GPa)
#
#
# Indices 1 2 3 4 5 6 
#
# 1 51.4669 21.6470 36.5512 0.0000 27.7872 0.0000
# 2 21.6470 98.2374 27.8125 0.0000 5.1771 0.0000
# 3 36.5512 27.8125 119.9069 0.0000 6.0961 0.0000
# 4 0.0000 0.0000 0.0000 20.0416 0.0000 19.9007
# 5 27.7872 5.1771 6.0961 0.0000 31.3220 0.0000
# 6 0.0000 0.0000 0.0000 19.9007 0.0000 21.8910
#
#
#
# Elastic Compliance Matrix: (Units=1/GPa)
#
#
# Indices 1 2 3 4 5 6 
#
# 1 0.056993 -0.006254 -0.013538 0.000000 -0.046892 0.000000
# 2 -0.006254 0.011636 -0.000986 0.000000 0.003817 0.000000
# 3 -0.013538 -0.000986 0.012197 0.000000 0.009800 0.000000
# 4 0.000000 0.000000 0.000000 0.512751 0.000000 -0.466132
# 5 -0.046892 0.003817 0.009800 0.000000 0.070988 0.000000
# 6 0.000000 0.000000 0.000000 -0.466132 0.000000 0.469433
#
#
# Mechanical properties :
#
#
# Convention : Reuss Voigt Hill
#
# Bulk Modulus (GPa) = 25.46655 49.07028 37.26842
# Shear Modulus (GPa) = 4.20647 26.89097 15.54872
#
# Velocity S-wave (km/s) = 1.37810 3.48438 2.64954
# Velocity P-wave (km/s) = 3.74567 6.19213 5.11725
#
# Compressibility (1/GPa) = 0.03926719
#
# Stress axis : x y z
#
# Youngs Moduli (GPa) = 17.54616 85.94231 81.98559
#
# Poissons Ratio (x) = 0.53752 1.10994
# Poissons Ratio (y) = 0.10974 0.08088
# Poissons Ratio (z) = 0.23754 0.08478
#
# Static dielectric constant tensor:
#      x y z
#    x 1.844360 0.000000 0.025330 
#    y 0.000000 1.889920 0.000000 
#    z 0.025330 0.000000 1.865410 
# 
# From -- ./inp_files/42737.got.cif
#   From: 2010.05.17/outbox.cif.g08.bks.cpg/sg15_22_cif.got.tgz:42737.got - 2010.06.03 18:47:42.
