data_PCOD9302346
_publ_section_title
;
Structure prediction by ZEFSAII (Michael W. Deem and Ramdas Pophale) SiO2 
 PCOD9302346
Probable space group: C 2/C
;
_chemical_formula_sum "Si O2"
_cell_formula_units_Z 48
_cell_length_a 17.235986
_cell_length_b 9.592536
_cell_length_c 15.178068
_cell_angle_alpha 90.000000
_cell_angle_beta 88.876761
_cell_angle_gamma 90.000000
_cell_volume 2509.011224
_symmetry_space_group_name_H-M "C 2/C"
_symmetry_group_IT_number 15
_symmetry_cell_setting 'monoclinic'
loop_
_space_group_symop_operation_xyz
x,y,z
-x,y,1/2-z
-x,-y,-z
x,-y,1/2+z
1/2+x,1/2+y,z
1/2-x,1/2+y,1/2-z
1/2-x,1/2-y,-z
1/2+x,1/2-y,1/2+z
loop_
_atom_site_type_symbol
_atom_site_label
_atom_site_fract_x
_atom_site_fract_y
_atom_site_fract_z
Si Si1 0.817175 0.484149 0.282837
Si Si2 0.005781 0.667378 0.500346
Si Si3 0.430315 0.211495 0.688075
Si Si4 0.147720 0.038783 0.210836
Si Si5 0.673103 0.239869 0.560208
Si Si6 0.929458 0.740715 0.318463
O O1 0.861110 0.397743 0.205050
O O2 0.730515 0.515949 0.254787
O O3 0.819198 0.384725 0.368530
O O4 0.864367 0.623944 0.302547
O O5 0.095715 0.711702 0.505387
O O6 0.000000 0.500000 0.500000
O O7 0.962529 0.718076 0.589498
O O8 0.963940 0.724972 0.415207
O O9 0.500000 0.161628 0.750000
O O10 0.402716 0.359738 0.725953
O O11 0.160500 0.122118 0.119383
O O12 0.106223 0.892680 0.196138
O O13 0.750000 0.250000 0.500000
O O14 0.000000 0.716703 0.250000
#
# Coordination Sequence:
#
# PCOD9302346 Si02
#       6
#     8   8   8   8   8   8
#     4  11  23  45  69  96 137 184 223 275 334 413
#     4  12  24  44  74 102 131 183 236 279 333 412
#     4  11  21  46  70  94 137 177 225 277 337 397
#     4  11  26  44  66 102 140 177 216 284 352 392
#     4  11  26  45  66 100 140 178 222 282 348 398
#     4  12  26  42  70 105 132 176 235 277 335 412
#
# _framework density 19.131042000000001
#
# number of rings (size 3 to 8) (size 9 to 14) (size 15 to 20)
#    0.000    0.667    5.000    4.000    7.000    2.000 
#    0.000    2.500    0.000    0.000    0.000    0.000 
#    0.000    0.000    0.000    0.000    0.000    0.000 
#
# Total GULP energy -134309.651459 kJ/mol
# GULP energy per Si atom -5596.235477 kJ/mol
# Density = 1.908750 g / cm^3
# Si number density = 19.131042 Si / 1000 Ang^3
#
#
#
# Elastic Constant Matrix: (Units=GPa)
#
#
# Indices 1 2 3 4 5 6 
#
# 1 130.4944 44.1366 57.6641 0.0000 1.0330 0.0000
# 2 44.1366 117.4934 33.8112 0.0000 -3.3361 0.0000
# 3 57.6641 33.8112 124.6035 0.0000 -10.0319 0.0000
# 4 0.0000 0.0000 0.0000 19.9139 0.0000 -8.8838
# 5 1.0330 -3.3361 -10.0319 0.0000 48.1161 0.0000
# 6 0.0000 0.0000 0.0000 -8.8838 0.0000 61.9529
#
#
#
# Elastic Compliance Matrix: (Units=1/GPa)
#
#
# Indices 1 2 3 4 5 6 
#
# 1 0.010461 -0.002759 -0.004196 0.000000 -0.001291 0.000000
# 2 -0.002759 0.009960 -0.001389 0.000000 0.000460 0.000000
# 3 -0.004196 -0.001389 0.010520 0.000000 0.002187 0.000000
# 4 0.000000 0.000000 0.000000 0.053648 0.000000 0.007693
# 5 -0.001291 0.000460 0.002187 0.000000 0.021299 0.000000
# 6 0.000000 0.000000 0.000000 0.007693 0.000000 0.017244
#
#
# Mechanical properties :
#
#
# Convention : Reuss Voigt Hill
#
# Bulk Modulus (GPa) = 70.15907 71.53501 70.84704
# Shear Modulus (GPa) = 34.58485 41.79520 38.19002
#
# Velocity S-wave (km/s) = 4.25642 4.67913 4.47277
# Velocity P-wave (km/s) = 7.80440 8.16490 7.98668
#
# Compressibility (1/GPa) = 0.01425333
#
# Stress axis : x y z
#
# Youngs Moduli (GPa) = 95.59520 100.39966 95.05272
#
# Poissons Ratio (x) = 0.27697 0.39888
# Poissons Ratio (y) = 0.26371 0.13203
# Poissons Ratio (z) = 0.40116 0.13946
#
# Static dielectric constant tensor:
#      x y z
#    x 1.657110 0.000000 -0.013430 
#    y 0.000000 1.654630 0.000000 
#    z -0.013430 0.000000 1.643040 
# 
# From -- ./inp_files/159709.got.cif
#   From: 2010.05.17/outbox.cif.g08.bks.cpg/sg15_80_cif.got.tgz:159709.got - 2010.06.03 18:47:42.
