data_PCOD9302884
_publ_section_title
;
Structure prediction by ZEFSAII (Michael W. Deem and Ramdas Pophale) SiO2 
 PCOD9302884
Probable space group: C 2/C
;
_chemical_formula_sum "Si O2"
_cell_formula_units_Z 60
_cell_length_a 9.421387
_cell_length_b 21.539659
_cell_length_c 15.626800
_cell_angle_alpha 90.000000
_cell_angle_beta 60.260660
_cell_angle_gamma 90.000000
_cell_volume 2753.525364
_symmetry_space_group_name_H-M "C 2/C"
_symmetry_group_IT_number 15
_symmetry_cell_setting 'monoclinic'
loop_
_space_group_symop_operation_xyz
x,y,z
-x,y,1/2-z
-x,-y,-z
x,-y,1/2+z
1/2+x,1/2+y,z
1/2-x,1/2+y,1/2-z
1/2-x,1/2-y,-z
1/2+x,1/2-y,1/2+z
loop_
_atom_site_type_symbol
_atom_site_label
_atom_site_fract_x
_atom_site_fract_y
_atom_site_fract_z
Si Si1 0.355813 0.282167 0.052431
Si Si2 0.419151 0.299347 0.679958
Si Si3 0.662847 0.917115 0.364031
Si Si4 0.342148 0.853133 0.508223
Si Si5 0.669732 0.904558 0.723182
Si Si6 0.000000 0.481067 0.250000
Si Si7 0.358263 0.304053 0.233864
Si Si8 0.817472 0.044221 0.346003
O O1 0.199014 0.323800 0.072752
O O2 0.425156 0.310391 0.117772
O O3 0.461125 0.285913 0.934765
O O4 0.333008 0.207944 0.071215
O O5 0.500000 0.310312 0.750000
O O6 0.318164 0.358043 0.674528
O O7 0.296817 0.241430 0.725574
O O8 0.520792 0.883032 0.459352
O O9 0.567951 0.941996 0.307991
O O10 0.796082 0.867861 0.293058
O O11 0.751777 0.975067 0.382904
O O12 0.209207 0.906155 0.570550
O O13 0.500000 0.871620 0.750000
O O14 0.690758 0.928736 0.813564
O O15 0.644779 0.969904 0.680164
O O16 0.500000 0.277443 0.250000
O O17 0.000000 0.042418 0.250000
#
# Coordination Sequence:
#
# PCOD9302884 Si02
#       8
#     8   8   8   8   8   4   8   8
#     4  11  24  41  69 106 140 185 242 296 368 434
#     4  12  23  42  71 104 144 185 233 301 363 435
#     4  11  22  44  66  97 141 191 234 295 363 430
#     4  11  22  41  68 107 134 180 243 298 356 441
#     4   9  19  38  60  97 131 177 226 283 345 413
#     4   8  20  36  66  92 124 186 230 276 346 422
#     4  12  27  45  66 100 147 191 234 306 363 423
#     4  11  22  40  68  98 138 185 240 288 349 427
#
# _framework density 21.790247000000001
#
# number of rings (size 3 to 8) (size 9 to 14) (size 15 to 20)
#    0.400    0.800    1.333    6.400    0.933    0.533 
#    2.400    1.333    0.000    5.600    0.000    0.000 
#    0.000    0.000    0.000    0.000    0.000    0.000 
#
# Total GULP energy -167228.367188 kJ/mol
# GULP energy per Si atom -5574.278906 kJ/mol
# Density = 2.174065 g / cm^3
# Si number density = 21.790247 Si / 1000 Ang^3
#
#
#
# Elastic Constant Matrix: (Units=GPa)
#
#
# Indices 1 2 3 4 5 6 
#
# 1 113.8961 30.6903 34.6375 0.0000 -5.1253 0.0000
# 2 30.6903 129.6463 29.6504 0.0000 -24.3976 0.0000
# 3 34.6375 29.6504 82.1056 0.0000 -16.2579 0.0000
# 4 0.0000 0.0000 0.0000 36.8130 0.0000 5.0520
# 5 -5.1253 -24.3976 -16.2579 0.0000 23.0047 0.0000
# 6 0.0000 0.0000 0.0000 5.0520 0.0000 67.7413
#
#
#
# Elastic Compliance Matrix: (Units=1/GPa)
#
#
# Indices 1 2 3 4 5 6 
#
# 1 0.010496 -0.002046 -0.004251 0.000000 -0.002836 0.000000
# 2 -0.002046 0.010242 -0.000901 0.000000 0.009770 0.000000
# 3 -0.004251 -0.000901 0.016186 0.000000 0.009537 0.000000
# 4 0.000000 0.000000 0.000000 0.027445 0.000000 -0.002047
# 5 -0.002836 0.009770 0.009537 0.000000 0.059939 0.000000
# 6 0.000000 0.000000 0.000000 -0.002047 0.000000 0.014915
#
#
# Mechanical properties :
#
#
# Convention : Reuss Voigt Hill
#
# Bulk Modulus (GPa) = 44.38646 57.28940 50.83793
# Shear Modulus (GPa) = 31.03105 40.88980 35.96042
#
# Velocity S-wave (km/s) = 3.77779 4.33658 4.06679
# Velocity P-wave (km/s) = 6.28037 7.17098 6.74040
#
# Compressibility (1/GPa) = 0.02252939
#
# Stress axis : x y z
#
# Youngs Moduli (GPa) = 95.27104 97.63458 61.78048
#
# Poissons Ratio (x) = 0.19978 0.26260
# Poissons Ratio (y) = 0.19495 0.05566
# Poissons Ratio (z) = 0.40496 0.08797
#
# Static dielectric constant tensor:
#      x y z
#    x 1.870710 0.000000 -0.027610 
#    y 0.000000 1.855270 0.000000 
#    z -0.027610 0.000000 1.842400 
# 
# From -- ./inp_files/137800.got.cif
#   From: 2010.05.17/outbox.cif.g08.bks.cpg/sg15_69_cif.got.tgz:137800.got - 2010.06.03 18:47:42.
