data_PCOD9302414
_publ_section_title
;
Structure prediction by ZEFSAII (Michael W. Deem and Ramdas Pophale) SiO2 
 PCOD9302414
Probable space group: C 2/C
;
_chemical_formula_sum "Si O2"
_cell_formula_units_Z 60
_cell_length_a 16.870623
_cell_length_b 23.748991
_cell_length_c 15.731960
_cell_angle_alpha 90.000000
_cell_angle_beta 154.201088
_cell_angle_gamma 90.000000
_cell_volume 2743.228457
_symmetry_space_group_name_H-M "C 2/C"
_symmetry_group_IT_number 15
_symmetry_cell_setting 'monoclinic'
loop_
_space_group_symop_operation_xyz
x,y,z
-x,y,1/2-z
-x,-y,-z
x,-y,1/2+z
1/2+x,1/2+y,z
1/2-x,1/2+y,1/2-z
1/2-x,1/2-y,-z
1/2+x,1/2-y,1/2+z
loop_
_atom_site_type_symbol
_atom_site_label
_atom_site_fract_x
_atom_site_fract_y
_atom_site_fract_z
Si Si1 0.862548 0.081010 0.546271
Si Si2 0.095764 0.805457 0.467172
Si Si3 0.638546 0.242763 0.823677
Si Si4 0.000000 0.591991 0.250000
Si Si5 0.556598 0.434925 0.054165
Si Si6 0.894218 0.358295 0.336204
Si Si7 0.332538 0.818805 0.459654
Si Si8 0.303423 0.655342 0.246801
O O1 0.817340 0.147985 0.510026
O O2 0.664720 0.055311 0.369393
O O3 0.000000 0.061415 0.750000
O O4 0.970289 0.078686 0.562992
O O5 0.116538 0.742203 0.456585
O O6 0.179874 0.816667 0.642189
O O7 0.883389 0.818869 0.258486
O O8 0.381710 0.244917 0.590801
O O9 0.657864 0.182799 0.792982
O O10 0.641605 0.295670 0.763975
O O11 0.077400 0.629581 0.403118
O O12 0.760630 0.410989 0.231579
O O13 0.500000 0.500000 0.000000
O O14 0.441756 0.396504 0.879231
O O15 0.893961 0.320424 0.420917
O O16 0.107772 0.370776 0.535022
#
# Coordination Sequence:
#
# PCOD9302414 Si02
#       8
#     8   8   8   4   8   8   8   8
#     4  11  22  42  64  93 129 174 224 282 342 403
#     4  11  22  35  57  91 135 177 218 259 330 412
#     4  12  24  40  68 108 153 189 235 303 376 450
#     4  12  24  38  62  94 136 174 222 272 340 418
#     4  11  26  48  73  98 133 188 249 296 349 432
#     4  12  23  43  69 100 140 187 233 290 363 431
#     4  12  22  35  58  94 138 180 213 265 334 410
#     4  11  23  42  67 100 139 183 231 288 359 431
#
# _framework density 21.872039000000001
#
# number of rings (size 3 to 8) (size 9 to 14) (size 15 to 20)
#    0.000    0.533    6.667    4.000    0.933    1.600 
#    0.000    2.000    1.467    0.000    0.000    0.000 
#    0.000    0.000    0.000    0.000    0.000    0.000 
#
# Total GULP energy -167096.284297 kJ/mol
# GULP energy per Si atom -5569.876143 kJ/mol
# Density = 2.182226 g / cm^3
# Si number density = 21.872039 Si / 1000 Ang^3
#
#
#
# Elastic Constant Matrix: (Units=GPa)
#
#
# Indices 1 2 3 4 5 6 
#
# 1 97.0166 14.7556 47.2046 0.0000 5.7540 0.0000
# 2 14.7556 87.7027 30.0717 0.0000 4.1415 0.0000
# 3 47.2046 30.0717 159.9348 0.0000 11.0272 -0.0001
# 4 0.0000 0.0000 0.0000 -18.3182 0.0000 -30.7768
# 5 5.7540 4.1415 11.0272 0.0000 43.5929 0.0000
# 6 0.0000 0.0000 -0.0001 -30.7768 0.0000 -33.1088
#
#
#
# Elastic Compliance Matrix: (Units=1/GPa)
#
#
# Indices 1 2 3 4 5 6 
#
# 1 0.012116 -0.000852 -0.003370 0.000000 -0.000666 0.000000
# 2 -0.000852 0.012263 -0.002017 0.000000 -0.000542 0.000000
# 3 -0.003370 -0.002017 0.007717 0.000000 -0.001316 0.000000
# 4 0.000000 0.000000 0.000000 0.097173 0.000000 -0.090329
# 5 -0.000666 -0.000542 -0.001316 0.000000 0.023412 0.000000
# 6 0.000000 0.000000 0.000000 -0.090329 0.000000 0.053763
#
#
# Mechanical properties :
#
#
# Convention : Reuss Voigt Hill
#
# Bulk Modulus (GPa) = 50.97115 58.74644 54.85880
# Shear Modulus (GPa) = 22.17681 15.27465 18.72573
#
# Velocity S-wave (km/s) = 3.18769 2.64553 2.92918
# Velocity P-wave (km/s) = 6.07481 6.02073 6.04783
#
# Compressibility (1/GPa) = 0.01961894
#
# Stress axis : x y z
#
# Youngs Moduli (GPa) = 82.53356 81.54868 129.58111
#
# Poissons Ratio (x) = 0.06944 0.43670
# Poissons Ratio (y) = 0.07028 0.26136
# Poissons Ratio (z) = 0.27815 0.16448
#
# Static dielectric constant tensor:
#      x y z
#    x 1.753790 0.000000 -0.463330 
#    y 0.000000 2.091960 0.000000 
#    z -0.463330 0.000000 -0.267640 
# 
# From -- ./inp_files/253637.got.cif
#   From: 2010.05.17/outbox.cif.g08.bks.cpg/sg15_127_cif.got.tgz:253637.got - 2010.06.03 18:47:42.
