data_PCOD9302592
_publ_section_title
;
Structure prediction by ZEFSAII (Michael W. Deem and Ramdas Pophale) SiO2 
 PCOD9302592
Probable space group: C 2/C
;
_chemical_formula_sum "Si O2"
_cell_formula_units_Z 48
_cell_length_a 24.281166
_cell_length_b 16.088116
_cell_length_c 9.353570
_cell_angle_alpha 90.000000
_cell_angle_beta 42.047932
_cell_angle_gamma 90.000000
_cell_volume 2447.181549
_symmetry_space_group_name_H-M "C 2/C"
_symmetry_group_IT_number 15
_symmetry_cell_setting 'monoclinic'
loop_
_space_group_symop_operation_xyz
x,y,z
-x,y,1/2-z
-x,-y,-z
x,-y,1/2+z
1/2+x,1/2+y,z
1/2-x,1/2+y,1/2-z
1/2-x,1/2-y,-z
1/2+x,1/2-y,1/2+z
loop_
_atom_site_type_symbol
_atom_site_label
_atom_site_fract_x
_atom_site_fract_y
_atom_site_fract_z
Si Si1 0.595852 0.085392 0.602896
Si Si2 0.595743 0.719424 0.106167
Si Si3 0.091216 0.076355 0.616056
Si Si4 0.189324 0.485459 0.649919
Si Si5 0.144677 0.926564 0.693919
Si Si6 0.797922 0.833538 0.369668
O O1 0.500000 0.077116 0.750000
O O2 0.613584 0.183091 0.590896
O O3 0.651687 0.052125 0.365828
O O4 0.620024 0.030959 0.692460
O O5 0.500000 0.710751 0.250000
O O6 0.617455 0.665098 0.202476
O O7 0.649437 0.681922 0.873518
O O8 0.137047 0.060525 0.377991
O O9 0.141288 0.140042 0.618367
O O10 0.000000 0.104033 0.750000
O O11 0.088384 0.991976 0.715170
O O12 0.263103 0.550785 0.531668
O O13 0.233484 0.409272 0.482023
O O14 0.750000 0.750000 0.500000
#
# Coordination Sequence:
#
# PCOD9302592 Si02
#       6
#     8   8   8   8   8   8
#     4  11  24  42  63  86 122 164 210 260 307 368
#     4  11  23  41  63  94 129 164 202 259 319 370
#     4  11  22  39  64  96 130 169 205 251 316 384
#     4  11  22  43  62  89 119 163 212 248 316 368
#     4  11  22  38  66  95 129 160 207 258 312 383
#     4  11  22  42  66  87 129 165 206 262 310 369
#
# _framework density 19.614401999999998
#
# number of rings (size 3 to 8) (size 9 to 14) (size 15 to 20)
#    0.000    1.000    1.667    7.500    0.000    0.667 
#    3.000    0.833    0.000    0.000    0.000    0.000 
#    0.000    0.000    0.000    0.000    0.000    0.000 
#
# Total GULP energy -134218.064285 kJ/mol
# GULP energy per Si atom -5592.419345 kJ/mol
# Density = 1.956976 g / cm^3
# Si number density = 19.614402 Si / 1000 Ang^3
#
#
#
# Elastic Constant Matrix: (Units=GPa)
#
#
# Indices 1 2 3 4 5 6 
#
# 1 76.6116 55.4599 -7.9241 0.0000 -0.2958 0.0000
# 2 55.4599 105.9421 -1.3054 0.0000 -4.2929 0.0000
# 3 -7.9241 -1.3054 52.0182 0.0000 1.7557 0.0000
# 4 0.0000 0.0000 0.0000 20.2979 0.0000 -3.9445
# 5 -0.2958 -4.2929 1.7557 0.0000 32.6574 0.0000
# 6 0.0000 0.0000 0.0000 -3.9445 0.0000 32.2722
#
#
#
# Elastic Compliance Matrix: (Units=1/GPa)
#
#
# Indices 1 2 3 4 5 6 
#
# 1 0.021541 -0.011298 0.003047 0.000000 -0.001454 0.000000
# 2 -0.011298 0.015417 -0.001402 0.000000 0.002000 0.000000
# 3 0.003047 -0.001402 0.019694 0.000000 -0.001215 0.000000
# 4 0.000000 0.000000 0.000000 0.050465 0.000000 0.006168
# 5 -0.001454 0.002000 -0.001215 0.000000 0.030936 0.000000
# 6 0.000000 0.000000 0.000000 0.006168 0.000000 0.031740
#
#
# Mechanical properties :
#
#
# Convention : Reuss Voigt Hill
#
# Bulk Modulus (GPa) = 26.77584 36.33697 31.55641
# Shear Modulus (GPa) = 24.80800 29.60161 27.20481
#
# Velocity S-wave (km/s) = 3.56024 3.88903 3.72826
# Velocity P-wave (km/s) = 5.53002 6.22350 5.88698
#
# Compressibility (1/GPa) = 0.03734710
#
# Stress axis : x y z
#
# Youngs Moduli (GPa) = 46.42287 64.86228 50.77679
#
# Poissons Ratio (x) = 0.73281 -0.15471
# Poissons Ratio (y) = 0.52448 0.07117
# Poissons Ratio (z) = -0.14145 0.09091
#
# Static dielectric constant tensor:
#      x y z
#    x 1.680830 0.000000 -0.008870 
#    y 0.000000 1.674000 0.000000 
#    z -0.008870 0.000000 1.684420 
# 
# From -- ./inp_files/66383.got.cif
#   From: 2010.05.17/outbox.cif.g08.bks.cpg/sg15_34_cif.got.tgz:66383.got - 2010.06.03 18:47:42.
