data_PCOD9302382
_publ_section_title
;
Structure prediction by ZEFSAII (Michael W. Deem and Ramdas Pophale) SiO2 
 PCOD9302382
Probable space group: C 2/C
;
_chemical_formula_sum "Si O2"
_cell_formula_units_Z 56
_cell_length_a 22.716613
_cell_length_b 12.626585
_cell_length_c 28.412003
_cell_angle_alpha 90.000000
_cell_angle_beta 159.261502
_cell_angle_gamma 90.000000
_cell_volume 2885.767365
_symmetry_space_group_name_H-M "C 2/C"
_symmetry_group_IT_number 15
_symmetry_cell_setting 'monoclinic'
loop_
_space_group_symop_operation_xyz
x,y,z
-x,y,1/2-z
-x,-y,-z
x,-y,1/2+z
1/2+x,1/2+y,z
1/2-x,1/2+y,1/2-z
1/2-x,1/2-y,-z
1/2+x,1/2-y,1/2+z
loop_
_atom_site_type_symbol
_atom_site_label
_atom_site_fract_x
_atom_site_fract_y
_atom_site_fract_z
Si Si1 0.751216 0.070725 0.183695
Si Si2 0.372745 0.118916 0.303787
Si Si3 0.042321 0.221610 0.371860
Si Si4 0.348617 0.363896 0.290700
Si Si5 0.341550 0.861648 0.149327
Si Si6 0.988186 0.398484 0.408342
Si Si7 0.873354 0.016883 0.448772
O O1 0.716672 0.099627 0.212380
O O2 0.919507 0.127886 0.295702
O O3 0.767621 0.943148 0.191698
O O4 0.601139 0.111621 0.039150
O O5 0.401230 0.243712 0.321663
O O6 0.261893 0.091580 0.175978
O O7 0.501003 0.020531 0.401247
O O8 0.227095 0.173279 0.519309
O O9 0.941561 0.268403 0.251620
O O10 0.042449 0.317713 0.409208
O O11 0.203013 0.368540 0.221699
O O12 0.513292 0.425144 0.428827
O O13 0.500000 0.930460 0.250000
O O14 0.221293 0.918701 0.097435
O O15 0.000000 0.000000 0.500000
#
# Coordination Sequence:
#
# PCOD9302382 Si02
#       7
#     8   8   8   8   8   8   8
#     4  11  22  35  54  87 129 168 200 261 320 375
#     4  11  22  33  54  86 125 164 206 260 317 381
#     4  12  21  42  66  90 128 168 215 258 321 384
#     4  11  22  33  54  86 125 164 206 260 317 381
#     4  12  26  44  67  95 131 173 215 262 321 391
#     4  11  22  35  54  87 129 168 200 261 320 375
#     4  12  22  40  61  91 126 165 213 261 325 374
#
# _framework density 19.405583
#
# number of rings (size 3 to 8) (size 9 to 14) (size 15 to 20)
#    0.000    0.571    8.571    2.143    4.000    0.000 
#    0.000    0.000    0.000    0.857    0.000    0.000 
#    0.000    0.000    0.000    0.000    0.000    0.000 
#
# Total GULP energy -155888.643925 kJ/mol
# GULP energy per Si atom -5567.451569 kJ/mol
# Density = 1.936142 g / cm^3
# Si number density = 19.405583 Si / 1000 Ang^3
#
#
#
# Elastic Constant Matrix: (Units=GPa)
#
#
# Indices 1 2 3 4 5 6 
#
# 1 45.8869 19.5228 22.6836 -0.0067 -3.1799 0.0030
# 2 19.5228 112.7721 18.8090 -0.0308 5.4828 0.0065
# 3 22.6836 18.8090 121.6558 -0.0637 -2.7043 0.0179
# 4 -0.0067 -0.0308 -0.0637 25.6355 -0.0010 -6.5060
# 5 -3.1799 5.4828 -2.7043 -0.0010 29.3179 0.0045
# 6 0.0030 0.0065 0.0179 -6.5060 0.0045 18.6204
#
#
#
# Elastic Compliance Matrix: (Units=1/GPa)
#
#
# Indices 1 2 3 4 5 6 
#
# 1 0.025713 -0.003917 -0.004119 -0.000009 0.003142 -0.000003
# 2 -0.003917 0.009799 -0.000836 0.000009 -0.002334 0.000002
# 3 -0.004119 -0.000836 0.009130 0.000020 0.000552 -0.000001
# 4 -0.000009 0.000009 0.000020 0.042804 -0.000002 0.014956
# 5 0.003142 -0.002334 0.000552 -0.000002 0.034937 -0.000009
# 6 -0.000003 0.000002 -0.000001 0.014956 -0.000009 0.058930
#
#
# Mechanical properties :
#
#
# Convention : Reuss Voigt Hill
#
# Bulk Modulus (GPa) = 37.18003 44.70506 40.94254
# Shear Modulus (GPa) = 24.03581 29.33471 26.68526
#
# Velocity S-wave (km/s) = 3.52320 3.89223 3.71230
# Velocity P-wave (km/s) = 5.97926 6.57925 6.28642
#
# Compressibility (1/GPa) = 0.02689616
#
# Stress axis : x y z
#
# Youngs Moduli (GPa) = 38.89065 102.05568 109.53480
#
# Poissons Ratio (x) = 0.39977 0.45117
# Poissons Ratio (y) = 0.15234 0.09162
# Poissons Ratio (z) = 0.16019 0.08536
#
# Static dielectric constant tensor:
#      x y z
#    x 1.764040 -0.000010 0.023920 
#    y -0.000010 1.731240 -0.000020 
#    z 0.023920 -0.000020 1.737320 
# 
# From -- ./inp_files/318814.got.cif
#   From: 2010.05.17/outbox.cif.g08.bks.cpg/sg15_160_cif.got.tgz:318814.got - 2010.06.03 18:47:42.
