data_PCOD9302753
_publ_section_title
;
Structure prediction by ZEFSAII (Michael W. Deem and Ramdas Pophale) SiO2 
 PCOD9302753
Probable space group: C 2/C
;
_chemical_formula_sum "Si O2"
_cell_formula_units_Z 44
_cell_length_a 22.222825
_cell_length_b 17.456777
_cell_length_c 14.751755
_cell_angle_alpha 90.000000
_cell_angle_beta 21.668328
_cell_angle_gamma 90.000000
_cell_volume 2113.039624
_symmetry_space_group_name_H-M "C 2/C"
_symmetry_group_IT_number 15
_symmetry_cell_setting 'monoclinic'
loop_
_space_group_symop_operation_xyz
x,y,z
-x,y,1/2-z
-x,-y,-z
x,-y,1/2+z
1/2+x,1/2+y,z
1/2-x,1/2+y,1/2-z
1/2-x,1/2-y,-z
1/2+x,1/2-y,1/2+z
loop_
_atom_site_type_symbol
_atom_site_label
_atom_site_fract_x
_atom_site_fract_y
_atom_site_fract_z
Si Si1 0.741516 0.829337 0.072450
Si Si2 0.500000 0.562053 0.250000
Si Si3 0.925651 0.043183 0.016716
Si Si4 0.244447 0.231704 0.757743
Si Si5 0.412262 0.112499 0.966616
Si Si6 0.597520 0.709725 0.766734
O O1 0.775304 0.825708 0.132502
O O2 0.567197 0.869746 0.311532
O O3 0.750000 0.750000 0.000000
O O4 0.883953 0.886968 0.846914
O O5 0.582348 0.505819 0.063105
O O6 0.035036 0.120869 0.843570
O O7 0.735140 0.057617 0.304811
O O8 0.000000 0.000000 0.000000
O O9 0.434788 0.242860 0.469985
O O10 0.142965 0.217962 0.809399
O O11 0.181855 0.307076 0.897598
O O12 0.500000 0.094456 0.750000
O O13 0.750000 0.750000 0.500000
#
# Coordination Sequence:
#
# PCOD9302753 Si02
#       6
#     8   4   8   8   8   8
#     4  12  23  41  72 108 138 177 247 305 366 435
#     4  12  28  44  72 104 148 196 234 306 382 446
#     4  11  27  48  68 101 153 193 243 301 382 450
#     4  11  22  39  70 104 139 178 244 303 359 423
#     4  11  22  40  70 104 141 189 240 304 363 433
#     4  11  25  44  71 101 141 195 244 298 362 447
#
# _framework density 20.823084000000001
#
# number of rings (size 3 to 8) (size 9 to 14) (size 15 to 20)
#    0.000    0.727    3.636    3.818    7.636    0.727 
#    0.000    7.273    0.000    0.000    0.000    0.000 
#    0.000    0.000    0.000    0.000    0.000    0.000 
#
# Total GULP energy -122493.095075 kJ/mol
# GULP energy per Si atom -5567.867958 kJ/mol
# Density = 2.077569 g / cm^3
# Si number density = 20.823084 Si / 1000 Ang^3
#
#
#
# Elastic Constant Matrix: (Units=GPa)
#
#
# Indices 1 2 3 4 5 6 
#
# 1 96.6470 27.5949 33.2498 -0.0013 2.3942 -0.0001
# 2 27.5949 73.0625 65.8035 -0.0022 7.4129 -0.0012
# 3 33.2498 65.8035 167.6264 -0.0018 -18.8305 -0.0009
# 4 -0.0013 -0.0022 -0.0018 -15.4245 0.0007 -21.4191
# 5 2.3942 7.4129 -18.8305 0.0007 41.0120 0.0004
# 6 -0.0001 -0.0012 -0.0009 -21.4191 0.0004 24.2939
#
#
#
# Elastic Compliance Matrix: (Units=1/GPa)
#
#
# Indices 1 2 3 4 5 6 
#
# 1 0.011696 -0.003433 -0.001032 0.000000 -0.000536 0.000000
# 2 -0.003433 0.025049 -0.010162 -0.000002 -0.008993 -0.000001
# 3 -0.001032 -0.010162 0.010937 0.000000 0.006919 0.000000
# 4 0.000000 -0.000002 0.000000 -0.029147 0.000001 -0.025698
# 5 -0.000536 -0.008993 0.006919 0.000001 0.029217 0.000000
# 6 0.000000 -0.000001 0.000000 -0.025698 0.000000 0.018506
#
#
# Mechanical properties :
#
#
# Convention : Reuss Voigt Hill
#
# Bulk Modulus (GPa) = 54.27241 65.62582 59.94911
# Shear Modulus (GPa) = 49.18611 24.02213 36.60412
#
# Velocity S-wave (km/s) = 4.86541 3.40020 4.19724
# Velocity P-wave (km/s) = 7.59494 6.85561 7.23473
#
# Compressibility (1/GPa) = 0.01842557
#
# Stress axis : x y z
#
# Youngs Moduli (GPa) = 85.50208 39.92213 91.43221
#
# Poissons Ratio (x) = 0.13705 0.09440
# Poissons Ratio (y) = 0.29353 0.92918
# Poissons Ratio (z) = 0.08828 0.40571
#
# Static dielectric constant tensor:
#      x y z
#    x 1.789210 0.000000 0.028720 
#    y 0.000000 1.832760 0.000000 
#    z 0.028720 0.000000 1.850540 
# 
# From -- ./inp_files/174191.got.cif
#   From: 2010.05.17/outbox.cif.g08.bks.cpg/sg15_88_cif.got.tgz:174191.got - 2010.06.03 18:47:42.
