data_PCOD9302561
_publ_section_title
;
Structure prediction by ZEFSAII (Michael W. Deem and Ramdas Pophale) SiO2 
 PCOD9302561
Probable space group: C 2/C
;
_chemical_formula_sum "Si O2"
_cell_formula_units_Z 60
_cell_length_a 26.496570
_cell_length_b 11.897428
_cell_length_c 17.312852
_cell_angle_alpha 90.000000
_cell_angle_beta 148.644577
_cell_angle_gamma 90.000000
_cell_volume 2839.900198
_symmetry_space_group_name_H-M "C 2/C"
_symmetry_group_IT_number 15
_symmetry_cell_setting 'monoclinic'
loop_
_space_group_symop_operation_xyz
x,y,z
-x,y,1/2-z
-x,-y,-z
x,-y,1/2+z
1/2+x,1/2+y,z
1/2-x,1/2+y,1/2-z
1/2-x,1/2-y,-z
1/2+x,1/2-y,1/2+z
loop_
_atom_site_type_symbol
_atom_site_label
_atom_site_fract_x
_atom_site_fract_y
_atom_site_fract_z
Si Si1 0.976146 0.336672 0.898058
Si Si2 0.176855 0.810805 0.241744
Si Si3 0.280730 0.047776 0.399140
Si Si4 0.646944 0.800305 0.388215
Si Si5 0.840139 0.176121 0.371917
Si Si6 0.000000 0.867051 0.750000
Si Si7 0.455718 0.542164 0.027299
Si Si8 0.014593 0.576244 0.915548
O O1 0.888568 0.247832 0.778494
O O2 0.971722 0.451097 0.844212
O O3 0.075513 0.268093 0.018630
O O4 0.976033 0.386144 0.984146
O O5 0.254559 0.723251 0.312134
O O6 0.231137 0.926565 0.333535
O O7 0.103620 0.848802 0.077682
O O8 0.321896 0.082100 0.534441
O O9 0.203446 0.141117 0.268449
O O10 0.375140 0.062016 0.469126
O O11 0.750000 0.750000 0.500000
O O12 0.594912 0.712583 0.378107
O O13 0.559421 0.833229 0.216916
O O14 0.884361 0.058680 0.457825
O O15 0.010705 0.930499 0.680181
O O16 0.500000 0.500000 0.000000
#
# Coordination Sequence:
#
# PCOD9302561 Si02
#       8
#     8   8   8   8   8   4   8   8
#     4  11  22  38  63  93 129 173 227 281 338 419
#     4  11  22  39  66  94 130 178 230 284 345 411
#     4  11  22  39  64  93 128 173 229 276 341 412
#     4  12  26  42  69  97 138 177 222 292 356 406
#     4  11  22  38  65  94 131 176 226 277 345 405
#     4  12  26  46  68 106 142 178 234 296 346 416
#     4  11  25  43  72 100 140 183 236 285 347 425
#     4  11  22  40  62  94 129 171 228 284 337 414
#
# _framework density 21.127503000000001
#
# number of rings (size 3 to 8) (size 9 to 14) (size 15 to 20)
#    0.000    0.800    5.333    2.400    3.733    1.067 
#    0.000    2.000    0.000    0.000    0.000    0.000 
#    0.000    0.000    0.000    0.000    0.000    0.000 
#
# Total GULP energy -167147.579959 kJ/mol
# GULP energy per Si atom -5571.585999 kJ/mol
# Density = 2.107942 g / cm^3
# Si number density = 21.127503 Si / 1000 Ang^3
#
#
#
# Elastic Constant Matrix: (Units=GPa)
#
#
# Indices 1 2 3 4 5 6 
#
# 1 59.2142 16.6864 35.9198 0.0000 16.8573 0.0000
# 2 16.6864 74.6602 31.6364 0.0000 -0.6570 0.0000
# 3 35.9198 31.6364 81.3408 0.0000 14.2216 0.0000
# 4 0.0000 0.0000 0.0000 41.9833 0.0000 12.8378
# 5 16.8573 -0.6570 14.2216 0.0000 29.9306 0.0000
# 6 0.0000 0.0000 0.0000 12.8378 0.0000 25.9418
#
#
#
# Elastic Compliance Matrix: (Units=1/GPa)
#
#
# Indices 1 2 3 4 5 6 
#
# 1 0.025741 -0.002154 -0.008710 0.000000 -0.010406 0.000000
# 2 -0.002154 0.016584 -0.006298 0.000000 0.004570 0.000000
# 3 -0.008710 -0.006298 0.019365 0.000000 -0.004434 0.000000
# 4 0.000000 0.000000 0.000000 0.028066 0.000000 -0.013889
# 5 -0.010406 0.004570 -0.004434 0.000000 0.041479 0.000000
# 6 0.000000 0.000000 0.000000 -0.013889 0.000000 0.045421
#
#
# Mechanical properties :
#
#
# Convention : Reuss Voigt Hill
#
# Bulk Modulus (GPa) = 36.54105 42.63338 39.58722
# Shear Modulus (GPa) = 22.71675 28.30264 25.50969
#
# Velocity S-wave (km/s) = 3.28261 3.66404 3.47856
# Velocity P-wave (km/s) = 5.63032 6.17440 5.90862
#
# Compressibility (1/GPa) = 0.02736648
#
# Stress axis : x y z
#
# Youngs Moduli (GPa) = 38.84882 60.29778 51.63951
#
# Poissons Ratio (x) = 0.12987 0.44978
# Poissons Ratio (y) = 0.08367 0.32523
# Poissons Ratio (z) = 0.33837 0.37976
#
# Static dielectric constant tensor:
#      x y z
#    x 1.794830 0.000000 -0.020690 
#    y 0.000000 1.801890 0.000000 
#    z -0.020690 0.000000 1.789360 
# 
# From -- ./inp_files/222566.got.cif
#   From: 2010.05.17/outbox.cif.g08.bks.cpg/sg15_112_cif.got.tgz:222566.got - 2010.06.03 18:47:42.
