data_PCOD9302001
_publ_section_title
;
Structure prediction by ZEFSAII (Michael W. Deem and Ramdas Pophale) SiO2 
 PCOD9302001
Probable space group: C 2/C
;
_chemical_formula_sum "Si O2"
_cell_formula_units_Z 48
_cell_length_a 4.942127
_cell_length_b 26.737259
_cell_length_c 20.804363
_cell_angle_alpha 90.000000
_cell_angle_beta 128.661716
_cell_angle_gamma 90.000000
_cell_volume 2146.602914
_symmetry_space_group_name_H-M "C 2/C"
_symmetry_group_IT_number 15
_symmetry_cell_setting 'monoclinic'
loop_
_space_group_symop_operation_xyz
x,y,z
-x,y,1/2-z
-x,-y,-z
x,-y,1/2+z
1/2+x,1/2+y,z
1/2-x,1/2+y,1/2-z
1/2-x,1/2-y,-z
1/2+x,1/2-y,1/2+z
loop_
_atom_site_type_symbol
_atom_site_label
_atom_site_fract_x
_atom_site_fract_y
_atom_site_fract_z
Si Si1 0.000000 0.082339 0.750000
Si Si2 0.740747 0.286837 0.155782
Si Si3 0.096163 0.340118 0.103752
Si Si4 0.406861 0.103968 0.447429
Si Si5 0.000000 0.511909 0.750000
Si Si6 0.636004 0.538395 0.074420
Si Si7 0.086291 0.821377 0.694096
O O1 0.258020 0.118841 0.825611
O O2 0.188972 0.047536 0.726456
O O3 0.365699 0.294816 0.130742
O O4 0.000000 0.307159 0.250000
O O5 0.774214 0.316378 0.093829
O O6 0.877464 0.231063 0.163075
O O7 0.061947 0.368336 0.031878
O O8 0.679153 0.085305 0.434427
O O9 0.211790 0.054714 0.441432
O O10 0.098116 0.141093 0.380878
O O11 0.884780 0.482051 0.668507
O O12 0.500000 0.500000 0.000000
O O13 0.500000 0.814298 0.750000
O O14 0.000000 0.844881 0.750000
#
# Coordination Sequence:
#
# PCOD9302001 Si02
#       7
#     4   8   8   8   4   8   8
#     4  12  22  42  66 103 130 167 234 276 346 420
#     4  11  21  41  65 101 137 184 222 278 336 405
#     4  12  23  40  70 101 139 175 224 281 346 401
#     4  12  27  44  70 102 138 182 230 290 339 415
#     4  12  26  42  72  93 132 185 222 286 354 420
#     4  12  26  48  69 101 140 176 234 294 357 410
#     4  11  25  44  69  98 142 187 235 278 333 407
#
# _framework density 22.360914000000001
#
# number of rings (size 3 to 8) (size 9 to 14) (size 15 to 20)
#    0.000    0.333    1.667    8.500    3.500    1.333 
#    0.000    0.000    0.000    0.000    0.000    0.000 
#    0.000    0.000    0.000    0.000    0.000    0.000 
#
# Total GULP energy -134103.012832 kJ/mol
# GULP energy per Si atom -5587.625535 kJ/mol
# Density = 2.231002 g / cm^3
# Si number density = 22.360914 Si / 1000 Ang^3
#
#
#
# Elastic Constant Matrix: (Units=GPa)
#
#
# Indices 1 2 3 4 5 6 
#
# 1 69.1694 3.0590 -8.7020 0.0000 -19.9847 0.0000
# 2 3.0590 62.3455 42.2588 0.0000 -11.1423 0.0000
# 3 -8.7020 42.2588 106.7489 0.0000 -21.9373 0.0000
# 4 0.0000 0.0000 0.0000 20.9545 0.0000 -3.4382
# 5 -19.9847 -11.1423 -21.9373 0.0000 29.9504 0.0000
# 6 0.0000 0.0000 0.0000 -3.4382 0.0000 -11.3740
#
#
#
# Elastic Compliance Matrix: (Units=1/GPa)
#
#
# Indices 1 2 3 4 5 6 
#
# 1 0.020243 -0.001963 0.005948 0.000000 0.017134 0.000000
# 2 -0.001963 0.022227 -0.008863 0.000000 0.000468 0.000000
# 3 0.005948 -0.008863 0.015891 0.000000 0.012311 0.000000
# 4 0.000000 0.000000 0.000000 0.045467 0.000000 -0.013744
# 5 0.017134 0.000468 0.012311 0.000000 0.054013 0.000000
# 6 0.000000 0.000000 0.000000 -0.013744 0.000000 -0.083765
#
#
# Mechanical properties :
#
#
# Convention : Reuss Voigt Hill
#
# Bulk Modulus (GPa) = 20.57367 34.61059 27.59213
# Shear Modulus (GPa) = 49.98358 21.34938 35.66648
#
# Velocity S-wave (km/s) = 4.73304 3.09328 3.99812
# Velocity P-wave (km/s) = 6.25216 5.31691 5.80341
#
# Compressibility (1/GPa) = 0.04860582
#
# Stress axis : x y z
#
# Youngs Moduli (GPa) = 49.40043 44.99044 62.92762
#
# Poissons Ratio (x) = 0.08831 -0.37431
# Poissons Ratio (y) = 0.09697 0.55772
# Poissons Ratio (z) = -0.29385 0.39875
#
# Static dielectric constant tensor:
#      x y z
#    x 1.784640 0.000000 -0.006910 
#    y 0.000000 1.834730 0.000000 
#    z -0.006910 0.000000 1.851140 
# 
# From -- ./inp_files/228261.got.cif
#   From: 2010.05.17/outbox.cif.g08.bks.cpg/sg15_115_cif.got.tgz:228261.got - 2010.06.03 18:47:42.
