data_PCOD9302709
_publ_section_title
;
Structure prediction by ZEFSAII (Michael W. Deem and Ramdas Pophale) SiO2 
 PCOD9302709
Probable space group: C 2/C
;
_chemical_formula_sum "Si O2"
_cell_formula_units_Z 48
_cell_length_a 8.702616
_cell_length_b 14.430152
_cell_length_c 27.835356
_cell_angle_alpha 90.000000
_cell_angle_beta 38.607932
_cell_angle_gamma 90.000000
_cell_volume 2181.190483
_symmetry_space_group_name_H-M "C 2/C"
_symmetry_group_IT_number 15
_symmetry_cell_setting 'monoclinic'
loop_
_space_group_symop_operation_xyz
x,y,z
-x,y,1/2-z
-x,-y,-z
x,-y,1/2+z
1/2+x,1/2+y,z
1/2-x,1/2+y,1/2-z
1/2-x,1/2-y,-z
1/2+x,1/2-y,1/2+z
loop_
_atom_site_type_symbol
_atom_site_label
_atom_site_fract_x
_atom_site_fract_y
_atom_site_fract_z
Si Si1 0.272590 0.800753 0.887232
Si Si2 0.364553 0.520771 0.329919
Si Si3 0.063266 0.622293 0.551910
Si Si4 0.571834 0.627778 0.948300
Si Si5 0.264166 0.229409 0.170189
Si Si6 0.959633 0.949191 0.612483
O O1 0.547799 0.770890 0.831375
O O2 0.245259 0.875062 0.851847
O O3 0.089596 0.715052 0.921907
O O4 0.167053 0.852188 0.960736
O O5 0.500000 0.481138 0.250000
O O6 0.285302 0.625144 0.335914
O O7 0.543989 0.520727 0.331789
O O8 0.128426 0.461102 0.401066
O O9 0.203908 0.625149 0.568543
O O10 0.278866 0.602528 0.460910
O O11 0.615172 0.710845 0.901083
O O12 0.549524 0.534774 0.922395
O O13 0.000000 0.269145 0.250000
#
# Coordination Sequence:
#
# PCOD9302709 Si02
#       6
#     8   8   8   8   8   8
#     4  11  22  41  67  96 127 165 209 261 313 372
#     4  11  24  42  61  89 127 170 213 259 312 374
#     4  11  22  39  66  98 128 162 208 260 312 377
#     4  11  22  39  66  98 128 162 208 260 312 377
#     4  11  24  42  61  89 127 170 213 259 312 374
#     4  11  22  41  67  96 127 165 209 261 313 372
#
# _framework density 22.006330999999999
#
# number of rings (size 3 to 8) (size 9 to 14) (size 15 to 20)
#    0.000    1.000    0.000   10.000    0.000    2.667 
#    0.000   10.000    0.000    0.000    0.000    0.000 
#    0.000    0.000    0.000    0.000    0.000    0.000 
#
# Total GULP energy -134392.255744 kJ/mol
# GULP energy per Si atom -5599.677323 kJ/mol
# Density = 2.195624 g / cm^3
# Si number density = 22.006331 Si / 1000 Ang^3
#
#
#
# Elastic Constant Matrix: (Units=GPa)
#
#
# Indices 1 2 3 4 5 6 
#
# 1 149.6927 19.3187 52.4279 -0.0026 3.7538 -0.0026
# 2 19.3187 72.1667 1.8734 -0.0022 -0.1362 -0.0032
# 3 52.4279 1.8734 53.1500 0.0100 -1.6752 -0.0078
# 4 -0.0026 -0.0022 0.0100 -12.0862 0.0026 2.8770
# 5 3.7538 -0.1362 -1.6752 0.0026 -1.6782 0.0050
# 6 -0.0026 -0.0032 -0.0078 2.8770 0.0050 44.8187
#
#
#
# Elastic Compliance Matrix: (Units=1/GPa)
#
#
# Indices 1 2 3 4 5 6 
#
# 1 0.009030 -0.002158 -0.007939 -0.000003 0.028298 -0.000004
# 2 -0.002158 0.014384 0.001389 -0.000002 -0.007380 0.000002
# 3 -0.007939 0.001389 0.025240 0.000015 -0.043066 0.000008
# 4 -0.000003 -0.000002 0.000015 -0.081494 -0.000133 0.005231
# 5 0.028298 -0.007380 -0.043066 -0.000133 -0.488991 0.000057
# 6 -0.000004 0.000002 0.000008 0.005231 0.000057 0.021976
#
#
# Mechanical properties :
#
#
# Convention : Reuss Voigt Hill
#
# Bulk Modulus (GPa) = 32.01259 46.91660 39.46460
# Shear Modulus (GPa) = -10.59263 19.63682 4.52210
#
# Velocity S-wave (km/s) = -2.19634 2.99042 1.43505
# Velocity P-wave (km/s) = 2.85424 5.76970 4.55171
#
# Compressibility (1/GPa) = 0.03123771
#
# Stress axis : x y z
#
# Youngs Moduli (GPa) = 110.74502 69.51949 39.62035
#
# Poissons Ratio (x) = 0.15001 0.31455
# Poissons Ratio (y) = 0.23896 -0.05503
# Poissons Ratio (z) = 0.87921 -0.09655
#
# Static dielectric constant tensor:
#      x y z
#    x 1.820060 0.000000 0.001100 
#    y 0.000000 1.798650 0.000000 
#    z 0.001100 0.000000 1.795030 
# 
# From -- ./inp_files/288991.got.cif
#   From: 2010.05.17/outbox.cif.g08.bks.cpg/sg15_145_cif.got.tgz:288991.got - 2010.06.03 18:47:42.
