data_PCOD9302713
_publ_section_title
;
Structure prediction by ZEFSAII (Michael W. Deem and Ramdas Pophale) SiO2 
 PCOD9302713
Probable space group: C 2/C
;
_chemical_formula_sum "Si O2"
_cell_formula_units_Z 44
_cell_length_a 6.733237
_cell_length_b 21.835232
_cell_length_c 18.345404
_cell_angle_alpha 90.000000
_cell_angle_beta 127.769958
_cell_angle_gamma 90.000000
_cell_volume 2132.052179
_symmetry_space_group_name_H-M "C 2/C"
_symmetry_group_IT_number 15
_symmetry_cell_setting 'monoclinic'
loop_
_space_group_symop_operation_xyz
x,y,z
-x,y,1/2-z
-x,-y,-z
x,-y,1/2+z
1/2+x,1/2+y,z
1/2-x,1/2+y,1/2-z
1/2-x,1/2-y,-z
1/2+x,1/2-y,1/2+z
loop_
_atom_site_type_symbol
_atom_site_label
_atom_site_fract_x
_atom_site_fract_y
_atom_site_fract_z
Si Si1 0.670074 0.826962 0.421442
Si Si2 0.891559 0.658848 0.293437
Si Si3 0.000000 0.750524 0.750000
Si Si4 0.838880 0.755738 0.936684
Si Si5 0.247643 0.546371 0.144921
Si Si6 0.252814 0.465089 0.472761
O O1 0.647733 0.793391 0.338327
O O2 0.430651 0.806012 0.416826
O O3 0.708455 0.899077 0.426383
O O4 0.919162 0.799254 0.513321
O O5 0.650350 0.702027 0.233165
O O6 0.840838 0.613479 0.348400
O O7 0.000000 0.620315 0.250000
O O8 0.107603 0.708607 0.351325
O O9 0.750000 0.750000 0.000000
O O10 0.500000 0.532104 0.250000
O O11 0.004373 0.502794 0.099337
O O12 0.296306 0.545300 0.069317
O O13 0.500000 0.500000 0.500000
#
# Coordination Sequence:
#
# PCOD9302713 Si02
#       6
#     8   8   4   8   8   8
#     4  11  25  41  66 101 137 177 229 283 345 421
#     4  12  24  42  70 101 136 180 230 284 352 413
#     4  12  24  42  62 110 140 170 238 286 342 436
#     4  11  22  39  66  98 137 175 214 282 356 404
#     4  11  27  46  73 104 138 182 246 296 338 430
#     4  11  27  50  70 101 142 190 240 291 354 415
#
# _framework density 20.637391999999998
#
# number of rings (size 3 to 8) (size 9 to 14) (size 15 to 20)
#    0.000    0.727    4.545    2.182    7.636    2.909 
#    3.273    0.000    0.000    0.000    0.000    0.000 
#    0.000    0.000    0.000    0.000    0.000    0.000 
#
# Total GULP energy -122724.233388 kJ/mol
# GULP energy per Si atom -5578.374245 kJ/mol
# Density = 2.059042 g / cm^3
# Si number density = 20.637392 Si / 1000 Ang^3
#
#
#
# Elastic Constant Matrix: (Units=GPa)
#
#
# Indices 1 2 3 4 5 6 
#
# 1 135.2963 53.8241 38.4060 0.0000 -7.1143 0.0000
# 2 53.8241 134.2098 23.8922 0.0000 -0.4167 0.0000
# 3 38.4060 23.8922 91.2225 0.0000 5.2705 0.0000
# 4 0.0000 0.0000 0.0000 27.5446 0.0000 1.7542
# 5 -7.1143 -0.4167 5.2705 0.0000 37.0884 0.0000
# 6 0.0000 0.0000 0.0000 1.7542 0.0000 35.4931
#
#
#
# Elastic Compliance Matrix: (Units=1/GPa)
#
#
# Indices 1 2 3 4 5 6 
#
# 1 0.009795 -0.003318 -0.003389 0.000000 0.002323 0.000000
# 2 -0.003318 0.008945 -0.000922 0.000000 -0.000405 0.000000
# 3 -0.003389 -0.000922 0.012774 0.000000 -0.002476 0.000000
# 4 0.000000 0.000000 0.000000 0.036419 0.000000 -0.001800
# 5 0.002323 -0.000405 -0.002476 0.000000 0.027756 0.000000
# 6 0.000000 0.000000 0.000000 -0.001800 0.000000 0.028263
#
#
# Mechanical properties :
#
#
# Convention : Reuss Voigt Hill
#
# Bulk Modulus (GPa) = 61.52071 65.88590 63.70330
# Shear Modulus (GPa) = 34.57116 36.33231 35.45173
#
# Velocity S-wave (km/s) = 4.09733 4.20039 4.14918
# Velocity P-wave (km/s) = 7.22905 7.45112 7.34092
#
# Compressibility (1/GPa) = 0.01625469
#
# Stress axis : x y z
#
# Youngs Moduli (GPa) = 102.08934 111.79976 78.28544
#
# Poissons Ratio (x) = 0.37093 0.26533
# Poissons Ratio (y) = 0.33871 0.07221
# Poissons Ratio (z) = 0.34601 0.10313
#
# Static dielectric constant tensor:
#      x y z
#    x 2.113860 0.000000 -0.187440 
#    y 0.000000 1.724460 0.000000 
#    z -0.187440 0.000000 1.895360 
# 
# From -- ./inp_files/185581.got.cif
#   From: 2010.05.17/outbox.cif.g08.bks.cpg/sg15_93_cif.got.tgz:185581.got - 2010.06.03 18:47:42.
