data_PCOD9302171
_publ_section_title
;
Structure prediction by ZEFSAII (Michael W. Deem and Ramdas Pophale) SiO2 
 PCOD9302171
Probable space group: C 2/C
;
_chemical_formula_sum "Si O2"
_cell_formula_units_Z 32
_cell_length_a 24.565660
_cell_length_b 13.369517
_cell_length_c 10.097415
_cell_angle_alpha 90.000000
_cell_angle_beta 27.218221
_cell_angle_gamma 90.000000
_cell_volume 1516.813711
_symmetry_space_group_name_H-M "C 2/C"
_symmetry_group_IT_number 15
_symmetry_cell_setting 'monoclinic'
loop_
_space_group_symop_operation_xyz
x,y,z
-x,y,1/2-z
-x,-y,-z
x,-y,1/2+z
1/2+x,1/2+y,z
1/2-x,1/2+y,1/2-z
1/2-x,1/2-y,-z
1/2+x,1/2-y,1/2+z
loop_
_atom_site_type_symbol
_atom_site_label
_atom_site_fract_x
_atom_site_fract_y
_atom_site_fract_z
Si Si1 0.643373 0.174830 0.776011
Si Si2 0.880868 0.934424 0.418154
Si Si3 0.876274 0.291700 0.874840
Si Si4 0.242996 0.976789 0.067973
O O1 0.750000 0.250000 0.500000
O O2 0.667856 0.065669 0.664208
O O3 0.633755 0.164814 0.955042
O O4 0.511256 0.214039 0.026909
O O5 0.837912 0.821602 0.485477
O O6 0.864315 0.981218 0.307645
O O7 0.000000 0.925867 0.250000
O O8 0.800063 0.997165 0.692338
O O9 0.802160 0.367672 0.945546
#
# Coordination Sequence:
#
# PCOD9302171 Si02
#       4
#     8   8   8   8
#     4  11  21  42  71  94 134 178 213 275 341 387
#     4  12  24  43  67  96 135 175 220 281 336 393
#     4  11  23  43  68  95 134 176 221 275 331 397
#     4  12  24  42  69  99 130 175 229 271 331 403
#
# _framework density 21.096855000000001
#
# number of rings (size 3 to 8) (size 9 to 14) (size 15 to 20)
#    0.000    0.500    7.500    2.250    0.000    0.000 
#    0.000    0.000    0.000    0.000    0.000    0.000 
#    0.000    0.000    0.000    0.000    0.000    0.000 
#
# Total GULP energy -89148.715219 kJ/mol
# GULP energy per Si atom -5571.794701 kJ/mol
# Density = 2.104884 g / cm^3
# Si number density = 21.096855 Si / 1000 Ang^3
#
#
#
# Elastic Constant Matrix: (Units=GPa)
#
#
# Indices 1 2 3 4 5 6 
#
# 1 117.0518 34.7550 55.0578 0.0000 -4.5398 0.0000
# 2 34.7550 94.7208 38.8772 0.0000 -6.1633 0.0000
# 3 55.0578 38.8772 83.8930 0.0000 -11.1793 0.0000
# 4 0.0000 0.0000 0.0000 27.0826 0.0000 5.9241
# 5 -4.5398 -6.1633 -11.1793 0.0000 15.3967 0.0000
# 6 0.0000 0.0000 0.0000 5.9241 0.0000 33.9029
#
#
#
# Elastic Compliance Matrix: (Units=1/GPa)
#
#
# Indices 1 2 3 4 5 6 
#
# 1 0.012627 -0.001555 -0.007920 0.000000 -0.002650 0.000000
# 2 -0.001555 0.013240 -0.004949 0.000000 0.001248 0.000000
# 3 -0.007920 -0.004949 0.020853 0.000000 0.010825 0.000000
# 4 0.000000 0.000000 0.000000 0.038391 0.000000 -0.006708
# 5 -0.002650 0.001248 0.010825 0.000000 0.072527 0.000000
# 6 0.000000 0.000000 0.000000 -0.006708 0.000000 0.030668
#
#
# Mechanical properties :
#
#
# Convention : Reuss Voigt Hill
#
# Bulk Modulus (GPa) = 55.94711 61.44951 58.69831
# Shear Modulus (GPa) = 22.41018 26.40816 24.40917
#
# Velocity S-wave (km/s) = 3.26276 3.54186 3.40517
# Velocity P-wave (km/s) = 6.38521 6.77620 6.58361
#
# Compressibility (1/GPa) = 0.01787402
#
# Stress axis : x y z
#
# Youngs Moduli (GPa) = 79.19326 75.52653 47.95405
#
# Poissons Ratio (x) = 0.11745 0.37977
# Poissons Ratio (y) = 0.12316 0.23732
# Poissons Ratio (z) = 0.62717 0.37377
#
# Static dielectric constant tensor:
#      x y z
#    x 1.833740 0.000000 -0.039510 
#    y 0.000000 1.741570 0.000000 
#    z -0.039510 0.000000 1.765300 
# 
# From -- ./inp_files/61347.got.cif
#   From: 2010.05.17/outbox.cif.g08.bks.cpg/sg15_31_cif.got.tgz:61347.got - 2010.06.03 18:47:42.
