data_PCOD9302693
_publ_section_title
;
Structure prediction by ZEFSAII (Michael W. Deem and Ramdas Pophale) SiO2 
 PCOD9302693
Probable space group: C 2/C
;
_chemical_formula_sum "Si O2"
_cell_formula_units_Z 64
_cell_length_a 8.829536
_cell_length_b 15.912029
_cell_length_c 22.405277
_cell_angle_alpha 90.000000
_cell_angle_beta 90.000000
_cell_angle_gamma 90.000000
_cell_volume 3147.848053
_symmetry_space_group_name_H-M "C 2/C"
_symmetry_group_IT_number 15
_symmetry_cell_setting 'monoclinic'
loop_
_space_group_symop_operation_xyz
x,y,z
-x,y,1/2-z
-x,-y,-z
x,-y,1/2+z
1/2+x,1/2+y,z
1/2-x,1/2+y,1/2-z
1/2-x,1/2-y,-z
1/2+x,1/2-y,1/2+z
loop_
_atom_site_type_symbol
_atom_site_label
_atom_site_fract_x
_atom_site_fract_y
_atom_site_fract_z
Si Si1 0.430378 0.915177 0.816199
Si Si2 0.919423 0.252062 0.629705
Si Si3 0.707691 0.387836 1.000000
Si Si4 0.105400 0.921473 0.131985
Si Si5 0.569621 0.915178 0.316199
Si Si6 0.394600 0.421472 0.631986
Si Si7 0.995882 0.718914 0.500000
Si Si8 0.919423 0.252062 0.370295
O O1 0.500000 0.914209 0.750000
O O2 0.484195 0.828088 0.844022
O O3 0.250306 0.919212 0.824709
O O4 0.500000 1.000000 0.845314
O O5 0.750001 0.250000 0.655454
O O6 0.008655 0.164467 0.636499
O O7 0.910205 0.275347 0.559940
O O8 0.664701 0.430244 0.936971
O O9 0.611718 0.301248 1.000000
O O10 0.664701 0.430245 0.063028
O O11 0.883087 0.360567 0.000000
O O12 0.250307 0.919212 0.175290
O O13 0.000000 0.000000 0.145990
O O14 0.500000 0.914210 0.250000
O O15 0.515803 0.828089 0.344022
O O16 0.491346 0.335533 0.636499
O O17 0.089795 0.724653 0.559940
#
# Coordination Sequence:
#
# PCOD9302693 Si02
#       8
#     8   8   8   8   8   8   8   8
#     4  11  25  45  64  89 123 165 219 275 320 378
#     4  11  22  39  65  96 131 170 210 259 317 384
#     4   9  17  34  64  97 132 170 206 253 320 389
#     4  11  22  41  68  98 132 168 210 263 324 387
#     4  11  25  45  64  89 123 165 219 275 320 378
#     4  11  22  41  68  98 132 168 210 263 324 387
#     4   9  17  34  60  95 134 170 204 253 314 379
#     4  11  22  39  65  96 131 170 210 259 317 384
#
# _framework density 20.331351000000002
#
# number of rings (size 3 to 8) (size 9 to 14) (size 15 to 20)
#    0.000    1.500    2.500    3.000    0.000    2.000 
#    0.000   12.500    0.000    0.000    0.000    0.000 
#    0.000    0.000    0.000    0.000    0.000    0.000 
#
# Total GULP energy -178647.754186 kJ/mol
# GULP energy per Si atom -5582.742318 kJ/mol
# Density = 2.028508 g / cm^3
# Si number density = 20.331351 Si / 1000 Ang^3
#
#
#
# Elastic Constant Matrix: (Units=GPa)
#
#
# Indices 1 2 3 4 5 6 
#
# 1 180.3692 77.9885 46.1952 0.0000 -0.0048 0.0000
# 2 77.9885 159.7163 38.5667 0.0000 -0.0037 0.0000
# 3 46.1952 38.5667 76.8345 0.0000 -0.0030 0.0000
# 4 0.0000 0.0000 0.0000 9.7193 0.0000 -0.0002
# 5 -0.0048 -0.0037 -0.0030 0.0000 -34.8766 0.0000
# 6 0.0000 0.0000 0.0000 -0.0002 0.0000 36.8283
#
#
#
# Elastic Compliance Matrix: (Units=1/GPa)
#
#
# Indices 1 2 3 4 5 6 
#
# 1 0.007622 -0.002976 -0.003089 0.000000 0.000000 0.000000
# 2 -0.002976 0.008287 -0.002370 0.000000 0.000000 0.000000
# 3 -0.003089 -0.002370 0.016062 0.000000 -0.000001 0.000000
# 4 0.000000 0.000000 0.000000 0.102889 0.000000 0.000001
# 5 0.000000 0.000000 -0.000001 0.000000 -0.028672 0.000000
# 6 0.000000 0.000000 0.000000 0.000001 0.000000 0.027153
#
#
# Mechanical properties :
#
#
# Convention : Reuss Voigt Hill
#
# Bulk Modulus (GPa) = 66.22304 82.49121 74.35712
# Shear Modulus (GPa) = 32.20760 19.27882 25.74321
#
# Velocity S-wave (km/s) = 3.98444 3.08268 3.56221
# Velocity P-wave (km/s) = 7.33555 7.30288 7.31923
#
# Compressibility (1/GPa) = 0.01510048
#
# Stress axis : x y z
#
# Youngs Moduli (GPa) = 131.19886 120.67739 62.25952
#
# Poissons Ratio (x) = 0.35913 0.19231
# Poissons Ratio (y) = 0.39044 0.14757
# Poissons Ratio (z) = 0.40525 0.28603
#
# Static dielectric constant tensor:
#      x y z
#    x 1.709050 0.000000 0.000000 
#    y 0.000000 1.706440 0.000000 
#    z 0.000000 0.000000 1.794590 
# 
# From -- ./inp_files/264700.got.cif
#   From: 2010.05.17/outbox.cif.g08.bks.cpg/sg15_133_cif.got.tgz:264700.got - 2010.06.03 18:47:42.
