data_PCOD9302242
_publ_section_title
;
Structure prediction by ZEFSAII (Michael W. Deem and Ramdas Pophale) SiO2 
 PCOD9302242
Probable space group: C 2/C
;
_chemical_formula_sum "Si O2"
_cell_formula_units_Z 56
_cell_length_a 26.934392
_cell_length_b 13.243418
_cell_length_c 11.080066
_cell_angle_alpha 90.000000
_cell_angle_beta 41.718308
_cell_angle_gamma 90.000000
_cell_volume 2630.130958
_symmetry_space_group_name_H-M "C 2/C"
_symmetry_group_IT_number 15
_symmetry_cell_setting 'monoclinic'
loop_
_space_group_symop_operation_xyz
x,y,z
-x,y,1/2-z
-x,-y,-z
x,-y,1/2+z
1/2+x,1/2+y,z
1/2-x,1/2+y,1/2-z
1/2-x,1/2-y,-z
1/2+x,1/2-y,1/2+z
loop_
_atom_site_type_symbol
_atom_site_label
_atom_site_fract_x
_atom_site_fract_y
_atom_site_fract_z
Si Si1 0.500000 0.878309 0.250000
Si Si2 0.120781 0.487824 0.138958
Si Si3 0.661659 0.649925 0.396870
Si Si4 0.201717 0.731298 0.203966
Si Si5 0.701962 0.167993 0.660071
Si Si6 0.000000 0.211389 0.750000
Si Si7 0.771181 0.941636 0.247147
Si Si8 0.959747 0.339084 0.584701
O O1 0.575196 0.944295 0.108713
O O2 0.502871 0.828099 0.377988
O O3 0.151729 0.396366 0.162144
O O4 0.060046 0.551541 0.323234
O O5 0.192767 0.548432 0.961441
O O6 0.741762 0.663231 0.320502
O O7 0.660001 0.755825 0.326743
O O8 0.578791 0.649963 0.604711
O O9 0.678290 0.538635 0.314231
O O10 0.189027 0.838208 0.289992
O O11 0.123045 0.693325 0.303755
O O12 0.250000 0.750000 0.000000
O O13 0.750000 0.250000 0.500000
O O14 0.748236 0.083419 0.650579
O O15 0.008043 0.276839 0.859444
#
# Coordination Sequence:
#
# PCOD9302242 Si02
#       8
#     4   8   8   8   8   4   8   8
#     4  12  27  38  65 102 148 176 217 278 347 430
#     4  12  22  42  67 102 137 183 220 283 356 414
#     4  11  23  43  66 102 138 177 236 285 345 415
#     4  11  21  43  72  96 127 180 236 287 334 404
#     4  11  23  40  67 101 135 171 225 297 347 400
#     4  12  25  46  71  98 148 196 225 286 351 424
#     4  11  24  40  70 100 130 175 239 288 338 410
#     4  12  25  45  71 101 143 183 233 281 351 415
#
# _framework density 21.291716000000001
#
# number of rings (size 3 to 8) (size 9 to 14) (size 15 to 20)
#    0.000    0.571    4.286    5.143    2.000    0.000 
#    0.000    1.429    0.000    0.000    0.000    0.000 
#    0.000    0.000    0.000    0.000    0.000    0.000 
#
# Total GULP energy -155978.818145 kJ/mol
# GULP energy per Si atom -5570.672077 kJ/mol
# Density = 2.124326 g / cm^3
# Si number density = 21.291716 Si / 1000 Ang^3
#
#
#
# Elastic Constant Matrix: (Units=GPa)
#
#
# Indices 1 2 3 4 5 6 
#
# 1 115.6003 20.0240 19.8270 0.0000 -4.6135 0.0000
# 2 20.0240 52.2199 2.3663 0.0000 -2.9191 0.0000
# 3 19.8270 2.3663 91.0378 0.0000 -2.4826 0.0000
# 4 0.0000 0.0000 0.0000 18.7924 0.0000 3.5089
# 5 -4.6135 -2.9191 -2.4826 0.0000 34.7042 0.0000
# 6 0.0000 0.0000 0.0000 3.5089 0.0000 29.4432
#
#
#
# Elastic Compliance Matrix: (Units=1/GPa)
#
#
# Indices 1 2 3 4 5 6 
#
# 1 0.009641 -0.003560 -0.001984 0.000000 0.000840 0.000000
# 2 -0.003560 0.020574 0.000275 0.000000 0.001277 0.000000
# 3 -0.001984 0.000275 0.011425 0.000000 0.000577 0.000000
# 4 0.000000 0.000000 0.000000 0.054424 0.000000 -0.006486
# 5 0.000840 0.001277 0.000577 0.000000 0.029075 0.000000
# 6 0.000000 0.000000 0.000000 -0.006486 0.000000 0.034737
#
#
# Mechanical properties :
#
#
# Convention : Reuss Voigt Hill
#
# Bulk Modulus (GPa) = 32.15204 38.14361 35.14783
# Shear Modulus (GPa) = 27.65775 31.03068 29.34421
#
# Velocity S-wave (km/s) = 3.60806 3.82174 3.71644
# Velocity P-wave (km/s) = 5.70009 6.11784 5.91265
#
# Compressibility (1/GPa) = 0.03110223
#
# Stress axis : x y z
#
# Youngs Moduli (GPa) = 103.72347 48.60547 87.52608
#
# Poissons Ratio (x) = 0.17304 0.17367
# Poissons Ratio (y) = 0.36926 -0.02410
# Poissons Ratio (z) = 0.20581 -0.01339
#
# Static dielectric constant tensor:
#      x y z
#    x 1.231170 0.000000 0.131110 
#    y 0.000000 1.649140 0.000000 
#    z 0.131110 0.000000 1.847700 
# 
# From -- ./inp_files/123328.got.cif
#   From: 2010.05.17/outbox.cif.g08.bks.cpg/sg15_62_cif.got.tgz:123328.got - 2010.06.03 18:47:42.
