data_PCOD9302303
_publ_section_title
;
Structure prediction by ZEFSAII (Michael W. Deem and Ramdas Pophale) SiO2 
 PCOD9302303
Probable space group: C 2/C
;
_chemical_formula_sum "Si O2"
_cell_formula_units_Z 48
_cell_length_a 25.612781
_cell_length_b 15.549884
_cell_length_c 11.603764
_cell_angle_alpha 90.000000
_cell_angle_beta 32.174259
_cell_angle_gamma 90.000000
_cell_volume 2460.929507
_symmetry_space_group_name_H-M "C 2/C"
_symmetry_group_IT_number 15
_symmetry_cell_setting 'monoclinic'
loop_
_space_group_symop_operation_xyz
x,y,z
-x,y,1/2-z
-x,-y,-z
x,-y,1/2+z
1/2+x,1/2+y,z
1/2-x,1/2+y,1/2-z
1/2-x,1/2-y,-z
1/2+x,1/2-y,1/2+z
loop_
_atom_site_type_symbol
_atom_site_label
_atom_site_fract_x
_atom_site_fract_y
_atom_site_fract_z
Si Si1 0.623213 0.849046 0.590696
Si Si2 0.152370 0.216767 0.123003
Si Si3 0.469789 0.152512 0.985165
Si Si4 0.500000 0.302157 0.250000
Si Si5 0.002600 0.101037 0.506562
Si Si6 0.840149 0.196145 0.658672
Si Si7 0.000000 0.497920 0.250000
O O1 0.557935 0.852854 0.828831
O O2 0.589646 0.766022 0.579037
O O3 0.736551 0.832398 0.404742
O O4 0.593286 0.937883 0.585350
O O5 0.108400 0.136937 0.274367
O O6 0.067471 0.289930 0.286163
O O7 0.250000 0.250000 0.000000
O O8 0.166875 0.186483 0.965096
O O9 0.377747 0.206245 0.106194
O O10 0.486525 0.064424 0.885205
O O11 0.515799 0.360413 0.332319
O O12 0.924255 0.140814 0.563636
O O13 0.000000 0.000000 0.500000
#
# Coordination Sequence:
#
# PCOD9302303 Si02
#       7
#     8   8   8   4   8   8   4
#     4  11  24  42  67 101 132 176 226 275 343 401
#     4  11  23  43  73  95 132 179 227 270 345 406
#     4  11  21  45  67  96 135 175 223 279 337 400
#     4  11  22  42  69  92 134 170 223 272 338 399
#     4  11  25  43  66  98 134 177 223 282 333 403
#     4  11  23  44  70  95 133 177 224 273 347 403
#     4  11  24  42  67  96 140 174 225 288 330 397
#
# _framework density 19.504825
#
# number of rings (size 3 to 8) (size 9 to 14) (size 15 to 20)
#    0.000    1.000    5.000    3.500    4.667    1.333 
#    6.000    0.000    0.000    0.000    0.000    0.000 
#    0.000    0.000    0.000    0.000    0.000    0.000 
#
# Total GULP energy -133986.901546 kJ/mol
# GULP energy per Si atom -5582.787564 kJ/mol
# Density = 1.946043 g / cm^3
# Si number density = 19.504825 Si / 1000 Ang^3
#
#
#
# Elastic Constant Matrix: (Units=GPa)
#
#
# Indices 1 2 3 4 5 6 
#
# 1 117.9036 54.2041 50.1670 0.0000 0.8651 0.0000
# 2 54.2041 160.5806 44.1432 0.0000 -3.7894 0.0000
# 3 50.1670 44.1432 93.8910 0.0000 -5.4821 0.0000
# 4 0.0000 0.0000 0.0000 24.0055 0.0000 4.0957
# 5 0.8651 -3.7894 -5.4821 0.0000 41.0422 0.0000
# 6 0.0000 0.0000 0.0000 4.0957 0.0000 27.3184
#
#
#
# Elastic Compliance Matrix: (Units=1/GPa)
#
#
# Indices 1 2 3 4 5 6 
#
# 1 0.011906 -0.002617 -0.005200 0.000000 -0.001187 0.000000
# 2 -0.002617 0.007729 -0.002208 0.000000 0.000474 0.000000
# 3 -0.005200 -0.002208 0.014575 0.000000 0.001853 0.000000
# 4 0.000000 0.000000 0.000000 0.042751 0.000000 -0.006409
# 5 -0.001187 0.000474 0.001853 0.000000 0.024681 0.000000
# 6 0.000000 0.000000 0.000000 -0.006409 0.000000 0.037566
#
#
# Mechanical properties :
#
#
# Convention : Reuss Voigt Hill
#
# Bulk Modulus (GPa) = 70.62267 74.37820 72.50043
# Shear Modulus (GPa) = 30.49160 33.39728 31.94444
#
# Velocity S-wave (km/s) = 3.95813 4.14243 4.05133
# Velocity P-wave (km/s) = 7.56144 7.81637 7.68996
#
# Compressibility (1/GPa) = 0.01415976
#
# Stress axis : x y z
#
# Youngs Moduli (GPa) = 83.98959 129.38346 68.60892
#
# Poissons Ratio (x) = 0.33865 0.35679
# Poissons Ratio (y) = 0.21983 0.15146
# Poissons Ratio (z) = 0.43678 0.28563
#
# Static dielectric constant tensor:
#      x y z
#    x 1.737720 0.000000 0.075950 
#    y 0.000000 1.681020 0.000000 
#    z 0.075950 0.000000 1.843400 
# 
# From -- ./inp_files/123470.got.cif
#   From: 2010.05.17/outbox.cif.g08.bks.cpg/sg15_62_cif.got.tgz:123470.got - 2010.06.03 18:47:42.
