data_PCOD9302496
_publ_section_title
;
Structure prediction by ZEFSAII (Michael W. Deem and Ramdas Pophale) SiO2 
 PCOD9302496
Probable space group: C 2/C
;
_chemical_formula_sum "Si O2"
_cell_formula_units_Z 48
_cell_length_a 9.089860
_cell_length_b 22.123625
_cell_length_c 13.462223
_cell_angle_alpha 90.000000
_cell_angle_beta 114.366044
_cell_angle_gamma 90.000000
_cell_volume 2466.121501
_symmetry_space_group_name_H-M "C 2/C"
_symmetry_group_IT_number 15
_symmetry_cell_setting 'monoclinic'
loop_
_space_group_symop_operation_xyz
x,y,z
-x,y,1/2-z
-x,-y,-z
x,-y,1/2+z
1/2+x,1/2+y,z
1/2-x,1/2+y,1/2-z
1/2-x,1/2-y,-z
1/2+x,1/2-y,1/2+z
loop_
_atom_site_type_symbol
_atom_site_label
_atom_site_fract_x
_atom_site_fract_y
_atom_site_fract_z
Si Si1 0.302720 0.583809 0.906329
Si Si2 0.361648 0.312856 0.292698
Si Si3 0.345265 0.583292 0.142746
Si Si4 0.858199 0.503473 0.790378
Si Si5 0.460462 0.871361 0.387838
Si Si6 0.310398 0.792892 0.926785
O O1 0.409255 0.636250 0.887710
O O2 0.280135 0.531015 0.820245
O O3 0.125871 0.616551 0.870779
O O4 0.351683 0.563265 0.029487
O O5 0.500000 0.309959 0.250000
O O6 0.191149 0.335103 0.198743
O O7 0.339193 0.249860 0.341918
O O8 0.500000 0.567559 0.250000
O O9 0.197253 0.552123 0.159136
O O10 0.320142 0.655245 0.130746
O O11 0.901957 0.558992 0.877128
O O12 0.000000 0.490510 0.750000
O O13 0.531442 0.831191 0.496646
O O14 0.250000 0.750000 0.000000
#
# Coordination Sequence:
#
# PCOD9302496 Si02
#       6
#     8   8   8   8   8   8
#     4   9  20  41  63  86 120 178 209 239 329 393
#     4  11  22  37  62  95 124 158 214 263 315 375
#     4  11  24  39  64  96 124 167 217 270 317 374
#     4   9  20  39  63  90 125 166 216 258 316 387
#     4   9  20  40  66  85 123 178 209 245 321 394
#     4  11  23  38  64  90 122 173 218 256 315 389
#
# _framework density 19.463761999999999
#
# number of rings (size 3 to 8) (size 9 to 14) (size 15 to 20)
#    0.000    2.000    3.333    1.500    2.333   10.667 
#    0.000    3.333    0.000    0.000    0.000    0.000 
#    0.000    0.000    0.000    0.000    0.000    0.000 
#
# Total GULP energy -133702.243634 kJ/mol
# GULP energy per Si atom -5570.926818 kJ/mol
# Density = 1.941946 g / cm^3
# Si number density = 19.463762 Si / 1000 Ang^3
#
#
#
# Elastic Constant Matrix: (Units=GPa)
#
#
# Indices 1 2 3 4 5 6 
#
# 1 55.6304 30.6368 35.5445 0.0000 -4.9963 0.0000
# 2 30.6368 88.8972 20.8272 0.0000 -13.7186 0.0000
# 3 35.5445 20.8272 78.8342 0.0000 7.3391 0.0000
# 4 0.0000 0.0000 0.0000 24.8905 0.0000 -11.3354
# 5 -4.9963 -13.7186 7.3391 0.0000 28.7502 0.0000
# 6 0.0000 0.0000 0.0000 -11.3354 0.0000 20.0687
#
#
#
# Elastic Compliance Matrix: (Units=1/GPa)
#
#
# Indices 1 2 3 4 5 6 
#
# 1 0.029895 -0.006652 -0.012200 0.000000 0.005135 0.000000
# 2 -0.006652 0.014874 -0.001520 0.000000 0.006329 0.000000
# 3 -0.012200 -0.001520 0.019311 0.000000 -0.007775 0.000000
# 4 0.000000 0.000000 0.000000 0.054089 0.000000 0.030551
# 5 0.005135 0.006329 -0.007775 0.000000 0.040680 0.000000
# 6 0.000000 0.000000 0.000000 0.030551 0.000000 0.067085
#
#
# Mechanical properties :
#
#
# Convention : Reuss Voigt Hill
#
# Bulk Modulus (GPa) = 42.84983 44.15318 43.50150
# Shear Modulus (GPa) = 18.21780 23.83209 21.02494
#
# Velocity S-wave (km/s) = 3.06271 3.50299 3.29022
# Velocity P-wave (km/s) = 5.87962 6.25262 6.06899
#
# Compressibility (1/GPa) = 0.02333732
#
# Stress axis : x y z
#
# Youngs Moduli (GPa) = 33.44998 67.23028 51.78486
#
# Poissons Ratio (x) = 0.44723 0.63176
# Poissons Ratio (y) = 0.22252 0.07869
# Poissons Ratio (z) = 0.40808 0.10216
#
# Static dielectric constant tensor:
#      x y z
#    x 1.688300 0.000000 0.024470 
#    y 0.000000 1.685850 0.000000 
#    z 0.024470 0.000000 1.732640 
# 
# From -- ./inp_files/136949.got.cif
#   From: 2010.05.17/outbox.cif.g08.bks.cpg/sg15_69_cif.got.tgz:136949.got - 2010.06.03 18:47:42.
