data_PCOD9302035
_publ_section_title
;
Structure prediction by ZEFSAII (Michael W. Deem and Ramdas Pophale) SiO2 
 PCOD9302035
Probable space group: C 2/C
;
_chemical_formula_sum "Si O2"
_cell_formula_units_Z 52
_cell_length_a 26.326658
_cell_length_b 11.605541
_cell_length_c 9.820471
_cell_angle_alpha 90.000000
_cell_angle_beta 58.023370
_cell_angle_gamma 90.000000
_cell_volume 2545.215521
_symmetry_space_group_name_H-M "C 2/C"
_symmetry_group_IT_number 15
_symmetry_cell_setting 'monoclinic'
loop_
_space_group_symop_operation_xyz
x,y,z
-x,y,1/2-z
-x,-y,-z
x,-y,1/2+z
1/2+x,1/2+y,z
1/2-x,1/2+y,1/2-z
1/2-x,1/2-y,-z
1/2+x,1/2-y,1/2+z
loop_
_atom_site_type_symbol
_atom_site_label
_atom_site_fract_x
_atom_site_fract_y
_atom_site_fract_z
Si Si1 0.878894 0.459662 0.487857
Si Si2 0.500000 0.273905 0.250000
Si Si3 0.051173 0.437419 0.843392
Si Si4 0.625419 0.388426 0.014205
Si Si5 0.681571 0.440885 0.223089
Si Si6 0.776728 0.374045 0.480233
Si Si7 0.297509 0.163646 0.652529
O O1 0.897392 0.432713 0.614756
O O2 0.932514 0.481091 0.307104
O O3 0.833523 0.365700 0.496609
O O4 0.842218 0.578495 0.510772
O O5 0.470726 0.185984 0.181309
O O6 0.555859 0.347281 0.109523
O O7 0.000000 0.500000 0.000000
O O8 0.642279 0.407296 0.148607
O O9 0.642882 0.501311 0.899674
O O10 0.669649 0.286327 0.897238
O O11 0.729009 0.340747 0.198169
O O12 0.727707 0.539293 0.106416
O O13 0.750000 0.250000 0.500000
O O14 0.796051 0.401357 0.299793
#
# Coordination Sequence:
#
# PCOD9302035 Si02
#       7
#     8   4   8   8   8   8   8
#     4  11  23  38  66  96 139 169 211 284 343 400
#     4  12  28  44  70  94 136 194 228 278 324 404
#     4  12  21  41  64  97 127 176 231 276 330 380
#     4  12  25  47  69  96 137 177 236 274 341 407
#     4  11  25  42  70  99 135 179 221 284 342 406
#     4  11  22  37  64 104 136 168 213 273 348 398
#     4  11  21  41  68 102 135 171 218 285 348 406
#
# _framework density 20.430492000000001
#
# number of rings (size 3 to 8) (size 9 to 14) (size 15 to 20)
#    0.000    0.615    7.692    0.462    0.000    1.846 
#    0.000    0.000    0.000    0.000    0.000    0.000 
#    0.000    0.000    0.000    0.000    0.000    0.000 
#
# Total GULP energy -144998.311909 kJ/mol
# GULP energy per Si atom -5576.858150 kJ/mol
# Density = 2.038399 g / cm^3
# Si number density = 20.430492 Si / 1000 Ang^3
#
#
#
# Elastic Constant Matrix: (Units=GPa)
#
#
# Indices 1 2 3 4 5 6 
#
# 1 134.8437 25.7902 40.3477 0.0000 10.6482 0.0000
# 2 25.7902 30.1731 17.5461 0.0000 -17.9845 0.0000
# 3 40.3477 17.5461 96.2054 0.0000 -0.1136 0.0000
# 4 0.0000 0.0000 0.0000 26.7333 0.0000 3.8131
# 5 10.6482 -17.9845 -0.1136 0.0000 41.0792 0.0000
# 6 0.0000 0.0000 0.0000 3.8131 0.0000 30.2749
#
#
#
# Elastic Compliance Matrix: (Units=1/GPa)
#
#
# Indices 1 2 3 4 5 6 
#
# 1 0.011467 -0.013862 -0.002292 0.000000 -0.009047 0.000000
# 2 -0.013862 0.069064 -0.006743 0.000000 0.033811 0.000000
# 3 -0.002292 -0.006743 0.012583 0.000000 -0.002323 0.000000
# 4 0.000000 0.000000 0.000000 0.038091 0.000000 -0.004798
# 5 -0.009047 0.033811 -0.002323 0.000000 0.041484 0.000000
# 6 0.000000 0.000000 0.000000 -0.004798 0.000000 0.033635
#
#
# Mechanical properties :
#
#
# Convention : Reuss Voigt Hill
#
# Bulk Modulus (GPa) = 21.13202 47.62113 34.37658
# Shear Modulus (GPa) = 18.66439 31.45335 25.05887
#
# Velocity S-wave (km/s) = 3.02579 3.92794 3.50600
# Velocity P-wave (km/s) = 4.75111 6.62805 5.76646
#
# Compressibility (1/GPa) = 0.04732155
#
# Stress axis : x y z
#
# Youngs Moduli (GPa) = 87.20386 14.47940 79.47470
#
# Poissons Ratio (x) = 0.20071 0.18215
# Poissons Ratio (y) = 1.20878 0.53587
# Poissons Ratio (z) = 0.19986 0.09763
#
# Static dielectric constant tensor:
#      x y z
#    x 1.748690 0.000000 -0.179670 
#    y 0.000000 1.986630 0.000000 
#    z -0.179670 0.000000 1.090360 
# 
# From -- ./inp_files/61663.got.cif
#   From: 2010.05.17/outbox.cif.g08.bks.cpg/sg15_31_cif.got.tgz:61663.got - 2010.06.03 18:47:42.
