data_PCOD9302702
_publ_section_title
;
Structure prediction by ZEFSAII (Michael W. Deem and Ramdas Pophale) SiO2 
 PCOD9302702
Probable space group: C 2/C
;
_chemical_formula_sum "Si O2"
_cell_formula_units_Z 40
_cell_length_a 15.100395
_cell_length_b 7.395524
_cell_length_c 12.893963
_cell_angle_alpha 90.000000
_cell_angle_beta 81.910634
_cell_angle_gamma 90.000000
_cell_volume 1425.609941
_symmetry_space_group_name_H-M "C 2/C"
_symmetry_group_IT_number 15
_symmetry_cell_setting 'monoclinic'
loop_
_space_group_symop_operation_xyz
x,y,z
-x,y,1/2-z
-x,-y,-z
x,-y,1/2+z
1/2+x,1/2+y,z
1/2-x,1/2+y,1/2-z
1/2-x,1/2-y,-z
1/2+x,1/2-y,1/2+z
loop_
_atom_site_type_symbol
_atom_site_label
_atom_site_fract_x
_atom_site_fract_y
_atom_site_fract_z
Si Si1 0.858436 0.773925 0.031103
Si Si2 0.322796 0.096753 0.464460
Si Si3 0.573943 0.629009 0.433232
Si Si4 0.336451 0.232080 0.249181
Si Si5 0.362518 0.356329 0.797110
O O1 0.799036 0.594836 0.019633
O O2 0.892243 0.791291 0.906177
O O3 0.898383 0.711459 0.137512
O O4 0.844181 0.981999 0.069243
O O5 0.250000 0.250000 0.500000
O O6 0.408350 0.187806 0.507949
O O7 0.344633 0.088621 0.339269
O O8 0.500000 0.500000 0.500000
O O9 0.574418 0.674428 0.312283
O O10 0.353513 0.424927 0.300602
O O11 0.234767 0.221900 0.221775
#
# Coordination Sequence:
#
# PCOD9302702 Si02
#       5
#     8   8   8   8   8
#     4  11  26  42  71 104 143 187 240 302 367 430
#     4  12  24  44  73 106 141 185 243 307 369 432
#     4  11  27  48  70 101 145 198 246 295 366 444
#     4  11  22  39  66 109 141 174 239 305 363 424
#     4  11  22  41  70 101 146 184 234 305 362 424
#
# _framework density 28.058166
#
# number of rings (size 3 to 8) (size 9 to 14) (size 15 to 20)
#    0.000    0.800    4.000    3.000    5.600    1.600 
#    0.000    0.000    8.800    0.000    0.000    0.000 
#    0.000    0.000    0.000    0.000    0.000    0.000 
#
# Total GULP energy -111540.551325 kJ/mol
# GULP energy per Si atom -5577.027566 kJ/mol
# Density = 2.799430 g / cm^3
# Si number density = 28.058166 Si / 1000 Ang^3
#
#
#
# Elastic Constant Matrix: (Units=GPa)
#
#
# Indices 1 2 3 4 5 6 
#
# 1 40.8794 20.0675 48.9412 0.0000 -16.7926 0.0000
# 2 20.0675 125.5504 42.7170 0.0000 8.0175 0.0000
# 3 48.9412 42.7170 315.8219 0.0000 19.1693 0.0000
# 4 0.0000 0.0000 0.0000 51.7622 0.0000 10.1898
# 5 -16.7926 8.0175 19.1693 0.0000 42.4367 0.0000
# 6 0.0000 0.0000 0.0000 10.1898 0.0000 28.0660
#
#
#
# Elastic Compliance Matrix: (Units=1/GPa)
#
#
# Indices 1 2 3 4 5 6 
#
# 1 0.046148 -0.006219 -0.007701 0.000000 0.022915 0.000000
# 2 -0.006219 0.009237 -0.000031 0.000000 -0.004192 0.000000
# 3 -0.007701 -0.000031 0.004677 0.000000 -0.005154 0.000000
# 4 0.000000 0.000000 0.000000 0.020806 0.000000 -0.007554
# 5 0.022915 -0.004192 -0.005154 0.000000 0.035752 0.000000
# 6 0.000000 0.000000 0.000000 -0.007554 0.000000 0.038373
#
#
# Mechanical properties :
#
#
# Convention : Reuss Voigt Hill
#
# Bulk Modulus (GPa) = 31.09534 78.41148 54.75341
# Shear Modulus (GPa) = 25.82433 49.15470 37.48951
#
# Velocity S-wave (km/s) = 3.03708 4.19009 3.65928
# Velocity P-wave (km/s) = 4.83787 7.17049 6.11641
#
# Compressibility (1/GPa) = 0.03215916
#
# Stress axis : x y z
#
# Youngs Moduli (GPa) = 21.66945 108.25659 213.82294
#
# Poissons Ratio (x) = 0.67328 1.64664
# Poissons Ratio (y) = 0.13477 0.00667
# Poissons Ratio (z) = 0.16688 0.00338
#
# Static dielectric constant tensor:
#      x y z
#    x 2.729270 0.000000 -0.139920 
#    y 0.000000 2.132810 0.000000 
#    z -0.139920 0.000000 2.203320 
# 
# From -- ./inp_files/109587.got.cif
#   From: 2010.05.17/outbox.cif.g08.bks.cpg/sg15_55_cif.got.tgz:109587.got - 2010.06.03 18:47:42.
