data_PCOD9302162
_publ_section_title
;
Structure prediction by ZEFSAII (Michael W. Deem and Ramdas Pophale) SiO2 
 PCOD9302162
Probable space group: C 2/C
;
_chemical_formula_sum "Si O2"
_cell_formula_units_Z 44
_cell_length_a 17.348285
_cell_length_b 18.212529
_cell_length_c 9.355843
_cell_angle_alpha 90.000000
_cell_angle_beta 130.740465
_cell_angle_gamma 90.000000
_cell_volume 2239.710507
_symmetry_space_group_name_H-M "C 2/C"
_symmetry_group_IT_number 15
_symmetry_cell_setting 'monoclinic'
loop_
_space_group_symop_operation_xyz
x,y,z
-x,y,1/2-z
-x,-y,-z
x,-y,1/2+z
1/2+x,1/2+y,z
1/2-x,1/2+y,1/2-z
1/2-x,1/2-y,-z
1/2+x,1/2-y,1/2+z
loop_
_atom_site_type_symbol
_atom_site_label
_atom_site_fract_x
_atom_site_fract_y
_atom_site_fract_z
Si Si1 0.149176 0.222838 0.455121
Si Si2 0.208699 0.057893 0.579183
Si Si3 0.593972 0.467095 0.207684
Si Si4 0.491827 0.228556 0.968856
Si Si5 0.552949 0.063089 0.658582
Si Si6 0.000000 0.171457 0.750000
O O1 0.250000 0.250000 0.500000
O O2 0.172706 0.141393 0.531600
O O3 0.069945 0.229643 0.229629
O O4 0.106427 0.266249 0.541846
O O5 0.189227 0.032474 0.716304
O O6 0.326230 0.049453 0.679581
O O7 0.129617 0.016478 0.381629
O O8 0.569759 0.387122 0.246239
O O9 0.500000 0.500000 0.000000
O O10 0.460536 0.143346 0.930602
O O11 0.468822 0.272243 0.086037
O O12 0.500000 0.066781 0.750000
O O13 0.500000 0.000000 0.500000
#
# Coordination Sequence:
#
# PCOD9302162 Si02
#       6
#     8   8   8   8   8   4
#     4  11  21  42  70  93 126 174 227 273 331 407
#     4  12  24  42  69 101 132 181 226 272 345 406
#     4  12  24  42  67 104 142 174 218 283 343 413
#     4  11  24  43  68  96 133 173 223 284 340 395
#     4  12  26  49  68  96 135 182 231 281 335 407
#     4  12  24  42  64 104 138 172 216 280 352 390
#
# _framework density 19.645396000000002
#
# number of rings (size 3 to 8) (size 9 to 14) (size 15 to 20)
#    0.000    0.364    7.273    2.182    3.818    0.000 
#    0.000    1.818    0.000    0.000    0.000    0.000 
#    0.000    0.000    0.000    0.000    0.000    0.000 
#
# Total GULP energy -122660.781474 kJ/mol
# GULP energy per Si atom -5575.490067 kJ/mol
# Density = 1.960068 g / cm^3
# Si number density = 19.645396 Si / 1000 Ang^3
#
#
#
# Elastic Constant Matrix: (Units=GPa)
#
#
# Indices 1 2 3 4 5 6 
#
# 1 123.8850 17.4460 44.3548 0.0000 -7.2594 0.0000
# 2 17.4460 69.3082 44.2121 0.0000 0.7087 0.0000
# 3 44.3548 44.2121 89.0835 0.0000 -8.0830 0.0000
# 4 0.0000 0.0000 0.0000 39.2250 0.0000 -4.2206
# 5 -7.2594 0.7087 -8.0830 0.0000 36.0122 0.0000
# 6 0.0000 0.0000 0.0000 -4.2206 0.0000 31.3496
#
#
#
# Elastic Compliance Matrix: (Units=1/GPa)
#
#
# Indices 1 2 3 4 5 6 
#
# 1 0.009887 0.000875 -0.005285 0.000000 0.000790 0.000000
# 2 0.000875 0.021475 -0.011347 0.000000 -0.002793 0.000000
# 3 -0.005285 -0.011347 0.019816 0.000000 0.003606 0.000000
# 4 0.000000 0.000000 0.000000 0.025869 0.000000 0.003483
# 5 0.000790 -0.002793 0.003606 0.000000 0.028792 0.000000
# 6 0.000000 0.000000 0.000000 0.003483 0.000000 0.032367
#
#
# Mechanical properties :
#
#
# Convention : Reuss Voigt Hill
#
# Bulk Modulus (GPa) = 50.85771 54.92250 52.89010
# Shear Modulus (GPa) = 28.36468 33.06828 30.71648
#
# Velocity S-wave (km/s) = 3.80390 4.10720 3.95846
# Velocity P-wave (km/s) = 6.72584 7.10702 6.91906
#
# Compressibility (1/GPa) = 0.01966270
#
# Stress axis : x y z
#
# Youngs Moduli (GPa) = 101.13833 46.56575 50.46495
#
# Poissons Ratio (x) = -0.04073 0.26673
# Poissons Ratio (y) = -0.08847 0.57263
# Poissons Ratio (z) = 0.53456 0.52838
#
# Static dielectric constant tensor:
#      x y z
#    x 2.289810 0.000000 -0.205250 
#    y 0.000000 1.673150 0.000000 
#    z -0.205250 0.000000 1.730110 
# 
# From -- ./inp_files/39546.got.cif
#   From: 2010.05.17/outbox.cif.g08.bks.cpg/sg15_20_cif.got.tgz:39546.got - 2010.06.03 18:47:42.
