data_PCOD9302718
_publ_section_title
;
Structure prediction by ZEFSAII (Michael W. Deem and Ramdas Pophale) SiO2 
 PCOD9302718
Probable space group: C 2/C
;
_chemical_formula_sum "Si O2"
_cell_formula_units_Z 48
_cell_length_a 8.663755
_cell_length_b 11.350380
_cell_length_c 19.988804
_cell_angle_alpha 90.000000
_cell_angle_beta 101.507731
_cell_angle_gamma 90.000000
_cell_volume 1926.123606
_symmetry_space_group_name_H-M "C 2/C"
_symmetry_group_IT_number 15
_symmetry_cell_setting 'monoclinic'
loop_
_space_group_symop_operation_xyz
x,y,z
-x,y,1/2-z
-x,-y,-z
x,-y,1/2+z
1/2+x,1/2+y,z
1/2-x,1/2+y,1/2-z
1/2-x,1/2-y,-z
1/2+x,1/2-y,1/2+z
loop_
_atom_site_type_symbol
_atom_site_label
_atom_site_fract_x
_atom_site_fract_y
_atom_site_fract_z
Si Si1 0.685186 0.030934 0.162650
Si Si2 0.352887 0.911624 0.150051
Si Si3 0.159596 0.897492 0.554536
Si Si4 0.862754 0.227408 0.792683
Si Si5 0.823896 0.180170 0.066984
Si Si6 0.852596 0.831105 0.101200
O O1 0.717271 0.142892 0.214075
O O2 0.695920 0.097894 0.091477
O O3 0.514580 0.982283 0.166309
O O4 0.801590 0.924443 0.153655
O O5 0.382336 0.782445 0.122206
O O6 0.263196 0.878481 0.211395
O O7 0.242029 0.987531 0.091405
O O8 0.173131 0.878740 0.476077
O O9 0.246299 0.785704 0.595956
O O10 0.977237 0.891872 0.558534
O O11 0.968335 0.206039 0.868868
O O12 0.000000 0.227197 0.750000
O O13 0.750000 0.250000 0.000000
#
# Coordination Sequence:
#
# PCOD9302718 Si02
#       6
#     8   8   8   8   8   8
#     4  11  23  42  66  95 129 170 218 266 327 385
#     4  11  23  41  67  95 130 168 218 273 329 389
#     4  11  22  39  67 100 137 170 213 266 329 400
#     4  11  26  47  67  91 127 173 225 274 328 390
#     4  11  23  36  60  97 135 174 210 257 325 395
#     4  11  23  40  67  99 133 175 214 266 330 387
#
# _framework density 24.92052
#
# number of rings (size 3 to 8) (size 9 to 14) (size 15 to 20)
#    0.000    1.000    3.333    4.000    2.333    4.667 
#    0.000    0.000    0.000    0.000    0.000    0.000 
#    0.000    0.000    0.000    0.000    0.000    0.000 
#
# Total GULP energy -134244.074721 kJ/mol
# GULP energy per Si atom -5593.503113 kJ/mol
# Density = 2.486380 g / cm^3
# Si number density = 24.920520 Si / 1000 Ang^3
#
#
#
# Elastic Constant Matrix: (Units=GPa)
#
#
# Indices 1 2 3 4 5 6 
#
# 1 116.9323 52.6245 12.3475 0.0000 -21.8041 0.0000
# 2 52.6245 149.6979 21.1111 0.0000 -17.9963 0.0000
# 3 12.3475 21.1111 75.3728 0.0000 -26.1314 0.0000
# 4 0.0000 0.0000 0.0000 12.7203 0.0000 -23.0595
# 5 -21.8041 -17.9963 -26.1314 0.0000 46.1009 0.0000
# 6 0.0000 0.0000 0.0000 -23.0595 0.0000 65.5955
#
#
#
# Elastic Compliance Matrix: (Units=1/GPa)
#
#
# Indices 1 2 3 4 5 6 
#
# 1 0.010777 -0.003379 0.000611 0.000000 0.004124 0.000000
# 2 -0.003379 0.008166 -0.001472 0.000000 0.000755 0.000000
# 3 0.000611 -0.001472 0.016778 0.000000 0.009224 0.000000
# 4 0.000000 0.000000 0.000000 0.216733 0.000000 0.076190
# 5 0.004124 0.000755 0.009224 0.000000 0.029166 0.000000
# 6 0.000000 0.000000 0.000000 0.076190 0.000000 0.042029
#
#
# Mechanical properties :
#
#
# Convention : Reuss Voigt Hill
#
# Bulk Modulus (GPa) = 36.70898 57.12990 46.91944
# Shear Modulus (GPa) = 14.65377 41.94468 28.29922
#
# Velocity S-wave (km/s) = 2.42754 4.10706 3.37349
# Velocity P-wave (km/s) = 4.75602 6.74279 5.83459
#
# Compressibility (1/GPa) = 0.02724129
#
# Stress axis : x y z
#
# Youngs Moduli (GPa) = 92.78861 122.45412 59.60314
#
# Poissons Ratio (x) = 0.41376 -0.03641
# Poissons Ratio (y) = 0.31352 0.08773
# Poissons Ratio (z) = -0.05668 0.18023
#
# Static dielectric constant tensor:
#      x y z
#    x 1.934860 0.000000 -0.044090 
#    y 0.000000 2.008120 0.000000 
#    z -0.044090 0.000000 2.064100 
# 
# From -- ./inp_files/263061.got.cif
#   From: 2010.05.17/outbox.cif.g08.bks.cpg/sg15_132_cif.got.tgz:263061.got - 2010.06.03 18:47:42.
