data_PCOD9302190
_publ_section_title
;
Structure prediction by ZEFSAII (Michael W. Deem and Ramdas Pophale) SiO2 
 PCOD9302190
Probable space group: C 2/C
;
_chemical_formula_sum "Si O2"
_cell_formula_units_Z 64
_cell_length_a 7.585361
_cell_length_b 12.007636
_cell_length_c 27.823072
_cell_angle_alpha 90.000000
_cell_angle_beta 94.592773
_cell_angle_gamma 90.000000
_cell_volume 2526.050793
_symmetry_space_group_name_H-M "C 2/C"
_symmetry_group_IT_number 15
_symmetry_cell_setting 'monoclinic'
loop_
_space_group_symop_operation_xyz
x,y,z
-x,y,1/2-z
-x,-y,-z
x,-y,1/2+z
1/2+x,1/2+y,z
1/2-x,1/2+y,1/2-z
1/2-x,1/2-y,-z
1/2+x,1/2-y,1/2+z
loop_
_atom_site_type_symbol
_atom_site_label
_atom_site_fract_x
_atom_site_fract_y
_atom_site_fract_z
Si Si1 0.669573 0.600543 0.592657
Si Si2 0.194577 0.624260 0.732560
Si Si3 0.158095 0.407374 0.500071
Si Si4 0.860479 0.269609 0.454562
Si Si5 0.703346 0.842688 0.607880
Si Si6 0.081607 0.427185 0.127020
Si Si7 0.701674 0.631341 0.237613
Si Si8 0.586265 0.383983 0.631159
O O1 0.695073 0.569346 0.537088
O O2 0.607850 0.725549 0.600197
O O3 0.556003 0.513056 0.619165
O O4 0.871919 0.592777 0.616691
O O5 0.169616 0.629139 0.674645
O O6 0.253651 0.496016 0.744823
O O7 0.281657 0.743645 0.751675
O O8 0.000000 0.626002 0.750000
O O9 0.229435 0.387109 0.554313
O O10 0.000000 0.500000 0.500000
O O11 0.056807 0.297310 0.478449
O O12 0.750000 0.250000 0.500000
O O13 0.828605 0.375264 0.418809
O O14 0.843697 0.169403 0.416617
O O15 0.895022 0.829899 0.635912
O O16 0.602550 0.940771 0.631824
O O17 0.500000 0.641571 0.250000
O O18 0.707377 0.625515 0.179917
#
# Coordination Sequence:
#
# PCOD9302190 Si02
#       8
#     8   8   8   8   8   8   8   8
#     4  11  24  43  65  97 139 177 236 283 339 411
#     4  11  24  46  75 104 136 185 235 298 365 422
#     4  11  21  43  62  94 139 187 229 284 333 408
#     4  11  23  41  68  98 142 185 224 276 341 411
#     4  12  24  43  68  97 140 183 234 284 341 413
#     4  11  23  46  70  96 142 183 228 288 354 412
#     4  11  25  47  74 102 144 179 234 301 362 421
#     4  12  25  44  70 102 137 184 230 283 351 416
#
# _framework density 25.335989999999999
#
# number of rings (size 3 to 8) (size 9 to 14) (size 15 to 20)
#    0.000    0.750    6.250    2.625    0.000    5.000 
#    0.000    0.000    0.000    0.000    0.000    0.000 
#    0.000    0.000    0.000    0.000    0.000    0.000 
#
# Total GULP energy -178783.834572 kJ/mol
# GULP energy per Si atom -5586.994830 kJ/mol
# Density = 2.527832 g / cm^3
# Si number density = 25.335990 Si / 1000 Ang^3
#
#
#
# Elastic Constant Matrix: (Units=GPa)
#
#
# Indices 1 2 3 4 5 6 
#
# 1 35.7712 14.1633 8.1121 0.0000 -5.5226 0.0000
# 2 14.1633 193.4289 31.0437 0.0000 -3.0668 0.0000
# 3 8.1121 31.0437 107.5882 0.0000 1.7031 0.0000
# 4 0.0000 0.0000 0.0000 34.2559 0.0000 -7.0289
# 5 -5.5226 -3.0668 1.7031 0.0000 28.8730 0.0000
# 6 0.0000 0.0000 0.0000 -7.0289 0.0000 39.8609
#
#
#
# Elastic Compliance Matrix: (Units=1/GPa)
#
#
# Indices 1 2 3 4 5 6 
#
# 1 0.029958 -0.001811 -0.001826 0.000000 0.005645 0.000000
# 2 -0.001811 0.005543 -0.001468 0.000000 0.000329 0.000000
# 3 -0.001826 -0.001468 0.009873 0.000000 -0.001088 0.000000
# 4 0.000000 0.000000 0.000000 0.030288 0.000000 0.005341
# 5 0.005645 0.000329 -0.001088 0.000000 0.035813 0.000000
# 6 0.000000 0.000000 0.000000 0.005341 0.000000 0.026029
#
#
# Mechanical properties :
#
#
# Convention : Reuss Voigt Hill
#
# Bulk Modulus (GPa) = 28.43744 49.26962 38.85353
# Shear Modulus (GPa) = 31.36050 39.49592 35.42821
#
# Velocity S-wave (km/s) = 3.52203 3.95256 3.74349
# Velocity P-wave (km/s) = 5.27144 6.34972 5.83554
#
# Compressibility (1/GPa) = 0.03516491
#
# Stress axis : x y z
#
# Youngs Moduli (GPa) = 33.37993 180.39770 101.28451
#
# Poissons Ratio (x) = 0.32672 0.18491
# Poissons Ratio (y) = 0.06045 0.14870
# Poissons Ratio (z) = 0.06094 0.26485
#
# Static dielectric constant tensor:
#      x y z
#    x 2.076150 0.000000 -0.022990 
#    y 0.000000 2.128690 0.000000 
#    z -0.022990 0.000000 2.018090 
# 
# From -- ./inp_files/307477.got.cif
#   From: 2010.05.17/outbox.cif.g08.bks.cpg/sg15_154_cif.got.tgz:307477.got - 2010.06.03 18:47:42.
