data_PCOD9302072
_publ_section_title
;
Structure prediction by ZEFSAII (Michael W. Deem and Ramdas Pophale) SiO2 
 PCOD9302072
Probable space group: C 2/C
;
_chemical_formula_sum "Si O2"
_cell_formula_units_Z 36
_cell_length_a 20.590733
_cell_length_b 15.244610
_cell_length_c 9.933561
_cell_angle_alpha 90.000000
_cell_angle_beta 35.726431
_cell_angle_gamma 90.000000
_cell_volume 1820.720546
_symmetry_space_group_name_H-M "C 2/C"
_symmetry_group_IT_number 15
_symmetry_cell_setting 'monoclinic'
loop_
_space_group_symop_operation_xyz
x,y,z
-x,y,1/2-z
-x,-y,-z
x,-y,1/2+z
1/2+x,1/2+y,z
1/2-x,1/2+y,1/2-z
1/2-x,1/2-y,-z
1/2+x,1/2-y,1/2+z
loop_
_atom_site_type_symbol
_atom_site_label
_atom_site_fract_x
_atom_site_fract_y
_atom_site_fract_z
Si Si1 0.500000 0.086309 0.250000
Si Si2 0.183700 0.015743 0.193766
Si Si3 0.362781 0.197076 0.283216
Si Si4 0.331277 0.016016 0.203005
Si Si5 0.988599 0.865168 0.106025
O O1 0.405126 0.146264 0.344304
O O2 0.443101 0.027654 0.459936
O O3 0.237921 0.999620 0.247144
O O4 0.100494 0.096867 0.352571
O O5 0.108773 0.934655 0.267017
O O6 0.283629 0.025697 0.919960
O O7 0.250000 0.250000 0.500000
O O8 0.346134 0.120095 0.203144
O O9 0.454791 0.271344 0.103270
O O10 0.000000 0.860245 0.250000
#
# Coordination Sequence:
#
# PCOD9302072 Si02
#       5
#     4   8   8   8   8
#     4  12  26  44  72  96 138 186 226 280 344 410
#     4  11  23  41  72  99 139 173 229 278 346 402
#     4  12  23  43  70 101 138 179 231 278 343 405
#     4  12  24  45  67 101 135 184 224 277 344 407
#     4  11  21  41  71 105 130 180 227 283 336 407
#
# _framework density 19.772392
#
# number of rings (size 3 to 8) (size 9 to 14) (size 15 to 20)
#    0.000    0.444    7.778    0.667    0.000    0.000 
#    0.000    5.556    0.000    0.000    0.000    0.000 
#    0.000    0.000    0.000    0.000    0.000    0.000 
#
# Total GULP energy -100581.098943 kJ/mol
# GULP energy per Si atom -5587.838830 kJ/mol
# Density = 1.972739 g / cm^3
# Si number density = 19.772392 Si / 1000 Ang^3
#
#
#
# Elastic Constant Matrix: (Units=GPa)
#
#
# Indices 1 2 3 4 5 6 
#
# 1 95.7893 28.9330 -1.4962 0.0000 0.2445 0.0000
# 2 28.9330 123.5179 57.4045 0.0000 -11.8690 0.0000
# 3 -1.4962 57.4045 109.0481 0.0000 -5.0915 0.0000
# 4 0.0000 0.0000 0.0000 26.5065 0.0000 1.1598
# 5 0.2445 -11.8690 -5.0915 0.0000 26.2414 0.0000
# 6 0.0000 0.0000 0.0000 1.1598 0.0000 35.8759
#
#
#
# Elastic Compliance Matrix: (Units=1/GPa)
#
#
# Indices 1 2 3 4 5 6 
#
# 1 0.011639 -0.003849 0.002119 0.000000 -0.001438 0.000000
# 2 -0.003849 0.012378 -0.006363 0.000000 0.004400 0.000000
# 3 0.002119 -0.006363 0.012527 0.000000 -0.000467 0.000000
# 4 0.000000 0.000000 0.000000 0.037780 0.000000 -0.001221
# 5 -0.001438 0.004400 -0.000467 0.000000 0.040020 0.000000
# 6 0.000000 0.000000 0.000000 -0.001221 0.000000 0.027913
#
#
# Mechanical properties :
#
#
# Convention : Reuss Voigt Hill
#
# Bulk Modulus (GPa) = 49.12391 55.33752 52.23071
# Shear Modulus (GPa) = 30.26074 33.95903 32.10988
#
# Velocity S-wave (km/s) = 3.91635 4.14877 4.03423
# Velocity P-wave (km/s) = 6.73417 7.14127 6.94070
#
# Compressibility (1/GPa) = 0.02035669
#
# Stress axis : x y z
#
# Youngs Moduli (GPa) = 85.91785 80.79044 79.82630
#
# Poissons Ratio (x) = 0.31099 -0.16914
# Poissons Ratio (y) = 0.33072 0.50795
# Poissons Ratio (z) = -0.18205 0.51409
#
# Static dielectric constant tensor:
#      x y z
#    x 1.730990 0.000000 -0.037480 
#    y 0.000000 1.692590 0.000000 
#    z -0.037480 0.000000 1.681240 
# 
# From -- ./inp_files/55572.got.cif
#   From: 2010.05.17/outbox.cif.g08.bks.cpg/sg15_28_cif.got.tgz:55572.got - 2010.06.03 18:47:42.
