data_PCOD9302074
_publ_section_title
;
Structure prediction by ZEFSAII (Michael W. Deem and Ramdas Pophale) SiO2 
 PCOD9302074
Probable space group: C 2/C
;
_chemical_formula_sum "Si O2"
_cell_formula_units_Z 56
_cell_length_a 18.094489
_cell_length_b 17.191715
_cell_length_c 15.729971
_cell_angle_alpha 90.000000
_cell_angle_beta 37.548305
_cell_angle_gamma 90.000000
_cell_volume 2982.066538
_symmetry_space_group_name_H-M "C 2/C"
_symmetry_group_IT_number 15
_symmetry_cell_setting 'monoclinic'
loop_
_space_group_symop_operation_xyz
x,y,z
-x,y,1/2-z
-x,-y,-z
x,-y,1/2+z
1/2+x,1/2+y,z
1/2-x,1/2+y,1/2-z
1/2-x,1/2-y,-z
1/2+x,1/2-y,1/2+z
loop_
_atom_site_type_symbol
_atom_site_label
_atom_site_fract_x
_atom_site_fract_y
_atom_site_fract_z
Si Si1 0.519482 0.557183 0.332175
Si Si2 0.699016 0.467795 0.893790
Si Si3 0.374650 0.050869 0.394425
Si Si4 0.260737 0.453544 0.312380
Si Si5 0.330369 0.724072 0.706847
Si Si6 0.592431 0.319804 0.893458
Si Si7 0.876560 0.276382 0.847410
O O1 0.500000 0.561049 0.250000
O O2 0.399529 0.532945 0.492400
O O3 0.614113 0.490009 0.268653
O O4 0.570588 0.636047 0.324959
O O5 0.777799 0.457455 0.906757
O O6 0.769764 0.502072 0.747591
O O7 0.632339 0.388323 0.924102
O O8 0.500000 0.013068 0.250000
O O9 0.331139 0.028337 0.527332
O O10 0.395394 0.143391 0.379776
O O11 0.286481 0.362367 0.274364
O O12 0.461073 0.715656 0.540340
O O13 0.208742 0.763224 0.779053
O O14 0.359709 0.777114 0.762243
O O15 0.000000 0.227584 0.750000
O O16 0.750000 0.250000 0.000000
#
# Coordination Sequence:
#
# PCOD9302074 Si02
#       7
#     8   8   8   8   8   8   8
#     4  11  21  41  71  92 115 164 229 271 300 368
#     4  11  21  42  64  92 123 164 219 265 306 380
#     4  11  24  38  55  93 129 162 203 257 324 382
#     4  11  22  37  65  90 120 169 212 260 317 369
#     4  12  22  37  59  91 130 165 202 255 322 382
#     4  11  24  39  63  95 128 167 209 262 325 380
#     4  11  22  33  52  85 126 159 192 235 307 384
#
# _framework density 18.778922999999999
#
# number of rings (size 3 to 8) (size 9 to 14) (size 15 to 20)
#    0.000    0.857    7.143    1.714    2.000    1.143 
#    0.000    2.143    0.000    0.000    0.000    0.000 
#    0.000    0.000    0.000    0.000    0.000    0.000 
#
# Total GULP energy -156027.865498 kJ/mol
# GULP energy per Si atom -5572.423768 kJ/mol
# Density = 1.873618 g / cm^3
# Si number density = 18.778923 Si / 1000 Ang^3
#
#
#
# Elastic Constant Matrix: (Units=GPa)
#
#
# Indices 1 2 3 4 5 6 
#
# 1 59.8650 25.1495 46.2695 0.0000 -5.6707 0.0000
# 2 25.1495 48.3350 37.1788 0.0000 -0.2587 0.0000
# 3 46.2695 37.1788 127.0553 0.0000 -2.6249 0.0000
# 4 0.0000 0.0000 0.0000 18.8731 0.0000 -2.8104
# 5 -5.6707 -0.2587 -2.6249 0.0000 36.3084 0.0000
# 6 0.0000 0.0000 0.0000 -2.8104 0.0000 16.0430
#
#
#
# Elastic Compliance Matrix: (Units=1/GPa)
#
#
# Indices 1 2 3 4 5 6 
#
# 1 0.025799 -0.008044 -0.006970 0.000000 0.003468 0.000000
# 2 -0.008044 0.029211 -0.005649 0.000000 -0.001457 0.000000
# 3 -0.006970 -0.005649 0.012056 0.000000 -0.000257 0.000000
# 4 0.000000 0.000000 0.000000 0.054405 0.000000 0.009531
# 5 0.003468 -0.001457 -0.000257 0.000000 0.028055 0.000000
# 6 0.000000 0.000000 0.000000 0.009531 0.000000 0.064002
#
#
# Mechanical properties :
#
#
# Convention : Reuss Voigt Hill
#
# Bulk Modulus (GPa) = 38.84680 50.27231 44.55956
# Shear Modulus (GPa) = 18.98013 22.68871 20.83442
#
# Velocity S-wave (km/s) = 3.18262 3.47969 3.33447
# Velocity P-wave (km/s) = 5.85122 6.55538 6.21328
#
# Compressibility (1/GPa) = 0.02574215
#
# Stress axis : x y z
#
# Youngs Moduli (GPa) = 38.76130 34.23320 82.94446
#
# Poissons Ratio (x) = 0.27537 0.57809
# Poissons Ratio (y) = 0.31180 0.46851
# Poissons Ratio (z) = 0.27015 0.19337
#
# Static dielectric constant tensor:
#      x y z
#    x 1.732290 0.000000 -0.068960 
#    y 0.000000 1.693610 0.000000 
#    z -0.068960 0.000000 1.752550 
# 
# From -- ./inp_files/163053.got.cif
#   From: 2010.05.17/outbox.cif.g08.bks.cpg/sg15_82_cif.got.tgz:163053.got - 2010.06.03 18:47:42.
