data_PCOD9302535
_publ_section_title
;
Structure prediction by ZEFSAII (Michael W. Deem and Ramdas Pophale) SiO2 
 PCOD9302535
Probable space group: C 2/C
;
_chemical_formula_sum "Si O2"
_cell_formula_units_Z 56
_cell_length_a 21.619691
_cell_length_b 11.658904
_cell_length_c 18.812991
_cell_angle_alpha 90.000000
_cell_angle_beta 141.394674
_cell_angle_gamma 90.000000
_cell_volume 2958.805420
_symmetry_space_group_name_H-M "C 2/C"
_symmetry_group_IT_number 15
_symmetry_cell_setting 'monoclinic'
loop_
_space_group_symop_operation_xyz
x,y,z
-x,y,1/2-z
-x,-y,-z
x,-y,1/2+z
1/2+x,1/2+y,z
1/2-x,1/2+y,1/2-z
1/2-x,1/2-y,-z
1/2+x,1/2-y,1/2+z
loop_
_atom_site_type_symbol
_atom_site_label
_atom_site_fract_x
_atom_site_fract_y
_atom_site_fract_z
Si Si1 0.896139 0.709561 0.178661
Si Si2 0.449202 0.168948 0.372463
Si Si3 0.288425 0.579712 0.545689
Si Si4 0.434250 0.813527 0.018387
Si Si5 0.835016 0.434913 0.424082
Si Si6 0.294209 0.339638 0.482330
Si Si7 0.351029 0.084035 0.776522
O O1 0.910722 0.742674 0.273239
O O2 0.872460 0.824251 0.114118
O O3 0.000000 0.653435 0.250000
O O4 0.805318 0.624765 0.084124
O O5 0.427540 0.220264 0.429754
O O6 0.566445 0.141394 0.473328
O O7 0.392632 0.046675 0.311818
O O8 0.246403 0.581773 0.588459
O O9 0.318924 0.455507 0.546847
O O10 0.374408 0.934235 0.967663
O O11 0.386080 0.722865 0.027405
O O12 0.548918 0.840271 0.136777
O O13 0.806030 0.408869 0.316229
O O14 0.250000 0.250000 0.500000
O O15 0.219606 0.376977 0.351069
#
# Coordination Sequence:
#
# PCOD9302535 Si02
#       7
#     8   8   8   8   8   8   8
#     4  11  22  38  60  84 116 156 198 253 301 335
#     4   9  17  36  64  85 110 152 206 249 291 342
#     4  11  23  37  57  90 116 155 203 248 292 364
#     4   9  20  36  58  90 116 152 196 245 297 362
#     4   9  17  37  61  86 112 144 209 244 286 359
#     4  12  23  38  57  91 128 159 194 242 310 365
#     4   9  20  36  59  86 115 159 197 247 288 348
#
# _framework density 18.926556999999999
#
# number of rings (size 3 to 8) (size 9 to 14) (size 15 to 20)
#    0.000    2.000    4.286    1.714    2.000    0.571 
#    2.571    0.000    0.000    0.857    0.000    0.000 
#    0.000    0.000    0.000    0.000    0.000    0.000 
#
# Total GULP energy -156107.823099 kJ/mol
# GULP energy per Si atom -5575.279396 kJ/mol
# Density = 1.888348 g / cm^3
# Si number density = 18.926557 Si / 1000 Ang^3
#
#
#
# Elastic Constant Matrix: (Units=GPa)
#
#
# Indices 1 2 3 4 5 6 
#
# 1 103.4571 28.7604 25.6133 0.0000 -12.5788 0.0000
# 2 28.7604 79.5576 8.6059 0.0000 -1.5920 0.0000
# 3 25.6133 8.6059 51.8188 0.0000 -13.5334 0.0000
# 4 0.0000 0.0000 0.0000 14.3724 0.0000 -5.5470
# 5 -12.5788 -1.5920 -13.5334 0.0000 23.0469 0.0000
# 6 0.0000 0.0000 0.0000 -5.5470 0.0000 31.4192
#
#
#
# Elastic Compliance Matrix: (Units=1/GPa)
#
#
# Indices 1 2 3 4 5 6 
#
# 1 0.012314 -0.003895 -0.004435 0.000000 0.003848 0.000000
# 2 -0.003895 0.014035 -0.000836 0.000000 -0.001647 0.000000
# 3 -0.004435 -0.000836 0.024782 0.000000 0.012074 0.000000
# 4 0.000000 0.000000 0.000000 0.074665 0.000000 0.013182
# 5 0.003848 -0.001647 0.012074 0.000000 0.052466 0.000000
# 6 0.000000 0.000000 0.000000 0.013182 0.000000 0.034155
#
#
# Mechanical properties :
#
#
# Convention : Reuss Voigt Hill
#
# Bulk Modulus (GPa) = 30.48775 40.08807 35.28791
# Shear Modulus (GPa) = 20.68824 25.22465 22.95644
#
# Velocity S-wave (km/s) = 3.30976 3.65467 3.48648
# Velocity P-wave (km/s) = 5.54522 6.24785 5.90699
#
# Compressibility (1/GPa) = 0.03280006
#
# Stress axis : x y z
#
# Youngs Moduli (GPa) = 81.20533 71.25041 40.35125
#
# Poissons Ratio (x) = 0.27752 0.17896
# Poissons Ratio (y) = 0.31629 0.03373
# Poissons Ratio (z) = 0.36015 0.05955
#
# Static dielectric constant tensor:
#      x y z
#    x 1.709520 0.000000 -0.020150 
#    y 0.000000 1.650190 0.000000 
#    z -0.020150 0.000000 1.652920 
# 
# From -- ./inp_files/255489.got.cif
#   From: 2010.05.17/outbox.cif.g08.bks.cpg/sg15_128_cif.got.tgz:255489.got - 2010.06.03 18:47:42.
