data_PCOD9302009
_publ_section_title
;
Structure prediction by ZEFSAII (Michael W. Deem and Ramdas Pophale) SiO2 
 PCOD9302009
Probable space group: C 2/C
;
_chemical_formula_sum "Si O2"
_cell_formula_units_Z 56
_cell_length_a 19.275140
_cell_length_b 21.587069
_cell_length_c 10.224753
_cell_angle_alpha 90.000000
_cell_angle_beta 140.697127
_cell_angle_gamma 90.000000
_cell_volume 2694.856197
_symmetry_space_group_name_H-M "C 2/C"
_symmetry_group_IT_number 15
_symmetry_cell_setting 'monoclinic'
loop_
_space_group_symop_operation_xyz
x,y,z
-x,y,1/2-z
-x,-y,-z
x,-y,1/2+z
1/2+x,1/2+y,z
1/2-x,1/2+y,1/2-z
1/2-x,1/2-y,-z
1/2+x,1/2-y,1/2+z
loop_
_atom_site_type_symbol
_atom_site_label
_atom_site_fract_x
_atom_site_fract_y
_atom_site_fract_z
Si Si1 0.597660 0.164459 0.969175
Si Si2 0.286014 0.590329 0.095649
Si Si3 0.767142 0.554318 0.010189
Si Si4 0.267035 0.874815 0.259672
Si Si5 0.889205 0.885708 0.010089
Si Si6 0.494619 0.928497 0.957403
Si Si7 0.232102 0.239478 0.126966
O O1 0.500000 0.196921 0.750000
O O2 0.457713 0.109773 0.529774
O O3 0.688722 0.133835 0.009298
O O4 0.657894 0.209875 0.154896
O O5 0.246605 0.519003 0.029277
O O6 0.380085 0.596707 0.343568
O O7 0.304300 0.613803 0.974602
O O8 0.718465 0.590490 0.815198
O O9 0.706218 0.576480 0.052897
O O10 0.893702 0.575384 0.208974
O O11 0.386108 0.905087 0.407874
O O12 0.286369 0.803613 0.325332
O O13 0.000000 0.899350 0.250000
O O14 0.859618 0.812952 0.982397
O O15 0.500000 0.000000 0.000000
O O16 0.250000 0.250000 0.000000
#
# Coordination Sequence:
#
# PCOD9302009 Si02
#       7
#     8   8   8   8   8   8   8
#     4  11  21  41  65  99 143 176 217 289 347 400
#     4  11  23  43  68 100 136 171 226 284 350 408
#     4  12  22  43  67 101 141 171 221 290 342 414
#     4  12  24  39  69 106 136 182 222 275 354 418
#     4  11  26  47  69  89 132 190 229 282 340 396
#     4  12  21  38  70 109 137 175 218 278 358 421
#     4  11  24  47  65  92 142 180 231 279 334 418
#
# _framework density 20.780328999999998
#
# number of rings (size 3 to 8) (size 9 to 14) (size 15 to 20)
#    0.000    0.571    7.143    2.143    0.000    5.143 
#    2.571    0.714    0.000    0.000    0.000    0.000 
#    0.000    0.000    0.000    0.000    0.000    0.000 
#
# Total GULP energy -156508.311267 kJ/mol
# GULP energy per Si atom -5589.582545 kJ/mol
# Density = 2.073303 g / cm^3
# Si number density = 20.780329 Si / 1000 Ang^3
#
#
#
# Elastic Constant Matrix: (Units=GPa)
#
#
# Indices 1 2 3 4 5 6 
#
# 1 39.2887 15.0308 23.1558 0.0000 -28.5335 0.0000
# 2 15.0308 103.1004 25.4091 0.0000 -9.9691 0.0000
# 3 23.1558 25.4091 152.3036 0.0000 -24.5395 0.0000
# 4 0.0000 0.0000 0.0000 50.6455 0.0000 -7.0726
# 5 -28.5335 -9.9691 -24.5395 0.0000 42.6902 0.0000
# 6 0.0000 0.0000 0.0000 -7.0726 0.0000 30.9261
#
#
#
# Elastic Compliance Matrix: (Units=1/GPa)
#
#
# Indices 1 2 3 4 5 6 
#
# 1 0.051740 -0.003911 -0.001972 0.000000 0.032535 0.000000
# 2 -0.003911 0.010503 -0.001304 0.000000 -0.000911 0.000000
# 3 -0.001972 -0.001304 0.007518 0.000000 0.002699 0.000000
# 4 0.000000 0.000000 0.000000 0.020396 0.000000 0.004665
# 5 0.032535 -0.000911 0.002699 0.000000 0.046509 0.000000
# 6 0.000000 0.000000 0.000000 0.004665 0.000000 0.033402
#
#
# Mechanical properties :
#
#
# Convention : Reuss Voigt Hill
#
# Bulk Modulus (GPa) = 18.05502 46.87602 32.46552
# Shear Modulus (GPa) = 24.64203 40.25883 32.45043
#
# Velocity S-wave (km/s) = 3.44733 4.40631 3.95599
# Velocity P-wave (km/s) = 4.95508 6.96379 6.04347
#
# Compressibility (1/GPa) = 0.05538626
#
# Stress axis : x y z
#
# Youngs Moduli (GPa) = 19.32743 95.21237 133.01204
#
# Poissons Ratio (x) = 0.37240 0.26226
# Poissons Ratio (y) = 0.07559 0.17350
# Poissons Ratio (z) = 0.03811 0.12419
#
# Static dielectric constant tensor:
#      x y z
#    x 1.773020 0.000000 -0.024660 
#    y 0.000000 1.707930 0.000000 
#    z -0.024660 0.000000 1.821870 
# 
# From -- ./inp_files/119859.got.cif
#   From: 2010.05.17/outbox.cif.g08.bks.cpg/sg15_60_cif.got.tgz:119859.got - 2010.06.03 18:47:42.
