data_PCOD9302128
_publ_section_title
;
Structure prediction by ZEFSAII (Michael W. Deem and Ramdas Pophale) SiO2 
 PCOD9302128
Probable space group: C 2/C
;
_chemical_formula_sum "Si O2"
_cell_formula_units_Z 60
_cell_length_a 16.737107
_cell_length_b 18.598917
_cell_length_c 18.230239
_cell_angle_alpha 90.000000
_cell_angle_beta 30.806053
_cell_angle_gamma 90.000000
_cell_volume 2906.321715
_symmetry_space_group_name_H-M "C 2/C"
_symmetry_group_IT_number 15
_symmetry_cell_setting 'monoclinic'
loop_
_space_group_symop_operation_xyz
x,y,z
-x,y,1/2-z
-x,-y,-z
x,-y,1/2+z
1/2+x,1/2+y,z
1/2-x,1/2+y,1/2-z
1/2-x,1/2-y,-z
1/2+x,1/2-y,1/2+z
loop_
_atom_site_type_symbol
_atom_site_label
_atom_site_fract_x
_atom_site_fract_y
_atom_site_fract_z
Si Si1 0.485437 0.919480 0.538017
Si Si2 0.965448 0.960020 0.912902
Si Si3 0.200331 0.932461 0.861244
Si Si4 0.659670 0.788662 0.916051
Si Si5 0.016506 0.799784 0.650342
Si Si6 0.000000 0.063174 0.750000
Si Si7 0.464247 0.291547 0.442950
Si Si8 0.266515 0.664995 0.881399
O O1 0.374532 0.916576 0.697151
O O2 0.402500 0.869443 0.543055
O O3 0.651615 0.885489 0.425245
O O4 0.500000 0.000000 0.500000
O O5 0.101483 0.951194 0.865946
O O6 0.930846 0.881054 0.909217
O O7 0.017613 0.012418 0.806447
O O8 0.823567 0.999820 0.066263
O O9 0.121756 0.862746 0.960086
O O10 0.842544 0.788269 0.754926
O O11 0.561368 0.743170 0.934081
O O12 0.626912 0.755402 0.021136
O O13 0.000000 0.790114 0.750000
O O14 0.848959 0.114630 0.876352
O O15 0.591543 0.308937 0.281286
O O16 0.338704 0.233039 0.514431
#
# Coordination Sequence:
#
# PCOD9302128 Si02
#       8
#     8   8   8   8   8   4   8   8
#     4  11  23  39  66  99 129 166 227 289 336 393
#     4  11  23  40  71  93 132 175 229 275 341 417
#     4  11  22  43  69 101 123 173 232 282 336 403
#     4  11  22  40  62  93 126 172 218 285 330 401
#     4  12  24  40  62  93 136 177 221 270 346 412
#     4  12  24  46  64 100 138 188 218 274 360 426
#     4  11  21  42  67  97 128 168 230 283 334 394
#     4  11  25  40  68 100 135 177 221 279 346 416
#
# _framework density 20.644652000000001
#
# number of rings (size 3 to 8) (size 9 to 14) (size 15 to 20)
#    0.000    0.800    4.667    4.400    1.867    1.600 
#    0.000    0.667    0.000    0.000    0.000    0.000 
#    0.000    0.000    0.000    0.000    0.000    0.000 
#
# Total GULP energy -167795.827736 kJ/mol
# GULP energy per Si atom -5593.194258 kJ/mol
# Density = 2.059766 g / cm^3
# Si number density = 20.644652 Si / 1000 Ang^3
#
#
#
# Elastic Constant Matrix: (Units=GPa)
#
#
# Indices 1 2 3 4 5 6 
#
# 1 39.7284 21.4288 13.8577 0.0052 0.7463 -0.0070
# 2 21.4288 135.7092 75.8991 0.0041 -2.4467 -0.0062
# 3 13.8577 75.8991 107.7252 0.0084 -5.5623 -0.0119
# 4 0.0052 0.0041 0.0084 42.4089 -0.0057 9.9393
# 5 0.7463 -2.4467 -5.5623 -0.0057 31.4256 0.0069
# 6 -0.0070 -0.0062 -0.0119 9.9393 0.0069 18.2467
#
#
#
# Elastic Compliance Matrix: (Units=1/GPa)
#
#
# Indices 1 2 3 4 5 6 
#
# 1 0.027593 -0.003894 -0.000863 -0.000006 -0.001111 0.000012
# 2 -0.003894 0.012720 -0.008483 0.000002 -0.000419 -0.000003
# 3 -0.000863 -0.008483 0.015479 -0.000004 0.002100 0.000008
# 4 -0.000006 0.000002 -0.000004 0.027031 0.000008 -0.014724
# 5 -0.001111 -0.000419 0.002100 0.000008 0.032187 -0.000016
# 6 0.000012 -0.000003 0.000008 -0.014724 -0.000016 0.062825
#
#
# Mechanical properties :
#
#
# Convention : Reuss Voigt Hill
#
# Bulk Modulus (GPa) = 34.11574 56.17043 45.14309
# Shear Modulus (GPa) = 23.35499 29.88138 26.61818
#
# Velocity S-wave (km/s) = 3.36711 3.80862 3.59465
# Velocity P-wave (km/s) = 5.62829 6.82701 6.25642
#
# Compressibility (1/GPa) = 0.02931198
#
# Stress axis : x y z
#
# Youngs Moduli (GPa) = 36.24054 78.61380 64.60315
#
# Poissons Ratio (x) = 0.30615 0.05576
# Poissons Ratio (y) = 0.14113 0.54803
# Poissons Ratio (z) = 0.03128 0.66688
#
# Static dielectric constant tensor:
#      x y z
#    x 1.752740 0.000000 0.006580 
#    y 0.000000 1.739070 0.000000 
#    z 0.006580 0.000000 1.715890 
# 
# From -- ./inp_files/211729.got.cif
#   From: 2010.05.17/outbox.cif.g08.bks.cpg/sg15_106_cif.got.tgz:211729.got - 2010.06.03 18:47:42.
