data_PCOD9302799
_publ_section_title
;
Structure prediction by ZEFSAII (Michael W. Deem and Ramdas Pophale) SiO2 
 PCOD9302799
Probable space group: C 2/C
;
_chemical_formula_sum "Si O2"
_cell_formula_units_Z 40
_cell_length_a 9.190227
_cell_length_b 23.892783
_cell_length_c 14.353213
_cell_angle_alpha 90.000000
_cell_angle_beta 32.657967
_cell_angle_gamma 90.000000
_cell_volume 1700.718450
_symmetry_space_group_name_H-M "C 2/C"
_symmetry_group_IT_number 15
_symmetry_cell_setting 'monoclinic'
loop_
_space_group_symop_operation_xyz
x,y,z
-x,y,1/2-z
-x,-y,-z
x,-y,1/2+z
1/2+x,1/2+y,z
1/2-x,1/2+y,1/2-z
1/2-x,1/2-y,-z
1/2+x,1/2-y,1/2+z
loop_
_atom_site_type_symbol
_atom_site_label
_atom_site_fract_x
_atom_site_fract_y
_atom_site_fract_z
Si Si1 0.256975 0.935513 0.310033
Si Si2 0.257291 0.626997 0.174849
Si Si3 0.733243 0.163405 0.825994
Si Si4 0.554412 0.263483 0.017846
Si Si5 0.245938 0.466066 0.819793
O O1 0.500000 0.943306 0.250000
O O2 0.344474 0.895114 0.176968
O O3 0.175447 0.994008 0.309205
O O4 0.014760 0.903781 0.491532
O O5 0.194101 0.595597 0.305586
O O6 0.000000 0.615276 0.250000
O O7 0.314338 0.693279 0.128088
O O8 0.000000 0.156480 0.750000
O O9 0.818128 0.201688 0.691937
O O10 0.517333 0.202787 0.993169
O O11 0.750000 0.250000 0.000000
O O12 0.500000 0.463254 0.750000
O O13 0.000000 0.500000 0.000000
#
# Coordination Sequence:
#
# PCOD9302799 Si02
#       5
#     8   8   8   8   8
#     4  11  23  41  60  85 121 160 199 247 305 360
#     4  11  22  40  64  88 119 161 202 249 300 360
#     4   9  18  34  58  86 116 156 201 247 295 358
#     4   9  18  34  59  90 118 154 203 247 295 360
#     4  12  25  41  62  91 121 157 203 252 303 362
#
# _framework density 23.519472
#
# number of rings (size 3 to 8) (size 9 to 14) (size 15 to 20)
#    0.000    1.600    0.000    6.000    0.000    4.800 
#    0.000    5.000    0.000    0.000    0.000    0.000 
#    0.000    0.000    0.000    0.000    0.000    0.000 
#
# Total GULP energy -111753.475871 kJ/mol
# GULP energy per Si atom -5587.673794 kJ/mol
# Density = 2.346594 g / cm^3
# Si number density = 23.519472 Si / 1000 Ang^3
#
#
#
# Elastic Constant Matrix: (Units=GPa)
#
#
# Indices 1 2 3 4 5 6 
#
# 1 134.0644 66.6521 16.6864 0.0000 -4.4442 0.0000
# 2 66.6521 192.7754 28.1926 0.0000 22.8001 0.0000
# 3 16.6864 28.1926 55.8077 0.0000 16.1811 -0.0002
# 4 0.0000 0.0000 0.0000 50.0379 0.0000 11.1372
# 5 -4.4442 22.8001 16.1811 0.0000 35.6004 0.0001
# 6 0.0000 0.0000 -0.0002 11.1372 0.0001 30.7699
#
#
#
# Elastic Compliance Matrix: (Units=1/GPa)
#
#
# Indices 1 2 3 4 5 6 
#
# 1 0.009667 -0.003527 -0.002434 0.000000 0.004572 0.000000
# 2 -0.003527 0.007114 -0.001256 0.000000 -0.004426 0.000000
# 3 -0.002434 -0.001256 0.022041 0.000000 -0.009517 0.000000
# 4 0.000000 0.000000 0.000000 0.021736 0.000000 -0.007867
# 5 0.004572 -0.004426 -0.009517 0.000000 0.035821 0.000000
# 6 0.000000 0.000000 0.000000 -0.007867 0.000000 0.035347
#
#
# Mechanical properties :
#
#
# Convention : Reuss Voigt Hill
#
# Bulk Modulus (GPa) = 41.00598 67.30108 54.15353
# Shear Modulus (GPa) = 32.40662 41.35604 36.88133
#
# Velocity S-wave (km/s) = 3.71599 4.19785 3.96424
# Velocity P-wave (km/s) = 5.99034 7.22309 6.63541
#
# Compressibility (1/GPa) = 0.02438669
#
# Stress axis : x y z
#
# Youngs Moduli (GPa) = 103.44175 140.56712 45.37090
#
# Poissons Ratio (x) = 0.49581 0.11045
# Poissons Ratio (y) = 0.36486 0.05699
# Poissons Ratio (z) = 0.25181 0.17656
#
# Static dielectric constant tensor:
#      x y z
#    x 1.802910 0.000000 0.088290 
#    y 0.000000 1.926960 0.000000 
#    z 0.088290 0.000000 1.984880 
# 
# From -- ./inp_files/138150.got.cif
#   From: 2010.05.17/outbox.cif.g08.bks.cpg/sg15_70_cif.got.tgz:138150.got - 2010.06.03 18:47:42.
