data_PCOD9302355
_publ_section_title
;
Structure prediction by ZEFSAII (Michael W. Deem and Ramdas Pophale) SiO2 
 PCOD9302355
Probable space group: C 2/C
;
_chemical_formula_sum "Si O2"
_cell_formula_units_Z 48
_cell_length_a 7.347435
_cell_length_b 25.742331
_cell_length_c 18.441391
_cell_angle_alpha 90.000000
_cell_angle_beta 144.392443
_cell_angle_gamma 90.000000
_cell_volume 2030.822815
_symmetry_space_group_name_H-M "C 2/C"
_symmetry_group_IT_number 15
_symmetry_cell_setting 'monoclinic'
loop_
_space_group_symop_operation_xyz
x,y,z
-x,y,1/2-z
-x,-y,-z
x,-y,1/2+z
1/2+x,1/2+y,z
1/2-x,1/2+y,1/2-z
1/2-x,1/2-y,-z
1/2+x,1/2-y,1/2+z
loop_
_atom_site_type_symbol
_atom_site_label
_atom_site_fract_x
_atom_site_fract_y
_atom_site_fract_z
Si Si1 0.104667 0.196794 0.981898
Si Si2 0.310686 0.963556 0.115070
Si Si3 0.153102 0.876570 0.375766
Si Si4 0.294766 0.643523 0.004362
Si Si5 0.749255 0.358659 0.782276
Si Si6 0.487830 0.039693 0.062433
O O1 0.411794 0.166541 0.110591
O O2 0.250000 0.250000 0.000000
O O3 0.987839 0.166246 0.872206
O O4 0.860970 0.190416 0.969263
O O5 0.500000 0.956000 0.250000
O O6 0.247344 0.908734 0.056445
O O7 0.540865 0.000248 0.144444
O O8 0.000000 0.000000 0.000000
O O9 0.490988 0.853936 0.458369
O O10 0.185877 0.926404 0.438918
O O11 0.000000 0.889825 0.250000
O O12 0.590130 0.635232 0.153062
O O13 0.500000 0.326633 0.750000
O O14 0.804999 0.411636 0.845447
O O15 0.500000 0.000000 0.000000
#
# Coordination Sequence:
#
# PCOD9302355 Si02
#       6
#     8   8   8   8   8   8
#     4  11  27  49  75 108 136 184 242 306 379 444
#     4  12  26  41  66 107 145 197 248 294 353 429
#     4  11  26  45  67 105 146 189 238 300 361 431
#     4  12  25  46  75 101 146 192 238 306 361 431
#     4  11  21  46  73 104 144 187 241 297 364 433
#     4  11  22  40  67 100 144 191 241 285 350 428
#
# _framework density 23.635740999999999
#
# number of rings (size 3 to 8) (size 9 to 14) (size 15 to 20)
#    0.000    0.667    5.000    3.500    4.667    4.000 
#    3.000    0.000    0.000    0.000    0.000    0.000 
#    0.000    0.000    0.000    0.000    0.000    0.000 
#
# Total GULP energy -133713.586967 kJ/mol
# GULP energy per Si atom -5571.399457 kJ/mol
# Density = 2.358194 g / cm^3
# Si number density = 23.635741 Si / 1000 Ang^3
#
#
#
# Elastic Constant Matrix: (Units=GPa)
#
#
# Indices 1 2 3 4 5 6 
#
# 1 83.9748 13.2575 17.8405 -0.0004 -16.8649 -0.0005
# 2 13.2575 79.8474 2.2487 -0.0003 -16.5260 -0.0004
# 3 17.8405 2.2487 136.4395 -0.0016 -32.3560 -0.0019
# 4 -0.0004 -0.0003 -0.0016 10.0752 -0.0005 -6.9413
# 5 -16.8649 -16.5260 -32.3560 -0.0005 46.9714 -0.0006
# 6 -0.0005 -0.0004 -0.0019 -6.9413 -0.0006 34.0807
#
#
#
# Elastic Compliance Matrix: (Units=1/GPa)
#
#
# Indices 1 2 3 4 5 6 
#
# 1 0.013030 -0.001390 -0.000822 0.000001 0.003623 0.000000
# 2 -0.001390 0.013791 0.001179 0.000001 0.005165 0.000000
# 3 -0.000822 0.001179 0.008899 0.000002 0.006250 0.000001
# 4 0.000001 0.000001 0.000002 0.115455 0.000004 0.023515
# 5 0.003623 0.005165 0.006250 0.000004 0.028713 0.000002
# 6 0.000000 0.000000 0.000001 0.023515 0.000002 0.034131
#
#
# Mechanical properties :
#
#
# Convention : Reuss Voigt Hill
#
# Bulk Modulus (GPa) = 29.71339 40.77277 35.24308
# Shear Modulus (GPa) = 21.99708 36.01980 29.00844
#
# Velocity S-wave (km/s) = 3.05400 3.90802 3.50710
# Velocity P-wave (km/s) = 5.00345 6.13608 5.59848
#
# Compressibility (1/GPa) = 0.03365486
#
# Stress axis : x y z
#
# Youngs Moduli (GPa) = 76.74553 72.51335 112.36614
#
# Poissons Ratio (x) = 0.10082 0.09232
# Poissons Ratio (y) = 0.10671 -0.13253
# Poissons Ratio (z) = 0.06306 -0.08552
#
# Static dielectric constant tensor:
#      x y z
#    x 1.993780 0.000000 0.063170 
#    y 0.000000 1.697980 0.000000 
#    z 0.063170 0.000000 1.867010 
# 
# From -- ./inp_files/234807.got.cif
#   From: 2010.05.17/outbox.cif.g08.bks.cpg/sg15_118_cif.got.tgz:234807.got - 2010.06.03 18:47:42.
