data_PCOD9302995
_publ_section_title
;
Structure prediction by ZEFSAII (Michael W. Deem and Ramdas Pophale) SiO2 
 PCOD9302995
Probable space group: C 2/C
;
_chemical_formula_sum "Si O2"
_cell_formula_units_Z 56
_cell_length_a 5.043833
_cell_length_b 18.407090
_cell_length_c 29.253853
_cell_angle_alpha 90.000000
_cell_angle_beta 66.289833
_cell_angle_gamma 90.000000
_cell_volume 2486.740943
_symmetry_space_group_name_H-M "C 2/C"
_symmetry_group_IT_number 15
_symmetry_cell_setting 'monoclinic'
loop_
_space_group_symop_operation_xyz
x,y,z
-x,y,1/2-z
-x,-y,-z
x,-y,1/2+z
1/2+x,1/2+y,z
1/2-x,1/2+y,1/2-z
1/2-x,1/2-y,-z
1/2+x,1/2-y,1/2+z
loop_
_atom_site_type_symbol
_atom_site_label
_atom_site_fract_x
_atom_site_fract_y
_atom_site_fract_z
Si Si1 0.541905 0.759821 0.064998
Si Si2 0.500000 0.587464 0.250000
Si Si3 0.994939 0.241729 0.846901
Si Si4 0.636728 0.344051 0.026756
Si Si5 0.333909 0.408721 0.129783
Si Si6 0.500000 0.183291 0.250000
Si Si7 0.902400 0.637828 0.081193
Si Si8 0.268391 0.001020 0.151508
O O1 0.338798 0.780094 0.121546
O O2 0.822196 0.809725 0.039582
O O3 0.658532 0.679179 0.067763
O O4 0.331549 0.782052 0.038038
O O5 0.292342 0.635008 0.231345
O O6 0.711460 0.540713 0.203480
O O7 0.026926 0.269489 0.793792
O O8 0.045090 0.307053 0.879800
O O9 0.182095 0.172518 0.848574
O O10 0.558482 0.402678 0.071348
O O11 0.819653 0.371063 0.971097
O O12 0.482879 0.457416 0.157868
O O13 0.038812 0.446658 0.135373
O O14 0.817041 0.562254 0.109573
#
# Coordination Sequence:
#
# PCOD9302995 Si02
#       8
#     8   4   8   8   8   4   8   8
#     4  11  22  41  67 110 136 184 234 299 343 417
#     4  12  26  51  76 105 140 188 238 304 368 429
#     4  11  26  46  78 104 144 179 247 298 357 416
#     4  11  25  41  73 103 149 186 243 291 357 413
#     4  11  26  46  67 106 149 188 225 292 357 439
#     4  12  26  47  80 117 130 178 250 326 346 415
#     4  12  25  43  76 107 138 195 243 294 348 426
#     4  12  28  47  72 102 148 189 236 287 366 429
#
# _framework density 22.519435999999999
#
# number of rings (size 3 to 8) (size 9 to 14) (size 15 to 20)
#    0.000    0.571    4.286    4.286    4.000    1.714 
#    0.000    1.429    0.000    0.000    0.000    0.000 
#    0.000    0.000    0.000    0.000    0.000    0.000 
#
# Total GULP energy -156617.101913 kJ/mol
# GULP energy per Si atom -5593.467925 kJ/mol
# Density = 2.246818 g / cm^3
# Si number density = 22.519436 Si / 1000 Ang^3
#
#
#
# Elastic Constant Matrix: (Units=GPa)
#
#
# Indices 1 2 3 4 5 6 
#
# 1 129.9602 30.3527 9.0017 0.0000 5.2721 0.0000
# 2 30.3527 93.3316 31.0397 0.0000 4.9629 0.0000
# 3 9.0017 31.0397 126.2456 0.0000 10.0597 0.0000
# 4 0.0000 0.0000 0.0000 26.8625 0.0000 0.7442
# 5 5.2721 4.9629 10.0597 0.0000 33.7167 0.0000
# 6 0.0000 0.0000 0.0000 0.7442 0.0000 32.0924
#
#
#
# Elastic Compliance Matrix: (Units=1/GPa)
#
#
# Indices 1 2 3 4 5 6 
#
# 1 0.008357 -0.002717 0.000148 0.000000 -0.000951 0.000000
# 2 -0.002717 0.012577 -0.002853 0.000000 -0.000575 0.000000
# 3 0.000148 -0.002853 0.008789 0.000000 -0.002226 0.000000
# 4 0.000000 0.000000 0.000000 0.037251 0.000000 -0.000864
# 5 -0.000951 -0.000575 -0.002226 0.000000 0.030556 0.000000
# 6 0.000000 0.000000 0.000000 -0.000864 0.000000 0.031180
#
#
# Mechanical properties :
#
#
# Convention : Reuss Voigt Hill
#
# Bulk Modulus (GPa) = 52.96352 54.48064 53.72208
# Shear Modulus (GPa) = 34.28231 37.14386 35.71308
#
# Velocity S-wave (km/s) = 3.90595 4.06570 3.98663
# Velocity P-wave (km/s) = 6.62662 6.80332 6.71555
#
# Compressibility (1/GPa) = 0.01888092
#
# Stress axis : x y z
#
# Youngs Moduli (GPa) = 119.65350 79.50825 113.77489
#
# Poissons Ratio (x) = 0.21599 -0.01681
# Poissons Ratio (y) = 0.32504 0.32458
# Poissons Ratio (z) = -0.01768 0.22682
#
# Static dielectric constant tensor:
#      x y z
#    x 1.868960 0.000000 0.017410 
#    y 0.000000 1.847260 0.000000 
#    z 0.017410 0.000000 1.873750 
# 
# From -- ./inp_files/305763.got.cif
#   From: 2010.05.17/outbox.cif.g08.bks.cpg/sg15_153_cif.got.tgz:305763.got - 2010.06.03 18:47:42.
