data_PCOD9302899
_publ_section_title
;
Structure prediction by ZEFSAII (Michael W. Deem and Ramdas Pophale) SiO2 
 PCOD9302899
Probable space group: C 2/C
;
_chemical_formula_sum "Si O2"
_cell_formula_units_Z 40
_cell_length_a 13.234305
_cell_length_b 8.986970
_cell_length_c 23.025919
_cell_angle_alpha 90.000000
_cell_angle_beta 141.917076
_cell_angle_gamma 90.000000
_cell_volume 1689.182973
_symmetry_space_group_name_H-M "C 2/C"
_symmetry_group_IT_number 15
_symmetry_cell_setting 'monoclinic'
loop_
_space_group_symop_operation_xyz
x,y,z
-x,y,1/2-z
-x,-y,-z
x,-y,1/2+z
1/2+x,1/2+y,z
1/2-x,1/2+y,1/2-z
1/2-x,1/2-y,-z
1/2+x,1/2-y,1/2+z
loop_
_atom_site_type_symbol
_atom_site_label
_atom_site_fract_x
_atom_site_fract_y
_atom_site_fract_z
Si Si1 0.615652 0.307758 0.486737
Si Si2 0.067569 0.547901 0.715526
Si Si3 0.744114 0.574368 0.498128
Si Si4 0.688165 0.946511 0.091430
Si Si5 0.274890 0.161431 0.291924
O O1 0.750000 0.250000 0.500000
O O2 0.620108 0.485659 0.483670
O O3 0.438881 0.244989 0.389224
O O4 0.675762 0.228943 0.573079
O O5 0.139628 0.711716 0.735883
O O6 0.190926 0.415331 0.754291
O O7 0.000000 0.539263 0.750000
O O8 0.919959 0.527812 0.603232
O O9 0.750000 0.750000 0.500000
O O10 0.719255 0.519223 0.421355
O O11 0.756849 0.019097 0.180512
O O12 0.500000 0.000000 0.000000
#
# Coordination Sequence:
#
# PCOD9302899 Si02
#       5
#     8   8   8   8   8
#     4   9  18  40  73  94 127 179 241 272 341 421
#     4  12  27  46  63 105 150 173 231 294 354 429
#     4  11  22  40  69  99 134 174 232 297 333 415
#     4   9  17  40  67  87 124 174 233 274 320 420
#     4  11  24  46  68  99 141 186 230 289 364 417
#
# _framework density 23.680088000000001
#
# number of rings (size 3 to 8) (size 9 to 14) (size 15 to 20)
#    0.000    1.600    6.000    1.200    2.800    1.600 
#    0.000    5.000    0.000    0.000    0.000    0.000 
#    0.000    0.000    0.000    0.000    0.000    0.000 
#
# Total GULP energy -111701.099027 kJ/mol
# GULP energy per Si atom -5585.054951 kJ/mol
# Density = 2.362619 g / cm^3
# Si number density = 23.680088 Si / 1000 Ang^3
#
#
#
# Elastic Constant Matrix: (Units=GPa)
#
#
# Indices 1 2 3 4 5 6 
#
# 1 98.3316 62.7736 29.7785 0.0000 -27.3695 0.0000
# 2 62.7736 181.0221 14.8228 0.0000 -22.4194 0.0000
# 3 29.7785 14.8228 41.1525 0.0000 -6.5254 0.0000
# 4 0.0000 0.0000 0.0000 39.2259 0.0000 0.6423
# 5 -27.3695 -22.4194 -6.5254 0.0000 23.1325 0.0000
# 6 0.0000 0.0000 0.0000 0.6423 0.0000 50.7806
#
#
#
# Elastic Compliance Matrix: (Units=1/GPa)
#
#
# Indices 1 2 3 4 5 6 
#
# 1 0.021151 -0.004229 -0.010954 0.000000 0.017837 0.000000
# 2 -0.004229 0.007196 0.000817 0.000000 0.002202 0.000000
# 3 -0.010954 0.000817 0.031407 0.000000 -0.003309 0.000000
# 4 0.000000 0.000000 0.000000 0.025499 0.000000 -0.000323
# 5 0.017837 0.002202 -0.003309 0.000000 0.065534 0.000000
# 6 0.000000 0.000000 0.000000 -0.000323 0.000000 0.019697
#
#
# Mechanical properties :
#
#
# Convention : Reuss Voigt Hill
#
# Bulk Modulus (GPa) = 32.23328 59.47291 45.85309
# Shear Modulus (GPa) = 23.85997 36.83656 30.34826
#
# Velocity S-wave (km/s) = 3.17771 3.94838 3.58382
# Velocity P-wave (km/s) = 5.20628 6.77908 6.04406
#
# Compressibility (1/GPa) = 0.03102384
#
# Stress axis : x y z
#
# Youngs Moduli (GPa) = 47.27887 138.95924 31.83977
#
# Poissons Ratio (x) = 0.58760 0.34877
# Poissons Ratio (y) = 0.19992 -0.02601
# Poissons Ratio (z) = 0.51788 -0.11352
#
# Static dielectric constant tensor:
#      x y z
#    x 1.993990 0.000000 0.007820 
#    y 0.000000 1.987460 0.000000 
#    z 0.007820 0.000000 1.889430 
# 
# From -- ./inp_files/272948.got.cif
#   From: 2010.05.17/outbox.cif.g08.bks.cpg/sg15_137_cif.got.tgz:272948.got - 2010.06.03 18:47:42.
