data_PCOD9302450
_publ_section_title
;
Structure prediction by ZEFSAII (Michael W. Deem and Ramdas Pophale) SiO2 
 PCOD9302450
Probable space group: C 2/C
;
_chemical_formula_sum "Si O2"
_cell_formula_units_Z 40
_cell_length_a 20.023396
_cell_length_b 12.171966
_cell_length_c 8.359312
_cell_angle_alpha 90.000000
_cell_angle_beta 107.039463
_cell_angle_gamma 90.000000
_cell_volume 1947.931827
_symmetry_space_group_name_H-M "C 2/C"
_symmetry_group_IT_number 15
_symmetry_cell_setting 'monoclinic'
loop_
_space_group_symop_operation_xyz
x,y,z
-x,y,1/2-z
-x,-y,-z
x,-y,1/2+z
1/2+x,1/2+y,z
1/2-x,1/2+y,1/2-z
1/2-x,1/2-y,-z
1/2+x,1/2-y,1/2+z
loop_
_atom_site_type_symbol
_atom_site_label
_atom_site_fract_x
_atom_site_fract_y
_atom_site_fract_z
Si Si1 0.690524 0.066702 0.273356
Si Si2 0.051718 0.061600 0.655244
Si Si3 0.682769 0.842865 0.125970
Si Si4 0.837660 0.124116 0.244065
Si Si5 0.328965 0.285008 0.390046
O O1 0.679821 0.113895 0.443054
O O2 0.773573 0.065115 0.289882
O O3 0.660696 0.155265 0.126875
O O4 0.662261 0.945100 0.223651
O O5 0.102241 0.151531 0.616369
O O6 0.000000 0.110311 0.750000
O O7 0.103249 0.964539 0.751078
O O8 0.000000 0.000000 0.500000
O O9 0.642073 0.729580 0.133321
O O10 0.762989 0.813235 0.229705
O O11 0.813288 0.175613 0.058646
#
# Coordination Sequence:
#
# PCOD9302450 Si02
#       5
#     8   8   8   8   8
#     4  11  22  36  61  88 122 155 195 258 303 355
#     4  12  26  40  62  88 124 164 200 247 291 358
#     4  11  22  36  61  88 122 155 195 257 305 353
#     4  11  22  38  59  88 121 156 204 245 303 356
#     4  11  22  38  59  88 121 156 204 244 305 355
#
# _framework density 20.534599
#
# number of rings (size 3 to 8) (size 9 to 14) (size 15 to 20)
#    0.000    0.800    4.000    7.200    5.600    0.000 
#    0.000    0.000    0.000    2.400    0.000    0.000 
#    0.000    0.000    0.000    0.000    0.000    0.000 
#
# Total GULP energy -111763.434362 kJ/mol
# GULP energy per Si atom -5588.171718 kJ/mol
# Density = 2.048786 g / cm^3
# Si number density = 20.534599 Si / 1000 Ang^3
#
#
#
# Elastic Constant Matrix: (Units=GPa)
#
#
# Indices 1 2 3 4 5 6 
#
# 1 59.0201 10.8550 1.5700 0.0000 -12.6581 0.0000
# 2 10.8550 97.6443 -21.1262 0.0000 -4.8693 0.0000
# 3 1.5700 -21.1262 52.6537 0.0000 -19.4438 0.0000
# 4 0.0000 0.0000 0.0000 30.8589 0.0000 -10.3891
# 5 -12.6581 -4.8693 -19.4438 0.0000 32.9737 0.0000
# 6 0.0000 0.0000 0.0000 -10.3891 0.0000 20.2762
#
#
#
# Elastic Compliance Matrix: (Units=1/GPa)
#
#
# Indices 1 2 3 4 5 6 
#
# 1 0.018887 -0.001264 0.001966 0.000000 0.008223 0.000000
# 2 -0.001264 0.012141 0.006893 0.000000 0.005372 0.000000
# 3 0.001966 0.006893 0.028576 0.000000 0.018623 0.000000
# 4 0.000000 0.000000 0.000000 0.039161 0.000000 0.020065
# 5 0.008223 0.005372 0.018623 0.000000 0.045259 0.000000
# 6 0.000000 0.000000 0.000000 0.020065 0.000000 0.059600
#
#
# Mechanical properties :
#
#
# Convention : Reuss Voigt Hill
#
# Bulk Modulus (GPa) = 13.36997 21.32395 17.34696
# Shear Modulus (GPa) = 23.43396 31.35638 27.39517
#
# Velocity S-wave (km/s) = 3.38182 3.91193 3.65649
# Velocity P-wave (km/s) = 4.66627 5.55078 5.12763
#
# Compressibility (1/GPa) = 0.07479450
#
# Stress axis : x y z
#
# Youngs Moduli (GPa) = 52.94576 82.36543 34.99411
#
# Poissons Ratio (x) = 0.10412 -0.06881
# Poissons Ratio (y) = 0.06693 -0.24121
# Poissons Ratio (z) = -0.10411 -0.56773
#
# Static dielectric constant tensor:
#      x y z
#    x 1.775970 0.000000 -0.056800 
#    y 0.000000 1.817480 0.000000 
#    z -0.056800 0.000000 1.813370 
# 
# From -- ./inp_files/54064.got.cif
#   From: 2010.05.17/outbox.cif.g08.bks.cpg/sg15_28_cif.got.tgz:54064.got - 2010.06.03 18:47:42.
