data_PCOD9302522
_publ_section_title
;
Structure prediction by ZEFSAII (Michael W. Deem and Ramdas Pophale) SiO2 
 PCOD9302522
Probable space group: C 2/C
;
_chemical_formula_sum "Si O2"
_cell_formula_units_Z 40
_cell_length_a 14.740556
_cell_length_b 12.420946
_cell_length_c 11.381715
_cell_angle_alpha 90.000000
_cell_angle_beta 106.857363
_cell_angle_gamma 90.000000
_cell_volume 1994.351191
_symmetry_space_group_name_H-M "C 2/C"
_symmetry_group_IT_number 15
_symmetry_cell_setting 'monoclinic'
loop_
_space_group_symop_operation_xyz
x,y,z
-x,y,1/2-z
-x,-y,-z
x,-y,1/2+z
1/2+x,1/2+y,z
1/2-x,1/2+y,1/2-z
1/2-x,1/2-y,-z
1/2+x,1/2-y,1/2+z
loop_
_atom_site_type_symbol
_atom_site_label
_atom_site_fract_x
_atom_site_fract_y
_atom_site_fract_z
Si Si1 0.046693 0.508300 0.888729
Si Si2 0.496374 0.247270 0.621869
Si Si3 0.218964 0.724097 0.665766
Si Si4 0.314114 0.333311 0.447576
Si Si5 0.755206 0.925090 0.966732
O O1 0.057334 0.635353 0.873272
O O2 0.145836 0.452446 0.934024
O O3 0.000000 0.466465 0.750000
O O4 0.000000 0.500000 0.000000
O O5 0.500000 0.306203 0.750000
O O6 0.603664 0.215985 0.625880
O O7 0.425792 0.304631 0.504467
O O8 0.269476 0.685186 0.802708
O O9 0.230862 0.850683 0.642130
O O10 0.269920 0.653486 0.583375
O O11 0.250000 0.250000 0.500000
O O12 0.304514 0.458691 0.481033
#
# Coordination Sequence:
#
# PCOD9302522 Si02
#       5
#     8   8   8   8   8
#     4  11  22  37  68  98 130 173 227 285 330 388
#     4  11  22  41  63  99 130 171 224 273 328 401
#     4  11  26  45  65  98 139 168 222 280 332 397
#     4  12  24  40  72  96 128 178 222 267 339 402
#     4  11  26  43  65  98 135 176 217 282 331 396
#
# _framework density 20.056647999999999
#
# number of rings (size 3 to 8) (size 9 to 14) (size 15 to 20)
#    0.000    0.800    6.000    1.200    5.600    0.800 
#    0.000    3.000    0.000    0.000    0.000    0.000 
#    0.000    0.000    0.000    0.000    0.000    0.000 
#
# Total GULP energy -111395.635186 kJ/mol
# GULP energy per Si atom -5569.781759 kJ/mol
# Density = 2.001100 g / cm^3
# Si number density = 20.056648 Si / 1000 Ang^3
#
#
#
# Elastic Constant Matrix: (Units=GPa)
#
#
# Indices 1 2 3 4 5 6 
#
# 1 62.8765 12.0275 33.0811 0.0000 12.2609 0.0000
# 2 12.0275 109.6330 29.8056 0.0000 0.0578 0.0000
# 3 33.0811 29.8056 109.0562 0.0000 9.2915 0.0000
# 4 0.0000 0.0000 0.0000 8.9329 0.0000 -28.4792
# 5 12.2609 0.0578 9.2915 0.0000 28.8217 0.0000
# 6 0.0000 0.0000 0.0000 -28.4792 0.0000 -12.9703
#
#
#
# Elastic Compliance Matrix: (Units=1/GPa)
#
#
# Indices 1 2 3 4 5 6 
#
# 1 0.020195 -0.000762 -0.005332 0.000000 -0.006871 0.000000
# 2 -0.000762 0.009904 -0.002572 0.000000 0.001134 0.000000
# 3 -0.005332 -0.002572 0.011615 0.000000 -0.001471 0.000000
# 4 0.000000 0.000000 0.000000 0.013993 0.000000 -0.030724
# 5 -0.006871 0.001134 -0.001471 0.000000 0.038091 0.000000
# 6 0.000000 0.000000 0.000000 -0.030724 0.000000 -0.009637
#
#
# Mechanical properties :
#
#
# Convention : Reuss Voigt Hill
#
# Bulk Modulus (GPa) = 41.01559 47.93268 44.47413
# Shear Modulus (GPa) = 45.61168 18.73363 32.17266
#
# Velocity S-wave (km/s) = 4.77397 3.05952 4.00945
# Velocity P-wave (km/s) = 7.13316 6.03584 6.60732
#
# Compressibility (1/GPa) = 0.02438097
#
# Stress axis : x y z
#
# Youngs Moduli (GPa) = 49.51655 100.97309 86.09274
#
# Poissons Ratio (x) = 0.07697 0.45907
# Poissons Ratio (y) = 0.03774 0.22144
# Poissons Ratio (z) = 0.26404 0.25971
#
# Static dielectric constant tensor:
#      x y z
#    x 1.700760 0.000000 0.029960 
#    y 0.000000 1.748270 0.000000 
#    z 0.029960 0.000000 1.669380 
# 
# From -- ./inp_files/94483.got.cif
#   From: 2010.05.17/outbox.cif.g08.bks.cpg/sg15_48_cif.got.tgz:94483.got - 2010.06.03 18:47:42.
