data_PCOD9302228
_publ_section_title
;
Structure prediction by ZEFSAII (Michael W. Deem and Ramdas Pophale) SiO2 
 PCOD9302228
Probable space group: C 2/C
;
_chemical_formula_sum "Si O2"
_cell_formula_units_Z 56
_cell_length_a 9.739206
_cell_length_b 27.400006
_cell_length_c 11.396393
_cell_angle_alpha 90.000000
_cell_angle_beta 63.116407
_cell_angle_gamma 90.000000
_cell_volume 2712.507594
_symmetry_space_group_name_H-M "C 2/C"
_symmetry_group_IT_number 15
_symmetry_cell_setting 'monoclinic'
loop_
_space_group_symop_operation_xyz
x,y,z
-x,y,1/2-z
-x,-y,-z
x,-y,1/2+z
1/2+x,1/2+y,z
1/2-x,1/2+y,1/2-z
1/2-x,1/2-y,-z
1/2+x,1/2-y,1/2+z
loop_
_atom_site_type_symbol
_atom_site_label
_atom_site_fract_x
_atom_site_fract_y
_atom_site_fract_z
Si Si1 0.183754 0.611714 0.502849
Si Si2 0.918489 0.148969 0.581341
Si Si3 0.791859 0.094217 0.996858
Si Si4 0.335313 0.154656 0.248960
Si Si5 0.096580 0.503143 0.586005
Si Si6 0.873111 0.658104 0.639412
Si Si7 0.145132 0.235308 0.430240
O O1 0.342807 0.633173 0.488364
O O2 0.159461 0.629607 0.379010
O O3 0.179202 0.555123 0.539718
O O4 0.028613 0.632815 0.619822
O O5 0.771993 0.158577 0.718951
O O6 0.028460 0.106546 0.591878
O O7 0.018360 0.197569 0.525721
O O8 0.692596 0.126743 0.944786
O O9 0.761849 0.117639 0.134758
O O10 0.720902 0.040481 0.029575
O O11 0.500000 0.159488 0.250000
O O12 0.248254 0.206356 0.294738
O O13 0.000000 0.500145 0.750000
O O14 0.000000 0.500000 0.500000
O O15 0.916468 0.713559 0.592002
O O16 0.250000 0.250000 0.500000
#
# Coordination Sequence:
#
# PCOD9302228 Si02
#       7
#     8   8   8   8   8   8   8
#     4  12  26  46  71 103 146 189 231 310 362 419
#     4  11  27  45  65 105 148 176 243 301 360 433
#     4  11  23  41  72 102 136 186 234 294 352 425
#     4  11  21  43  70  99 138 179 244 287 355 440
#     4  12  24  45  77 110 144 197 252 300 370 448
#     4  12  23  44  69 100 138 186 232 289 357 428
#     4  11  24  41  71 100 133 189 235 292 362 427
#
# _framework density 20.645104
#
# number of rings (size 3 to 8) (size 9 to 14) (size 15 to 20)
#    0.000    0.571    5.714    3.000    4.000    3.429 
#    2.571    0.000    6.286    0.000    0.000    0.000 
#    0.000    0.000    0.000    0.000    0.000    0.000 
#
# Total GULP energy -156263.485423 kJ/mol
# GULP energy per Si atom -5580.838765 kJ/mol
# Density = 2.059811 g / cm^3
# Si number density = 20.645104 Si / 1000 Ang^3
#
#
#
# Elastic Constant Matrix: (Units=GPa)
#
#
# Indices 1 2 3 4 5 6 
#
# 1 116.8086 54.0010 14.1983 0.0000 -3.7825 0.0000
# 2 54.0010 174.7166 33.2491 0.0000 -7.2986 0.0000
# 3 14.1983 33.2491 93.2733 0.0000 5.0085 0.0000
# 4 0.0000 0.0000 0.0000 21.5119 0.0000 -13.4368
# 5 -3.7825 -7.2986 5.0085 0.0000 32.7758 0.0000
# 6 0.0000 0.0000 0.0000 -13.4368 0.0000 23.7712
#
#
#
# Elastic Compliance Matrix: (Units=1/GPa)
#
#
# Indices 1 2 3 4 5 6 
#
# 1 0.010016 -0.002978 -0.000494 0.000000 0.000568 0.000000
# 2 -0.002978 0.007123 -0.002170 0.000000 0.001574 0.000000
# 3 -0.000494 -0.002170 0.011695 0.000000 -0.002327 0.000000
# 4 0.000000 0.000000 0.000000 0.071856 0.000000 0.040617
# 5 0.000568 0.001574 -0.002327 0.000000 0.031282 0.000000
# 6 0.000000 0.000000 0.000000 0.040617 0.000000 0.065027
#
#
# Mechanical properties :
#
#
# Convention : Reuss Voigt Hill
#
# Bulk Modulus (GPa) = 56.98004 65.29945 61.13974
# Shear Modulus (GPa) = 23.35003 34.50178 28.92591
#
# Velocity S-wave (km/s) = 3.36671 4.09245 3.74719
# Velocity P-wave (km/s) = 6.54008 7.35044 6.95707
#
# Compressibility (1/GPa) = 0.01755000
#
# Stress axis : x y z
#
# Youngs Moduli (GPa) = 99.83821 140.39457 85.50724
#
# Poissons Ratio (x) = 0.41811 0.04221
# Poissons Ratio (y) = 0.29733 0.18557
# Poissons Ratio (z) = 0.04928 0.30469
#
# Static dielectric constant tensor:
#      x y z
#    x 1.746880 0.000000 0.003700 
#    y 0.000000 1.759870 0.000000 
#    z 0.003700 0.000000 2.159490 
# 
# From -- ./inp_files/81279.got.cif
#   From: 2010.05.17/outbox.cif.g08.bks.cpg/sg15_41_cif.got.tgz:81279.got - 2010.06.03 18:47:42.
