data_PCOD9302551
_publ_section_title
;
Structure prediction by ZEFSAII (Michael W. Deem and Ramdas Pophale) SiO2 
 PCOD9302551
Probable space group: C 2/C
;
_chemical_formula_sum "Si O2"
_cell_formula_units_Z 56
_cell_length_a 19.269462
_cell_length_b 20.133134
_cell_length_c 10.605888
_cell_angle_alpha 90.000000
_cell_angle_beta 45.301460
_cell_angle_gamma 90.000000
_cell_volume 2924.731878
_symmetry_space_group_name_H-M "C 2/C"
_symmetry_group_IT_number 15
_symmetry_cell_setting 'monoclinic'
loop_
_space_group_symop_operation_xyz
x,y,z
-x,y,1/2-z
-x,-y,-z
x,-y,1/2+z
1/2+x,1/2+y,z
1/2-x,1/2+y,1/2-z
1/2-x,1/2-y,-z
1/2+x,1/2-y,1/2+z
loop_
_atom_site_type_symbol
_atom_site_label
_atom_site_fract_x
_atom_site_fract_y
_atom_site_fract_z
Si Si1 0.236677 0.138671 0.070433
Si Si2 0.135566 0.883000 0.941773
Si Si3 0.865253 0.986211 0.900365
Si Si4 0.110913 0.741290 0.106013
Si Si5 0.695267 0.702120 0.748088
Si Si6 0.567618 0.428871 0.421917
Si Si7 0.884480 0.253088 0.385916
O O1 0.225567 0.124587 0.232114
O O2 0.149137 0.191700 0.157515
O O3 0.333708 0.178321 0.908976
O O4 0.214524 0.070002 0.028253
O O5 0.159179 0.943574 0.004088
O O6 0.114478 0.815130 0.041602
O O7 0.035910 0.899916 0.992888
O O8 0.925523 0.951515 0.940038
O O9 0.904843 0.012790 0.713248
O O10 0.150411 0.751296 0.196591
O O11 0.000000 0.717111 0.250000
O O12 0.189421 0.699463 0.926350
O O13 0.645294 0.630359 0.807608
O O14 0.666148 0.734248 0.917348
O O15 0.000000 0.256777 0.250000
#
# Coordination Sequence:
#
# PCOD9302551 Si02
#       7
#     8   8   8   8   8   8   8
#     4  11  25  38  61  94 121 159 203 251 307 370
#     4  12  22  38  59  89 129 158 199 247 312 368
#     4  12  24  38  59  90 125 161 198 247 306 376
#     4  11  22  38  62  90 123 160 200 253 305 362
#     4  11  22  39  61  89 121 161 204 248 304 364
#     4  12  24  37  59  92 126 162 201 245 312 372
#     4  11  24  42  64  89 122 162 206 257 305 359
#
# _framework density 19.147055000000002
#
# number of rings (size 3 to 8) (size 9 to 14) (size 15 to 20)
#    0.000    0.571    7.143    1.714    2.000    0.000 
#    0.000    0.000    0.000    1.714    0.000    0.000 
#    0.000    0.000    0.000    0.000    0.000    0.000 
#
# Total GULP energy -156288.007589 kJ/mol
# GULP energy per Si atom -5581.714557 kJ/mol
# Density = 1.910347 g / cm^3
# Si number density = 19.147055 Si / 1000 Ang^3
#
#
#
# Elastic Constant Matrix: (Units=GPa)
#
#
# Indices 1 2 3 4 5 6 
#
# 1 59.6316 19.0148 36.9874 0.0000 1.6333 0.0000
# 2 19.0148 89.4607 31.4829 0.0000 -11.2677 0.0000
# 3 36.9874 31.4829 93.5230 0.0000 -4.3138 0.0000
# 4 0.0000 0.0000 0.0000 28.4065 0.0000 -5.4232
# 5 1.6333 -11.2677 -4.3138 0.0000 50.3653 0.0000
# 6 0.0000 0.0000 0.0000 -5.4232 0.0000 29.2755
#
#
#
# Elastic Compliance Matrix: (Units=1/GPa)
#
#
# Indices 1 2 3 4 5 6 
#
# 1 0.022674 -0.002127 -0.008340 0.000000 -0.001925 0.000000
# 2 -0.002127 0.013196 -0.003476 0.000000 0.002724 0.000000
# 3 -0.008340 -0.003476 0.015198 0.000000 0.000795 0.000000
# 4 0.000000 0.000000 0.000000 0.036494 0.000000 0.006760
# 5 -0.001925 0.002724 0.000795 0.000000 0.020595 0.000000
# 6 0.000000 0.000000 0.000000 0.006760 0.000000 0.035411
#
#
# Mechanical properties :
#
#
# Convention : Reuss Voigt Hill
#
# Bulk Modulus (GPa) = 43.13555 46.39839 44.76697
# Shear Modulus (GPa) = 27.90507 31.95148 29.92828
#
# Velocity S-wave (km/s) = 3.82174 4.08945 3.95786
# Velocity P-wave (km/s) = 6.48473 6.82521 6.65715
#
# Compressibility (1/GPa) = 0.02318274
#
# Stress axis : x y z
#
# Youngs Moduli (GPa) = 44.10423 75.77894 65.79995
#
# Poissons Ratio (x) = 0.16116 0.54877
# Poissons Ratio (y) = 0.09380 0.22869
# Poissons Ratio (z) = 0.36783 0.26337
#
# Static dielectric constant tensor:
#      x y z
#    x 1.706580 0.000000 0.022310 
#    y 0.000000 1.689650 0.000000 
#    z 0.022310 0.000000 1.710320 
# 
# From -- ./inp_files/114053.got.cif
#   From: 2010.05.17/outbox.cif.g08.bks.cpg/sg15_58_cif.got.tgz:114053.got - 2010.06.03 18:47:42.
