data_PCOD9302394
_publ_section_title
;
Structure prediction by ZEFSAII (Michael W. Deem and Ramdas Pophale) SiO2 
 PCOD9302394
Probable space group: C 2/C
;
_chemical_formula_sum "Si O2"
_cell_formula_units_Z 48
_cell_length_a 14.678088
_cell_length_b 21.476569
_cell_length_c 14.287182
_cell_angle_alpha 90.000000
_cell_angle_beta 29.352249
_cell_angle_gamma 90.000000
_cell_volume 2207.670940
_symmetry_space_group_name_H-M "C 2/C"
_symmetry_group_IT_number 15
_symmetry_cell_setting 'monoclinic'
loop_
_space_group_symop_operation_xyz
x,y,z
-x,y,1/2-z
-x,-y,-z
x,-y,1/2+z
1/2+x,1/2+y,z
1/2-x,1/2+y,1/2-z
1/2-x,1/2-y,-z
1/2+x,1/2-y,1/2+z
loop_
_atom_site_type_symbol
_atom_site_label
_atom_site_fract_x
_atom_site_fract_y
_atom_site_fract_z
Si Si1 0.078422 0.327674 0.489396
Si Si2 0.256937 0.289136 0.592375
Si Si3 0.067586 0.499784 0.289578
Si Si4 0.177386 0.414914 0.863749
Si Si5 0.951606 0.099200 0.685329
Si Si6 0.534911 0.539732 0.107345
O O1 0.183374 0.262502 0.385215
O O2 0.242076 0.377440 0.359298
O O3 0.941489 0.352171 0.532011
O O4 0.940404 0.316485 0.700685
O O5 0.250000 0.250000 0.500000
O O6 0.406875 0.344421 0.463340
O O7 0.128604 0.552016 0.308746
O O8 0.000000 0.525216 0.250000
O O9 0.905027 0.460219 0.483033
O O10 0.247727 0.456822 0.109798
O O11 0.396950 0.411734 0.681730
O O12 0.000000 0.089096 0.750000
O O13 0.975875 0.029709 0.624331
O O14 0.500000 0.544548 0.250000
#
# Coordination Sequence:
#
# PCOD9302394 Si02
#       6
#     8   8   8   8   8   8
#     4  12  24  38  59  87 128 167 209 265 317 383
#     4  12  23  39  59  89 129 170 218 260 323 396
#     4  11  22  40  64  92 135 172 218 271 324 392
#     4  11  25  41  63  97 132 173 225 272 327 398
#     4  11  22  34  57  89 126 172 213 254 312 389
#     4  11  23  42  65  96 135 177 222 267 334 389
#
# _framework density 21.742370999999999
#
# number of rings (size 3 to 8) (size 9 to 14) (size 15 to 20)
#    0.000    0.667    5.000    4.000    2.333    2.667 
#    0.000    0.000    0.000    0.000    0.000    3.500 
#    0.000    0.000    0.000    0.000    0.000    0.000 
#
# Total GULP energy -134169.949487 kJ/mol
# GULP energy per Si atom -5590.414562 kJ/mol
# Density = 2.169288 g / cm^3
# Si number density = 21.742371 Si / 1000 Ang^3
#
#
#
# Elastic Constant Matrix: (Units=GPa)
#
#
# Indices 1 2 3 4 5 6 
#
# 1 92.4806 23.1204 22.0341 0.0077 -10.0669 0.0010
# 2 23.1204 57.9757 -5.2868 0.0207 -3.9004 0.0045
# 3 22.0341 -5.2868 104.2377 0.0148 -20.9916 0.0085
# 4 0.0077 0.0207 0.0148 23.5782 0.0009 -7.2120
# 5 -10.0669 -3.9004 -20.9916 0.0009 43.6920 -0.0017
# 6 0.0010 0.0045 0.0085 -7.2120 -0.0017 25.7210
#
#
#
# Elastic Compliance Matrix: (Units=1/GPa)
#
#
# Indices 1 2 3 4 5 6 
#
# 1 0.012933 -0.005331 -0.002768 0.000003 0.001174 0.000002
# 2 -0.005331 0.019716 0.002473 -0.000020 0.001720 -0.000010
# 3 -0.002768 0.002473 0.011315 -0.000011 0.005019 -0.000007
# 4 0.000003 -0.000020 -0.000011 0.046391 -0.000007 0.013008
# 5 0.001174 0.001720 0.005019 -0.000007 0.025723 -0.000002
# 6 0.000002 -0.000010 -0.000007 0.013008 -0.000002 0.042526
#
#
# Mechanical properties :
#
#
# Convention : Reuss Voigt Hill
#
# Bulk Modulus (GPa) = 30.56934 37.15883 33.86409
# Shear Modulus (GPa) = 27.66114 32.91999 30.29056
#
# Velocity S-wave (km/s) = 3.57069 3.89536 3.73655
# Velocity P-wave (km/s) = 5.57585 6.11223 5.85019
#
# Compressibility (1/GPa) = 0.03271251
#
# Stress axis : x y z
#
# Youngs Moduli (GPa) = 77.32093 50.72061 88.38038
#
# Poissons Ratio (x) = 0.27039 0.24462
# Poissons Ratio (y) = 0.41220 -0.21858
# Poissons Ratio (z) = 0.21401 -0.12544
#
# Static dielectric constant tensor:
#      x y z
#    x 1.808970 0.000000 0.000620 
#    y 0.000000 1.835860 0.000020 
#    z 0.000620 0.000020 1.862620 
# 
# From -- ./inp_files/156750.got.cif
#   From: 2010.05.17/outbox.cif.g08.bks.cpg/sg15_79_cif.got.tgz:156750.got - 2010.06.03 18:47:42.
