data_PCOD9302398
_publ_section_title
;
Structure prediction by ZEFSAII (Michael W. Deem and Ramdas Pophale) SiO2 
 PCOD9302398
Probable space group: C 2/C
;
_chemical_formula_sum "Si O2"
_cell_formula_units_Z 56
_cell_length_a 25.647577
_cell_length_b 12.760096
_cell_length_c 26.669066
_cell_angle_alpha 90.000000
_cell_angle_beta 160.693371
_cell_angle_gamma 90.000000
_cell_volume 2885.638493
_symmetry_space_group_name_H-M "C 2/C"
_symmetry_group_IT_number 15
_symmetry_cell_setting 'monoclinic'
loop_
_space_group_symop_operation_xyz
x,y,z
-x,y,1/2-z
-x,-y,-z
x,-y,1/2+z
1/2+x,1/2+y,z
1/2-x,1/2+y,1/2-z
1/2-x,1/2-y,-z
1/2+x,1/2-y,1/2+z
loop_
_atom_site_type_symbol
_atom_site_label
_atom_site_fract_x
_atom_site_fract_y
_atom_site_fract_z
Si Si1 0.590580 0.307051 0.636211
Si Si2 0.872659 0.495836 0.675072
Si Si3 0.964701 0.687123 0.333511
Si Si4 0.629558 0.660021 0.910036
Si Si5 0.815370 0.501272 0.317218
Si Si6 0.322804 0.194402 0.882159
Si Si7 0.760829 0.617538 0.668270
O O1 0.725510 0.394403 0.751606
O O2 0.574299 0.250471 0.567317
O O3 0.424699 0.357331 0.500275
O O4 0.648042 0.219004 0.727423
O O5 0.946959 0.400236 0.774994
O O6 0.726393 0.442030 0.513686
O O7 0.819515 0.580950 0.667375
O O8 0.000000 0.532475 0.750000
O O9 0.799812 0.723588 0.206740
O O10 0.042305 0.788864 0.378259
O O11 0.074020 0.652549 0.478439
O O12 0.500000 0.639950 0.750000
O O13 0.750000 0.750000 0.000000
O O14 0.741123 0.402686 0.279988
O O15 0.793485 0.473886 0.238895
O O16 0.000000 0.500000 0.500000
#
# Coordination Sequence:
#
# PCOD9302398 Si02
#       7
#     8   8   8   8   8   8   8
#     4  11  23  44  63  92 138 175 218 274 320 389
#     4  12  25  43  65  94 127 168 221 279 331 392
#     4  12  21  35  60  95 133 162 201 254 328 397
#     4  12  21  40  60  92 132 169 202 264 333 391
#     4  11  22  39  62  97 135 173 216 260 320 398
#     4  11  22  34  60  94 127 168 206 250 318 392
#     4  11  25  43  68  95 127 179 224 271 336 387
#
# _framework density 19.406451000000001
#
# number of rings (size 3 to 8) (size 9 to 14) (size 15 to 20)
#    0.000    0.571    4.286    6.429    2.000    0.000 
#    0.000    2.143    0.000    0.000    0.000    0.000 
#    0.000    0.000    0.000    0.000    0.000    0.000 
#
# Total GULP energy -156633.045107 kJ/mol
# GULP energy per Si atom -5594.037325 kJ/mol
# Density = 1.936228 g / cm^3
# Si number density = 19.406451 Si / 1000 Ang^3
#
#
#
# Elastic Constant Matrix: (Units=GPa)
#
#
# Indices 1 2 3 4 5 6 
#
# 1 153.6813 55.2875 61.8262 0.0011 4.3161 0.0004
# 2 55.2875 83.5675 33.4281 0.0076 5.1347 0.0017
# 3 61.8262 33.4281 109.3055 0.0145 -1.5156 0.0043
# 4 0.0011 0.0076 0.0145 27.9161 -0.0008 0.6729
# 5 4.3161 5.1347 -1.5156 -0.0008 34.0560 -0.0002
# 6 0.0004 0.0017 0.0043 0.6729 -0.0002 37.1962
#
#
#
# Elastic Compliance Matrix: (Units=1/GPa)
#
#
# Indices 1 2 3 4 5 6 
#
# 1 0.009951 -0.004882 -0.004145 0.000003 -0.000710 0.000001
# 2 -0.004882 0.016202 -0.002221 -0.000003 -0.001923 0.000000
# 3 -0.004145 -0.002221 0.012192 -0.000006 0.001403 -0.000001
# 4 0.000003 -0.000003 -0.000006 0.035837 0.000001 -0.000648
# 5 -0.000710 -0.001923 0.001403 0.000001 0.029806 0.000000
# 6 0.000001 0.000000 -0.000001 -0.000648 0.000000 0.026896
#
#
# Mechanical properties :
#
#
# Convention : Reuss Voigt Hill
#
# Bulk Modulus (GPa) = 63.09105 71.95975 67.52540
# Shear Modulus (GPa) = 31.51343 32.90117 32.20730
#
# Velocity S-wave (km/s) = 4.03409 4.12196 4.07826
# Velocity P-wave (km/s) = 7.36746 7.73401 7.55296
#
# Compressibility (1/GPa) = 0.01585011
#
# Stress axis : x y z
#
# Youngs Moduli (GPa) = 100.49509 61.71934 82.02120
#
# Poissons Ratio (x) = 0.30128 0.34001
# Poissons Ratio (y) = 0.49057 0.18214
# Poissons Ratio (z) = 0.41659 0.13705
#
# Static dielectric constant tensor:
#      x y z
#    x 1.676480 0.000000 0.002150 
#    y 0.000000 1.689090 0.000000 
#    z 0.002150 0.000000 1.706120 
# 
# From -- ./inp_files/303287.got.cif
#   From: 2010.05.17/outbox.cif.g08.bks.cpg/sg15_152_cif.got.tgz:303287.got - 2010.06.03 18:47:42.
