data_PCOD9302720
_publ_section_title
;
Structure prediction by ZEFSAII (Michael W. Deem and Ramdas Pophale) SiO2 
 PCOD9302720
Probable space group: C 2/C
;
_chemical_formula_sum "Si O2"
_cell_formula_units_Z 24
_cell_length_a 4.773648
_cell_length_b 17.213365
_cell_length_c 12.664118
_cell_angle_alpha 90.000000
_cell_angle_beta 63.162599
_cell_angle_gamma 90.000000
_cell_volume 928.533936
_symmetry_space_group_name_H-M "C 2/C"
_symmetry_group_IT_number 15
_symmetry_cell_setting 'monoclinic'
loop_
_space_group_symop_operation_xyz
x,y,z
-x,y,1/2-z
-x,-y,-z
x,-y,1/2+z
1/2+x,1/2+y,z
1/2-x,1/2+y,1/2-z
1/2-x,1/2-y,-z
1/2+x,1/2-y,1/2+z
loop_
_atom_site_type_symbol
_atom_site_label
_atom_site_fract_x
_atom_site_fract_y
_atom_site_fract_z
Si Si1 0.078068 0.698702 0.618321
Si Si2 0.351303 0.398940 0.432322
Si Si3 0.325686 0.950136 0.673492
O O1 0.250000 0.750000 0.500000
O O2 0.300921 0.621531 0.589714
O O3 0.000000 0.726539 0.750000
O O4 0.753354 0.671539 0.623116
O O5 0.298823 0.478756 0.377897
O O6 0.095242 0.402754 0.568371
O O7 0.500000 0.976476 0.750000
O O8 0.000000 0.905432 0.750000
#
# Coordination Sequence:
#
# PCOD9302720 Si02
#       3
#     8   8   8
#     4  12  26  45  68  94 131 179 229 278 329 390
#     4  11  24  42  66  97 133 175 219 272 339 402
#     4  11  22  39  67 101 136 172 215 273 340 408
#
# _framework density 25.847197000000001
#
# number of rings (size 3 to 8) (size 9 to 14) (size 15 to 20)
#    0.000    0.667    0.000    9.000    0.000    9.333 
#    0.000    0.000    0.000    0.000    0.000    0.000 
#    0.000    0.000    0.000    0.000    0.000    0.000 
#
# Total GULP energy -67198.488991 kJ/mol
# GULP energy per Si atom -5599.874083 kJ/mol
# Density = 2.578837 g / cm^3
# Si number density = 25.847197 Si / 1000 Ang^3
#
#
#
# Elastic Constant Matrix: (Units=GPa)
#
#
# Indices 1 2 3 4 5 6 
#
# 1 116.4280 4.3716 36.2312 0.0000 -17.3003 0.0000
# 2 4.3716 67.3599 47.8769 0.0000 0.7301 0.0000
# 3 36.2312 47.8769 212.4790 0.0000 -23.4273 0.0000
# 4 0.0000 0.0000 0.0000 -7.9626 0.0000 39.3951
# 5 -17.3003 0.7301 -23.4273 0.0000 49.7087 0.0000
# 6 0.0000 0.0000 0.0000 39.3951 0.0000 -49.4597
#
#
#
# Elastic Compliance Matrix: (Units=1/GPa)
#
#
# Indices 1 2 3 4 5 6 
#
# 1 0.009397 0.000353 -0.001394 0.000000 0.002608 0.000000
# 2 0.000353 0.017933 -0.004342 0.000000 -0.002187 0.000000
# 3 -0.001394 -0.004342 0.006198 0.000000 0.002500 0.000000
# 4 0.000000 0.000000 0.000000 0.042706 0.000000 0.034016
# 5 0.002608 -0.002187 0.002500 0.000000 0.022235 0.000000
# 6 0.000000 0.000000 0.000000 0.034016 0.000000 0.006875
#
#
# Mechanical properties :
#
#
# Convention : Reuss Voigt Hill
#
# Bulk Modulus (GPa) = 43.93473 63.69181 53.81327
# Shear Modulus (GPa) = 40.42111 18.97644 29.69878
#
# Velocity S-wave (km/s) = 3.95884 2.71251 3.39339
# Velocity P-wave (km/s) = 6.15884 5.87413 6.01817
#
# Compressibility (1/GPa) = 0.02276104
#
# Stress axis : x y z
#
# Youngs Moduli (GPa) = 106.41462 55.76463 161.34104
#
# Poissons Ratio (x) = -0.01968 0.22496
# Poissons Ratio (y) = -0.03755 0.70053
# Poissons Ratio (z) = 0.14838 0.24213
#
# Static dielectric constant tensor:
#      x y z
#    x 1.906030 0.000000 -0.005150 
#    y 0.000000 2.050910 0.000000 
#    z -0.005150 0.000000 2.272180 
# 
# From -- ./inp_files/71366.got.cif
#   From: 2010.05.17/outbox.cif.g08.bks.cpg/sg15_36_cif.got.tgz:71366.got - 2010.06.03 18:47:42.
