data_PCOD9302564
_publ_section_title
;
Structure prediction by ZEFSAII (Michael W. Deem and Ramdas Pophale) SiO2 
 PCOD9302564
Probable space group: C 2/C
;
_chemical_formula_sum "Si O2"
_cell_formula_units_Z 32
_cell_length_a 9.580445
_cell_length_b 22.617999
_cell_length_c 8.375080
_cell_angle_alpha 90.000000
_cell_angle_beta 128.656611
_cell_angle_gamma 90.000000
_cell_volume 1417.184159
_symmetry_space_group_name_H-M "C 2/C"
_symmetry_group_IT_number 15
_symmetry_cell_setting 'monoclinic'
loop_
_space_group_symop_operation_xyz
x,y,z
-x,y,1/2-z
-x,-y,-z
x,-y,1/2+z
1/2+x,1/2+y,z
1/2-x,1/2+y,1/2-z
1/2-x,1/2-y,-z
1/2+x,1/2-y,1/2+z
loop_
_atom_site_type_symbol
_atom_site_label
_atom_site_fract_x
_atom_site_fract_y
_atom_site_fract_z
Si Si1 0.637063 0.466626 0.714345
Si Si2 0.951946 0.306995 0.538514
Si Si3 0.790392 0.918528 0.059420
Si Si4 0.820574 0.790153 0.692806
O O1 0.500000 0.441467 0.750000
O O2 0.500000 0.500000 0.500000
O O3 0.732445 0.427165 0.647939
O O4 0.750161 0.518549 0.882207
O O5 0.822192 0.363061 0.459332
O O6 0.627003 0.246707 0.623198
O O7 0.000000 0.284907 0.750000
O O8 0.142895 0.326244 0.602980
O O9 0.000000 0.906596 0.250000
O O10 0.750000 0.750000 0.500000
O O11 0.000000 0.818322 0.750000
#
# Coordination Sequence:
#
# PCOD9302564 Si02
#       4
#     8   8   8   8
#     4   7  13  31  56  84 125 168 207 254 304 365
#     4  11  22  38  63  95 125 164 212 264 327 385
#     4   9  18  34  60  94 128 171 213 260 323 379
#     4   9  21  43  64  85 121 165 213 268 319 381
#
# _framework density 22.579989000000001
#
# number of rings (size 3 to 8) (size 9 to 14) (size 15 to 20)
#    0.000    3.500    0.000    0.750    0.000    5.000 
#    0.000   25.000    0.000    7.500    0.000    1.750 
#    0.000    0.000    0.000    0.000    0.000    0.000 
#
# Total GULP energy -89093.080302 kJ/mol
# GULP energy per Si atom -5568.317519 kJ/mol
# Density = 2.252860 g / cm^3
# Si number density = 22.579989 Si / 1000 Ang^3
#
#
#
# Elastic Constant Matrix: (Units=GPa)
#
#
# Indices 1 2 3 4 5 6 
#
# 1 167.9896 60.0869 23.0757 0.0000 -2.5985 0.0000
# 2 60.0869 124.2625 49.8454 0.0000 -0.1297 0.0000
# 3 23.0757 49.8454 133.4846 0.0000 -17.9654 0.0000
# 4 0.0000 0.0000 0.0000 -107.6609 0.0000 85.6744
# 5 -2.5985 -0.1297 -17.9654 0.0000 35.2227 0.0000
# 6 0.0000 0.0000 0.0000 85.6744 0.0000 -23.1861
#
#
#
# Elastic Compliance Matrix: (Units=1/GPa)
#
#
# Indices 1 2 3 4 5 6 
#
# 1 0.007210 -0.003550 0.000160 0.000000 0.000600 0.000000
# 2 -0.003550 0.011333 -0.003917 0.000000 -0.002218 0.000000
# 3 0.000160 -0.003917 0.009584 0.000000 0.004886 0.000000
# 4 0.000000 0.000000 0.000000 0.004787 0.000000 0.017687
# 5 0.000600 -0.002218 0.004886 0.000000 0.030919 0.000000
# 6 0.000000 0.000000 0.000000 0.017687 0.000000 0.022226
#
#
# Mechanical properties :
#
#
# Convention : Reuss Voigt Hill
#
# Bulk Modulus (GPa) = 74.00008 76.86139 75.43074
# Shear Modulus (GPa) = 47.53947 0.39039 23.96493
#
# Velocity S-wave (km/s) = 4.59342 0.41625 3.26135
# Velocity P-wave (km/s) = 7.80873 5.86042 6.90365
#
# Compressibility (1/GPa) = 0.01351350
#
# Stress axis : x y z
#
# Youngs Moduli (GPa) = 138.70077 88.23962 104.34110
#
# Poissons Ratio (x) = 0.31324 -0.01670
# Poissons Ratio (y) = 0.49236 0.40867
# Poissons Ratio (z) = -0.02219 0.34561
#
# Static dielectric constant tensor:
#      x y z
#    x 1.967830 0.000000 -0.051460 
#    y 0.000000 1.923390 0.000000 
#    z -0.051460 0.000000 1.818830 
# 
# From -- ./inp_files/22333.got.cif
#   From: 2010.05.17/outbox.cif.g08.bks.cpg/sg15_12_cif.got.tgz:22333.got - 2010.06.03 18:47:42.
