data_PCOD9302091
_publ_section_title
;
Structure prediction by ZEFSAII (Michael W. Deem and Ramdas Pophale) SiO2 
 PCOD9302091
Probable space group: C 2/C
;
_chemical_formula_sum "Si O2"
_cell_formula_units_Z 52
_cell_length_a 27.912943
_cell_length_b 8.502049
_cell_length_c 14.135921
_cell_angle_alpha 90.000000
_cell_angle_beta 41.227831
_cell_angle_gamma 90.000000
_cell_volume 2210.929581
_symmetry_space_group_name_H-M "C 2/C"
_symmetry_group_IT_number 15
_symmetry_cell_setting 'monoclinic'
loop_
_space_group_symop_operation_xyz
x,y,z
-x,y,1/2-z
-x,-y,-z
x,-y,1/2+z
1/2+x,1/2+y,z
1/2-x,1/2+y,1/2-z
1/2-x,1/2-y,-z
1/2+x,1/2-y,1/2+z
loop_
_atom_site_type_symbol
_atom_site_label
_atom_site_fract_x
_atom_site_fract_y
_atom_site_fract_z
Si Si1 0.713643 0.996667 0.206565
Si Si2 0.330639 0.016702 0.435007
Si Si3 0.998469 0.908159 0.404183
Si Si4 0.500000 0.369484 0.750000
Si Si5 0.611067 0.135594 0.492687
Si Si6 0.518225 0.058802 0.369615
Si Si7 0.161616 0.214401 0.419323
O O1 0.717233 0.999345 0.087418
O O2 0.651183 0.122923 0.333035
O O3 0.786965 0.064289 0.141765
O O4 0.688189 0.834942 0.296056
O O5 0.411257 0.976945 0.275563
O O6 0.330387 0.179952 0.495374
O O7 0.325065 0.887416 0.525859
O O8 0.917191 0.856521 0.491338
O O9 0.036110 0.740551 0.349366
O O10 0.000000 0.000000 0.500000
O O11 0.037236 0.017742 0.270313
O O12 0.557997 0.274094 0.601698
O O13 0.554415 0.987041 0.579585
O O14 0.500000 0.000000 0.500000
#
# Coordination Sequence:
#
# PCOD9302091 Si02
#       7
#     8   8   8   4   8   8   8
#     4  11  25  45  73  98 146 190 242 288 357 431
#     4  11  21  41  76  98 135 186 250 277 361 422
#     4  12  27  43  67 106 144 181 231 312 366 412
#     4  12  26  40  66 108 148 168 236 302 364 408
#     4  11  23  41  69 103 135 188 240 287 352 441
#     4  12  20  42  72 100 135 186 237 295 355 434
#     4  11  26  47  68 105 143 191 239 297 351 442
#
# _framework density 23.519518999999999
#
# number of rings (size 3 to 8) (size 9 to 14) (size 15 to 20)
#    0.000    0.615    6.154    2.308    4.308    0.000 
#    0.000    6.154    0.000    0.000    0.000    0.000 
#    0.000    0.000    0.000    0.000    0.000    0.000 
#
# Total GULP energy -145122.678463 kJ/mol
# GULP energy per Si atom -5581.641479 kJ/mol
# Density = 2.346599 g / cm^3
# Si number density = 23.519519 Si / 1000 Ang^3
#
#
#
# Elastic Constant Matrix: (Units=GPa)
#
#
# Indices 1 2 3 4 5 6 
#
# 1 113.3199 19.0153 13.5453 0.0000 19.6279 0.0000
# 2 19.0153 83.0094 5.2266 0.0000 15.7411 0.0000
# 3 13.5453 5.2266 45.3548 0.0000 12.6213 0.0000
# 4 0.0000 0.0000 0.0000 43.8556 0.0000 5.7604
# 5 19.6279 15.7411 12.6213 0.0000 49.2403 0.0000
# 6 0.0000 0.0000 0.0000 5.7604 0.0000 35.2331
#
#
#
# Elastic Compliance Matrix: (Units=1/GPa)
#
#
# Indices 1 2 3 4 5 6 
#
# 1 0.009826 -0.001576 -0.001942 0.000000 -0.002915 0.000000
# 2 -0.001576 0.013083 -0.000052 0.000000 -0.003541 0.000000
# 3 -0.001942 -0.000052 0.024136 0.000000 -0.005396 0.000000
# 4 0.000000 0.000000 0.000000 0.023303 0.000000 -0.003810
# 5 -0.002915 -0.003541 -0.005396 0.000000 0.023986 0.000000
# 6 0.000000 0.000000 0.000000 -0.003810 0.000000 0.029005
#
#
# Mechanical properties :
#
#
# Convention : Reuss Voigt Hill
#
# Bulk Modulus (GPa) = 25.05882 35.25095 30.15488
# Shear Modulus (GPa) = 34.77577 39.25892 37.01735
#
# Velocity S-wave (km/s) = 3.84942 4.09002 3.97154
# Velocity P-wave (km/s) = 5.51679 6.10941 5.82065
#
# Compressibility (1/GPa) = 0.03990611
#
# Stress axis : x y z
#
# Youngs Moduli (GPa) = 101.77026 76.43795 41.43215
#
# Poissons Ratio (x) = 0.12045 0.08045
# Poissons Ratio (y) = 0.16037 0.00214
# Poissons Ratio (z) = 0.19761 0.00395
#
# Static dielectric constant tensor:
#      x y z
#    x 1.967000 0.000000 0.032650 
#    y 0.000000 1.601950 0.000000 
#    z 0.032650 0.000000 1.973870 
# 
# From -- ./inp_files/176474.got.cif
#   From: 2010.05.17/outbox.cif.g08.bks.cpg/sg15_89_cif.got.tgz:176474.got - 2010.06.03 18:47:42.
