data_PCOD9302777
_publ_section_title
;
Structure prediction by ZEFSAII (Michael W. Deem and Ramdas Pophale) SiO2 
 PCOD9302777
Probable space group: C 2/C
;
_chemical_formula_sum "Si O2"
_cell_formula_units_Z 44
_cell_length_a 11.237586
_cell_length_b 26.166245
_cell_length_c 12.633880
_cell_angle_alpha 90.000000
_cell_angle_beta 145.118188
_cell_angle_gamma 90.000000
_cell_volume 2124.517247
_symmetry_space_group_name_H-M "C 2/C"
_symmetry_group_IT_number 15
_symmetry_cell_setting 'monoclinic'
loop_
_space_group_symop_operation_xyz
x,y,z
-x,y,1/2-z
-x,-y,-z
x,-y,1/2+z
1/2+x,1/2+y,z
1/2-x,1/2+y,1/2-z
1/2-x,1/2-y,-z
1/2+x,1/2-y,1/2+z
loop_
_atom_site_type_symbol
_atom_site_label
_atom_site_fract_x
_atom_site_fract_y
_atom_site_fract_z
Si Si1 0.939995 0.809053 0.445534
Si Si2 0.000000 0.033755 0.250000
Si Si3 0.739224 0.101189 0.906608
Si Si4 0.763629 0.138250 0.615900
Si Si5 0.703071 0.034536 0.664453
Si Si6 0.414902 0.786366 0.792699
O O1 0.873209 0.846249 0.492421
O O2 0.796069 0.835163 0.252229
O O3 0.903509 0.749272 0.389198
O O4 0.189140 0.811259 0.614002
O O5 0.172549 0.069096 0.430834
O O6 0.897237 0.998861 0.265965
O O7 0.500000 0.115436 0.750000
O O8 0.741631 0.062243 0.806182
O O9 0.679769 0.081637 0.566977
O O10 0.595048 0.172175 0.434442
O O11 0.000000 0.135050 0.750000
O O12 0.500000 0.000000 0.500000
O O13 0.500000 0.755560 0.750000
#
# Coordination Sequence:
#
# PCOD9302777 Si02
#       6
#     8   4   8   8   8   8
#     4  11  24  39  66  96 131 177 222 276 341 407
#     4  12  24  48  74  98 138 182 228 286 342 408
#     4  11  26  47  71 100 139 178 233 284 337 412
#     4  11  22  40  62 100 139 168 221 279 337 403
#     4  11  24  45  72 102 136 182 225 280 345 407
#     4  12  22  39  66  98 137 178 222 284 352 400
#
# _framework density 20.710585999999999
#
# number of rings (size 3 to 8) (size 9 to 14) (size 15 to 20)
#    0.000    0.727    6.364    1.636    2.545    0.000 
#    3.273    0.909    0.000    0.000    0.000    0.000 
#    0.000    0.000    0.000    0.000    0.000    0.000 
#
# Total GULP energy -122547.019132 kJ/mol
# GULP energy per Si atom -5570.319051 kJ/mol
# Density = 2.066345 g / cm^3
# Si number density = 20.710586 Si / 1000 Ang^3
#
#
#
# Elastic Constant Matrix: (Units=GPa)
#
#
# Indices 1 2 3 4 5 6 
#
# 1 57.6596 33.3769 24.3579 0.0000 17.8621 0.0000
# 2 33.3769 126.7627 48.6721 0.0000 19.5892 0.0000
# 3 24.3579 48.6721 116.2281 0.0000 25.0933 0.0000
# 4 0.0000 0.0000 0.0000 24.4807 0.0000 13.7236
# 5 17.8621 19.5892 25.0933 0.0000 35.2416 0.0000
# 6 0.0000 0.0000 0.0000 13.7236 0.0000 25.5933
#
#
#
# Elastic Compliance Matrix: (Units=1/GPa)
#
#
# Indices 1 2 3 4 5 6 
#
# 1 0.022926 -0.004279 -0.001202 0.000000 -0.008385 0.000000
# 2 -0.004279 0.010450 -0.003183 0.000000 -0.001374 0.000000
# 3 -0.001202 -0.003183 0.011433 0.000000 -0.005762 0.000000
# 4 0.000000 0.000000 0.000000 0.058405 0.000000 -0.031317
# 5 -0.008385 -0.001374 -0.005762 0.000000 0.037492 0.000000
# 6 0.000000 0.000000 0.000000 -0.031317 0.000000 0.055866
#
#
# Mechanical properties :
#
#
# Convention : Reuss Voigt Hill
#
# Bulk Modulus (GPa) = 36.39014 57.05160 46.72087
# Shear Modulus (GPa) = 22.41574 30.01269 26.21421
#
# Velocity S-wave (km/s) = 3.29345 3.81090 3.56158
# Velocity P-wave (km/s) = 5.66316 6.85352 6.28658
#
# Compressibility (1/GPa) = 0.02747997
#
# Stress axis : x y z
#
# Youngs Moduli (GPa) = 43.61937 95.69657 87.46992
#
# Poissons Ratio (x) = 0.40948 0.10517
# Poissons Ratio (y) = 0.18664 0.27839
# Poissons Ratio (z) = 0.05244 0.30457
#
# Static dielectric constant tensor:
#      x y z
#    x 1.818280 0.000000 -0.065220 
#    y 0.000000 1.805650 0.000000 
#    z -0.065220 0.000000 1.703800 
# 
# From -- ./inp_files/148633.got.cif
#   From: 2010.05.17/outbox.cif.g08.bks.cpg/sg15_75_cif.got.tgz:148633.got - 2010.06.03 18:47:42.
