data_PCOD9302107
_publ_section_title
;
Structure prediction by ZEFSAII (Michael W. Deem and Ramdas Pophale) SiO2 
 PCOD9302107
Probable space group: C 2/C
;
_chemical_formula_sum "Si O2"
_cell_formula_units_Z 56
_cell_length_a 25.648805
_cell_length_b 10.275542
_cell_length_c 13.491799
_cell_angle_alpha 90.000000
_cell_angle_beta 46.193825
_cell_angle_gamma 90.000000
_cell_volume 2566.195825
_symmetry_space_group_name_H-M "C 2/C"
_symmetry_group_IT_number 15
_symmetry_cell_setting 'monoclinic'
loop_
_space_group_symop_operation_xyz
x,y,z
-x,y,1/2-z
-x,-y,-z
x,-y,1/2+z
1/2+x,1/2+y,z
1/2-x,1/2+y,1/2-z
1/2-x,1/2-y,-z
1/2+x,1/2-y,1/2+z
loop_
_atom_site_type_symbol
_atom_site_label
_atom_site_fract_x
_atom_site_fract_y
_atom_site_fract_z
Si Si1 0.723770 0.988996 0.986043
Si Si2 0.341657 0.294242 0.781526
Si Si3 0.356722 0.295688 0.090720
Si Si4 0.199027 0.297871 0.357792
Si Si5 0.927701 0.042682 0.651833
Si Si6 0.418249 0.132357 0.837732
Si Si7 0.353366 0.557151 0.955124
O O1 0.763160 0.848885 0.919056
O O2 0.716719 0.074899 0.897208
O O3 0.777739 0.053497 0.993338
O O4 0.640483 0.970290 0.124169
O O5 0.334989 0.186240 0.706060
O O6 0.372564 0.427433 0.696824
O O7 0.400443 0.250181 0.785070
O O8 0.278661 0.246588 0.226988
O O9 0.400861 0.329434 0.131227
O O10 0.392294 0.186346 0.977235
O O11 0.354752 0.428741 0.024369
O O12 0.151361 0.192323 0.479363
O O13 0.915924 0.054370 0.786837
O O14 0.000000 0.000000 0.500000
O O15 0.500000 0.092586 0.750000
#
# Coordination Sequence:
#
# PCOD9302107 Si02
#       7
#     8   8   8   8   8   8   8
#     4  11  22  40  65  93 129 171 220 260 321 391
#     4  11  21  42  64  96 124 170 224 266 318 390
#     4  12  22  38  67  95 125 169 220 271 321 380
#     4  12  22  40  69 100 128 164 222 275 325 381
#     4  11  23  40  61  96 133 167 215 269 336 386
#     4  12  25  43  65  91 132 174 218 270 324 393
#     4  11  23  41  66  99 131 168 217 274 323 384
#
# _framework density 21.822184
#
# number of rings (size 3 to 8) (size 9 to 14) (size 15 to 20)
#    0.000    0.571    8.571    2.571    0.000    0.000 
#    0.000    2.143    0.000    0.000    0.000    0.000 
#    0.000    0.000    0.000    0.000    0.000    0.000 
#
# Total GULP energy -155998.832128 kJ/mol
# GULP energy per Si atom -5571.386862 kJ/mol
# Density = 2.177252 g / cm^3
# Si number density = 21.822184 Si / 1000 Ang^3
#
#
#
# Elastic Constant Matrix: (Units=GPa)
#
#
# Indices 1 2 3 4 5 6 
#
# 1 65.4530 -1.4539 13.2170 0.0000 -1.8346 0.0000
# 2 -1.4539 21.5486 4.2455 0.0000 7.0776 0.0000
# 3 13.2170 4.2455 113.0256 0.0000 -12.1884 0.0000
# 4 0.0000 0.0000 0.0000 30.0027 0.0000 9.9066
# 5 -1.8346 7.0776 -12.1884 0.0000 38.6821 0.0000
# 6 0.0000 0.0000 0.0000 9.9066 0.0000 21.9891
#
#
#
# Elastic Compliance Matrix: (Units=1/GPa)
#
#
# Indices 1 2 3 4 5 6 
#
# 1 0.015692 0.001475 -0.001904 0.000000 -0.000126 0.000000
# 2 0.001475 0.050467 -0.003164 0.000000 -0.010161 0.000000
# 3 -0.001904 -0.003164 0.009567 0.000000 0.003503 0.000000
# 4 0.000000 0.000000 0.000000 0.039155 0.000000 -0.017640
# 5 -0.000126 -0.010161 0.003503 0.000000 0.028809 0.000000
# 6 0.000000 0.000000 0.000000 -0.017640 0.000000 0.053425
#
#
# Mechanical properties :
#
#
# Convention : Reuss Voigt Hill
#
# Bulk Modulus (GPa) = 14.58998 25.78272 20.18635
# Shear Modulus (GPa) = 22.01228 30.40268 26.20748
#
# Velocity S-wave (km/s) = 3.17947 3.73661 3.46924
# Velocity P-wave (km/s) = 4.49211 5.51878 5.03170
#
# Compressibility (1/GPa) = 0.06854018
#
# Stress axis : x y z
#
# Youngs Moduli (GPa) = 63.72733 19.81496 104.52822
#
# Poissons Ratio (x) = -0.02923 0.19901
# Poissons Ratio (y) = -0.09401 0.33071
# Poissons Ratio (z) = 0.12133 0.06269
#
# Static dielectric constant tensor:
#      x y z
#    x 1.829330 0.000000 0.024940 
#    y 0.000000 1.830750 0.000000 
#    z 0.024940 0.000000 1.983890 
# 
# From -- ./inp_files/177569.got.cif
#   From: 2010.05.17/outbox.cif.g08.bks.cpg/sg15_89_cif.got.tgz:177569.got - 2010.06.03 18:47:42.
