data_PCOD9302092
_publ_section_title
;
Structure prediction by ZEFSAII (Michael W. Deem and Ramdas Pophale) SiO2 
 PCOD9302092
Probable space group: C 2/C
;
_chemical_formula_sum "Si O2"
_cell_formula_units_Z 64
_cell_length_a 12.005183
_cell_length_b 14.448898
_cell_length_c 26.910757
_cell_angle_alpha 90.000000
_cell_angle_beta 35.738818
_cell_angle_gamma 90.000000
_cell_volume 2726.529094
_symmetry_space_group_name_H-M "C 2/C"
_symmetry_group_IT_number 15
_symmetry_cell_setting 'monoclinic'
loop_
_space_group_symop_operation_xyz
x,y,z
-x,y,1/2-z
-x,-y,-z
x,-y,1/2+z
1/2+x,1/2+y,z
1/2-x,1/2+y,1/2-z
1/2-x,1/2-y,-z
1/2+x,1/2-y,1/2+z
loop_
_atom_site_type_symbol
_atom_site_label
_atom_site_fract_x
_atom_site_fract_y
_atom_site_fract_z
Si Si1 0.649342 0.640401 0.351590
Si Si2 0.606760 0.973301 0.813483
Si Si3 0.172035 0.931531 0.949903
Si Si4 0.769626 0.855930 0.423069
Si Si5 0.148659 0.647043 0.853962
Si Si6 0.221486 0.848953 0.661714
Si Si7 0.254244 0.927647 0.540657
Si Si8 0.001529 0.782614 0.417483
O O1 0.794189 0.576276 0.268851
O O2 0.694889 0.632859 0.393284
O O3 0.652099 0.747542 0.335145
O O4 0.438249 0.601632 0.417318
O O5 0.378512 0.973690 0.887762
O O6 0.663518 0.910295 0.840149
O O7 0.700020 0.072314 0.793250
O O8 0.087400 0.872041 0.025155
O O9 0.000000 0.000000 0.000000
O O10 0.757819 0.856415 0.367575
O O11 0.951445 0.798509 0.378132
O O12 0.607481 0.799000 0.512383
O O13 0.749914 0.962941 0.446434
O O14 0.936924 0.611172 0.945657
O O15 0.262142 0.878733 0.591199
O O16 0.282056 0.743287 0.650488
O O17 0.000000 0.864649 0.750000
#
# Coordination Sequence:
#
# PCOD9302092 Si02
#       8
#     8   8   8   8   8   8   8   8
#     4  12  27  49  71 113 161 201 253 326 397 469
#     4  12  27  49  76 110 158 202 259 328 393 457
#     4  12  26  51  75 108 154 210 260 326 389 470
#     4  11  21  41  77 111 142 191 261 316 366 447
#     4  12  24  46  80 110 148 211 262 315 379 467
#     4  12  24  45  73 109 156 192 247 326 397 453
#     4  12  23  45  76 112 152 205 261 313 378 466
#     4  11  23  43  74 110 143 194 258 312 376 465
#
# _framework density 23.473067
#
# number of rings (size 3 to 8) (size 9 to 14) (size 15 to 20)
#    0.000    0.250    5.000    5.625    0.000    1.000 
#    6.750    1.250    0.000    0.000    0.000    0.000 
#    0.000    0.000    0.000    0.000    0.000    0.000 
#
# Total GULP energy -179099.657213 kJ/mol
# GULP energy per Si atom -5596.864288 kJ/mol
# Density = 2.341964 g / cm^3
# Si number density = 23.473067 Si / 1000 Ang^3
#
#
#
# Elastic Constant Matrix: (Units=GPa)
#
#
# Indices 1 2 3 4 5 6 
#
# 1 140.8251 36.8981 21.4952 -0.0002 -16.7426 -0.0002
# 2 36.8981 124.8458 21.5063 -0.0004 -0.4239 -0.0003
# 3 21.4952 21.5063 44.5306 -0.0003 -8.5257 -0.0006
# 4 -0.0002 -0.0004 -0.0003 27.2070 0.0004 1.0764
# 5 -16.7426 -0.4239 -8.5257 0.0004 9.3388 0.0002
# 6 -0.0002 -0.0003 -0.0006 1.0764 0.0002 40.4789
#
#
#
# Elastic Compliance Matrix: (Units=1/GPa)
#
#
# Indices 1 2 3 4 5 6 
#
# 1 0.009965 -0.002880 -0.000029 0.000000 0.017709 0.000000
# 2 -0.002880 0.009706 -0.005092 0.000000 -0.009371 0.000000
# 3 -0.000029 -0.005092 0.030144 0.000000 0.027237 0.000000
# 4 0.000000 0.000000 0.000000 0.036794 -0.000002 -0.000978
# 5 0.017709 -0.009371 0.027237 -0.000002 0.163270 0.000000
# 6 0.000000 0.000000 0.000000 -0.000978 0.000000 0.024730
#
#
# Mechanical properties :
#
#
# Convention : Reuss Voigt Hill
#
# Bulk Modulus (GPa) = 29.57305 52.22229 40.89767
# Shear Modulus (GPa) = 16.56271 30.75838 23.66055
#
# Velocity S-wave (km/s) = 2.65920 3.62383 3.17833
# Velocity P-wave (km/s) = 4.69623 6.30917 5.56148
#
# Compressibility (1/GPa) = 0.03381457
#
# Stress axis : x y z
#
# Youngs Moduli (GPa) = 100.34650 103.02464 33.17386
#
# Poissons Ratio (x) = 0.29673 0.00096
# Poissons Ratio (y) = 0.28902 0.16891
# Poissons Ratio (z) = 0.00290 0.52457
#
# Static dielectric constant tensor:
#      x y z
#    x 1.944300 0.000000 -0.024560 
#    y 0.000000 1.933880 0.000000 
#    z -0.024560 0.000000 1.936550 
# 
# From -- ./inp_files/293063.got.cif
#   From: 2010.05.17/outbox.cif.g08.bks.cpg/sg15_147_cif.got.tgz:293063.got - 2010.06.03 18:47:42.
