data_PCOD9302781
_publ_section_title
;
Structure prediction by ZEFSAII (Michael W. Deem and Ramdas Pophale) SiO2 
 PCOD9302781
Probable space group: C 2/C
;
_chemical_formula_sum "Si O2"
_cell_formula_units_Z 48
_cell_length_a 20.082380
_cell_length_b 13.906744
_cell_length_c 18.968077
_cell_angle_alpha 90.000000
_cell_angle_beta 25.327034
_cell_angle_gamma 90.000000
_cell_volume 2266.151178
_symmetry_space_group_name_H-M "C 2/C"
_symmetry_group_IT_number 15
_symmetry_cell_setting 'monoclinic'
loop_
_space_group_symop_operation_xyz
x,y,z
-x,y,1/2-z
-x,-y,-z
x,-y,1/2+z
1/2+x,1/2+y,z
1/2-x,1/2+y,1/2-z
1/2-x,1/2-y,-z
1/2+x,1/2-y,1/2+z
loop_
_atom_site_type_symbol
_atom_site_label
_atom_site_fract_x
_atom_site_fract_y
_atom_site_fract_z
Si Si1 0.181281 0.262877 0.307314
Si Si2 0.390209 0.928310 0.451711
Si Si3 0.102828 0.096934 0.479977
Si Si4 0.756670 0.465740 0.432239
Si Si5 0.743060 0.537361 0.722604
Si Si6 0.581613 0.716302 0.031728
O O1 0.154546 0.200238 0.401776
O O2 0.148668 0.374734 0.354502
O O3 0.352886 0.268571 0.110305
O O4 0.097649 0.213757 0.319382
O O5 0.278739 0.959448 0.494535
O O6 0.568053 0.959487 0.266336
O O7 0.393554 0.812596 0.448515
O O8 0.329563 0.973307 0.582210
O O9 0.917383 0.080849 0.656027
O O10 0.173606 0.062071 0.485519
O O11 0.182035 0.024869 0.346767
O O12 0.656296 0.376029 0.496911
#
# Coordination Sequence:
#
# PCOD9302781 Si02
#       6
#     8   8   8   8   8   8
#     4  12  23  38  65  96 123 159 207 257 308 361
#     4  11  25  41  62  91 129 167 206 247 315 366
#     4  11  22  40  62  92 127 157 210 256 300 369
#     4  11  25  42  60  93 129 166 205 254 302 376
#     4  11  23  40  64  92 123 164 206 257 306 362
#     4  12  21  40  62  94 128 160 200 256 315 364
#
# _framework density 21.181287999999999
#
# number of rings (size 3 to 8) (size 9 to 14) (size 15 to 20)
#    0.000    0.667    6.667    1.500    2.333    2.000 
#    0.000    0.833    0.000    0.000    0.000    0.000 
#    0.000    0.000    0.000    0.000    0.000    0.000 
#
# Total GULP energy -134076.295117 kJ/mol
# GULP energy per Si atom -5586.512297 kJ/mol
# Density = 2.113308 g / cm^3
# Si number density = 21.181288 Si / 1000 Ang^3
#
#
#
# Elastic Constant Matrix: (Units=GPa)
#
#
# Indices 1 2 3 4 5 6 
#
# 1 90.8294 17.3408 -4.3025 0.0000 -19.5625 0.0001
# 2 17.3408 63.1616 -1.0664 0.0001 -12.4651 0.0001
# 3 -4.3025 -1.0664 23.0881 0.0003 -12.6861 0.0000
# 4 0.0000 0.0001 0.0003 24.0013 0.0000 0.9755
# 5 -19.5625 -12.4651 -12.6861 0.0000 19.8487 -0.0001
# 6 0.0001 0.0001 0.0000 0.9755 -0.0001 35.6577
#
#
#
# Elastic Compliance Matrix: (Units=1/GPa)
#
#
# Indices 1 2 3 4 5 6 
#
# 1 0.019165 0.001951 0.022678 0.000000 0.034609 0.000000
# 2 0.001951 0.020244 0.014397 0.000000 0.023839 0.000000
# 3 0.022678 0.014397 0.100881 -0.000001 0.095870 0.000000
# 4 0.000000 0.000000 -0.000001 0.041711 -0.000001 -0.001141
# 5 0.034609 0.023839 0.095870 -0.000001 0.160737 0.000000
# 6 0.000000 0.000000 0.000000 -0.001141 0.000000 0.028076
#
#
# Mechanical properties :
#
#
# Convention : Reuss Voigt Hill
#
# Bulk Modulus (GPa) = 4.57993 22.33587 13.45790
# Shear Modulus (GPa) = 13.67834 26.90868 20.29351
#
# Velocity S-wave (km/s) = 2.54397 3.56813 3.09866
# Velocity P-wave (km/s) = 3.28572 5.24818 4.37832
#
# Compressibility (1/GPa) = 0.21834396
#
# Stress axis : x y z
#
# Youngs Moduli (GPa) = 52.17769 49.39626 9.91269
#
# Poissons Ratio (x) = -0.09639 -0.22480
# Poissons Ratio (y) = -0.10182 -0.14272
# Poissons Ratio (z) = -1.18329 -0.71118
#
# Static dielectric constant tensor:
#      x y z
#    x 1.765600 0.000000 -0.023890 
#    y 0.000000 1.796600 0.000000 
#    z -0.023890 0.000000 1.780770 
# 
# From -- ./inp_files/55438.got.cif
#   From: 2010.05.17/outbox.cif.g08.bks.cpg/sg15_28_cif.got.tgz:55438.got - 2010.06.03 18:47:42.
