data_PCOD9302788
_publ_section_title
;
Structure prediction by ZEFSAII (Michael W. Deem and Ramdas Pophale) SiO2 
 PCOD9302788
Probable space group: C 2/C
;
_chemical_formula_sum "Si O2"
_cell_formula_units_Z 64
_cell_length_a 14.820578
_cell_length_b 15.949934
_cell_length_c 11.641813
_cell_angle_alpha 90.000000
_cell_angle_beta 97.010367
_cell_angle_gamma 90.000000
_cell_volume 2731.402514
_symmetry_space_group_name_H-M "C 2/C"
_symmetry_group_IT_number 15
_symmetry_cell_setting 'monoclinic'
loop_
_space_group_symop_operation_xyz
x,y,z
-x,y,1/2-z
-x,-y,-z
x,-y,1/2+z
1/2+x,1/2+y,z
1/2-x,1/2+y,1/2-z
1/2-x,1/2-y,-z
1/2+x,1/2-y,1/2+z
loop_
_atom_site_type_symbol
_atom_site_label
_atom_site_fract_x
_atom_site_fract_y
_atom_site_fract_z
Si Si1 0.649833 0.416201 0.541226
Si Si2 0.898094 0.787060 0.774743
Si Si3 0.466689 0.146397 0.369974
Si Si4 0.506015 0.665307 0.620064
Si Si5 0.241586 0.358884 0.617961
Si Si6 0.231993 0.548859 0.643867
Si Si7 0.958070 0.605055 0.869468
Si Si8 0.197410 0.894759 0.110327
O O1 0.646408 0.349819 0.641350
O O2 0.557248 0.396220 0.460484
O O3 0.730844 0.405516 0.462849
O O4 0.661261 0.510956 0.583416
O O5 0.822186 0.794649 0.663340
O O6 0.916271 0.697729 0.837087
O O7 0.000000 0.814390 0.750000
O O8 0.500000 0.110607 0.250000
O O9 0.518261 0.236677 0.385828
O O10 0.357387 0.157985 0.345306
O O11 0.487809 0.107639 0.500644
O O12 0.500000 0.636449 0.750000
O O13 0.608290 0.660999 0.592198
O O14 0.270543 0.454447 0.656686
O O15 0.235550 0.367290 0.479481
O O16 0.124346 0.541705 0.623321
O O17 0.259125 0.602057 0.758486
O O18 0.000000 0.584873 0.750000
#
# Coordination Sequence:
#
# PCOD9302788 Si02
#       8
#     8   8   8   8   8   8   8   8
#     4  11  22  41  64  94 133 172 217 271 334 400
#     4  11  24  44  69  98 134 174 219 274 337 400
#     4  11  27  45  68 101 133 180 226 276 333 394
#     4  11  22  40  62  97 137 170 222 269 334 398
#     4  11  26  44  68  99 135 175 223 274 333 399
#     4  11  25  43  67  99 130 176 222 276 330 395
#     4  11  26  46  70  98 133 177 231 274 334 392
#     4  11  23  40  64  97 133 174 218 270 334 397
#
# _framework density 23.431184999999999
#
# number of rings (size 3 to 8) (size 9 to 14) (size 15 to 20)
#    0.000    1.000    3.750    1.875    5.250    3.500 
#    0.000    0.000    0.000    0.000    0.000    0.000 
#    0.000    0.000    0.000    0.000    0.000    0.000 
#
# Total GULP energy -178760.757158 kJ/mol
# GULP energy per Si atom -5586.273661 kJ/mol
# Density = 2.337785 g / cm^3
# Si number density = 23.431185 Si / 1000 Ang^3
#
#
#
# Elastic Constant Matrix: (Units=GPa)
#
#
# Indices 1 2 3 4 5 6 
#
# 1 95.6598 16.6082 30.1585 0.0000 -20.4521 0.0000
# 2 16.6082 80.4660 41.3837 0.0000 -2.8951 0.0000
# 3 30.1585 41.3837 131.0343 0.0000 -23.0000 0.0000
# 4 0.0000 0.0000 0.0000 23.4630 0.0000 10.7067
# 5 -20.4521 -2.8951 -23.0000 0.0000 31.9196 0.0000
# 6 0.0000 0.0000 0.0000 10.7067 0.0000 33.9960
#
#
#
# Elastic Compliance Matrix: (Units=1/GPa)
#
#
# Indices 1 2 3 4 5 6 
#
# 1 0.012636 -0.001792 -0.001087 0.000000 0.007151 0.000000
# 2 -0.001792 0.015244 -0.004992 0.000000 -0.003363 0.000000
# 3 -0.001087 -0.004992 0.010597 0.000000 0.006486 0.000000
# 4 0.000000 0.000000 0.000000 0.049774 0.000000 -0.015676
# 5 0.007151 -0.003363 0.006486 0.000000 0.040279 0.000000
# 6 0.000000 0.000000 0.000000 -0.015676 0.000000 0.034352
#
#
# Mechanical properties :
#
#
# Convention : Reuss Voigt Hill
#
# Bulk Modulus (GPa) = 43.98542 53.71787 48.85165
# Shear Modulus (GPa) = 26.85239 32.47635 29.66437
#
# Velocity S-wave (km/s) = 3.38895 3.72698 3.56198
# Velocity P-wave (km/s) = 5.84177 6.44175 6.14908
#
# Compressibility (1/GPa) = 0.02273481
#
# Stress axis : x y z
#
# Youngs Moduli (GPa) = 79.13643 65.59985 94.36600
#
# Poissons Ratio (x) = 0.11753 0.10261
# Poissons Ratio (y) = 0.14178 0.47110
# Poissons Ratio (z) = 0.08605 0.32749
#
# Static dielectric constant tensor:
#      x y z
#    x 1.867420 0.000000 -0.009410 
#    y 0.000000 1.947740 0.000000 
#    z -0.009410 0.000000 1.848900 
# 
# From -- ./inp_files/98784.got.cif
#   From: 2010.05.17/outbox.cif.g08.bks.cpg/sg15_50_cif.got.tgz:98784.got - 2010.06.03 18:47:42.
