data_PCOD9302519
_publ_section_title
;
Structure prediction by ZEFSAII (Michael W. Deem and Ramdas Pophale) SiO2 
 PCOD9302519
Probable space group: C 2/C
;
_chemical_formula_sum "Si O2"
_cell_formula_units_Z 44
_cell_length_a 26.123406
_cell_length_b 9.674647
_cell_length_c 13.296827
_cell_angle_alpha 90.000000
_cell_angle_beta 36.214505
_cell_angle_gamma 90.000000
_cell_volume 1985.458157
_symmetry_space_group_name_H-M "C 2/C"
_symmetry_group_IT_number 15
_symmetry_cell_setting 'monoclinic'
loop_
_space_group_symop_operation_xyz
x,y,z
-x,y,1/2-z
-x,-y,-z
x,-y,1/2+z
1/2+x,1/2+y,z
1/2-x,1/2+y,1/2-z
1/2-x,1/2-y,-z
1/2+x,1/2-y,1/2+z
loop_
_atom_site_type_symbol
_atom_site_label
_atom_site_fract_x
_atom_site_fract_y
_atom_site_fract_z
Si Si1 0.071808 0.453344 0.698808
Si Si2 0.726020 0.538787 0.590595
Si Si3 0.623997 0.660936 0.384366
Si Si4 0.567260 0.023622 0.955197
Si Si5 0.732408 0.163521 0.178285
Si Si6 0.500000 0.323736 0.250000
O O1 0.173427 0.500785 0.544678
O O2 0.043901 0.490814 0.864318
O O3 0.048324 0.481964 0.613979
O O4 0.067466 0.283412 0.697885
O O5 0.653848 0.433724 0.745121
O O6 0.714146 0.685199 0.664384
O O7 0.721316 0.569770 0.479929
O O8 0.594497 0.814805 0.401606
O O9 0.709579 0.674479 0.315948
O O10 0.550853 0.603859 0.578463
O O11 0.643505 0.912799 0.839279
#
# Coordination Sequence:
#
# PCOD9302519 Si02
#       6
#     8   8   8   8   8   4
#     4   9  16  36  60  87 116 176 211 252 314 399
#     4  11  22  37  66  94 126 175 225 266 332 388
#     4  11  22  40  67  93 129 178 217 278 328 389
#     4  11  22  40  68  93 130 169 224 270 323 394
#     4  11  22  40  63  98 131 173 221 273 329 401
#     4   8  18  36  64  82 120 172 222 250 332 386
#
# _framework density 22.161131999999998
#
# number of rings (size 3 to 8) (size 9 to 14) (size 15 to 20)
#    0.545    1.091    3.636    2.182    0.000    0.727 
#    0.000    3.636    6.000    0.000    0.000    0.000 
#    0.000    0.000    0.000    0.000    0.000    0.000 
#
# Total GULP energy -122629.445836 kJ/mol
# GULP energy per Si atom -5574.065720 kJ/mol
# Density = 2.211069 g / cm^3
# Si number density = 22.161132 Si / 1000 Ang^3
#
#
#
# Elastic Constant Matrix: (Units=GPa)
#
#
# Indices 1 2 3 4 5 6 
#
# 1 109.3751 44.8042 38.5927 0.0000 7.5898 0.0000
# 2 44.8042 75.3916 85.5935 0.0000 5.1097 0.0000
# 3 38.5927 85.5935 207.1553 0.0000 5.2546 0.0000
# 4 0.0000 0.0000 0.0000 -7.5718 0.0000 -44.6538
# 5 7.5898 5.1097 5.2546 0.0000 38.0722 0.0000
# 6 0.0000 0.0000 0.0000 -44.6538 0.0000 -3.2487
#
#
#
# Elastic Compliance Matrix: (Units=1/GPa)
#
#
# Indices 1 2 3 4 5 6 
#
# 1 0.012370 -0.008810 0.001373 0.000000 -0.001473 0.000000
# 2 -0.008810 0.031402 -0.011311 0.000000 -0.000897 0.000000
# 3 0.001373 -0.011311 0.009246 0.000000 -0.000032 0.000000
# 4 0.000000 0.000000 0.000000 0.001650 0.000000 -0.022674
# 5 -0.001473 -0.000897 -0.000032 0.000000 0.026684 0.000000
# 6 0.000000 0.000000 0.000000 -0.022674 0.000000 0.003845
#
#
# Mechanical properties :
#
#
# Convention : Reuss Voigt Hill
#
# Bulk Modulus (GPa) = 64.42609 81.10030 72.76320
# Shear Modulus (GPa) = 39.10364 20.31246 29.70805
#
# Velocity S-wave (km/s) = 4.20517 3.03079 3.66532
# Velocity P-wave (km/s) = 7.26035 6.99448 7.12866
#
# Compressibility (1/GPa) = 0.01552166
#
# Stress axis : x y z
#
# Youngs Moduli (GPa) = 80.84371 31.84514 108.15831
#
# Poissons Ratio (x) = 0.28056 -0.14852
# Poissons Ratio (y) = 0.71225 1.22335
# Poissons Ratio (z) = -0.11101 0.36019
#
# Static dielectric constant tensor:
#      x y z
#    x 1.912700 0.000000 0.012020 
#    y 0.000000 1.735990 0.000000 
#    z 0.012020 0.000000 1.967930 
# 
# From -- ./inp_files/122576.got.cif
#   From: 2010.05.17/outbox.cif.g08.bks.cpg/sg15_62_cif.got.tgz:122576.got - 2010.06.03 18:47:42.
