data_PCOD9302146
_publ_section_title
;
Structure prediction by ZEFSAII (Michael W. Deem and Ramdas Pophale) SiO2 
 PCOD9302146
Probable space group: C 2/C
;
_chemical_formula_sum "Si O2"
_cell_formula_units_Z 60
_cell_length_a 16.442278
_cell_length_b 20.326522
_cell_length_c 10.932356
_cell_angle_alpha 90.000000
_cell_angle_beta 127.863614
_cell_angle_gamma 90.000000
_cell_volume 2884.540730
_symmetry_space_group_name_H-M "C 2/C"
_symmetry_group_IT_number 15
_symmetry_cell_setting 'monoclinic'
loop_
_space_group_symop_operation_xyz
x,y,z
-x,y,1/2-z
-x,-y,-z
x,-y,1/2+z
1/2+x,1/2+y,z
1/2-x,1/2+y,1/2-z
1/2-x,1/2-y,-z
1/2+x,1/2-y,1/2+z
loop_
_atom_site_type_symbol
_atom_site_label
_atom_site_fract_x
_atom_site_fract_y
_atom_site_fract_z
Si Si1 0.065252 0.152627 0.696656
Si Si2 0.226123 0.607326 0.716861
Si Si3 0.096904 0.125301 0.153850
Si Si4 0.670720 0.220198 0.322922
Si Si5 0.715409 0.248623 0.825990
Si Si6 0.696481 0.522842 0.074344
Si Si7 0.114102 0.580660 0.385656
Si Si8 0.000000 0.026865 0.250000
O O1 0.180927 0.126829 0.790271
O O2 0.076330 0.229979 0.725400
O O3 0.000000 0.127816 0.750000
O O4 0.005358 0.135194 0.519832
O O5 0.203433 0.671495 0.778956
O O6 0.268987 0.542869 0.822831
O O7 0.128167 0.592052 0.542933
O O8 0.125770 0.196804 0.232355
O O9 0.179624 0.087667 0.143484
O O10 0.071184 0.073327 0.233597
O O11 0.750000 0.250000 0.500000
O O12 0.716340 0.224741 0.227048
O O13 0.633255 0.149819 0.333913
O O14 0.750000 0.250000 0.000000
O O15 0.790592 0.535698 0.069074
O O16 0.584442 0.509612 0.911670
O O17 0.000000 0.555801 0.250000
#
# Coordination Sequence:
#
# PCOD9302146 Si02
#       8
#     8   8   8   8   8   8   8   4
#     4  11  22  36  69 105 142 174 234 300 366 428
#     4  11  25  47  67 102 148 191 240 306 367 442
#     4  12  25  41  71 108 140 189 229 298 376 440
#     4  11  21  42  69 105 140 188 241 303 360 428
#     4  11  24  43  69 102 151 197 236 299 376 440
#     4  12  26  47  70 108 149 186 242 307 375 442
#     4  12  26  45  75 100 139 199 259 302 355 445
#     4  12  26  42  72 110 146 184 234 298 388 444
#
# _framework density 20.800539000000001
#
# number of rings (size 3 to 8) (size 9 to 14) (size 15 to 20)
#    0.000    0.533    5.333    4.000    6.533    0.533 
#    0.000    0.000    1.467    0.000    0.000    0.000 
#    0.000    0.000    0.000    0.000    0.000    0.000 
#
# Total GULP energy -167393.647137 kJ/mol
# GULP energy per Si atom -5579.788238 kJ/mol
# Density = 2.075320 g / cm^3
# Si number density = 20.800539 Si / 1000 Ang^3
#
#
#
# Elastic Constant Matrix: (Units=GPa)
#
#
# Indices 1 2 3 4 5 6 
#
# 1 63.1694 2.0554 22.9785 0.0000 -6.1722 0.0000
# 2 2.0554 101.2259 38.4497 0.0000 4.6504 0.0000
# 3 22.9785 38.4497 111.6401 0.0000 -10.4726 0.0000
# 4 0.0000 0.0000 0.0000 49.7333 0.0000 -10.6086
# 5 -6.1722 4.6504 -10.4726 0.0000 29.1699 0.0000
# 6 0.0000 0.0000 0.0000 -10.6086 0.0000 68.6426
#
#
#
# Elastic Compliance Matrix: (Units=1/GPa)
#
#
# Indices 1 2 3 4 5 6 
#
# 1 0.017358 0.000950 -0.003694 0.000000 0.002195 0.000000
# 2 0.000950 0.011739 -0.004548 0.000000 -0.003303 0.000000
# 3 -0.003694 -0.004548 0.011672 0.000000 0.004134 0.000000
# 4 0.000000 0.000000 0.000000 0.020793 0.000000 0.003213
# 5 0.002195 -0.003303 0.004134 0.000000 0.036757 0.000000
# 6 0.000000 0.000000 0.000000 0.003213 0.000000 0.015065
#
#
# Mechanical properties :
#
#
# Convention : Reuss Voigt Hill
#
# Bulk Modulus (GPa) = 38.19162 44.77805 41.48484
# Shear Modulus (GPa) = 36.57741 43.67928 40.12835
#
# Velocity S-wave (km/s) = 4.19798 4.58745 4.39703
# Velocity P-wave (km/s) = 6.47287 7.04512 6.76505
#
# Compressibility (1/GPa) = 0.02618375
#
# Stress axis : x y z
#
# Youngs Moduli (GPa) = 57.61123 85.18590 85.67555
#
# Poissons Ratio (x) = -0.08091 0.31647
# Poissons Ratio (y) = -0.05472 0.38969
# Poissons Ratio (z) = 0.21281 0.38746
#
# Static dielectric constant tensor:
#      x y z
#    x 1.912790 0.000000 -0.030540 
#    y 0.000000 1.801110 0.000000 
#    z -0.030540 0.000000 1.804280 
# 
# From -- ./inp_files/107646.got.cif
#   From: 2010.05.17/outbox.cif.g08.bks.cpg/sg15_54_cif.got.tgz:107646.got - 2010.06.03 18:47:42.
