data_PCOD9302383
_publ_section_title
;
Structure prediction by ZEFSAII (Michael W. Deem and Ramdas Pophale) SiO2 
 PCOD9302383
Probable space group: C 2/C
;
_chemical_formula_sum "Si O2"
_cell_formula_units_Z 52
_cell_length_a 20.222240
_cell_length_b 7.871583
_cell_length_c 13.824868
_cell_angle_alpha 90.000000
_cell_angle_beta 116.285677
_cell_angle_gamma 90.000000
_cell_volume 1973.102710
_symmetry_space_group_name_H-M "C 2/C"
_symmetry_group_IT_number 15
_symmetry_cell_setting 'monoclinic'
loop_
_space_group_symop_operation_xyz
x,y,z
-x,y,1/2-z
-x,-y,-z
x,-y,1/2+z
1/2+x,1/2+y,z
1/2-x,1/2+y,1/2-z
1/2-x,1/2-y,-z
1/2+x,1/2-y,1/2+z
loop_
_atom_site_type_symbol
_atom_site_label
_atom_site_fract_x
_atom_site_fract_y
_atom_site_fract_z
Si Si1 0.520669 0.610280 0.164087
Si Si2 0.345955 0.838824 0.960832
Si Si3 0.895380 0.313574 0.404740
Si Si4 0.000000 0.799743 0.250000
Si Si5 0.371506 0.322139 0.282565
Si Si6 0.761917 0.839193 0.906665
Si Si7 0.190957 0.295400 0.350817
O O1 0.500000 0.703729 0.250000
O O2 0.526955 0.731501 0.076885
O O3 0.474784 0.434006 0.148471
O O4 0.601358 0.513383 0.222052
O O5 0.376412 0.714321 0.898389
O O6 0.256376 0.844934 0.885324
O O7 0.385951 0.016872 0.961734
O O8 0.352752 0.778582 0.075888
O O9 0.844850 0.179450 0.426799
O O10 0.857120 0.338029 0.274669
O O11 0.069812 0.714068 0.245725
O O12 0.291044 0.266011 0.199430
O O13 0.737169 0.031293 0.894785
O O14 0.750000 0.750000 0.000000
#
# Coordination Sequence:
#
# PCOD9302383 Si02
#       7
#     8   8   8   4   8   8   8
#     4   7  19  38  64  86 108 160 203 237 291 355
#     4  11  22  33  55  86 117 158 187 241 298 358
#     4  12  20  36  61  81 119 156 187 248 304 341
#     4   6  18  38  66  82 108 164 206 234 292 350
#     4   9  18  39  61  84 116 157 200 238 301 343
#     4  12  23  35  58  91 119 158 195 249 296 361
#     4  11  23  35  50  88 125 148 199 232 306 365
#
# _framework density 26.354430000000001
#
# number of rings (size 3 to 8) (size 9 to 14) (size 15 to 20)
#    1.385    0.308    4.615    0.923    2.154    0.000 
#    1.385    0.000    3.385    5.538    0.000    0.000 
#    0.000    0.000    0.000    0.000    0.000    0.000 
#
# Total GULP energy -145049.743319 kJ/mol
# GULP energy per Si atom -5578.836281 kJ/mol
# Density = 2.629445 g / cm^3
# Si number density = 26.354430 Si / 1000 Ang^3
#
#
#
# Elastic Constant Matrix: (Units=GPa)
#
#
# Indices 1 2 3 4 5 6 
#
# 1 105.4445 21.4515 67.7674 0.0000 -24.5787 0.0000
# 2 21.4515 78.1283 3.7985 0.0000 -12.9496 0.0000
# 3 67.7674 3.7985 135.9442 0.0000 -32.4354 0.0000
# 4 0.0000 0.0000 0.0000 31.9772 0.0000 -20.2718
# 5 -24.5787 -12.9496 -32.4354 0.0000 64.4876 0.0000
# 6 0.0000 0.0000 0.0000 -20.2718 0.0000 24.8311
#
#
#
# Elastic Compliance Matrix: (Units=1/GPa)
#
#
# Indices 1 2 3 4 5 6 
#
# 1 0.015099 -0.003556 -0.007073 0.000000 0.001483 0.000000
# 2 -0.003556 0.014088 0.001967 0.000000 0.002463 0.000000
# 3 -0.007073 0.001967 0.011680 0.000000 0.003573 0.000000
# 4 0.000000 0.000000 0.000000 0.064819 0.000000 0.052917
# 5 0.001483 0.002463 0.003573 0.000000 0.018364 0.000000
# 6 0.000000 0.000000 0.000000 0.052917 0.000000 0.083473
#
#
# Mechanical properties :
#
#
# Convention : Reuss Voigt Hill
#
# Bulk Modulus (GPa) = 42.47866 56.17241 49.32553
# Shear Modulus (GPa) = 21.48732 39.35915 30.42323
#
# Velocity S-wave (km/s) = 2.85848 3.86872 3.40131
# Velocity P-wave (km/s) = 5.20075 6.42779 5.84655
#
# Compressibility (1/GPa) = 0.02354123
#
# Stress axis : x y z
#
# Youngs Moduli (GPa) = 66.23077 70.98038 85.61872
#
# Poissons Ratio (x) = 0.25240 0.60562
# Poissons Ratio (y) = 0.23551 -0.16838
# Poissons Ratio (z) = 0.46848 -0.13959
#
# Static dielectric constant tensor:
#      x y z
#    x 2.195940 0.000000 0.028780 
#    y 0.000000 2.125260 0.000000 
#    z 0.028780 0.000000 2.095380 
# 
# From -- ./inp_files/171354.got.cif
#   From: 2010.05.17/outbox.cif.g08.bks.cpg/sg15_86_cif.got.tgz:171354.got - 2010.06.03 18:47:42.
