data_PCOD9302874
_publ_section_title
;
Structure prediction by ZEFSAII (Michael W. Deem and Ramdas Pophale) SiO2 
 PCOD9302874
Probable space group: C 2/C
;
_chemical_formula_sum "Si O2"
_cell_formula_units_Z 44
_cell_length_a 26.068500
_cell_length_b 16.079295
_cell_length_c 14.208213
_cell_angle_alpha 90.000000
_cell_angle_beta 160.587034
_cell_angle_gamma 90.000000
_cell_volume 1979.476263
_symmetry_space_group_name_H-M "C 2/C"
_symmetry_group_IT_number 15
_symmetry_cell_setting 'monoclinic'
loop_
_space_group_symop_operation_xyz
x,y,z
-x,y,1/2-z
-x,-y,-z
x,-y,1/2+z
1/2+x,1/2+y,z
1/2-x,1/2+y,1/2-z
1/2-x,1/2-y,-z
1/2+x,1/2-y,1/2+z
loop_
_atom_site_type_symbol
_atom_site_label
_atom_site_fract_x
_atom_site_fract_y
_atom_site_fract_z
Si Si1 0.722193 0.732891 0.821172
Si Si2 0.289932 0.881198 0.272009
Si Si3 0.853291 0.034440 0.366926
Si Si4 0.000000 0.832545 0.250000
Si Si5 0.695684 0.538615 0.429401
Si Si6 0.372686 0.874677 0.723119
O O1 0.721769 0.693983 0.716691
O O2 0.610873 0.805311 0.666231
O O3 0.733567 0.656715 0.913938
O O4 0.889771 0.776051 0.121000
O O5 0.472828 0.878831 0.570909
O O6 0.247066 0.964948 0.254529
O O7 0.219368 0.888978 0.045726
O O8 0.885894 0.111679 0.490930
O O9 0.787845 0.059126 0.152014
O O10 0.023398 0.995362 0.646645
O O11 0.816836 0.464444 0.661797
#
# Coordination Sequence:
#
# PCOD9302874 Si02
#       6
#     8   8   8   4   8   8
#     4  11  23  39  68  98 138 180 230 279 346 419
#     4  12  22  42  69 104 138 178 229 295 337 400
#     4  11  23  40  69  98 134 182 234 275 337 422
#     4  12  20  44  66  94 132 188 222 278 344 414
#     4  11  23  39  66  99 136 179 231 282 343 405
#     4  11  22  40  68 104 134 178 235 288 342 409
#
# _framework density 22.228103000000001
#
# number of rings (size 3 to 8) (size 9 to 14) (size 15 to 20)
#    0.000    0.727    7.273    0.545    0.000    0.000 
#    0.000    0.909    4.000    0.000    0.000    0.000 
#    0.000    0.000    0.000    0.000    0.000    0.000 
#
# Total GULP energy -122925.786617 kJ/mol
# GULP energy per Si atom -5587.535755 kJ/mol
# Density = 2.217751 g / cm^3
# Si number density = 22.228103 Si / 1000 Ang^3
#
#
#
# Elastic Constant Matrix: (Units=GPa)
#
#
# Indices 1 2 3 4 5 6 
#
# 1 145.3285 53.7306 42.1526 0.0000 -8.0113 0.0000
# 2 53.7306 87.4348 28.9559 0.0000 -6.1800 0.0000
# 3 42.1526 28.9559 42.7763 0.0000 -5.9233 0.0000
# 4 0.0000 0.0000 0.0000 26.7975 0.0000 -3.0779
# 5 -8.0113 -6.1800 -5.9233 0.0000 43.2764 0.0000
# 6 0.0000 0.0000 0.0000 -3.0779 0.0000 48.0356
#
#
#
# Elastic Compliance Matrix: (Units=1/GPa)
#
#
# Indices 1 2 3 4 5 6 
#
# 1 0.010595 -0.003924 -0.007736 0.000000 0.000342 0.000000
# 2 -0.003924 0.016220 -0.007025 0.000000 0.000628 0.000000
# 3 -0.007736 -0.007025 0.036103 0.000000 0.002506 0.000000
# 4 0.000000 0.000000 0.000000 0.037594 0.000000 0.002409
# 5 0.000342 0.000628 0.002506 0.000000 0.023603 0.000000
# 6 0.000000 0.000000 0.000000 0.002409 0.000000 0.020972
#
#
# Mechanical properties :
#
#
# Convention : Reuss Voigt Hill
#
# Bulk Modulus (GPa) = 39.14510 58.35751 48.75131
# Shear Modulus (GPa) = 26.18157 33.66861 29.92509
#
# Velocity S-wave (km/s) = 3.43572 3.89612 3.67314
# Velocity P-wave (km/s) = 5.77821 6.82280 6.32212
#
# Compressibility (1/GPa) = 0.02554598
#
# Stress axis : x y z
#
# Youngs Moduli (GPa) = 94.38707 61.65355 27.69818
#
# Poissons Ratio (x) = 0.24195 0.21428
# Poissons Ratio (y) = 0.37042 0.19458
# Poissons Ratio (z) = 0.73021 0.43312
#
# Static dielectric constant tensor:
#      x y z
#    x 1.872740 0.000000 -0.032580 
#    y 0.000000 1.841020 0.000000 
#    z -0.032580 0.000000 1.823230 
# 
# From -- ./inp_files/178806.got.cif
#   From: 2010.05.17/outbox.cif.g08.bks.cpg/sg15_90_cif.got.tgz:178806.got - 2010.06.03 18:47:42.
