data_PCOD9302815
_publ_section_title
;
Structure prediction by ZEFSAII (Michael W. Deem and Ramdas Pophale) SiO2 
 PCOD9302815
Probable space group: C 2/C
;
_chemical_formula_sum "Si O2"
_cell_formula_units_Z 60
_cell_length_a 21.739309
_cell_length_b 9.416322
_cell_length_c 14.995022
_cell_angle_alpha 90.000000
_cell_angle_beta 100.309087
_cell_angle_gamma 90.000000
_cell_volume 3019.993286
_symmetry_space_group_name_H-M "C 2/C"
_symmetry_group_IT_number 15
_symmetry_cell_setting 'monoclinic'
loop_
_space_group_symop_operation_xyz
x,y,z
-x,y,1/2-z
-x,-y,-z
x,-y,1/2+z
1/2+x,1/2+y,z
1/2-x,1/2+y,1/2-z
1/2-x,1/2-y,-z
1/2+x,1/2-y,1/2+z
loop_
_atom_site_type_symbol
_atom_site_label
_atom_site_fract_x
_atom_site_fract_y
_atom_site_fract_z
Si Si1 0.180797 0.861078 0.180706
Si Si2 0.627760 0.824517 0.812510
Si Si3 0.848349 0.150078 0.028312
Si Si4 0.379366 0.342185 0.831435
Si Si5 0.987780 0.946073 0.596788
Si Si6 0.184025 0.830135 0.491358
Si Si7 0.000000 0.183991 0.750000
Si Si8 0.322622 0.133752 0.671124
O O1 0.175833 0.738175 0.252107
O O2 0.252478 0.901726 0.183480
O O3 0.142329 0.999082 0.202792
O O4 0.153031 0.816917 0.077427
O O5 0.639464 0.741790 0.907300
O O6 0.560424 0.782525 0.757546
O O7 0.639675 0.989177 0.831005
O O8 0.819457 0.273144 0.080597
O O9 0.919515 0.124138 0.079366
O O10 0.812955 0.998596 0.028359
O O11 0.454110 0.345851 0.861672
O O12 0.355375 0.230181 0.754221
O O13 0.346043 0.318122 0.918309
O O14 0.990607 0.079403 0.663928
O O15 0.000000 0.000000 0.500000
O O16 0.250000 0.750000 0.500000
#
# Coordination Sequence:
#
# PCOD9302815 Si02
#       8
#     8   8   8   8   8   8   4   8
#     4  11  22  43  65  91 126 169 215 260 315 381
#     4  12  24  40  62  93 130 171 203 265 331 375
#     4  11  23  41  68  96 122 172 218 268 316 376
#     4  11  23  41  67  93 121 172 220 263 313 376
#     4  12  20  43  70  93 121 162 230 272 305 381
#     4  11  22  40  65  95 126 165 215 261 316 380
#     4  12  22  40  66  90 130 164 214 274 322 382
#     4  12  26  40  61  96 136 166 209 261 325 392
#
# _framework density 19.867595000000001
#
# number of rings (size 3 to 8) (size 9 to 14) (size 15 to 20)
#    0.000    0.533    5.333    5.200    0.000    3.200 
#    0.000    0.000    0.000    4.800    0.000    0.000 
#    0.000    0.000    0.000    0.000    0.000    0.000 
#
# Total GULP energy -167861.267694 kJ/mol
# GULP energy per Si atom -5595.375590 kJ/mol
# Density = 1.982238 g / cm^3
# Si number density = 19.867595 Si / 1000 Ang^3
#
#
#
# Elastic Constant Matrix: (Units=GPa)
#
#
# Indices 1 2 3 4 5 6 
#
# 1 75.6219 -0.7006 -10.2141 0.0000 13.9157 0.0000
# 2 -0.7006 94.0502 52.6148 0.0000 -17.4612 0.0000
# 3 -10.2141 52.6148 88.5328 0.0000 1.7091 0.0000
# 4 0.0000 0.0000 0.0000 20.1041 0.0000 -2.2855
# 5 13.9157 -17.4612 1.7091 0.0000 31.8321 0.0000
# 6 0.0000 0.0000 0.0000 -2.2855 0.0000 13.1485
#
#
#
# Elastic Compliance Matrix: (Units=1/GPa)
#
#
# Indices 1 2 3 4 5 6 
#
# 1 0.015470 -0.004033 0.004360 0.000000 -0.009209 0.000000
# 2 -0.004033 0.020266 -0.012771 0.000000 0.013566 0.000000
# 3 0.004360 -0.012771 0.019580 0.000000 -0.009963 0.000000
# 4 0.000000 0.000000 0.000000 0.050744 0.000000 0.008820
# 5 -0.009209 0.013566 -0.009963 0.000000 0.043417 0.000000
# 6 0.000000 0.000000 0.000000 0.008820 0.000000 0.077587
#
#
# Mechanical properties :
#
#
# Convention : Reuss Voigt Hill
#
# Bulk Modulus (GPa) = 32.86654 37.95611 35.41133
# Shear Modulus (GPa) = 19.07699 27.45059 23.26379
#
# Velocity S-wave (km/s) = 3.10208 3.72112 3.42561
# Velocity P-wave (km/s) = 5.42303 6.13256 5.78868
#
# Compressibility (1/GPa) = 0.03042608
#
# Stress axis : x y z
#
# Youngs Moduli (GPa) = 64.64188 49.34446 51.07153
#
# Poissons Ratio (x) = 0.19903 -0.22265
# Poissons Ratio (y) = 0.26073 0.65224
# Poissons Ratio (z) = -0.28182 0.63018
#
# Static dielectric constant tensor:
#      x y z
#    x 1.721920 0.000000 0.009530 
#    y 0.000000 1.787640 0.000000 
#    z 0.009530 0.000000 1.694040 
# 
# From -- ./inp_files/172449.got.cif
#   From: 2010.05.17/outbox.cif.g08.bks.cpg/sg15_87_cif.got.tgz:172449.got - 2010.06.03 18:47:42.
