data_PCOD9302801
_publ_section_title
;
Structure prediction by ZEFSAII (Michael W. Deem and Ramdas Pophale) SiO2 
 PCOD9302801
Probable space group: C 2/C
;
_chemical_formula_sum "Si O2"
_cell_formula_units_Z 48
_cell_length_a 31.776849
_cell_length_b 8.429179
_cell_length_c 7.838887
_cell_angle_alpha 90.000000
_cell_angle_beta 87.422909
_cell_angle_gamma 90.000000
_cell_volume 2097.543881
_symmetry_space_group_name_H-M "C 2/C"
_symmetry_group_IT_number 15
_symmetry_cell_setting 'monoclinic'
loop_
_space_group_symop_operation_xyz
x,y,z
-x,y,1/2-z
-x,-y,-z
x,-y,1/2+z
1/2+x,1/2+y,z
1/2-x,1/2+y,1/2-z
1/2-x,1/2-y,-z
1/2+x,1/2-y,1/2+z
loop_
_atom_site_type_symbol
_atom_site_label
_atom_site_fract_x
_atom_site_fract_y
_atom_site_fract_z
Si Si1 0.792130 0.923817 0.367611
Si Si2 0.290266 0.249651 0.731471
Si Si3 0.372409 0.249181 0.227687
Si Si4 0.045707 0.753248 0.775013
Si Si5 0.044373 0.900179 0.153066
Si Si6 0.128699 0.584539 0.639488
O O1 0.751409 0.854796 0.278654
O O2 0.793967 0.844152 0.552638
O O3 0.834889 0.872150 0.265823
O O4 0.787615 0.112438 0.372403
O O5 0.330973 0.145700 0.763712
O O6 0.416601 0.334682 0.247057
O O7 0.369294 0.105034 0.363007
O O8 0.369520 0.165609 0.045383
O O9 0.084898 0.640060 0.732551
O O10 0.000000 0.676119 0.750000
O O11 0.047790 0.908549 0.652621
O O12 0.046703 0.824832 0.965302
O O13 0.000000 0.861496 0.250000
#
# Coordination Sequence:
#
# PCOD9302801 Si02
#       6
#     8   8   8   8   8   8
#     4  11  24  42  65  93 125 162 204 251 304 361
#     4  11  24  42  65  93 125 162 204 251 304 361
#     4  12  25  42  63  90 124 162 205 253 306 363
#     4  11  22  40  64  92 124 161 205 252 305 362
#     4  11  22  40  64  92 124 161 205 252 305 362
#     4  12  25  42  63  90 124 162 205 253 306 363
#
# _framework density 22.883906
#
# number of rings (size 3 to 8) (size 9 to 14) (size 15 to 20)
#    0.000    0.667    0.000   10.000    0.000    6.000 
#    0.000    3.333    0.000    0.000    0.000    0.000 
#    0.000    0.000    0.000    0.000    0.000    0.000 
#
# Total GULP energy -134561.683588 kJ/mol
# GULP energy per Si atom -5606.736816 kJ/mol
# Density = 2.283182 g / cm^3
# Si number density = 22.883906 Si / 1000 Ang^3
#
#
#
# Elastic Constant Matrix: (Units=GPa)
#
#
# Indices 1 2 3 4 5 6 
#
# 1 182.4953 38.9159 19.6155 0.0000 27.2998 0.0000
# 2 38.9159 54.5202 -23.9970 0.0000 0.2509 0.0000
# 3 19.6155 -23.9970 76.8611 0.0000 2.1842 0.0000
# 4 0.0000 0.0000 0.0000 35.0855 0.0000 1.2561
# 5 27.2998 0.2509 2.1842 0.0000 25.1495 0.0000
# 6 0.0000 0.0000 0.0000 1.2561 0.0000 36.5580
#
#
#
# Elastic Compliance Matrix: (Units=1/GPa)
#
#
# Indices 1 2 3 4 5 6 
#
# 1 0.009285 -0.008703 -0.004815 0.000000 -0.009574 0.000000
# 2 -0.008703 0.029436 0.011179 0.000000 0.008182 0.000000
# 3 -0.004815 0.011179 0.017628 0.000000 0.003584 0.000000
# 4 0.000000 0.000000 0.000000 0.028537 0.000000 -0.000980
# 5 -0.009574 0.008182 0.003584 0.000000 0.049762 0.000000
# 6 0.000000 0.000000 0.000000 -0.000980 0.000000 0.027387
#
#
# Mechanical properties :
#
#
# Convention : Reuss Voigt Hill
#
# Bulk Modulus (GPa) = 19.35273 42.54945 30.95109
# Shear Modulus (GPa) = 27.18333 37.98142 32.58237
#
# Velocity S-wave (km/s) = 3.45030 4.07842 3.77744
# Velocity P-wave (km/s) = 4.93437 6.38842 5.70789
#
# Compressibility (1/GPa) = 0.05167230
#
# Stress axis : x y z
#
# Youngs Moduli (GPa) = 107.69977 33.97148 56.72932
#
# Poissons Ratio (x) = 0.29564 0.27313
# Poissons Ratio (y) = 0.93728 -0.63417
# Poissons Ratio (z) = 0.51853 -0.37976
#
# Static dielectric constant tensor:
#      x y z
#    x 1.801560 0.000000 -0.000860 
#    y 0.000000 1.797670 0.000000 
#    z -0.000860 0.000000 1.892690 
# 
# From -- ./inp_files/68544.got.cif
#   From: 2010.05.17/outbox.cif.g08.bks.cpg/sg15_35_cif.got.tgz:68544.got - 2010.06.03 18:47:42.
