data_PCOD9302814
_publ_section_title
;
Structure prediction by ZEFSAII (Michael W. Deem and Ramdas Pophale) SiO2 
 PCOD9302814
Probable space group: C 2/C
;
_chemical_formula_sum "Si O2"
_cell_formula_units_Z 64
_cell_length_a 15.804437
_cell_length_b 12.876829
_cell_length_c 27.078609
_cell_angle_alpha 90.000000
_cell_angle_beta 144.740312
_cell_angle_gamma 90.000000
_cell_volume 3181.290127
_symmetry_space_group_name_H-M "C 2/C"
_symmetry_group_IT_number 15
_symmetry_cell_setting 'monoclinic'
loop_
_space_group_symop_operation_xyz
x,y,z
-x,y,1/2-z
-x,-y,-z
x,-y,1/2+z
1/2+x,1/2+y,z
1/2-x,1/2+y,1/2-z
1/2-x,1/2-y,-z
1/2+x,1/2-y,1/2+z
loop_
_atom_site_type_symbol
_atom_site_label
_atom_site_fract_x
_atom_site_fract_y
_atom_site_fract_z
Si Si1 0.121747 0.674502 0.701699
Si Si2 0.832696 0.759649 0.091540
Si Si3 0.595703 0.982399 0.619266
Si Si4 0.660360 0.176672 0.231057
Si Si5 0.328471 0.296931 0.585698
Si Si6 0.677742 0.084023 0.338940
Si Si7 0.769279 0.520950 0.921425
Si Si8 0.321764 0.859555 0.164413
O O1 0.070518 0.571447 0.649074
O O2 0.229596 0.729071 0.715829
O O3 0.212440 0.649293 0.794418
O O4 0.995009 0.756581 0.656416
O O5 0.770604 0.676625 0.101600
O O6 0.998980 0.721458 0.163585
O O7 0.819791 0.875534 0.106940
O O8 0.750000 0.750000 0.000000
O O9 0.433612 0.962530 0.520861
O O10 0.657053 0.883985 0.678037
O O11 0.702779 0.008139 0.624241
O O12 0.717256 0.101305 0.301101
O O13 0.250000 0.250000 0.500000
O O14 0.299920 0.417486 0.585669
O O15 0.270965 0.233537 0.606062
O O16 0.500000 0.084631 0.250000
O O17 0.724578 0.970679 0.379156
O O18 0.500000 0.859863 0.250000
#
# Coordination Sequence:
#
# PCOD9302814 Si02
#       8
#     8   8   8   8   8   8   8   8
#     4  11  22  40  65  95 125 163 212 262 319 377
#     4  11  23  39  64  93 125 167 209 258 316 384
#     4  11  22  41  67  90 127 174 210 263 324 380
#     4  11  22  40  65  95 125 163 212 262 319 377
#     4  11  23  39  64  93 125 167 209 258 316 384
#     4   9  19  36  62  88 117 158 208 251 304 373
#     4  11  24  41  62  97 132 166 214 266 324 384
#     4   9  19  36  62  88 117 158 208 251 304 373
#
# _framework density 20.117623999999999
#
# number of rings (size 3 to 8) (size 9 to 14) (size 15 to 20)
#    0.000    1.500    3.750    1.500    3.500    1.000 
#    0.000    6.875    0.000    1.500    0.000    0.000 
#    0.000    0.000    0.000    0.000    0.000    0.000 
#
# Total GULP energy -178392.566338 kJ/mol
# GULP energy per Si atom -5574.767698 kJ/mol
# Density = 2.007184 g / cm^3
# Si number density = 20.117624 Si / 1000 Ang^3
#
#
#
# Elastic Constant Matrix: (Units=GPa)
#
#
# Indices 1 2 3 4 5 6 
#
# 1 53.0340 11.9970 11.2322 0.0000 -19.2142 0.0000
# 2 11.9970 121.5630 21.0430 0.0000 -13.6722 0.0000
# 3 11.2322 21.0430 41.9101 0.0000 -18.0049 0.0000
# 4 0.0000 0.0000 0.0000 22.7861 0.0000 -7.1383
# 5 -19.2142 -13.6722 -18.0049 0.0000 28.6639 0.0000
# 6 0.0000 0.0000 0.0000 -7.1383 0.0000 32.0695
#
#
#
# Elastic Compliance Matrix: (Units=1/GPa)
#
#
# Indices 1 2 3 4 5 6 
#
# 1 0.024975 -0.000721 0.000976 0.000000 0.017011 0.000000
# 2 -0.000721 0.009114 -0.003729 0.000000 0.001522 0.000000
# 3 0.000976 -0.003729 0.034224 0.000000 0.020373 0.000000
# 4 0.000000 0.000000 0.000000 0.047176 0.000000 0.010501
# 5 0.017011 0.001522 0.020373 0.000000 0.059813 0.000000
# 6 0.000000 0.000000 0.000000 0.010501 0.000000 0.033520
#
#
# Mechanical properties :
#
#
# Convention : Reuss Voigt Hill
#
# Bulk Modulus (GPa) = 16.29563 33.89462 25.09513
# Shear Modulus (GPa) = 21.16637 28.18624 24.67631
#
# Velocity S-wave (km/s) = 3.24718 3.74715 3.50609
# Velocity P-wave (km/s) = 4.70921 5.96710 5.37508
#
# Compressibility (1/GPa) = 0.06136614
#
# Stress axis : x y z
#
# Youngs Moduli (GPa) = 40.03974 109.72136 29.21941
#
# Poissons Ratio (x) = 0.07906 -0.02853
# Poissons Ratio (y) = 0.02885 0.10897
# Poissons Ratio (z) = -0.03910 0.40918
#
# Static dielectric constant tensor:
#      x y z
#    x 1.777160 0.000000 -0.023870 
#    y 0.000000 1.498970 0.000000 
#    z -0.023870 0.000000 1.704580 
# 
# From -- ./inp_files/248598.got.cif
#   From: 2010.05.17/outbox.cif.g08.bks.cpg/sg15_125_cif.got.tgz:248598.got - 2010.06.03 18:47:42.
