data_PCOD9302843
_publ_section_title
;
Structure prediction by ZEFSAII (Michael W. Deem and Ramdas Pophale) SiO2 
 PCOD9302843
Probable space group: C 2/C
;
_chemical_formula_sum "Si O2"
_cell_formula_units_Z 32
_cell_length_a 19.993775
_cell_length_b 4.814357
_cell_length_c 13.412098
_cell_angle_alpha 90.000000
_cell_angle_beta 121.892085
_cell_angle_gamma 90.000000
_cell_volume 1096.125686
_symmetry_space_group_name_H-M "C 2/C"
_symmetry_group_IT_number 15
_symmetry_cell_setting 'monoclinic'
loop_
_space_group_symop_operation_xyz
x,y,z
-x,y,1/2-z
-x,-y,-z
x,-y,1/2+z
1/2+x,1/2+y,z
1/2-x,1/2+y,1/2-z
1/2-x,1/2-y,-z
1/2+x,1/2-y,1/2+z
loop_
_atom_site_type_symbol
_atom_site_label
_atom_site_fract_x
_atom_site_fract_y
_atom_site_fract_z
Si Si1 0.590076 0.726987 0.526762
Si Si2 0.332690 0.120906 0.597915
Si Si3 0.263926 0.673627 0.329015
Si Si4 0.948776 0.051906 0.801013
O O1 0.622595 0.940214 0.469645
O O2 0.654239 0.474974 0.578570
O O3 0.576595 0.772187 0.633656
O O4 0.509221 0.632788 0.412741
O O5 0.250000 0.250000 0.500000
O O6 0.300954 0.861198 0.635800
O O7 0.384861 0.337346 0.703490
O O8 0.266639 0.978656 0.286333
O O9 0.000000 0.174489 0.750000
#
# Coordination Sequence:
#
# PCOD9302843 Si02
#       4
#     8   8   8   8
#     4   9  18  34  61  94 128 175 219 272 332 393
#     4   9  18  34  59  93 128 171 216 272 330 390
#     4  11  22  40  66  96 134 174 220 273 331 395
#     4   9  16  32  63  92 134 172 221 271 331 398
#
# _framework density 29.193729999999999
#
# number of rings (size 3 to 8) (size 9 to 14) (size 15 to 20)
#    0.000    2.500    2.500    0.000    0.000    0.000 
#    0.000   12.500    0.000    1.500    0.000    0.000 
#    0.000    0.000    0.000    0.000    0.000    0.000 
#
# Total GULP energy -89679.482524 kJ/mol
# GULP energy per Si atom -5604.967658 kJ/mol
# Density = 2.912728 g / cm^3
# Si number density = 29.193730 Si / 1000 Ang^3
#
#
#
# Elastic Constant Matrix: (Units=GPa)
#
#
# Indices 1 2 3 4 5 6 
#
# 1 212.7980 53.4703 75.7958 0.0000 -57.5779 0.0000
# 2 53.4703 101.6219 49.7575 -0.0001 -16.9922 0.0000
# 3 75.7958 49.7575 230.1671 0.0000 8.0619 0.0000
# 4 0.0000 -0.0001 0.0000 56.3420 0.0000 -6.6025
# 5 -57.5779 -16.9922 8.0619 0.0000 93.9422 0.0000
# 6 0.0000 0.0000 0.0000 -6.6025 0.0000 22.7525
#
#
#
# Elastic Compliance Matrix: (Units=1/GPa)
#
#
# Indices 1 2 3 4 5 6 
#
# 1 0.007047 -0.002025 -0.002027 0.000000 0.004127 0.000000
# 2 -0.002025 0.012061 -0.001979 0.000000 0.001110 0.000000
# 3 -0.002027 -0.001979 0.005513 0.000000 -0.002074 0.000000
# 4 0.000000 0.000000 0.000000 0.018374 0.000000 0.005332
# 5 0.004127 0.001110 -0.002074 0.000000 0.013553 0.000000
# 6 0.000000 0.000000 0.000000 0.005332 0.000000 0.045498
#
#
# Mechanical properties :
#
#
# Convention : Reuss Voigt Hill
#
# Bulk Modulus (GPa) = 79.63774 100.29270 89.96522
# Shear Modulus (GPa) = 42.26741 58.97823 50.62282
#
# Velocity S-wave (km/s) = 3.80916 4.49958 4.16869
# Velocity P-wave (km/s) = 6.83261 7.83733 7.35215
#
# Compressibility (1/GPa) = 0.01255686
#
# Stress axis : x y z
#
# Youngs Moduli (GPa) = 141.90703 82.91374 181.39602
#
# Poissons Ratio (x) = 0.16791 0.36775
# Poissons Ratio (y) = 0.28738 0.35903
# Poissons Ratio (z) = 0.28769 0.16411
#
# Static dielectric constant tensor:
#      x y z
#    x 2.370340 0.000000 0.017200 
#    y 0.000000 2.185130 0.000000 
#    z 0.017200 0.000000 2.259060 
# 
# From -- ./inp_files/165182.got.cif
#   From: 2010.05.17/outbox.cif.g08.bks.cpg/sg15_83_cif.got.tgz:165182.got - 2010.06.03 18:47:42.
