data_PCOD9302804
_publ_section_title
;
Structure prediction by ZEFSAII (Michael W. Deem and Ramdas Pophale) SiO2 
 PCOD9302804
Probable space group: C 2/C
;
_chemical_formula_sum "Si O2"
_cell_formula_units_Z 40
_cell_length_a 8.724752
_cell_length_b 23.215929
_cell_length_c 7.743909
_cell_angle_alpha 90.000000
_cell_angle_beta 104.510387
_cell_angle_gamma 90.000000
_cell_volume 1518.520366
_symmetry_space_group_name_H-M "C 2/C"
_symmetry_group_IT_number 15
_symmetry_cell_setting 'monoclinic'
loop_
_space_group_symop_operation_xyz
x,y,z
-x,y,1/2-z
-x,-y,-z
x,-y,1/2+z
1/2+x,1/2+y,z
1/2-x,1/2+y,1/2-z
1/2-x,1/2-y,-z
1/2+x,1/2-y,1/2+z
loop_
_atom_site_type_symbol
_atom_site_label
_atom_site_fract_x
_atom_site_fract_y
_atom_site_fract_z
Si Si1 0.848852 0.225160 0.834318
Si Si2 0.933994 0.101133 0.927124
Si Si3 0.047687 0.686591 0.578759
Si Si4 0.172955 0.519123 0.735910
Si Si5 0.718117 0.091088 0.402945
O O1 0.849723 0.162286 0.923147
O O2 0.690125 0.229340 0.676983
O O3 0.000000 0.223519 0.750000
O O4 0.898192 0.277408 0.970196
O O5 0.813281 0.047715 0.891527
O O6 0.000000 0.100364 0.750000
O O7 0.096433 0.102053 0.078997
O O8 0.121244 0.645531 0.450499
O O9 0.000000 0.658682 0.750000
O O10 0.200112 0.546845 0.557571
O O11 0.000000 0.535822 0.750000
O O12 0.168393 0.449369 0.730761
#
# Coordination Sequence:
#
# PCOD9302804 Si02
#       5
#     8   8   8   8   8
#     4  11  22  44  73 100 138 185 228 280 348 412
#     4   9  19  40  67  89 132 181 214 273 346 404
#     4  12  25  44  70 105 142 179 227 290 348 408
#     4  11  22  40  64  95 130 178 224 278 337 404
#     4  11  23  42  66  94 137 179 222 280 344 407
#
# _framework density 26.341432000000001
#
# number of rings (size 3 to 8) (size 9 to 14) (size 15 to 20)
#    0.000    1.200    6.000    3.000    0.000    0.800 
#    0.000    2.000    0.000    0.000    0.000    0.000 
#    0.000    0.000    0.000    0.000    0.000    0.000 
#
# Total GULP energy -111816.302336 kJ/mol
# GULP energy per Si atom -5590.815117 kJ/mol
# Density = 2.628148 g / cm^3
# Si number density = 26.341432 Si / 1000 Ang^3
#
#
#
# Elastic Constant Matrix: (Units=GPa)
#
#
# Indices 1 2 3 4 5 6 
#
# 1 163.5901 60.1809 30.6185 0.0000 20.2650 0.0000
# 2 60.1809 139.8143 41.0618 0.0000 18.2536 0.0000
# 3 30.6185 41.0618 57.0385 0.0000 4.9893 0.0000
# 4 0.0000 0.0000 0.0000 33.3049 0.0000 24.0871
# 5 20.2650 18.2536 4.9893 0.0000 36.6491 0.0000
# 6 0.0000 0.0000 0.0000 24.0871 0.0000 -203.4575
#
#
#
# Elastic Compliance Matrix: (Units=1/GPa)
#
#
# Indices 1 2 3 4 5 6 
#
# 1 0.007729 -0.002298 -0.002247 0.000000 -0.002823 0.000000
# 2 -0.002298 0.010269 -0.005893 0.000000 -0.003042 0.000000
# 3 -0.002247 -0.005893 0.022888 0.000000 0.001062 0.000000
# 4 0.000000 0.000000 0.000000 0.027658 0.000000 0.003274
# 5 -0.002823 -0.003042 0.001062 0.000000 0.030217 0.000000
# 6 0.000000 0.000000 0.000000 0.003274 0.000000 -0.004527
#
#
# Mechanical properties :
#
#
# Convention : Reuss Voigt Hill
#
# Bulk Modulus (GPa) = 49.97848 69.35171 59.66510
# Shear Modulus (GPa) = 41.05752 -11.46192 14.79780
#
# Velocity S-wave (km/s) = 3.95228 -2.08824 2.37274
# Velocity P-wave (km/s) = 6.31204 4.53551 5.49603
#
# Compressibility (1/GPa) = 0.02000861
#
# Stress axis : x y z
#
# Youngs Moduli (GPa) = 129.38980 97.37665 43.69092
#
# Poissons Ratio (x) = 0.22378 0.09819
# Poissons Ratio (y) = 0.29734 0.25748
# Poissons Ratio (z) = 0.29080 0.57386
#
# Static dielectric constant tensor:
#      x y z
#    x 2.132140 0.000000 0.041300 
#    y 0.000000 2.078980 0.000000 
#    z 0.041300 0.000000 2.280820 
# 
# From -- ./inp_files/24569.got.cif
#   From: 2010.05.17/outbox.cif.g08.bks.cpg/sg15_13_cif.got.tgz:24569.got - 2010.06.03 18:47:42.
