data_PCOD9302288
_publ_section_title
;
Structure prediction by ZEFSAII (Michael W. Deem and Ramdas Pophale) SiO2 
 PCOD9302288
Probable space group: C 2/C
;
_chemical_formula_sum "Si O2"
_cell_formula_units_Z 48
_cell_length_a 18.389630
_cell_length_b 13.954274
_cell_length_c 13.998313
_cell_angle_alpha 90.000000
_cell_angle_beta 29.394136
_cell_angle_gamma 90.000000
_cell_volume 1763.085599
_symmetry_space_group_name_H-M "C 2/C"
_symmetry_group_IT_number 15
_symmetry_cell_setting 'monoclinic'
loop_
_space_group_symop_operation_xyz
x,y,z
-x,y,1/2-z
-x,-y,-z
x,-y,1/2+z
1/2+x,1/2+y,z
1/2-x,1/2+y,1/2-z
1/2-x,1/2-y,-z
1/2+x,1/2-y,1/2+z
loop_
_atom_site_type_symbol
_atom_site_label
_atom_site_fract_x
_atom_site_fract_y
_atom_site_fract_z
Si Si1 0.542465 0.366274 0.858760
Si Si2 0.221063 0.007761 0.916403
Si Si3 0.086104 0.387681 0.466602
Si Si4 0.000000 0.726049 0.750000
Si Si5 0.173080 0.551285 0.492823
Si Si6 0.500000 0.650606 0.750000
Si Si7 0.141616 0.762048 0.271970
O O1 0.414343 0.422233 0.952916
O O2 0.589508 0.288317 0.725023
O O3 0.672299 0.437571 0.739283
O O4 0.472851 0.318063 0.029293
O O5 0.284553 0.032285 0.947302
O O6 0.343332 0.050878 0.701149
O O7 0.123389 0.910488 0.048711
O O8 0.085500 0.462829 0.552827
O O9 0.920288 0.346164 0.642745
O O10 0.200381 0.302654 0.370866
O O11 0.095480 0.653685 0.576740
O O12 0.400522 0.709152 0.787912
#
# Coordination Sequence:
#
# PCOD9302288 Si02
#       7
#     8   8   8   4   8   4   8
#     4  11  22  43  72 103 137 186 239 294 361 432
#     4  11  21  44  73 102 136 182 238 293 358 422
#     4  11  26  48  71 107 145 193 240 302 362 434
#     4  12  25  37  70 110 142 178 240 309 365 414
#     4  12  23  44  68 104 144 185 236 300 366 430
#     4  12  21  45  72 106 130 198 242 289 353 446
#     4  11  26  44  73 102 143 192 246 294 359 435
#
# _framework density 27.224996000000001
#
# number of rings (size 3 to 8) (size 9 to 14) (size 15 to 20)
#    0.000    0.667    5.000    2.500    4.667    4.000 
#    3.000    1.667    0.000    0.000    0.000    0.000 
#    0.000    0.000    0.000    0.000    0.000    0.000 
#
# Total GULP energy -134396.830638 kJ/mol
# GULP energy per Si atom -5599.867943 kJ/mol
# Density = 2.716303 g / cm^3
# Si number density = 27.224996 Si / 1000 Ang^3
#
#
#
# Elastic Constant Matrix: (Units=GPa)
#
#
# Indices 1 2 3 4 5 6 
#
# 1 75.0977 25.7702 23.6320 0.0000 -8.0029 0.0000
# 2 25.7702 99.2251 36.4532 0.0000 -12.7813 0.0000
# 3 23.6320 36.4532 127.8625 0.0000 -21.9088 0.0000
# 4 0.0000 0.0000 0.0000 -22.9577 0.0000 85.9673
# 5 -8.0029 -12.7813 -21.9088 0.0000 39.9404 -0.0001
# 6 0.0000 0.0000 0.0000 85.9673 -0.0001 -135.2732
#
#
#
# Elastic Compliance Matrix: (Units=1/GPa)
#
#
# Indices 1 2 3 4 5 6 
#
# 1 0.015044 -0.003144 -0.001700 0.000000 0.001076 0.000000
# 2 -0.003144 0.012066 -0.002544 0.000000 0.001836 0.000000
# 3 -0.001700 -0.002544 0.009561 0.000000 0.004090 0.000000
# 4 0.000000 0.000000 0.000000 0.031570 0.000000 0.020063
# 5 0.001076 0.001836 0.004090 0.000000 0.028084 0.000000
# 6 0.000000 0.000000 0.000000 0.020063 0.000000 0.005358
#
#
# Mechanical properties :
#
#
# Convention : Reuss Voigt Hill
#
# Bulk Modulus (GPa) = 45.67270 52.65511 49.16390
# Shear Modulus (GPa) = 40.40125 -9.23610 15.58258
#
# Velocity S-wave (km/s) = 3.85642 -1.84387 2.39501
# Velocity P-wave (km/s) = 6.05324 3.85351 5.07402
#
# Compressibility (1/GPa) = 0.02189492
#
# Stress axis : x y z
#
# Youngs Moduli (GPa) = 66.46948 82.87854 104.58910
#
# Poissons Ratio (x) = 0.26059 0.17778
# Poissons Ratio (y) = 0.20899 0.26611
# Poissons Ratio (z) = 0.11299 0.21087
#
# Static dielectric constant tensor:
#      x y z
#    x 2.021370 0.000000 -0.010140 
#    y 0.000000 2.167460 0.000000 
#    z -0.010140 0.000000 2.195200 
# 
# From -- ./inp_files/162171.got.cif
#   From: 2010.05.17/outbox.cif.g08.bks.cpg/sg15_82_cif.got.tgz:162171.got - 2010.06.03 18:47:42.
