data_PCOD9302647
_publ_section_title
;
Structure prediction by ZEFSAII (Michael W. Deem and Ramdas Pophale) SiO2 
 PCOD9302647
Probable space group: C 2/C
;
_chemical_formula_sum "Si O2"
_cell_formula_units_Z 52
_cell_length_a 24.791966
_cell_length_b 17.845514
_cell_length_c 12.110939
_cell_angle_alpha 90.000000
_cell_angle_beta 154.448458
_cell_angle_gamma 90.000000
_cell_volume 2311.108474
_symmetry_space_group_name_H-M "C 2/C"
_symmetry_group_IT_number 15
_symmetry_cell_setting 'monoclinic'
loop_
_space_group_symop_operation_xyz
x,y,z
-x,y,1/2-z
-x,-y,-z
x,-y,1/2+z
1/2+x,1/2+y,z
1/2-x,1/2+y,1/2-z
1/2-x,1/2-y,-z
1/2+x,1/2-y,1/2+z
loop_
_atom_site_type_symbol
_atom_site_label
_atom_site_fract_x
_atom_site_fract_y
_atom_site_fract_z
Si Si1 0.942089 0.228379 0.407217
Si Si2 0.829697 0.488813 0.047637
Si Si3 0.504601 0.124484 0.123356
Si Si4 0.694065 0.756658 0.580558
Si Si5 0.266693 0.408924 0.327195
Si Si6 0.421277 0.431495 0.814470
Si Si7 0.500000 0.126633 0.750000
O O1 0.878467 0.247387 0.171287
O O2 0.989247 0.144696 0.475868
O O3 0.027044 0.296171 0.606397
O O4 0.833135 0.222626 0.299159
O O5 0.770589 0.529453 0.830342
O O6 0.714727 0.442875 0.883015
O O7 0.897768 0.560152 0.229825
O O8 0.939201 0.429878 0.224756
O O9 0.500000 0.131054 0.250000
O O10 0.360369 0.101767 0.834635
O O11 0.702354 0.675941 0.655002
O O12 0.614180 0.819126 0.495739
O O13 0.384445 0.431244 0.618367
O O14 0.500000 0.500000 0.000000
#
# Coordination Sequence:
#
# PCOD9302647 Si02
#       7
#     8   8   8   8   8   8   4
#     4   9  18  38  57  82 116 160 198 240 302 370
#     4  11  22  39  62  94 125 154 208 267 316 356
#     4   9  18  36  61  88 116 155 196 250 316 359
#     4   9  19  33  60  83 113 157 200 242 303 364
#     4   9  20  40  59  85 122 165 195 250 317 367
#     4  11  24  40  59  87 126 169 209 248 307 379
#     4  12  20  34  58 102 116 144 218 266 290 360
#
# _framework density 22.500025000000001
#
# number of rings (size 3 to 8) (size 9 to 14) (size 15 to 20)
#    0.000    2.154    3.846    0.923    0.000    4.923 
#    2.769    0.769    0.000    0.000    0.000    0.000 
#    0.000    0.000    0.000    0.000    0.000    0.000 
#
# Total GULP energy -145062.536870 kJ/mol
# GULP energy per Si atom -5579.328341 kJ/mol
# Density = 2.244881 g / cm^3
# Si number density = 22.500025 Si / 1000 Ang^3
#
#
#
# Elastic Constant Matrix: (Units=GPa)
#
#
# Indices 1 2 3 4 5 6 
#
# 1 48.3341 9.4821 8.8245 0.0000 10.5272 0.0000
# 2 9.4821 105.6610 22.7667 0.0000 -5.6443 0.0000
# 3 8.8245 22.7667 43.2500 0.0000 -0.4342 0.0000
# 4 0.0000 0.0000 0.0000 47.4367 0.0000 7.5381
# 5 10.5272 -5.6443 -0.4342 0.0000 27.3487 0.0000
# 6 0.0000 0.0000 0.0000 7.5381 0.0000 10.9106
#
#
#
# Elastic Compliance Matrix: (Units=1/GPa)
#
#
# Indices 1 2 3 4 5 6 
#
# 1 0.023871 -0.001789 -0.004025 0.000000 -0.009622 0.000000
# 2 -0.001789 0.010933 -0.005361 0.000000 0.002860 0.000000
# 3 -0.004025 -0.005361 0.026774 0.000000 0.000868 0.000000
# 4 0.000000 0.000000 0.000000 0.023681 0.000000 -0.016361
# 5 -0.009622 0.002860 0.000868 0.000000 0.040872 0.000000
# 6 0.000000 0.000000 0.000000 -0.016361 0.000000 0.102957
#
#
# Mechanical properties :
#
#
# Convention : Reuss Voigt Hill
#
# Bulk Modulus (GPa) = 25.49326 31.04353 28.26840
# Shear Modulus (GPa) = 18.90259 27.55065 23.22662
#
# Velocity S-wave (km/s) = 2.90162 3.50304 3.21642
# Velocity P-wave (km/s) = 4.75192 5.49443 5.13661
#
# Compressibility (1/GPa) = 0.03922605
#
# Stress axis : x y z
#
# Youngs Moduli (GPa) = 41.89220 91.46858 37.35020
#
# Poissons Ratio (x) = 0.16362 0.15035
# Poissons Ratio (y) = 0.07494 0.20024
# Poissons Ratio (z) = 0.16864 0.49039
#
# Static dielectric constant tensor:
#      x y z
#    x 1.827800 0.000000 -0.126900 
#    y 0.000000 1.852170 0.000000 
#    z -0.126900 0.000000 1.575690 
# 
# From -- ./inp_files/182918.got.cif
#   From: 2010.05.17/outbox.cif.g08.bks.cpg/sg15_92_cif.got.tgz:182918.got - 2010.06.03 18:47:42.
