data_PCOD9302980
_publ_section_title
;
Structure prediction by ZEFSAII (Michael W. Deem and Ramdas Pophale) SiO2 
 PCOD9302980
Probable space group: C 2/C
;
_chemical_formula_sum "Si O2"
_cell_formula_units_Z 48
_cell_length_a 19.351836
_cell_length_b 13.863623
_cell_length_c 9.268788
_cell_angle_alpha 90.000000
_cell_angle_beta 80.695381
_cell_angle_gamma 90.000000
_cell_volume 2453.973056
_symmetry_space_group_name_H-M "C 2/C"
_symmetry_group_IT_number 15
_symmetry_cell_setting 'monoclinic'
loop_
_space_group_symop_operation_xyz
x,y,z
-x,y,1/2-z
-x,-y,-z
x,-y,1/2+z
1/2+x,1/2+y,z
1/2-x,1/2+y,1/2-z
1/2-x,1/2-y,-z
1/2+x,1/2-y,1/2+z
loop_
_atom_site_type_symbol
_atom_site_label
_atom_site_fract_x
_atom_site_fract_y
_atom_site_fract_z
Si Si1 0.648200 0.000412 0.668187
Si Si2 0.252159 0.482451 0.866634
Si Si3 0.801929 0.218683 0.211017
Si Si4 0.926217 0.691860 0.199579
Si Si5 0.427906 0.184769 0.850354
Si Si6 0.830918 0.834202 0.374052
O O1 0.702762 0.033556 0.768236
O O2 0.623938 0.893507 0.721362
O O3 0.697633 0.014490 0.514954
O O4 0.583028 0.071004 0.676657
O O5 0.274826 0.378199 0.800793
O O6 0.317407 0.551822 0.873225
O O7 0.860720 0.265423 0.295472
O O8 0.734257 0.281832 0.186591
O O9 0.833324 0.194482 0.041994
O O10 0.897375 0.792829 0.269123
O O11 0.000000 0.672731 0.250000
O O12 0.928427 0.694410 0.024445
O O13 0.500000 0.217221 0.750000
#
# Coordination Sequence:
#
# PCOD9302980 Si02
#       6
#     8   8   8   8   8   8
#     4  12  23  40  66  99 133 166 210 268 326 382
#     4  12  23  40  67 102 130 165 215 267 321 377
#     4  11  23  41  67  95 130 170 216 264 320 379
#     4  12  27  43  64  95 133 176 215 262 328 382
#     4  12  27  42  65  95 133 174 215 266 320 391
#     4  11  22  41  66  94 132 170 212 267 316 383
#
# _framework density 19.560117000000002
#
# number of rings (size 3 to 8) (size 9 to 14) (size 15 to 20)
#    0.000    0.333    6.667    2.500    4.667    2.667 
#    0.000    0.833    0.000    4.000    0.000    0.000 
#    0.000    0.000    0.000    0.000    0.000    0.000 
#
# Total GULP energy -133834.882792 kJ/mol
# GULP energy per Si atom -5576.453450 kJ/mol
# Density = 1.951560 g / cm^3
# Si number density = 19.560117 Si / 1000 Ang^3
#
#
#
# Elastic Constant Matrix: (Units=GPa)
#
#
# Indices 1 2 3 4 5 6 
#
# 1 84.5462 38.8997 49.2601 0.0000 4.3830 0.0000
# 2 38.8997 83.5882 37.4488 0.0000 -2.7411 0.0000
# 3 49.2601 37.4488 156.7408 0.0000 10.2319 0.0000
# 4 0.0000 0.0000 0.0000 15.1103 0.0000 6.5244
# 5 4.3830 -2.7411 10.2319 0.0000 33.9254 0.0000
# 6 0.0000 0.0000 0.0000 6.5244 0.0000 29.0970
#
#
#
# Elastic Compliance Matrix: (Units=1/GPa)
#
#
# Indices 1 2 3 4 5 6 
#
# 1 0.016972 -0.006278 -0.003731 0.000000 -0.001575 0.000000
# 2 -0.006278 0.015867 -0.001994 0.000000 0.002694 0.000000
# 3 -0.003731 -0.001994 0.008169 0.000000 -0.002143 0.000000
# 4 0.000000 0.000000 0.000000 0.073275 0.000000 -0.016430
# 5 -0.001575 0.002694 -0.002143 0.000000 0.030544 0.000000
# 6 0.000000 0.000000 0.000000 -0.016430 0.000000 0.038052
#
#
# Mechanical properties :
#
#
# Convention : Reuss Voigt Hill
#
# Bulk Modulus (GPa) = 58.81901 64.01027 61.41464
# Shear Modulus (GPa) = 23.52372 28.91098 26.21735
#
# Velocity S-wave (km/s) = 3.47167 3.84872 3.66505
# Velocity P-wave (km/s) = 6.79751 7.24887 7.02682
#
# Compressibility (1/GPa) = 0.01700131
#
# Stress axis : x y z
#
# Youngs Moduli (GPa) = 58.92038 63.02497 122.41753
#
# Poissons Ratio (x) = 0.39569 0.45675
# Poissons Ratio (y) = 0.36992 0.24406
# Poissons Ratio (z) = 0.21984 0.12565
#
# Static dielectric constant tensor:
#      x y z
#    x 1.714970 0.000000 -0.013330 
#    y 0.000000 1.713370 0.000000 
#    z -0.013330 0.000000 1.657360 
# 
# From -- ./inp_files/47488.got.cif
#   From: 2010.05.17/outbox.cif.g08.bks.cpg/sg15_24_cif.got.tgz:47488.got - 2010.06.03 18:47:42.
