data_PCOD9302652
_publ_section_title
;
Structure prediction by ZEFSAII (Michael W. Deem and Ramdas Pophale) SiO2 
 PCOD9302652
Probable space group: C 2/C
;
_chemical_formula_sum "Si O2"
_cell_formula_units_Z 60
_cell_length_a 19.192306
_cell_length_b 17.750940
_cell_length_c 17.042451
_cell_angle_alpha 90.000000
_cell_angle_beta 33.238958
_cell_angle_gamma 90.000000
_cell_volume 3182.480613
_symmetry_space_group_name_H-M "C 2/C"
_symmetry_group_IT_number 15
_symmetry_cell_setting 'monoclinic'
loop_
_space_group_symop_operation_xyz
x,y,z
-x,y,1/2-z
-x,-y,-z
x,-y,1/2+z
1/2+x,1/2+y,z
1/2-x,1/2+y,1/2-z
1/2-x,1/2-y,-z
1/2+x,1/2-y,1/2+z
loop_
_atom_site_type_symbol
_atom_site_label
_atom_site_fract_x
_atom_site_fract_y
_atom_site_fract_z
Si Si1 0.352090 0.840959 0.699411
Si Si2 0.551102 0.704836 0.118603
Si Si3 0.205947 0.015756 0.290869
Si Si4 0.500000 0.591156 0.750000
Si Si5 0.641596 0.875418 0.394264
Si Si6 0.529302 0.463307 0.595078
Si Si7 0.803475 0.214002 0.870143
Si Si8 0.789823 0.258641 0.295647
O O1 0.266818 0.915881 0.782469
O O2 0.492042 0.866284 0.543657
O O3 0.357188 0.784467 0.768801
O O4 0.285118 0.793679 0.694265
O O5 0.500000 0.732974 0.250000
O O6 0.559203 0.614431 0.110016
O O7 0.431798 0.727387 0.175834
O O8 0.689488 0.734029 0.961525
O O9 0.112598 0.040122 0.308021
O O10 0.310384 0.960774 0.154938
O O11 0.119296 0.971444 0.434812
O O12 0.544383 0.534408 0.638999
O O13 0.399996 0.648283 0.804759
O O14 0.703561 0.828024 0.407305
O O15 0.689472 0.837157 0.268683
O O16 0.750000 0.250000 0.000000
#
# Coordination Sequence:
#
# PCOD9302652 Si02
#       8
#     8   8   8   4   8   8   8   8
#     4  11  23  39  66  91 128 172 213 271 326 383
#     4  12  23  42  65  93 129 167 210 267 329 382
#     4  11  22  40  61  92 122 165 217 264 316 385
#     4  12  22  42  62  94 130 162 216 266 328 398
#     4  11  22  39  63  90 127 170 211 268 326 380
#     4  11  23  37  66  92 122 162 214 267 319 379
#     4  11  24  40  63  94 130 170 214 268 334 394
#     4  11  23  40  64  94 127 164 217 267 316 397
#
# _framework density 18.853217000000001
#
# number of rings (size 3 to 8) (size 9 to 14) (size 15 to 20)
#    0.000    0.800    6.000    2.400    0.000    1.067 
#    0.000    0.000    0.000    0.000    1.733    0.000 
#    0.000    0.000    0.000    0.000    0.000    0.000 
#
# Total GULP energy -167333.859465 kJ/mol
# GULP energy per Si atom -5577.795315 kJ/mol
# Density = 1.881031 g / cm^3
# Si number density = 18.853217 Si / 1000 Ang^3
#
#
#
# Elastic Constant Matrix: (Units=GPa)
#
#
# Indices 1 2 3 4 5 6 
#
# 1 44.3636 3.0395 9.6269 0.0000 0.9890 -0.0001
# 2 3.0395 86.4317 16.4410 0.0000 -5.2490 -0.0001
# 3 9.6269 16.4410 74.1532 0.0001 -5.8103 -0.0001
# 4 0.0000 0.0000 0.0001 14.9286 0.0000 2.6119
# 5 0.9890 -5.2490 -5.8103 0.0000 36.8828 0.0000
# 6 -0.0001 -0.0001 -0.0001 2.6119 0.0000 27.5045
#
#
#
# Elastic Compliance Matrix: (Units=1/GPa)
#
#
# Indices 1 2 3 4 5 6 
#
# 1 0.023247 -0.000309 -0.003039 0.000000 -0.001146 0.000000
# 2 -0.000309 0.012147 -0.002548 0.000000 0.001335 0.000000
# 3 -0.003039 -0.002548 0.014603 0.000000 0.002019 0.000000
# 4 0.000000 0.000000 0.000000 0.068117 0.000000 -0.006469
# 5 -0.001146 0.001335 0.002019 0.000000 0.027652 0.000000
# 6 0.000000 0.000000 0.000000 -0.006469 0.000000 0.036972
#
#
# Mechanical properties :
#
#
# Convention : Reuss Voigt Hill
#
# Bulk Modulus (GPa) = 26.17536 29.24037 27.70786
# Shear Modulus (GPa) = 24.12355 27.58592 25.85474
#
# Velocity S-wave (km/s) = 3.58095 3.82932 3.70722
# Velocity P-wave (km/s) = 5.56880 5.92408 5.74919
#
# Compressibility (1/GPa) = 0.03820387
#
# Stress axis : x y z
#
# Youngs Moduli (GPa) = 43.01581 82.32793 68.47714
#
# Poissons Ratio (x) = 0.02544 0.20813
# Poissons Ratio (y) = 0.01329 0.17450
# Poissons Ratio (z) = 0.13074 0.20980
#
# Static dielectric constant tensor:
#      x y z
#    x 1.672260 0.000000 -0.000800 
#    y 0.000000 1.673450 0.000000 
#    z -0.000800 0.000000 1.649850 
# 
# From -- ./inp_files/211732.got.cif
#   From: 2010.05.17/outbox.cif.g08.bks.cpg/sg15_106_cif.got.tgz:211732.got - 2010.06.03 18:47:42.
