data_PCOD9302071
_publ_section_title
;
Structure prediction by ZEFSAII (Michael W. Deem and Ramdas Pophale) SiO2 
 PCOD9302071
Probable space group: C 2/C
;
_chemical_formula_sum "Si O2"
_cell_formula_units_Z 56
_cell_length_a 11.669104
_cell_length_b 14.488065
_cell_length_c 15.709332
_cell_angle_alpha 90.000000
_cell_angle_beta 94.044411
_cell_angle_gamma 90.000000
_cell_volume 2649.248723
_symmetry_space_group_name_H-M "C 2/C"
_symmetry_group_IT_number 15
_symmetry_cell_setting 'monoclinic'
loop_
_space_group_symop_operation_xyz
x,y,z
-x,y,1/2-z
-x,-y,-z
x,-y,1/2+z
1/2+x,1/2+y,z
1/2-x,1/2+y,1/2-z
1/2-x,1/2-y,-z
1/2+x,1/2-y,1/2+z
loop_
_atom_site_type_symbol
_atom_site_label
_atom_site_fract_x
_atom_site_fract_y
_atom_site_fract_z
Si Si1 0.139682 0.810534 0.005273
Si Si2 0.670788 0.479094 0.217599
Si Si3 0.112986 0.152742 0.312296
Si Si4 0.634697 0.486320 0.535547
Si Si5 0.241558 0.830510 0.429967
Si Si6 0.003770 0.805595 0.163383
Si Si7 0.633692 0.161663 0.732355
O O1 0.085713 0.826323 0.909259
O O2 0.250000 0.750000 0.000000
O O3 0.060136 0.773998 0.077526
O O4 0.182308 0.910971 0.034786
O O5 0.661084 0.549571 0.297063
O O6 0.652017 0.543718 0.133903
O O7 0.575498 0.398686 0.193391
O O8 0.789294 0.423636 0.231509
O O9 0.179118 0.242955 0.279084
O O10 0.000000 0.152343 0.250000
O O11 0.500000 0.500000 0.500000
O O12 0.709736 0.422213 0.479886
O O13 0.250000 0.750000 0.500000
O O14 0.345578 0.832221 0.368341
O O15 0.128259 0.820758 0.366110
O O16 0.000000 0.746804 0.250000
O O17 0.500000 0.150799 0.750000
#
# Coordination Sequence:
#
# PCOD9302071 Si02
#       7
#     8   8   8   8   8   8   8
#     4  11  24  40  66 102 140 172 222 288 354 404
#     4  11  21  42  72 101 137 176 231 293 346 399
#     4  11  23  38  71 103 126 177 241 282 331 408
#     4  11  21  41  71 104 131 174 243 292 334 398
#     4  12  25  43  71 104 140 182 231 296 347 411
#     4  11  23  42  69 101 135 178 230 292 349 387
#     4  11  26  44  67  97 147 184 223 278 363 421
#
# _framework density 21.138069000000002
#
# number of rings (size 3 to 8) (size 9 to 14) (size 15 to 20)
#    0.000    0.857    4.286    4.714    4.000    0.000 
#    0.000    0.714   15.714    0.000    0.000    0.000 
#    0.000    0.000    0.000    0.000    0.000    0.000 
#
# Total GULP energy -156127.311764 kJ/mol
# GULP energy per Si atom -5575.975420 kJ/mol
# Density = 2.108996 g / cm^3
# Si number density = 21.138069 Si / 1000 Ang^3
#
#
#
# Elastic Constant Matrix: (Units=GPa)
#
#
# Indices 1 2 3 4 5 6 
#
# 1 113.8341 43.1566 53.3170 0.0000 -19.6273 0.0000
# 2 43.1566 81.6143 29.0665 0.0000 -9.0263 0.0000
# 3 53.3170 29.0665 189.0710 0.0000 -24.9239 0.0000
# 4 0.0000 0.0000 0.0000 27.4525 0.0000 1.4238
# 5 -19.6273 -9.0263 -24.9239 0.0000 42.1009 0.0000
# 6 0.0000 0.0000 0.0000 1.4238 0.0000 24.2304
#
#
#
# Elastic Compliance Matrix: (Units=1/GPa)
#
#
# Indices 1 2 3 4 5 6 
#
# 1 0.012465 -0.005425 -0.002243 0.000000 0.003320 0.000000
# 2 -0.005425 0.015441 -0.000804 0.000000 0.000306 0.000000
# 3 -0.002243 -0.000804 0.006383 0.000000 0.002560 0.000000
# 4 0.000000 0.000000 0.000000 0.036538 0.000000 -0.002147
# 5 0.003320 0.000306 0.002560 0.000000 0.026881 0.000000
# 6 0.000000 0.000000 0.000000 -0.002147 0.000000 0.041397
#
#
# Mechanical properties :
#
#
# Convention : Reuss Voigt Hill
#
# Bulk Modulus (GPa) = 57.65477 70.62218 64.13847
# Shear Modulus (GPa) = 30.89654 36.02204 33.45929
#
# Velocity S-wave (km/s) = 3.82731 4.13259 3.98287
# Velocity P-wave (km/s) = 6.84584 7.50024 7.18050
#
# Compressibility (1/GPa) = 0.01734462
#
# Stress axis : x y z
#
# Youngs Moduli (GPa) = 80.22773 64.76063 156.67330
#
# Poissons Ratio (x) = 0.35132 0.35147
# Poissons Ratio (y) = 0.43523 0.12593
# Poissons Ratio (z) = 0.17998 0.05205
#
# Static dielectric constant tensor:
#      x y z
#    x 1.764210 0.000000 -0.073250 
#    y 0.000000 1.871210 0.000000 
#    z -0.073250 0.000000 1.984350 
# 
# From -- ./inp_files/144222.got.cif
#   From: 2010.05.17/outbox.cif.g08.bks.cpg/sg15_73_cif.got.tgz:144222.got - 2010.06.03 18:47:42.
