data_PCOD9302145
_publ_section_title
;
Structure prediction by ZEFSAII (Michael W. Deem and Ramdas Pophale) SiO2 
 PCOD9302145
Probable space group: C 2/C
;
_chemical_formula_sum "Si O2"
_cell_formula_units_Z 40
_cell_length_a 9.801312
_cell_length_b 20.787367
_cell_length_c 10.300903
_cell_angle_alpha 90.000000
_cell_angle_beta 128.837215
_cell_angle_gamma 90.000000
_cell_volume 1634.774578
_symmetry_space_group_name_H-M "C 2/C"
_symmetry_group_IT_number 15
_symmetry_cell_setting 'monoclinic'
loop_
_space_group_symop_operation_xyz
x,y,z
-x,y,1/2-z
-x,-y,-z
x,-y,1/2+z
1/2+x,1/2+y,z
1/2-x,1/2+y,1/2-z
1/2-x,1/2-y,-z
1/2+x,1/2-y,1/2+z
loop_
_atom_site_type_symbol
_atom_site_label
_atom_site_fract_x
_atom_site_fract_y
_atom_site_fract_z
Si Si1 0.984021 0.167259 0.472110
Si Si2 0.667468 0.177914 0.443257
Si Si3 0.036457 0.440308 0.616448
Si Si4 0.824507 0.273822 0.183347
Si Si5 0.445587 0.542864 0.348325
O O1 0.837640 0.143563 0.484427
O O2 0.892193 0.218628 0.321074
O O3 0.053032 0.108990 0.426503
O O4 0.154207 0.194887 0.644692
O O5 0.500000 0.187202 0.250000
O O6 0.750000 0.250000 0.500000
O O7 0.576086 0.124815 0.484468
O O8 0.245159 0.434352 0.725572
O O9 0.000000 0.452745 0.750000
O O10 0.000000 0.500000 0.500000
O O11 0.000000 0.312458 0.250000
O O12 0.750000 0.250000 0.000000
O O13 0.500000 0.508265 0.250000
O O14 0.500000 0.500000 0.500000
#
# Coordination Sequence:
#
# PCOD9302145 Si02
#       5
#     8   8   8   8   8
#     4  11  21  42  69 103 146 194 251 320 394 468
#     4  11  23  45  75 108 152 203 256 330 404 474
#     4  11  24  51  80 112 156 207 271 332 395 477
#     4   9  19  37  65 100 144 187 239 303 390 463
#     4  12  26  47  74 107 150 203 262 328 389 468
#
# _framework density 24.468205999999999
#
# number of rings (size 3 to 8) (size 9 to 14) (size 15 to 20)
#    0.000    1.200    4.000    4.200    0.000    0.000 
#    7.200    1.000    0.000    0.000    0.000    0.000 
#    0.000    0.000    0.000    0.000    0.000    0.000 
#
# Total GULP energy -111455.973716 kJ/mol
# GULP energy per Si atom -5572.798686 kJ/mol
# Density = 2.441252 g / cm^3
# Si number density = 24.468206 Si / 1000 Ang^3
#
#
#
# Elastic Constant Matrix: (Units=GPa)
#
#
# Indices 1 2 3 4 5 6 
#
# 1 152.9081 24.9765 53.1340 0.0000 19.0768 0.0000
# 2 24.9765 139.0749 59.4602 0.0000 1.9011 0.0000
# 3 53.1340 59.4602 93.3887 0.0000 23.8671 0.0000
# 4 0.0000 0.0000 0.0000 48.1183 0.0000 -5.3307
# 5 19.0768 1.9011 23.8671 0.0000 54.5174 0.0000
# 6 0.0000 0.0000 0.0000 -5.3307 0.0000 31.7431
#
#
#
# Elastic Compliance Matrix: (Units=1/GPa)
#
#
# Indices 1 2 3 4 5 6 
#
# 1 0.008230 0.000620 -0.004882 0.000000 -0.000764 0.000000
# 2 0.000620 0.010296 -0.007613 0.000000 0.002757 0.000000
# 3 -0.004882 -0.007613 0.020074 0.000000 -0.006814 0.000000
# 4 0.000000 0.000000 0.000000 0.021176 0.000000 0.003556
# 5 -0.000764 0.002757 -0.006814 0.000000 0.021497 0.000000
# 6 0.000000 0.000000 0.000000 0.003556 0.000000 0.032100
#
#
# Mechanical properties :
#
#
# Convention : Reuss Voigt Hill
#
# Bulk Modulus (GPa) = 67.33675 73.39035 70.36355
# Shear Modulus (GPa) = 35.19293 43.39582 39.29437
#
# Velocity S-wave (km/s) = 3.79662 4.21593 4.01176
# Velocity P-wave (km/s) = 6.84098 7.33199 7.09074
#
# Compressibility (1/GPa) = 0.01485073
#
# Stress axis : x y z
#
# Youngs Moduli (GPa) = 121.50014 97.12425 49.81589
#
# Poissons Ratio (x) = -0.06017 0.24319
# Poissons Ratio (y) = -0.07527 0.37923
# Poissons Ratio (z) = 0.59315 0.73936
#
# Static dielectric constant tensor:
#      x y z
#    x 2.105740 0.000000 -0.049910 
#    y 0.000000 2.166360 0.000000 
#    z -0.049910 0.000000 1.852760 
# 
# From -- ./inp_files/89868.got.cif
#   From: 2010.05.17/outbox.cif.g08.bks.cpg/sg15_45_cif.got.tgz:89868.got - 2010.06.03 18:47:42.
