data_PCOD9302939
_publ_section_title
;
Structure prediction by ZEFSAII (Michael W. Deem and Ramdas Pophale) SiO2 
 PCOD9302939
Probable space group: C 2/C
;
_chemical_formula_sum "Si O2"
_cell_formula_units_Z 56
_cell_length_a 8.642172
_cell_length_b 23.035997
_cell_length_c 14.581484
_cell_angle_alpha 90.000000
_cell_angle_beta 117.177339
_cell_angle_gamma 90.000000
_cell_volume 2582.408831
_symmetry_space_group_name_H-M "C 2/C"
_symmetry_group_IT_number 15
_symmetry_cell_setting 'monoclinic'
loop_
_space_group_symop_operation_xyz
x,y,z
-x,y,1/2-z
-x,-y,-z
x,-y,1/2+z
1/2+x,1/2+y,z
1/2-x,1/2+y,1/2-z
1/2-x,1/2-y,-z
1/2+x,1/2-y,1/2+z
loop_
_atom_site_type_symbol
_atom_site_label
_atom_site_fract_x
_atom_site_fract_y
_atom_site_fract_z
Si Si1 0.833713 0.377642 0.809723
Si Si2 0.221831 0.356264 0.913078
Si Si3 0.195525 0.411416 0.317620
Si Si4 0.795083 0.999438 0.189560
Si Si5 0.152881 0.212000 0.356667
Si Si6 0.427383 0.695656 0.952265
Si Si7 0.199169 0.988741 0.524278
O O1 0.786755 0.348959 0.699361
O O2 0.817232 0.446984 0.801217
O O3 0.696125 0.354297 0.844435
O O4 0.023128 0.355979 0.891242
O O5 0.366444 0.316407 0.000666
O O6 0.273536 0.422893 0.939919
O O7 0.261840 0.442362 0.242109
O O8 0.325013 0.361896 0.390305
O O9 0.191279 0.463507 0.390841
O O10 0.000000 0.388778 0.250000
O O11 0.760475 0.992704 0.072456
O O12 0.000000 0.013803 0.250000
O O13 0.322426 0.250833 0.380304
O O14 0.099819 0.209975 0.447691
O O15 0.000000 0.233184 0.250000
O O16 0.000000 0.000000 0.500000
#
# Coordination Sequence:
#
# PCOD9302939 Si02
#       7
#     8   8   8   8   8   8   8
#     4  11  23  38  67  95 129 174 220 275 323 401
#     4  11  22  41  62  96 133 167 219 272 336 390
#     4  12  25  42  63 100 144 175 220 289 340 397
#     4  12  23  39  68  99 134 184 226 270 342 405
#     4  11  23  43  71  99 124 174 233 275 333 409
#     4  11  24  43  69  95 133 174 219 284 339 400
#     4  12  22  40  66  95 135 180 221 274 336 406
#
# _framework density 21.685179999999999
#
# number of rings (size 3 to 8) (size 9 to 14) (size 15 to 20)
#    0.000    0.571    5.714    2.571    0.000    4.000 
#    0.000    0.000    9.429    0.000    0.000    0.000 
#    0.000    0.000    0.000    0.000    0.000    0.000 
#
# Total GULP energy -156404.343060 kJ/mol
# GULP energy per Si atom -5585.869395 kJ/mol
# Density = 2.163582 g / cm^3
# Si number density = 21.685180 Si / 1000 Ang^3
#
#
#
# Elastic Constant Matrix: (Units=GPa)
#
#
# Indices 1 2 3 4 5 6 
#
# 1 82.6167 24.0554 43.8307 0.0000 29.9065 0.0000
# 2 24.0554 83.9763 22.9934 0.0000 14.1414 0.0000
# 3 43.8307 22.9934 107.3087 0.0000 11.5107 0.0000
# 4 0.0000 0.0000 0.0000 19.5526 0.0000 3.1082
# 5 29.9065 14.1414 11.5107 0.0000 48.7436 0.0000
# 6 0.0000 0.0000 0.0000 3.1082 0.0000 14.7324
#
#
#
# Elastic Compliance Matrix: (Units=1/GPa)
#
#
# Indices 1 2 3 4 5 6 
#
# 1 0.019841 -0.002206 -0.006561 0.000000 -0.009984 0.000000
# 2 -0.002206 0.013372 -0.001737 0.000000 -0.002116 0.000000
# 3 -0.006561 -0.001737 0.012194 0.000000 0.001650 0.000000
# 4 0.000000 0.000000 0.000000 0.052919 0.000000 -0.011165
# 5 -0.009984 -0.002116 0.001650 0.000000 0.026866 0.000000
# 6 0.000000 0.000000 0.000000 -0.011165 0.000000 0.070233
#
#
# Mechanical properties :
#
#
# Convention : Reuss Voigt Hill
#
# Bulk Modulus (GPa) = 40.98442 50.62896 45.80669
# Shear Modulus (GPa) = 22.26526 28.80721 25.53623
#
# Velocity S-wave (km/s) = 3.20777 3.64872 3.43532
# Velocity P-wave (km/s) = 5.71494 6.41473 6.07492
#
# Compressibility (1/GPa) = 0.02439951
#
# Stress axis : x y z
#
# Youngs Moduli (GPa) = 50.40023 74.78315 82.00828
#
# Poissons Ratio (x) = 0.16497 0.53802
# Poissons Ratio (y) = 0.11118 0.14247
# Poissons Ratio (z) = 0.33065 0.12992
#
# Static dielectric constant tensor:
#      x y z
#    x 1.894330 0.000000 -0.051600 
#    y 0.000000 1.767010 0.000000 
#    z -0.051600 0.000000 1.925120 
# 
# From -- ./inp_files/137934.got.cif
#   From: 2010.05.17/outbox.cif.g08.bks.cpg/sg15_69_cif.got.tgz:137934.got - 2010.06.03 18:47:42.
