data_PCOD9302084
_publ_section_title
;
Structure prediction by ZEFSAII (Michael W. Deem and Ramdas Pophale) SiO2 
 PCOD9302084
Probable space group: C 2/C
;
_chemical_formula_sum "Si O2"
_cell_formula_units_Z 56
_cell_length_a 12.764796
_cell_length_b 13.810455
_cell_length_c 14.498747
_cell_angle_alpha 90.000000
_cell_angle_beta 98.473838
_cell_angle_gamma 90.000000
_cell_volume 2528.047241
_symmetry_space_group_name_H-M "C 2/C"
_symmetry_group_IT_number 15
_symmetry_cell_setting 'monoclinic'
loop_
_space_group_symop_operation_xyz
x,y,z
-x,y,1/2-z
-x,-y,-z
x,-y,1/2+z
1/2+x,1/2+y,z
1/2-x,1/2+y,1/2-z
1/2-x,1/2-y,-z
1/2+x,1/2-y,1/2+z
loop_
_atom_site_type_symbol
_atom_site_label
_atom_site_fract_x
_atom_site_fract_y
_atom_site_fract_z
Si Si1 0.205319 0.616068 0.133147
Si Si2 0.093226 0.209796 0.832571
Si Si3 0.167039 0.166842 0.023646
Si Si4 0.287792 0.967684 0.056203
Si Si5 0.887008 0.220172 0.275587
Si Si6 0.781392 0.591064 0.764203
Si Si7 0.027677 0.584179 0.352820
O O1 0.289805 0.681870 0.198531
O O2 0.211489 0.509003 0.179821
O O3 0.079049 0.635129 0.124873
O O4 0.228491 0.607815 0.027725
O O5 0.192635 0.154588 0.803491
O O6 0.105987 0.326258 0.839588
O O7 0.000000 0.190275 0.750000
O O8 0.076274 0.174113 0.934393
O O9 0.219820 0.062399 0.024585
O O10 0.129337 0.184168 0.122263
O O11 0.250000 0.250000 0.000000
O O12 0.409324 0.007892 0.077563
O O13 0.259301 0.931182 0.154347
O O14 0.880739 0.336701 0.279376
O O15 0.000000 0.188450 0.250000
O O16 0.000000 0.539288 0.250000
#
# Coordination Sequence:
#
# PCOD9302084 Si02
#       7
#     8   8   8   8   8   8   8
#     4  12  26  47  72 107 147 184 245 303 362 440
#     4  11  24  42  75 105 138 188 250 294 346 434
#     4  12  21  47  75 104 142 196 247 290 364 445
#     4  12  24  42  75 107 141 190 239 306 366 427
#     4  12  28  47  72 108 153 192 233 308 377 431
#     4  12  25  46  72 104 145 188 245 295 364 430
#     4  11  21  41  73 108 137 179 243 304 354 419
#
# _framework density 22.151485999999998
#
# number of rings (size 3 to 8) (size 9 to 14) (size 15 to 20)
#    0.000    0.286    7.143    2.143    2.000    3.429 
#    0.000    1.429    0.000    0.000    0.000    0.000 
#    0.000    0.000    0.000    0.000    0.000    0.000 
#
# Total GULP energy -156514.877178 kJ/mol
# GULP energy per Si atom -5589.817042 kJ/mol
# Density = 2.210107 g / cm^3
# Si number density = 22.151486 Si / 1000 Ang^3
#
#
#
# Elastic Constant Matrix: (Units=GPa)
#
#
# Indices 1 2 3 4 5 6 
#
# 1 66.6047 14.3300 19.4751 0.0000 -2.5402 0.0000
# 2 14.3300 53.3818 1.0712 0.0000 -2.3843 0.0000
# 3 19.4751 1.0712 155.4827 0.0000 6.6399 0.0000
# 4 0.0000 0.0000 0.0000 41.8398 0.0000 5.0908
# 5 -2.5402 -2.3843 6.6399 0.0000 40.5355 0.0000
# 6 0.0000 0.0000 0.0000 5.0908 0.0000 25.0071
#
#
#
# Elastic Compliance Matrix: (Units=1/GPa)
#
#
# Indices 1 2 3 4 5 6 
#
# 1 0.016610 -0.004366 -0.002099 0.000000 0.001128 0.000000
# 2 -0.004366 0.019935 0.000374 0.000000 0.000838 0.000000
# 3 -0.002099 0.000374 0.006744 0.000000 -0.001214 0.000000
# 4 0.000000 0.000000 0.000000 0.024508 0.000000 -0.004989
# 5 0.001128 0.000838 -0.001214 0.000000 0.024989 0.000000
# 6 0.000000 0.000000 0.000000 -0.004989 0.000000 0.041004
#
#
# Mechanical properties :
#
#
# Convention : Reuss Voigt Hill
#
# Bulk Modulus (GPa) = 32.14767 38.35798 35.25282
# Shear Modulus (GPa) = 31.98147 37.51600 34.74874
#
# Velocity S-wave (km/s) = 3.80381 4.11982 3.96496
# Velocity P-wave (km/s) = 5.81688 6.32331 6.07538
#
# Compressibility (1/GPa) = 0.03110646
#
# Stress axis : x y z
#
# Youngs Moduli (GPa) = 60.20460 50.16298 148.28613
#
# Poissons Ratio (x) = 0.21903 0.31119
# Poissons Ratio (y) = 0.26288 -0.05543
# Poissons Ratio (z) = 0.12634 -0.01875
#
# Static dielectric constant tensor:
#      x y z
#    x 1.893620 0.000000 0.015700 
#    y 0.000000 1.809790 0.000000 
#    z 0.015700 0.000000 1.837030 
# 
# From -- ./inp_files/144260.got.cif
#   From: 2010.05.17/outbox.cif.g08.bks.cpg/sg15_73_cif.got.tgz:144260.got - 2010.06.03 18:47:42.
