data_PCOD9302108
_publ_section_title
;
Structure prediction by ZEFSAII (Michael W. Deem and Ramdas Pophale) SiO2 
 PCOD9302108
Probable space group: C 2/C
;
_chemical_formula_sum "Si O2"
_cell_formula_units_Z 56
_cell_length_a 8.026400
_cell_length_b 22.076226
_cell_length_c 17.986373
_cell_angle_alpha 90.000000
_cell_angle_beta 53.717615
_cell_angle_gamma 90.000000
_cell_volume 2569.115746
_symmetry_space_group_name_H-M "C 2/C"
_symmetry_group_IT_number 15
_symmetry_cell_setting 'monoclinic'
loop_
_space_group_symop_operation_xyz
x,y,z
-x,y,1/2-z
-x,-y,-z
x,-y,1/2+z
1/2+x,1/2+y,z
1/2-x,1/2+y,1/2-z
1/2-x,1/2-y,-z
1/2+x,1/2-y,1/2+z
loop_
_atom_site_type_symbol
_atom_site_label
_atom_site_fract_x
_atom_site_fract_y
_atom_site_fract_z
Si Si1 0.638530 0.424516 0.965734
Si Si2 0.000000 0.361460 0.250000
Si Si3 0.169449 0.539399 0.590942
Si Si4 0.178110 0.240458 0.786449
Si Si5 0.124091 0.309547 0.952144
Si Si6 0.164139 0.580048 0.927846
Si Si7 0.500000 0.645358 0.750000
Si Si8 0.433729 0.302335 0.593000
O O1 0.403520 0.442506 0.007395
O O2 0.687242 0.434331 0.041057
O O3 0.795520 0.472026 0.885723
O O4 0.654475 0.355277 0.935769
O O5 0.102966 0.406472 0.163483
O O6 0.156095 0.313296 0.244289
O O7 0.999555 0.536260 0.570465
O O8 0.144049 0.283292 0.864587
O O9 0.264901 0.280926 0.696943
O O10 0.990385 0.195180 0.818874
O O11 0.355608 0.322620 0.920566
O O12 0.983748 0.367632 0.001000
O O13 0.015731 0.255520 0.026347
O O14 0.310432 0.602835 0.821749
#
# Coordination Sequence:
#
# PCOD9302108 Si02
#       8
#     8   4   8   8   8   8   4   8
#     4  11  26  43  69  98 134 184 232 284 352 416
#     4  12  20  44  71  96 127 182 240 280 336 414
#     4  11  24  47  70  93 134 183 237 289 341 411
#     4  12  24  38  67 105 138 180 228 290 356 424
#     4  11  22  39  69 100 139 185 218 287 364 414
#     4  12  24  44  70 103 136 181 232 293 346 421
#     4  12  24  38  63 106 137 172 238 292 340 428
#     4  11  21  42  65 101 141 179 227 281 358 423
#
# _framework density 21.797381999999999
#
# number of rings (size 3 to 8) (size 9 to 14) (size 15 to 20)
#    0.000    0.571    5.714    3.000    2.000    1.143 
#    2.571    0.000    0.000    0.000    0.000    0.000 
#    0.000    0.000    0.000    0.000    0.000    0.000 
#
# Total GULP energy -156187.607583 kJ/mol
# GULP energy per Si atom -5578.128842 kJ/mol
# Density = 2.174777 g / cm^3
# Si number density = 21.797382 Si / 1000 Ang^3
#
#
#
# Elastic Constant Matrix: (Units=GPa)
#
#
# Indices 1 2 3 4 5 6 
#
# 1 93.8462 9.8022 18.2172 0.0000 -10.2323 0.0000
# 2 9.8022 35.1873 5.2959 0.0000 -6.4241 0.0000
# 3 18.2172 5.2959 83.2730 0.0000 -5.8969 0.0000
# 4 0.0000 0.0000 0.0000 -11.7850 0.0000 -6.8206
# 5 -10.2323 -6.4241 -5.8969 0.0000 24.8156 0.0000
# 6 0.0000 0.0000 0.0000 -6.8206 0.0000 49.6925
#
#
#
# Elastic Compliance Matrix: (Units=1/GPa)
#
#
# Indices 1 2 3 4 5 6 
#
# 1 0.011717 -0.002258 -0.002155 0.000000 0.003735 0.000000
# 2 -0.002258 0.030419 -0.000965 0.000000 0.006714 0.000000
# 3 -0.002155 -0.000965 0.012674 0.000000 0.001873 0.000000
# 4 0.000000 0.000000 0.000000 -0.078609 0.000000 -0.010790
# 5 0.003735 0.006714 0.001873 0.000000 0.044021 0.000000
# 6 0.000000 0.000000 0.000000 -0.010790 0.000000 0.018643
#
#
# Mechanical properties :
#
#
# Convention : Reuss Voigt Hill
#
# Bulk Modulus (GPa) = 22.69923 30.99298 26.84611
# Shear Modulus (GPa) = 77.75249 24.47734 51.11492
#
# Velocity S-wave (km/s) = 5.97896 3.35468 4.84778
# Velocity P-wave (km/s) = 7.62236 5.40876 6.60890
#
# Compressibility (1/GPa) = 0.04405435
#
# Stress axis : x y z
#
# Youngs Moduli (GPa) = 85.34503 32.87370 78.90033
#
# Poissons Ratio (x) = 0.07422 0.17005
# Poissons Ratio (y) = 0.19270 0.07615
# Poissons Ratio (z) = 0.18394 0.03173
#
# Static dielectric constant tensor:
#      x y z
#    x 2.087390 0.000000 0.062240 
#    y 0.000000 1.821720 0.000000 
#    z 0.062240 0.000000 1.726150 
# 
# From -- ./inp_files/233814.got.cif
#   From: 2010.05.17/outbox.cif.g08.bks.cpg/sg15_117_cif.got.tgz:233814.got - 2010.06.03 18:47:42.
