data_PCOD9302178
_publ_section_title
;
Structure prediction by ZEFSAII (Michael W. Deem and Ramdas Pophale) SiO2 
 PCOD9302178
Probable space group: C 2/C
;
_chemical_formula_sum "Si O2"
_cell_formula_units_Z 44
_cell_length_a 9.462286
_cell_length_b 10.587807
_cell_length_c 20.644589
_cell_angle_alpha 90.000000
_cell_angle_beta 127.029419
_cell_angle_gamma 90.000000
_cell_volume 1651.158703
_symmetry_space_group_name_H-M "C 2/C"
_symmetry_group_IT_number 15
_symmetry_cell_setting 'monoclinic'
loop_
_space_group_symop_operation_xyz
x,y,z
-x,y,1/2-z
-x,-y,-z
x,-y,1/2+z
1/2+x,1/2+y,z
1/2-x,1/2+y,1/2-z
1/2-x,1/2-y,-z
1/2+x,1/2-y,1/2+z
loop_
_atom_site_type_symbol
_atom_site_label
_atom_site_fract_x
_atom_site_fract_y
_atom_site_fract_z
Si Si1 0.844298 0.488849 0.603065
Si Si2 0.820642 0.744242 0.412021
Si Si3 0.888862 0.106147 0.566834
Si Si4 0.093574 0.632960 0.591332
Si Si5 0.500000 0.390209 0.750000
Si Si6 0.655091 0.598056 0.164918
O O1 0.750993 0.626243 0.576406
O O2 0.734067 0.387633 0.530566
O O3 0.825405 0.445582 0.671711
O O4 0.025106 0.517161 0.615739
O O5 0.646732 0.683911 0.332658
O O6 0.959201 0.788905 0.394995
O O7 0.934528 0.667311 0.496580
O O8 0.765937 0.105047 0.595697
O O9 0.991970 0.974503 0.586436
O O10 0.134266 0.753092 0.648031
O O11 0.376898 0.450717 0.771270
#
# Coordination Sequence:
#
# PCOD9302178 Si02
#       6
#     8   8   8   8   4   8
#     4  11  21  42  74 105 133 178 235 295 346 417
#     4  11  22  43  73 102 145 189 231 289 362 420
#     4  11  23  43  76 112 137 173 247 305 345 414
#     4  12  22  44  80 106 138 180 238 300 354 407
#     4  12  26  46  70  94 152 206 222 294 376 418
#     4  11  24  47  68 101 143 185 236 294 349 421
#
# _framework density 26.647956000000001
#
# number of rings (size 3 to 8) (size 9 to 14) (size 15 to 20)
#    0.000    0.727    5.455    3.818    0.000    0.000 
#    6.545    3.636    0.000    0.000    0.000    0.000 
#    0.000    0.000    0.000    0.000    0.000    0.000 
#
# Total GULP energy -123185.108055 kJ/mol
# GULP energy per Si atom -5599.323093 kJ/mol
# Density = 2.658730 g / cm^3
# Si number density = 26.647956 Si / 1000 Ang^3
#
#
#
# Elastic Constant Matrix: (Units=GPa)
#
#
# Indices 1 2 3 4 5 6 
#
# 1 253.3881 28.8560 57.8885 0.0000 -26.8398 0.0000
# 2 28.8560 64.9452 8.2740 0.0000 10.8948 0.0000
# 3 57.8885 8.2740 83.3202 0.0000 12.2330 0.0000
# 4 0.0000 0.0000 0.0000 -0.4178 0.0000 -11.4747
# 5 -26.8398 10.8948 12.2330 0.0000 57.9932 0.0000
# 6 0.0000 0.0000 0.0000 -11.4747 0.0000 49.2807
#
#
#
# Elastic Compliance Matrix: (Units=1/GPa)
#
#
# Indices 1 2 3 4 5 6 
#
# 1 0.005640 -0.002636 -0.004244 0.000000 0.004001 0.000000
# 2 -0.002636 0.017244 0.000799 0.000000 -0.004628 0.000000
# 3 -0.004244 0.000799 0.015667 0.000000 -0.005419 0.000000
# 4 0.000000 0.000000 0.000000 -0.323659 0.000000 -0.075362
# 5 0.004001 -0.004628 -0.005419 0.000000 0.021108 0.000000
# 6 0.000000 0.000000 0.000000 -0.075362 0.000000 0.002744
#
#
# Mechanical properties :
#
#
# Convention : Reuss Voigt Hill
#
# Bulk Modulus (GPa) = 37.89726 65.74341 51.82033
# Shear Modulus (GPa) = -20.80754 41.81353 10.50300
#
# Velocity S-wave (km/s) = -2.79737 3.96549 1.98745
# Velocity P-wave (km/s) = 1.95414 6.75955 4.97545
#
# Compressibility (1/GPa) = 0.02638713
#
# Stress axis : x y z
#
# Youngs Moduli (GPa) = 177.29953 57.99251 63.82859
#
# Poissons Ratio (x) = 0.15289 0.27090
# Poissons Ratio (y) = 0.46744 -0.05099
# Poissons Ratio (z) = 0.75250 -0.04633
#
# Static dielectric constant tensor:
#      x y z
#    x 2.122980 0.000000 -0.046890 
#    y 0.000000 2.098570 0.000000 
#    z -0.046890 0.000000 2.076620 
# 
# From -- ./inp_files/263613.got.cif
#   From: 2010.05.17/outbox.cif.g08.bks.cpg/sg15_132_cif.got.tgz:263613.got - 2010.06.03 18:47:42.
