data_PCOD9302471
_publ_section_title
;
Structure prediction by ZEFSAII (Michael W. Deem and Ramdas Pophale) SiO2 
 PCOD9302471
Probable space group: C 2/C
;
_chemical_formula_sum "Si O2"
_cell_formula_units_Z 44
_cell_length_a 15.053595
_cell_length_b 22.238545
_cell_length_c 13.993047
_cell_angle_alpha 90.000000
_cell_angle_beta 31.085109
_cell_angle_gamma 90.000000
_cell_volume 2418.633558
_symmetry_space_group_name_H-M "C 2/C"
_symmetry_group_IT_number 15
_symmetry_cell_setting 'monoclinic'
loop_
_space_group_symop_operation_xyz
x,y,z
-x,y,1/2-z
-x,-y,-z
x,-y,1/2+z
1/2+x,1/2+y,z
1/2-x,1/2+y,1/2-z
1/2-x,1/2-y,-z
1/2+x,1/2-y,1/2+z
loop_
_atom_site_type_symbol
_atom_site_label
_atom_site_fract_x
_atom_site_fract_y
_atom_site_fract_z
Si Si1 0.500000 0.982475 0.750000
Si Si2 0.115413 0.973733 0.046831
Si Si3 0.947735 0.198270 0.409851
Si Si4 0.413104 0.949676 0.516353
Si Si5 0.945475 0.332626 0.192812
Si Si6 0.534414 0.419471 0.926830
O O1 0.682800 0.954499 0.621966
O O2 0.577502 0.023752 0.597105
O O3 0.000000 0.973687 0.250000
O O4 0.025039 0.932070 0.048691
O O5 0.102622 0.040655 0.008692
O O6 0.753543 0.180965 0.610957
O O7 0.000000 0.189899 0.250000
O O8 0.970479 0.268546 0.410195
O O9 0.043882 0.149640 0.386054
O O10 0.505605 0.885065 0.425436
O O11 0.218526 0.944846 0.727452
O O12 0.500000 0.000000 0.500000
O O13 0.000000 0.349674 0.250000
#
# Coordination Sequence:
#
# PCOD9302471 Si02
#       6
#     4   8   8   8   8   8
#     4  12  22  38  56  86 122 162 196 252 296 358
#     4  11  23  38  58  85 122 161 204 252 305 358
#     4  11  22  37  59  87 123 160 198 248 305 372
#     4  12  23  37  60  90 125 161 203 247 306 361
#     4  11  22  37  58  88 120 163 199 245 307 366
#     4  11  23  37  57  88 121 159 205 250 303 367
#
# _framework density 18.192091000000001
#
# number of rings (size 3 to 8) (size 9 to 14) (size 15 to 20)
#    0.000    0.727    4.545    6.000    2.545    0.000 
#    0.000    0.000    0.000    0.000    2.364    3.818 
#    0.000    0.000    0.000    0.000    0.000    0.000 
#
# Total GULP energy -122650.156602 kJ/mol
# GULP energy per Si atom -5575.007118 kJ/mol
# Density = 1.815069 g / cm^3
# Si number density = 18.192091 Si / 1000 Ang^3
#
#
#
# Elastic Constant Matrix: (Units=GPa)
#
#
# Indices 1 2 3 4 5 6 
#
# 1 87.0796 46.0303 28.8274 0.0023 9.6830 -0.0001
# 2 46.0303 119.0910 11.4265 0.0009 8.7004 -0.0009
# 3 28.8274 11.4265 87.3766 -0.0044 -7.4785 0.0014
# 4 0.0023 0.0009 -0.0044 30.6487 0.0039 1.5252
# 5 9.6830 8.7004 -7.4785 0.0039 39.9629 -0.0007
# 6 -0.0001 -0.0009 0.0014 1.5252 -0.0007 28.9651
#
#
#
# Elastic Compliance Matrix: (Units=1/GPa)
#
#
# Indices 1 2 3 4 5 6 
#
# 1 0.016548 -0.005640 -0.005041 -0.000001 -0.003725 0.000000
# 2 -0.005640 0.010602 0.000400 0.000000 -0.000867 0.000000
# 3 -0.005041 0.000400 0.013367 0.000002 0.003636 -0.000001
# 4 -0.000001 0.000000 0.000002 0.032714 -0.000003 -0.001723
# 5 -0.003725 -0.000867 0.003636 -0.000003 0.026795 0.000001
# 6 0.000000 0.000000 -0.000001 -0.001723 0.000001 0.034615
#
#
# Mechanical properties :
#
#
# Convention : Reuss Voigt Hill
#
# Bulk Modulus (GPa) = 50.11293 51.79063 50.95178
# Shear Modulus (GPa) = 30.89217 33.73289 32.31253
#
# Velocity S-wave (km/s) = 4.12528 4.31079 4.21905
# Velocity P-wave (km/s) = 7.09204 7.30121 7.19738
#
# Compressibility (1/GPa) = 0.01995493
#
# Stress axis : x y z
#
# Youngs Moduli (GPa) = 60.42970 94.32269 74.81331
#
# Poissons Ratio (x) = 0.53201 0.37712
# Poissons Ratio (y) = 0.34084 -0.02994
# Poissons Ratio (z) = 0.30461 -0.03775
#
# Static dielectric constant tensor:
#      x y z
#    x 0.365380 0.000020 0.520350 
#    y 0.000020 1.699260 0.000000 
#    z 0.520350 0.000000 1.400880 
# 
# From -- ./inp_files/156131.got.cif
#   From: 2010.05.17/outbox.cif.g08.bks.cpg/sg15_79_cif.got.tgz:156131.got - 2010.06.03 18:47:42.
