data_PCOD9302599
_publ_section_title
;
Structure prediction by ZEFSAII (Michael W. Deem and Ramdas Pophale) SiO2 
 PCOD9302599
Probable space group: C 2/C
;
_chemical_formula_sum "Si O2"
_cell_formula_units_Z 44
_cell_length_a 18.313633
_cell_length_b 13.320371
_cell_length_c 9.045861
_cell_angle_alpha 90.000000
_cell_angle_beta 78.405286
_cell_angle_gamma 90.000000
_cell_volume 2161.656903
_symmetry_space_group_name_H-M "C 2/C"
_symmetry_group_IT_number 15
_symmetry_cell_setting 'monoclinic'
loop_
_space_group_symop_operation_xyz
x,y,z
-x,y,1/2-z
-x,-y,-z
x,-y,1/2+z
1/2+x,1/2+y,z
1/2-x,1/2+y,1/2-z
1/2-x,1/2-y,-z
1/2+x,1/2-y,1/2+z
loop_
_atom_site_type_symbol
_atom_site_label
_atom_site_fract_x
_atom_site_fract_y
_atom_site_fract_z
Si Si1 0.310305 0.416670 0.657492
Si Si2 0.351385 0.614092 0.797514
Si Si3 0.781598 0.282396 0.330920
Si Si4 0.056037 0.574569 0.059095
Si Si5 0.348710 0.979140 0.243271
Si Si6 0.500000 0.256710 0.250000
O O1 0.356265 0.507291 0.712317
O O2 0.328882 0.405043 0.477247
O O3 0.320459 0.310807 0.734863
O O4 0.224456 0.451713 0.720992
O O5 0.285000 0.676626 0.746280
O O6 0.427566 0.675662 0.752534
O O7 0.750000 0.250000 0.500000
O O8 0.833405 0.377984 0.340140
O O9 0.084472 0.537500 0.206453
O O10 0.022000 0.683928 0.103182
O O11 0.129252 0.564057 0.925816
O O12 0.000000 0.500000 0.000000
#
# Coordination Sequence:
#
# PCOD9302599 Si02
#       6
#     8   8   8   8   8   4
#     4  11  22  44  67  98 134 171 237 283 339 396
#     4  11  25  43  67 100 133 186 224 280 342 401
#     4  11  22  38  68 100 129 170 228 287 338 394
#     4  12  23  41  62  96 131 170 214 270 341 404
#     4  11  22  39  66  94 127 166 217 285 329 381
#     4  12  26  44  68  92 148 180 226 266 340 428
#
# _framework density 20.354756999999999
#
# number of rings (size 3 to 8) (size 9 to 14) (size 15 to 20)
#    0.000    0.727    1.818    8.182    2.545    0.727 
#    0.000    0.000    0.000    0.000    0.000    0.000 
#    0.000    0.000    0.000    0.000    0.000    0.000 
#
# Total GULP energy -122930.966711 kJ/mol
# GULP energy per Si atom -5587.771214 kJ/mol
# Density = 2.030843 g / cm^3
# Si number density = 20.354757 Si / 1000 Ang^3
#
#
#
# Elastic Constant Matrix: (Units=GPa)
#
#
# Indices 1 2 3 4 5 6 
#
# 1 84.6546 35.2204 -0.2344 0.0000 -6.0496 0.0000
# 2 35.2204 107.5564 6.0947 0.0000 1.6007 0.0000
# 3 -0.2344 6.0947 123.3422 0.0000 -13.2746 0.0000
# 4 0.0000 0.0000 0.0000 45.6206 0.0000 -4.3889
# 5 -6.0496 1.6007 -13.2746 0.0000 25.2834 0.0000
# 6 0.0000 0.0000 0.0000 -4.3889 0.0000 47.7175
#
#
#
# Elastic Compliance Matrix: (Units=1/GPa)
#
#
# Indices 1 2 3 4 5 6 
#
# 1 0.014059 -0.004703 0.000692 0.000000 0.004025 0.000000
# 2 -0.004703 0.010915 -0.000788 0.000000 -0.002230 0.000000
# 3 0.000692 -0.000788 0.008660 0.000000 0.004763 0.000000
# 4 0.000000 0.000000 0.000000 0.022116 0.000000 0.002034
# 5 0.004025 -0.002230 0.004763 0.000000 0.043156 0.000000
# 6 0.000000 0.000000 0.000000 0.002034 0.000000 0.021144
#
#
# Mechanical properties :
#
#
# Convention : Reuss Voigt Hill
#
# Bulk Modulus (GPa) = 41.60286 44.19050 42.89668
# Shear Modulus (GPa) = 36.32125 42.02246 39.17185
#
# Velocity S-wave (km/s) = 4.22881 4.54861 4.39162
# Velocity P-wave (km/s) = 6.65786 7.02451 6.84364
#
# Compressibility (1/GPa) = 0.02403681
#
# Stress axis : x y z
#
# Youngs Moduli (GPa) = 71.12936 91.61443 115.46864
#
# Poissons Ratio (x) = 0.43085 -0.07994
# Poissons Ratio (y) = 0.33451 0.09103
# Poissons Ratio (z) = -0.04924 0.07222
#
# Static dielectric constant tensor:
#      x y z
#    x 1.401640 0.000000 0.080780 
#    y 0.000000 1.723950 0.000000 
#    z 0.080780 0.000000 1.715510 
# 
# From -- ./inp_files/47078.got.cif
#   From: 2010.05.17/outbox.cif.g08.bks.cpg/sg15_24_cif.got.tgz:47078.got - 2010.06.03 18:47:42.
