data_PCOD9302687
_publ_section_title
;
Structure prediction by ZEFSAII (Michael W. Deem and Ramdas Pophale) SiO2 
 PCOD9302687
Probable space group: C 2/C
;
_chemical_formula_sum "Si O2"
_cell_formula_units_Z 40
_cell_length_a 19.484811
_cell_length_b 17.860897
_cell_length_c 13.112224
_cell_angle_alpha 90.000000
_cell_angle_beta 152.200176
_cell_angle_gamma 90.000000
_cell_volume 2128.234086
_symmetry_space_group_name_H-M "C 2/C"
_symmetry_group_IT_number 15
_symmetry_cell_setting 'monoclinic'
loop_
_space_group_symop_operation_xyz
x,y,z
-x,y,1/2-z
-x,-y,-z
x,-y,1/2+z
1/2+x,1/2+y,z
1/2-x,1/2+y,1/2-z
1/2-x,1/2-y,-z
1/2+x,1/2-y,1/2+z
loop_
_atom_site_type_symbol
_atom_site_label
_atom_site_fract_x
_atom_site_fract_y
_atom_site_fract_z
Si Si1 0.059499 0.449071 0.222496
Si Si2 0.577719 0.743867 0.750594
Si Si3 0.910008 0.115341 0.890823
Si Si4 0.398170 0.480344 0.713581
Si Si5 0.076445 0.393491 0.023712
O O1 0.232015 0.465800 0.461162
O O2 0.000000 0.415943 0.250000
O O3 0.973567 0.527346 0.090439
O O4 0.039914 0.399951 0.095572
O O5 0.500000 0.712471 0.750000
O O6 0.554797 0.691124 0.622954
O O7 0.510904 0.825381 0.641144
O O8 0.750000 0.750000 0.000000
O O9 0.749726 0.118311 0.732497
O O10 0.901122 0.050830 0.793170
O O11 0.031491 0.088889 0.131533
O O12 0.500000 0.494890 0.750000
#
# Coordination Sequence:
#
# PCOD9302687 Si02
#       5
#     8   8   8   8   8
#     4  11  22  40  67  90 122 162 203 253 308 357
#     4  12  24  41  65  90 125 162 201 251 306 358
#     4  11  23  40  62  95 124 159 208 250 300 367
#     4  11  22  39  65  92 123 160 204 256 304 351
#     4  11  23  41  63  92 126 160 204 252 303 365
#
# _framework density 18.794924999999999
#
# number of rings (size 3 to 8) (size 9 to 14) (size 15 to 20)
#    0.000    0.800    6.000    2.400    0.000    1.600 
#    0.000    2.000    0.000    0.000    0.000    0.000 
#    0.000    0.000    0.000    0.000    0.000    0.000 
#
# Total GULP energy -111814.002216 kJ/mol
# GULP energy per Si atom -5590.700111 kJ/mol
# Density = 1.875215 g / cm^3
# Si number density = 18.794925 Si / 1000 Ang^3
#
#
#
# Elastic Constant Matrix: (Units=GPa)
#
#
# Indices 1 2 3 4 5 6 
#
# 1 136.0116 11.6354 0.2785 0.0000 -2.8580 0.0000
# 2 11.6354 53.9352 -11.2427 0.0000 -6.8740 0.0000
# 3 0.2785 -11.2427 38.9603 0.0000 2.9058 0.0000
# 4 0.0000 0.0000 0.0000 13.3252 0.0000 -2.3697
# 5 -2.8580 -6.8740 2.9058 0.0000 37.3506 0.0000
# 6 0.0000 0.0000 0.0000 -2.3697 0.0000 24.3991
#
#
#
# Elastic Compliance Matrix: (Units=1/GPa)
#
#
# Indices 1 2 3 4 5 6 
#
# 1 0.007505 -0.001698 -0.000567 0.000000 0.000306 0.000000
# 2 -0.001698 0.020501 0.005689 0.000000 0.003200 0.000000
# 3 -0.000567 0.005689 0.027397 0.000000 -0.001128 0.000000
# 4 0.000000 0.000000 0.000000 0.076365 0.000000 0.007417
# 5 0.000306 0.003200 -0.001128 0.000000 0.027474 0.000000
# 6 0.000000 0.000000 0.000000 0.007417 0.000000 0.041705
#
#
# Mechanical properties :
#
#
# Convention : Reuss Voigt Hill
#
# Bulk Modulus (GPa) = 16.06361 25.58328 20.82345
# Shear Modulus (GPa) = 23.27221 30.23070 26.75145
#
# Velocity S-wave (km/s) = 3.52265 4.01490 3.77680
# Velocity P-wave (km/s) = 5.01106 5.92739 5.48838
#
# Compressibility (1/GPa) = 0.06225249
#
# Stress axis : x y z
#
# Youngs Moduli (GPa) = 133.24133 48.77821 36.50028
#
# Poissons Ratio (x) = 0.08283 0.02068
# Poissons Ratio (y) = 0.22627 -0.20766
# Poissons Ratio (z) = 0.07548 -0.27752
#
# Static dielectric constant tensor:
#      x y z
#    x 1.643850 0.000000 -0.010680 
#    y 0.000000 1.625000 0.000000 
#    z -0.010680 0.000000 1.620670 
# 
# From -- ./inp_files/29102.got.cif
#   From: 2010.05.17/outbox.cif.g08.bks.cpg/sg15_15_cif.got.tgz:29102.got - 2010.06.03 18:47:42.
