data_PCOD9302671
_publ_section_title
;
Structure prediction by ZEFSAII (Michael W. Deem and Ramdas Pophale) SiO2 
 PCOD9302671
Probable space group: C 2/C
;
_chemical_formula_sum "Si O2"
_cell_formula_units_Z 40
_cell_length_a 18.996074
_cell_length_b 14.914770
_cell_length_c 5.200657
_cell_angle_alpha 90.000000
_cell_angle_beta 102.426661
_cell_angle_gamma 90.000000
_cell_volume 1438.941058
_symmetry_space_group_name_H-M "C 2/C"
_symmetry_group_IT_number 15
_symmetry_cell_setting 'monoclinic'
loop_
_space_group_symop_operation_xyz
x,y,z
-x,y,1/2-z
-x,-y,-z
x,-y,1/2+z
1/2+x,1/2+y,z
1/2-x,1/2+y,1/2-z
1/2-x,1/2-y,-z
1/2+x,1/2-y,1/2+z
loop_
_atom_site_type_symbol
_atom_site_label
_atom_site_fract_x
_atom_site_fract_y
_atom_site_fract_z
Si Si1 0.774526 0.608084 0.936529
Si Si2 0.568449 0.279988 0.625589
Si Si3 0.423267 0.904963 0.693388
Si Si4 0.112067 0.948326 0.347368
Si Si5 0.329047 0.811024 0.974455
O O1 0.711926 0.817832 0.828137
O O2 0.780412 0.646466 0.656452
O O3 0.849009 0.551729 0.031354
O O4 0.699218 0.561008 0.921883
O O5 0.500000 0.294130 0.750000
O O6 0.567028 0.184558 0.475922
O O7 0.580368 0.354822 0.420133
O O8 0.637298 0.276967 0.871988
O O9 0.500000 0.952435 0.750000
O O10 0.400740 0.867778 0.955043
O O11 0.090478 0.979888 0.048147
#
# Coordination Sequence:
#
# PCOD9302671 Si02
#       5
#     8   8   8   8   8
#     4   9  20  39  59  90 121 154 200 254 300 366
#     4  11  22  39  64  93 129 154 200 254 309 367
#     4   9  18  34  66 100 123 146 179 252 334 374
#     4  12  29  44  60  81 122 180 220 244 279 341
#     4   9  19  34  66  94 119 148 183 253 332 362
#
# _framework density 27.798221000000002
#
# number of rings (size 3 to 8) (size 9 to 14) (size 15 to 20)
#    1.200    0.800    2.000    1.200    2.800    4.800 
#    0.000    0.000    0.000    1.200    0.000    0.000 
#    0.000    0.000    0.000    0.000    0.000    0.000 
#
# Total GULP energy -112007.797019 kJ/mol
# GULP energy per Si atom -5600.389851 kJ/mol
# Density = 2.773495 g / cm^3
# Si number density = 27.798221 Si / 1000 Ang^3
#
#
#
# Elastic Constant Matrix: (Units=GPa)
#
#
# Indices 1 2 3 4 5 6 
#
# 1 155.5356 35.0833 47.3065 0.0000 -21.1794 0.0000
# 2 35.0833 82.3105 46.8194 0.0000 -14.1062 0.0000
# 3 47.3065 46.8194 190.7879 0.0000 -36.1003 0.0000
# 4 0.0000 0.0000 0.0000 46.1768 0.0000 35.9521
# 5 -21.1794 -14.1062 -36.1003 0.0000 51.4227 0.0000
# 6 0.0000 0.0000 0.0000 35.9521 0.0000 -266.3768
#
#
#
# Elastic Compliance Matrix: (Units=1/GPa)
#
#
# Indices 1 2 3 4 5 6 
#
# 1 0.007489 -0.002351 -0.000944 0.000000 0.001777 0.000000
# 2 -0.002351 0.014982 -0.002882 0.000000 0.001118 0.000000
# 3 -0.000944 -0.002882 0.006872 0.000000 0.003645 0.000000
# 4 0.000000 0.000000 0.000000 0.019597 0.000000 0.002645
# 5 0.001777 0.001118 0.003645 0.000000 0.023044 0.000000
# 6 0.000000 0.000000 0.000000 0.002645 0.000000 -0.003397
#
#
# Mechanical properties :
#
#
# Convention : Reuss Voigt Hill
#
# Bulk Modulus (GPa) = 58.85728 76.33915 67.59822
# Shear Modulus (GPa) = 57.73438 -13.79381 21.97029
#
# Velocity S-wave (km/s) = 4.56226 -2.23000 2.81436
# Velocity P-wave (km/s) = 6.99795 4.57067 5.91025
#
# Compressibility (1/GPa) = 0.01699025
#
# Stress axis : x y z
#
# Youngs Moduli (GPa) = 133.53612 66.74651 145.50782
#
# Poissons Ratio (x) = 0.15689 0.13733
# Poissons Ratio (y) = 0.31388 0.41938
# Poissons Ratio (z) = 0.12603 0.19237
#
# Static dielectric constant tensor:
#      x y z
#    x 2.192770 0.000000 0.077380 
#    y 0.000000 2.216580 0.000000 
#    z 0.077380 0.000000 2.146210 
# 
# From -- ./inp_files/9871.got.cif
#   From: 2010.05.17/outbox.cif.g08.bks.cpg/sg15_5_cif.got.tgz:9871.got - 2010.06.03 18:47:42.
