data_PCOD9302633
_publ_section_title
;
Structure prediction by ZEFSAII (Michael W. Deem and Ramdas Pophale) SiO2 
 PCOD9302633
Probable space group: C 2/C
;
_chemical_formula_sum "Si O2"
_cell_formula_units_Z 44
_cell_length_a 6.609337
_cell_length_b 25.083981
_cell_length_c 17.778374
_cell_angle_alpha 90.000000
_cell_angle_beta 46.782862
_cell_angle_gamma 90.000000
_cell_volume 2147.994729
_symmetry_space_group_name_H-M "C 2/C"
_symmetry_group_IT_number 15
_symmetry_cell_setting 'monoclinic'
loop_
_space_group_symop_operation_xyz
x,y,z
-x,y,1/2-z
-x,-y,-z
x,-y,1/2+z
1/2+x,1/2+y,z
1/2-x,1/2+y,1/2-z
1/2-x,1/2-y,-z
1/2+x,1/2-y,1/2+z
loop_
_atom_site_type_symbol
_atom_site_label
_atom_site_fract_x
_atom_site_fract_y
_atom_site_fract_z
Si Si1 0.257806 0.937574 0.991021
Si Si2 0.500000 0.713189 0.250000
Si Si3 0.081917 0.664412 0.142315
Si Si4 0.810672 0.616696 0.636372
Si Si5 0.623772 0.970382 0.140496
Si Si6 0.322856 0.763781 0.142938
O O1 0.329325 0.916876 0.055263
O O2 0.946851 0.959784 0.070639
O O3 0.285907 0.886454 0.930008
O O4 0.430626 0.985745 0.910135
O O5 0.488085 0.747070 0.175863
O O6 0.788595 0.680368 0.178469
O O7 0.296841 0.714600 0.091355
O O8 0.000000 0.652909 0.250000
O O9 0.500000 0.616851 0.750000
O O10 0.903693 0.677436 0.596406
O O11 0.993679 0.585956 0.650526
O O12 0.500000 0.990337 0.250000
O O13 0.000000 0.768554 0.250000
#
# Coordination Sequence:
#
# PCOD9302633 Si02
#       6
#     8   4   8   8   8   8
#     4  11  24  41  62  89 121 156 203 249 300 362
#     4   8  16  34  58  86 124 164 194 236 302 344
#     4   9  19  38  59  91 124 160 202 246 293 353
#     4  11  22  39  61  91 120 156 203 249 297 355
#     4  11  24  43  64  86 118 161 199 249 308 358
#     4   8  18  33  59  88 122 159 198 244 293 358
#
# _framework density 20.484223
#
# number of rings (size 3 to 8) (size 9 to 14) (size 15 to 20)
#    0.000    2.545    1.818    1.091    1.273    5.091 
#    1.636    1.818    0.000    0.000    0.000    0.000 
#    0.000    0.000    0.000    0.000    0.000    0.000 
#
# Total GULP energy -122715.827072 kJ/mol
# GULP energy per Si atom -5577.992140 kJ/mol
# Density = 2.043760 g / cm^3
# Si number density = 20.484223 Si / 1000 Ang^3
#
#
#
# Elastic Constant Matrix: (Units=GPa)
#
#
# Indices 1 2 3 4 5 6 
#
# 1 79.6832 17.7051 22.4783 0.0000 10.1084 0.0000
# 2 17.7051 118.9187 35.9308 0.0000 9.5431 0.0000
# 3 22.4783 35.9308 74.8582 0.0001 12.9736 0.0000
# 4 0.0000 0.0000 0.0001 -16.2510 0.0000 18.3707
# 5 10.1084 9.5431 12.9736 0.0000 17.3077 0.0000
# 6 0.0000 0.0000 0.0000 18.3707 0.0000 17.5564
#
#
#
# Elastic Compliance Matrix: (Units=1/GPa)
#
#
# Indices 1 2 3 4 5 6 
#
# 1 0.014272 -0.000784 -0.002919 0.000000 -0.005715 0.000000
# 2 -0.000784 0.009950 -0.004217 0.000000 -0.001867 0.000000
# 3 -0.002919 -0.004217 0.017884 0.000000 -0.009376 0.000000
# 4 0.000000 0.000000 0.000000 -0.028190 0.000000 0.029497
# 5 -0.005715 -0.001867 -0.009376 0.000000 0.069173 0.000000
# 6 0.000000 0.000000 0.000000 0.029497 0.000000 0.026094
#
#
# Mechanical properties :
#
#
# Convention : Reuss Voigt Hill
#
# Bulk Modulus (GPa) = 38.07112 47.29872 42.68492
# Shear Modulus (GPa) = 37.37537 16.87902 27.12720
#
# Velocity S-wave (km/s) = 4.27616 2.87366 3.64304
# Velocity P-wave (km/s) = 6.55795 5.84388 6.21118
#
# Compressibility (1/GPa) = 0.02626663
#
# Stress axis : x y z
#
# Youngs Moduli (GPa) = 70.06554 100.50497 55.91651
#
# Poissons Ratio (x) = 0.07884 0.16320
# Poissons Ratio (y) = 0.05496 0.23578
# Poissons Ratio (z) = 0.20450 0.42379
#
# Static dielectric constant tensor:
#      x y z
#    x 1.672050 0.000000 -0.004680 
#    y 0.000000 1.749240 0.000000 
#    z -0.004680 0.000000 1.737810 
# 
# From -- ./inp_files/186030.got.cif
#   From: 2010.05.17/outbox.cif.g08.bks.cpg/sg15_94_cif.got.tgz:186030.got - 2010.06.03 18:47:42.
