data_PCOD9302841
_publ_section_title
;
Structure prediction by ZEFSAII (Michael W. Deem and Ramdas Pophale) SiO2 
 PCOD9302841
Probable space group: C 2/C
;
_chemical_formula_sum "Si O2"
_cell_formula_units_Z 40
_cell_length_a 23.837477
_cell_length_b 10.625993
_cell_length_c 8.565893
_cell_angle_alpha 90.000000
_cell_angle_beta 126.917692
_cell_angle_gamma 90.000000
_cell_volume 1734.684517
_symmetry_space_group_name_H-M "C 2/C"
_symmetry_group_IT_number 15
_symmetry_cell_setting 'monoclinic'
loop_
_space_group_symop_operation_xyz
x,y,z
-x,y,1/2-z
-x,-y,-z
x,-y,1/2+z
1/2+x,1/2+y,z
1/2-x,1/2+y,1/2-z
1/2-x,1/2-y,-z
1/2+x,1/2-y,1/2+z
loop_
_atom_site_type_symbol
_atom_site_label
_atom_site_fract_x
_atom_site_fract_y
_atom_site_fract_z
Si Si1 0.305371 0.353753 0.153264
Si Si2 0.971822 0.871583 0.377645
Si Si3 0.758263 0.576519 0.652011
Si Si4 0.641553 0.950358 0.425084
Si Si5 0.949285 0.384727 0.945563
O O1 0.387781 0.350242 0.252868
O O2 0.294078 0.349844 0.321915
O O3 0.250000 0.250000 0.000000
O O4 0.283007 0.481782 0.028287
O O5 0.994104 0.740304 0.492280
O O6 0.000000 0.871356 0.250000
O O7 0.000000 0.000000 0.500000
O O8 0.817497 0.633362 0.635521
O O9 0.803220 0.500058 0.855213
O O10 0.583432 0.887127 0.436724
O O11 0.611085 0.073591 0.282208
O O12 0.000000 0.500000 0.000000
#
# Coordination Sequence:
#
# PCOD9302841 Si02
#       5
#     8   8   8   8   8
#     4  11  22  43  69  94 131 181 230 283 346 420
#     4  12  27  46  65  97 144 187 225 282 360 432
#     4   9  19  37  63  95 126 160 215 285 340 390
#     4   9  18  36  63  98 128 160 222 291 337 385
#     4  11  22  40  66  96 130 176 228 281 342 417
#
# _framework density 23.058948000000001
#
# number of rings (size 3 to 8) (size 9 to 14) (size 15 to 20)
#    0.000    1.600    0.000    6.600    0.000    3.200 
#    0.000   13.000    0.000    0.000    0.000    0.000 
#    0.000    0.000    0.000    0.000    0.000    0.000 
#
# Total GULP energy -111524.919967 kJ/mol
# GULP energy per Si atom -5576.245998 kJ/mol
# Density = 2.300646 g / cm^3
# Si number density = 23.058948 Si / 1000 Ang^3
#
#
#
# Elastic Constant Matrix: (Units=GPa)
#
#
# Indices 1 2 3 4 5 6 
#
# 1 230.5568 71.3268 52.9762 0.0000 -50.3696 0.0000
# 2 71.3268 133.3291 27.6891 0.0000 -13.7004 0.0000
# 3 52.9762 27.6891 68.9206 0.0000 -25.3541 0.0000
# 4 0.0000 0.0000 0.0000 37.9582 0.0000 -1.1629
# 5 -50.3696 -13.7004 -25.3541 0.0000 59.1754 0.0000
# 6 0.0000 0.0000 0.0000 -1.1629 0.0000 26.6612
#
#
#
# Elastic Compliance Matrix: (Units=1/GPa)
#
#
# Indices 1 2 3 4 5 6 
#
# 1 0.006582 -0.002584 -0.002589 0.000000 0.003896 0.000000
# 2 -0.002584 0.009214 -0.002066 0.000000 -0.000951 0.000000
# 3 -0.002589 -0.002066 0.019400 0.000000 0.005631 0.000000
# 4 0.000000 0.000000 0.000000 0.026380 0.000000 0.001151
# 5 0.003896 -0.000951 0.005631 0.000000 0.022407 0.000000
# 6 0.000000 0.000000 0.000000 0.001151 0.000000 0.037558
#
#
# Mechanical properties :
#
#
# Convention : Reuss Voigt Hill
#
# Bulk Modulus (GPa) = 48.26003 81.86563 65.06283
# Shear Modulus (GPa) = 34.98365 43.47992 39.23178
#
# Velocity S-wave (km/s) = 3.89927 4.34706 4.12924
# Velocity P-wave (km/s) = 6.42237 7.79588 7.14222
#
# Compressibility (1/GPa) = 0.02072108
#
# Stress axis : x y z
#
# Youngs Moduli (GPa) = 151.91870 108.53535 51.54538
#
# Poissons Ratio (x) = 0.28040 0.13343
# Poissons Ratio (y) = 0.39248 0.10647
# Poissons Ratio (z) = 0.39325 0.22419
#
# Static dielectric constant tensor:
#      x y z
#    x 1.956510 0.000000 0.130120 
#    y 0.000000 2.740200 0.000000 
#    z 0.130120 0.000000 1.905500 
# 
# From -- ./inp_files/60734.got.cif
#   From: 2010.05.17/outbox.cif.g08.bks.cpg/sg15_31_cif.got.tgz:60734.got - 2010.06.03 18:47:42.
