data_PCOD9302921
_publ_section_title
;
Structure prediction by ZEFSAII (Michael W. Deem and Ramdas Pophale) SiO2 
 PCOD9302921
Probable space group: C 2/C
;
_chemical_formula_sum "Si O2"
_cell_formula_units_Z 44
_cell_length_a 18.760170
_cell_length_b 6.727529
_cell_length_c 15.228396
_cell_angle_alpha 90.000000
_cell_angle_beta 109.915517
_cell_angle_gamma 90.000000
_cell_volume 1807.027939
_symmetry_space_group_name_H-M "C 2/C"
_symmetry_group_IT_number 15
_symmetry_cell_setting 'monoclinic'
loop_
_space_group_symop_operation_xyz
x,y,z
-x,y,1/2-z
-x,-y,-z
x,-y,1/2+z
1/2+x,1/2+y,z
1/2-x,1/2+y,1/2-z
1/2-x,1/2-y,-z
1/2+x,1/2-y,1/2+z
loop_
_atom_site_type_symbol
_atom_site_label
_atom_site_fract_x
_atom_site_fract_y
_atom_site_fract_z
Si Si1 0.863375 0.391434 0.846295
Si Si2 0.204528 0.055767 0.793794
Si Si3 0.165251 0.689155 0.438175
Si Si4 0.873442 0.666805 0.690423
Si Si5 0.500000 0.534669 0.250000
Si Si6 0.504779 0.319241 0.434773
O O1 0.794510 0.531680 0.850939
O O2 0.894325 0.507798 0.773652
O O3 0.937582 0.333838 0.931313
O O4 0.820309 0.185620 0.800470
O O5 0.176536 0.831254 0.781198
O O6 0.159167 0.165926 0.851442
O O7 0.250000 0.750000 0.500000
O O8 0.163623 0.462626 0.402252
O O9 0.090475 0.734709 0.463991
O O10 0.940462 0.805373 0.686218
O O11 0.482661 0.399325 0.327413
O O12 0.500000 0.500000 0.500000
#
# Coordination Sequence:
#
# PCOD9302921 Si02
#       6
#     8   8   8   8   4   8
#     4  11  23  42  69 111 138 179 251 296 361 434
#     4  11  22  40  73 101 134 191 236 296 360 430
#     4  11  27  46  66 102 145 192 246 295 367 437
#     4  11  22  41  77  95 140 194 238 296 368 423
#     4  12  22  48  74 102 142 192 244 296 368 428
#     4  12  27  46  72 107 150 189 243 308 355 435
#
# _framework density 24.349377
#
# number of rings (size 3 to 8) (size 9 to 14) (size 15 to 20)
#    0.000    0.727    5.455    2.182    2.545    3.636 
#    0.000    2.727    0.000    0.000    0.000    0.000 
#    0.000    0.000    0.000    0.000    0.000    0.000 
#
# Total GULP energy -122713.741434 kJ/mol
# GULP energy per Si atom -5577.897338 kJ/mol
# Density = 2.429396 g / cm^3
# Si number density = 24.349377 Si / 1000 Ang^3
#
#
#
# Elastic Constant Matrix: (Units=GPa)
#
#
# Indices 1 2 3 4 5 6 
#
# 1 140.0021 48.4184 11.4260 0.0000 23.0777 0.0000
# 2 48.4184 132.5624 24.1024 0.0000 7.3932 0.0000
# 3 11.4260 24.1024 48.9284 0.0000 7.5793 0.0000
# 4 0.0000 0.0000 0.0000 32.1189 0.0000 12.8663
# 5 23.0777 7.3932 7.5793 0.0000 37.2991 0.0000
# 6 0.0000 0.0000 0.0000 12.8663 0.0000 52.5326
#
#
#
# Elastic Compliance Matrix: (Units=1/GPa)
#
#
# Indices 1 2 3 4 5 6 
#
# 1 0.009005 -0.003041 0.000170 0.000000 -0.005004 0.000000
# 2 -0.003041 0.009338 -0.004021 0.000000 0.000848 0.000000
# 3 0.000170 -0.004021 0.022996 0.000000 -0.003981 0.000000
# 4 0.000000 0.000000 0.000000 0.034521 0.000000 -0.008455
# 5 -0.005004 0.000848 -0.003981 0.000000 0.030547 0.000000
# 6 0.000000 0.000000 0.000000 -0.008455 0.000000 0.021107
#
#
# Mechanical properties :
#
#
# Convention : Reuss Voigt Hill
#
# Bulk Modulus (GPa) = 36.29083 54.37628 45.33356
# Shear Modulus (GPa) = 33.22622 40.22654 36.72638
#
# Velocity S-wave (km/s) = 3.69800 4.06896 3.88791
# Velocity P-wave (km/s) = 5.75936 6.66749 6.22999
#
# Compressibility (1/GPa) = 0.02755517
#
# Stress axis : x y z
#
# Youngs Moduli (GPa) = 111.04470 107.08669 43.48613
#
# Poissons Ratio (x) = 0.32566 -0.00740
# Poissons Ratio (y) = 0.33770 0.17487
# Poissons Ratio (z) = -0.01890 0.43062
#
# Static dielectric constant tensor:
#      x y z
#    x 2.030480 0.000000 0.048370 
#    y 0.000000 1.922410 0.000000 
#    z 0.048370 0.000000 1.990750 
# 
# From -- ./inp_files/212953.got.cif
#   From: 2010.05.17/outbox.cif.g08.bks.cpg/sg15_107_cif.got.tgz:212953.got - 2010.06.03 18:47:42.
