data_PCOD9302567
_publ_section_title
;
Structure prediction by ZEFSAII (Michael W. Deem and Ramdas Pophale) SiO2 
 PCOD9302567
Probable space group: C 2/C
;
_chemical_formula_sum "Si O2"
_cell_formula_units_Z 56
_cell_length_a 8.407128
_cell_length_b 18.613789
_cell_length_c 17.755396
_cell_angle_alpha 90.000000
_cell_angle_beta 108.066179
_cell_angle_gamma 90.000000
_cell_volume 2641.531691
_symmetry_space_group_name_H-M "C 2/C"
_symmetry_group_IT_number 15
_symmetry_cell_setting 'monoclinic'
loop_
_space_group_symop_operation_xyz
x,y,z
-x,y,1/2-z
-x,-y,-z
x,-y,1/2+z
1/2+x,1/2+y,z
1/2-x,1/2+y,1/2-z
1/2-x,1/2-y,-z
1/2+x,1/2-y,1/2+z
loop_
_atom_site_type_symbol
_atom_site_label
_atom_site_fract_x
_atom_site_fract_y
_atom_site_fract_z
Si Si1 0.406107 0.203839 0.657524
Si Si2 0.970244 0.855032 0.871860
Si Si3 0.941797 0.183356 0.824929
Si Si4 0.272368 0.950864 0.906045
Si Si5 0.299854 0.667347 0.506916
Si Si6 0.356432 0.849879 0.781876
Si Si7 0.538618 0.908751 0.058510
O O1 0.500000 0.210911 0.750000
O O2 0.409784 0.284652 0.622857
O O3 0.232259 0.167382 0.657535
O O4 0.503185 0.153182 0.613427
O O5 0.819420 0.848562 0.789365
O O6 0.078145 0.927981 0.881795
O O7 0.889142 0.850647 0.942268
O O8 0.918678 0.269796 0.811967
O O9 0.000000 0.157940 0.750000
O O10 0.081534 0.159190 0.903666
O O11 0.337239 0.896693 0.852500
O O12 0.339665 0.029093 0.893099
O O13 0.362994 0.937408 0.999759
O O14 0.250000 0.750000 0.500000
O O15 0.135833 0.622118 0.500485
O O16 0.500000 0.881590 0.750000
#
# Coordination Sequence:
#
# PCOD9302567 Si02
#       7
#     8   8   8   8   8   8   8
#     4  12  22  41  66  99 133 169 230 288 344 405
#     4  12  23  41  72 100 133 182 238 283 337 422
#     4  11  22  38  63  98 135 170 220 289 342 403
#     4  11  24  45  64  94 137 182 230 280 342 423
#     4  12  23  39  64  99 135 173 223 287 357 399
#     4  11  22  40  68  98 132 181 231 281 337 416
#     4  11  26  43  65  98 137 177 227 286 350 413
#
# _framework density 21.199819999999999
#
# number of rings (size 3 to 8) (size 9 to 14) (size 15 to 20)
#    0.000    0.571    4.286    5.571    0.000    2.286 
#    0.000    5.714    0.000    0.000    0.000    0.000 
#    0.000    0.000    0.000    0.000    0.000    0.000 
#
# Total GULP energy -156342.022952 kJ/mol
# GULP energy per Si atom -5583.643677 kJ/mol
# Density = 2.115157 g / cm^3
# Si number density = 21.199820 Si / 1000 Ang^3
#
#
#
# Elastic Constant Matrix: (Units=GPa)
#
#
# Indices 1 2 3 4 5 6 
#
# 1 112.6328 22.2550 30.1000 0.0000 -15.3899 0.0000
# 2 22.2550 69.0029 18.6597 0.0000 -4.2234 0.0000
# 3 30.1000 18.6597 99.2012 0.0000 -13.4405 0.0000
# 4 0.0000 0.0000 0.0000 20.8163 0.0000 6.8505
# 5 -15.3899 -4.2234 -13.4405 0.0000 41.7629 0.0000
# 6 0.0000 0.0000 0.0000 6.8505 0.0000 27.3941
#
#
#
# Elastic Compliance Matrix: (Units=1/GPa)
#
#
# Indices 1 2 3 4 5 6 
#
# 1 0.010381 -0.002557 -0.002285 0.000000 0.002831 0.000000
# 2 -0.002557 0.015915 -0.002224 0.000000 -0.000049 0.000000
# 3 -0.002285 -0.002224 0.011551 0.000000 0.002650 0.000000
# 4 0.000000 0.000000 0.000000 0.052347 0.000000 -0.013090
# 5 0.002831 -0.000049 0.002650 0.000000 0.025836 0.000000
# 6 0.000000 0.000000 0.000000 -0.013090 0.000000 0.039778
#
#
# Mechanical properties :
#
#
# Convention : Reuss Voigt Hill
#
# Bulk Modulus (GPa) = 42.16783 46.98513 44.57648
# Shear Modulus (GPa) = 28.11398 31.98280 30.04839
#
# Velocity S-wave (km/s) = 3.64557 3.88833 3.76891
# Velocity P-wave (km/s) = 6.13630 6.50922 6.32550
#
# Compressibility (1/GPa) = 0.02371476
#
# Stress axis : x y z
#
# Youngs Moduli (GPa) = 96.32760 62.83246 86.56911
#
# Poissons Ratio (x) = 0.16065 0.19784
# Poissons Ratio (y) = 0.24630 0.19257
# Poissons Ratio (z) = 0.22014 0.13977
#
# Static dielectric constant tensor:
#      x y z
#    x 1.945150 0.000000 -0.102040 
#    y 0.000000 1.761210 0.000000 
#    z -0.102040 0.000000 1.678820 
# 
# From -- ./inp_files/191042.got.cif
#   From: 2010.05.17/outbox.cif.g08.bks.cpg/sg15_96_cif.got.tgz:191042.got - 2010.06.03 18:47:42.
