data_PCOD9302917
_publ_section_title
;
Structure prediction by ZEFSAII (Michael W. Deem and Ramdas Pophale) SiO2 
 PCOD9302917
Probable space group: C 2/C
;
_chemical_formula_sum "Si O2"
_cell_formula_units_Z 44
_cell_length_a 9.586870
_cell_length_b 16.967247
_cell_length_c 13.634296
_cell_angle_alpha 90.000000
_cell_angle_beta 118.066904
_cell_angle_gamma 90.000000
_cell_volume 1956.977549
_symmetry_space_group_name_H-M "C 2/C"
_symmetry_group_IT_number 15
_symmetry_cell_setting 'monoclinic'
loop_
_space_group_symop_operation_xyz
x,y,z
-x,y,1/2-z
-x,-y,-z
x,-y,1/2+z
1/2+x,1/2+y,z
1/2-x,1/2+y,1/2-z
1/2-x,1/2-y,-z
1/2+x,1/2-y,1/2+z
loop_
_atom_site_type_symbol
_atom_site_label
_atom_site_fract_x
_atom_site_fract_y
_atom_site_fract_z
Si Si1 0.500000 0.077729 0.750000
Si Si2 0.358521 0.197510 0.270689
Si Si3 0.732205 0.690838 0.585063
Si Si4 0.420948 0.520194 0.630518
Si Si5 0.097668 0.104730 0.063572
Si Si6 0.612224 0.963775 0.619697
O O1 0.378443 0.131624 0.648377
O O2 0.595466 0.021605 0.707294
O O3 0.500000 0.228550 0.250000
O O4 0.286974 0.260520 0.320959
O O5 0.220769 0.160683 0.157861
O O6 0.425377 0.123903 0.356363
O O7 0.750000 0.750000 0.500000
O O8 0.569549 0.645157 0.513087
O O9 0.500000 0.562270 0.750000
O O10 0.343055 0.574370 0.522097
O O11 0.553129 0.469197 0.617900
O O12 0.287111 0.464181 0.631298
O O13 0.500000 0.000000 0.500000
#
# Coordination Sequence:
#
# PCOD9302917 Si02
#       6
#     4   8   8   8   8   8
#     4  12  26  46  72 106 142 182 252 294 350 442
#     4  12  26  46  71 102 149 191 240 305 371 434
#     4  12  27  45  70 102 147 196 235 296 370 443
#     4  11  22  40  72 101 139 182 232 304 357 421
#     4  11  25  43  68 106 140 185 248 291 365 442
#     4  12  24  42  71 103 139 184 240 297 355 417
#
# _framework density 22.483651999999999
#
# number of rings (size 3 to 8) (size 9 to 14) (size 15 to 20)
#    0.000    0.364    2.727    6.545    2.545    2.909 
#    0.000    0.000    0.000    0.000    0.000    0.000 
#    0.000    0.000    0.000    0.000    0.000    0.000 
#
# Total GULP energy -123240.866879 kJ/mol
# GULP energy per Si atom -5601.857585 kJ/mol
# Density = 2.243248 g / cm^3
# Si number density = 22.483652 Si / 1000 Ang^3
#
#
#
# Elastic Constant Matrix: (Units=GPa)
#
#
# Indices 1 2 3 4 5 6 
#
# 1 93.1676 13.3542 17.1208 0.0000 -19.4326 0.0000
# 2 13.3542 61.2170 9.3206 0.0000 -10.6746 0.0000
# 3 17.1208 9.3206 115.2981 0.0000 -8.3224 0.0000
# 4 0.0000 0.0000 0.0000 38.5296 0.0000 3.4947
# 5 -19.4326 -10.6746 -8.3224 0.0000 45.1336 0.0000
# 6 0.0000 0.0000 0.0000 3.4947 0.0000 30.7495
#
#
#
# Elastic Compliance Matrix: (Units=1/GPa)
#
#
# Indices 1 2 3 4 5 6 
#
# 1 0.012177 -0.001649 -0.001342 0.000000 0.004605 0.000000
# 2 -0.001649 0.017400 -0.000928 0.000000 0.003234 0.000000
# 3 -0.001342 -0.000928 0.009010 0.000000 0.000864 0.000000
# 4 0.000000 0.000000 0.000000 0.026224 0.000000 -0.002980
# 5 0.004605 0.003234 0.000864 0.000000 0.025064 0.000000
# 6 0.000000 0.000000 0.000000 -0.002980 0.000000 0.032860
#
#
# Mechanical properties :
#
#
# Convention : Reuss Voigt Hill
#
# Bulk Modulus (GPa) = 32.52262 38.80822 35.66542
# Shear Modulus (GPa) = 35.50548 38.20835 36.85692
#
# Velocity S-wave (km/s) = 3.97819 4.12683 4.05319
# Velocity P-wave (km/s) = 5.96638 6.32501 6.14831
#
# Compressibility (1/GPa) = 0.03074783
#
# Stress axis : x y z
#
# Youngs Moduli (GPa) = 82.12234 57.47009 110.98888
#
# Poissons Ratio (x) = 0.09476 0.14900
# Poissons Ratio (y) = 0.13541 0.10303
# Poissons Ratio (z) = 0.11025 0.05335
#
# Static dielectric constant tensor:
#      x y z
#    x 1.924780 0.000000 0.008960 
#    y 0.000000 2.231640 0.000000 
#    z 0.008960 0.000000 1.871460 
# 
# From -- ./inp_files/134969.got.cif
#   From: 2010.05.17/outbox.cif.g08.bks.cpg/sg15_68_cif.got.tgz:134969.got - 2010.06.03 18:47:42.
