data_PCOD9302326
_publ_section_title
;
Structure prediction by ZEFSAII (Michael W. Deem and Ramdas Pophale) SiO2 
 PCOD9302326
Probable space group: C 2/C
;
_chemical_formula_sum "Si O2"
_cell_formula_units_Z 48
_cell_length_a 13.896970
_cell_length_b 26.259759
_cell_length_c 9.171731
_cell_angle_alpha 90.000000
_cell_angle_beta 35.953601
_cell_angle_gamma 90.000000
_cell_volume 1965.152989
_symmetry_space_group_name_H-M "C 2/C"
_symmetry_group_IT_number 15
_symmetry_cell_setting 'monoclinic'
loop_
_space_group_symop_operation_xyz
x,y,z
-x,y,1/2-z
-x,-y,-z
x,-y,1/2+z
1/2+x,1/2+y,z
1/2-x,1/2+y,1/2-z
1/2-x,1/2-y,-z
1/2+x,1/2-y,1/2+z
loop_
_atom_site_type_symbol
_atom_site_label
_atom_site_fract_x
_atom_site_fract_y
_atom_site_fract_z
Si Si1 0.131120 0.982985 0.965571
Si Si2 0.787699 0.820423 0.257497
Si Si3 0.362093 0.265982 0.716687
Si Si4 0.867717 0.356617 0.516789
Si Si5 0.193909 0.913876 0.483560
Si Si6 0.355421 0.894076 0.822652
O O1 0.244714 0.934397 0.867477
O O2 0.000000 0.974998 0.250000
O O3 0.243237 0.033025 0.850246
O O4 0.000000 0.000000 0.000000
O O5 0.650845 0.779284 0.383475
O O6 0.748271 0.851691 0.456493
O O7 0.797628 0.865531 0.128963
O O8 0.950299 0.786038 0.020081
O O9 0.273029 0.317361 0.776255
O O10 0.250000 0.250000 0.000000
O O11 0.792907 0.401886 0.509233
O O12 0.947015 0.370365 0.571474
O O13 0.000000 0.330873 0.250000
O O14 0.000000 0.919562 0.750000
O O15 0.500000 0.914637 0.750000
#
# Coordination Sequence:
#
# PCOD9302326 Si02
#       6
#     8   8   8   8   8   8
#     4  11  25  47  82 117 156 213 272 336 425 506
#     4  12  26  48  80 118 164 211 275 352 418 477
#     4  12  25  47  80 113 157 214 280 329 404 497
#     4  12  26  46  74 105 150 212 274 326 400 494
#     4  11  21  45  76 115 145 205 276 330 403 500
#     4  12  30  51  74 118 174 209 266 356 430 491
#
# _framework density 24.42558
#
# number of rings (size 3 to 8) (size 9 to 14) (size 15 to 20)
#    0.000    0.333    3.333    5.500    4.667    1.333 
#    0.000    5.000    0.000    0.000    0.000    0.000 
#    0.000    0.000    0.000    0.000    0.000    0.000 
#
# Total GULP energy -133648.240707 kJ/mol
# GULP energy per Si atom -5568.676696 kJ/mol
# Density = 2.436999 g / cm^3
# Si number density = 24.425580 Si / 1000 Ang^3
#
#
#
# Elastic Constant Matrix: (Units=GPa)
#
#
# Indices 1 2 3 4 5 6 
#
# 1 136.8786 70.3068 56.3724 0.0000 17.3290 0.0000
# 2 70.3068 143.8302 39.0305 0.0000 -2.1951 0.0000
# 3 56.3724 39.0305 101.4807 0.0000 1.7379 0.0000
# 4 0.0000 0.0000 0.0000 3.3997 0.0000 -25.9984
# 5 17.3290 -2.1951 1.7379 0.0000 46.7965 0.0000
# 6 0.0000 0.0000 0.0000 -25.9984 0.0000 39.8860
#
#
#
# Elastic Compliance Matrix: (Units=1/GPa)
#
#
# Indices 1 2 3 4 5 6 
#
# 1 0.012393 -0.004781 -0.004966 0.000000 -0.004629 0.000000
# 2 -0.004781 0.009618 -0.001082 0.000000 0.002262 0.000000
# 3 -0.004966 -0.001082 0.013007 0.000000 0.001305 0.000000
# 4 0.000000 0.000000 0.000000 -0.073820 0.000000 -0.048117
# 5 -0.004629 0.002262 0.001305 0.000000 0.023141 0.000000
# 6 0.000000 0.000000 0.000000 -0.048117 0.000000 -0.006292
#
#
# Mechanical properties :
#
#
# Convention : Reuss Voigt Hill
#
# Bulk Modulus (GPa) = 74.85573 79.28990 77.07281
# Shear Modulus (GPa) = 1202.85548 32.44842 617.65195
#
# Velocity S-wave (km/s) = 22.21545 3.64876 15.91917
# Velocity P-wave (km/s) = 26.24401 7.09109 19.22279
#
# Compressibility (1/GPa) = 0.01335903
#
# Stress axis : x y z
#
# Youngs Moduli (GPa) = 80.69329 103.97467 76.88420
#
# Poissons Ratio (x) = 0.49708 0.38181
# Poissons Ratio (y) = 0.38577 0.08320
# Poissons Ratio (z) = 0.40073 0.11251
#
# Static dielectric constant tensor:
#      x y z
#    x 2.322640 0.000000 -0.063070 
#    y 0.000000 2.177810 0.000000 
#    z -0.063070 0.000000 1.972300 
# 
# From -- ./inp_files/43798.got.cif
#   From: 2010.05.17/outbox.cif.g08.bks.cpg/sg15_22_cif.got.tgz:43798.got - 2010.06.03 18:47:42.
