data_PCOD9302185
_publ_section_title
;
Structure prediction by ZEFSAII (Michael W. Deem and Ramdas Pophale) SiO2 
 PCOD9302185
Probable space group: C 2/C
;
_chemical_formula_sum "Si O2"
_cell_formula_units_Z 52
_cell_length_a 27.120928
_cell_length_b 12.138240
_cell_length_c 9.315370
_cell_angle_alpha 90.000000
_cell_angle_beta 41.756569
_cell_angle_gamma 90.000000
_cell_volume 2042.270263
_symmetry_space_group_name_H-M "C 2/C"
_symmetry_group_IT_number 15
_symmetry_cell_setting 'monoclinic'
loop_
_space_group_symop_operation_xyz
x,y,z
-x,y,1/2-z
-x,-y,-z
x,-y,1/2+z
1/2+x,1/2+y,z
1/2-x,1/2+y,1/2-z
1/2-x,1/2-y,-z
1/2+x,1/2-y,1/2+z
loop_
_atom_site_type_symbol
_atom_site_label
_atom_site_fract_x
_atom_site_fract_y
_atom_site_fract_z
Si Si1 0.597314 0.118260 0.590356
Si Si2 0.396742 0.635438 0.440216
Si Si3 0.579948 0.094644 0.284095
Si Si4 0.000000 0.226772 0.750000
Si Si5 0.904034 0.043615 0.127158
Si Si6 0.240031 0.153029 0.138665
Si Si7 0.768503 0.306618 0.109336
O O1 0.573111 0.244567 0.664154
O O2 0.589146 0.100077 0.437201
O O3 0.681161 0.118474 0.469024
O O4 0.557384 0.025066 0.770792
O O5 0.413689 0.553669 0.274701
O O6 0.424379 0.575704 0.522497
O O7 0.308147 0.651855 0.655075
O O8 0.535540 0.190442 0.294153
O O9 0.665359 0.109232 0.047863
O O10 0.054509 0.143165 0.545108
O O11 0.815407 0.061556 0.297945
O O12 0.200456 0.210415 0.357907
O O13 0.250000 0.250000 0.000000
O O14 0.750000 0.250000 0.000000
#
# Coordination Sequence:
#
# PCOD9302185 Si02
#       7
#     8   8   8   4   8   8   8
#     4  11  27  47  78 119 149 200 254 333 398 452
#     4  11  27  47  78 119 149 200 254 333 398 452
#     4  12  27  49  76 110 160 202 267 313 397 466
#     4  12  32  52  80 104 152 228 266 324 376 484
#     4  12  27  49  76 110 160 202 267 313 397 466
#     4  11  21  42  79 116 153 191 248 325 393 458
#     4  11  21  42  79 116 153 191 248 325 393 458
#
# _framework density 25.461860999999999
#
# number of rings (size 3 to 8) (size 9 to 14) (size 15 to 20)
#    0.000    0.615    7.692    0.923    8.615    3.692 
#    0.000    0.000    0.000    0.000    0.000    0.000 
#    0.000    0.000    0.000    0.000    0.000    0.000 
#
# Total GULP energy -145519.810246 kJ/mol
# GULP energy per Si atom -5596.915779 kJ/mol
# Density = 2.540391 g / cm^3
# Si number density = 25.461861 Si / 1000 Ang^3
#
#
#
# Elastic Constant Matrix: (Units=GPa)
#
#
# Indices 1 2 3 4 5 6 
#
# 1 128.3499 11.3363 39.1872 0.0000 -26.3232 0.0000
# 2 11.3363 126.5028 4.9778 0.0000 -4.1846 0.0000
# 3 39.1872 4.9778 64.4036 0.0000 1.9025 0.0000
# 4 0.0000 0.0000 0.0000 34.1278 0.0000 6.4580
# 5 -26.3232 -4.1846 1.9025 0.0000 47.5659 0.0000
# 6 0.0000 0.0000 0.0000 6.4580 0.0000 42.4255
#
#
#
# Elastic Compliance Matrix: (Units=1/GPa)
#
#
# Indices 1 2 3 4 5 6 
#
# 1 0.011320 -0.000522 -0.007039 0.000000 0.006500 0.000000
# 2 -0.000522 0.007978 -0.000311 0.000000 0.000425 0.000000
# 3 -0.007039 -0.000311 0.019974 0.000000 -0.004722 0.000000
# 4 0.000000 0.000000 0.000000 0.030171 0.000000 -0.004593
# 5 0.006500 0.000425 -0.004722 0.000000 0.024847 0.000000
# 6 0.000000 0.000000 0.000000 -0.004593 0.000000 0.024270
#
#
# Mechanical properties :
#
#
# Convention : Reuss Voigt Hill
#
# Bulk Modulus (GPa) = 42.50694 47.80655 45.15675
# Shear Modulus (GPa) = 35.17502 42.40751 38.79126
#
# Velocity S-wave (km/s) = 3.72086 4.08552 3.90744
# Velocity P-wave (km/s) = 5.93214 6.40873 6.17503
#
# Compressibility (1/GPa) = 0.02352557
#
# Stress axis : x y z
#
# Youngs Moduli (GPa) = 88.34252 125.34319 50.06578
#
# Poissons Ratio (x) = 0.06548 0.35242
# Poissons Ratio (y) = 0.04615 0.01559
# Poissons Ratio (z) = 0.62186 0.03902
#
# Static dielectric constant tensor:
#      x y z
#    x 2.000920 0.000000 -0.069540 
#    y 0.000000 1.997610 0.000000 
#    z -0.069540 0.000000 2.015080 
# 
# From -- ./inp_files/70091.got.cif
#   From: 2010.05.17/outbox.cif.g08.bks.cpg/sg15_36_cif.got.tgz:70091.got - 2010.06.03 18:47:42.
