data_PCOD9302132
_publ_section_title
;
Structure prediction by ZEFSAII (Michael W. Deem and Ramdas Pophale) SiO2 
 PCOD9302132
Probable space group: C 2/C
;
_chemical_formula_sum "Si O2"
_cell_formula_units_Z 52
_cell_length_a 20.094236
_cell_length_b 16.535074
_cell_length_c 9.637051
_cell_angle_alpha 90.000000
_cell_angle_beta 46.580219
_cell_angle_gamma 90.000000
_cell_volume 2325.734927
_symmetry_space_group_name_H-M "C 2/C"
_symmetry_group_IT_number 15
_symmetry_cell_setting 'monoclinic'
loop_
_space_group_symop_operation_xyz
x,y,z
-x,y,1/2-z
-x,-y,-z
x,-y,1/2+z
1/2+x,1/2+y,z
1/2-x,1/2+y,1/2-z
1/2-x,1/2-y,-z
1/2+x,1/2-y,1/2+z
loop_
_atom_site_type_symbol
_atom_site_label
_atom_site_fract_x
_atom_site_fract_y
_atom_site_fract_z
Si Si1 0.102913 0.236798 0.054285
Si Si2 0.677358 0.553651 0.352633
Si Si3 0.651689 0.136164 0.692992
Si Si4 0.850026 0.931276 0.899088
Si Si5 0.798474 0.318279 0.836293
Si Si6 0.163283 0.574224 0.958317
Si Si7 0.500000 0.038691 0.750000
O O1 0.159571 0.283948 0.091151
O O2 0.121265 0.142296 0.044193
O O3 0.000000 0.249661 0.250000
O O4 0.128431 0.275018 0.869762
O O5 0.628308 0.514192 0.555282
O O6 0.615577 0.572933 0.307866
O O7 0.731600 0.631770 0.329616
O O8 0.748107 0.481004 0.204910
O O9 0.740201 0.080936 0.536034
O O10 0.653731 0.143843 0.855415
O O11 0.560627 0.091185 0.769210
O O12 0.750000 0.250000 0.000000
O O13 0.834697 0.385378 0.893474
O O14 0.075508 0.516720 0.068172
#
# Coordination Sequence:
#
# PCOD9302132 Si02
#       7
#     8   8   8   8   8   8   4
#     4  12  27  45  69 102 145 185 228 292 357 417
#     4  11  21  42  68 101 127 180 240 290 336 418
#     4  11  22  38  65  96 138 182 221 271 350 427
#     4  11  23  43  70  95 132 182 242 279 352 418
#     4  12  25  44  69 103 144 186 244 291 342 424
#     4  11  23  37  62 103 141 179 221 284 351 416
#     4  12  20  36  62 102 146 172 220 284 356 426
#
# _framework density 22.358523999999999
#
# number of rings (size 3 to 8) (size 9 to 14) (size 15 to 20)
#    0.000    0.615    5.385    3.692    4.308    0.000 
#    0.000    0.769    0.000    0.000    0.000    0.000 
#    0.000    0.000    0.000    0.000    0.000    0.000 
#
# Total GULP energy -145249.505943 kJ/mol
# GULP energy per Si atom -5586.519459 kJ/mol
# Density = 2.230763 g / cm^3
# Si number density = 22.358524 Si / 1000 Ang^3
#
#
#
# Elastic Constant Matrix: (Units=GPa)
#
#
# Indices 1 2 3 4 5 6 
#
# 1 47.4168 12.7009 33.6338 0.0000 14.6885 0.0000
# 2 12.7009 80.2159 31.0963 0.0000 -0.5166 0.0000
# 3 33.6338 31.0963 100.5953 0.0000 20.1345 0.0000
# 4 0.0000 0.0000 0.0000 35.0489 0.0000 12.2119
# 5 14.6885 -0.5166 20.1345 0.0000 27.6012 0.0000
# 6 0.0000 0.0000 0.0000 12.2119 0.0000 28.8806
#
#
#
# Elastic Compliance Matrix: (Units=1/GPa)
#
#
# Indices 1 2 3 4 5 6 
#
# 1 0.030138 -0.002010 -0.007304 0.000000 -0.010748 0.000000
# 2 -0.002010 0.014695 -0.004848 0.000000 0.004881 0.000000
# 3 -0.007304 -0.004848 0.015365 0.000000 -0.007412 0.000000
# 4 0.000000 0.000000 0.000000 0.033461 0.000000 -0.014149
# 5 -0.010748 0.004881 -0.007412 0.000000 0.047448 0.000000
# 6 0.000000 0.000000 0.000000 -0.014149 0.000000 0.040608
#
#
# Mechanical properties :
#
#
# Convention : Reuss Voigt Hill
#
# Bulk Modulus (GPa) = 31.37182 42.56555 36.96869
# Shear Modulus (GPa) = 22.65884 28.35929 25.50906
#
# Velocity S-wave (km/s) = 3.18690 3.56531 3.38140
# Velocity P-wave (km/s) = 5.25390 6.00230 5.64053
#
# Compressibility (1/GPa) = 0.03187574
#
# Stress axis : x y z
#
# Youngs Moduli (GPa) = 33.18030 68.04947 65.08287
#
# Poissons Ratio (x) = 0.13675 0.47538
# Poissons Ratio (y) = 0.06668 0.31550
# Poissons Ratio (z) = 0.24236 0.32988
#
# Static dielectric constant tensor:
#      x y z
#    x 1.875840 0.000000 0.014740 
#    y 0.000000 1.863830 0.000000 
#    z 0.014740 0.000000 1.904720 
# 
# From -- ./inp_files/56926.got.cif
#   From: 2010.05.17/outbox.cif.g08.bks.cpg/sg15_29_cif.got.tgz:56926.got - 2010.06.03 18:47:42.
