data_PCOD9302774
_publ_section_title
;
Structure prediction by ZEFSAII (Michael W. Deem and Ramdas Pophale) SiO2 
 PCOD9302774
Probable space group: C 2/C
;
_chemical_formula_sum "Si O2"
_cell_formula_units_Z 44
_cell_length_a 18.700108
_cell_length_b 11.562280
_cell_length_c 22.892407
_cell_angle_alpha 90.000000
_cell_angle_beta 155.683478
_cell_angle_gamma 90.000000
_cell_volume 2038.174230
_symmetry_space_group_name_H-M "C 2/C"
_symmetry_group_IT_number 15
_symmetry_cell_setting 'monoclinic'
loop_
_space_group_symop_operation_xyz
x,y,z
-x,y,1/2-z
-x,-y,-z
x,-y,1/2+z
1/2+x,1/2+y,z
1/2-x,1/2+y,1/2-z
1/2-x,1/2-y,-z
1/2+x,1/2-y,1/2+z
loop_
_atom_site_type_symbol
_atom_site_label
_atom_site_fract_x
_atom_site_fract_y
_atom_site_fract_z
Si Si1 0.092863 0.882076 0.644548
Si Si2 0.500000 0.214254 0.250000
Si Si3 0.086646 0.135961 0.668415
Si Si4 0.894744 0.455737 0.776173
Si Si5 0.304192 0.161303 0.948629
Si Si6 0.248359 0.194986 0.668706
O O1 0.240256 0.908720 0.704353
O O2 0.167115 0.819346 0.757544
O O3 0.936910 0.807640 0.501014
O O4 0.017774 0.007010 0.606691
O O5 0.572796 0.131588 0.253485
O O6 0.345994 0.301861 0.118217
O O7 0.199030 0.143980 0.810634
O O8 0.217095 0.159012 0.712602
O O9 0.939018 0.231805 0.549997
O O10 0.857263 0.585530 0.726851
O O11 0.075149 0.446745 0.946058
#
# Coordination Sequence:
#
# PCOD9302774 Si02
#       6
#     8   4   8   8   8   8
#     4  11  24  39  65  93 128 162 206 256 313 376
#     4  12  22  42  60  94 124 166 208 260 308 362
#     4  11  23  39  62  94 129 157 207 259 318 365
#     4  11  24  37  64  89 128 163 210 250 318 361
#     4  12  23  39  63  95 125 163 202 264 309 370
#     4  11  22  40  61  92 127 165 202 256 314 369
#
# _framework density 21.587948999999998
#
# number of rings (size 3 to 8) (size 9 to 14) (size 15 to 20)
#    0.000    0.727    3.636    6.000    2.545    1.455 
#    0.000    0.000    0.000    5.455    0.000    0.000 
#    0.000    0.000    0.000    0.000    0.000    0.000 
#
# Total GULP energy -122782.504109 kJ/mol
# GULP energy per Si atom -5581.022914 kJ/mol
# Density = 2.153881 g / cm^3
# Si number density = 21.587949 Si / 1000 Ang^3
#
#
#
# Elastic Constant Matrix: (Units=GPa)
#
#
# Indices 1 2 3 4 5 6 
#
# 1 36.5855 -2.9826 27.0523 -0.0001 -7.0766 0.0002
# 2 -2.9826 63.0542 6.9577 0.0021 13.6038 -0.0005
# 3 27.0523 6.9577 114.7654 0.0017 -9.3988 -0.0012
# 4 -0.0001 0.0021 0.0017 38.2699 -0.0010 1.7829
# 5 -7.0766 13.6038 -9.3988 -0.0010 34.3169 -0.0002
# 6 0.0002 -0.0005 -0.0012 1.7829 -0.0002 15.2269
#
#
#
# Elastic Compliance Matrix: (Units=1/GPa)
#
#
# Indices 1 2 3 4 5 6 
#
# 1 0.034028 0.001543 -0.007764 0.000001 0.004279 -0.000001
# 2 0.001543 0.017724 -0.002033 -0.000001 -0.007265 0.000001
# 3 -0.007764 -0.002033 0.010845 0.000000 0.002175 0.000001
# 4 0.000001 -0.000001 0.000000 0.026273 0.000001 -0.003076
# 5 0.004279 -0.007265 0.002175 0.000001 0.033498 0.000000
# 6 -0.000001 0.000001 0.000001 -0.003076 0.000000 0.066034
#
#
# Mechanical properties :
#
#
# Convention : Reuss Voigt Hill
#
# Bulk Modulus (GPa) = 21.69745 30.71777 26.20761
# Shear Modulus (GPa) = 22.69911 29.78792 26.24352
#
# Velocity S-wave (km/s) = 3.24616 3.71865 3.49041
# Velocity P-wave (km/s) = 4.91148 5.71820 5.33012
#
# Compressibility (1/GPa) = 0.04608837
#
# Stress axis : x y z
#
# Youngs Moduli (GPa) = 29.38789 56.42042 92.20863
#
# Poissons Ratio (x) = -0.08707 0.71592
# Poissons Ratio (y) = -0.04535 0.18748
# Poissons Ratio (z) = 0.22817 0.11472
#
# Static dielectric constant tensor:
#      x y z
#    x 1.822750 0.000000 -0.009730 
#    y 0.000000 1.920720 0.000000 
#    z -0.009730 0.000000 1.829540 
# 
# From -- ./inp_files/300887.got.cif
#   From: 2010.05.17/outbox.cif.g08.bks.cpg/sg15_151_cif.got.tgz:300887.got - 2010.06.03 18:47:42.
