data_PCOD9302784
_publ_section_title
;
Structure prediction by ZEFSAII (Michael W. Deem and Ramdas Pophale) SiO2 
 PCOD9302784
Probable space group: C 2/C
;
_chemical_formula_sum "Si O2"
_cell_formula_units_Z 56
_cell_length_a 30.327999
_cell_length_b 19.137269
_cell_length_c 9.313683
_cell_angle_alpha 90.000000
_cell_angle_beta 29.635979
_cell_angle_gamma 90.000000
_cell_volume 2673.010876
_symmetry_space_group_name_H-M "C 2/C"
_symmetry_group_IT_number 15
_symmetry_cell_setting 'monoclinic'
loop_
_space_group_symop_operation_xyz
x,y,z
-x,y,1/2-z
-x,-y,-z
x,-y,1/2+z
1/2+x,1/2+y,z
1/2-x,1/2+y,1/2-z
1/2-x,1/2-y,-z
1/2+x,1/2-y,1/2+z
loop_
_atom_site_type_symbol
_atom_site_label
_atom_site_fract_x
_atom_site_fract_y
_atom_site_fract_z
Si Si1 0.238507 0.338452 0.315466
Si Si2 0.050413 0.447694 0.249888
Si Si3 0.618689 0.730878 0.297940
Si Si4 0.914648 0.223114 0.792046
Si Si5 0.309851 0.622228 0.924342
Si Si6 0.683053 0.870496 0.045670
Si Si7 0.269794 0.024197 0.849984
O O1 0.149351 0.289768 0.563136
O O2 0.271156 0.349476 0.385381
O O3 0.230415 0.415853 0.270086
O O4 0.317783 0.304576 0.997504
O O5 0.087626 0.388808 0.248452
O O6 0.000000 0.423437 0.250000
O O7 0.000000 0.500000 0.500000
O O8 0.137443 0.484899 0.938658
O O9 0.519034 0.739571 0.518041
O O10 0.613180 0.695378 0.469452
O O11 0.664738 0.805488 0.198505
O O12 0.899197 0.162435 0.718210
O O13 0.243967 0.646570 0.238322
O O14 0.304037 0.537393 0.942419
O O15 0.723634 0.934989 0.018126
#
# Coordination Sequence:
#
# PCOD9302784 Si02
#       7
#     8   8   8   8   8   8   8
#     4  12  24  44  68 100 133 175 226 285 338 398
#     4  11  23  36  56  93 134 171 214 272 338 412
#     4  11  25  42  68  97 128 184 223 273 341 404
#     4  11  24  43  69  95 138 174 228 274 334 414
#     4  11  24  42  64 101 133 176 221 280 338 398
#     4  11  22  40  62  93 132 173 222 271 333 408
#     4  11  24  41  68  89 133 183 222 273 345 407
#
# _framework density 20.950157999999998
#
# number of rings (size 3 to 8) (size 9 to 14) (size 15 to 20)
#    0.000    0.857    4.286    3.429    4.000    0.571 
#    0.000    0.714    0.000    1.714    0.000    0.000 
#    0.000    0.000    0.000    0.000    0.000    0.000 
#
# Total GULP energy -156320.510499 kJ/mol
# GULP energy per Si atom -5582.875375 kJ/mol
# Density = 2.090247 g / cm^3
# Si number density = 20.950158 Si / 1000 Ang^3
#
#
#
# Elastic Constant Matrix: (Units=GPa)
#
#
# Indices 1 2 3 4 5 6 
#
# 1 152.2361 53.0386 23.7098 0.0000 3.3706 0.0000
# 2 53.0386 105.8331 16.9969 0.0000 -11.7411 0.0000
# 3 23.7098 16.9969 56.9632 0.0000 -7.9078 0.0000
# 4 0.0000 0.0000 0.0000 19.5448 0.0000 -0.3040
# 5 3.3706 -11.7411 -7.9078 0.0000 28.3834 0.0000
# 6 0.0000 0.0000 0.0000 -0.3040 0.0000 40.6268
#
#
#
# Elastic Compliance Matrix: (Units=1/GPa)
#
#
# Indices 1 2 3 4 5 6 
#
# 1 0.008557 -0.004233 -0.002790 0.000000 -0.003545 0.000000
# 2 -0.004233 0.012347 -0.001189 0.000000 0.005279 0.000000
# 3 -0.002790 -0.001189 0.019816 0.000000 0.005360 0.000000
# 4 0.000000 0.000000 0.000000 0.051171 0.000000 0.000383
# 5 -0.003545 0.005279 0.005360 0.000000 0.039330 0.000000
# 6 0.000000 0.000000 0.000000 0.000383 0.000000 0.024617
#
#
# Mechanical properties :
#
#
# Convention : Reuss Voigt Hill
#
# Bulk Modulus (GPa) = 41.16384 55.83590 48.49987
# Shear Modulus (GPa) = 27.72220 32.46346 30.09283
#
# Velocity S-wave (km/s) = 3.64159 3.94071 3.79410
# Velocity P-wave (km/s) = 6.11332 6.88587 6.51107
#
# Compressibility (1/GPa) = 0.02429317
#
# Stress axis : x y z
#
# Youngs Moduli (GPa) = 116.86748 80.99123 50.46514
#
# Poissons Ratio (x) = 0.34286 0.14082
# Poissons Ratio (y) = 0.49474 0.06002
# Poissons Ratio (z) = 0.32612 0.09632
#
# Static dielectric constant tensor:
#      x y z
#    x 1.818250 0.000000 -0.035140 
#    y 0.000000 1.983630 0.000000 
#    z -0.035140 0.000000 1.743970 
# 
# From -- ./inp_files/70832.got.cif
#   From: 2010.05.17/outbox.cif.g08.bks.cpg/sg15_36_cif.got.tgz:70832.got - 2010.06.03 18:47:42.
