data_PCOD9302122
_publ_section_title
;
Structure prediction by ZEFSAII (Michael W. Deem and Ramdas Pophale) SiO2 
 PCOD9302122
Probable space group: C 2/C
;
_chemical_formula_sum "Si O2"
_cell_formula_units_Z 52
_cell_length_a 11.910496
_cell_length_b 26.027104
_cell_length_c 8.206952
_cell_angle_alpha 90.000000
_cell_angle_beta 72.958396
_cell_angle_gamma 90.000000
_cell_volume 2432.413280
_symmetry_space_group_name_H-M "C 2/C"
_symmetry_group_IT_number 15
_symmetry_cell_setting 'monoclinic'
loop_
_space_group_symop_operation_xyz
x,y,z
-x,y,1/2-z
-x,-y,-z
x,-y,1/2+z
1/2+x,1/2+y,z
1/2-x,1/2+y,1/2-z
1/2-x,1/2-y,-z
1/2+x,1/2-y,1/2+z
loop_
_atom_site_type_symbol
_atom_site_label
_atom_site_fract_x
_atom_site_fract_y
_atom_site_fract_z
Si Si1 0.751237 0.666978 0.038807
Si Si2 0.785201 0.337897 0.139640
Si Si3 0.015601 0.282135 0.932573
Si Si4 0.500000 0.343262 0.750000
Si Si5 0.444204 0.665603 0.938637
Si Si6 0.131193 0.552705 0.888432
Si Si7 0.638340 0.942147 0.994973
O O1 0.858734 0.701223 0.053752
O O2 0.627290 0.682903 0.169180
O O3 0.745986 0.667414 0.844276
O O4 0.786436 0.608381 0.076430
O O5 0.688716 0.319448 0.052291
O O6 0.798052 0.397706 0.088527
O O7 0.910535 0.310445 0.071638
O O8 0.000000 0.296881 0.750000
O O9 0.000737 0.221191 0.948441
O O10 0.474446 0.368316 0.583968
O O11 0.500000 0.643360 0.750000
O O12 0.129224 0.555630 0.693998
O O13 0.997131 0.560253 0.008670
O O14 0.180941 0.497646 0.917771
#
# Coordination Sequence:
#
# PCOD9302122 Si02
#       7
#     8   8   8   4   8   8   8
#     4  11  23  41  67  92 133 171 220 263 330 385
#     4  11  21  42  67  93 132 170 207 276 328 385
#     4  11  24  40  63  98 124 165 217 271 326 389
#     4  12  26  44  68  90 126 188 214 266 326 382
#     4  11  25  45  62  93 132 169 222 270 318 391
#     4   9  18  33  62  92 128 161 200 260 333 371
#     4   9  18  35  57  96 127 160 204 261 318 392
#
# _framework density 21.377946000000001
#
# number of rings (size 3 to 8) (size 9 to 14) (size 15 to 20)
#    0.000    1.538    3.077    1.846    2.154    4.308 
#    0.000    0.000    1.692    2.769    0.000    0.000 
#    0.000    0.000    0.000    0.000    0.000    0.000 
#
# Total GULP energy -145120.887900 kJ/mol
# GULP energy per Si atom -5581.572612 kJ/mol
# Density = 2.132929 g / cm^3
# Si number density = 21.377946 Si / 1000 Ang^3
#
#
#
# Elastic Constant Matrix: (Units=GPa)
#
#
# Indices 1 2 3 4 5 6 
#
# 1 146.4940 33.5370 37.9539 0.0000 -0.5608 0.0000
# 2 33.5370 90.7492 16.7718 0.0000 1.5254 0.0000
# 3 37.9539 16.7718 85.0207 0.0000 -2.1710 0.0000
# 4 0.0000 0.0000 0.0000 13.7808 0.0000 6.7412
# 5 -0.5608 1.5254 -2.1710 0.0000 39.2343 0.0000
# 6 0.0000 0.0000 0.0000 6.7412 0.0000 0.9434
#
#
#
# Elastic Compliance Matrix: (Units=1/GPa)
#
#
# Indices 1 2 3 4 5 6 
#
# 1 0.008211 -0.002447 -0.003182 0.000000 0.000036 0.000000
# 2 -0.002447 0.012178 -0.001325 0.000000 -0.000582 0.000000
# 3 -0.003182 -0.001325 0.013463 0.000000 0.000751 0.000000
# 4 0.000000 0.000000 0.000000 -0.029078 0.000000 0.207785
# 5 0.000036 -0.000582 0.000751 0.000000 0.025553 0.000000
# 6 0.000000 0.000000 0.000000 0.207785 0.000000 -0.424772
#
#
# Mechanical properties :
#
#
# Convention : Reuss Voigt Hill
#
# Bulk Modulus (GPa) = 50.13864 55.42100 52.77982
# Shear Modulus (GPa) = -13.37293 26.39179 6.50943
#
# Velocity S-wave (km/s) = -2.50381 3.51740 1.74687
# Velocity P-wave (km/s) = 3.89174 6.51743 5.36761
#
# Compressibility (1/GPa) = 0.01994470
#
# Stress axis : x y z
#
# Youngs Moduli (GPa) = 121.78967 82.11317 74.27909
#
# Poissons Ratio (x) = 0.20093 0.23634
# Poissons Ratio (y) = 0.29801 0.09841
# Poissons Ratio (z) = 0.38751 0.10879
#
# Static dielectric constant tensor:
#      x y z
#    x 1.818460 0.000000 -0.008050 
#    y 0.000000 1.766830 0.000000 
#    z -0.008050 0.000000 1.840510 
# 
# From -- ./inp_files/33514.got.cif
#   From: 2010.05.17/outbox.cif.g08.bks.cpg/sg15_17_cif.got.tgz:33514.got - 2010.06.03 18:47:42.
