data_PCOD9302172
_publ_section_title
;
Structure prediction by ZEFSAII (Michael W. Deem and Ramdas Pophale) SiO2 
 PCOD9302172
Probable space group: C 2/C
;
_chemical_formula_sum "Si O2"
_cell_formula_units_Z 64
_cell_length_a 8.449463
_cell_length_b 23.877645
_cell_length_c 14.983954
_cell_angle_alpha 90.000000
_cell_angle_beta 101.145851
_cell_angle_gamma 90.000000
_cell_volume 2966.041702
_symmetry_space_group_name_H-M "C 2/C"
_symmetry_group_IT_number 15
_symmetry_cell_setting 'monoclinic'
loop_
_space_group_symop_operation_xyz
x,y,z
-x,y,1/2-z
-x,-y,-z
x,-y,1/2+z
1/2+x,1/2+y,z
1/2-x,1/2+y,1/2-z
1/2-x,1/2-y,-z
1/2+x,1/2-y,1/2+z
loop_
_atom_site_type_symbol
_atom_site_label
_atom_site_fract_x
_atom_site_fract_y
_atom_site_fract_z
Si Si1 0.877277 0.044250 0.357129
Si Si2 0.575491 0.669249 0.159809
Si Si3 0.529288 0.132035 0.065575
Si Si4 0.517471 0.645974 0.858435
Si Si5 0.295266 0.314566 0.484457
Si Si6 0.248719 0.536602 0.161729
Si Si7 0.618097 0.762771 0.847280
Si Si8 0.241306 0.054753 0.970202
O O1 0.836509 0.110118 0.344648
O O2 0.776920 0.017071 0.266074
O O3 0.829182 0.024651 0.449443
O O4 0.067975 0.043921 0.356093
O O5 0.500000 0.670438 0.250000
O O6 0.439956 0.672938 0.069442
O O7 0.706958 0.716964 0.162390
O O8 0.643812 0.148630 0.996500
O O9 0.641148 0.092397 0.140985
O O10 0.465937 0.189579 0.102199
O O11 0.378802 0.096443 0.017393
O O12 0.500000 0.637303 0.750000
O O13 0.629188 0.700668 0.888719
O O14 0.597575 0.591072 0.909974
O O15 0.357397 0.666536 0.893784
O O16 0.250000 0.250000 0.500000
O O17 0.182768 0.488330 0.091304
O O18 0.500000 0.757223 0.750000
#
# Coordination Sequence:
#
# PCOD9302172 Si02
#       8
#     8   8   8   8   8   8   8   8
#     4  11  21  42  71  96 125 179 231 282 340 404
#     4  12  22  41  70 103 136 172 231 288 338 401
#     4  12  23  42  69 100 139 171 231 284 343 403
#     4  11  26  46  68 100 141 186 230 276 351 419
#     4  12  24  42  68 102 139 182 218 282 341 410
#     4  11  24  42  67 100 134 171 231 287 344 400
#     4  11  23  39  69 105 136 178 224 283 344 411
#     4  12  26  44  67  99 136 184 228 287 345 415
#
# _framework density 21.577579
#
# number of rings (size 3 to 8) (size 9 to 14) (size 15 to 20)
#    0.000    0.500    6.250    2.250    5.250    1.000 
#    0.000    0.625    0.000    0.000    0.000    0.000 
#    0.000    0.000    0.000    0.000    0.000    0.000 
#
# Total GULP energy -178924.882424 kJ/mol
# GULP energy per Si atom -5591.402576 kJ/mol
# Density = 2.152847 g / cm^3
# Si number density = 21.577579 Si / 1000 Ang^3
#
#
#
# Elastic Constant Matrix: (Units=GPa)
#
#
# Indices 1 2 3 4 5 6 
#
# 1 65.0780 -6.3759 36.6508 0.0000 -13.0917 0.0000
# 2 -6.3759 43.7534 20.3217 0.0000 -1.3953 0.0000
# 3 36.6508 20.3217 142.8223 0.0000 -11.8598 0.0000
# 4 0.0000 0.0000 0.0000 28.5415 0.0000 -1.0096
# 5 -13.0917 -1.3953 -11.8598 0.0000 23.6756 0.0000
# 6 0.0000 0.0000 0.0000 -1.0096 0.0000 25.0974
#
#
#
# Elastic Compliance Matrix: (Units=1/GPa)
#
#
# Indices 1 2 3 4 5 6 
#
# 1 0.020830 0.005843 -0.005417 0.000000 0.009149 0.000000
# 2 0.005843 0.026114 -0.005028 0.000000 0.002251 0.000000
# 3 -0.005417 -0.005028 0.009217 0.000000 0.001325 0.000000
# 4 0.000000 0.000000 0.000000 0.035087 0.000000 0.001411
# 5 0.009149 0.002251 0.001325 0.000000 0.048093 0.000000
# 6 0.000000 0.000000 0.000000 0.001411 0.000000 0.039902
#
#
# Mechanical properties :
#
#
# Convention : Reuss Voigt Hill
#
# Bulk Modulus (GPa) = 21.29602 39.20522 30.25062
# Shear Modulus (GPa) = 24.49790 28.86671 26.68230
#
# Velocity S-wave (km/s) = 3.37314 3.66158 3.52031
# Velocity P-wave (km/s) = 5.00616 6.00708 5.52932
#
# Compressibility (1/GPa) = 0.04695713
#
# Stress axis : x y z
#
# Youngs Moduli (GPa) = 48.00791 38.29361 108.49140
#
# Poissons Ratio (x) = -0.22376 0.58770
# Poissons Ratio (y) = -0.28052 0.54551
# Poissons Ratio (z) = 0.26006 0.19255
#
# Static dielectric constant tensor:
#      x y z
#    x 1.770850 0.000000 -0.007520 
#    y 0.000000 1.819080 0.000000 
#    z -0.007520 0.000000 1.815570 
# 
# From -- ./inp_files/137863.got.cif
#   From: 2010.05.17/outbox.cif.g08.bks.cpg/sg15_69_cif.got.tgz:137863.got - 2010.06.03 18:47:42.
