data_PCOD9302037
_publ_section_title
;
Structure prediction by ZEFSAII (Michael W. Deem and Ramdas Pophale) SiO2 
 PCOD9302037
Probable space group: C 2/C
;
_chemical_formula_sum "Si O2"
_cell_formula_units_Z 40
_cell_length_a 8.442359
_cell_length_b 22.427472
_cell_length_c 17.809276
_cell_angle_alpha 90.000000
_cell_angle_beta 146.646371
_cell_angle_gamma 90.000000
_cell_volume 1853.954220
_symmetry_space_group_name_H-M "C 2/C"
_symmetry_group_IT_number 15
_symmetry_cell_setting 'monoclinic'
loop_
_space_group_symop_operation_xyz
x,y,z
-x,y,1/2-z
-x,-y,-z
x,-y,1/2+z
1/2+x,1/2+y,z
1/2-x,1/2+y,1/2-z
1/2-x,1/2-y,-z
1/2+x,1/2-y,1/2+z
loop_
_atom_site_type_symbol
_atom_site_label
_atom_site_fract_x
_atom_site_fract_y
_atom_site_fract_z
Si Si1 0.678468 0.494097 0.149452
Si Si2 0.649833 0.881689 0.726936
Si Si3 0.725678 0.380388 0.272204
Si Si4 0.172822 0.818525 0.981954
Si Si5 0.121806 0.813560 0.471110
O O1 0.697708 0.553543 0.208521
O O2 0.640689 0.436687 0.186467
O O3 0.000000 0.485882 0.250000
O O4 0.500000 0.500000 0.000000
O O5 0.500000 0.876952 0.750000
O O6 0.384448 0.861965 0.569423
O O7 0.912715 0.836480 0.823963
O O8 0.500000 0.383525 0.250000
O O9 0.631056 0.323641 0.187290
O O10 0.061764 0.365783 0.421558
O O11 0.029844 0.821336 0.008260
O O12 0.250000 0.750000 0.000000
O O13 0.250000 0.750000 0.500000
#
# Coordination Sequence:
#
# PCOD9302037 Si02
#       5
#     8   8   8   8   8
#     4  11  21  41  68  91 119 165 216 265 323 385
#     4   9  20  38  62  89 118 155 206 260 316 378
#     4  12  25  41  61  93 132 171 214 263 318 386
#     4  11  22  40  65  93 125 165 210 263 321 379
#     4  11  22  40  64  92 126 166 210 261 320 386
#
# _framework density 21.575507000000002
#
# number of rings (size 3 to 8) (size 9 to 14) (size 15 to 20)
#    0.000    1.200    0.000    9.000    0.000    1.600 
#    0.000   14.000    0.000    0.000    0.000    0.000 
#    0.000    0.000    0.000    0.000    0.000    0.000 
#
# Total GULP energy -111398.812754 kJ/mol
# GULP energy per Si atom -5569.940638 kJ/mol
# Density = 2.152640 g / cm^3
# Si number density = 21.575507 Si / 1000 Ang^3
#
#
#
# Elastic Constant Matrix: (Units=GPa)
#
#
# Indices 1 2 3 4 5 6 
#
# 1 71.5825 25.9642 33.5097 0.0005 17.6860 0.0003
# 2 25.9642 95.9393 16.9880 0.0007 18.2438 0.0008
# 3 33.5097 16.9880 125.8223 0.0033 23.8957 0.0029
# 4 0.0005 0.0007 0.0033 38.4261 0.0008 5.3589
# 5 17.6860 18.2438 23.8957 0.0008 22.3738 0.0009
# 6 0.0003 0.0008 0.0029 5.3589 0.0009 24.9685
#
#
#
# Elastic Compliance Matrix: (Units=1/GPa)
#
#
# Indices 1 2 3 4 5 6 
#
# 1 0.018615 -0.002736 -0.002782 0.000000 -0.009513 0.000001
# 2 -0.002736 0.012748 0.000716 0.000000 -0.008997 0.000000
# 3 -0.002782 0.000716 0.010393 -0.000001 -0.009485 -0.000001
# 4 0.000000 0.000000 -0.000001 0.026827 0.000000 -0.005758
# 5 -0.009513 -0.008997 -0.009485 0.000000 0.069681 -0.000001
# 6 0.000001 0.000000 -0.000001 -0.005758 -0.000001 0.041286
#
#
# Mechanical properties :
#
#
# Convention : Reuss Voigt Hill
#
# Bulk Modulus (GPa) = 31.10183 49.58532 40.34357
# Shear Modulus (GPa) = 25.01616 31.61250 28.31433
#
# Velocity S-wave (km/s) = 3.40879 3.83195 3.62655
# Velocity P-wave (km/s) = 5.47173 6.52768 6.02289
#
# Compressibility (1/GPa) = 0.03215245
#
# Stress axis : x y z
#
# Youngs Moduli (GPa) = 53.72064 78.44525 96.21628
#
# Poissons Ratio (x) = 0.21465 0.26763
# Poissons Ratio (y) = 0.14700 -0.06891
# Poissons Ratio (z) = 0.14943 -0.05618
#
# Static dielectric constant tensor:
#      x y z
#    x 1.761380 0.000000 -0.026080 
#    y 0.000000 1.986880 0.000000 
#    z -0.026080 0.000000 1.761570 
# 
# From -- ./inp_files/234525.got.cif
#   From: 2010.05.17/outbox.cif.g08.bks.cpg/sg15_118_cif.got.tgz:234525.got - 2010.06.03 18:47:42.
