data_PCOD9302433
_publ_section_title
;
Structure prediction by ZEFSAII (Michael W. Deem and Ramdas Pophale) SiO2 
 PCOD9302433
Probable space group: C 2/C
;
_chemical_formula_sum "Si O2"
_cell_formula_units_Z 48
_cell_length_a 24.143179
_cell_length_b 11.324886
_cell_length_c 9.557590
_cell_angle_alpha 90.000000
_cell_angle_beta 67.185105
_cell_angle_gamma 90.000000
_cell_volume 2408.771857
_symmetry_space_group_name_H-M "C 2/C"
_symmetry_group_IT_number 15
_symmetry_cell_setting 'monoclinic'
loop_
_space_group_symop_operation_xyz
x,y,z
-x,y,1/2-z
-x,-y,-z
x,-y,1/2+z
1/2+x,1/2+y,z
1/2-x,1/2+y,1/2-z
1/2-x,1/2-y,-z
1/2+x,1/2-y,1/2+z
loop_
_atom_site_type_symbol
_atom_site_label
_atom_site_fract_x
_atom_site_fract_y
_atom_site_fract_z
Si Si1 0.184689 0.107989 0.766053
Si Si2 0.633181 0.400342 0.624288
Si Si3 0.539418 0.453762 0.090645
Si Si4 0.316714 0.042707 0.549906
Si Si5 0.850525 0.213042 0.118907
Si Si6 0.209712 0.634812 0.216543
O O1 0.253651 0.075641 0.683672
O O2 0.179640 0.239364 0.711419
O O3 0.150766 0.013214 0.703942
O O4 0.169100 0.107531 0.944653
O O5 0.566903 0.429983 0.637570
O O6 0.643263 0.292545 0.718891
O O7 0.500000 0.392696 0.250000
O O8 0.500000 0.500000 0.000000
O O9 0.595979 0.371864 0.989893
O O10 0.357153 0.154243 0.554569
O O11 0.304998 0.047947 0.396753
O O12 0.323225 0.914833 0.612699
O O13 0.782215 0.161759 0.155446
#
# Coordination Sequence:
#
# PCOD9302433 Si02
#       6
#     8   8   8   8   8   8
#     4  11  22  36  57  86 126 160 192 233 294 364
#     4  12  21  37  60  87 122 155 194 240 305 352
#     4  12  22  37  58  86 116 147 198 255 311 345
#     4  11  22  37  55  83 124 163 199 232 283 358
#     4  11  23  36  59  82 125 154 197 247 295 353
#     4  11  24  36  59  86 126 162 198 228 290 363
#
# _framework density 19.927166
#
# number of rings (size 3 to 8) (size 9 to 14) (size 15 to 20)
#    0.000    0.667    5.000    5.000    2.333    1.333 
#    0.000    0.000    0.000    0.000    0.000   11.667 
#    0.000    0.000    0.000    0.000    0.000    0.000 
#
# Total GULP energy -133832.937792 kJ/mol
# GULP energy per Si atom -5576.372408 kJ/mol
# Density = 1.988181 g / cm^3
# Si number density = 19.927166 Si / 1000 Ang^3
#
#
#
# Elastic Constant Matrix: (Units=GPa)
#
#
# Indices 1 2 3 4 5 6 
#
# 1 76.7284 20.0239 21.3216 0.0000 20.6606 0.0000
# 2 20.0239 48.6112 -7.0456 0.0000 4.2760 0.0000
# 3 21.3216 -7.0456 112.7745 0.0000 17.6074 0.0000
# 4 0.0000 0.0000 0.0000 22.5308 0.0000 12.8165
# 5 20.6606 4.2760 17.6074 0.0000 26.2672 0.0000
# 6 0.0000 0.0000 0.0000 12.8165 0.0000 14.3003
#
#
#
# Elastic Compliance Matrix: (Units=1/GPa)
#
#
# Indices 1 2 3 4 5 6 
#
# 1 0.018699 -0.006929 -0.002064 0.000000 -0.012196 0.000000
# 2 -0.006929 0.023870 0.002856 0.000000 -0.000350 0.000000
# 3 -0.002064 0.002856 0.010337 0.000000 -0.005770 0.000000
# 4 0.000000 0.000000 0.000000 0.090546 0.000000 -0.081151
# 5 -0.012196 -0.000350 -0.005770 0.000000 0.051588 0.000000
# 6 0.000000 0.000000 0.000000 -0.081151 0.000000 0.142659
#
#
# Mechanical properties :
#
#
# Convention : Reuss Voigt Hill
#
# Bulk Modulus (GPa) = 24.61085 34.07931 29.34508
# Shear Modulus (GPa) = 13.75455 26.20729 19.98092
#
# Velocity S-wave (km/s) = 2.63009 3.63044 3.16997
# Velocity P-wave (km/s) = 4.64762 5.89173 5.30627
#
# Compressibility (1/GPa) = 0.04063248
#
# Stress axis : x y z
#
# Youngs Moduli (GPa) = 53.47937 41.89315 96.74136
#
# Poissons Ratio (x) = 0.29027 0.19967
# Poissons Ratio (y) = 0.37054 -0.27629
# Poissons Ratio (z) = 0.11038 -0.11965
#
# Static dielectric constant tensor:
#      x y z
#    x 1.719590 0.000000 0.011640 
#    y 0.000000 1.886120 0.000000 
#    z 0.011640 0.000000 1.801830 
# 
# From -- ./inp_files/60843.got.cif
#   From: 2010.05.17/outbox.cif.g08.bks.cpg/sg15_31_cif.got.tgz:60843.got - 2010.06.03 18:47:42.
