data_PCOD9302453
_publ_section_title
;
Structure prediction by ZEFSAII (Michael W. Deem and Ramdas Pophale) SiO2 
 PCOD9302453
Probable space group: C 2/C
;
_chemical_formula_sum "Si O2"
_cell_formula_units_Z 48
_cell_length_a 8.681478
_cell_length_b 21.412441
_cell_length_c 19.760423
_cell_angle_alpha 90.000000
_cell_angle_beta 139.276991
_cell_angle_gamma 90.000000
_cell_volume 2396.469494
_symmetry_space_group_name_H-M "C 2/C"
_symmetry_group_IT_number 15
_symmetry_cell_setting 'monoclinic'
loop_
_space_group_symop_operation_xyz
x,y,z
-x,y,1/2-z
-x,-y,-z
x,-y,1/2+z
1/2+x,1/2+y,z
1/2-x,1/2+y,1/2-z
1/2-x,1/2-y,-z
1/2+x,1/2-y,1/2+z
loop_
_atom_site_type_symbol
_atom_site_label
_atom_site_fract_x
_atom_site_fract_y
_atom_site_fract_z
Si Si1 0.462702 0.157036 0.157497
Si Si2 0.674476 0.787487 0.542714
Si Si3 0.042239 0.069091 0.039808
Si Si4 0.957501 0.897275 0.806852
Si Si5 0.376039 0.298094 0.134835
Si Si6 0.770694 0.162454 0.859191
O O1 0.500000 0.161926 0.250000
O O2 0.276668 0.101654 0.087487
O O3 0.713027 0.138728 0.212041
O O4 0.378135 0.225717 0.109786
O O5 0.750000 0.750000 0.500000
O O6 0.403306 0.811216 0.451249
O O7 0.713256 0.733796 0.610930
O O8 0.847166 0.844896 0.613032
O O9 0.061825 0.067531 0.127974
O O10 0.844772 0.116152 0.944636
O O11 0.000000 0.000000 0.000000
O O12 0.000000 0.932581 0.750000
O O13 0.500000 0.300444 0.250000
O O14 0.537315 0.339444 0.138091
O O15 0.500000 0.149223 0.750000
#
# Coordination Sequence:
#
# PCOD9302453 Si02
#       6
#     8   8   8   8   8   8
#     4   9  18  39  62  90 127 167 212 254 320 392
#     4  12  20  37  64 101 137 165 207 267 339 399
#     4  11  25  45  66  90 124 178 225 265 315 382
#     4  11  23  39  69  95 128 167 217 270 323 394
#     4  11  22  36  63 101 134 170 208 262 334 396
#     4  12  24  39  63  96 136 171 209 268 333 386
#
# _framework density 20.029464000000001
#
# number of rings (size 3 to 8) (size 9 to 14) (size 15 to 20)
#    0.000    1.000    3.333    6.000    2.333    2.000 
#    0.000    1.667    0.000    0.000    0.000    0.000 
#    0.000    0.000    0.000    0.000    0.000    0.000 
#
# Total GULP energy -133952.402509 kJ/mol
# GULP energy per Si atom -5581.350105 kJ/mol
# Density = 1.998388 g / cm^3
# Si number density = 20.029464 Si / 1000 Ang^3
#
#
#
# Elastic Constant Matrix: (Units=GPa)
#
#
# Indices 1 2 3 4 5 6 
#
# 1 121.6036 12.7630 48.8633 0.0000 0.1464 0.0000
# 2 12.7630 72.4573 29.5985 0.0000 -3.2518 0.0000
# 3 48.8633 29.5985 119.7380 -0.0001 24.9722 0.0000
# 4 0.0000 0.0000 -0.0001 16.2476 0.0000 -5.5135
# 5 0.1464 -3.2518 24.9722 0.0000 49.8929 0.0000
# 6 0.0000 0.0000 0.0000 -5.5135 0.0000 8.8507
#
#
#
# Elastic Compliance Matrix: (Units=1/GPa)
#
#
# Indices 1 2 3 4 5 6 
#
# 1 0.010063 0.000229 -0.004645 0.000000 0.002310 0.000000
# 2 0.000229 0.015840 -0.004716 0.000000 0.003392 0.000000
# 3 -0.004645 -0.004716 0.012812 0.000000 -0.006706 0.000000
# 4 0.000000 0.000000 0.000000 0.078046 0.000000 0.048618
# 5 0.002310 0.003392 -0.006706 0.000000 0.023614 0.000000
# 6 0.000000 0.000000 0.000000 0.048618 0.000000 0.143273
#
#
# Mechanical properties :
#
#
# Convention : Reuss Voigt Hill
#
# Bulk Modulus (GPa) = 48.90169 55.13872 52.02020
# Shear Modulus (GPa) = 16.19548 29.83651 23.01600
#
# Velocity S-wave (km/s) = 2.84664 3.86376 3.39353
# Velocity P-wave (km/s) = 5.93906 6.89155 6.43296
#
# Compressibility (1/GPa) = 0.02044919
#
# Stress axis : x y z
#
# Youngs Moduli (GPa) = 99.37284 63.13223 78.05470
#
# Poissons Ratio (x) = -0.01443 0.36256
# Poissons Ratio (y) = -0.02271 0.36812
# Poissons Ratio (z) = 0.46158 0.29775
#
# Static dielectric constant tensor:
#      x y z
#    x 1.909270 0.000000 -0.019340 
#    y 0.000000 1.643550 0.000000 
#    z -0.019340 0.000000 1.740390 
# 
# From -- ./inp_files/233695.got.cif
#   From: 2010.05.17/outbox.cif.g08.bks.cpg/sg15_117_cif.got.tgz:233695.got - 2010.06.03 18:47:42.
