data_PCOD9302290
_publ_section_title
;
Structure prediction by ZEFSAII (Michael W. Deem and Ramdas Pophale) SiO2 
 PCOD9302290
Probable space group: C 2/C
;
_chemical_formula_sum "Si O2"
_cell_formula_units_Z 60
_cell_length_a 9.788523
_cell_length_b 26.227011
_cell_length_c 11.455235
_cell_angle_alpha 90.000000
_cell_angle_beta 98.326177
_cell_angle_gamma 90.000000
_cell_volume 2909.833182
_symmetry_space_group_name_H-M "C 2/C"
_symmetry_group_IT_number 15
_symmetry_cell_setting 'monoclinic'
loop_
_space_group_symop_operation_xyz
x,y,z
-x,y,1/2-z
-x,-y,-z
x,-y,1/2+z
1/2+x,1/2+y,z
1/2-x,1/2+y,1/2-z
1/2-x,1/2-y,-z
1/2+x,1/2-y,1/2+z
loop_
_atom_site_type_symbol
_atom_site_label
_atom_site_fract_x
_atom_site_fract_y
_atom_site_fract_z
Si Si1 0.582442 0.509300 0.387886
Si Si2 0.709305 0.718799 0.106977
Si Si3 0.500000 0.888746 0.250000
Si Si4 0.641943 0.617223 0.327909
Si Si5 0.193117 0.705889 0.824501
Si Si6 0.596478 0.293826 0.971143
Si Si7 0.385047 0.957554 0.447246
Si Si8 0.141226 0.615857 0.335384
O O1 0.500000 0.502336 0.250000
O O2 0.500000 0.500000 0.500000
O O3 0.614467 0.569209 0.403602
O O4 0.732003 0.480939 0.402486
O O5 0.689859 0.757723 0.211718
O O6 0.562744 0.692854 0.060555
O O7 0.820490 0.674827 0.140449
O O8 0.750000 0.750000 0.000000
O O9 0.378149 0.848579 0.201657
O O10 0.446944 0.925275 0.346884
O O11 0.500000 0.632681 0.250000
O O12 0.686959 0.666508 0.405700
O O13 0.741939 0.597987 0.239724
O O14 0.116683 0.738138 0.917350
O O15 0.348091 0.702325 0.891744
O O16 0.363929 0.917611 0.549945
O O17 0.500000 0.000000 0.500000
O O18 0.000000 0.611167 0.250000
#
# Coordination Sequence:
#
# PCOD9302290 Si02
#       8
#     8   8   4   8   8   8   8   8
#     4  11  27  48  77 108 148 187 252 316 380 440
#     4  12  25  43  69 103 150 182 242 298 361 442
#     4  12  28  48  72 104 154 192 246 306 372 444
#     4  11  21  44  73 102 138 188 236 295 358 441
#     4  11  24  44  68 102 142 185 237 288 367 434
#     4  11  23  41  73 101 137 194 230 288 359 444
#     4  12  30  50  76 106 148 198 252 312 378 445
#     4  12  27  44  73 109 141 188 252 301 365 436
#
# _framework density 20.619738999999999
#
# number of rings (size 3 to 8) (size 9 to 14) (size 15 to 20)
#    0.000    0.533    4.000    3.200   10.267    0.000 
#    0.000    0.000    0.000    0.000    0.000    0.000 
#    0.000    0.000    0.000    0.000    0.000    0.000 
#
# Total GULP energy -167469.403475 kJ/mol
# GULP energy per Si atom -5582.313449 kJ/mol
# Density = 2.057281 g / cm^3
# Si number density = 20.619739 Si / 1000 Ang^3
#
#
#
# Elastic Constant Matrix: (Units=GPa)
#
#
# Indices 1 2 3 4 5 6 
#
# 1 104.6428 33.9603 68.8217 0.0000 16.1705 0.0000
# 2 33.9603 118.5853 54.0308 0.0000 9.3647 0.0000
# 3 68.8217 54.0308 115.9864 0.0000 11.8256 0.0000
# 4 0.0000 0.0000 0.0000 50.6123 0.0000 2.4082
# 5 16.1705 9.3647 11.8256 0.0000 28.2079 0.0000
# 6 0.0000 0.0000 0.0000 2.4082 0.0000 44.8934
#
#
#
# Elastic Compliance Matrix: (Units=1/GPa)
#
#
# Indices 1 2 3 4 5 6 
#
# 1 0.016475 -0.000105 -0.009158 0.000000 -0.005570 0.000000
# 2 -0.000105 0.010769 -0.004801 0.000000 -0.001502 0.000000
# 3 -0.009158 -0.004801 0.016291 0.000000 0.000014 0.000000
# 4 0.000000 0.000000 0.000000 0.019809 0.000000 -0.001063
# 5 -0.005570 -0.001502 0.000014 0.000000 0.039137 0.000000
# 6 0.000000 0.000000 0.000000 -0.001063 0.000000 0.022332
#
#
# Mechanical properties :
#
#
# Convention : Reuss Voigt Hill
#
# Bulk Modulus (GPa) = 64.91349 72.53779 68.72564
# Shear Modulus (GPa) = 31.63037 36.90285 34.26661
#
# Velocity S-wave (km/s) = 3.92086 4.23506 4.08098
# Velocity P-wave (km/s) = 7.21437 7.69217 7.45710
#
# Compressibility (1/GPa) = 0.01540512
#
# Stress axis : x y z
#
# Youngs Moduli (GPa) = 60.69984 92.85940 61.38384
#
# Poissons Ratio (x) = 0.00978 0.56218
# Poissons Ratio (y) = 0.00639 0.29470
# Poissons Ratio (z) = 0.55591 0.44581
#
# Static dielectric constant tensor:
#      x y z
#    x 1.729270 0.000000 0.035720 
#    y 0.000000 1.706470 0.000000 
#    z 0.035720 0.000000 1.772350 
# 
# From -- ./inp_files/81352.got.cif
#   From: 2010.05.17/outbox.cif.g08.bks.cpg/sg15_41_cif.got.tgz:81352.got - 2010.06.03 18:47:42.
