data_PCOD9302659
_publ_section_title
;
Structure prediction by ZEFSAII (Michael W. Deem and Ramdas Pophale) SiO2 
 PCOD9302659
Probable space group: C 2/C
;
_chemical_formula_sum "Si O2"
_cell_formula_units_Z 40
_cell_length_a 5.003794
_cell_length_b 24.282044
_cell_length_c 16.451527
_cell_angle_alpha 90.000000
_cell_angle_beta 92.959852
_cell_angle_gamma 90.000000
_cell_volume 1996.232520
_symmetry_space_group_name_H-M "C 2/C"
_symmetry_group_IT_number 15
_symmetry_cell_setting 'monoclinic'
loop_
_space_group_symop_operation_xyz
x,y,z
-x,y,1/2-z
-x,-y,-z
x,-y,1/2+z
1/2+x,1/2+y,z
1/2-x,1/2+y,1/2-z
1/2-x,1/2-y,-z
1/2+x,1/2-y,1/2+z
loop_
_atom_site_type_symbol
_atom_site_label
_atom_site_fract_x
_atom_site_fract_y
_atom_site_fract_z
Si Si1 0.892911 0.818302 0.608417
Si Si2 0.401326 0.346811 0.065388
Si Si3 0.402694 0.804679 0.156470
Si Si4 0.251136 0.038582 0.015548
Si Si5 0.891708 0.614534 0.159993
O O1 0.816376 0.758267 0.638854
O O2 0.637298 0.857738 0.614910
O O3 0.992292 0.819583 0.516722
O O4 0.146905 0.842416 0.661454
O O5 0.654490 0.343663 0.129434
O O6 0.152759 0.315548 0.101117
O O7 0.296852 0.407616 0.041031
O O8 0.500000 0.811705 0.250000
O O9 0.284884 0.063558 0.106142
O O10 0.500000 0.000000 0.000000
O O11 0.000000 0.000000 0.000000
O O12 0.000000 0.599975 0.250000
#
# Coordination Sequence:
#
# PCOD9302659 Si02
#       5
#     8   8   8   8   8
#     4  11  22  39  64  90 124 163 198 240 298 362
#     4  11  23  41  62  88 120 161 208 247 291 362
#     4  12  23  38  60  93 131 164 193 236 295 363
#     4  11  23  43  65  84 115 160 206 252 306 356
#     4  11  22  39  63  95 121 150 203 263 302 343
#
# _framework density 20.037745000000001
#
# number of rings (size 3 to 8) (size 9 to 14) (size 15 to 20)
#    0.000    0.800    0.000   10.800    0.000    0.000 
#    0.000    6.000    0.000    0.000    0.000    0.000 
#    0.000    0.000    0.000    0.000    0.000    0.000 
#
# Total GULP energy -111897.717465 kJ/mol
# GULP energy per Si atom -5594.885873 kJ/mol
# Density = 1.999214 g / cm^3
# Si number density = 20.037745 Si / 1000 Ang^3
#
#
#
# Elastic Constant Matrix: (Units=GPa)
#
#
# Indices 1 2 3 4 5 6 
#
# 1 127.5477 27.7585 29.0440 0.0000 13.7509 0.0000
# 2 27.7585 75.9391 59.6642 0.0000 20.6955 0.0000
# 3 29.0440 59.6642 100.7475 0.0000 24.4063 0.0000
# 4 0.0000 0.0000 0.0000 13.1423 0.0000 5.1025
# 5 13.7509 20.6955 24.4063 0.0000 37.7880 0.0000
# 6 0.0000 0.0000 0.0000 5.1025 0.0000 48.3798
#
#
#
# Elastic Compliance Matrix: (Units=1/GPa)
#
#
# Indices 1 2 3 4 5 6 
#
# 1 0.008651 -0.002030 -0.000946 0.000000 -0.001425 0.000000
# 2 -0.002030 0.025868 -0.013611 0.000000 -0.004638 0.000000
# 3 -0.000946 -0.013611 0.019406 0.000000 -0.004735 0.000000
# 4 0.000000 0.000000 0.000000 0.079339 0.000000 -0.008368
# 5 -0.001425 -0.004638 -0.004735 0.000000 0.032580 0.000000
# 6 0.000000 0.000000 0.000000 -0.008368 0.000000 0.021552
#
#
# Mechanical properties :
#
#
# Convention : Reuss Voigt Hill
#
# Bulk Modulus (GPa) = 48.19134 59.68530 53.93832
# Shear Modulus (GPa) = 21.97905 32.37986 27.17946
#
# Velocity S-wave (km/s) = 3.31551 4.02424 3.68695
# Velocity P-wave (km/s) = 6.22570 7.17243 6.71577
#
# Compressibility (1/GPa) = 0.02075062
#
# Stress axis : x y z
#
# Youngs Moduli (GPa) = 115.59075 38.65721 51.52967
#
# Poissons Ratio (x) = 0.07849 0.04876
# Poissons Ratio (y) = 0.23471 0.70136
# Poissons Ratio (z) = 0.10939 0.52616
#
# Static dielectric constant tensor:
#      x y z
#    x 1.689040 0.000000 0.007670 
#    y 0.000000 1.713740 0.000000 
#    z 0.007670 0.000000 1.723890 
# 
# From -- ./inp_files/129119.got.cif
#   From: 2010.05.17/outbox.cif.g08.bks.cpg/sg15_65_cif.got.tgz:129119.got - 2010.06.03 18:47:42.
