data_PCOD9302978
_publ_section_title
;
Structure prediction by ZEFSAII (Michael W. Deem and Ramdas Pophale) SiO2 
 PCOD9302978
Probable space group: C 2/C
;
_chemical_formula_sum "Si O2"
_cell_formula_units_Z 32
_cell_length_a 21.368929
_cell_length_b 10.041418
_cell_length_c 9.851924
_cell_angle_alpha 90.000000
_cell_angle_beta 149.345970
_cell_angle_gamma 90.000000
_cell_volume 1077.813760
_symmetry_space_group_name_H-M "C 2/C"
_symmetry_group_IT_number 15
_symmetry_cell_setting 'monoclinic'
loop_
_space_group_symop_operation_xyz
x,y,z
-x,y,1/2-z
-x,-y,-z
x,-y,1/2+z
1/2+x,1/2+y,z
1/2-x,1/2+y,1/2-z
1/2-x,1/2-y,-z
1/2+x,1/2-y,1/2+z
loop_
_atom_site_type_symbol
_atom_site_label
_atom_site_fract_x
_atom_site_fract_y
_atom_site_fract_z
Si Si1 0.024879 0.687154 0.947877
Si Si2 0.669924 0.494660 0.171387
Si Si3 0.316345 0.071145 0.716244
Si Si4 0.574012 0.344806 0.279918
O O1 0.898775 0.685504 0.798893
O O2 0.000000 0.733148 0.750000
O O3 0.103888 0.785356 0.190216
O O4 0.082992 0.540795 0.053343
O O5 0.739053 0.521964 0.439720
O O6 0.736954 0.386036 0.199870
O O7 0.526050 0.533940 0.922923
O O8 0.686938 0.605787 0.080124
O O9 0.500000 0.251575 0.250000
#
# Coordination Sequence:
#
# PCOD9302978 Si02
#       4
#     8   8   8   8
#     4  11  23  41  64  96 125 162 206 264 308 362
#     4   9  22  41  62  96 118 173 202 257 316 356
#     4  11  22  41  66  94 120 165 220 247 308 370
#     4   8  23  43  58  93 131 156 206 255 320 367
#
# _framework density 29.689729
#
# number of rings (size 3 to 8) (size 9 to 14) (size 15 to 20)
#    1.500    0.500    2.500    0.000    3.500    6.000 
#    4.500    0.000    0.000    0.000    0.000    0.000 
#    0.000    0.000    0.000    0.000    0.000    0.000 
#
# Total GULP energy -89225.208836 kJ/mol
# GULP energy per Si atom -5576.575552 kJ/mol
# Density = 2.962215 g / cm^3
# Si number density = 29.689729 Si / 1000 Ang^3
#
#
#
# Elastic Constant Matrix: (Units=GPa)
#
#
# Indices 1 2 3 4 5 6 
#
# 1 253.9119 12.4867 63.8270 0.0000 -48.5825 0.0000
# 2 12.4867 58.4381 27.0082 0.0000 12.2268 0.0000
# 3 63.8270 27.0082 123.4938 0.0000 -46.5146 0.0000
# 4 0.0000 0.0000 0.0000 60.0044 0.0000 -3.4131
# 5 -48.5825 12.2268 -46.5146 0.0000 75.6323 0.0000
# 6 0.0000 0.0000 0.0000 -3.4131 0.0000 33.5417
#
#
#
# Elastic Compliance Matrix: (Units=1/GPa)
#
#
# Indices 1 2 3 4 5 6 
#
# 1 0.004782 -0.000870 -0.001394 0.000000 0.002355 0.000000
# 2 -0.000870 0.022939 -0.008036 0.000000 -0.009209 0.000000
# 3 -0.001394 -0.008036 0.013962 0.000000 0.008990 0.000000
# 4 0.000000 0.000000 0.000000 0.016762 0.000000 0.001706
# 5 0.002355 -0.009209 0.008990 0.000000 0.021752 0.000000
# 6 0.000000 0.000000 0.000000 0.001706 0.000000 0.029987
#
#
# Mechanical properties :
#
#
# Convention : Reuss Voigt Hill
#
# Bulk Modulus (GPa) = 47.43304 71.38752 59.41028
# Shear Modulus (GPa) = 36.28113 56.00380 46.14246
#
# Velocity S-wave (km/s) = 3.49952 4.34787 3.94656
# Velocity P-wave (km/s) = 5.68681 7.02154 6.38912
#
# Compressibility (1/GPa) = 0.02108235
#
# Stress axis : x y z
#
# Youngs Moduli (GPa) = 209.10558 43.59443 71.62406
#
# Poissons Ratio (x) = 0.03793 0.09987
# Poissons Ratio (y) = 0.18196 0.57555
# Poissons Ratio (z) = 0.29156 0.35031
#
# Static dielectric constant tensor:
#      x y z
#    x 2.921920 0.000000 0.051540 
#    y 0.000000 2.808080 0.000000 
#    z 0.051540 0.000000 2.385060 
# 
# From -- ./inp_files/55086.got.cif
#   From: 2010.05.17/outbox.cif.g08.bks.cpg/sg15_28_cif.got.tgz:55086.got - 2010.06.03 18:47:42.
