data_PCOD9302665
_publ_section_title
;
Structure prediction by ZEFSAII (Michael W. Deem and Ramdas Pophale) SiO2 
 PCOD9302665
Probable space group: C 2/C
;
_chemical_formula_sum "Si O2"
_cell_formula_units_Z 56
_cell_length_a 27.672249
_cell_length_b 12.387431
_cell_length_c 9.053053
_cell_angle_alpha 90.000000
_cell_angle_beta 61.133089
_cell_angle_gamma 90.000000
_cell_volume 2717.676018
_symmetry_space_group_name_H-M "C 2/C"
_symmetry_group_IT_number 15
_symmetry_cell_setting 'monoclinic'
loop_
_space_group_symop_operation_xyz
x,y,z
-x,y,1/2-z
-x,-y,-z
x,-y,1/2+z
1/2+x,1/2+y,z
1/2-x,1/2+y,1/2-z
1/2-x,1/2-y,-z
1/2+x,1/2-y,1/2+z
loop_
_atom_site_type_symbol
_atom_site_label
_atom_site_fract_x
_atom_site_fract_y
_atom_site_fract_z
Si Si1 0.047940 0.430420 0.004939
Si Si2 0.375453 0.213079 0.497167
Si Si3 0.579181 0.614584 0.794217
Si Si4 0.314178 0.767321 0.380091
Si Si5 0.377541 0.011141 0.851520
Si Si6 0.479675 0.726757 0.035369
Si Si7 0.097742 0.886449 0.616068
O O1 0.067123 0.449116 0.143643
O O2 0.026856 0.310195 0.012276
O O3 0.102201 0.461867 0.832705
O O4 0.000000 0.500000 0.000000
O O5 0.388358 0.290824 0.340618
O O6 0.331803 0.251770 0.683347
O O7 0.433744 0.213960 0.502210
O O8 0.358283 0.094514 0.468691
O O9 0.595340 0.505351 0.688127
O O10 0.513204 0.637745 0.893252
O O11 0.592005 0.607249 0.949148
O O12 0.250000 0.750000 0.500000
O O13 0.337375 0.887024 0.389379
O O14 0.347460 0.679815 0.426025
O O15 0.449096 0.677220 0.221189
#
# Coordination Sequence:
#
# PCOD9302665 Si02
#       7
#     8   8   8   8   8   8   8
#     4  12  22  36  63 104 146 182 213 262 345 423
#     4  11  24  44  66 104 136 179 227 285 343 423
#     4  12  24  43  69  97 145 185 229 276 345 417
#     4  11  26  51  73  95 134 179 239 305 357 396
#     4  12  23  43  66 100 140 176 226 283 341 421
#     4  11  22  39  64 103 147 185 221 263 342 423
#     4  11  25  45  66 100 136 185 239 287 334 416
#
# _framework density 20.605841999999999
#
# number of rings (size 3 to 8) (size 9 to 14) (size 15 to 20)
#    0.000    0.571    4.286    5.143    0.000    3.429 
#    5.143    0.714    0.000    0.000    0.000    0.000 
#    0.000    0.000    0.000    0.000    0.000    0.000 
#
# Total GULP energy -156545.427776 kJ/mol
# GULP energy per Si atom -5590.908135 kJ/mol
# Density = 2.055894 g / cm^3
# Si number density = 20.605842 Si / 1000 Ang^3
#
#
#
# Elastic Constant Matrix: (Units=GPa)
#
#
# Indices 1 2 3 4 5 6 
#
# 1 93.5255 53.5935 70.9048 0.0000 -17.4197 0.0000
# 2 53.5935 129.0403 55.9885 0.0000 3.0385 0.0000
# 3 70.9048 55.9885 165.9304 0.0000 15.0359 0.0000
# 4 0.0000 0.0000 0.0000 36.1476 0.0000 9.2469
# 5 -17.4197 3.0385 15.0359 0.0000 37.5598 0.0000
# 6 0.0000 0.0000 0.0000 9.2469 0.0000 21.5789
#
#
#
# Elastic Compliance Matrix: (Units=1/GPa)
#
#
# Indices 1 2 3 4 5 6 
#
# 1 0.024860 -0.006400 -0.009915 0.000000 0.016016 0.000000
# 2 -0.006400 0.010736 -0.000560 0.000000 -0.003612 0.000000
# 3 -0.009915 -0.000560 0.011274 0.000000 -0.009066 0.000000
# 4 0.000000 0.000000 0.000000 0.031070 0.000000 -0.013314
# 5 0.016016 -0.003612 -0.009066 0.000000 0.037974 0.000000
# 6 0.000000 0.000000 0.000000 -0.013314 0.000000 0.052047
#
#
# Mechanical properties :
#
#
# Convention : Reuss Voigt Hill
#
# Bulk Modulus (GPa) = 76.22448 83.27443 79.74946
# Shear Modulus (GPa) = 24.26203 32.92455 28.59329
#
# Velocity S-wave (km/s) = 3.43510 4.00162 3.72913
# Velocity P-wave (km/s) = 7.26672 7.86456 7.57154
#
# Compressibility (1/GPa) = 0.01311915
#
# Stress axis : x y z
#
# Youngs Moduli (GPa) = 40.22597 93.14652 88.70019
#
# Poissons Ratio (x) = 0.59614 0.87944
# Poissons Ratio (y) = 0.25745 0.04970
# Poissons Ratio (z) = 0.39883 0.05219
#
# Static dielectric constant tensor:
#      x y z
#    x 1.734610 0.000000 0.028930 
#    y 0.000000 1.789680 0.000000 
#    z 0.028930 0.000000 1.755530 
# 
# From -- ./inp_files/65442.got.cif
#   From: 2010.05.17/outbox.cif.g08.bks.cpg/sg15_33_cif.got.tgz:65442.got - 2010.06.03 18:47:42.
