data_PCOD9302195
_publ_section_title
;
Structure prediction by ZEFSAII (Michael W. Deem and Ramdas Pophale) SiO2 
 PCOD9302195
Probable space group: C 2/C
;
_chemical_formula_sum "Si O2"
_cell_formula_units_Z 44
_cell_length_a 4.954734
_cell_length_b 28.405170
_cell_length_c 12.109494
_cell_angle_alpha 90.000000
_cell_angle_beta 95.263606
_cell_angle_gamma 90.000000
_cell_volume 1697.104227
_symmetry_space_group_name_H-M "C 2/C"
_symmetry_group_IT_number 15
_symmetry_cell_setting 'monoclinic'
loop_
_space_group_symop_operation_xyz
x,y,z
-x,y,1/2-z
-x,-y,-z
x,-y,1/2+z
1/2+x,1/2+y,z
1/2-x,1/2+y,1/2-z
1/2-x,1/2-y,-z
1/2+x,1/2-y,1/2+z
loop_
_atom_site_type_symbol
_atom_site_label
_atom_site_fract_x
_atom_site_fract_y
_atom_site_fract_z
Si Si1 0.776543 0.032198 0.333421
Si Si2 0.233405 0.931850 0.167273
Si Si3 0.398697 0.622031 0.118863
Si Si4 0.838247 0.669943 0.630895
Si Si5 0.500000 0.255913 0.250000
Si Si6 0.362517 0.178859 0.073295
O O1 0.500000 0.043164 0.250000
O O2 0.934073 0.073704 0.403933
O O3 0.000000 0.020440 0.250000
O O4 0.758850 0.982166 0.395737
O O5 0.500000 0.937189 0.250000
O O6 0.251243 0.884065 0.097562
O O7 0.000000 0.924072 0.250000
O O8 0.500000 0.627284 0.250000
O O9 0.081061 0.636938 0.112908
O O10 0.556721 0.661511 0.056377
O O11 0.639280 0.709513 0.667892
O O12 0.025784 0.691178 0.542770
O O13 0.000000 0.660360 0.750000
O O14 0.351999 0.219190 0.163915
#
# Coordination Sequence:
#
# PCOD9302195 Si02
#       6
#     8   8   8   8   4   8
#     4   9  17  32  64  97 132 179 220 265 328 397
#     4   9  18  37  62  94 132 179 222 267 325 396
#     4  11  21  43  66 101 139 176 217 277 342 394
#     4  11  27  46  70  98 137 181 227 280 337 403
#     4  12  26  48  70  96 134 176 232 284 346 396
#     4  12  27  43  71 103 135 174 227 282 338 402
#
# _framework density 25.926518000000002
#
# number of rings (size 3 to 8) (size 9 to 14) (size 15 to 20)
#    0.000    1.455    2.727    2.727    5.091    0.727 
#    0.000    1.818    0.000    0.000    0.000    0.000 
#    0.000    0.000    0.000    0.000    0.000    0.000 
#
# Total GULP energy -122612.034918 kJ/mol
# GULP energy per Si atom -5573.274314 kJ/mol
# Density = 2.586751 g / cm^3
# Si number density = 25.926518 Si / 1000 Ang^3
#
#
#
# Elastic Constant Matrix: (Units=GPa)
#
#
# Indices 1 2 3 4 5 6 
#
# 1 118.3228 17.9657 -4.9108 0.0000 1.1927 0.0000
# 2 17.9657 168.9270 14.3062 0.0000 16.1469 0.0000
# 3 -4.9108 14.3062 61.8842 0.0000 -6.7475 0.0000
# 4 0.0000 0.0000 0.0000 -82.1741 0.0000 -74.7954
# 5 1.1927 16.1469 -6.7475 0.0000 41.1856 0.0000
# 6 0.0000 0.0000 0.0000 -74.7954 0.0000 -43.4180
#
#
#
# Elastic Compliance Matrix: (Units=1/GPa)
#
#
# Indices 1 2 3 4 5 6 
#
# 1 0.008645 -0.001030 0.000958 0.000000 0.000310 0.000000
# 2 -0.001030 0.006457 -0.001881 0.000000 -0.002810 0.000000
# 3 0.000958 -0.001881 0.017052 0.000000 0.003503 0.000000
# 4 0.000000 0.000000 0.000000 0.021425 0.000000 -0.036908
# 5 0.000310 -0.002810 0.003503 0.000000 0.025947 0.000000
# 6 0.000000 0.000000 0.000000 -0.036908 0.000000 0.040550
#
#
# Mechanical properties :
#
#
# Convention : Reuss Voigt Hill
#
# Bulk Modulus (GPa) = 35.40125 44.87291 40.13708
# Shear Modulus (GPa) = 37.48207 4.57022 21.02615
#
# Velocity S-wave (km/s) = 3.80637 1.32913 2.85088
# Velocity P-wave (km/s) = 5.74474 4.43855 5.13336
#
# Compressibility (1/GPa) = 0.02824759
#
# Stress axis : x y z
#
# Youngs Moduli (GPa) = 115.68044 154.86714 58.64404
#
# Poissons Ratio (x) = 0.15954 -0.05618
# Poissons Ratio (y) = 0.11917 0.11030
# Poissons Ratio (z) = -0.11082 0.29128
#
# Static dielectric constant tensor:
#      x y z
#    x 2.048120 0.000000 0.085970 
#    y 0.000000 2.200770 0.000000 
#    z 0.085970 0.000000 2.181040 
# 
# From -- ./inp_files/129767.got.cif
#   From: 2010.05.17/outbox.cif.g08.bks.cpg/sg15_65_cif.got.tgz:129767.got - 2010.06.03 18:47:42.
