data_PCOD9302300
_publ_section_title
;
Structure prediction by ZEFSAII (Michael W. Deem and Ramdas Pophale) SiO2 
 PCOD9302300
Probable space group: C 2/C
;
_chemical_formula_sum "Si O2"
_cell_formula_units_Z 56
_cell_length_a 18.074537
_cell_length_b 14.145857
_cell_length_c 21.274059
_cell_angle_alpha 90.000000
_cell_angle_beta 25.796777
_cell_angle_gamma 90.000000
_cell_volume 2367.097708
_symmetry_space_group_name_H-M "C 2/C"
_symmetry_group_IT_number 15
_symmetry_cell_setting 'monoclinic'
loop_
_space_group_symop_operation_xyz
x,y,z
-x,y,1/2-z
-x,-y,-z
x,-y,1/2+z
1/2+x,1/2+y,z
1/2-x,1/2+y,1/2-z
1/2-x,1/2-y,-z
1/2+x,1/2-y,1/2+z
loop_
_atom_site_type_symbol
_atom_site_label
_atom_site_fract_x
_atom_site_fract_y
_atom_site_fract_z
Si Si1 0.364687 0.880351 0.176036
Si Si2 0.670446 0.978518 0.015016
Si Si3 0.428152 0.695189 0.863335
Si Si4 0.154850 0.022407 0.490480
Si Si5 0.192910 0.043717 0.223165
Si Si6 0.091937 0.365145 0.783963
Si Si7 0.380820 0.772730 0.601008
O O1 0.512650 0.911555 0.112194
O O2 0.314888 0.970858 0.169745
O O3 0.199426 0.831345 0.333449
O O4 0.449391 0.797589 0.067891
O O5 0.584237 0.080342 0.085718
O O6 0.747196 0.969274 0.026639
O O7 0.794965 0.981682 0.859905
O O8 0.500000 0.637285 0.750000
O O9 0.419053 0.621379 0.926495
O O10 0.577024 0.773849 0.752280
O O11 0.250000 0.750000 0.000000
O O12 0.270887 0.058758 0.344634
O O13 0.987953 0.963032 0.605018
O O14 0.244287 0.153009 0.179406
O O15 0.098282 0.318177 0.846506
#
# Coordination Sequence:
#
# PCOD9302300 Si02
#       7
#     8   8   8   8   8   8   8
#     4  11  24  45  70  95 135 178 225 278 333 393
#     4  11  21  45  66  91 131 178 217 268 336 400
#     4  12  22  36  54  89 129 167 208 257 330 407
#     4  12  26  37  65  95 131 174 220 274 339 400
#     4  11  23  45  66  97 128 178 222 278 336 397
#     4  12  23  39  59  94 135 166 215 271 334 406
#     4  11  25  42  68  98 129 176 228 274 330 398
#
# _framework density 23.657664
#
# number of rings (size 3 to 8) (size 9 to 14) (size 15 to 20)
#    0.000    0.571    5.714    3.429    4.000    1.714 
#    0.000    0.714    0.000    1.714    0.000    0.000 
#    0.000    0.000    0.000    0.000    0.000    0.000 
#
# Total GULP energy -156158.529950 kJ/mol
# GULP energy per Si atom -5577.090355 kJ/mol
# Density = 2.360382 g / cm^3
# Si number density = 23.657664 Si / 1000 Ang^3
#
#
#
# Elastic Constant Matrix: (Units=GPa)
#
#
# Indices 1 2 3 4 5 6 
#
# 1 26.3763 -9.3278 2.3822 -0.0004 -13.8166 0.0004
# 2 -9.3278 41.5965 2.2244 -0.0107 5.5431 0.0032
# 3 2.3822 2.2244 83.1294 0.0011 7.0122 -0.0032
# 4 -0.0004 -0.0107 0.0011 9.1890 0.0042 17.4968
# 5 -13.8166 5.5431 7.0122 0.0042 22.0901 -0.0023
# 6 0.0004 0.0032 -0.0032 17.4968 -0.0023 17.1237
#
#
#
# Elastic Compliance Matrix: (Units=1/GPa)
#
#
# Indices 1 2 3 4 5 6 
#
# 1 0.061340 0.009001 -0.005183 0.000006 0.037753 -0.000005
# 2 0.009001 0.026195 -0.000904 -0.000044 -0.000656 0.000039
# 3 -0.005183 -0.000904 0.012799 0.000003 -0.007078 -0.000001
# 4 0.000006 -0.000044 0.000003 -0.115086 0.000048 0.117594
# 5 0.037753 -0.000656 -0.007078 0.000048 0.071294 -0.000042
# 6 -0.000005 0.000039 -0.000001 0.117594 -0.000042 -0.061758
#
#
# Mechanical properties :
#
#
# Convention : Reuss Voigt Hill
#
# Bulk Modulus (GPa) = 9.41942 15.73998 12.57970
# Shear Modulus (GPa) = 205.40776 20.06878 112.73827
#
# Velocity S-wave (km/s) = 9.32810 2.91572 6.91068
# Velocity P-wave (km/s) = 10.95483 4.24298 8.30696
#
# Compressibility (1/GPa) = 0.10616369
#
# Stress axis : x y z
#
# Youngs Moduli (GPa) = 16.30252 38.17558 78.12990
#
# Poissons Ratio (x) = -0.34364 0.40496
# Poissons Ratio (y) = -0.14675 0.07059
# Poissons Ratio (z) = 0.08450 0.03449
#
# Static dielectric constant tensor:
#      x y z
#    x 2.880130 0.000320 0.356130 
#    y 0.000320 0.996720 0.000200 
#    z 0.356130 0.000200 2.170230 
# 
# From -- ./inp_files/249218.got.cif
#   From: 2010.05.17/outbox.cif.g08.bks.cpg/sg15_125_cif.got.tgz:249218.got - 2010.06.03 18:47:42.
