data_PCOD9302138
_publ_section_title
;
Structure prediction by ZEFSAII (Michael W. Deem and Ramdas Pophale) SiO2 
 PCOD9302138
Probable space group: C 2/C
;
_chemical_formula_sum "Si O2"
_cell_formula_units_Z 60
_cell_length_a 9.768892
_cell_length_b 14.966903
_cell_length_c 22.114371
_cell_angle_alpha 90.000000
_cell_angle_beta 68.572096
_cell_angle_gamma 90.000000
_cell_volume 3009.848334
_symmetry_space_group_name_H-M "C 2/C"
_symmetry_group_IT_number 15
_symmetry_cell_setting 'monoclinic'
loop_
_space_group_symop_operation_xyz
x,y,z
-x,y,1/2-z
-x,-y,-z
x,-y,1/2+z
1/2+x,1/2+y,z
1/2-x,1/2+y,1/2-z
1/2-x,1/2-y,-z
1/2+x,1/2-y,1/2+z
loop_
_atom_site_type_symbol
_atom_site_label
_atom_site_fract_x
_atom_site_fract_y
_atom_site_fract_z
Si Si1 0.876154 0.195713 0.943516
Si Si2 0.366225 0.121389 0.589152
Si Si3 0.955178 0.679981 0.320822
Si Si4 0.322913 0.840642 0.517642
Si Si5 0.807837 0.569713 0.149311
Si Si6 0.945133 0.095346 0.488911
Si Si7 0.500000 0.385150 0.750000
Si Si8 0.872575 0.185536 0.147904
O O1 0.781313 0.118507 0.927294
O O2 0.941865 0.253982 0.879305
O O3 0.750000 0.250000 0.000000
O O4 0.002785 0.162479 0.966991
O O5 0.508125 0.143539 0.525659
O O6 0.358148 0.209359 0.633287
O O7 0.372118 0.026054 0.619751
O O8 0.789730 0.644703 0.336602
O O9 0.000000 0.723994 0.250000
O O10 0.080460 0.610448 0.319530
O O11 0.250000 0.750000 0.500000
O O12 0.302583 0.863410 0.591733
O O13 0.226652 0.911832 0.496100
O O14 0.641855 0.561929 0.201655
O O15 0.020725 0.135465 0.416531
O O16 0.000000 0.000000 0.500000
O O17 0.565059 0.328167 0.795304
#
# Coordination Sequence:
#
# PCOD9302138 Si02
#       8
#     8   8   8   8   8   8   4   8
#     4  11  21  42  68  91 133 173 217 268 331 397
#     4  11  24  43  64 101 131 169 224 274 333 392
#     4  11  23  42  68  91 126 177 225 261 332 394
#     4  12  22  41  67 101 136 169 214 274 340 388
#     4  12  25  41  68  96 130 176 218 279 324 392
#     4  12  24  39  66 102 129 169 218 274 331 381
#     4  12  24  48  64  90 132 180 216 270 338 390
#     4  11  24  47  65  92 138 175 216 272 329 405
#
# _framework density 19.934557999999999
#
# number of rings (size 3 to 8) (size 9 to 14) (size 15 to 20)
#    0.000    0.533    6.667    2.800    1.867    0.000 
#    6.000    0.000    0.000    0.000    0.000    0.000 
#    0.000    0.000    0.000    0.000    0.000    0.000 
#
# Total GULP energy -167424.426261 kJ/mol
# GULP energy per Si atom -5580.814209 kJ/mol
# Density = 1.988919 g / cm^3
# Si number density = 19.934558 Si / 1000 Ang^3
#
#
#
# Elastic Constant Matrix: (Units=GPa)
#
#
# Indices 1 2 3 4 5 6 
#
# 1 128.0353 10.0827 27.5725 0.0000 7.2945 0.0000
# 2 10.0827 76.9070 38.1979 0.0000 4.8257 0.0000
# 3 27.5725 38.1979 116.8537 0.0000 7.0901 0.0000
# 4 0.0000 0.0000 0.0000 16.5709 0.0000 1.7645
# 5 7.2945 4.8257 7.0901 0.0000 47.1675 0.0000
# 6 0.0000 0.0000 0.0000 1.7645 0.0000 28.3741
#
#
#
# Elastic Compliance Matrix: (Units=1/GPa)
#
#
# Indices 1 2 3 4 5 6 
#
# 1 0.008275 -0.000099 -0.001860 0.000000 -0.000990 0.000000
# 2 -0.000099 0.015557 -0.005012 0.000000 -0.000823 0.000000
# 3 -0.001860 -0.005012 0.010684 0.000000 -0.000806 0.000000
# 4 0.000000 0.000000 0.000000 0.060749 0.000000 -0.003778
# 5 -0.000990 -0.000823 -0.000806 0.000000 0.021559 0.000000
# 6 0.000000 0.000000 0.000000 -0.003778 0.000000 0.035478
#
#
# Mechanical properties :
#
#
# Convention : Reuss Voigt Hill
#
# Bulk Modulus (GPa) = 48.60610 52.61135 50.60873
# Shear Modulus (GPa) = 28.88461 34.81869 31.85165
#
# Velocity S-wave (km/s) = 3.81067 4.18383 4.00160
# Velocity P-wave (km/s) = 6.61796 7.05610 6.84054
#
# Compressibility (1/GPa) = 0.02057355
#
# Stress axis : x y z
#
# Youngs Moduli (GPa) = 120.84401 64.28115 93.59903
#
# Poissons Ratio (x) = 0.00635 0.17411
# Poissons Ratio (y) = 0.01195 0.46912
# Poissons Ratio (z) = 0.22479 0.32218
#
# Static dielectric constant tensor:
#      x y z
#    x 1.736950 0.000000 -0.014280 
#    y 0.000000 1.755160 0.000000 
#    z -0.014280 0.000000 1.715280 
# 
# From -- ./inp_files/264666.got.cif
#   From: 2010.05.17/outbox.cif.g08.bks.cpg/sg15_133_cif.got.tgz:264666.got - 2010.06.03 18:47:42.
