data_PCOD9302854
_publ_section_title
;
Structure prediction by ZEFSAII (Michael W. Deem and Ramdas Pophale) SiO2 
 PCOD9302854
Probable space group: C 2/C
;
_chemical_formula_sum "Si O2"
_cell_formula_units_Z 40
_cell_length_a 28.142501
_cell_length_b 9.335600
_cell_length_c 10.890597
_cell_angle_alpha 90.000000
_cell_angle_beta 145.547607
_cell_angle_gamma 90.000000
_cell_volume 1618.673010
_symmetry_space_group_name_H-M "C 2/C"
_symmetry_group_IT_number 15
_symmetry_cell_setting 'monoclinic'
loop_
_space_group_symop_operation_xyz
x,y,z
-x,y,1/2-z
-x,-y,-z
x,-y,1/2+z
1/2+x,1/2+y,z
1/2-x,1/2+y,1/2-z
1/2-x,1/2-y,-z
1/2+x,1/2-y,1/2+z
loop_
_atom_site_type_symbol
_atom_site_label
_atom_site_fract_x
_atom_site_fract_y
_atom_site_fract_z
Si Si1 0.583124 0.927872 0.124728
Si Si2 0.163809 0.721934 0.247920
Si Si3 0.396910 0.529090 0.728207
Si Si4 0.297648 0.263550 0.448559
Si Si5 0.102683 0.843181 0.538529
O O1 0.637570 0.840478 0.341894
O O2 0.566241 0.814362 0.981881
O O3 0.636991 0.059435 0.191185
O O4 0.500000 0.000000 0.000000
O O5 0.250000 0.750000 0.500000
O O6 0.174266 0.772077 0.131976
O O7 0.104149 0.820542 0.202423
O O8 0.312900 0.426459 0.529117
O O9 0.431771 0.431149 0.916006
O O10 0.415095 0.573702 0.625694
O O11 0.204242 0.194928 0.257296
#
# Coordination Sequence:
#
# PCOD9302854 Si02
#       5
#     8   8   8   8   8
#     4  11  28  48  70 107 152 198 246 310 383 455
#     4  12  23  40  74 104 144 196 250 308 370 436
#     4  11  22  40  67 104 138 192 246 310 366 429
#     4  11  24  42  72 110 147 189 262 307 366 455
#     4  11  23  43  75 108 148 193 256 311 369 446
#
# _framework density 24.711601999999999
#
# number of rings (size 3 to 8) (size 9 to 14) (size 15 to 20)
#    0.000    0.800    4.000    4.800    2.800    0.800 
#    0.000    4.000    8.800    0.000    0.000    0.000 
#    0.000    0.000    0.000    0.000    0.000    0.000 
#
# Total GULP energy -111636.212982 kJ/mol
# GULP energy per Si atom -5581.810649 kJ/mol
# Density = 2.465536 g / cm^3
# Si number density = 24.711602 Si / 1000 Ang^3
#
#
#
# Elastic Constant Matrix: (Units=GPa)
#
#
# Indices 1 2 3 4 5 6 
#
# 1 179.0409 68.3089 61.4813 0.0000 -33.5152 0.0000
# 2 68.3089 178.9276 48.8574 0.0000 -17.2623 0.0000
# 3 61.4813 48.8574 151.2576 0.0000 -20.5753 0.0000
# 4 0.0000 0.0000 0.0000 12.1243 0.0000 -3.5543
# 5 -33.5152 -17.2623 -20.5753 0.0000 40.0843 0.0000
# 6 0.0000 0.0000 0.0000 -3.5543 0.0000 64.3253
#
#
#
# Elastic Compliance Matrix: (Units=1/GPa)
#
#
# Indices 1 2 3 4 5 6 
#
# 1 0.007909 -0.002039 -0.001909 0.000000 0.004755 0.000000
# 2 -0.002039 0.006771 -0.001283 0.000000 0.000552 0.000000
# 3 -0.001909 -0.001283 0.008073 0.000000 0.001995 0.000000
# 4 0.000000 0.000000 0.000000 0.083837 0.000000 0.004632
# 5 0.004755 0.000552 0.001995 0.000000 0.030185 0.000000
# 6 0.000000 0.000000 0.000000 0.004632 0.000000 0.015802
#
#
# Mechanical properties :
#
#
# Convention : Reuss Voigt Hill
#
# Bulk Modulus (GPa) = 81.36824 96.28015 88.82419
# Shear Modulus (GPa) = 29.91561 45.34534 37.63048
#
# Velocity S-wave (km/s) = 3.48313 4.28832 3.90652
# Velocity P-wave (km/s) = 7.01248 7.97281 7.50801
#
# Compressibility (1/GPa) = 0.01228981
#
# Stress axis : x y z
#
# Youngs Moduli (GPa) = 126.43726 147.68776 123.86795
#
# Poissons Ratio (x) = 0.30119 0.23650
# Poissons Ratio (y) = 0.25785 0.15893
# Poissons Ratio (z) = 0.24140 0.18949
#
# Static dielectric constant tensor:
#      x y z
#    x 1.963360 0.000000 0.092520 
#    y 0.000000 1.831230 0.000000 
#    z 0.092520 0.000000 2.095170 
# 
# From -- ./inp_files/125727.got.cif
#   From: 2010.05.17/outbox.cif.g08.bks.cpg/sg15_63_cif.got.tgz:125727.got - 2010.06.03 18:47:42.
