data_PCOD9302752
_publ_section_title
;
Structure prediction by ZEFSAII (Michael W. Deem and Ramdas Pophale) SiO2 
 PCOD9302752
Probable space group: C 2/C
;
_chemical_formula_sum "Si O2"
_cell_formula_units_Z 64
_cell_length_a 8.813603
_cell_length_b 33.030944
_cell_length_c 14.203104
_cell_angle_alpha 90.000000
_cell_angle_beta 50.116256
_cell_angle_gamma 90.000000
_cell_volume 3172.850438
_symmetry_space_group_name_H-M "C 2/C"
_symmetry_group_IT_number 15
_symmetry_cell_setting 'monoclinic'
loop_
_space_group_symop_operation_xyz
x,y,z
-x,y,1/2-z
-x,-y,-z
x,-y,1/2+z
1/2+x,1/2+y,z
1/2-x,1/2+y,1/2-z
1/2-x,1/2-y,-z
1/2+x,1/2-y,1/2+z
loop_
_atom_site_type_symbol
_atom_site_label
_atom_site_fract_x
_atom_site_fract_y
_atom_site_fract_z
Si Si1 0.659902 0.459951 0.770711
Si Si2 0.888648 0.892704 0.391209
Si Si3 0.062474 0.602591 0.407583
Si Si4 0.657727 0.813689 0.767591
Si Si5 0.372708 0.465775 0.106064
Si Si6 0.227671 0.252072 0.124249
Si Si7 0.983596 0.171011 0.513851
Si Si8 0.179958 0.906375 0.510947
O O1 0.500000 0.465461 0.750000
O O2 0.864978 0.437399 0.673431
O O3 0.715253 0.504826 0.781417
O O4 0.534794 0.426883 0.882423
O O5 0.659202 0.901130 0.469624
O O6 0.901817 0.852485 0.449759
O O7 0.000000 0.885670 0.250000
O O8 0.993120 0.930899 0.400426
O O9 0.095135 0.642118 0.330629
O O10 0.209418 0.602841 0.437532
O O11 0.500000 0.800188 0.750000
O O12 0.684286 0.785133 0.848821
O O13 0.866120 0.816876 0.629356
O O14 0.500000 0.500000 0.000000
O O15 0.231574 0.441242 0.091292
O O16 0.357736 0.291208 0.098283
O O17 0.000000 0.256165 0.250000
O O18 0.250000 0.250000 0.000000
O O19 0.840457 0.136100 0.532001
#
# Coordination Sequence:
#
# PCOD9302752 Si02
#       8
#     8   8   8   8   8   8   8   8
#     4   9  17  33  63  95 126 169 223 279 335 402
#     4  11  25  44  64  91 139 182 224 285 350 419
#     4  11  22  39  70 100 125 176 233 277 344 406
#     4  12  25  44  72 107 139 176 238 291 346 420
#     4   9  19  39  60  89 133 174 214 275 344 405
#     4  12  27  47  74 105 142 186 232 290 353 418
#     4  11  23  45  68  98 138 180 224 280 349 418
#     4   9  19  36  64  96 129 168 218 277 332 407
#
# _framework density 20.171136000000001
#
# number of rings (size 3 to 8) (size 9 to 14) (size 15 to 20)
#    0.000    1.500    3.750    1.125    0.000    3.000 
#    0.000   13.125    0.000    0.000    0.000    0.000 
#    0.000    0.000    0.000    0.000    0.000    0.000 
#
# Total GULP energy -178356.577105 kJ/mol
# GULP energy per Si atom -5573.643035 kJ/mol
# Density = 2.012523 g / cm^3
# Si number density = 20.171136 Si / 1000 Ang^3
#
#
#
# Elastic Constant Matrix: (Units=GPa)
#
#
# Indices 1 2 3 4 5 6 
#
# 1 49.0121 16.7636 31.0491 0.0000 6.7488 0.0000
# 2 16.7636 94.8395 35.7554 0.0000 3.4843 0.0000
# 3 31.0491 35.7554 103.0378 0.0000 -1.2266 0.0000
# 4 0.0000 0.0000 0.0000 38.3000 0.0000 12.6904
# 5 6.7488 3.4843 -1.2266 0.0000 33.1247 0.0000
# 6 0.0000 0.0000 0.0000 12.6904 0.0000 26.4329
#
#
#
# Elastic Compliance Matrix: (Units=1/GPa)
#
#
# Indices 1 2 3 4 5 6 
#
# 1 0.026454 -0.001662 -0.007460 0.000000 -0.005491 0.000000
# 2 -0.001662 0.012304 -0.003782 0.000000 -0.001096 0.000000
# 3 -0.007460 -0.003782 0.013294 0.000000 0.002410 0.000000
# 4 0.000000 0.000000 0.000000 0.031049 0.000000 -0.014907
# 5 -0.005491 -0.001096 0.002410 0.000000 0.031512 0.000000
# 6 0.000000 0.000000 0.000000 -0.014907 0.000000 0.044988
#
#
# Mechanical properties :
#
#
# Convention : Reuss Voigt Hill
#
# Bulk Modulus (GPa) = 38.10354 46.00284 42.05319
# Shear Modulus (GPa) = 25.75239 30.45960 28.10600
#
# Velocity S-wave (km/s) = 3.57696 3.89016 3.73685
# Velocity P-wave (km/s) = 5.99922 6.56000 6.28587
#
# Compressibility (1/GPa) = 0.02624428
#
# Stress axis : x y z
#
# Youngs Moduli (GPa) = 37.80207 81.27490 75.22021
#
# Poissons Ratio (x) = 0.13504 0.56116
# Poissons Ratio (y) = 0.06281 0.28448
# Poissons Ratio (z) = 0.28201 0.30738
#
# Static dielectric constant tensor:
#      x y z
#    x 1.738980 0.000000 0.074480 
#    y 0.000000 1.811630 0.000000 
#    z 0.074480 0.000000 1.832810 
# 
# From -- ./inp_files/139804.got.cif
#   From: 2010.05.17/outbox.cif.g08.bks.cpg/sg15_70_cif.got.tgz:139804.got - 2010.06.03 18:47:42.
