data_PCOD9302438
_publ_section_title
;
Structure prediction by ZEFSAII (Michael W. Deem and Ramdas Pophale) SiO2 
 PCOD9302438
Probable space group: C 2/C
;
_chemical_formula_sum "Si O2"
_cell_formula_units_Z 56
_cell_length_a 8.960070
_cell_length_b 13.378012
_cell_length_c 23.836527
_cell_angle_alpha 90.000000
_cell_angle_beta 116.007443
_cell_angle_gamma 90.000000
_cell_volume 2567.903081
_symmetry_space_group_name_H-M "C 2/C"
_symmetry_group_IT_number 15
_symmetry_cell_setting 'monoclinic'
loop_
_space_group_symop_operation_xyz
x,y,z
-x,y,1/2-z
-x,-y,-z
x,-y,1/2+z
1/2+x,1/2+y,z
1/2-x,1/2+y,1/2-z
1/2-x,1/2-y,-z
1/2+x,1/2-y,1/2+z
loop_
_atom_site_type_symbol
_atom_site_label
_atom_site_fract_x
_atom_site_fract_y
_atom_site_fract_z
Si Si1 0.000000 0.144077 0.250000
Si Si2 0.500000 0.063641 0.750000
Si Si3 0.530362 0.655180 0.900719
Si Si4 0.347858 0.214376 0.183398
Si Si5 0.824369 0.971284 0.819511
Si Si6 0.758064 0.799565 0.616491
Si Si7 0.536032 0.163425 0.642728
Si Si8 0.840145 0.476971 0.436818
O O1 0.062312 0.078915 0.208438
O O2 0.158967 0.197331 0.306490
O O3 0.456490 0.116839 0.685005
O O4 0.662994 0.005694 0.759468
O O5 0.587046 0.723831 0.858180
O O6 0.414433 0.563571 0.862396
O O7 0.409812 0.731987 0.914639
O O8 0.701236 0.594396 0.944323
O O9 0.500000 0.196413 0.250000
O O10 0.252698 0.112230 0.151961
O O11 0.204315 0.280283 0.188607
O O12 0.900041 0.745663 0.602192
O O13 0.729246 0.914264 0.593289
O O14 0.591731 0.084552 0.605665
O O15 0.000000 0.500000 0.500000
#
# Coordination Sequence:
#
# PCOD9302438 Si02
#       8
#     4   4   8   8   8   8   8   8
#     4  12  23  40  63 102 148 184 209 276 353 422
#     4  12  23  36  63 102 140 176 217 270 345 424
#     4  11  25  41  65  95 131 175 229 279 341 403
#     4  11  22  36  57  91 134 183 209 260 329 409
#     4  12  23  36  59  95 142 178 218 264 330 419
#     4  12  24  42  70 100 137 177 223 282 351 413
#     4  11  24  42  66  98 134 179 225 277 346 412
#     4  11  27  51  71  95 134 183 242 296 335 395
#
# _framework density 21.807677000000002
#
# number of rings (size 3 to 8) (size 9 to 14) (size 15 to 20)
#    0.000    0.571    5.000    3.000    5.000    1.143 
#    0.000    0.714    0.000    0.000    0.000    0.000 
#    0.000    0.000    0.000    0.000    0.000    0.000 
#
# Total GULP energy -156090.915767 kJ/mol
# GULP energy per Si atom -5574.675563 kJ/mol
# Density = 2.175804 g / cm^3
# Si number density = 21.807677 Si / 1000 Ang^3
#
#
#
# Elastic Constant Matrix: (Units=GPa)
#
#
# Indices 1 2 3 4 5 6 
#
# 1 118.7242 47.7323 14.3558 0.0000 27.9448 0.0000
# 2 47.7323 131.8116 19.6264 0.0000 10.0183 0.0000
# 3 14.3558 19.6264 44.3744 0.0000 26.1083 0.0000
# 4 0.0000 0.0000 0.0000 -152.6766 0.0000 -116.1515
# 5 27.9448 10.0183 26.1083 0.0000 25.5801 0.0000
# 6 0.0000 0.0000 0.0000 -116.1515 0.0000 -52.7749
#
#
#
# Elastic Compliance Matrix: (Units=1/GPa)
#
#
# Indices 1 2 3 4 5 6 
#
# 1 0.016418 -0.005918 0.016259 0.000000 -0.032213 0.000000
# 2 -0.005918 0.010270 -0.010176 0.000000 0.012829 0.000000
# 3 0.016259 -0.010176 0.074801 0.000000 -0.090122 0.000000
# 4 0.000000 0.000000 0.000000 0.009713 0.000000 -0.021376
# 5 -0.032213 0.012829 -0.090122 0.000000 0.161243 0.000000
# 6 0.000000 0.000000 0.000000 -0.021376 0.000000 0.028098
#
#
# Mechanical properties :
#
#
# Convention : Reuss Voigt Hill
#
# Bulk Modulus (GPa) = 9.82132 50.92657 30.37394
# Shear Modulus (GPa) = 14.96325 -21.76123 -3.39899
#
# Velocity S-wave (km/s) = 2.62228 -3.16233 -1.24980
# Velocity P-wave (km/s) = 3.69890 3.17324 3.44611
#
# Compressibility (1/GPa) = 0.10181933
#
# Stress axis : x y z
#
# Youngs Moduli (GPa) = 60.90719 97.37331 13.36883
#
# Poissons Ratio (x) = 0.57626 -0.21736
# Poissons Ratio (y) = 0.36045 0.13604
# Poissons Ratio (z) = -0.99029 0.99084
#
# Static dielectric constant tensor:
#      x y z
#    x 1.818300 0.000000 0.041270 
#    y 0.000000 1.936120 0.000000 
#    z 0.041270 0.000000 1.783200 
# 
# From -- ./inp_files/307589.got.cif
#   From: 2010.05.17/outbox.cif.g08.bks.cpg/sg15_154_cif.got.tgz:307589.got - 2010.06.03 18:47:42.
