data_PCOD9302839
_publ_section_title
;
Structure prediction by ZEFSAII (Michael W. Deem and Ramdas Pophale) SiO2 
 PCOD9302839
Probable space group: C 2/C
;
_chemical_formula_sum "Si O2"
_cell_formula_units_Z 56
_cell_length_a 17.125626
_cell_length_b 10.628859
_cell_length_c 18.275038
_cell_angle_alpha 90.000000
_cell_angle_beta 121.990654
_cell_angle_gamma 90.000000
_cell_volume 2821.344586
_symmetry_space_group_name_H-M "C 2/C"
_symmetry_group_IT_number 15
_symmetry_cell_setting 'monoclinic'
loop_
_space_group_symop_operation_xyz
x,y,z
-x,y,1/2-z
-x,-y,-z
x,-y,1/2+z
1/2+x,1/2+y,z
1/2-x,1/2+y,1/2-z
1/2-x,1/2-y,-z
1/2+x,1/2-y,1/2+z
loop_
_atom_site_type_symbol
_atom_site_label
_atom_site_fract_x
_atom_site_fract_y
_atom_site_fract_z
Si Si1 0.525170 0.552118 0.933042
Si Si2 0.162279 0.009529 0.744146
Si Si3 0.806840 0.274237 0.284984
Si Si4 0.403958 0.196021 0.682779
Si Si5 0.815905 0.065595 0.079824
Si Si6 0.040769 0.311985 0.012769
Si Si7 0.901947 0.560579 0.543213
O O1 0.440378 0.518454 0.838401
O O2 0.619573 0.494577 0.949500
O O3 0.500000 0.500000 0.000000
O O4 0.534010 0.699392 0.952418
O O5 0.205806 0.876441 0.735731
O O6 0.161327 0.997425 0.830959
O O7 0.219376 0.135213 0.752918
O O8 0.854225 0.326411 0.234374
O O9 0.876354 0.290541 0.387951
O O10 0.500000 0.262488 0.750000
O O11 0.342621 0.289151 0.604148
O O12 0.427669 0.081839 0.640726
O O13 0.707774 0.054305 0.014236
O O14 0.949314 0.330583 0.017107
O O15 0.058965 0.435563 0.974215
#
# Coordination Sequence:
#
# PCOD9302839 Si02
#       7
#     8   8   8   8   8   8   8
#     4  12  25  42  70  99 132 177 227 278 345 411
#     4  11  25  45  70  99 137 181 227 282 343 408
#     4  11  23  44  69  99 134 181 227 283 338 405
#     4  11  22  40  66  94 133 177 232 277 334 403
#     4  11  24  43  69  95 133 179 229 285 340 410
#     4  11  24  44  66  97 139 175 219 289 350 397
#     4  11  24  42  66  99 134 177 226 284 342 408
#
# _framework density 19.848692
#
# number of rings (size 3 to 8) (size 9 to 14) (size 15 to 20)
#    0.000    0.857    4.286    3.429    6.000    0.571 
#    2.571    0.000    0.000    0.000    0.000    0.000 
#    0.000    0.000    0.000    0.000    0.000    0.000 
#
# Total GULP energy -156384.752072 kJ/mol
# GULP energy per Si atom -5585.169717 kJ/mol
# Density = 1.980352 g / cm^3
# Si number density = 19.848692 Si / 1000 Ang^3
#
#
#
# Elastic Constant Matrix: (Units=GPa)
#
#
# Indices 1 2 3 4 5 6 
#
# 1 100.7382 11.4054 24.1358 0.0000 9.9155 0.0000
# 2 11.4054 60.0398 15.8297 0.0000 -4.8982 0.0000
# 3 24.1358 15.8297 66.6028 0.0000 -1.2927 0.0000
# 4 0.0000 0.0000 0.0000 28.1624 0.0000 -2.7417
# 5 9.9155 -4.8982 -1.2927 0.0000 35.9378 0.0000
# 6 0.0000 0.0000 0.0000 -2.7417 0.0000 31.6881
#
#
#
# Elastic Compliance Matrix: (Units=1/GPa)
#
#
# Indices 1 2 3 4 5 6 
#
# 1 0.011349 -0.001426 -0.003841 0.000000 -0.003464 0.000000
# 2 -0.001426 0.018135 -0.003741 0.000000 0.002731 0.000000
# 3 -0.003841 -0.003741 0.017318 0.000000 0.001173 0.000000
# 4 0.000000 0.000000 0.000000 0.035810 0.000000 0.003098
# 5 -0.003464 0.002731 0.001173 0.000000 0.029196 0.000000
# 6 0.000000 0.000000 0.000000 0.003098 0.000000 0.031826
#
#
# Mechanical properties :
#
#
# Convention : Reuss Voigt Hill
#
# Bulk Modulus (GPa) = 34.73694 36.68028 35.70861
# Shear Modulus (GPa) = 29.19778 30.89165 30.04471
#
# Velocity S-wave (km/s) = 3.83955 3.94935 3.89483
# Velocity P-wave (km/s) = 6.09877 6.27029 6.18513
#
# Compressibility (1/GPa) = 0.02878779
#
# Stress axis : x y z
#
# Youngs Moduli (GPa) = 88.11032 55.14051 57.74274
#
# Poissons Ratio (x) = 0.07862 0.22180
# Poissons Ratio (y) = 0.12563 0.21599
# Poissons Ratio (z) = 0.33845 0.20626
#
# Static dielectric constant tensor:
#      x y z
#    x 1.708220 0.000000 0.007630 
#    y 0.000000 1.986760 0.000000 
#    z 0.007630 0.000000 1.695370 
# 
# From -- ./inp_files/204533.got.cif
#   From: 2010.05.17/outbox.cif.g08.bks.cpg/sg15_103_cif.got.tgz:204533.got - 2010.06.03 18:47:42.
