data_PCOD9302327
_publ_section_title
;
Structure prediction by ZEFSAII (Michael W. Deem and Ramdas Pophale) SiO2 
 PCOD9302327
Probable space group: C 2/C
;
_chemical_formula_sum "Si O2"
_cell_formula_units_Z 52
_cell_length_a 21.503371
_cell_length_b 7.308336
_cell_length_c 22.248210
_cell_angle_alpha 90.000000
_cell_angle_beta 35.550366
_cell_angle_gamma 90.000000
_cell_volume 2032.866629
_symmetry_space_group_name_H-M "C 2/C"
_symmetry_group_IT_number 15
_symmetry_cell_setting 'monoclinic'
loop_
_space_group_symop_operation_xyz
x,y,z
-x,y,1/2-z
-x,-y,-z
x,-y,1/2+z
1/2+x,1/2+y,z
1/2-x,1/2+y,1/2-z
1/2-x,1/2-y,-z
1/2+x,1/2-y,1/2+z
loop_
_atom_site_type_symbol
_atom_site_label
_atom_site_fract_x
_atom_site_fract_y
_atom_site_fract_z
Si Si1 0.824854 0.544650 0.155869
Si Si2 0.750000 0.750000 0.000000
Si Si3 0.905395 0.814648 0.655803
Si Si4 0.634119 0.354843 0.465687
Si Si5 0.295749 0.163053 0.307046
Si Si6 0.780965 0.605201 0.526945
Si Si7 0.986919 0.544707 0.693943
O O1 0.696564 0.562037 0.250312
O O2 0.843658 0.663322 0.202296
O O3 0.871866 0.659767 0.063843
O O4 0.869737 0.342359 0.135448
O O5 0.817044 0.834200 0.006321
O O6 0.787445 0.923036 0.929128
O O7 0.012870 0.925584 0.557893
O O8 0.940833 0.694653 0.685321
O O9 0.715057 0.489421 0.368362
O O10 0.233994 0.311651 0.395567
O O11 0.397917 0.111718 0.267471
O O12 0.750000 0.750000 0.500000
O O13 0.900393 0.534251 0.416829
O O14 0.000000 0.623884 0.750000
#
# Coordination Sequence:
#
# PCOD9302327 Si02
#       7
#     8   4   8   8   8   8   8
#     4  11  25  48  68 110 151 206 265 322 384 481
#     4  12  26  42  78 118 154 194 260 320 388 484
#     4  11  26  45  74 107 150 206 261 328 397 473
#     4  12  24  48  75 111 153 206 259 329 405 464
#     4  11  26  47  76 110 155 203 266 325 385 485
#     4  12  24  45  77 112 158 200 253 316 396 467
#     4  11  21  45  77 104 153 202 249 332 395 457
#
# _framework density 25.579640000000001
#
# number of rings (size 3 to 8) (size 9 to 14) (size 15 to 20)
#    0.000    0.615    7.692    0.462    2.154    3.077 
#    5.538    0.000   13.538    0.000    0.000    0.000 
#    0.000    0.000    0.000    0.000    0.000    0.000 
#
# Total GULP energy -145025.058749 kJ/mol
# GULP energy per Si atom -5577.886875 kJ/mol
# Density = 2.552142 g / cm^3
# Si number density = 25.579640 Si / 1000 Ang^3
#
#
#
# Elastic Constant Matrix: (Units=GPa)
#
#
# Indices 1 2 3 4 5 6 
#
# 1 154.4860 7.2130 53.7137 -0.0009 31.5593 0.0008
# 2 7.2130 60.1143 2.7713 -0.0007 15.2893 0.0015
# 3 53.7137 2.7713 100.9100 -0.0003 -2.0499 0.0018
# 4 -0.0009 -0.0007 -0.0003 -38.2384 0.0009 -4.6532
# 5 31.5593 15.2893 -2.0499 0.0009 35.7398 -0.0012
# 6 0.0008 0.0015 0.0018 -4.6532 -0.0012 39.1554
#
#
#
# Elastic Compliance Matrix: (Units=1/GPa)
#
#
# Indices 1 2 3 4 5 6 
#
# 1 0.010555 0.001639 -0.005874 0.000000 -0.010358 0.000000
# 2 0.001639 0.018966 -0.001589 0.000000 -0.009652 -0.000001
# 3 -0.005874 -0.001589 0.013215 0.000000 0.006624 0.000000
# 4 0.000000 0.000000 0.000000 -0.025779 0.000001 -0.003064
# 5 -0.010358 -0.009652 0.006624 0.000001 0.041635 0.000002
# 6 0.000000 -0.000001 0.000000 -0.003064 0.000002 0.025175
#
#
# Mechanical properties :
#
#
# Convention : Reuss Voigt Hill
#
# Bulk Modulus (GPa) = 32.16726 49.21180 40.68953
# Shear Modulus (GPa) = 47.26860 24.11884 35.69372
#
# Velocity S-wave (km/s) = 4.30338 3.07399 3.73955
# Velocity P-wave (km/s) = 6.10695 5.64620 5.88109
#
# Compressibility (1/GPa) = 0.03108751
#
# Stress axis : x y z
#
# Youngs Moduli (GPa) = 94.74347 52.72465 75.67418
#
# Poissons Ratio (x) = -0.08640 0.44449
# Poissons Ratio (y) = -0.15526 0.12027
# Poissons Ratio (z) = 0.55649 0.08379
#
# Static dielectric constant tensor:
#      x y z
#    x 2.091590 0.000000 -0.050680 
#    y 0.000000 2.090450 0.000000 
#    z -0.050680 0.000000 2.015910 
# 
# From -- ./inp_files/283301.got.cif
#   From: 2010.05.17/outbox.cif.g08.bks.cpg/sg15_142_cif.got.tgz:283301.got - 2010.06.03 18:47:42.
