data_PCOD9302045
_publ_section_title
;
Structure prediction by ZEFSAII (Michael W. Deem and Ramdas Pophale) SiO2 
 PCOD9302045
Probable space group: C 2/C
;
_chemical_formula_sum "Si O2"
_cell_formula_units_Z 64
_cell_length_a 19.957902
_cell_length_b 27.343318
_cell_length_c 9.240728
_cell_angle_alpha 90.000000
_cell_angle_beta 141.420268
_cell_angle_gamma 90.000000
_cell_volume 3144.709637
_symmetry_space_group_name_H-M "C 2/C"
_symmetry_group_IT_number 15
_symmetry_cell_setting 'monoclinic'
loop_
_space_group_symop_operation_xyz
x,y,z
-x,y,1/2-z
-x,-y,-z
x,-y,1/2+z
1/2+x,1/2+y,z
1/2-x,1/2+y,1/2-z
1/2-x,1/2-y,-z
1/2+x,1/2-y,1/2+z
loop_
_atom_site_type_symbol
_atom_site_label
_atom_site_fract_x
_atom_site_fract_y
_atom_site_fract_z
Si Si1 0.464204 0.815444 0.354215
Si Si2 0.826216 0.131217 0.787241
Si Si3 0.909080 0.372903 0.708895
Si Si4 0.277722 0.356242 0.545162
Si Si5 0.240471 0.544386 0.150686
Si Si6 0.573040 0.471162 0.010737
Si Si7 0.013423 0.205590 0.097571
Si Si8 0.385880 0.023713 0.277517
O O1 0.500000 0.813365 0.250000
O O2 0.541602 0.854463 0.559246
O O3 0.484640 0.761291 0.452942
O O4 0.339797 0.831345 0.155086
O O5 0.711221 0.144151 0.525469
O O6 0.871921 0.077226 0.830169
O O7 0.806487 0.129597 0.927814
O O8 0.914314 0.170913 0.887982
O O9 0.899658 0.431302 0.691707
O O10 0.000000 0.356528 0.750000
O O11 0.274570 0.403053 0.645798
O O12 0.373662 0.319746 0.750232
O O13 0.336227 0.510703 0.373007
O O14 0.159275 0.545153 0.148315
O O15 0.189229 0.515922 0.927341
O O16 0.500000 0.456823 0.750000
O O17 0.500000 0.500000 0.000000
O O18 0.000000 0.207430 0.250000
O O19 0.500000 0.000000 0.500000
#
# Coordination Sequence:
#
# PCOD9302045 Si02
#       8
#     8   8   8   8   8   8   8   8
#     4  11  23  42  67  98 129 171 219 273 331 385
#     4  11  22  42  67  96 131 170 219 270 330 389
#     4  12  24  42  66  94 136 171 215 271 327 391
#     4  11  21  41  68  97 130 169 223 269 319 395
#     4  12  24  40  64  95 128 171 213 259 322 379
#     4  12  24  41  63  91 129 168 215 261 314 384
#     4   9  21  40  68  97 126 171 220 274 330 388
#     4  12  25  41  61  93 131 171 213 262 317 386
#
# _framework density 20.351641000000001
#
# number of rings (size 3 to 8) (size 9 to 14) (size 15 to 20)
#    0.000    0.750    2.500    7.125    0.000    0.500 
#    0.000    0.000    2.750    0.000    0.000    0.000 
#    0.000    0.000    0.000    0.000    0.000    0.000 
#
# Total GULP energy -178829.515233 kJ/mol
# GULP energy per Si atom -5588.422351 kJ/mol
# Density = 2.030532 g / cm^3
# Si number density = 20.351641 Si / 1000 Ang^3
#
#
#
# Elastic Constant Matrix: (Units=GPa)
#
#
# Indices 1 2 3 4 5 6 
#
# 1 70.8224 17.2141 14.1984 0.0000 16.1431 0.0000
# 2 17.2141 82.8395 12.2088 0.0000 28.6734 0.0000
# 3 14.1984 12.2088 94.1218 0.0000 35.5897 0.0000
# 4 0.0000 0.0000 0.0000 19.2312 0.0000 14.2091
# 5 16.1431 28.6734 35.5897 0.0000 34.5503 0.0000
# 6 0.0000 0.0000 0.0000 14.2091 0.0000 -240.6156
#
#
#
# Elastic Compliance Matrix: (Units=1/GPa)
#
#
# Indices 1 2 3 4 5 6 
#
# 1 0.015873 -0.000910 0.000397 0.000000 -0.007071 0.000000
# 2 -0.000910 0.018633 0.005580 0.000000 -0.020787 0.000000
# 3 0.000397 0.005580 0.019102 0.000000 -0.024494 0.000000
# 4 0.000000 0.000000 0.000000 0.049825 0.000000 0.002942
# 5 -0.007071 -0.020787 -0.024494 0.000000 0.074729 0.000000
# 6 0.000000 0.000000 0.000000 0.002942 0.000000 -0.003982
#
#
# Mechanical properties :
#
#
# Convention : Reuss Voigt Hill
#
# Bulk Modulus (GPa) = 15.68771 37.22514 26.45642
# Shear Modulus (GPa) = 26.98435 -23.75600 1.61418
#
# Velocity S-wave (km/s) = 3.64525 -3.42025 0.89155
# Velocity P-wave (km/s) = 5.04402 1.65324 3.75336
#
# Compressibility (1/GPa) = 0.06374417
#
# Stress axis : x y z
#
# Youngs Moduli (GPa) = 63.00029 53.66773 52.34920
#
# Poissons Ratio (x) = 0.04882 -0.02079
# Poissons Ratio (y) = 0.05730 -0.29212
# Poissons Ratio (z) = -0.02502 -0.29948
#
# Static dielectric constant tensor:
#      x y z
#    x 2.065350 0.000000 -0.054520 
#    y 0.000000 1.705350 0.000000 
#    z -0.054520 0.000000 1.729480 
# 
# From -- ./inp_files/52841.got.cif
#   From: 2010.05.17/outbox.cif.g08.bks.cpg/sg15_27_cif.got.tgz:52841.got - 2010.06.03 18:47:42.
