data_PCOD9302787
_publ_section_title
;
Structure prediction by ZEFSAII (Michael W. Deem and Ramdas Pophale) SiO2 
 PCOD9302787
Probable space group: C 2/C
;
_chemical_formula_sum "Si O2"
_cell_formula_units_Z 48
_cell_length_a 20.659515
_cell_length_b 9.992520
_cell_length_c 18.746095
_cell_angle_alpha 90.000000
_cell_angle_beta 140.197609
_cell_angle_gamma 90.000000
_cell_volume 2477.320071
_symmetry_space_group_name_H-M "C 2/C"
_symmetry_group_IT_number 15
_symmetry_cell_setting 'monoclinic'
loop_
_space_group_symop_operation_xyz
x,y,z
-x,y,1/2-z
-x,-y,-z
x,-y,1/2+z
1/2+x,1/2+y,z
1/2-x,1/2+y,1/2-z
1/2-x,1/2-y,-z
1/2+x,1/2-y,1/2+z
loop_
_atom_site_type_symbol
_atom_site_label
_atom_site_fract_x
_atom_site_fract_y
_atom_site_fract_z
Si Si1 0.731244 0.240565 0.067505
Si Si2 0.539381 0.134971 0.951339
Si Si3 0.033391 0.115419 0.624610
Si Si4 0.392845 0.897632 0.827361
Si Si5 0.167888 0.999103 0.108163
Si Si6 0.051071 0.854793 0.717542
O O1 0.698129 0.379070 0.078518
O O2 0.834309 0.190582 0.188167
O O3 0.750000 0.250000 0.000000
O O4 0.646608 0.126821 0.004162
O O5 0.499228 0.278318 0.891539
O O6 0.456713 0.027285 0.858474
O O7 0.568856 0.125497 0.058859
O O8 0.068196 0.262750 0.676510
O O9 0.918627 0.097524 0.497402
O O10 0.112604 0.066663 0.630169
O O11 0.041039 0.010983 0.695276
O O12 0.273301 0.927224 0.718418
O O13 0.000000 0.817115 0.750000
#
# Coordination Sequence:
#
# PCOD9302787 Si02
#       6
#     8   8   8   8   8   8
#     4  12  22  40  67  94 127 171 225 270 314 387
#     4  11  22  40  62  97 124 170 220 265 321 389
#     4  11  23  40  63  95 132 167 215 275 327 391
#     4  11  24  39  66  96 133 165 215 277 330 383
#     4  11  22  40  63  93 129 171 216 267 332 382
#     4  12  23  42  68  93 130 179 222 266 324 395
#
# _framework density 19.375776999999999
#
# number of rings (size 3 to 8) (size 9 to 14) (size 15 to 20)
#    0.000    0.667    6.667    2.000    0.000    4.000 
#    0.000    2.500    0.000    4.000    0.000    0.000 
#    0.000    0.000    0.000    0.000    0.000    0.000 
#
# Total GULP energy -133879.109770 kJ/mol
# GULP energy per Si atom -5578.296240 kJ/mol
# Density = 1.933168 g / cm^3
# Si number density = 19.375777 Si / 1000 Ang^3
#
#
#
# Elastic Constant Matrix: (Units=GPa)
#
#
# Indices 1 2 3 4 5 6 
#
# 1 73.0775 21.1440 28.0117 0.0000 14.3251 0.0000
# 2 21.1440 104.8280 46.2275 0.0000 17.1090 0.0000
# 3 28.0117 46.2275 139.3635 0.0000 41.0461 0.0000
# 4 0.0000 0.0000 0.0000 28.6552 0.0000 7.5583
# 5 14.3251 17.1090 41.0461 0.0000 41.6692 0.0000
# 6 0.0000 0.0000 0.0000 7.5583 0.0000 26.2836
#
#
#
# Elastic Compliance Matrix: (Units=1/GPa)
#
#
# Indices 1 2 3 4 5 6 
#
# 1 0.015430 -0.001929 -0.001595 0.000000 -0.002941 0.000000
# 2 -0.001929 0.011467 -0.003134 0.000000 -0.000958 0.000000
# 3 -0.001595 -0.003134 0.011263 0.000000 -0.009259 0.000000
# 4 0.000000 0.000000 0.000000 0.037762 0.000000 -0.010859
# 5 -0.002941 -0.000958 -0.009259 0.000000 0.034524 0.000000
# 6 0.000000 0.000000 0.000000 -0.010859 0.000000 0.041169
#
#
# Mechanical properties :
#
#
# Convention : Reuss Voigt Hill
#
# Bulk Modulus (GPa) = 40.25116 56.44836 48.34976
# Shear Modulus (GPa) = 28.86644 34.11400 31.49022
#
# Velocity S-wave (km/s) = 3.86401 4.20056 4.03580
# Velocity P-wave (km/s) = 6.38173 7.26106 6.83555
#
# Compressibility (1/GPa) = 0.02484400
#
# Stress axis : x y z
#
# Youngs Moduli (GPa) = 64.80784 87.20859 88.78901
#
# Poissons Ratio (x) = 0.16820 0.14166
# Poissons Ratio (y) = 0.12500 0.27824
# Poissons Ratio (z) = 0.10340 0.27328
#
# Static dielectric constant tensor:
#      x y z
#    x 1.671470 0.000000 0.006280 
#    y 0.000000 1.698150 0.000000 
#    z 0.006280 0.000000 1.757590 
# 
# From -- ./inp_files/252019.got.cif
#   From: 2010.05.17/outbox.cif.g08.bks.cpg/sg15_127_cif.got.tgz:252019.got - 2010.06.03 18:47:42.
