data_PCOD9302772
_publ_section_title
;
Structure prediction by ZEFSAII (Michael W. Deem and Ramdas Pophale) SiO2 
 PCOD9302772
Probable space group: C 2/C
;
_chemical_formula_sum "Si O2"
_cell_formula_units_Z 52
_cell_length_a 19.770628
_cell_length_b 5.354061
_cell_length_c 18.494123
_cell_angle_alpha 90.000000
_cell_angle_beta 107.105437
_cell_angle_gamma 90.000000
_cell_volume 1871.064216
_symmetry_space_group_name_H-M "C 2/C"
_symmetry_group_IT_number 15
_symmetry_cell_setting 'monoclinic'
loop_
_space_group_symop_operation_xyz
x,y,z
-x,y,1/2-z
-x,-y,-z
x,-y,1/2+z
1/2+x,1/2+y,z
1/2-x,1/2+y,1/2-z
1/2-x,1/2-y,-z
1/2+x,1/2-y,1/2+z
loop_
_atom_site_type_symbol
_atom_site_label
_atom_site_fract_x
_atom_site_fract_y
_atom_site_fract_z
Si Si1 0.889615 0.808314 0.584479
Si Si2 0.554158 0.284230 0.494104
Si Si3 0.793509 0.346872 0.943815
Si Si4 0.133646 0.229055 0.263264
Si Si5 0.684002 0.668110 0.130402
Si Si6 0.000000 0.113142 0.750000
Si Si7 0.519064 0.993791 0.146356
O O1 0.867621 0.619348 0.512667
O O2 0.846365 0.757411 0.645572
O O3 0.969278 0.749243 0.634282
O O4 0.890860 0.076216 0.545557
O O5 0.500000 0.500000 0.500000
O O6 0.603109 0.258767 0.581856
O O7 0.497758 0.104095 0.436715
O O8 0.750000 0.250000 0.000000
O O9 0.775111 0.607305 0.898506
O O10 0.802630 0.111483 0.893572
O O11 0.190538 0.168838 0.219261
O O12 0.092304 0.461209 0.212531
O O13 0.071257 0.025016 0.247116
O O14 0.022192 0.300827 0.819724
#
# Coordination Sequence:
#
# PCOD9302772 Si02
#       7
#     8   8   8   8   8   4   8
#     4  11  22  40  60  94 127 177 216 268 332 389
#     4  11  23  37  59  93 138 183 219 257 315 412
#     4  11  26  51  73  93 123 172 234 295 347 390
#     4  12  24  38  58 103 139 173 216 262 327 412
#     4  11  26  43  70 100 131 170 226 282 335 396
#     4  12  20  34  54  90 146 182 206 248 308 402
#     4  12  20  34  59  86 137 179 214 249 319 397
#
# _framework density 27.79167
#
# number of rings (size 3 to 8) (size 9 to 14) (size 15 to 20)
#    0.000    0.615    6.154    2.308    6.462    1.231 
#    0.000    1.538    0.000    0.000    0.000    0.000 
#    0.000    0.000    0.000    0.000    0.000    0.000 
#
# Total GULP energy -145067.579908 kJ/mol
# GULP energy per Si atom -5579.522304 kJ/mol
# Density = 2.772841 g / cm^3
# Si number density = 27.791670 Si / 1000 Ang^3
#
#
#
# Elastic Constant Matrix: (Units=GPa)
#
#
# Indices 1 2 3 4 5 6 
#
# 1 42.8730 -14.7130 -3.3034 0.0000 -5.7783 0.0000
# 2 -14.7130 91.6735 36.1799 -0.0001 4.6341 0.0000
# 3 -3.3034 36.1799 226.6580 0.0000 -31.9336 0.0000
# 4 0.0000 -0.0001 0.0000 47.5311 0.0000 -4.6235
# 5 -5.7783 4.6341 -31.9336 0.0000 28.3894 0.0000
# 6 0.0000 0.0000 0.0000 -4.6235 0.0000 38.9568
#
#
#
# Elastic Compliance Matrix: (Units=1/GPa)
#
#
# Indices 1 2 3 4 5 6 
#
# 1 0.025292 0.003594 0.000520 0.000000 0.005146 0.000000
# 2 0.003594 0.012716 -0.002575 0.000000 -0.004240 0.000000
# 3 0.000520 -0.002575 0.005828 0.000000 0.007082 0.000000
# 4 0.000000 0.000000 0.000000 0.021285 0.000000 0.002526
# 5 0.005146 -0.004240 0.007082 0.000000 0.044930 0.000000
# 6 0.000000 0.000000 0.000000 0.002526 0.000000 0.025969
#
#
# Mechanical properties :
#
#
# Convention : Reuss Voigt Hill
#
# Bulk Modulus (GPa) = 21.31578 44.17015 32.74297
# Shear Modulus (GPa) = 33.65209 45.84487 39.74848
#
# Velocity S-wave (km/s) = 3.48353 4.06592 3.78594
# Velocity P-wave (km/s) = 4.88533 6.16199 5.56042
#
# Compressibility (1/GPa) = 0.04691360
#
# Stress axis : x y z
#
# Youngs Moduli (GPa) = 39.53873 78.64388 171.57743
#
# Poissons Ratio (x) = -0.28263 -0.08922
# Poissons Ratio (y) = -0.14209 0.44176
# Poissons Ratio (z) = -0.02056 0.20249
#
# Static dielectric constant tensor:
#      x y z
#    x 2.908970 0.000000 0.272730 
#    y 0.000000 2.217070 0.000000 
#    z 0.272730 0.000000 2.549490 
# 
# From -- ./inp_files/220944.got.cif
#   From: 2010.05.17/outbox.cif.g08.bks.cpg/sg15_111_cif.got.tgz:220944.got - 2010.06.03 18:47:42.
