data_PCOD9302717
_publ_section_title
;
Structure prediction by ZEFSAII (Michael W. Deem and Ramdas Pophale) SiO2 
 PCOD9302717
Probable space group: C 2/C
;
_chemical_formula_sum "Si O2"
_cell_formula_units_Z 48
_cell_length_a 11.787504
_cell_length_b 17.575190
_cell_length_c 12.043111
_cell_angle_alpha 90.000000
_cell_angle_beta 66.767893
_cell_angle_gamma 90.000000
_cell_volume 2292.638850
_symmetry_space_group_name_H-M "C 2/C"
_symmetry_group_IT_number 15
_symmetry_cell_setting 'monoclinic'
loop_
_space_group_symop_operation_xyz
x,y,z
-x,y,1/2-z
-x,-y,-z
x,-y,1/2+z
1/2+x,1/2+y,z
1/2-x,1/2+y,1/2-z
1/2-x,1/2-y,-z
1/2+x,1/2-y,1/2+z
loop_
_atom_site_type_symbol
_atom_site_label
_atom_site_fract_x
_atom_site_fract_y
_atom_site_fract_z
Si Si1 0.447584 0.416029 0.658785
Si Si2 0.614445 0.184009 0.463621
Si Si3 0.269635 0.810299 0.827177
Si Si4 0.666718 0.642234 0.962045
Si Si5 0.364979 0.417907 0.262883
Si Si6 0.842724 0.653263 0.535788
O O1 0.500000 0.376023 0.750000
O O2 0.345809 0.366726 0.637939
O O3 0.568766 0.421251 0.537213
O O4 0.390899 0.495432 0.719081
O O5 0.663807 0.185721 0.317589
O O6 0.607192 0.273607 0.498252
O O7 0.713437 0.144872 0.506820
O O8 0.481583 0.145050 0.524777
O O9 0.215725 0.728695 0.884820
O O10 0.351312 0.834898 0.900387
O O11 0.685469 0.625962 0.825567
O O12 0.500000 0.386827 0.250000
O O13 0.258946 0.410177 0.395821
#
# Coordination Sequence:
#
# PCOD9302717 Si02
#       6
#     8   8   8   8   8   8
#     4  11  22  42  68  94 132 179 221 274 330 400
#     4  11  23  39  67 102 132 171 220 275 342 393
#     4  11  22  41  67  96 137 172 224 274 336 389
#     4  11  22  39  67 100 133 171 216 278 333 400
#     4  11  25  42  67  97 131 174 232 273 332 397
#     4  11  24  40  69  99 133 176 223 278 327 402
#
# _framework density 20.936572000000002
#
# number of rings (size 3 to 8) (size 9 to 14) (size 15 to 20)
#    0.000    1.000    5.000    2.000    2.333    2.000 
#    0.000    0.833    3.667    0.000    0.000    0.000 
#    0.000    0.000    0.000    0.000    0.000    0.000 
#
# Total GULP energy -134052.788476 kJ/mol
# GULP energy per Si atom -5585.532853 kJ/mol
# Density = 2.088892 g / cm^3
# Si number density = 20.936572 Si / 1000 Ang^3
#
#
#
# Elastic Constant Matrix: (Units=GPa)
#
#
# Indices 1 2 3 4 5 6 
#
# 1 150.0212 37.3944 48.8850 0.0000 -4.1695 0.0000
# 2 37.3944 63.7516 10.8150 0.0000 2.1673 0.0000
# 3 48.8850 10.8150 104.5084 0.0000 8.0120 0.0000
# 4 0.0000 0.0000 0.0000 19.4671 0.0000 -2.9589
# 5 -4.1695 2.1673 8.0120 0.0000 32.4939 0.0000
# 6 0.0000 0.0000 0.0000 -2.9589 0.0000 21.5222
#
#
#
# Elastic Compliance Matrix: (Units=1/GPa)
#
#
# Indices 1 2 3 4 5 6 
#
# 1 0.009248 -0.004828 -0.004018 0.000000 0.002499 0.000000
# 2 -0.004828 0.018501 0.000495 0.000000 -0.001976 0.000000
# 3 -0.004018 0.000495 0.011659 0.000000 -0.003423 0.000000
# 4 0.000000 0.000000 0.000000 0.052465 0.000000 0.007213
# 5 0.002499 -0.001976 -0.003423 0.000000 0.032072 0.000000
# 6 0.000000 0.000000 0.000000 0.007213 0.000000 0.047455
#
#
# Mechanical properties :
#
#
# Convention : Reuss Voigt Hill
#
# Bulk Modulus (GPa) = 44.03928 56.94112 50.49020
# Shear Modulus (GPa) = 25.55332 29.44245 27.49789
#
# Velocity S-wave (km/s) = 3.49737 3.75409 3.62800
# Velocity P-wave (km/s) = 6.11466 6.78579 6.45895
#
# Compressibility (1/GPa) = 0.02270700
#
# Stress axis : x y z
#
# Youngs Moduli (GPa) = 108.13422 54.05156 85.76943
#
# Poissons Ratio (x) = 0.26095 0.34460
# Poissons Ratio (y) = 0.52205 -0.04247
# Poissons Ratio (z) = 0.43446 -0.02676
#
# Static dielectric constant tensor:
#      x y z
#    x 1.727890 0.000000 0.009470 
#    y 0.000000 1.763050 0.000000 
#    z 0.009470 0.000000 1.877200 
# 
# From -- ./inp_files/88376.got.cif
#   From: 2010.05.17/outbox.cif.g08.bks.cpg/sg15_45_cif.got.tgz:88376.got - 2010.06.03 18:47:42.
