data_PCOD9302221
_publ_section_title
;
Structure prediction by ZEFSAII (Michael W. Deem and Ramdas Pophale) SiO2 
 PCOD9302221
Probable space group: C 2/C
;
_chemical_formula_sum "Si O2"
_cell_formula_units_Z 64
_cell_length_a 26.190513
_cell_length_b 19.956332
_cell_length_c 11.393913
_cell_angle_alpha 90.000000
_cell_angle_beta 28.801122
_cell_angle_gamma 90.000000
_cell_volume 2869.050083
_symmetry_space_group_name_H-M "C 2/C"
_symmetry_group_IT_number 15
_symmetry_cell_setting 'monoclinic'
loop_
_space_group_symop_operation_xyz
x,y,z
-x,y,1/2-z
-x,-y,-z
x,-y,1/2+z
1/2+x,1/2+y,z
1/2-x,1/2+y,1/2-z
1/2-x,1/2-y,-z
1/2+x,1/2-y,1/2+z
loop_
_atom_site_type_symbol
_atom_site_label
_atom_site_fract_x
_atom_site_fract_y
_atom_site_fract_z
Si Si1 0.972380 0.907576 0.170579
Si Si2 0.380366 0.088011 0.440963
Si Si3 0.558941 0.201603 0.753572
Si Si4 0.270917 0.928498 0.915409
Si Si5 0.533352 0.252634 0.049508
Si Si6 0.315209 0.568178 0.342949
Si Si7 0.755368 0.811222 0.124357
Si Si8 0.159148 0.429758 0.971520
O O1 0.852397 0.910200 0.362832
O O2 0.000000 0.929630 0.250000
O O3 0.003072 0.829563 0.103205
O O4 0.059677 0.942337 0.910791
O O5 0.500000 0.101766 0.250000
O O6 0.336724 0.096124 0.395364
O O7 0.295697 0.135638 0.679369
O O8 0.374585 0.006951 0.464506
O O9 0.500000 0.206493 0.750000
O O10 0.649471 0.258791 0.550994
O O11 0.599359 0.124174 0.672589
O O12 0.497737 0.217407 0.998951
O O13 0.255817 0.009289 0.957776
O O14 0.336669 0.906398 0.669992
O O15 0.500000 0.233765 0.250000
O O16 0.656873 0.235993 0.794853
O O17 0.290287 0.637636 0.454035
O O18 0.277363 0.570471 0.285030
#
# Coordination Sequence:
#
# PCOD9302221 Si02
#       8
#     8   8   8   8   8   8   8   8
#     4  11  22  40  72 105 147 188 233 291 357 431
#     4  11  27  48  71 103 144 192 240 299 358 424
#     4  12  27  44  72 109 144 188 240 297 361 432
#     4  11  25  43  71 109 143 186 240 297 356 425
#     4  11  25  44  72 101 139 190 236 285 363 429
#     4  11  21  43  70 104 144 187 238 287 359 432
#     4  12  24  46  74 101 141 193 233 295 362 434
#     4  11  23  46  73 103 143 188 243 294 354 425
#
# _framework density 22.307034999999999
#
# number of rings (size 3 to 8) (size 9 to 14) (size 15 to 20)
#    0.000    0.750    5.000    2.250    3.500    2.500 
#    0.000    1.875    0.000    0.000    0.000    0.000 
#    0.000    0.000    0.000    0.000    0.000    0.000 
#
# Total GULP energy -178189.572584 kJ/mol
# GULP energy per Si atom -5568.424143 kJ/mol
# Density = 2.225626 g / cm^3
# Si number density = 22.307035 Si / 1000 Ang^3
#
#
#
# Elastic Constant Matrix: (Units=GPa)
#
#
# Indices 1 2 3 4 5 6 
#
# 1 138.6399 32.1355 48.3296 0.0000 -4.7102 0.0000
# 2 32.1355 132.4307 27.8113 0.0000 -2.2242 0.0000
# 3 48.3296 27.8113 79.0630 0.0000 2.4929 0.0000
# 4 0.0000 0.0000 0.0000 -28.9511 0.0000 3.9225
# 5 -4.7102 -2.2242 2.4929 0.0000 40.4732 0.0000
# 6 0.0000 0.0000 0.0000 3.9225 0.0000 30.9484
#
#
#
# Elastic Compliance Matrix: (Units=1/GPa)
#
#
# Indices 1 2 3 4 5 6 
#
# 1 0.009400 -0.001126 -0.005393 0.000000 0.001364 0.000000
# 2 -0.001126 0.008304 -0.002248 0.000000 0.000464 0.000000
# 3 -0.005393 -0.002248 0.016792 0.000000 -0.001785 0.000000
# 4 0.000000 0.000000 0.000000 -0.033958 0.000000 0.004304
# 5 0.001364 0.000464 -0.001785 0.000000 0.025002 0.000000
# 6 0.000000 0.000000 0.000000 0.004304 0.000000 0.031766
#
#
# Mechanical properties :
#
#
# Convention : Reuss Voigt Hill
#
# Bulk Modulus (GPa) = 58.95093 62.96516 60.95805
# Shear Modulus (GPa) = 62.11644 24.61791 43.36718
#
# Velocity S-wave (km/s) = 5.28267 3.32564 4.41398
# Velocity P-wave (km/s) = 7.98080 6.56006 7.30505
#
# Compressibility (1/GPa) = 0.01696326
#
# Stress axis : x y z
#
# Youngs Moduli (GPa) = 106.38004 120.42317 59.55253
#
# Poissons Ratio (x) = 0.13554 0.32118
# Poissons Ratio (y) = 0.11973 0.13385
# Poissons Ratio (z) = 0.57374 0.27067
#
# Static dielectric constant tensor:
#      x y z
#    x 1.873230 0.000000 0.016270 
#    y 0.000000 1.744120 0.000000 
#    z 0.016270 0.000000 1.871500 
# 
# From -- ./inp_files/124262.got.cif
#   From: 2010.05.17/outbox.cif.g08.bks.cpg/sg15_63_cif.got.tgz:124262.got - 2010.06.03 18:47:42.
