data_PCOD9302802
_publ_section_title
;
Structure prediction by ZEFSAII (Michael W. Deem and Ramdas Pophale) SiO2 
 PCOD9302802
Probable space group: C 2/C
;
_chemical_formula_sum "Si O2"
_cell_formula_units_Z 56
_cell_length_a 27.017661
_cell_length_b 9.648293
_cell_length_c 13.860408
_cell_angle_alpha 90.000000
_cell_angle_beta 129.272253
_cell_angle_gamma 90.000000
_cell_volume 2797.033047
_symmetry_space_group_name_H-M "C 2/C"
_symmetry_group_IT_number 15
_symmetry_cell_setting 'monoclinic'
loop_
_space_group_symop_operation_xyz
x,y,z
-x,y,1/2-z
-x,-y,-z
x,-y,1/2+z
1/2+x,1/2+y,z
1/2-x,1/2+y,1/2-z
1/2-x,1/2-y,-z
1/2+x,1/2-y,1/2+z
loop_
_atom_site_type_symbol
_atom_site_label
_atom_site_fract_x
_atom_site_fract_y
_atom_site_fract_z
Si Si1 0.514901 0.565236 0.121985
Si Si2 0.606137 0.978730 0.639552
Si Si3 0.338534 0.477127 0.654735
Si Si4 0.187844 0.786049 0.240529
Si Si5 0.499507 0.889188 0.364429
Si Si6 0.821446 0.233910 0.300503
Si Si7 0.123762 0.012574 0.509200
O O1 0.584830 0.510682 0.234767
O O2 0.517182 0.732241 0.124102
O O3 0.451624 0.527794 0.105040
O O4 0.500000 0.500000 0.000000
O O5 0.652780 0.854710 0.725244
O O6 0.566210 0.933363 0.495485
O O7 0.554028 0.010468 0.657325
O O8 0.645067 0.118718 0.669287
O O9 0.304906 0.610466 0.660270
O O10 0.316998 0.345138 0.691925
O O11 0.333566 0.468930 0.533696
O O12 0.253352 0.753235 0.266989
O O13 0.143576 0.869880 0.110071
O O14 0.500000 0.893441 0.250000
O O15 0.861986 0.131828 0.419835
#
# Coordination Sequence:
#
# PCOD9302802 Si02
#       7
#     8   8   8   8   8   8   8
#     4  12  19  40  67  95 124 158 204 260 320 376
#     4  11  22  40  64  92 128 163 202 256 318 375
#     4  11  23  41  67  94 122 163 212 259 310 372
#     4  11  24  43  63  89 127 169 211 255 307 367
#     4  11  23  38  62  95 127 159 199 259 321 375
#     4  11  24  43  63  89 127 169 211 255 307 367
#     4  11  23  41  67  94 122 163 212 259 310 372
#
# _framework density 20.021215999999999
#
# number of rings (size 3 to 8) (size 9 to 14) (size 15 to 20)
#    0.000    0.857    5.714    3.000    0.000    3.429 
#    0.000    2.857    0.000    0.000    0.000    0.000 
#    0.000    0.000    0.000    0.000    0.000    0.000 
#
# Total GULP energy -156493.921221 kJ/mol
# GULP energy per Si atom -5589.068615 kJ/mol
# Density = 1.997565 g / cm^3
# Si number density = 20.021216 Si / 1000 Ang^3
#
#
#
# Elastic Constant Matrix: (Units=GPa)
#
#
# Indices 1 2 3 4 5 6 
#
# 1 95.6865 21.6772 1.7374 0.0000 -10.7238 0.0000
# 2 21.6772 109.9383 10.6370 0.0000 -8.0953 0.0000
# 3 1.7374 10.6370 20.7673 0.0000 -20.2766 0.0000
# 4 0.0000 0.0000 0.0000 1.6380 0.0000 2.2075
# 5 -10.7238 -8.0953 -20.2766 0.0000 46.9476 0.0000
# 6 0.0000 0.0000 0.0000 2.2075 0.0000 31.8229
#
#
#
# Elastic Compliance Matrix: (Units=1/GPa)
#
#
# Indices 1 2 3 4 5 6 
#
# 1 0.011352 -0.002346 0.004130 0.000000 0.003973 0.000000
# 2 -0.002346 0.010073 -0.006554 0.000000 -0.001630 0.000000
# 3 0.004130 -0.006554 0.088157 0.000000 0.037888 0.000000
# 4 0.000000 0.000000 0.000000 0.673440 0.000000 -0.046715
# 5 0.003973 -0.001630 0.037888 0.000000 0.038291 0.000000
# 6 0.000000 0.000000 0.000000 -0.046715 0.000000 0.034664
#
#
# Mechanical properties :
#
#
# Convention : Reuss Voigt Hill
#
# Bulk Modulus (GPa) = 9.99561 32.72168 21.35865
# Shear Modulus (GPa) = 5.56257 28.90440 17.23349
#
# Velocity S-wave (km/s) = 1.66864 3.80371 2.93706
# Velocity P-wave (km/s) = 2.95226 5.97243 4.71093
#
# Compressibility (1/GPa) = 0.10004389
#
# Stress axis : x y z
#
# Youngs Moduli (GPa) = 88.08728 99.27892 11.34334
#
# Poissons Ratio (x) = 0.23286 -0.04685
# Poissons Ratio (y) = 0.20661 0.07435
# Poissons Ratio (z) = -0.36383 0.65068
#
# Static dielectric constant tensor:
#      x y z
#    x 1.726010 0.000000 -0.004540 
#    y 0.000000 1.678430 0.000000 
#    z -0.004540 0.000000 1.718860 
# 
# From -- ./inp_files/176670.got.cif
#   From: 2010.05.17/outbox.cif.g08.bks.cpg/sg15_89_cif.got.tgz:176670.got - 2010.06.03 18:47:42.
