data_PCOD9302775
_publ_section_title
;
Structure prediction by ZEFSAII (Michael W. Deem and Ramdas Pophale) SiO2 
 PCOD9302775
Probable space group: C 2/C
;
_chemical_formula_sum "Si O2"
_cell_formula_units_Z 40
_cell_length_a 16.706340
_cell_length_b 17.423723
_cell_length_c 11.885221
_cell_angle_alpha 90.000000
_cell_angle_beta 34.048905
_cell_angle_gamma 90.000000
_cell_volume 1937.047439
_symmetry_space_group_name_H-M "C 2/C"
_symmetry_group_IT_number 15
_symmetry_cell_setting 'monoclinic'
loop_
_space_group_symop_operation_xyz
x,y,z
-x,y,1/2-z
-x,-y,-z
x,-y,1/2+z
1/2+x,1/2+y,z
1/2-x,1/2+y,1/2-z
1/2-x,1/2-y,-z
1/2+x,1/2-y,1/2+z
loop_
_atom_site_type_symbol
_atom_site_label
_atom_site_fract_x
_atom_site_fract_y
_atom_site_fract_z
Si Si1 0.148782 0.981984 0.389889
Si Si2 0.337010 0.631651 0.981103
Si Si3 0.900520 0.187631 0.471706
Si Si4 0.615789 0.241385 0.893147
Si Si5 0.130432 0.403847 0.524946
O O1 0.123018 0.903450 0.487893
O O2 0.189433 0.052162 0.422477
O O3 0.273958 0.964330 0.154576
O O4 0.000000 0.000000 0.500000
O O5 0.324930 0.701114 0.081626
O O6 0.235249 0.636668 0.992429
O O7 0.500000 0.630285 0.750000
O O8 0.744103 0.224957 0.656661
O O9 0.000000 0.204601 0.250000
O O10 0.984704 0.218528 0.483172
O O11 0.577926 0.161443 0.998933
O O12 0.000000 0.436111 0.750000
#
# Coordination Sequence:
#
# PCOD9302775 Si02
#       5
#     8   8   8   8   8
#     4  11  22  41  64  94 123 166 219 257 298 391
#     4  12  21  38  69  90 124 173 214 256 313 369
#     4  11  23  40  65  89 128 167 210 257 319 369
#     4  11  22  40  61  94 128 161 216 260 304 386
#     4  11  24  40  61  95 131 162 207 265 326 361
#
# _framework density 20.649984
#
# number of rings (size 3 to 8) (size 9 to 14) (size 15 to 20)
#    0.000    0.800    4.000    4.800    0.000    0.800 
#    0.000    1.000    0.000    0.000    0.000    0.000 
#    0.000    0.000    0.000    0.000    0.000    0.000 
#
# Total GULP energy -111891.155677 kJ/mol
# GULP energy per Si atom -5594.557784 kJ/mol
# Density = 2.060298 g / cm^3
# Si number density = 20.649984 Si / 1000 Ang^3
#
#
#
# Elastic Constant Matrix: (Units=GPa)
#
#
# Indices 1 2 3 4 5 6 
#
# 1 38.2448 -4.5133 -1.7274 0.0001 7.1023 -0.0001
# 2 -4.5133 88.1629 35.9688 0.0000 8.6731 -0.0001
# 3 -1.7274 35.9688 154.7895 0.0001 14.4906 -0.0002
# 4 0.0001 0.0000 0.0001 22.5576 -0.0001 0.2478
# 5 7.1023 8.6731 14.4906 -0.0001 28.2860 0.0002
# 6 -0.0001 -0.0001 -0.0002 0.2478 0.0002 16.9332
#
#
#
# Elastic Compliance Matrix: (Units=1/GPa)
#
#
# Indices 1 2 3 4 5 6 
#
# 1 0.027874 0.001962 0.000595 0.000000 -0.007905 0.000000
# 2 0.001962 0.012835 -0.002674 0.000000 -0.003058 0.000000
# 3 0.000595 -0.002674 0.007380 0.000000 -0.003110 0.000000
# 4 0.000000 0.000000 0.000000 0.044338 0.000000 -0.000649
# 5 -0.007905 -0.003058 -0.003110 0.000000 0.039869 -0.000001
# 6 0.000000 0.000000 0.000000 -0.000649 -0.000001 0.059065
#
#
# Mechanical properties :
#
#
# Convention : Reuss Voigt Hill
#
# Bulk Modulus (GPa) = 20.89698 37.85040 29.37369
# Shear Modulus (GPa) = 24.09098 30.31995 27.20547
#
# Velocity S-wave (km/s) = 3.41931 3.83597 3.63362
# Velocity P-wave (km/s) = 5.07252 6.16351 5.64444
#
# Compressibility (1/GPa) = 0.04785380
#
# Stress axis : x y z
#
# Youngs Moduli (GPa) = 35.87594 77.91202 135.50864
#
# Poissons Ratio (x) = -0.15285 -0.08066
# Poissons Ratio (y) = -0.07038 0.36239
# Poissons Ratio (z) = -0.02135 0.20836
#
# Static dielectric constant tensor:
#      x y z
#    x 1.718520 0.000000 0.000390 
#    y 0.000000 1.708260 0.000000 
#    z 0.000390 0.000000 1.750850 
# 
# From -- ./inp_files/38030.got.cif
#   From: 2010.05.17/outbox.cif.g08.bks.cpg/sg15_20_cif.got.tgz:38030.got - 2010.06.03 18:47:42.
