data_PCOD9302765
_publ_section_title
;
Structure prediction by ZEFSAII (Michael W. Deem and Ramdas Pophale) SiO2 
 PCOD9302765
Probable space group: C 2/C
;
_chemical_formula_sum "Si O2"
_cell_formula_units_Z 56
_cell_length_a 29.653181
_cell_length_b 7.301720
_cell_length_c 19.495058
_cell_angle_alpha 90.000000
_cell_angle_beta 32.015077
_cell_angle_gamma 90.000000
_cell_volume 2237.760163
_symmetry_space_group_name_H-M "C 2/C"
_symmetry_group_IT_number 15
_symmetry_cell_setting 'monoclinic'
loop_
_space_group_symop_operation_xyz
x,y,z
-x,y,1/2-z
-x,-y,-z
x,-y,1/2+z
1/2+x,1/2+y,z
1/2-x,1/2+y,1/2-z
1/2-x,1/2-y,-z
1/2+x,1/2-y,1/2+z
loop_
_atom_site_type_symbol
_atom_site_label
_atom_site_fract_x
_atom_site_fract_y
_atom_site_fract_z
Si Si1 0.520037 0.714123 0.559136
Si Si2 0.739538 0.992545 0.188295
Si Si3 0.394356 0.420417 0.686949
Si Si4 0.082546 0.984012 0.607624
Si Si5 0.773302 0.577276 0.633709
Si Si6 0.658796 0.191655 0.084538
Si Si7 0.924578 0.444162 0.193863
O O1 0.430541 0.620974 0.655569
O O2 0.580684 0.635297 0.422305
O O3 0.549679 0.624462 0.591265
O O4 0.506133 0.931440 0.570451
O O5 0.747303 0.209480 0.166676
O O6 0.654855 0.939920 0.256404
O O7 0.722939 0.965242 0.290731
O O8 0.829253 0.907174 0.042372
O O9 0.294477 0.444546 0.814839
O O10 0.440229 0.272866 0.676870
O O11 0.116636 0.112826 0.624758
O O12 0.000000 0.885962 0.750000
O O13 0.845385 0.585725 0.483365
O O14 0.750000 0.250000 0.000000
O O15 0.611345 0.053610 0.195598
#
# Coordination Sequence:
#
# PCOD9302765 Si02
#       7
#     8   8   8   8   8   8   8
#     4  11  23  45  65 100 141 179 229 285 346 413
#     4  11  23  40  67 102 134 178 231 289 338 409
#     4  11  24  41  69 101 132 181 229 287 347 411
#     4  11  22  39  72  93 134 189 227 274 357 409
#     4  11  22  42  65 100 139 172 231 286 344 409
#     4  11  22  42  69 101 135 185 229 285 350 416
#     4  12  23  43  73  95 137 186 234 279 349 414
#
# _framework density 25.025023000000001
#
# number of rings (size 3 to 8) (size 9 to 14) (size 15 to 20)
#    0.000    0.857    7.143    1.286    2.000    0.571 
#    0.000    1.429    3.143    0.000    0.000    0.000 
#    0.000    0.000    0.000    0.000    0.000    0.000 
#
# Total GULP energy -156236.991327 kJ/mol
# GULP energy per Si atom -5579.892547 kJ/mol
# Density = 2.496807 g / cm^3
# Si number density = 25.025023 Si / 1000 Ang^3
#
#
#
# Elastic Constant Matrix: (Units=GPa)
#
#
# Indices 1 2 3 4 5 6 
#
# 1 54.4206 -4.7577 29.9168 0.0124 0.1594 0.0017
# 2 -4.7577 63.5300 -1.0762 -0.0067 5.1208 -0.0113
# 3 29.9168 -1.0762 102.3986 -0.0050 12.6981 -0.0003
# 4 0.0124 -0.0067 -0.0050 30.3164 0.0011 2.0485
# 5 0.1594 5.1208 12.6981 0.0011 39.6471 0.0020
# 6 0.0017 -0.0113 -0.0003 2.0485 0.0020 38.9312
#
#
#
# Elastic Compliance Matrix: (Units=1/GPa)
#
#
# Indices 1 2 3 4 5 6 
#
# 1 0.022173 0.001396 -0.006696 -0.000010 0.001875 0.000000
# 2 0.001396 0.016013 0.000018 0.000003 -0.002080 0.000005
# 3 -0.006696 0.000018 0.012204 0.000005 -0.003884 0.000000
# 4 -0.000010 0.000003 0.000005 0.033103 -0.000003 -0.001742
# 5 0.001875 -0.002080 -0.003884 -0.000003 0.026728 -0.000002
# 6 0.000000 0.000005 0.000000 -0.001742 -0.000002 0.025778
#
#
# Mechanical properties :
#
#
# Convention : Reuss Voigt Hill
#
# Bulk Modulus (GPa) = 25.10883 29.83503 27.47193
# Shear Modulus (GPa) = 31.28180 34.86337 33.07259
#
# Velocity S-wave (km/s) = 3.53940 3.73653 3.63930
# Velocity P-wave (km/s) = 5.17285 5.52843 5.35359
#
# Compressibility (1/GPa) = 0.03982663
#
# Stress axis : x y z
#
# Youngs Moduli (GPa) = 45.10005 62.44896 81.94117
#
# Poissons Ratio (x) = -0.08717 0.54867
# Poissons Ratio (y) = -0.06296 -0.00150
# Poissons Ratio (z) = 0.30199 -0.00115
#
# Static dielectric constant tensor:
#      x y z
#    x 1.993670 -0.000010 0.009410 
#    y -0.000010 2.039420 0.000010 
#    z 0.009410 0.000010 2.080390 
# 
# From -- ./inp_files/224381.got.cif
#   From: 2010.05.17/outbox.cif.g08.bks.cpg/sg15_113_cif.got.tgz:224381.got - 2010.06.03 18:47:42.
