data_PCOD9302277
_publ_section_title
;
Structure prediction by ZEFSAII (Michael W. Deem and Ramdas Pophale) SiO2 
 PCOD9302277
Probable space group: C 2/C
;
_chemical_formula_sum "Si O2"
_cell_formula_units_Z 48
_cell_length_a 23.728370
_cell_length_b 20.154375
_cell_length_c 14.691516
_cell_angle_alpha 90.000000
_cell_angle_beta 160.084041
_cell_angle_gamma 90.000000
_cell_volume 2393.323118
_symmetry_space_group_name_H-M "C 2/C"
_symmetry_group_IT_number 15
_symmetry_cell_setting 'monoclinic'
loop_
_space_group_symop_operation_xyz
x,y,z
-x,y,1/2-z
-x,-y,-z
x,-y,1/2+z
1/2+x,1/2+y,z
1/2-x,1/2+y,1/2-z
1/2-x,1/2-y,-z
1/2+x,1/2-y,1/2+z
loop_
_atom_site_type_symbol
_atom_site_label
_atom_site_fract_x
_atom_site_fract_y
_atom_site_fract_z
Si Si1 0.936109 0.166294 0.550922
Si Si2 0.185918 0.076467 0.554129
Si Si3 0.843138 0.486962 0.117233
Si Si4 0.712218 0.858252 0.002220
Si Si5 0.229878 0.459863 0.691322
Si Si6 0.382383 0.809804 0.439551
O O1 0.818291 0.102565 0.370920
O O2 0.846565 0.232074 0.377861
O O3 0.000000 0.180265 0.750000
O O4 0.099475 0.151218 0.740329
O O5 0.253783 0.032877 0.573731
O O6 0.299622 0.140463 0.743002
O O7 0.193010 0.027582 0.651976
O O8 0.000000 0.096782 0.250000
O O9 0.033901 0.464626 0.412921
O O10 0.838183 0.565417 0.090465
O O11 0.756822 0.455336 0.897575
O O12 0.679646 0.835904 0.056086
O O13 0.581639 0.817043 0.743183
#
# Coordination Sequence:
#
# PCOD9302277 Si02
#       6
#     8   8   8   8   8   8
#     4  12  26  39  68 103 126 174 225 276 324 394
#     4  12  25  41  67  98 127 177 224 267 333 395
#     4  11  23  42  71  94 131 178 215 280 336 380
#     4  11  21  44  70  92 131 173 217 278 335 376
#     4  11  23  43  64  99 133 166 224 277 327 387
#     4  11  24  43  65  95 136 171 220 274 332 392
#
# _framework density 20.055796000000001
#
# number of rings (size 3 to 8) (size 9 to 14) (size 15 to 20)
#    0.000    0.667    5.000    4.500    4.667    1.333 
#    3.000    0.833    0.000    0.000    0.000    0.000 
#    0.000    0.000    0.000    0.000    0.000    0.000 
#
# Total GULP energy -134247.315560 kJ/mol
# GULP energy per Si atom -5593.638148 kJ/mol
# Density = 2.001015 g / cm^3
# Si number density = 20.055796 Si / 1000 Ang^3
#
#
#
# Elastic Constant Matrix: (Units=GPa)
#
#
# Indices 1 2 3 4 5 6 
#
# 1 48.6602 -0.0749 26.2773 0.0000 10.2535 0.0000
# 2 -0.0749 124.3072 30.3437 0.0000 6.3009 0.0000
# 3 26.2773 30.3437 74.5333 0.0000 0.4532 0.0000
# 4 0.0000 0.0000 0.0000 27.3524 0.0000 -9.4088
# 5 10.2535 6.3009 0.4532 0.0000 26.7743 0.0000
# 6 0.0000 0.0000 0.0000 -9.4088 0.0000 10.7681
#
#
#
# Elastic Compliance Matrix: (Units=1/GPa)
#
#
# Indices 1 2 3 4 5 6 
#
# 1 0.029375 0.003475 -0.011699 0.000000 -0.011869 0.000000
# 2 0.003475 0.009456 -0.005054 0.000000 -0.003471 0.000000
# 3 -0.011699 -0.005054 0.019566 0.000000 0.005338 0.000000
# 4 0.000000 0.000000 0.000000 0.052271 0.000000 0.045672
# 5 -0.011869 -0.003471 0.005338 0.000000 0.042621 0.000000
# 6 0.000000 0.000000 0.000000 0.045672 0.000000 0.132774
#
#
# Mechanical properties :
#
#
# Convention : Reuss Voigt Hill
#
# Bulk Modulus (GPa) = 31.40511 40.06589 35.73550
# Shear Modulus (GPa) = 15.46876 25.70924 20.58900
#
# Velocity S-wave (km/s) = 2.78022 3.58423 3.20751
# Velocity P-wave (km/s) = 5.09892 6.09504 5.61910
#
# Compressibility (1/GPa) = 0.03184195
#
# Stress axis : x y z
#
# Youngs Moduli (GPa) = 34.04308 105.75010 51.10813
#
# Poissons Ratio (x) = -0.36748 0.59790
# Poissons Ratio (y) = -0.11830 0.25829
# Poissons Ratio (z) = 0.39826 0.53444
#
# Static dielectric constant tensor:
#      x y z
#    x 1.709650 0.000000 -0.009060 
#    y 0.000000 1.698490 0.000000 
#    z -0.009060 0.000000 1.701710 
# 
# From -- ./inp_files/174551.got.cif
#   From: 2010.05.17/outbox.cif.g08.bks.cpg/sg15_88_cif.got.tgz:174551.got - 2010.06.03 18:47:42.
