data_PCOD9302969
_publ_section_title
;
Structure prediction by ZEFSAII (Michael W. Deem and Ramdas Pophale) SiO2 
 PCOD9302969
Probable space group: C 2/C
;
_chemical_formula_sum "Si O2"
_cell_formula_units_Z 48
_cell_length_a 27.459052
_cell_length_b 5.056623
_cell_length_c 13.708513
_cell_angle_alpha 90.000000
_cell_angle_beta 87.036941
_cell_angle_gamma 90.000000
_cell_volume 1900.883294
_symmetry_space_group_name_H-M "C 2/C"
_symmetry_group_IT_number 15
_symmetry_cell_setting 'monoclinic'
loop_
_space_group_symop_operation_xyz
x,y,z
-x,y,1/2-z
-x,-y,-z
x,-y,1/2+z
1/2+x,1/2+y,z
1/2-x,1/2+y,1/2-z
1/2-x,1/2-y,-z
1/2+x,1/2-y,1/2+z
loop_
_atom_site_type_symbol
_atom_site_label
_atom_site_fract_x
_atom_site_fract_y
_atom_site_fract_z
Si Si1 0.718630 0.825163 0.243531
Si Si2 0.399104 0.798425 0.792264
Si Si3 0.055263 0.380025 0.385485
Si Si4 0.858274 0.054691 0.119448
Si Si5 0.450540 0.868491 0.416061
Si Si6 0.652794 0.584084 0.084638
O O1 0.763763 0.624970 0.253570
O O2 0.680689 0.758497 0.333327
O O3 0.691550 0.734186 0.147846
O O4 0.381073 0.601339 0.708210
O O5 0.355953 0.714675 0.873415
O O6 0.417953 0.026681 0.714979
O O7 0.443561 0.844333 0.864192
O O8 0.094616 0.192805 0.430898
O O9 0.047141 0.606309 0.467241
O O10 0.002077 0.258795 0.374036
O O11 0.835007 0.901625 0.030938
O O12 0.400367 0.720568 0.395652
#
# Coordination Sequence:
#
# PCOD9302969 Si02
#       6
#     8   8   8   8   8   8
#     4  11  29  49  78 113 145 188 253 321 387 455
#     4  11  22  41  65  97 140 196 231 293 358 429
#     4  11  24  41  68 107 149 192 246 298 359 443
#     4  11  25  45  75 102 145 192 242 309 375 449
#     4  11  24  41  68 107 149 192 246 298 359 443
#     4  11  25  45  75 102 145 192 242 309 375 449
#
# _framework density 25.251421000000001
#
# number of rings (size 3 to 8) (size 9 to 14) (size 15 to 20)
#    0.000    1.000    3.333    2.500    9.333    4.667 
#    0.000    0.000    0.000    0.000    0.000    0.000 
#    0.000    0.000    0.000    0.000    0.000    0.000 
#
# Total GULP energy -133725.294158 kJ/mol
# GULP energy per Si atom -5571.887257 kJ/mol
# Density = 2.519395 g / cm^3
# Si number density = 25.251421 Si / 1000 Ang^3
#
#
#
# Elastic Constant Matrix: (Units=GPa)
#
#
# Indices 1 2 3 4 5 6 
#
# 1 113.0291 21.0054 16.2977 0.0000 16.0327 0.0000
# 2 21.0054 31.1660 7.9770 0.0000 1.5111 0.0000
# 3 16.2977 7.9770 153.4325 0.0000 10.6429 0.0000
# 4 0.0000 0.0000 0.0000 20.4574 0.0000 2.7497
# 5 16.0327 1.5111 10.6429 0.0000 29.9378 0.0000
# 6 0.0000 0.0000 0.0000 2.7497 0.0000 43.5342
#
#
#
# Elastic Compliance Matrix: (Units=1/GPa)
#
#
# Indices 1 2 3 4 5 6 
#
# 1 0.010977 -0.007028 -0.000428 0.000000 -0.005372 0.000000
# 2 -0.007028 0.037052 -0.001344 0.000000 0.002372 0.000000
# 3 -0.000428 -0.001344 0.006779 0.000000 -0.002113 0.000000
# 4 0.000000 0.000000 0.000000 0.049301 0.000000 -0.003114
# 5 -0.005372 0.002372 -0.002113 0.000000 0.036911 0.000000
# 6 0.000000 0.000000 0.000000 -0.003114 0.000000 0.023167
#
#
# Mechanical properties :
#
#
# Convention : Reuss Voigt Hill
#
# Bulk Modulus (GPa) = 26.87626 43.13198 35.00412
# Shear Modulus (GPa) = 25.74776 35.60902 30.67839
#
# Velocity S-wave (km/s) = 3.19667 3.75931 3.48935
# Velocity P-wave (km/s) = 4.92864 5.99677 5.48875
#
# Compressibility (1/GPa) = 0.03720756
#
# Stress axis : x y z
#
# Youngs Moduli (GPa) = 91.09866 26.98876 147.50467
#
# Poissons Ratio (x) = 0.18969 0.06313
# Poissons Ratio (y) = 0.64028 0.19829
# Poissons Ratio (z) = 0.03899 0.03628
#
# Static dielectric constant tensor:
#      x y z
#    x 2.013150 0.000000 0.024580 
#    y 0.000000 2.155640 0.000000 
#    z 0.024580 0.000000 1.995370 
# 
# From -- ./inp_files/179731.got.cif
#   From: 2010.05.17/outbox.cif.g08.bks.cpg/sg15_90_cif.got.tgz:179731.got - 2010.06.03 18:47:42.
