data_PCOD9302381
_publ_section_title
;
Structure prediction by ZEFSAII (Michael W. Deem and Ramdas Pophale) SiO2 
 PCOD9302381
Probable space group: C 2/C
;
_chemical_formula_sum "Si O2"
_cell_formula_units_Z 52
_cell_length_a 33.782030
_cell_length_b 16.098877
_cell_length_c 7.885995
_cell_angle_alpha 90.000000
_cell_angle_beta 148.551436
_cell_angle_gamma 90.000000
_cell_volume 2237.618581
_symmetry_space_group_name_H-M "C 2/C"
_symmetry_group_IT_number 15
_symmetry_cell_setting 'monoclinic'
loop_
_space_group_symop_operation_xyz
x,y,z
-x,y,1/2-z
-x,-y,-z
x,-y,1/2+z
1/2+x,1/2+y,z
1/2-x,1/2+y,1/2-z
1/2-x,1/2-y,-z
1/2+x,1/2-y,1/2+z
loop_
_atom_site_type_symbol
_atom_site_label
_atom_site_fract_x
_atom_site_fract_y
_atom_site_fract_z
Si Si1 0.363907 0.342137 0.959879
Si Si2 0.413180 0.677565 0.982998
Si Si3 0.000000 0.129289 0.750000
Si Si4 0.795113 0.436188 0.471808
Si Si5 0.876909 0.037178 0.079728
Si Si6 0.805230 0.377709 0.146040
Si Si7 0.176985 0.700782 0.151249
O O1 0.370881 0.293236 0.160489
O O2 0.434933 0.318399 0.104852
O O3 0.379413 0.440211 0.052960
O O4 0.276672 0.341772 0.598000
O O5 0.500000 0.668624 0.250000
O O6 0.379307 0.588997 0.914167
O O7 0.394409 0.741452 0.062141
O O8 0.950549 0.070653 0.445992
O O9 0.807393 0.532795 0.560522
O O10 0.821246 0.382434 0.728978
O O11 0.702114 0.435770 0.122354
O O12 0.834201 0.402040 0.442274
O O13 0.825176 0.318342 0.057721
O O14 0.250000 0.750000 0.500000
#
# Coordination Sequence:
#
# PCOD9302381 Si02
#       7
#     8   8   4   8   8   8   8
#     4  11  22  33  54  85 125 172 208 238 292 373
#     4  12  25  42  57  85 133 171 201 261 313 366
#     4  12  20  30  46  82 122 164 212 222 274 370
#     4  11  22  41  66  92 123 162 213 267 309 367
#     4  11  22  33  54  85 125 172 208 238 292 373
#     4  11  22  41  66  92 123 162 213 267 309 367
#     4  12  24  42  64  95 128 164 214 258 322 372
#
# _framework density 23.238993000000001
#
# number of rings (size 3 to 8) (size 9 to 14) (size 15 to 20)
#    0.000    0.615    7.692    1.385    6.462    0.615 
#    2.769    0.000    0.000    0.923    0.000    0.000 
#    0.000    0.000    0.000    0.000    0.000    0.000 
#
# Total GULP energy -145124.093839 kJ/mol
# GULP energy per Si atom -5581.695917 kJ/mol
# Density = 2.318610 g / cm^3
# Si number density = 23.238993 Si / 1000 Ang^3
#
#
#
# Elastic Constant Matrix: (Units=GPa)
#
#
# Indices 1 2 3 4 5 6 
#
# 1 181.2744 56.2196 11.6981 0.0000 -0.1585 0.0000
# 2 56.2196 107.4586 14.7404 0.0000 6.4507 0.0000
# 3 11.6981 14.7404 16.6152 0.0000 -8.8251 0.0000
# 4 0.0000 0.0000 0.0000 19.0292 0.0000 -11.1764
# 5 -0.1585 6.4507 -8.8251 0.0000 23.3678 0.0000
# 6 0.0000 0.0000 0.0000 -11.1764 0.0000 32.2936
#
#
#
# Elastic Compliance Matrix: (Units=1/GPa)
#
#
# Indices 1 2 3 4 5 6 
#
# 1 0.006635 -0.003276 -0.001577 0.000000 0.000354 0.000000
# 2 -0.003276 0.013599 -0.014715 0.000000 -0.009333 0.000000
# 3 -0.001577 -0.014715 0.095699 0.000000 0.040193 0.000000
# 4 0.000000 0.000000 0.000000 0.065958 0.000000 0.022827
# 5 0.000354 -0.009333 0.040193 0.000000 0.060552 0.000000
# 6 0.000000 0.000000 0.000000 0.022827 0.000000 0.038866
#
#
# Mechanical properties :
#
#
# Convention : Reuss Voigt Hill
#
# Bulk Modulus (GPa) = 13.02145 52.29604 32.65874
# Shear Modulus (GPa) = 14.44908 29.78415 22.11661
#
# Velocity S-wave (km/s) = 2.49622 3.58389 3.08831
# Velocity P-wave (km/s) = 3.73143 6.29906 5.17695
#
# Compressibility (1/GPa) = 0.07679635
#
# Stress axis : x y z
#
# Youngs Moduli (GPa) = 150.72582 73.53702 10.44942
#
# Poissons Ratio (x) = 0.24090 0.01648
# Poissons Ratio (y) = 0.49377 0.15376
# Poissons Ratio (z) = 0.23768 1.08210
#
# Static dielectric constant tensor:
#      x y z
#    x 1.985900 0.000000 -0.075600 
#    y 0.000000 1.924080 0.000000 
#    z -0.075600 0.000000 1.904610 
# 
# From -- ./inp_files/70181.got.cif
#   From: 2010.05.17/outbox.cif.g08.bks.cpg/sg15_36_cif.got.tgz:70181.got - 2010.06.03 18:47:42.
