data_PCOD9302137
_publ_section_title
;
Structure prediction by ZEFSAII (Michael W. Deem and Ramdas Pophale) SiO2 
 PCOD9302137
Probable space group: C 2/C
;
_chemical_formula_sum "Si O2"
_cell_formula_units_Z 36
_cell_length_a 7.420991
_cell_length_b 17.431615
_cell_length_c 14.103134
_cell_angle_alpha 90.000000
_cell_angle_beta 69.172671
_cell_angle_gamma 90.000000
_cell_volume 1705.167512
_symmetry_space_group_name_H-M "C 2/C"
_symmetry_group_IT_number 15
_symmetry_cell_setting 'monoclinic'
loop_
_space_group_symop_operation_xyz
x,y,z
-x,y,1/2-z
-x,-y,-z
x,-y,1/2+z
1/2+x,1/2+y,z
1/2-x,1/2+y,1/2-z
1/2-x,1/2-y,-z
1/2+x,1/2-y,1/2+z
loop_
_atom_site_type_symbol
_atom_site_label
_atom_site_fract_x
_atom_site_fract_y
_atom_site_fract_z
Si Si1 0.500000 0.453452 0.250000
Si Si2 0.910795 0.332288 0.962023
Si Si3 0.559322 0.857592 0.130338
Si Si4 0.007754 0.165869 0.921654
Si Si5 0.086768 0.471108 0.832455
O O1 0.491087 0.396521 0.162030
O O2 0.690802 0.504971 0.212811
O O3 0.067948 0.680626 0.928185
O O4 0.979022 0.254894 0.898486
O O5 0.040533 0.405085 0.914898
O O6 0.687270 0.350264 0.982838
O O7 0.500000 0.836352 0.250000
O O8 0.782909 0.839769 0.070766
O O9 0.523194 0.948736 0.129639
O O10 0.000000 0.441347 0.750000
#
# Coordination Sequence:
#
# PCOD9302137 Si02
#       5
#     4   8   8   8   8
#     4  12  22  44  66  90 130 180 204 262 322 378
#     4  11  25  41  65  99 128 165 217 265 312 385
#     4  11  21  42  68  91 128 169 211 259 320 380
#     4  11  23  41  67  93 129 169 211 261 326 368
#     4  11  24  43  63  95 129 170 215 261 314 378
#
# _framework density 21.112293999999999
#
# number of rings (size 3 to 8) (size 9 to 14) (size 15 to 20)
#    0.000    0.889    6.667    1.333    1.556    2.667 
#    2.000    0.000    0.000    0.000    0.000    0.000 
#    0.000    0.000    0.000    0.000    0.000    0.000 
#
# Total GULP energy -100515.804952 kJ/mol
# GULP energy per Si atom -5584.211386 kJ/mol
# Density = 2.106424 g / cm^3
# Si number density = 21.112294 Si / 1000 Ang^3
#
#
#
# Elastic Constant Matrix: (Units=GPa)
#
#
# Indices 1 2 3 4 5 6 
#
# 1 109.0995 22.5577 44.0175 0.0000 -29.0468 0.0000
# 2 22.5577 64.6256 47.5999 0.0000 -24.7967 0.0000
# 3 44.0175 47.5999 69.8876 0.0000 -16.8599 0.0000
# 4 0.0000 0.0000 0.0000 -66.3720 0.0000 29.9739
# 5 -29.0468 -24.7967 -16.8599 0.0000 54.2991 0.0000
# 6 0.0000 0.0000 0.0000 29.9739 0.0000 -4.6524
#
#
#
# Elastic Compliance Matrix: (Units=1/GPa)
#
#
# Indices 1 2 3 4 5 6 
#
# 1 0.014423 0.006189 -0.011627 0.000000 0.006932 0.000000
# 2 0.006189 0.037527 -0.026511 0.000000 0.012217 0.000000
# 3 -0.011627 -0.026511 0.038123 0.000000 -0.006489 0.000000
# 4 0.000000 0.000000 0.000000 0.007890 0.000000 0.050834
# 5 0.006932 0.012217 -0.006489 0.000000 0.025689 0.000000
# 6 0.000000 0.000000 0.000000 0.050834 0.000000 0.112563
#
#
# Mechanical properties :
#
#
# Convention : Reuss Voigt Hill
#
# Bulk Modulus (GPa) = 38.20332 52.44032 45.32182
# Shear Modulus (GPa) = 16.18980 5.28410 10.73695
#
# Velocity S-wave (km/s) = 2.77220 1.58376 2.25758
# Velocity P-wave (km/s) = 5.32741 5.31386 5.32064
#
# Compressibility (1/GPa) = 0.02617573
#
# Stress axis : x y z
#
# Youngs Moduli (GPa) = 69.33431 26.64728 26.23120
#
# Poissons Ratio (x) = -0.16493 0.30500
# Poissons Ratio (y) = -0.42914 0.69540
# Poissons Ratio (z) = 0.80617 0.70643
#
# Static dielectric constant tensor:
#      x y z
#    x 1.781850 0.000000 0.041070 
#    y 0.000000 1.718960 0.000000 
#    z 0.041070 0.000000 1.836290 
# 
# From -- ./inp_files/230589.got.cif
#   From: 2010.05.17/outbox.cif.g08.bks.cpg/sg15_116_cif.got.tgz:230589.got - 2010.06.03 18:47:42.
