data_PCOD9302809
_publ_section_title
;
Structure prediction by ZEFSAII (Michael W. Deem and Ramdas Pophale) SiO2 
 PCOD9302809
Probable space group: C 2/C
;
_chemical_formula_sum "Si O2"
_cell_formula_units_Z 40
_cell_length_a 11.656306
_cell_length_b 18.054273
_cell_length_c 7.897052
_cell_angle_alpha 90.000000
_cell_angle_beta 85.649323
_cell_angle_gamma 90.000000
_cell_volume 1657.115138
_symmetry_space_group_name_H-M "C 2/C"
_symmetry_group_IT_number 15
_symmetry_cell_setting 'monoclinic'
loop_
_space_group_symop_operation_xyz
x,y,z
-x,y,1/2-z
-x,-y,-z
x,-y,1/2+z
1/2+x,1/2+y,z
1/2-x,1/2+y,1/2-z
1/2-x,1/2-y,-z
1/2+x,1/2-y,1/2+z
loop_
_atom_site_type_symbol
_atom_site_label
_atom_site_fract_x
_atom_site_fract_y
_atom_site_fract_z
Si Si1 0.075992 0.558489 0.595945
Si Si2 0.661361 0.614675 0.396156
Si Si3 0.872912 0.319441 0.677162
Si Si4 0.193712 0.034941 0.756645
Si Si5 0.438537 0.335048 0.075466
O O1 0.127271 0.617091 0.462491
O O2 0.177777 0.521038 0.690578
O O3 0.000000 0.596495 0.750000
O O4 0.000000 0.500000 0.500000
O O5 0.768268 0.663637 0.317738
O O6 0.689632 0.575533 0.575437
O O7 0.638562 0.545790 0.273543
O O8 0.544205 0.660357 0.434558
O O9 0.865992 0.239947 0.585528
O O10 0.000000 0.324608 0.750000
O O11 0.133867 0.090179 0.897120
O O12 0.500000 0.331963 0.250000
#
# Coordination Sequence:
#
# PCOD9302809 Si02
#       5
#     8   8   8   8   8
#     4  12  24  39  61  92 128 166 210 261 319 382
#     4  11  22  41  67  94 127 166 213 266 318 379
#     4  11  23  41  64  92 127 169 213 261 322 381
#     4  11  22  40  65  93 126 165 212 263 316 375
#     4   9  23  41  63  93 126 169 213 259 319 383
#
# _framework density 24.138332999999999
#
# number of rings (size 3 to 8) (size 9 to 14) (size 15 to 20)
#    0.000    1.200    0.000    7.200    0.000    9.600 
#    0.000    5.000    0.000    0.000    0.000    0.000 
#    0.000    0.000    0.000    0.000    0.000    0.000 
#
# Total GULP energy -111902.160913 kJ/mol
# GULP energy per Si atom -5595.108046 kJ/mol
# Density = 2.408339 g / cm^3
# Si number density = 24.138333 Si / 1000 Ang^3
#
#
#
# Elastic Constant Matrix: (Units=GPa)
#
#
# Indices 1 2 3 4 5 6 
#
# 1 125.4879 50.9899 69.4825 0.0000 -32.3335 0.0000
# 2 50.9899 128.7961 44.2940 0.0000 -32.9033 0.0000
# 3 69.4825 44.2940 141.4596 0.0000 -30.2362 0.0000
# 4 0.0000 0.0000 0.0000 18.7147 0.0000 -11.8029
# 5 -32.3335 -32.9033 -30.2362 0.0000 64.4971 0.0000
# 6 0.0000 0.0000 0.0000 -11.8029 0.0000 33.6853
#
#
#
# Elastic Compliance Matrix: (Units=1/GPa)
#
#
# Indices 1 2 3 4 5 6 
#
# 1 0.012280 -0.002582 -0.004656 0.000000 0.002657 0.000000
# 2 -0.002582 0.010025 -0.001172 0.000000 0.003271 0.000000
# 3 -0.004656 -0.001172 0.010109 0.000000 0.001807 0.000000
# 4 0.000000 0.000000 0.000000 0.068591 0.000000 0.024033
# 5 0.002657 0.003271 0.001807 0.000000 0.019352 0.000000
# 6 0.000000 0.000000 0.000000 0.024033 0.000000 0.038107
#
#
# Mechanical properties :
#
#
# Convention : Reuss Voigt Hill
#
# Bulk Modulus (GPa) = 64.11987 80.58625 72.35306
# Shear Modulus (GPa) = 27.70358 38.77792 33.24075
#
# Velocity S-wave (km/s) = 3.39145 4.01245 3.71495
# Velocity P-wave (km/s) = 6.47743 7.41107 6.95992
#
# Compressibility (1/GPa) = 0.01559579
#
# Stress axis : x y z
#
# Youngs Moduli (GPa) = 81.43102 99.75176 98.92053
#
# Poissons Ratio (x) = 0.25756 0.46053
# Poissons Ratio (y) = 0.21025 0.11591
# Poissons Ratio (z) = 0.37911 0.11688
#
# Static dielectric constant tensor:
#      x y z
#    x 2.015190 0.000000 -0.026810 
#    y 0.000000 1.978980 0.000000 
#    z -0.026810 0.000000 1.959540 
# 
# From -- ./inp_files/29053.got.cif
#   From: 2010.05.17/outbox.cif.g08.bks.cpg/sg15_15_cif.got.tgz:29053.got - 2010.06.03 18:47:42.
