data_PCOD9302735
_publ_section_title
;
Structure prediction by ZEFSAII (Michael W. Deem and Ramdas Pophale) SiO2 
 PCOD9302735
Probable space group: C 2/C
;
_chemical_formula_sum "Si O2"
_cell_formula_units_Z 52
_cell_length_a 21.917260
_cell_length_b 18.098374
_cell_length_c 9.450303
_cell_angle_alpha 90.000000
_cell_angle_beta 44.154655
_cell_angle_gamma 90.000000
_cell_volume 2611.280152
_symmetry_space_group_name_H-M "C 2/C"
_symmetry_group_IT_number 15
_symmetry_cell_setting 'monoclinic'
loop_
_space_group_symop_operation_xyz
x,y,z
-x,y,1/2-z
-x,-y,-z
x,-y,1/2+z
1/2+x,1/2+y,z
1/2-x,1/2+y,1/2-z
1/2-x,1/2-y,-z
1/2+x,1/2-y,1/2+z
loop_
_atom_site_type_symbol
_atom_site_label
_atom_site_fract_x
_atom_site_fract_y
_atom_site_fract_z
Si Si1 0.500000 0.808677 0.750000
Si Si2 0.840984 0.475982 0.592764
Si Si3 0.790485 0.869198 0.807648
Si Si4 0.065263 0.011617 0.519196
Si Si5 0.293123 0.603171 0.621735
Si Si6 0.201925 0.262546 0.428460
Si Si7 0.555858 0.060319 0.324036
O O1 0.594699 0.769367 0.607329
O O2 0.496619 0.865476 0.623010
O O3 0.795993 0.418834 0.562110
O O4 0.773804 0.534302 0.772292
O O5 0.905193 0.523950 0.384205
O O6 0.871782 0.427413 0.675703
O O7 0.866736 0.923505 0.625873
O O8 0.781599 0.800075 0.717990
O O9 0.806840 0.858215 0.946996
O O10 0.000000 0.034649 0.750000
O O11 0.118680 0.936700 0.468793
O O12 0.000000 0.000000 0.500000
O O13 0.246229 0.661768 0.800792
O O14 0.250000 0.250000 0.500000
O O15 0.500000 0.000000 0.500000
#
# Coordination Sequence:
#
# PCOD9302735 Si02
#       7
#     4   8   8   8   8   8   8
#     4  12  26  44  68 100 138 180 228 282 348 416
#     4  11  22  39  68 100 131 168 225 283 344 401
#     4  11  25  41  70  95 134 184 227 282 354 414
#     4  11  24  42  70 106 134 173 238 300 350 411
#     4  11  23  45  68  97 140 181 226 290 350 415
#     4  12  28  47  69  98 143 190 234 285 352 423
#     4  12  20  38  65  97 131 167 219 281 334 399
#
# _framework density 19.913605
#
# number of rings (size 3 to 8) (size 9 to 14) (size 15 to 20)
#    0.000    0.615    6.154    1.385    3.231    0.000 
#    0.000    0.000    0.000    0.000    0.000    0.000 
#    0.000    0.000    0.000    0.000    0.000    0.000 
#
# Total GULP energy -144909.904819 kJ/mol
# GULP energy per Si atom -5573.457878 kJ/mol
# Density = 1.986828 g / cm^3
# Si number density = 19.913605 Si / 1000 Ang^3
#
#
#
# Elastic Constant Matrix: (Units=GPa)
#
#
# Indices 1 2 3 4 5 6 
#
# 1 144.0737 35.6603 38.1211 0.0000 14.8781 0.0000
# 2 35.6603 61.9883 5.7389 0.0000 -2.2007 0.0000
# 3 38.1211 5.7389 78.2600 0.0000 4.3111 0.0000
# 4 0.0000 0.0000 0.0000 34.0108 0.0000 2.9872
# 5 14.8781 -2.2007 4.3111 0.0000 38.6285 0.0000
# 6 0.0000 0.0000 0.0000 2.9872 0.0000 22.9565
#
#
#
# Elastic Compliance Matrix: (Units=1/GPa)
#
#
# Indices 1 2 3 4 5 6 
#
# 1 0.009732 -0.005342 -0.004151 0.000000 -0.003589 0.000000
# 2 -0.005342 0.019218 0.001025 0.000000 0.003038 0.000000
# 3 -0.004151 0.001025 0.014724 0.000000 0.000014 0.000000
# 4 0.000000 0.000000 0.000000 0.029742 0.000000 -0.003870
# 5 -0.003589 0.003038 0.000014 0.000000 0.027442 0.000000
# 6 0.000000 0.000000 0.000000 -0.003870 0.000000 0.044064
#
#
# Mechanical properties :
#
#
# Convention : Reuss Voigt Hill
#
# Bulk Modulus (GPa) = 37.39842 49.26250 43.33046
# Shear Modulus (GPa) = 29.27909 32.77260 31.02585
#
# Velocity S-wave (km/s) = 3.83862 4.06117 3.95146
# Velocity P-wave (km/s) = 6.20224 6.83978 6.52880
#
# Compressibility (1/GPa) = 0.02673910
#
# Stress axis : x y z
#
# Youngs Moduli (GPa) = 102.75277 52.03460 67.91629
#
# Poissons Ratio (x) = 0.27796 0.28193
# Poissons Ratio (y) = 0.54888 -0.06964
# Poissons Ratio (z) = 0.42654 -0.05336
#
# Static dielectric constant tensor:
#      x y z
#    x 1.901020 0.000000 -0.049140 
#    y 0.000000 1.691300 0.000000 
#    z -0.049140 0.000000 1.686810 
# 
# From -- ./inp_files/56949.got.cif
#   From: 2010.05.17/outbox.cif.g08.bks.cpg/sg15_29_cif.got.tgz:56949.got - 2010.06.03 18:47:42.
