data_PCOD9302875
_publ_section_title
;
Structure prediction by ZEFSAII (Michael W. Deem and Ramdas Pophale) SiO2 
 PCOD9302875
Probable space group: C 2/C
;
_chemical_formula_sum "Si O2"
_cell_formula_units_Z 56
_cell_length_a 10.853362
_cell_length_b 17.955929
_cell_length_c 15.098239
_cell_angle_alpha 90.000000
_cell_angle_beta 59.282653
_cell_angle_gamma 90.000000
_cell_volume 2529.555474
_symmetry_space_group_name_H-M "C 2/C"
_symmetry_group_IT_number 15
_symmetry_cell_setting 'monoclinic'
loop_
_space_group_symop_operation_xyz
x,y,z
-x,y,1/2-z
-x,-y,-z
x,-y,1/2+z
1/2+x,1/2+y,z
1/2-x,1/2+y,1/2-z
1/2-x,1/2-y,-z
1/2+x,1/2-y,1/2+z
loop_
_atom_site_type_symbol
_atom_site_label
_atom_site_fract_x
_atom_site_fract_y
_atom_site_fract_z
Si Si1 0.946507 0.582262 0.536345
Si Si2 0.575359 0.663778 0.088676
Si Si3 0.134089 0.392032 0.632692
Si Si4 0.772357 0.791460 0.717325
Si Si5 0.860199 0.712077 0.060191
Si Si6 0.650037 0.874609 0.250887
Si Si7 0.341562 0.465793 0.050226
O O1 0.888156 0.613941 0.464977
O O2 0.854751 0.576330 0.658661
O O3 0.000000 0.500000 0.500000
O O4 0.068901 0.642442 0.514728
O O5 0.415508 0.660396 0.184230
O O6 0.690653 0.712584 0.099834
O O7 0.564688 0.713751 0.002635
O O8 0.642543 0.583691 0.044565
O O9 0.214835 0.320392 0.644620
O O10 0.233190 0.465734 0.599040
O O11 0.000000 0.405614 0.750000
O O12 0.643720 0.802528 0.834161
O O13 0.819009 0.707001 0.719580
O O14 0.500000 0.876055 0.250000
O O15 0.777560 0.906174 0.143613
O O16 0.500000 0.500000 0.000000
#
# Coordination Sequence:
#
# PCOD9302875 Si02
#       7
#     8   8   8   8   8   8   8
#     4  12  25  43  72 105 140 195 248 290 364 449
#     4  11  22  41  68 102 141 181 241 310 363 420
#     4  12  26  48  70 103 151 197 237 296 373 451
#     4  12  24  42  70 106 141 183 240 302 372 426
#     4  11  22  40  68 104 138 183 241 303 357 435
#     4  12  25  46  76 107 139 191 253 309 363 443
#     4  12  25  46  71 101 148 189 242 306 374 433
#
# _framework density 22.138278
#
# number of rings (size 3 to 8) (size 9 to 14) (size 15 to 20)
#    0.000    0.286    5.714    5.143    0.000    0.571 
#    0.000    2.143    0.000    0.000    0.000    0.000 
#    0.000    0.000    0.000    0.000    0.000    0.000 
#
# Total GULP energy -156139.676868 kJ/mol
# GULP energy per Si atom -5576.417031 kJ/mol
# Density = 2.208789 g / cm^3
# Si number density = 22.138278 Si / 1000 Ang^3
#
#
#
# Elastic Constant Matrix: (Units=GPa)
#
#
# Indices 1 2 3 4 5 6 
#
# 1 79.4018 24.1468 25.3502 0.0000 -0.8138 0.0000
# 2 24.1468 92.2033 24.9723 0.0000 -3.3767 0.0000
# 3 25.3502 24.9723 103.1323 0.0000 -1.5065 0.0000
# 4 0.0000 0.0000 0.0000 42.0485 0.0000 -0.1387
# 5 -0.8138 -3.3767 -1.5065 0.0000 40.5925 0.0000
# 6 0.0000 0.0000 0.0000 -0.1387 0.0000 30.4110
#
#
#
# Elastic Compliance Matrix: (Units=1/GPa)
#
#
# Indices 1 2 3 4 5 6 
#
# 1 0.014408 -0.003014 -0.002813 0.000000 -0.000066 0.000000
# 2 -0.003014 0.012267 -0.002217 0.000000 0.000878 0.000000
# 3 -0.002813 -0.002217 0.010927 0.000000 0.000165 0.000000
# 4 0.000000 0.000000 0.000000 0.023782 0.000000 0.000108
# 5 -0.000066 0.000878 0.000165 0.000000 0.024713 0.000000
# 6 0.000000 0.000000 0.000000 0.000108 0.000000 0.032883
#
#
# Mechanical properties :
#
#
# Convention : Reuss Voigt Hill
#
# Bulk Modulus (GPa) = 46.47807 47.07511 46.77659
# Shear Modulus (GPa) = 35.15196 35.96162 35.55679
#
# Velocity S-wave (km/s) = 3.98909 4.03477 4.01199
# Velocity P-wave (km/s) = 6.50055 6.55867 6.52967
#
# Compressibility (1/GPa) = 0.02151552
#
# Stress axis : x y z
#
# Youngs Moduli (GPa) = 69.40558 81.51664 91.51781
#
# Poissons Ratio (x) = 0.24568 0.25741
# Poissons Ratio (y) = 0.20918 0.20287
# Poissons Ratio (z) = 0.19522 0.18070
#
# Static dielectric constant tensor:
#      x y z
#    x 1.874050 0.000000 0.049910 
#    y 0.000000 1.822750 0.000000 
#    z 0.049910 0.000000 2.109930 
# 
# From -- ./inp_files/145955.got.cif
#   From: 2010.05.17/outbox.cif.g08.bks.cpg/sg15_73_cif.got.tgz:145955.got - 2010.06.03 18:47:42.
