data_PCOD9302673
_publ_section_title
;
Structure prediction by ZEFSAII (Michael W. Deem and Ramdas Pophale) SiO2 
 PCOD9302673
Probable space group: C 2/C
;
_chemical_formula_sum "Si O2"
_cell_formula_units_Z 64
_cell_length_a 28.453624
_cell_length_b 20.685544
_cell_length_c 18.856781
_cell_angle_alpha 90.000000
_cell_angle_beta 160.872379
_cell_angle_gamma 90.000000
_cell_volume 3636.748589
_symmetry_space_group_name_H-M "C 2/C"
_symmetry_group_IT_number 15
_symmetry_cell_setting 'monoclinic'
loop_
_space_group_symop_operation_xyz
x,y,z
-x,y,1/2-z
-x,-y,-z
x,-y,1/2+z
1/2+x,1/2+y,z
1/2-x,1/2+y,1/2-z
1/2-x,1/2-y,-z
1/2+x,1/2-y,1/2+z
loop_
_atom_site_type_symbol
_atom_site_label
_atom_site_fract_x
_atom_site_fract_y
_atom_site_fract_z
Si Si1 0.088145 0.324022 0.659026
Si Si2 0.051153 0.060243 0.120845
Si Si3 0.629290 0.869599 0.879290
Si Si4 0.112138 0.131076 0.974276
Si Si5 0.946382 0.824022 0.375501
Si Si6 0.888301 0.018601 0.026603
Si Si7 0.129016 0.525451 0.879016
Si Si8 0.411769 0.060243 0.842077
O O1 0.096619 0.341619 0.754780
O O2 0.043936 0.250000 0.587873
O O3 0.983960 0.374171 0.471524
O O4 0.244566 0.335168 0.848367
O O5 0.219881 0.052726 0.377382
O O6 0.962992 0.053182 0.067597
O O7 0.008830 0.125829 0.021266
O O8 0.000000 0.000000 0.000000
O O9 0.500000 0.855956 0.750000
O O10 0.644349 0.947439 0.894349
O O11 0.780297 0.841619 0.122136
O O12 0.000000 0.130723 0.750000
O O13 0.036965 0.164832 0.933165
O O14 0.145040 0.056179 0.040080
O O15 0.000000 0.016501 0.250000
O O16 0.746217 0.053182 0.850822
O O17 0.095121 0.552726 0.752622
O O18 0.000000 0.538315 0.750000
O O19 0.500000 0.000000 0.000000
#
# Coordination Sequence:
#
# PCOD9302673 Si02
#       8
#     8   8   8   8   8   8   8   8
#     4  12  27  41  63  95 134 173 210 257 320 389
#     4  12  24  41  66  96 126 168 215 263 314 372
#     4  11  23  40  62  97 135 165 203 264 330 380
#     4  11  22  39  64  94 130 168 210 258 322 386
#     4  12  27  41  63  95 134 173 210 257 320 389
#     4  11  22  41  68  94 128 164 216 268 310 372
#     4  11  24  42  65  97 131 161 211 274 320 365
#     4  12  24  41  66  96 126 168 215 263 314 372
#
# _framework density 17.598137999999999
#
# number of rings (size 3 to 8) (size 9 to 14) (size 15 to 20)
#    0.000    0.500    7.500    0.375    7.000    0.000 
#    0.000    0.625    0.000    0.000    0.000    0.000 
#    0.000    0.000    0.000    0.000    0.000    0.000 
#
# Total GULP energy -178966.645809 kJ/mol
# GULP energy per Si atom -5592.707682 kJ/mol
# Density = 1.755808 g / cm^3
# Si number density = 17.598138 Si / 1000 Ang^3
#
#
#
# Elastic Constant Matrix: (Units=GPa)
#
#
# Indices 1 2 3 4 5 6 
#
# 1 147.1117 74.8630 78.5273 0.0000 15.7003 0.0000
# 2 74.8630 160.7797 76.2565 0.0000 -1.2276 0.0000
# 3 78.5273 76.2565 126.5694 0.0000 2.3641 0.0000
# 4 0.0000 0.0000 0.0000 19.4463 0.0000 -5.0460
# 5 15.7003 -1.2276 2.3641 0.0000 37.0957 0.0000
# 6 0.0000 0.0000 0.0000 -5.0460 0.0000 13.7098
#
#
#
# Elastic Compliance Matrix: (Units=1/GPa)
#
#
# Indices 1 2 3 4 5 6 
#
# 1 0.011655 -0.002904 -0.005393 0.000000 -0.004685 0.000000
# 2 -0.002904 0.009446 -0.003923 0.000000 0.001792 0.000000
# 3 -0.005393 -0.003923 0.013586 0.000000 0.001287 0.000000
# 4 0.000000 0.000000 0.000000 0.056853 0.000000 0.020926
# 5 -0.004685 0.001792 0.001287 0.000000 0.028917 0.000000
# 6 0.000000 0.000000 0.000000 0.020926 0.000000 0.080642
#
#
# Mechanical properties :
#
#
# Convention : Reuss Voigt Hill
#
# Bulk Modulus (GPa) = 97.59850 99.30604 98.45227
# Shear Modulus (GPa) = 21.83815 27.70463 24.77139
#
# Velocity S-wave (km/s) = 3.52651 3.97204 3.75589
# Velocity P-wave (km/s) = 8.49480 8.80843 8.65304
#
# Compressibility (1/GPa) = 0.01024606
#
# Stress axis : x y z
#
# Youngs Moduli (GPa) = 85.80348 105.86222 73.60265
#
# Poissons Ratio (x) = 0.30746 0.39697
# Poissons Ratio (y) = 0.24920 0.28873
# Poissons Ratio (z) = 0.46278 0.41527
#
# Static dielectric constant tensor:
#      x y z
#    x 1.580030 0.000000 -0.004680 
#    y 0.000000 1.581750 0.000000 
#    z -0.004680 0.000000 1.585350 
# 
# From -- ./inp_files/223157.got.cif
#   From: 2010.05.17/outbox.cif.g08.bks.cpg/sg15_112_cif.got.tgz:223157.got - 2010.06.03 18:47:42.
