data_PCOD9302330
_publ_section_title
;
Structure prediction by ZEFSAII (Michael W. Deem and Ramdas Pophale) SiO2 
 PCOD9302330
Probable space group: C 2/C
;
_chemical_formula_sum "Si O2"
_cell_formula_units_Z 52
_cell_length_a 13.156592
_cell_length_b 11.054872
_cell_length_c 17.729831
_cell_angle_alpha 90.000000
_cell_angle_beta 116.311647
_cell_angle_gamma 90.000000
_cell_volume 2311.542051
_symmetry_space_group_name_H-M "C 2/C"
_symmetry_group_IT_number 15
_symmetry_cell_setting 'monoclinic'
loop_
_space_group_symop_operation_xyz
x,y,z
-x,y,1/2-z
-x,-y,-z
x,-y,1/2+z
1/2+x,1/2+y,z
1/2-x,1/2+y,1/2-z
1/2-x,1/2-y,-z
1/2+x,1/2-y,1/2+z
loop_
_atom_site_type_symbol
_atom_site_label
_atom_site_fract_x
_atom_site_fract_y
_atom_site_fract_z
Si Si1 0.921486 0.654772 0.355705
Si Si2 0.500000 0.500000 0.000000
Si Si3 0.863413 0.746660 0.989262
Si Si4 0.500000 0.311307 0.250000
Si Si5 0.568077 0.124056 0.633392
Si Si6 0.388262 0.479651 0.617586
Si Si7 0.821114 0.652392 0.476909
Si Si8 0.500000 0.719225 0.250000
O O1 0.896923 0.513401 0.338579
O O2 0.845323 0.701041 0.400397
O O3 0.047069 0.671106 0.431223
O O4 0.922103 0.729294 0.278730
O O5 0.420185 0.378736 0.994200
O O6 0.530931 0.449144 0.926382
O O7 0.854175 0.685684 0.904174
O O8 0.750000 0.750000 0.000000
O O9 0.572503 0.399047 0.328078
O O10 0.441471 0.126017 0.554926
O O11 0.559035 0.198621 0.706857
O O12 0.257707 0.466013 0.551519
O O13 0.409555 0.370062 0.682539
O O14 0.750000 0.750000 0.500000
#
# Coordination Sequence:
#
# PCOD9302330 Si02
#       8
#     8   4   8   4   8   8   8   4
#     4  11  25  45  63  99 145 179 234 304 356 438
#     4  12  22  44  76 100 136 188 244 300 344 440
#     4  11  24  44  72 106 138 189 251 294 361 447
#     4  11  25  46  64 100 149 189 230 316 374 415
#     4  11  24  44  72  98 146 184 236 304 363 434
#     4  11  24  43  74  99 140 183 246 300 353 441
#     4  11  22  45  71 102 131 185 245 286 350 443
#     4  11  21  46  64 104 137 179 232 302 372 433
#
# _framework density 22.495806999999999
#
# number of rings (size 3 to 8) (size 9 to 14) (size 15 to 20)
#    0.000    0.923    4.615    3.231    4.308    0.000 
#    5.538    0.000    0.000    0.000    0.000    0.000 
#    0.000    0.000    0.000    0.000    0.000    0.000 
#
# Total GULP energy -144986.619203 kJ/mol
# GULP energy per Si atom -5576.408431 kJ/mol
# Density = 2.244461 g / cm^3
# Si number density = 22.495807 Si / 1000 Ang^3
#
#
#
# Elastic Constant Matrix: (Units=GPa)
#
#
# Indices 1 2 3 4 5 6 
#
# 1 154.2575 66.8846 61.2180 0.0000 -45.8206 0.0000
# 2 66.8846 145.9644 36.1481 0.0000 -32.4537 0.0000
# 3 61.2180 36.1481 87.1004 0.0000 -38.3616 0.0000
# 4 0.0000 0.0000 0.0000 37.2891 0.0000 -10.9690
# 5 -45.8206 -32.4537 -38.3616 0.0000 45.7381 0.0000
# 6 0.0000 0.0000 0.0000 -10.9690 0.0000 33.0602
#
#
#
# Elastic Compliance Matrix: (Units=1/GPa)
#
#
# Indices 1 2 3 4 5 6 
#
# 1 0.010970 -0.002769 -0.004101 0.000000 0.005585 0.000000
# 2 -0.002769 0.008931 -0.000303 0.000000 0.003308 0.000000
# 3 -0.004101 -0.000303 0.019957 0.000000 0.012415 0.000000
# 4 0.000000 0.000000 0.000000 0.029718 0.000000 0.009860
# 5 0.005585 0.003308 0.012415 0.000000 0.040219 0.000000
# 6 0.000000 0.000000 0.000000 0.009860 0.000000 0.033519
#
#
# Mechanical properties :
#
#
# Convention : Reuss Voigt Hill
#
# Bulk Modulus (GPa) = 39.19814 79.53596 59.36705
# Shear Modulus (GPa) = 30.09076 38.08892 34.08984
#
# Velocity S-wave (km/s) = 3.66131 4.11926 3.89702
# Velocity P-wave (km/s) = 5.94442 7.61952 6.83349
#
# Compressibility (1/GPa) = 0.02551141
#
# Stress axis : x y z
#
# Youngs Moduli (GPa) = 91.15842 111.97545 50.10760
#
# Poissons Ratio (x) = 0.31009 0.20549
# Poissons Ratio (y) = 0.25244 0.01517
# Poissons Ratio (z) = 0.37384 0.03391
#
# Static dielectric constant tensor:
#      x y z
#    x 1.843250 0.000000 0.021720 
#    y 0.000000 1.883550 0.000000 
#    z 0.021720 0.000000 1.865010 
# 
# From -- ./inp_files/237217.got.cif
#   From: 2010.05.17/outbox.cif.g08.bks.cpg/sg15_119_cif.got.tgz:237217.got - 2010.06.03 18:47:42.
