data_PCOD9302167
_publ_section_title
;
Structure prediction by ZEFSAII (Michael W. Deem and Ramdas Pophale) SiO2 
 PCOD9302167
Probable space group: C 2/C
;
_chemical_formula_sum "Si O2"
_cell_formula_units_Z 44
_cell_length_a 28.712209
_cell_length_b 10.467959
_cell_length_c 7.553500
_cell_angle_alpha 90.000000
_cell_angle_beta 50.962324
_cell_angle_gamma 90.000000
_cell_volume 1763.388624
_symmetry_space_group_name_H-M "C 2/C"
_symmetry_group_IT_number 15
_symmetry_cell_setting 'monoclinic'
loop_
_space_group_symop_operation_xyz
x,y,z
-x,y,1/2-z
-x,-y,-z
x,-y,1/2+z
1/2+x,1/2+y,z
1/2-x,1/2+y,1/2-z
1/2-x,1/2-y,-z
1/2+x,1/2-y,1/2+z
loop_
_atom_site_type_symbol
_atom_site_label
_atom_site_fract_x
_atom_site_fract_y
_atom_site_fract_z
Si Si1 0.320135 0.164337 0.661249
Si Si2 0.628721 0.082336 0.328705
Si Si3 0.500000 0.844482 0.250000
Si Si4 0.151122 0.907564 0.036278
Si Si5 0.189785 0.833652 0.306498
Si Si6 0.516463 0.355680 0.413434
O O1 0.362041 0.128110 0.393725
O O2 0.334009 0.313050 0.663078
O O3 0.251749 0.159124 0.762652
O O4 0.337723 0.053235 0.750529
O O5 0.559651 0.077129 0.556481
O O6 0.661032 0.193315 0.367479
O O7 0.510694 0.749187 0.390281
O O8 0.198228 0.876984 0.080180
O O9 0.087862 0.862987 0.263953
O O10 0.149349 0.053148 0.982758
O O11 0.500000 0.328212 0.250000
O O12 0.500000 0.500000 0.500000
#
# Coordination Sequence:
#
# PCOD9302167 Si02
#       6
#     8   8   4   8   8   8
#     4  11  23  43  66  99 135 186 232 290 362 430
#     4  11  25  44  67  98 144 186 241 294 361 434
#     4  12  24  48  66 104 152 192 240 296 356 436
#     4  11  23  42  63 102 133 175 234 287 364 420
#     4  11  21  42  70  98 136 174 234 306 353 424
#     4  12  23  41  70 104 145 184 238 298 359 425
#
# _framework density 24.951958000000001
#
# number of rings (size 3 to 8) (size 9 to 14) (size 15 to 20)
#    0.000    0.727    4.545    6.545    0.000    3.636 
#    1.636    3.636    0.000    0.000    0.000    0.000 
#    0.000    0.000    0.000    0.000    0.000    0.000 
#
# Total GULP energy -123148.837381 kJ/mol
# GULP energy per Si atom -5597.674426 kJ/mol
# Density = 2.489517 g / cm^3
# Si number density = 24.951958 Si / 1000 Ang^3
#
#
#
# Elastic Constant Matrix: (Units=GPa)
#
#
# Indices 1 2 3 4 5 6 
#
# 1 59.8380 15.8450 18.1172 0.0000 3.0387 0.0000
# 2 15.8450 57.8369 -6.5936 0.0000 18.0406 0.0000
# 3 18.1172 -6.5936 62.4624 0.0000 1.3201 0.0000
# 4 0.0000 0.0000 0.0000 35.5587 0.0000 -0.8123
# 5 3.0387 18.0406 1.3201 0.0000 43.3571 0.0000
# 6 0.0000 0.0000 0.0000 -0.8123 0.0000 25.6047
#
#
#
# Elastic Compliance Matrix: (Units=1/GPa)
#
#
# Indices 1 2 3 4 5 6 
#
# 1 0.020481 -0.006884 -0.006702 0.000000 0.001633 0.000000
# 2 -0.006884 0.022511 0.004564 0.000000 -0.009023 0.000000
# 3 -0.006702 0.004564 0.018477 0.000000 -0.001992 0.000000
# 4 0.000000 0.000000 0.000000 0.028143 0.000000 0.000893
# 5 0.001633 -0.009023 -0.001992 0.000000 0.026765 0.000000
# 6 0.000000 0.000000 0.000000 0.000893 0.000000 0.039084
#
#
# Mechanical properties :
#
#
# Convention : Reuss Voigt Hill
#
# Bulk Modulus (GPa) = 23.02855 26.09717 24.56286
# Shear Modulus (GPa) = 26.59856 31.08868 28.84362
#
# Velocity S-wave (km/s) = 3.26849 3.53362 3.40364
# Velocity P-wave (km/s) = 4.84698 5.20867 5.03108
#
# Compressibility (1/GPa) = 0.04342436
#
# Stress axis : x y z
#
# Youngs Moduli (GPa) = 48.82588 44.42304 54.12040
#
# Poissons Ratio (x) = 0.30583 0.36270
# Poissons Ratio (y) = 0.33614 -0.24699
# Poissons Ratio (z) = 0.32722 -0.20274
#
# Static dielectric constant tensor:
#      x y z
#    x 2.030890 0.000000 0.036020 
#    y 0.000000 2.383430 0.000000 
#    z 0.036020 0.000000 1.934910 
# 
# From -- ./inp_files/68979.got.cif
#   From: 2010.05.17/outbox.cif.g08.bks.cpg/sg15_35_cif.got.tgz:68979.got - 2010.06.03 18:47:42.
