data_PCOD9302707
_publ_section_title
;
Structure prediction by ZEFSAII (Michael W. Deem and Ramdas Pophale) SiO2 
 PCOD9302707
Probable space group: C 2/C
;
_chemical_formula_sum "Si O2"
_cell_formula_units_Z 44
_cell_length_a 8.659718
_cell_length_b 27.312955
_cell_length_c 8.921442
_cell_angle_alpha 90.000000
_cell_angle_beta 117.866894
_cell_angle_gamma 90.000000
_cell_volume 1865.423208
_symmetry_space_group_name_H-M "C 2/C"
_symmetry_group_IT_number 15
_symmetry_cell_setting 'monoclinic'
loop_
_space_group_symop_operation_xyz
x,y,z
-x,y,1/2-z
-x,-y,-z
x,-y,1/2+z
1/2+x,1/2+y,z
1/2-x,1/2+y,1/2-z
1/2-x,1/2-y,-z
1/2+x,1/2-y,1/2+z
loop_
_atom_site_type_symbol
_atom_site_label
_atom_site_fract_x
_atom_site_fract_y
_atom_site_fract_z
Si Si1 0.127013 0.374051 0.557994
Si Si2 0.571704 0.632571 0.527083
Si Si3 0.307036 0.294397 0.836470
Si Si4 0.000000 0.449357 0.750000
Si Si5 0.207332 0.682534 0.635914
Si Si6 0.611924 0.538797 0.959229
O O1 0.275901 0.388685 0.508313
O O2 0.187831 0.325865 0.674664
O O3 0.079323 0.416471 0.652455
O O4 0.953163 0.353242 0.405772
O O5 0.495325 0.680791 0.414639
O O6 0.642340 0.652865 0.714309
O O7 0.423468 0.592398 0.486084
O O8 0.307885 0.237091 0.805125
O O9 0.239558 0.306583 0.975001
O O10 0.821777 0.472085 0.586052
O O11 0.500000 0.539861 0.750000
O O12 0.500000 0.500000 0.000000
#
# Coordination Sequence:
#
# PCOD9302707 Si02
#       6
#     8   8   8   4   8   8
#     4  12  23  41  70  99 142 198 244 304 377 441
#     4  12  25  43  70 103 150 186 248 316 367 439
#     4  11  22  39  66  96 148 199 246 303 372 443
#     4  12  26  52  82 106 154 194 248 310 388 454
#     4  11  23  40  63 103 145 200 252 302 372 447
#     4  12  30  54  83 116 151 196 249 311 383 459
#
# _framework density 23.587140000000002
#
# number of rings (size 3 to 8) (size 9 to 14) (size 15 to 20)
#    0.000    0.364    3.636    4.909    2.545    8.000 
#    3.273    0.000    0.000    0.000    0.000    0.000 
#    0.000    0.000    0.000    0.000    0.000    0.000 
#
# Total GULP energy -122841.154050 kJ/mol
# GULP energy per Si atom -5583.688820 kJ/mol
# Density = 2.353345 g / cm^3
# Si number density = 23.587140 Si / 1000 Ang^3
#
#
#
# Elastic Constant Matrix: (Units=GPa)
#
#
# Indices 1 2 3 4 5 6 
#
# 1 119.0029 10.3581 52.1411 0.0000 14.7780 0.0000
# 2 10.3581 62.7761 19.9923 0.0000 9.0727 0.0000
# 3 52.1411 19.9923 115.3349 0.0000 25.7072 0.0000
# 4 0.0000 0.0000 0.0000 15.9212 0.0000 3.3894
# 5 14.7780 9.0727 25.7072 0.0000 48.8816 0.0000
# 6 0.0000 0.0000 0.0000 3.3894 0.0000 44.9578
#
#
#
# Elastic Compliance Matrix: (Units=1/GPa)
#
#
# Indices 1 2 3 4 5 6 
#
# 1 0.010506 -0.000175 -0.004552 0.000000 -0.000750 0.000000
# 2 -0.000175 0.017005 -0.002466 0.000000 -0.001806 0.000000
# 3 -0.004552 -0.002466 0.012174 0.000000 -0.004569 0.000000
# 4 0.000000 0.000000 0.000000 0.063834 0.000000 -0.004812
# 5 -0.000750 -0.001806 -0.004569 0.000000 0.023422 0.000000
# 6 0.000000 0.000000 0.000000 -0.004812 0.000000 0.022606
#
#
# Mechanical properties :
#
#
# Convention : Reuss Voigt Hill
#
# Bulk Modulus (GPa) = 39.52811 51.34413 45.43612
# Shear Modulus (GPa) = 29.00803 36.26028 32.63416
#
# Velocity S-wave (km/s) = 3.51069 3.92508 3.72366
# Velocity P-wave (km/s) = 5.76437 6.50821 6.14755
#
# Compressibility (1/GPa) = 0.02529845
#
# Stress axis : x y z
#
# Youngs Moduli (GPa) = 95.18343 58.80656 82.14194
#
# Poissons Ratio (x) = 0.01032 0.37392
# Poissons Ratio (y) = 0.01670 0.20254
# Poissons Ratio (z) = 0.43329 0.14500
#
# Static dielectric constant tensor:
#      x y z
#    x 1.874930 0.000000 -0.093770 
#    y 0.000000 1.906680 0.000000 
#    z -0.093770 0.000000 1.823790 
# 
# From -- ./inp_files/26243.got.cif
#   From: 2010.05.17/outbox.cif.g08.bks.cpg/sg15_14_cif.got.tgz:26243.got - 2010.06.03 18:47:42.
