data_PCOD9302452
_publ_section_title
;
Structure prediction by ZEFSAII (Michael W. Deem and Ramdas Pophale) SiO2 
 PCOD9302452
Probable space group: C 2/C
;
_chemical_formula_sum "Si O2"
_cell_formula_units_Z 48
_cell_length_a 13.517838
_cell_length_b 14.643814
_cell_length_c 15.662877
_cell_angle_alpha 90.000000
_cell_angle_beta 124.938194
_cell_angle_gamma 90.000000
_cell_volume 2541.705075
_symmetry_space_group_name_H-M "C 2/C"
_symmetry_group_IT_number 15
_symmetry_cell_setting 'monoclinic'
loop_
_space_group_symop_operation_xyz
x,y,z
-x,y,1/2-z
-x,-y,-z
x,-y,1/2+z
1/2+x,1/2+y,z
1/2-x,1/2+y,1/2-z
1/2-x,1/2-y,-z
1/2+x,1/2-y,1/2+z
loop_
_atom_site_type_symbol
_atom_site_label
_atom_site_fract_x
_atom_site_fract_y
_atom_site_fract_z
Si Si1 0.691073 0.295294 0.055386
Si Si2 0.124094 0.999479 0.970162
Si Si3 0.800128 0.518575 0.901714
Si Si4 0.514411 0.854974 0.471076
Si Si5 0.091114 0.243843 0.224869
Si Si6 0.352969 0.448197 0.831528
O O1 0.794599 0.291145 0.176422
O O2 0.750000 0.250000 0.000000
O O3 0.649791 0.393968 0.006005
O O4 0.579820 0.236043 0.037117
O O5 0.195812 0.025848 0.920622
O O6 0.980030 0.002877 0.885698
O O7 0.169923 0.050407 0.078162
O O8 0.889332 0.605563 0.945120
O O9 0.743090 0.494150 0.780831
O O10 0.886184 0.433946 0.971615
O O11 0.482285 0.821690 0.360464
O O12 0.130617 0.156865 0.189121
O O13 0.000000 0.204009 0.250000
#
# Coordination Sequence:
#
# PCOD9302452 Si02
#       6
#     8   8   8   8   8   8
#     4  12  19  36  61  89 118 155 206 255 306 357
#     4  11  22  38  61  92 122 158 209 255 299 375
#     4  11  22  41  57  91 130 161 192 256 324 358
#     4  11  23  35  60  89 120 158 197 250 312 370
#     4  12  20  35  61  89 117 156 210 262 302 350
#     4  11  22  36  62  88 120 164 210 253 308 362
#
# _framework density 18.884961000000001
#
# number of rings (size 3 to 8) (size 9 to 14) (size 15 to 20)
#    0.000    0.667    6.667    2.500    0.000    0.000 
#    0.000    3.333    0.000    0.000    0.000    0.000 
#    0.000    0.000    0.000    0.000    0.000    0.000 
#
# Total GULP energy -133898.399003 kJ/mol
# GULP energy per Si atom -5579.099958 kJ/mol
# Density = 1.884198 g / cm^3
# Si number density = 18.884961 Si / 1000 Ang^3
#
#
#
# Elastic Constant Matrix: (Units=GPa)
#
#
# Indices 1 2 3 4 5 6 
#
# 1 49.6817 10.8385 19.8798 0.0000 5.0821 0.0000
# 2 10.8385 54.7775 8.1619 0.0000 -1.0435 0.0000
# 3 19.8798 8.1619 129.6403 0.0000 23.2284 0.0000
# 4 0.0000 0.0000 0.0000 28.6969 0.0000 -0.8324
# 5 5.0821 -1.0435 23.2284 0.0000 31.0591 0.0000
# 6 0.0000 0.0000 0.0000 -0.8324 0.0000 29.8709
#
#
#
# Elastic Compliance Matrix: (Units=1/GPa)
#
#
# Indices 1 2 3 4 5 6 
#
# 1 0.022324 -0.004020 -0.002877 0.000000 -0.001636 0.000000
# 2 -0.004020 0.019232 -0.000956 0.000000 0.002019 0.000000
# 3 -0.002877 -0.000956 0.009395 0.000000 -0.006588 0.000000
# 4 0.000000 0.000000 0.000000 0.034875 0.000000 0.000972
# 5 -0.001636 0.002019 -0.006588 0.000000 0.037459 0.000000
# 6 0.000000 0.000000 0.000000 0.000972 0.000000 0.033504
#
#
# Mechanical properties :
#
#
# Convention : Reuss Voigt Hill
#
# Bulk Modulus (GPa) = 28.37237 34.65109 31.51173
# Shear Modulus (GPa) = 27.13796 30.94001 29.03898
#
# Velocity S-wave (km/s) = 3.79491 4.05203 3.92558
# Velocity P-wave (km/s) = 5.85305 6.34668 6.10485
#
# Compressibility (1/GPa) = 0.03524556
#
# Stress axis : x y z
#
# Youngs Moduli (GPa) = 44.79566 51.99688 106.43465
#
# Poissons Ratio (x) = 0.20900 0.30621
# Poissons Ratio (y) = 0.18006 0.10177
# Poissons Ratio (z) = 0.12888 0.04972
#
# Static dielectric constant tensor:
#      x y z
#    x 1.683010 0.000000 0.021470 
#    y 0.000000 1.665030 0.000000 
#    z 0.021470 0.000000 1.700600 
# 
# From -- ./inp_files/144386.got.cif
#   From: 2010.05.17/outbox.cif.g08.bks.cpg/sg15_73_cif.got.tgz:144386.got - 2010.06.03 18:47:42.
