data_PCOD9302454
_publ_section_title
;
Structure prediction by ZEFSAII (Michael W. Deem and Ramdas Pophale) SiO2 
 PCOD9302454
Probable space group: C 2/C
;
_chemical_formula_sum "Si O2"
_cell_formula_units_Z 56
_cell_length_a 20.674153
_cell_length_b 17.258922
_cell_length_c 17.823392
_cell_angle_alpha 90.000000
_cell_angle_beta 22.868163
_cell_angle_gamma 90.000000
_cell_volume 2471.428124
_symmetry_space_group_name_H-M "C 2/C"
_symmetry_group_IT_number 15
_symmetry_cell_setting 'monoclinic'
loop_
_space_group_symop_operation_xyz
x,y,z
-x,y,1/2-z
-x,-y,-z
x,-y,1/2+z
1/2+x,1/2+y,z
1/2-x,1/2+y,1/2-z
1/2-x,1/2-y,-z
1/2+x,1/2-y,1/2+z
loop_
_atom_site_type_symbol
_atom_site_label
_atom_site_fract_x
_atom_site_fract_y
_atom_site_fract_z
Si Si1 0.867653 0.557085 0.281710
Si Si2 0.686955 0.146801 0.288628
Si Si3 0.728360 0.991417 0.452703
Si Si4 0.171618 0.410251 0.273615
Si Si5 0.447909 0.577389 0.598095
Si Si6 0.098104 0.816406 0.574594
Si Si7 0.755040 0.828785 0.873585
O O1 0.846029 0.641446 0.266026
O O2 0.773356 0.529407 0.457563
O O3 0.815172 0.497839 0.271419
O O4 0.058955 0.543103 0.098760
O O5 0.517965 0.103460 0.499365
O O6 0.699929 0.199901 0.349532
O O7 0.883206 0.124695 0.079298
O O8 0.724356 0.081924 0.430735
O O9 0.881214 0.948963 0.249766
O O10 0.292615 0.393013 0.214389
O O11 0.241531 0.360346 0.129014
O O12 0.500000 0.500000 0.500000
O O13 0.155480 0.729838 0.532578
O O14 0.000000 0.853021 0.750000
O O15 0.951227 0.817619 0.671099
#
# Coordination Sequence:
#
# PCOD9302454 Si02
#       7
#     8   8   8   8   8   8   8
#     4  11  22  36  63  91 129 167 208 268 334 378
#     4  12  23  40  64  90 123 171 211 269 324 385
#     4  11  23  38  61  96 130 169 213 268 328 392
#     4  12  21  41  61  87 126 171 213 259 315 380
#     4  12  20  37  61  89 124 159 219 258 328 390
#     4  12  27  42  62  93 132 177 224 265 304 372
#     4  12  24  41  60  90 130 174 222 259 312 377
#
# _framework density 22.658961999999999
#
# number of rings (size 3 to 8) (size 9 to 14) (size 15 to 20)
#    0.000    0.286    7.143    2.571    2.000    0.571 
#    0.000    0.000    0.000    0.000    0.000    1.000 
#    4.286    0.143    0.000    0.000    0.000    0.000 
#
# Total GULP energy -155883.875603 kJ/mol
# GULP energy per Si atom -5567.281272 kJ/mol
# Density = 2.260739 g / cm^3
# Si number density = 22.658962 Si / 1000 Ang^3
#
#
#
# Elastic Constant Matrix: (Units=GPa)
#
#
# Indices 1 2 3 4 5 6 
#
# 1 110.3575 23.4315 45.2795 0.0071 -4.0469 -0.0030
# 2 23.4315 20.4872 22.9297 0.0078 11.7729 -0.0052
# 3 45.2795 22.9297 160.3659 0.0128 29.3095 -0.0100
# 4 0.0071 0.0078 0.0128 32.1121 -0.0054 1.5864
# 5 -4.0469 11.7729 29.3095 -0.0054 39.4207 0.0027
# 6 -0.0030 -0.0052 -0.0100 1.5864 0.0027 8.0235
#
#
#
# Elastic Compliance Matrix: (Units=1/GPa)
#
#
# Indices 1 2 3 4 5 6 
#
# 1 0.014682 -0.018635 -0.003210 0.000005 0.009459 -0.000015
# 2 -0.018635 0.088082 -0.002517 -0.000024 -0.026347 0.000061
# 3 -0.003210 -0.002517 0.008592 -0.000004 -0.005966 0.000011
# 4 0.000005 -0.000024 -0.000004 0.031448 0.000015 -0.006218
# 5 0.009459 -0.026347 -0.005966 0.000015 0.038643 -0.000037
# 6 -0.000015 0.000061 0.000011 -0.006218 -0.000037 0.125863
#
#
# Mechanical properties :
#
#
# Convention : Reuss Voigt Hill
#
# Bulk Modulus (GPa) = 15.96630 52.72132 34.34381
# Shear Modulus (GPa) = 13.26570 29.21591 21.24081
#
# Velocity S-wave (km/s) = 2.42223 3.59468 3.06504
# Velocity P-wave (km/s) = 3.85806 6.36764 5.26457
#
# Compressibility (1/GPa) = 0.06263192
#
# Stress axis : x y z
#
# Youngs Moduli (GPa) = 68.11072 11.35305 116.38238
#
# Poissons Ratio (x) = 0.21157 0.37356
# Poissons Ratio (y) = 1.26926 0.29297
# Poissons Ratio (z) = 0.21862 0.02858
#
# Static dielectric constant tensor:
#      x y z
#    x 1.970620 0.000000 0.016160 
#    y 0.000000 1.933480 0.000000 
#    z 0.016160 0.000000 1.805780 
# 
# From -- ./inp_files/216618.got.cif
#   From: 2010.05.17/outbox.cif.g08.bks.cpg/sg15_109_cif.got.tgz:216618.got - 2010.06.03 18:47:42.
