data_PCOD9302712
_publ_section_title
;
Structure prediction by ZEFSAII (Michael W. Deem and Ramdas Pophale) SiO2 
 PCOD9302712
Probable space group: C 2/C
;
_chemical_formula_sum "Si O2"
_cell_formula_units_Z 44
_cell_length_a 14.437304
_cell_length_b 11.370722
_cell_length_c 10.564996
_cell_angle_alpha 90.000000
_cell_angle_beta 115.101782
_cell_angle_gamma 90.000000
_cell_volume 1570.574721
_symmetry_space_group_name_H-M "C 2/C"
_symmetry_group_IT_number 15
_symmetry_cell_setting 'monoclinic'
loop_
_space_group_symop_operation_xyz
x,y,z
-x,y,1/2-z
-x,-y,-z
x,-y,1/2+z
1/2+x,1/2+y,z
1/2-x,1/2+y,1/2-z
1/2-x,1/2-y,-z
1/2+x,1/2-y,1/2+z
loop_
_atom_site_type_symbol
_atom_site_label
_atom_site_fract_x
_atom_site_fract_y
_atom_site_fract_z
Si Si1 0.857146 0.199848 0.610620
Si Si2 0.418465 0.925831 0.039465
Si Si3 0.490812 0.673191 0.431373
Si Si4 0.781196 0.148098 0.213989
Si Si5 0.000000 0.389106 0.750000
Si Si6 0.690749 0.412482 0.174269
O O1 0.750000 0.250000 0.500000
O O2 0.926627 0.185392 0.526816
O O3 0.841717 0.092635 0.695600
O O4 0.914495 0.292379 0.739022
O O5 0.420079 0.015918 0.152402
O O6 0.470840 0.801613 0.082840
O O7 0.303306 0.896273 0.933942
O O8 0.500000 0.000000 0.000000
O O9 0.404383 0.640993 0.279241
O O10 0.591789 0.599676 0.526364
O O11 0.758106 0.291022 0.206270
O O12 0.765226 0.043911 0.311091
#
# Coordination Sequence:
#
# PCOD9302712 Si02
#       6
#     8   8   8   8   4   8
#     4  12  21  37  63  99 128 174 237 282 323 398
#     4  11  22  40  65  99 134 172 225 278 338 400
#     4  11  22  40  65  95 135 178 226 282 341 400
#     4  11  23  41  65  97 134 176 222 280 339 402
#     4  12  22  42  70 100 134 178 228 286 330 406
#     4  11  22  39  66  98 132 176 232 278 344 402
#
# _framework density 28.015222999999999
#
# number of rings (size 3 to 8) (size 9 to 14) (size 15 to 20)
#    0.000    0.727    5.455    3.818    0.000    0.000 
#    0.000    0.909   12.000    0.000    0.000    0.000 
#    0.000    0.000    0.000    0.000    0.000    0.000 
#
# Total GULP energy -122643.714795 kJ/mol
# GULP energy per Si atom -5574.714309 kJ/mol
# Density = 2.795146 g / cm^3
# Si number density = 28.015223 Si / 1000 Ang^3
#
#
#
# Elastic Constant Matrix: (Units=GPa)
#
#
# Indices 1 2 3 4 5 6 
#
# 1 100.6143 44.0700 51.3765 0.0000 31.4574 0.0000
# 2 44.0700 201.1840 69.3572 0.0000 31.0997 0.0000
# 3 51.3765 69.3572 166.2521 0.0000 63.4085 0.0000
# 4 0.0000 0.0000 0.0000 46.1369 0.0000 17.0873
# 5 31.4574 31.0997 63.4085 0.0000 53.9037 0.0000
# 6 0.0000 0.0000 0.0000 17.0873 0.0000 36.0155
#
#
#
# Elastic Compliance Matrix: (Units=1/GPa)
#
#
# Indices 1 2 3 4 5 6 
#
# 1 0.012906 -0.001564 -0.001464 0.000000 -0.004907 0.000000
# 2 -0.001564 0.006020 -0.001907 0.000000 -0.000317 0.000000
# 3 -0.001464 -0.001907 0.011821 0.000000 -0.011950 0.000000
# 4 0.000000 0.000000 0.000000 0.026295 0.000000 -0.012476
# 5 -0.004907 -0.000317 -0.011950 0.000000 0.035656 0.000000
# 6 0.000000 0.000000 0.000000 -0.012476 0.000000 0.033685
#
#
# Mechanical properties :
#
#
# Convention : Reuss Voigt Hill
#
# Bulk Modulus (GPa) = 47.90214 88.62864 68.26539
# Shear Modulus (GPa) = 34.91349 47.42766 41.17057
#
# Velocity S-wave (km/s) = 3.53403 4.11898 3.83767
# Velocity P-wave (km/s) = 5.81277 7.37061 6.63755
#
# Compressibility (1/GPa) = 0.02087589
#
# Stress axis : x y z
#
# Youngs Moduli (GPa) = 77.48479 166.12456 84.59494
#
# Poissons Ratio (x) = 0.25976 0.12389
# Poissons Ratio (y) = 0.12116 0.16133
# Poissons Ratio (z) = 0.11347 0.31682
#
# Static dielectric constant tensor:
#      x y z
#    x 2.517510 0.000000 -0.172500 
#    y 0.000000 2.100280 0.000000 
#    z -0.172500 0.000000 2.358690 
# 
# From -- ./inp_files/161108.got.cif
#   From: 2010.05.17/outbox.cif.g08.bks.cpg/sg15_81_cif.got.tgz:161108.got - 2010.06.03 18:47:42.
