data_PCOD9302701
_publ_section_title
;
Structure prediction by ZEFSAII (Michael W. Deem and Ramdas Pophale) SiO2 
 PCOD9302701
Probable space group: C 2/C
;
_chemical_formula_sum "Si O2"
_cell_formula_units_Z 44
_cell_length_a 24.044147
_cell_length_b 11.182297
_cell_length_c 11.090345
_cell_angle_alpha 90.000000
_cell_angle_beta 137.519410
_cell_angle_gamma 90.000000
_cell_volume 2013.762208
_symmetry_space_group_name_H-M "C 2/C"
_symmetry_group_IT_number 15
_symmetry_cell_setting 'monoclinic'
loop_
_space_group_symop_operation_xyz
x,y,z
-x,y,1/2-z
-x,-y,-z
x,-y,1/2+z
1/2+x,1/2+y,z
1/2-x,1/2+y,1/2-z
1/2-x,1/2-y,-z
1/2+x,1/2-y,1/2+z
loop_
_atom_site_type_symbol
_atom_site_label
_atom_site_fract_x
_atom_site_fract_y
_atom_site_fract_z
Si Si1 0.788376 0.237848 0.252450
Si Si2 0.000000 0.144778 0.250000
Si Si3 0.275307 0.866906 0.612498
Si Si4 0.562976 0.106816 0.450692
Si Si5 0.332058 0.403085 0.592658
Si Si6 0.950347 0.352789 0.991218
O O1 0.752814 0.149234 0.294391
O O2 0.849298 0.330787 0.414627
O O3 0.836440 0.163933 0.227351
O O4 0.715746 0.311815 0.072508
O O5 0.922917 0.073471 0.183965
O O6 0.037557 0.232405 0.413449
O O7 0.250000 0.750000 0.500000
O O8 0.373717 0.865184 0.777157
O O9 0.227521 0.982738 0.488694
O O10 0.500000 0.154700 0.250000
O O11 0.529230 0.128972 0.532168
O O12 0.565352 0.963627 0.444219
#
# Coordination Sequence:
#
# PCOD9302701 Si02
#       6
#     8   4   8   8   8   8
#     4  11  24  44  71 103 141 183 241 289 357 425
#     4  12  22  48  70 106 142 194 226 302 366 414
#     4  12  27  46  70 100 141 188 234 294 355 427
#     4  11  22  39  66 103 137 175 234 294 344 414
#     4  11  26  45  74 102 143 191 235 297 360 428
#     4  11  23  39  69  99 137 180 234 287 348 417
#
# _framework density 21.849651000000001
#
# number of rings (size 3 to 8) (size 9 to 14) (size 15 to 20)
#    0.000    0.727    6.364    1.091    2.545    1.455 
#    4.909    1.818    0.000    0.000    0.000    0.000 
#    0.000    0.000    0.000    0.000    0.000    0.000 
#
# Total GULP energy -122986.976807 kJ/mol
# GULP energy per Si atom -5590.317128 kJ/mol
# Density = 2.179992 g / cm^3
# Si number density = 21.849651 Si / 1000 Ang^3
#
#
#
# Elastic Constant Matrix: (Units=GPa)
#
#
# Indices 1 2 3 4 5 6 
#
# 1 54.0223 -7.8223 7.7533 0.0000 14.6722 0.0000
# 2 -7.8223 55.2532 18.3321 0.0000 -0.2267 0.0000
# 3 7.7533 18.3321 68.1946 0.0000 3.3683 0.0000
# 4 0.0000 0.0000 0.0000 25.4739 0.0000 -17.8243
# 5 14.6722 -0.2267 3.3683 0.0000 35.5433 0.0000
# 6 0.0000 0.0000 0.0000 -17.8243 0.0000 6.2346
#
#
#
# Elastic Compliance Matrix: (Units=1/GPa)
#
#
# Indices 1 2 3 4 5 6 
#
# 1 0.021933 0.004121 -0.003170 0.000000 -0.008727 0.000000
# 2 0.004121 0.020659 -0.005973 0.000000 -0.001003 0.000000
# 3 -0.003170 -0.005973 0.016645 0.000000 -0.000307 0.000000
# 4 0.000000 0.000000 0.000000 -0.039240 0.000000 -0.112184
# 5 -0.008727 -0.001003 -0.000307 0.000000 0.031760 0.000000
# 6 0.000000 0.000000 0.000000 -0.112184 0.000000 -0.160330
#
#
# Mechanical properties :
#
#
# Convention : Reuss Voigt Hill
#
# Bulk Modulus (GPa) = 20.32785 23.77735 22.05260
# Shear Modulus (GPa) = -60.87828 24.06418 -18.40705
#
# Velocity S-wave (km/s) = -5.28421 3.32226 -2.90563
# Velocity P-wave (km/s) = 5.28268 5.06186 1.06871
#
# Compressibility (1/GPa) = 0.04919359
#
# Stress axis : x y z
#
# Youngs Moduli (GPa) = 45.59368 48.40401 60.07773
#
# Poissons Ratio (x) = -0.19948 0.19047
# Poissons Ratio (y) = -0.18790 0.35882
# Poissons Ratio (z) = 0.14455 0.28910
#
# Static dielectric constant tensor:
#      x y z
#    x 1.829830 0.000000 0.027450 
#    y 0.000000 1.783210 0.000000 
#    z 0.027450 0.000000 1.835940 
# 
# From -- ./inp_files/95091.got.cif
#   From: 2010.05.17/outbox.cif.g08.bks.cpg/sg15_48_cif.got.tgz:95091.got - 2010.06.03 18:47:42.
