data_PCOD9302620
_publ_section_title
;
Structure prediction by ZEFSAII (Michael W. Deem and Ramdas Pophale) SiO2 
 PCOD9302620
Probable space group: C 2/C
;
_chemical_formula_sum "Si O2"
_cell_formula_units_Z 40
_cell_length_a 17.862130
_cell_length_b 9.638320
_cell_length_c 19.200359
_cell_angle_alpha 90.000000
_cell_angle_beta 37.340893
_cell_angle_gamma 90.000000
_cell_volume 2005.002098
_symmetry_space_group_name_H-M "C 2/C"
_symmetry_group_IT_number 15
_symmetry_cell_setting 'monoclinic'
loop_
_space_group_symop_operation_xyz
x,y,z
-x,y,1/2-z
-x,-y,-z
x,-y,1/2+z
1/2+x,1/2+y,z
1/2-x,1/2+y,1/2-z
1/2-x,1/2-y,-z
1/2+x,1/2-y,1/2+z
loop_
_atom_site_type_symbol
_atom_site_label
_atom_site_fract_x
_atom_site_fract_y
_atom_site_fract_z
Si Si1 0.918562 0.347345 0.501070
Si Si2 0.696036 0.917660 0.336349
Si Si3 0.548557 0.059147 0.145063
Si Si4 0.694230 0.810513 0.651068
Si Si5 0.634503 0.449796 0.423583
O O1 0.834107 0.424520 0.620453
O O2 0.909644 0.449979 0.441893
O O3 0.877973 0.189992 0.522293
O O4 0.061897 0.351801 0.418807
O O5 0.755663 0.833177 0.356491
O O6 0.784416 0.914366 0.204620
O O7 0.500000 0.978114 0.250000
O O8 0.427017 0.145474 0.213415
O O9 0.643065 0.167875 0.110343
O O10 0.796719 0.926962 0.587631
O O11 0.500000 0.500000 0.500000
#
# Coordination Sequence:
#
# PCOD9302620 Si02
#       5
#     8   8   8   8   8
#     4  11  23  36  67  88 126 171 202 267 326 366
#     4  11  22  39  59  97 122 161 219 259 320 381
#     4   8  20  41  63  87 124 176 202 262 324 376
#     4   9  20  40  61  84 131 158 213 259 313 385
#     4  12  23  37  63  96 128 163 211 273 314 380
#
# _framework density 19.950104
#
# number of rings (size 3 to 8) (size 9 to 14) (size 15 to 20)
#    1.200    0.400    4.000    1.200    2.800    1.600 
#    0.000    0.000    0.000    4.800    0.000    0.000 
#    0.000    0.000    0.000    0.000    0.000    0.000 
#
# Total GULP energy -111470.322009 kJ/mol
# GULP energy per Si atom -5573.516100 kJ/mol
# Density = 1.990470 g / cm^3
# Si number density = 19.950104 Si / 1000 Ang^3
#
#
#
# Elastic Constant Matrix: (Units=GPa)
#
#
# Indices 1 2 3 4 5 6 
#
# 1 73.0887 13.5089 24.4430 0.0000 -16.8442 0.0000
# 2 13.5089 74.8555 35.2316 0.0000 -16.3033 0.0000
# 3 24.4430 35.2316 81.8113 0.0000 -11.6187 0.0000
# 4 0.0000 0.0000 0.0000 11.8471 0.0000 -5.3995
# 5 -16.8442 -16.3033 -11.6187 0.0000 33.8301 0.0000
# 6 0.0000 0.0000 0.0000 -5.3995 0.0000 26.4929
#
#
#
# Elastic Compliance Matrix: (Units=1/GPa)
#
#
# Indices 1 2 3 4 5 6 
#
# 1 0.016618 0.000511 -0.004179 0.000000 0.007085 0.000000
# 2 0.000511 0.017964 -0.006963 0.000000 0.006520 0.000000
# 3 -0.004179 -0.006963 0.016503 0.000000 0.000232 0.000000
# 4 0.000000 0.000000 0.000000 0.093052 0.000000 0.018965
# 5 0.007085 0.006520 0.000232 0.000000 0.036309 0.000000
# 6 0.000000 0.000000 0.000000 0.018965 0.000000 0.041611
#
#
# Mechanical properties :
#
#
# Convention : Reuss Voigt Hill
#
# Bulk Modulus (GPa) = 33.53013 41.79138 37.66076
# Shear Modulus (GPa) = 19.74254 24.87215 22.30734
#
# Velocity S-wave (km/s) = 3.14920 3.53472 3.34751
# Velocity P-wave (km/s) = 5.48331 6.13616 5.81890
#
# Compressibility (1/GPa) = 0.02982392
#
# Stress axis : x y z
#
# Youngs Moduli (GPa) = 60.17580 55.66665 60.59439
#
# Poissons Ratio (x) = -0.02844 0.25321
# Poissons Ratio (y) = -0.03075 0.42191
# Poissons Ratio (z) = 0.25146 0.38760
#
# Static dielectric constant tensor:
#      x y z
#    x 1.730110 0.000000 0.019470 
#    y 0.000000 1.678170 0.000000 
#    z 0.019470 0.000000 1.755230 
# 
# From -- ./inp_files/276175.got.cif
#   From: 2010.05.17/outbox.cif.g08.bks.cpg/sg15_139_cif.got.tgz:276175.got - 2010.06.03 18:47:42.
