data_PCOD9302889
_publ_section_title
;
Structure prediction by ZEFSAII (Michael W. Deem and Ramdas Pophale) SiO2 
 PCOD9302889
Probable space group: C 2/C
;
_chemical_formula_sum "Si O2"
_cell_formula_units_Z 56
_cell_length_a 9.323624
_cell_length_b 22.876683
_cell_length_c 14.109631
_cell_angle_alpha 90.000000
_cell_angle_beta 112.091247
_cell_angle_gamma 90.000000
_cell_volume 2788.555164
_symmetry_space_group_name_H-M "C 2/C"
_symmetry_group_IT_number 15
_symmetry_cell_setting 'monoclinic'
loop_
_space_group_symop_operation_xyz
x,y,z
-x,y,1/2-z
-x,-y,-z
x,-y,1/2+z
1/2+x,1/2+y,z
1/2-x,1/2+y,1/2-z
1/2-x,1/2-y,-z
1/2+x,1/2-y,1/2+z
loop_
_atom_site_type_symbol
_atom_site_label
_atom_site_fract_x
_atom_site_fract_y
_atom_site_fract_z
Si Si1 0.246052 0.899608 0.574653
Si Si2 0.166973 0.829238 0.244003
Si Si3 0.676619 0.197257 0.257544
Si Si4 0.606074 0.974858 0.367613
Si Si5 0.921291 0.385022 0.425813
Si Si6 0.392573 0.610556 0.961824
Si Si7 0.285656 0.811542 0.958878
O O1 0.244341 0.852268 0.658792
O O2 0.333386 0.876399 0.503025
O O3 0.067587 0.911783 0.504342
O O4 0.343321 0.957758 0.621768
O O5 0.226913 0.764481 0.284634
O O6 0.293117 0.873808 0.314425
O O7 0.136052 0.840550 0.126102
O O8 0.000000 0.837912 0.250000
O O9 0.500000 0.195025 0.250000
O O10 0.690686 0.188856 0.148244
O O11 0.500000 0.963260 0.250000
O O12 0.503557 0.947491 0.427971
O O13 0.766800 0.939289 0.410450
O O14 0.059271 0.338258 0.456052
O O15 0.349514 0.642765 0.048548
O O16 0.250000 0.750000 0.000000
#
# Coordination Sequence:
#
# PCOD9302889 Si02
#       7
#     8   8   8   8   8   8   8
#     4  12  25  44  70 100 142 178 234 288 351 411
#     4  11  22  40  69 101 135 179 238 281 339 426
#     4  11  24  42  69 103 139 184 229 281 347 422
#     4  11  24  44  72  97 135 183 235 291 343 413
#     4  11  24  42  71  98 132 185 232 282 349 411
#     4  11  24  44  66 102 139 184 228 288 350 411
#     4  11  24  43  66 100 142 179 225 283 350 412
#
# _framework density 20.082084999999999
#
# number of rings (size 3 to 8) (size 9 to 14) (size 15 to 20)
#    0.000    0.857    5.714    1.286    2.000    1.143 
#    0.000    0.000    3.143    0.000    0.000    0.000 
#    0.000    0.000    0.000    0.000    0.000    0.000 
#
# Total GULP energy -156267.217154 kJ/mol
# GULP energy per Si atom -5580.972041 kJ/mol
# Density = 2.003638 g / cm^3
# Si number density = 20.082085 Si / 1000 Ang^3
#
#
#
# Elastic Constant Matrix: (Units=GPa)
#
#
# Indices 1 2 3 4 5 6 
#
# 1 103.6978 31.9211 41.9263 0.0000 -3.8418 0.0000
# 2 31.9211 83.3890 39.3329 0.0000 8.3443 0.0000
# 3 41.9263 39.3329 84.5536 0.0000 -8.5316 0.0000
# 4 0.0000 0.0000 0.0000 26.7606 0.0000 -1.6262
# 5 -3.8418 8.3443 -8.5316 0.0000 39.6134 0.0000
# 6 0.0000 0.0000 0.0000 -1.6262 0.0000 21.2491
#
#
#
# Elastic Compliance Matrix: (Units=1/GPa)
#
#
# Indices 1 2 3 4 5 6 
#
# 1 0.012433 -0.002498 -0.004935 0.000000 0.000669 0.000000
# 2 -0.002498 0.016847 -0.007136 0.000000 -0.005328 0.000000
# 3 -0.004935 -0.007136 0.018090 0.000000 0.004921 0.000000
# 4 0.000000 0.000000 0.000000 0.037543 0.000000 0.002873
# 5 0.000669 -0.005328 0.004921 0.000000 0.027491 0.000000
# 6 0.000000 0.000000 0.000000 0.002873 0.000000 0.047281
#
#
# Mechanical properties :
#
#
# Convention : Reuss Voigt Hill
#
# Bulk Modulus (GPa) = 54.85091 55.33343 55.09217
# Shear Modulus (GPa) = 25.65419 28.08862 26.87141
#
# Velocity S-wave (km/s) = 3.57804 3.74396 3.66194
# Velocity P-wave (km/s) = 6.66652 6.80464 6.73594
#
# Compressibility (1/GPa) = 0.01823124
#
# Stress axis : x y z
#
# Youngs Moduli (GPa) = 80.43394 59.35658 55.27956
#
# Poissons Ratio (x) = 0.14829 0.27281
# Poissons Ratio (y) = 0.20095 0.39447
# Poissons Ratio (z) = 0.39695 0.42356
#
# Static dielectric constant tensor:
#      x y z
#    x 1.705880 0.000000 -0.027370 
#    y 0.000000 1.728400 0.000000 
#    z -0.027370 0.000000 1.711120 
# 
# From -- ./inp_files/137952.got.cif
#   From: 2010.05.17/outbox.cif.g08.bks.cpg/sg15_69_cif.got.tgz:137952.got - 2010.06.03 18:47:42.
