data_PCOD9302318
_publ_section_title
;
Structure prediction by ZEFSAII (Michael W. Deem and Ramdas Pophale) SiO2 
 PCOD9302318
Probable space group: C 2/C
;
_chemical_formula_sum "Si O2"
_cell_formula_units_Z 52
_cell_length_a 11.400989
_cell_length_b 12.203337
_cell_length_c 16.567523
_cell_angle_alpha 90.000000
_cell_angle_beta 63.110450
_cell_angle_gamma 90.000000
_cell_volume 2055.820322
_symmetry_space_group_name_H-M "C 2/C"
_symmetry_group_IT_number 15
_symmetry_cell_setting 'monoclinic'
loop_
_space_group_symop_operation_xyz
x,y,z
-x,y,1/2-z
-x,-y,-z
x,-y,1/2+z
1/2+x,1/2+y,z
1/2-x,1/2+y,1/2-z
1/2-x,1/2-y,-z
1/2+x,1/2-y,1/2+z
loop_
_atom_site_type_symbol
_atom_site_label
_atom_site_fract_x
_atom_site_fract_y
_atom_site_fract_z
Si Si1 0.258892 0.676810 0.671814
Si Si2 0.396888 0.617488 0.346223
Si Si3 0.480526 0.265130 0.977641
Si Si4 0.349144 0.294105 0.311564
Si Si5 0.750000 0.750000 0.500000
Si Si6 0.632362 0.033868 0.502111
Si Si7 0.138469 0.544695 0.168211
O O1 0.153714 0.769746 0.680607
O O2 0.389664 0.715244 0.584628
O O3 0.263625 0.659505 0.766260
O O4 0.233404 0.555769 0.648226
O O5 0.500000 0.568497 0.250000
O O6 0.462923 0.644969 0.412407
O O7 0.263425 0.550343 0.408838
O O8 0.627384 0.255124 0.965877
O O9 0.411717 0.156879 0.957782
O O10 0.500000 0.318671 0.250000
O O11 0.333548 0.317630 0.409729
O O12 0.333992 0.161880 0.303693
O O13 0.642879 0.942069 0.569603
O O14 0.500000 0.000000 0.500000
O O15 0.000000 0.509696 0.250000
#
# Coordination Sequence:
#
# PCOD9302318 Si02
#       7
#     8   8   8   8   4   8   8
#     4  11  21  45  72 102 148 189 247 310 372 441
#     4  11  22  41  72 108 138 195 247 307 372 453
#     4  11  22  42  70 102 138 199 243 294 376 448
#     4  11  25  44  69 104 145 189 246 300 374 445
#     4  12  24  42  70  96 146 204 236 304 376 452
#     4  11  23  41  72 108 148 180 249 314 374 448
#     4  11  24  42  71 109 138 187 251 310 360 449
#
# _framework density 25.294039000000001
#
# number of rings (size 3 to 8) (size 9 to 14) (size 15 to 20)
#    0.000    0.923    4.615    3.231    8.615    0.000 
#    0.000    0.769    3.385    5.538    0.000    0.000 
#    0.000    0.000    0.000    0.000    0.000    0.000 
#
# Total GULP energy -144923.985874 kJ/mol
# GULP energy per Si atom -5573.999457 kJ/mol
# Density = 2.523647 g / cm^3
# Si number density = 25.294039 Si / 1000 Ang^3
#
#
#
# Elastic Constant Matrix: (Units=GPa)
#
#
# Indices 1 2 3 4 5 6 
#
# 1 107.3185 3.6643 40.3488 0.0000 -4.1837 0.0000
# 2 3.6643 56.5648 -19.0517 0.0000 -5.6870 0.0000
# 3 40.3488 -19.0517 166.6169 0.0000 -7.8943 0.0000
# 4 0.0000 0.0000 0.0000 159.4143 0.0000 20.9273
# 5 -4.1837 -5.6870 -7.8943 0.0000 56.3540 0.0000
# 6 0.0000 0.0000 0.0000 20.9273 0.0000 21.3199
#
#
#
# Elastic Compliance Matrix: (Units=1/GPa)
#
#
# Indices 1 2 3 4 5 6 
#
# 1 0.010389 -0.001552 -0.002682 0.000000 0.000239 0.000000
# 2 -0.001552 0.018885 0.002638 0.000000 0.002160 0.000000
# 3 -0.002682 0.002638 0.007003 0.000000 0.001048 0.000000
# 4 0.000000 0.000000 0.000000 0.007201 0.000000 -0.007068
# 5 0.000239 0.002160 0.001048 0.000000 0.018128 0.000000
# 6 0.000000 0.000000 0.000000 -0.007068 0.000000 0.053843
#
#
# Mechanical properties :
#
#
# Convention : Reuss Voigt Hill
#
# Bulk Modulus (GPa) = 30.22698 42.26921 36.24810
# Shear Modulus (GPa) = 38.55995 67.78688 53.17342
#
# Velocity S-wave (km/s) = 3.90868 5.18244 4.58996
# Velocity P-wave (km/s) = 5.68740 7.24967 6.51553
#
# Compressibility (1/GPa) = 0.03308302
#
# Stress axis : x y z
#
# Youngs Moduli (GPa) = 96.25830 52.95216 142.80563
#
# Poissons Ratio (x) = 0.08220 0.38300
# Poissons Ratio (y) = 0.14942 -0.37667
# Poissons Ratio (z) = 0.25816 -0.13967
#
# Static dielectric constant tensor:
#      x y z
#    x 2.001280 0.000000 0.034090 
#    y 0.000000 1.946330 0.000000 
#    z 0.034090 0.000000 1.942250 
# 
# From -- ./inp_files/197686.got.cif
#   From: 2010.05.17/outbox.cif.g08.bks.cpg/sg15_99_cif.got.tgz:197686.got - 2010.06.03 18:47:42.
