data_PCOD9302725
_publ_section_title
;
Structure prediction by ZEFSAII (Michael W. Deem and Ramdas Pophale) SiO2 
 PCOD9302725
Probable space group: C 2/C
;
_chemical_formula_sum "Si O2"
_cell_formula_units_Z 44
_cell_length_a 15.872594
_cell_length_b 10.195906
_cell_length_c 14.404294
_cell_angle_alpha 90.000000
_cell_angle_beta 61.811017
_cell_angle_gamma 90.000000
_cell_volume 2054.640975
_symmetry_space_group_name_H-M "C 2/C"
_symmetry_group_IT_number 15
_symmetry_cell_setting 'monoclinic'
loop_
_space_group_symop_operation_xyz
x,y,z
-x,y,1/2-z
-x,-y,-z
x,-y,1/2+z
1/2+x,1/2+y,z
1/2-x,1/2+y,1/2-z
1/2-x,1/2-y,-z
1/2+x,1/2-y,1/2+z
loop_
_atom_site_type_symbol
_atom_site_label
_atom_site_fract_x
_atom_site_fract_y
_atom_site_fract_z
Si Si1 0.000000 0.112148 0.250000
Si Si2 0.229770 0.542939 0.455821
Si Si3 0.711516 0.170557 0.823385
Si Si4 0.625383 0.602993 0.493429
Si Si5 0.843371 0.704470 0.852625
Si Si6 0.084001 0.091606 0.849710
O O1 0.067758 0.210089 0.158956
O O2 0.060964 0.022969 0.287188
O O3 0.188984 0.461459 0.392105
O O4 0.316724 0.453210 0.449273
O O5 0.169093 0.576320 0.578974
O O6 0.258922 0.688057 0.406964
O O7 0.683494 0.289414 0.905447
O O8 0.652906 0.175253 0.758185
O O9 0.823934 0.168726 0.735629
O O10 0.520455 0.654567 0.578511
O O11 0.611667 0.479944 0.431198
#
# Coordination Sequence:
#
# PCOD9302725 Si02
#       6
#     4   8   8   8   8   8
#     4  12  20  44  66  94 130 186 224 272 340 408
#     4  11  23  41  64  96 137 179 222 276 349 395
#     4  12  22  42  69 104 137 176 225 290 335 392
#     4  11  22  39  67 105 133 177 232 277 333 404
#     4  11  24  41  68  96 135 181 225 277 336 418
#     4  11  22  39  69  99 135 178 234 271 329 416
#
# _framework density 21.414932
#
# number of rings (size 3 to 8) (size 9 to 14) (size 15 to 20)
#    0.000    0.727    7.273    0.545    0.000    0.000 
#    0.000    2.727    0.000    0.000    0.000    0.000 
#    0.000    0.000    0.000    0.000    0.000    0.000 
#
# Total GULP energy -122832.753347 kJ/mol
# GULP energy per Si atom -5583.306970 kJ/mol
# Density = 2.136619 g / cm^3
# Si number density = 21.414932 Si / 1000 Ang^3
#
#
#
# Elastic Constant Matrix: (Units=GPa)
#
#
# Indices 1 2 3 4 5 6 
#
# 1 49.7276 20.6631 32.3628 0.0000 -9.5103 0.0000
# 2 20.6631 63.5880 51.7374 0.0000 -7.6568 0.0000
# 3 32.3628 51.7374 114.9742 0.0000 -0.8794 0.0000
# 4 0.0000 0.0000 0.0000 55.0171 0.0000 -2.3153
# 5 -9.5103 -7.6568 -0.8794 0.0000 47.9481 0.0000
# 6 0.0000 0.0000 0.0000 -2.3153 0.0000 23.8245
#
#
#
# Elastic Compliance Matrix: (Units=1/GPa)
#
#
# Indices 1 2 3 4 5 6 
#
# 1 0.026133 -0.003131 -0.005912 0.000000 0.004575 0.000000
# 2 -0.003131 0.025881 -0.010740 0.000000 0.003315 0.000000
# 3 -0.005912 -0.010740 0.015174 0.000000 -0.002609 0.000000
# 4 0.000000 0.000000 0.000000 0.018251 0.000000 0.001774
# 5 0.004575 0.003315 -0.002609 0.000000 0.022245 0.000000
# 6 0.000000 0.000000 0.000000 0.001774 0.000000 0.042146
#
#
# Mechanical properties :
#
#
# Convention : Reuss Voigt Hill
#
# Bulk Modulus (GPa) = 36.20116 48.64625 42.42371
# Shear Modulus (GPa) = 25.17593 33.59305 29.38449
#
# Velocity S-wave (km/s) = 3.43246 3.96495 3.70827
# Velocity P-wave (km/s) = 5.71405 6.61260 6.17968
#
# Compressibility (1/GPa) = 0.02762343
#
# Stress axis : x y z
#
# Youngs Moduli (GPa) = 38.26581 38.63864 65.90034
#
# Poissons Ratio (x) = 0.12097 0.38960
# Poissons Ratio (y) = 0.11981 0.70774
# Poissons Ratio (z) = 0.22623 0.41496
#
# Static dielectric constant tensor:
#      x y z
#    x 1.814770 0.000000 -0.054950 
#    y 0.000000 1.734760 0.000000 
#    z -0.054950 0.000000 1.838020 
# 
# From -- ./inp_files/159675.got.cif
#   From: 2010.05.17/outbox.cif.g08.bks.cpg/sg15_80_cif.got.tgz:159675.got - 2010.06.03 18:47:42.
