data_PCOD9302977
_publ_section_title
;
Structure prediction by ZEFSAII (Michael W. Deem and Ramdas Pophale) SiO2 
 PCOD9302977
Probable space group: C 2/C
;
_chemical_formula_sum "Si O2"
_cell_formula_units_Z 36
_cell_length_a 7.926515
_cell_length_b 29.683654
_cell_length_c 12.661993
_cell_angle_alpha 90.000000
_cell_angle_beta 36.460517
_cell_angle_gamma 90.000000
_cell_volume 1770.453697
_symmetry_space_group_name_H-M "C 2/C"
_symmetry_group_IT_number 15
_symmetry_cell_setting 'monoclinic'
loop_
_space_group_symop_operation_xyz
x,y,z
-x,y,1/2-z
-x,-y,-z
x,-y,1/2+z
1/2+x,1/2+y,z
1/2-x,1/2+y,1/2-z
1/2-x,1/2-y,-z
1/2+x,1/2-y,1/2+z
loop_
_atom_site_type_symbol
_atom_site_label
_atom_site_fract_x
_atom_site_fract_y
_atom_site_fract_z
Si Si1 0.500000 0.857458 0.750000
Si Si2 0.733623 0.510760 0.058939
Si Si3 0.470772 0.410551 0.385578
Si Si4 0.000000 0.716882 0.750000
Si Si5 0.000000 0.426304 0.250000
Si Si6 0.456532 0.305151 0.653794
O O1 0.709482 0.887779 0.575178
O O2 0.696218 0.827537 0.726423
O O3 0.500000 0.534158 0.250000
O O4 0.594125 0.464309 0.087699
O O5 0.000000 0.500000 0.000000
O O6 0.830494 0.541993 0.916059
O O7 0.500000 0.395300 0.250000
O O8 0.762152 0.401378 0.301139
O O9 0.262541 0.692104 0.561405
O O10 0.101565 0.752310 0.789854
O O11 0.500000 0.325196 0.750000
#
# Coordination Sequence:
#
# PCOD9302977 Si02
#       6
#     4   8   8   4   4   8
#     4  12  27  38  62  92 131 170 194 244 311 382
#     4  11  22  41  66  89 113 153 216 272 310 354
#     4  11  26  43  56  91 124 160 210 249 314 375
#     4   8  18  43  70  96 123 154 208 254 283 348
#     4  12  23  41  66  82 116 164 202 272 312 354
#     4   9  20  42  65  95 125 158 202 246 297 353
#
# _framework density 20.333770999999999
#
# number of rings (size 3 to 8) (size 9 to 14) (size 15 to 20)
#    0.667    0.889    4.444    1.333    3.111    5.333 
#    0.000    0.000    0.000    0.000    0.000    0.000 
#    0.000    0.000    0.000    0.000    0.000    0.000 
#
# Total GULP energy -100501.506570 kJ/mol
# GULP energy per Si atom -5583.417032 kJ/mol
# Density = 2.028749 g / cm^3
# Si number density = 20.333771 Si / 1000 Ang^3
#
#
#
# Elastic Constant Matrix: (Units=GPa)
#
#
# Indices 1 2 3 4 5 6 
#
# 1 172.1279 36.2711 94.6510 0.0000 -1.2106 0.0000
# 2 36.2711 42.5668 41.2235 0.0000 4.4075 0.0000
# 3 94.6510 41.2235 207.3536 0.0000 12.0012 0.0000
# 4 0.0000 0.0000 0.0000 45.5942 0.0000 -0.9244
# 5 -1.2106 4.4075 12.0012 0.0000 32.6888 0.0000
# 6 0.0000 0.0000 0.0000 -0.9244 0.0000 4.3382
#
#
#
# Elastic Compliance Matrix: (Units=1/GPa)
#
#
# Indices 1 2 3 4 5 6 
#
# 1 0.008461 -0.004417 -0.003103 0.000000 0.002048 0.000000
# 2 -0.004417 0.031508 -0.004079 0.000000 -0.002914 0.000000
# 3 -0.003103 -0.004079 0.007177 0.000000 -0.002200 0.000000
# 4 0.000000 0.000000 0.000000 0.022028 0.000000 0.004694
# 5 0.002048 -0.002914 -0.002200 0.000000 0.031868 0.000000
# 6 0.000000 0.000000 0.000000 0.004694 0.000000 0.231513
#
#
# Mechanical properties :
#
#
# Convention : Reuss Voigt Hill
#
# Bulk Modulus (GPa) = 41.75529 85.14884 63.45206
# Shear Modulus (GPa) = 13.74625 33.18443 23.46534
#
# Velocity S-wave (km/s) = 2.60288 4.04417 3.40076
# Velocity P-wave (km/s) = 5.44177 7.98583 6.83324
#
# Compressibility (1/GPa) = 0.02394906
#
# Stress axis : x y z
#
# Youngs Moduli (GPa) = 118.19185 31.73758 139.32978
#
# Poissons Ratio (x) = 0.14018 0.43228
# Poissons Ratio (y) = 0.52204 0.56836
# Poissons Ratio (z) = 0.36670 0.12947
#
# Static dielectric constant tensor:
#      x y z
#    x 1.734420 0.000000 0.022880 
#    y 0.000000 1.732880 0.000000 
#    z 0.022880 0.000000 1.733740 
# 
# From -- ./inp_files/138872.got.cif
#   From: 2010.05.17/outbox.cif.g08.bks.cpg/sg15_70_cif.got.tgz:138872.got - 2010.06.03 18:47:42.
