data_PCOD9302655
_publ_section_title
;
Structure prediction by ZEFSAII (Michael W. Deem and Ramdas Pophale) SiO2 
 PCOD9302655
Probable space group: C 2/C
;
_chemical_formula_sum "Si O2"
_cell_formula_units_Z 48
_cell_length_a 16.321152
_cell_length_b 28.059626
_cell_length_c 9.248188
_cell_angle_alpha 90.000000
_cell_angle_beta 31.196111
_cell_angle_gamma 90.000000
_cell_volume 2193.779952
_symmetry_space_group_name_H-M "C 2/C"
_symmetry_group_IT_number 15
_symmetry_cell_setting 'monoclinic'
loop_
_space_group_symop_operation_xyz
x,y,z
-x,y,1/2-z
-x,-y,-z
x,-y,1/2+z
1/2+x,1/2+y,z
1/2-x,1/2+y,1/2-z
1/2-x,1/2-y,-z
1/2+x,1/2-y,1/2+z
loop_
_atom_site_type_symbol
_atom_site_label
_atom_site_fract_x
_atom_site_fract_y
_atom_site_fract_z
Si Si1 0.261185 0.898307 0.153620
Si Si2 0.083948 0.206647 0.361412
Si Si3 0.152086 0.450788 0.204027
Si Si4 0.894193 0.899658 0.633567
Si Si5 0.305669 0.056275 0.300252
Si Si6 0.742053 0.296172 0.303560
O O1 0.326130 0.938968 0.159669
O O2 0.302772 0.847656 0.162175
O O3 0.070810 0.905033 0.428666
O O4 0.322224 0.904322 0.899410
O O5 0.115016 0.156261 0.391220
O O6 0.141263 0.251609 0.365966
O O7 0.903586 0.213204 0.584678
O O8 0.175606 0.201590 0.068649
O O9 0.205526 0.505239 0.104748
O O10 0.964513 0.445393 0.463991
O O11 0.266142 0.415105 0.946940
O O12 0.843183 0.931269 0.574396
#
# Coordination Sequence:
#
# PCOD9302655 Si02
#       6
#     8   8   8   8   8   8
#     4  11  22  39  63  91 124 157 202 259 312 355
#     4   9  18  35  58  89 118 151 201 251 295 362
#     4  11  23  42  61  85 124 166 210 249 301 370
#     4  11  22  39  63  93 118 159 210 254 300 369
#     4  11  25  40  59  89 126 164 201 255 312 365
#     4   9  18  35  59  88 118 152 197 255 299 352
#
# _framework density 21.880044000000002
#
# number of rings (size 3 to 8) (size 9 to 14) (size 15 to 20)
#    0.000    1.667    1.667    3.000    0.000    8.000 
#    6.000    0.833    0.000    2.000    0.000    0.000 
#    0.000    0.000    0.000    0.000    0.000    0.000 
#
# Total GULP energy -134111.145971 kJ/mol
# GULP energy per Si atom -5587.964415 kJ/mol
# Density = 2.183024 g / cm^3
# Si number density = 21.880044 Si / 1000 Ang^3
#
#
#
# Elastic Constant Matrix: (Units=GPa)
#
#
# Indices 1 2 3 4 5 6 
#
# 1 45.0785 33.1052 10.4783 0.0000 -10.5338 0.0000
# 2 33.1052 111.5830 22.8578 0.0000 -22.5222 0.0000
# 3 10.4783 22.8578 44.1468 -0.0001 -9.9107 0.0000
# 4 0.0000 0.0000 -0.0001 9.9496 0.0000 -8.7797
# 5 -10.5338 -22.5222 -9.9107 0.0000 26.9189 0.0000
# 6 0.0000 0.0000 0.0000 -8.7797 0.0000 42.3518
#
#
#
# Elastic Compliance Matrix: (Units=1/GPa)
#
#
# Indices 1 2 3 4 5 6 
#
# 1 0.029078 -0.007284 -0.002119 0.000000 0.004504 0.000000
# 2 -0.007284 0.013253 -0.003580 0.000000 0.006920 0.000000
# 3 -0.002119 -0.003580 0.026325 0.000000 0.005868 0.000000
# 4 0.000000 0.000000 0.000000 0.123008 0.000000 0.025500
# 5 0.004504 0.006920 0.005868 0.000000 0.046862 0.000000
# 6 0.000000 0.000000 0.000000 0.025500 0.000000 0.028898
#
#
# Mechanical properties :
#
#
# Convention : Reuss Voigt Hill
#
# Bulk Modulus (GPa) = 23.42405 37.07678 30.25042
# Shear Modulus (GPa) = 16.25383 24.80183 20.52783
#
# Velocity S-wave (km/s) = 2.72850 3.37046 3.06633
# Velocity P-wave (km/s) = 4.54480 5.66824 5.13732
#
# Compressibility (1/GPa) = 0.04269116
#
# Stress axis : x y z
#
# Youngs Moduli (GPa) = 34.39053 75.45447 37.98602
#
# Poissons Ratio (x) = 0.54959 0.08050
# Poissons Ratio (y) = 0.25049 0.13598
# Poissons Ratio (z) = 0.07288 0.27010
#
# Static dielectric constant tensor:
#      x y z
#    x 1.780490 0.000000 0.020470 
#    y 0.000000 1.767530 0.000000 
#    z 0.020470 0.000000 1.843570 
# 
# From -- ./inp_files/44430.got.cif
#   From: 2010.05.17/outbox.cif.g08.bks.cpg/sg15_23_cif.got.tgz:44430.got - 2010.06.03 18:47:42.
