data_PCOD9302101
_publ_section_title
;
Structure prediction by ZEFSAII (Michael W. Deem and Ramdas Pophale) SiO2 
 PCOD9302101
Probable space group: C 2/C
;
_chemical_formula_sum "Si O2"
_cell_formula_units_Z 44
_cell_length_a 7.935627
_cell_length_b 11.515812
_cell_length_c 25.537530
_cell_angle_alpha 90.000000
_cell_angle_beta 95.605158
_cell_angle_gamma 90.000000
_cell_volume 2322.593420
_symmetry_space_group_name_H-M "C 2/C"
_symmetry_group_IT_number 15
_symmetry_cell_setting 'monoclinic'
loop_
_space_group_symop_operation_xyz
x,y,z
-x,y,1/2-z
-x,-y,-z
x,-y,1/2+z
1/2+x,1/2+y,z
1/2-x,1/2+y,1/2-z
1/2-x,1/2-y,-z
1/2+x,1/2-y,1/2+z
loop_
_atom_site_type_symbol
_atom_site_label
_atom_site_fract_x
_atom_site_fract_y
_atom_site_fract_z
Si Si1 0.803916 0.847538 0.152556
Si Si2 0.018021 0.803270 0.694259
Si Si3 0.571676 0.384906 0.529122
Si Si4 0.935266 0.303685 0.562949
Si Si5 0.000000 0.970975 0.250000
Si Si6 0.287525 0.601706 0.106629
O O1 0.640942 0.772145 0.162733
O O2 0.910848 0.770138 0.115440
O O3 0.890976 0.889510 0.209040
O O4 0.770944 0.966966 0.120852
O O5 0.838998 0.828649 0.660916
O O6 0.000000 0.742813 0.750000
O O7 0.086182 0.933232 0.713016
O O8 0.500000 0.500000 0.500000
O O9 0.769456 0.385274 0.551555
O O10 0.558467 0.280823 0.486995
O O11 0.447860 0.371845 0.574611
O O12 0.114733 0.364478 0.573788
#
# Coordination Sequence:
#
# PCOD9302101 Si02
#       6
#     8   8   8   8   4   8
#     4  11  21  42  63  93 127 162 214 254 313 378
#     4   9  21  42  59  88 132 159 204 265 304 372
#     4  11  23  44  64  93 133 162 211 265 311 375
#     4  11  25  40  67  94 122 172 209 257 319 372
#     4   8  22  36  62  86 124 162 202 262 306 366
#     4  11  23  43  63  95 128 165 209 259 310 374
#
# _framework density 18.944341000000001
#
# number of rings (size 3 to 8) (size 9 to 14) (size 15 to 20)
#    0.545    1.091    3.636    0.545    2.545    2.182 
#    3.273    0.000    0.000    0.000    0.000    0.000 
#    0.000    0.000    0.000    0.000    0.000    0.000 
#
# Total GULP energy -122522.399246 kJ/mol
# GULP energy per Si atom -5569.199966 kJ/mol
# Density = 1.890122 g / cm^3
# Si number density = 18.944341 Si / 1000 Ang^3
#
#
#
# Elastic Constant Matrix: (Units=GPa)
#
#
# Indices 1 2 3 4 5 6 
#
# 1 82.9883 46.4572 43.2683 0.0000 16.5310 0.0000
# 2 46.4572 72.2627 26.2666 0.0000 11.2657 0.0000
# 3 43.2683 26.2666 80.7974 0.0000 15.6027 0.0000
# 4 0.0000 0.0000 0.0000 14.9482 0.0000 8.8448
# 5 16.5310 11.2657 15.6027 0.0000 32.6891 0.0000
# 6 0.0000 0.0000 0.0000 8.8448 0.0000 12.0823
#
#
#
# Elastic Compliance Matrix: (Units=1/GPa)
#
#
# Indices 1 2 3 4 5 6 
#
# 1 0.023538 -0.011569 -0.008058 0.000000 -0.004070 0.000000
# 2 -0.011569 0.021704 -0.000601 0.000000 -0.001342 0.000000
# 3 -0.008058 -0.000601 0.017691 0.000000 -0.004162 0.000000
# 4 0.000000 0.000000 0.000000 0.118017 0.000000 -0.086394
# 5 -0.004070 -0.001342 -0.004162 0.000000 0.035099 0.000000
# 6 0.000000 0.000000 0.000000 -0.086394 0.000000 0.146011
#
#
# Mechanical properties :
#
#
# Convention : Reuss Voigt Hill
#
# Bulk Modulus (GPa) = 44.49082 52.00363 48.24723
# Shear Modulus (GPa) = 12.19485 19.94766 16.07126
#
# Velocity S-wave (km/s) = 2.53992 3.24846 2.91579
# Velocity P-wave (km/s) = 5.66900 6.44828 6.07116
#
# Compressibility (1/GPa) = 0.02247655
#
# Stress axis : x y z
#
# Youngs Moduli (GPa) = 42.48365 46.07471 56.52588
#
# Poissons Ratio (x) = 0.53304 0.45550
# Poissons Ratio (y) = 0.49150 0.03398
# Poissons Ratio (z) = 0.34234 0.02769
#
# Static dielectric constant tensor:
#      x y z
#    x 1.655730 0.000000 -0.052690 
#    y 0.000000 1.655150 0.000000 
#    z -0.052690 0.000000 1.843570 
# 
# From -- ./inp_files/304981.got.cif
#   From: 2010.05.17/outbox.cif.g08.bks.cpg/sg15_153_cif.got.tgz:304981.got - 2010.06.03 18:47:42.
