data_PCOD9302234
_publ_section_title
;
Structure prediction by ZEFSAII (Michael W. Deem and Ramdas Pophale) SiO2 
 PCOD9302234
Probable space group: C 2/C
;
_chemical_formula_sum "Si O2"
_cell_formula_units_Z 60
_cell_length_a 23.133040
_cell_length_b 9.354447
_cell_length_c 14.184629
_cell_angle_alpha 90.000000
_cell_angle_beta 111.079139
_cell_angle_gamma 90.000000
_cell_volume 2864.110735
_symmetry_space_group_name_H-M "C 2/C"
_symmetry_group_IT_number 15
_symmetry_cell_setting 'monoclinic'
loop_
_space_group_symop_operation_xyz
x,y,z
-x,y,1/2-z
-x,-y,-z
x,-y,1/2+z
1/2+x,1/2+y,z
1/2-x,1/2+y,1/2-z
1/2-x,1/2-y,-z
1/2+x,1/2-y,1/2+z
loop_
_atom_site_type_symbol
_atom_site_label
_atom_site_fract_x
_atom_site_fract_y
_atom_site_fract_z
Si Si1 0.350345 0.566170 0.018262
Si Si2 0.465194 0.618587 0.540720
Si Si3 0.941089 0.585163 0.925460
Si Si4 0.396203 0.013566 0.206675
Si Si5 0.777334 0.863111 0.656180
Si Si6 0.640503 0.876087 0.508562
Si Si7 0.737716 0.966317 0.313249
Si Si8 0.500000 0.247632 0.250000
O O1 0.401632 0.446687 0.042304
O O2 0.331647 0.604364 0.114425
O O3 0.376971 0.711148 0.984977
O O4 0.289171 0.520331 0.924933
O O5 0.500000 0.500000 0.500000
O O6 0.448109 0.755944 0.467723
O O7 0.503781 0.665540 0.655251
O O8 0.932812 0.572509 0.809007
O O9 0.883951 0.494350 0.933914
O O10 0.000000 0.500000 0.000000
O O11 0.385666 0.922364 0.107051
O O12 0.326495 0.048009 0.201655
O O13 0.438985 0.148431 0.208057
O O14 0.714574 0.871741 0.557312
O O15 0.780326 0.702249 0.699408
O O16 0.768181 0.973989 0.735777
#
# Coordination Sequence:
#
# PCOD9302234 Si02
#       8
#     8   8   8   8   8   8   8   4
#     4  11  25  44  68 103 149 176 223 289 363 408
#     4  12  29  48  71 105 148 181 232 299 357 416
#     4  12  24  44  71 101 132 184 243 284 342 416
#     4  12  22  44  76  99 135 183 246 285 340 416
#     4  11  23  44  64 105 140 179 229 283 349 414
#     4  11  21  43  71  98 135 185 232 285 337 426
#     4  11  24  41  73 101 139 183 229 286 350 416
#     4  12  28  48  70 106 136 188 240 292 346 424
#
# _framework density 20.948910000000001
#
# number of rings (size 3 to 8) (size 9 to 14) (size 15 to 20)
#    0.000    0.533    6.667    1.600    1.867    3.200 
#    0.000    2.000    0.000    0.000    0.000    0.000 
#    0.000    0.000    0.000    0.000    0.000    0.000 
#
# Total GULP energy -167764.491791 kJ/mol
# GULP energy per Si atom -5592.149726 kJ/mol
# Density = 2.090123 g / cm^3
# Si number density = 20.948910 Si / 1000 Ang^3
#
#
#
# Elastic Constant Matrix: (Units=GPa)
#
#
# Indices 1 2 3 4 5 6 
#
# 1 83.4207 54.6530 10.9220 0.0000 -5.4681 0.0000
# 2 54.6530 109.0058 27.7791 0.0000 -10.8550 0.0000
# 3 10.9220 27.7791 109.5159 0.0000 -12.0699 0.0000
# 4 0.0000 0.0000 0.0000 35.4837 0.0000 -6.2199
# 5 -5.4681 -10.8550 -12.0699 0.0000 23.9986 0.0000
# 6 0.0000 0.0000 0.0000 -6.2199 0.0000 36.6747
#
#
#
# Elastic Compliance Matrix: (Units=1/GPa)
#
#
# Indices 1 2 3 4 5 6 
#
# 1 0.017881 -0.009080 0.000547 0.000000 0.000242 0.000000
# 2 -0.009080 0.014684 -0.002451 0.000000 0.003340 0.000000
# 3 0.000547 -0.002451 0.010153 0.000000 0.004122 0.000000
# 4 0.000000 0.000000 0.000000 0.029045 0.000000 0.004926
# 5 0.000242 0.003340 0.004122 0.000000 0.045308 0.000000
# 6 0.000000 0.000000 0.000000 0.004926 0.000000 0.028102
#
#
# Mechanical properties :
#
#
# Convention : Reuss Voigt Hill
#
# Bulk Modulus (GPa) = 48.19743 54.29453 51.24598
# Shear Modulus (GPa) = 28.72620 33.13729 30.93174
#
# Velocity S-wave (km/s) = 3.70706 3.98152 3.84674
# Velocity P-wave (km/s) = 6.43274 6.86371 6.65171
#
# Compressibility (1/GPa) = 0.02074799
#
# Stress axis : x y z
#
# Youngs Moduli (GPa) = 55.92673 68.10336 98.49741
#
# Poissons Ratio (x) = 0.61839 -0.05384
# Poissons Ratio (y) = 0.50782 0.24140
# Poissons Ratio (z) = -0.03057 0.16691
#
# Static dielectric constant tensor:
#      x y z
#    x 1.846910 0.000000 -0.025450 
#    y 0.000000 1.756360 0.000000 
#    z -0.025450 0.000000 1.747270 
# 
# From -- ./inp_files/172432.got.cif
#   From: 2010.05.17/outbox.cif.g08.bks.cpg/sg15_87_cif.got.tgz:172432.got - 2010.06.03 18:47:42.
