data_PCOD9302090
_publ_section_title
;
Structure prediction by ZEFSAII (Michael W. Deem and Ramdas Pophale) SiO2 
 PCOD9302090
Probable space group: C 2/C
;
_chemical_formula_sum "Si O2"
_cell_formula_units_Z 36
_cell_length_a 5.159981
_cell_length_b 18.278055
_cell_length_c 14.987962
_cell_angle_alpha 90.000000
_cell_angle_beta 78.256175
_cell_angle_gamma 90.000000
_cell_volume 1383.990987
_symmetry_space_group_name_H-M "C 2/C"
_symmetry_group_IT_number 15
_symmetry_cell_setting 'monoclinic'
loop_
_space_group_symop_operation_xyz
x,y,z
-x,y,1/2-z
-x,-y,-z
x,-y,1/2+z
1/2+x,1/2+y,z
1/2-x,1/2+y,1/2-z
1/2-x,1/2-y,-z
1/2+x,1/2-y,1/2+z
loop_
_atom_site_type_symbol
_atom_site_label
_atom_site_fract_x
_atom_site_fract_y
_atom_site_fract_z
Si Si1 0.240582 0.675709 0.167551
Si Si2 0.000000 0.043467 0.250000
Si Si3 0.567821 0.821790 0.993786
Si Si4 0.696495 0.834114 0.307377
Si Si5 0.782207 0.974403 0.944896
O O1 0.333164 0.597468 0.197541
O O2 0.403361 0.748848 0.175079
O O3 0.000000 0.689523 0.250000
O O4 0.129329 0.684967 0.076037
O O5 0.835215 0.002231 0.337975
O O6 0.768951 0.885910 0.951040
O O7 0.750000 0.750000 0.000000
O O8 0.384033 0.853940 0.086285
O O9 0.500000 0.870232 0.250000
O O10 0.000000 0.840883 0.250000
O O11 0.500000 0.000000 0.000000
O O12 0.000000 0.000000 0.000000
#
# Coordination Sequence:
#
# PCOD9302090 Si02
#       5
#     8   4   8   8   8
#     4  11  21  41  76 115 149 200 274 325 377 471
#     4  12  24  50  84 106 152 222 276 314 392 502
#     4  12  25  49  83 121 158 207 268 340 404 477
#     4  11  24  42  66 116 169 201 248 327 411 464
#     4  12  30  53  81 116 159 210 268 331 404 483
#
# _framework density 26.011728000000002
#
# number of rings (size 3 to 8) (size 9 to 14) (size 15 to 20)
#    0.000    0.444    3.333    6.000    0.000    5.333 
#    6.000    0.000    2.444    0.000    0.000    0.000 
#    0.000    0.000    0.000    0.000    0.000    0.000 
#
# Total GULP energy -100537.387152 kJ/mol
# GULP energy per Si atom -5585.410397 kJ/mol
# Density = 2.595252 g / cm^3
# Si number density = 26.011728 Si / 1000 Ang^3
#
#
#
# Elastic Constant Matrix: (Units=GPa)
#
#
# Indices 1 2 3 4 5 6 
#
# 1 151.4929 22.3549 103.4822 0.0000 11.6514 0.0000
# 2 22.3549 87.5265 26.8683 0.0000 3.8613 0.0000
# 3 103.4822 26.8683 310.6882 0.0000 -13.5593 0.0000
# 4 0.0000 0.0000 0.0000 35.4488 0.0000 1.7954
# 5 11.6514 3.8613 -13.5593 0.0000 73.3398 0.0000
# 6 0.0000 0.0000 0.0000 1.7954 0.0000 33.4452
#
#
#
# Elastic Compliance Matrix: (Units=1/GPa)
#
#
# Indices 1 2 3 4 5 6 
#
# 1 0.008956 -0.001297 -0.002954 0.000000 -0.001901 0.000000
# 2 -0.001297 0.011973 -0.000627 0.000000 -0.000540 0.000000
# 3 -0.002954 -0.000627 0.004313 0.000000 0.001300 0.000000
# 4 0.000000 0.000000 0.000000 0.028287 0.000000 -0.001518
# 5 -0.001901 -0.000540 0.001300 0.000000 0.014206 0.000000
# 6 0.000000 0.000000 0.000000 -0.001518 0.000000 0.029981
#
#
# Mechanical properties :
#
#
# Convention : Reuss Voigt Hill
#
# Bulk Modulus (GPa) = 64.57101 95.01316 79.79209
# Shear Modulus (GPa) = 44.39161 54.91360 49.65260
#
# Velocity S-wave (km/s) = 4.13558 4.59967 4.37378
# Velocity P-wave (km/s) = 6.90520 8.05081 7.49991
#
# Compressibility (1/GPa) = 0.01548683
#
# Stress axis : x y z
#
# Youngs Moduli (GPa) = 111.65336 83.52365 231.83127
#
# Poissons Ratio (x) = 0.10832 0.68481
# Poissons Ratio (y) = 0.14480 0.14536
# Poissons Ratio (z) = 0.32981 0.05237
#
# Static dielectric constant tensor:
#      x y z
#    x 2.287520 0.000000 0.218540 
#    y 0.000000 2.303520 0.000000 
#    z 0.218540 0.000000 2.303800 
# 
# From -- ./inp_files/128695.got.cif
#   From: 2010.05.17/outbox.cif.g08.bks.cpg/sg15_65_cif.got.tgz:128695.got - 2010.06.03 18:47:42.
