data_PCOD9302932
_publ_section_title
;
Structure prediction by ZEFSAII (Michael W. Deem and Ramdas Pophale) SiO2 
 PCOD9302932
Probable space group: C 2/C
;
_chemical_formula_sum "Si O2"
_cell_formula_units_Z 64
_cell_length_a 23.858797
_cell_length_b 19.251901
_cell_length_c 19.507042
_cell_angle_alpha 90.000000
_cell_angle_beta 159.857355
_cell_angle_gamma 90.000000
_cell_volume 3085.492306
_symmetry_space_group_name_H-M "C 2/C"
_symmetry_group_IT_number 15
_symmetry_cell_setting 'monoclinic'
loop_
_space_group_symop_operation_xyz
x,y,z
-x,y,1/2-z
-x,-y,-z
x,-y,1/2+z
1/2+x,1/2+y,z
1/2-x,1/2+y,1/2-z
1/2-x,1/2-y,-z
1/2+x,1/2-y,1/2+z
loop_
_atom_site_type_symbol
_atom_site_label
_atom_site_fract_x
_atom_site_fract_y
_atom_site_fract_z
Si Si1 0.015052 0.409847 0.187450
Si Si2 0.792039 0.825120 0.677524
Si Si3 0.478419 0.968508 0.552192
Si Si4 0.446887 0.323224 0.995595
Si Si5 0.515690 0.583068 0.187446
Si Si6 0.110264 0.031827 0.687128
Si Si7 0.786958 0.330048 0.178308
Si Si8 0.076115 0.322450 0.623229
O O1 0.000000 0.421987 0.250000
O O2 0.136533 0.348880 0.306887
O O3 0.843738 0.381989 0.961853
O O4 0.063002 0.478126 0.201331
O O5 0.931366 0.827842 0.895103
O O6 0.720209 0.748027 0.598703
O O7 0.869353 0.850512 0.695699
O O8 0.292290 0.963985 0.365336
O O9 0.555509 0.892376 0.642724
O O10 0.500000 0.000000 0.500000
O O11 0.259402 0.320428 0.804909
O O12 0.541802 0.391883 0.127076
O O13 0.535352 0.250574 0.112632
O O14 0.500000 0.568906 0.250000
O O15 0.587400 0.519229 0.226052
O O16 0.344547 0.610216 0.960193
O O17 0.000000 0.000000 0.500000
O O18 0.934036 0.330577 0.402109
#
# Coordination Sequence:
#
# PCOD9302932 Si02
#       8
#     8   8   8   8   8   8   8   8
#     4  12  24  40  60  89 128 170 212 260 309 369
#     4  11  22  41  56  90 126 170 214 252 304 375
#     4  12  23  41  64  92 124 168 216 263 316 374
#     4  11  23  40  67  96 127 161 211 263 321 376
#     4  12  26  41  60  91 128 172 218 260 315 376
#     4  12  23  41  65  89 126 168 211 269 317 367
#     4  11  24  36  64  87 128 171 216 255 309 374
#     4  11  23  40  65  98 124 161 212 261 319 382
#
# _framework density 20.742232000000001
#
# number of rings (size 3 to 8) (size 9 to 14) (size 15 to 20)
#    0.000    0.500    5.000    3.750    7.000    3.000 
#    0.000    0.000    0.000    0.750    0.000    3.500 
#    0.000    0.000    0.000    0.000    0.000    0.000 
#
# Total GULP energy -178791.107795 kJ/mol
# GULP energy per Si atom -5587.222119 kJ/mol
# Density = 2.069502 g / cm^3
# Si number density = 20.742232 Si / 1000 Ang^3
#
#
#
# Elastic Constant Matrix: (Units=GPa)
#
#
# Indices 1 2 3 4 5 6 
#
# 1 89.1038 49.7924 5.5453 0.0026 17.6980 0.0006
# 2 49.7924 177.0241 32.0277 -0.0005 13.5652 -0.0008
# 3 5.5453 32.0277 57.2390 -0.0012 29.1541 -0.0010
# 4 0.0026 -0.0005 -0.0012 25.8625 0.0006 13.0214
# 5 17.6980 13.5652 29.1541 0.0006 34.1214 0.0008
# 6 0.0006 -0.0008 -0.0010 13.0214 0.0008 31.8215
#
#
#
# Elastic Compliance Matrix: (Units=1/GPa)
#
#
# Indices 1 2 3 4 5 6 
#
# 1 0.016109 -0.004954 0.007904 -0.000001 -0.013139 0.000001
# 2 -0.004954 0.007824 -0.006414 0.000000 0.004939 0.000000
# 3 0.007904 -0.006414 0.037328 0.000001 -0.033443 0.000001
# 4 -0.000001 0.000000 0.000001 0.048699 -0.000001 -0.019928
# 5 -0.013139 0.004939 -0.033443 -0.000001 0.062733 -0.000002
# 6 0.000001 0.000000 0.000001 -0.019928 -0.000002 0.039580
#
#
# Mechanical properties :
#
#
# Convention : Reuss Voigt Hill
#
# Bulk Modulus (GPa) = 18.40530 55.34419 36.87475
# Shear Modulus (GPa) = 21.06926 34.09452 27.58189
#
# Velocity S-wave (km/s) = 3.19057 4.05869 3.65052
# Velocity P-wave (km/s) = 4.73979 6.97880 5.96529
#
# Compressibility (1/GPa) = 0.05433217
#
# Stress axis : x y z
#
# Youngs Moduli (GPa) = 62.07657 127.80576 26.78989
#
# Poissons Ratio (x) = 0.63318 -0.21174
# Poissons Ratio (y) = 0.30754 0.17182
# Poissons Ratio (z) = -0.49063 0.81972
#
# Static dielectric constant tensor:
#      x y z
#    x 1.745700 0.000000 0.028890 
#    y 0.000000 1.752090 0.000000 
#    z 0.028890 0.000000 1.809200 
# 
# From -- ./inp_files/256010.got.cif
#   From: 2010.05.17/outbox.cif.g08.bks.cpg/sg15_129_cif.got.tgz:256010.got - 2010.06.03 18:47:42.
