data_PCOD9302388
_publ_section_title
;
Structure prediction by ZEFSAII (Michael W. Deem and Ramdas Pophale) SiO2 
 PCOD9302388
Probable space group: C 2/C
;
_chemical_formula_sum "Si O2"
_cell_formula_units_Z 48
_cell_length_a 29.367791
_cell_length_b 9.553840
_cell_length_c 16.323324
_cell_angle_alpha 90.000000
_cell_angle_beta 150.327277
_cell_angle_gamma 90.000000
_cell_volume 2267.266620
_symmetry_space_group_name_H-M "C 2/C"
_symmetry_group_IT_number 15
_symmetry_cell_setting 'monoclinic'
loop_
_space_group_symop_operation_xyz
x,y,z
-x,y,1/2-z
-x,-y,-z
x,-y,1/2+z
1/2+x,1/2+y,z
1/2-x,1/2+y,1/2-z
1/2-x,1/2-y,-z
1/2+x,1/2-y,1/2+z
loop_
_atom_site_type_symbol
_atom_site_label
_atom_site_fract_x
_atom_site_fract_y
_atom_site_fract_z
Si Si1 0.177543 0.952163 0.742734
Si Si2 0.589925 0.285188 0.070487
Si Si3 0.328467 0.794634 0.058816
Si Si4 0.989127 0.775070 0.088560
Si Si5 0.075742 0.039560 0.260817
Si Si6 0.005487 0.544942 0.854855
O O1 0.108221 0.850215 0.584589
O O2 0.131726 0.963635 0.762281
O O3 0.177244 0.112463 0.711126
O O4 0.276730 0.884592 0.909906
O O5 0.545531 0.268596 0.091196
O O6 0.517419 0.379545 0.906977
O O7 0.585441 0.133830 0.023052
O O8 0.371661 0.646522 0.097753
O O9 0.406859 0.886766 0.227124
O O10 0.250000 0.750000 0.000000
O O11 0.983588 0.618423 0.112029
O O12 0.048063 0.881719 0.237511
O O13 0.000000 0.572552 0.750000
#
# Coordination Sequence:
#
# PCOD9302388 Si02
#       6
#     8   8   8   8   8   8
#     4   8  14  29  53  75  95 127 177 219 250 304
#     4   8  15  30  52  72  95 136 177 207 251 318
#     4   9  17  33  54  77 104 134 169 217 268 316
#     4   9  16  31  53  75  99 135 179 213 251 322
#     4   7  13  27  50  76  99 127 167 210 255 307
#     4  11  22  34  48  75 112 141 173 224 273 313
#
# _framework density 21.170867000000001
#
# number of rings (size 3 to 8) (size 9 to 14) (size 15 to 20)
#    0.000    3.333    0.000    3.500    0.000    0.000 
#    0.000   18.333    0.000    0.000    0.000    0.000 
#    0.000    0.000    0.000    0.000    0.000    0.000 
#
# Total GULP energy -133629.696120 kJ/mol
# GULP energy per Si atom -5567.904005 kJ/mol
# Density = 2.112268 g / cm^3
# Si number density = 21.170867 Si / 1000 Ang^3
#
#
#
# Elastic Constant Matrix: (Units=GPa)
#
#
# Indices 1 2 3 4 5 6 
#
# 1 40.4199 0.9693 -3.4672 0.0000 -0.0461 0.0000
# 2 0.9693 195.2310 53.8518 0.0000 -9.9469 0.0000
# 3 -3.4672 53.8518 70.8802 0.0000 -5.3539 0.0000
# 4 0.0000 0.0000 0.0000 44.6921 0.0000 -11.9286
# 5 -0.0461 -9.9469 -5.3539 0.0000 8.4059 0.0000
# 6 0.0000 0.0000 0.0000 -11.9286 0.0000 -24.9374
#
#
#
# Elastic Compliance Matrix: (Units=1/GPa)
#
#
# Indices 1 2 3 4 5 6 
#
# 1 0.024899 -0.000561 0.001685 0.000000 0.000546 0.000000
# 2 -0.000561 0.006679 -0.004733 0.000000 0.004886 0.000000
# 3 0.001685 -0.004733 0.018242 0.000000 0.006027 0.000000
# 4 0.000000 0.000000 0.000000 0.019842 0.000000 -0.009491
# 5 0.000546 0.004886 0.006027 0.000000 0.128588 0.000000
# 6 0.000000 0.000000 0.000000 -0.009491 0.000000 -0.035560
#
#
# Mechanical properties :
#
#
# Convention : Reuss Voigt Hill
#
# Bulk Modulus (GPa) = 23.47237 45.47100 34.47168
# Shear Modulus (GPa) = 27.15795 22.64394 24.90094
#
# Velocity S-wave (km/s) = 3.58550 3.27399 3.43328
# Velocity P-wave (km/s) = 5.31529 5.98471 5.65990
#
# Compressibility (1/GPa) = 0.04260329
#
# Stress axis : x y z
#
# Youngs Moduli (GPa) = 40.16236 149.71332 54.81854
#
# Poissons Ratio (x) = 0.08393 -0.09238
# Poissons Ratio (y) = 0.02252 0.25946
# Poissons Ratio (z) = -0.06768 0.70861
#
# Static dielectric constant tensor:
#      x y z
#    x 1.858060 0.000000 0.012680 
#    y 0.000000 1.807850 0.000000 
#    z 0.012680 0.000000 1.805660 
# 
# From -- ./inp_files/224708.got.cif
#   From: 2010.05.17/outbox.cif.g08.bks.cpg/sg15_113_cif.got.tgz:224708.got - 2010.06.03 18:47:42.
