data_PCOD9302220
_publ_section_title
;
Structure prediction by ZEFSAII (Michael W. Deem and Ramdas Pophale) SiO2 
 PCOD9302220
Probable space group: C 2/C
;
_chemical_formula_sum "Si O2"
_cell_formula_units_Z 56
_cell_length_a 17.041008
_cell_length_b 15.848053
_cell_length_c 21.124588
_cell_angle_alpha 90.000000
_cell_angle_beta 28.178470
_cell_angle_gamma 90.000000
_cell_volume 2694.036151
_symmetry_space_group_name_H-M "C 2/C"
_symmetry_group_IT_number 15
_symmetry_cell_setting 'monoclinic'
loop_
_space_group_symop_operation_xyz
x,y,z
-x,y,1/2-z
-x,-y,-z
x,-y,1/2+z
1/2+x,1/2+y,z
1/2-x,1/2+y,1/2-z
1/2-x,1/2-y,-z
1/2+x,1/2-y,1/2+z
loop_
_atom_site_type_symbol
_atom_site_label
_atom_site_fract_x
_atom_site_fract_y
_atom_site_fract_z
Si Si1 0.360410 0.392991 0.562857
Si Si2 0.866653 0.718877 0.791220
Si Si3 0.231937 0.449347 0.433806
Si Si4 0.482839 0.331279 0.918419
Si Si5 0.934233 0.521807 0.725301
Si Si6 0.501192 0.488871 0.148338
Si Si7 0.198374 0.764197 0.108647
O O1 0.444755 0.360771 0.566291
O O2 0.233476 0.469411 0.665738
O O3 0.489769 0.428610 0.418997
O O4 0.256493 0.316056 0.607074
O O5 0.902545 0.621652 0.746982
O O6 0.000000 0.743899 0.750000
O O7 0.890941 0.777678 0.713492
O O8 0.684237 0.721095 0.950797
O O9 0.323033 0.491588 0.309263
O O10 0.365677 0.453833 0.396079
O O11 0.214798 0.350454 0.430409
O O12 0.068550 0.492418 0.577948
O O13 0.442288 0.417525 0.910213
O O14 0.000000 0.501417 0.750000
O O15 0.000000 0.773781 0.250000
O O16 0.250000 0.750000 0.000000
#
# Coordination Sequence:
#
# PCOD9302220 Si02
#       7
#     8   8   8   8   8   8   8
#     4  12  24  44  69  95 145 184 217 275 350 413
#     4  11  26  47  74  99 131 173 235 288 338 406
#     4  11  22  38  70 104 132 176 238 282 322 398
#     4  12  28  46  71 102 135 179 223 287 354 403
#     4  11  21  43  70 101 134 183 228 275 334 402
#     4  11  22  42  66  97 136 182 224 276 339 403
#     4  12  21  38  63 101 135 175 224 269 322 393
#
# _framework density 20.786655
#
# number of rings (size 3 to 8) (size 9 to 14) (size 15 to 20)
#    0.000    0.571    5.714    3.000    4.000    3.429 
#    0.000    0.714    0.000    0.000    0.000    0.000 
#    0.000    0.000    0.000    0.000    0.000    0.000 
#
# Total GULP energy -156705.729079 kJ/mol
# GULP energy per Si atom -5596.633181 kJ/mol
# Density = 2.073934 g / cm^3
# Si number density = 20.786655 Si / 1000 Ang^3
#
#
#
# Elastic Constant Matrix: (Units=GPa)
#
#
# Indices 1 2 3 4 5 6 
#
# 1 67.4034 8.9553 7.1610 0.2024 15.0738 0.0039
# 2 8.9553 60.5622 5.1867 0.3862 16.6122 0.0048
# 3 7.1610 5.1867 112.2017 0.2873 29.9155 0.0063
# 4 0.2024 0.3862 0.2873-4053.3843 -0.0762 -56.1248
# 5 15.0738 16.6122 29.9155 -0.0762 22.3809 -0.0025
# 6 0.0039 0.0048 0.0063 -56.1248 -0.0025 3.7818
#
#
#
# Elastic Compliance Matrix: (Units=1/GPa)
#
#
# Indices 1 2 3 4 5 6 
#
# 1 0.018422 0.002205 0.003833 0.000002 -0.019168 -0.000012
# 2 0.002205 0.022877 0.005788 0.000003 -0.026203 -0.000009
# 3 0.003833 0.005788 0.015901 0.000003 -0.028131 -0.000018
# 4 0.000002 0.000003 0.000003 -0.000205 -0.000008 -0.003037
# 5 -0.019168 -0.026203 -0.028131 -0.000008 0.114641 0.000054
# 6 -0.000012 -0.000009 -0.000018 -0.003037 0.000054 0.219352
#
#
# Mechanical properties :
#
#
# Convention : Reuss Voigt Hill
#
# Bulk Modulus (GPa) = 12.36813 31.41927 21.89370
# Shear Modulus (GPa) = 12.68108 -790.85337 -389.08614
#
# Velocity S-wave (km/s) = 2.47262 -19.52660 -13.69624
# Velocity P-wave (km/s) = 3.75696 22.20892 15.47775
#
# Compressibility (1/GPa) = 0.08085295
#
# Stress axis : x y z
#
# Youngs Moduli (GPa) = 54.28155 43.71112 62.88998
#
# Poissons Ratio (x) = -0.09640 -0.24105
# Poissons Ratio (y) = -0.11971 -0.36400
# Poissons Ratio (z) = -0.20805 -0.25299
#
# Static dielectric constant tensor:
#      x y z
#    x 1.719480 0.000000 0.005760 
#    y 0.000000 1.743410 0.000000 
#    z 0.005760 0.000000 1.736320 
# 
# From -- ./inp_files/249231.got.cif
#   From: 2010.05.17/outbox.cif.g08.bks.cpg/sg15_125_cif.got.tgz:249231.got - 2010.06.03 18:47:42.
