data_PCOD9302656
_publ_section_title
;
Structure prediction by ZEFSAII (Michael W. Deem and Ramdas Pophale) SiO2 
 PCOD9302656
Probable space group: C 2/C
;
_chemical_formula_sum "Si O2"
_cell_formula_units_Z 48
_cell_length_a 18.834234
_cell_length_b 11.583486
_cell_length_c 11.702575
_cell_angle_alpha 90.000000
_cell_angle_beta 117.253157
_cell_angle_gamma 90.000000
_cell_volume 2269.689678
_symmetry_space_group_name_H-M "C 2/C"
_symmetry_group_IT_number 15
_symmetry_cell_setting 'monoclinic'
loop_
_space_group_symop_operation_xyz
x,y,z
-x,y,1/2-z
-x,-y,-z
x,-y,1/2+z
1/2+x,1/2+y,z
1/2-x,1/2+y,1/2-z
1/2-x,1/2-y,-z
1/2+x,1/2-y,1/2+z
loop_
_atom_site_type_symbol
_atom_site_label
_atom_site_fract_x
_atom_site_fract_y
_atom_site_fract_z
Si Si1 0.489260 0.692291 0.426483
Si Si2 0.335679 0.133558 0.310162
Si Si3 0.358735 0.749159 0.072911
Si Si4 0.077342 0.840229 0.225632
Si Si5 0.170097 0.927514 0.777007
Si Si6 0.433981 0.076224 0.796073
O O1 0.556320 0.683450 0.378556
O O2 0.532723 0.648151 0.570888
O O3 0.406315 0.630671 0.340183
O O4 0.470560 0.829612 0.409902
O O5 0.344616 0.200328 0.437440
O O6 0.366152 0.226901 0.239739
O O7 0.245884 0.083038 0.248695
O O8 0.394304 0.026347 0.335143
O O9 0.307275 0.649615 0.094335
O O10 0.370348 0.851814 0.172526
O O11 0.000000 0.832532 0.250000
O O12 0.137552 0.947124 0.287529
O O13 0.500000 0.039934 0.750000
#
# Coordination Sequence:
#
# PCOD9302656 Si02
#       6
#     8   8   8   8   8   8
#     4   9  20  40  67  87 121 170 214 255 311 390
#     4  11  24  38  64  96 130 166 211 271 323 374
#     4   9  20  40  64  88 120 171 210 254 318 391
#     4  11  24  41  63  92 127 171 216 258 317 387
#     4  11  22  39  63  91 128 160 216 269 321 371
#     4   9  19  38  66  92 125 163 212 256 316 385
#
# _framework density 21.148264999999999
#
# number of rings (size 3 to 8) (size 9 to 14) (size 15 to 20)
#    0.000    2.000    0.000    4.000    4.667    8.667 
#    3.000    0.833    0.000    0.000    0.000    0.000 
#    0.000    0.000    0.000    0.000    0.000    0.000 
#
# Total GULP energy -133744.306394 kJ/mol
# GULP energy per Si atom -5572.679433 kJ/mol
# Density = 2.110013 g / cm^3
# Si number density = 21.148265 Si / 1000 Ang^3
#
#
#
# Elastic Constant Matrix: (Units=GPa)
#
#
# Indices 1 2 3 4 5 6 
#
# 1 145.9254 70.0182 -1.1012 0.0000 -4.6281 0.0000
# 2 70.0182 106.9901 0.0362 0.0000 -17.5691 0.0000
# 3 -1.1012 0.0362 40.2396 0.0000 -10.7407 0.0000
# 4 0.0000 0.0000 0.0000 58.9019 0.0000 23.1885
# 5 -4.6281 -17.5691 -10.7407 0.0000 19.9937 0.0000
# 6 0.0000 0.0000 0.0000 23.1885 0.0000 41.2074
#
#
#
# Elastic Compliance Matrix: (Units=1/GPa)
#
#
# Indices 1 2 3 4 5 6 
#
# 1 0.010305 -0.007524 -0.000980 0.000000 -0.004752 0.000000
# 2 -0.007524 0.016731 0.003781 0.000000 0.014991 0.000000
# 3 -0.000980 0.003781 0.029940 0.000000 0.019179 0.000000
# 4 0.000000 0.000000 0.000000 0.021809 0.000000 -0.012272
# 5 -0.004752 0.014991 0.019179 0.000000 0.072392 0.000000
# 6 0.000000 0.000000 0.000000 -0.012272 0.000000 0.031173
#
#
# Mechanical properties :
#
#
# Convention : Reuss Voigt Hill
#
# Bulk Modulus (GPa) = 21.03946 47.89573 34.46759
# Shear Modulus (GPa) = 24.08011 38.96738 31.52375
#
# Velocity S-wave (km/s) = 3.37802 4.29719 3.86503
# Velocity P-wave (km/s) = 5.01845 6.87880 6.02091
#
# Compressibility (1/GPa) = 0.04752974
#
# Stress axis : x y z
#
# Youngs Moduli (GPa) = 97.04165 59.76891 33.39994
#
# Poissons Ratio (x) = 0.44970 0.03272
# Poissons Ratio (y) = 0.73014 -0.12627
# Poissons Ratio (z) = 0.09508 -0.22596
#
# Static dielectric constant tensor:
#      x y z
#    x 1.910040 0.000000 -0.141770 
#    y 0.000000 1.793530 0.000000 
#    z -0.141770 0.000000 2.667570 
# 
# From -- ./inp_files/103664.got.cif
#   From: 2010.05.17/outbox.cif.g08.bks.cpg/sg15_52_cif.got.tgz:103664.got - 2010.06.03 18:47:42.
