data_PCOD9302497
_publ_section_title
;
Structure prediction by ZEFSAII (Michael W. Deem and Ramdas Pophale) SiO2 
 PCOD9302497
Probable space group: C 2/C
;
_chemical_formula_sum "Si O2"
_cell_formula_units_Z 60
_cell_length_a 14.016575
_cell_length_b 15.081217
_cell_length_c 15.608582
_cell_angle_alpha 90.000000
_cell_angle_beta 61.991751
_cell_angle_gamma 90.000000
_cell_volume 2913.019687
_symmetry_space_group_name_H-M "C 2/C"
_symmetry_group_IT_number 15
_symmetry_cell_setting 'monoclinic'
loop_
_space_group_symop_operation_xyz
x,y,z
-x,y,1/2-z
-x,-y,-z
x,-y,1/2+z
1/2+x,1/2+y,z
1/2-x,1/2+y,1/2-z
1/2-x,1/2-y,-z
1/2+x,1/2-y,1/2+z
loop_
_atom_site_type_symbol
_atom_site_label
_atom_site_fract_x
_atom_site_fract_y
_atom_site_fract_z
Si Si1 0.071925 0.714482 0.852136
Si Si2 0.341488 0.300266 0.517495
Si Si3 0.611569 0.371498 0.172091
Si Si4 0.839293 0.707120 0.025436
Si Si5 0.630833 0.503927 0.433138
Si Si6 0.703308 0.658073 0.802986
Si Si7 0.296869 0.454106 0.915489
Si Si8 0.500000 0.359212 0.750000
O O1 0.114775 0.736187 0.928760
O O2 0.166149 0.660064 0.763597
O O3 0.057110 0.799828 0.798013
O O4 0.947977 0.689208 0.925333
O O5 0.250000 0.250000 0.500000
O O6 0.417558 0.327274 0.406061
O O7 0.328504 0.394292 0.574316
O O8 0.500000 0.413018 0.250000
O O9 0.655443 0.312602 0.231026
O O10 0.702987 0.444573 0.114565
O O11 0.840504 0.775880 0.104594
O O12 0.796567 0.611455 0.073430
O O13 0.750000 0.750000 0.000000
O O14 0.500000 0.500000 0.500000
O O15 0.663428 0.442375 0.339546
O O16 0.689396 0.456106 0.488223
O O17 0.407464 0.413815 0.834313
#
# Coordination Sequence:
#
# PCOD9302497 Si02
#       8
#     8   8   8   8   8   8   8   4
#     4  12  24  40  67  98 140 177 227 280 348 416
#     4  11  24  45  66  95 144 184 221 286 353 424
#     4  11  23  40  66  96 128 173 231 280 338 409
#     4  12  22  41  63  98 137 173 220 284 346 404
#     4  11  23  40  67 101 134 172 225 295 345 394
#     4  12  23  39  66 101 132 175 226 280 343 407
#     4  11  22  37  62  96 132 162 221 285 344 398
#     4  12  20  36  64 100 128 166 224 290 340 406
#
# _framework density 20.597183000000001
#
# number of rings (size 3 to 8) (size 9 to 14) (size 15 to 20)
#    0.000    0.533    6.000    4.000    1.867    0.000 
#    0.000    0.667    0.000    0.000    0.000    0.000 
#    0.000    0.000    0.000    0.000    0.000    0.000 
#
# Total GULP energy -167193.469326 kJ/mol
# GULP energy per Si atom -5573.115644 kJ/mol
# Density = 2.055030 g / cm^3
# Si number density = 20.597183 Si / 1000 Ang^3
#
#
#
# Elastic Constant Matrix: (Units=GPa)
#
#
# Indices 1 2 3 4 5 6 
#
# 1 67.0527 20.3677 15.1226 0.0000 -1.8018 0.0000
# 2 20.3677 56.0964 8.1578 0.0000 -12.9558 0.0000
# 3 15.1226 8.1578 77.5139 0.0000 -5.3502 0.0000
# 4 0.0000 0.0000 0.0000 26.1680 0.0000 -3.8774
# 5 -1.8018 -12.9558 -5.3502 0.0000 57.0127 0.0000
# 6 0.0000 0.0000 0.0000 -3.8774 0.0000 18.7925
#
#
#
# Elastic Compliance Matrix: (Units=1/GPa)
#
#
# Indices 1 2 3 4 5 6 
#
# 1 0.017392 -0.006162 -0.002822 0.000000 -0.001115 0.000000
# 2 -0.006162 0.021221 -0.000716 0.000000 0.004560 0.000000
# 3 -0.002822 -0.000716 0.013597 0.000000 0.001024 0.000000
# 4 0.000000 0.000000 0.000000 0.039420 0.000000 0.008133
# 5 -0.001115 0.004560 0.001024 0.000000 0.018637 0.000000
# 6 0.000000 0.000000 0.000000 0.008133 0.000000 0.054891
#
#
# Mechanical properties :
#
#
# Convention : Reuss Voigt Hill
#
# Bulk Modulus (GPa) = 30.47800 31.99546 31.23673
# Shear Modulus (GPa) = 25.57613 30.86231 28.21922
#
# Velocity S-wave (km/s) = 3.52764 3.87508 3.70544
# Velocity P-wave (km/s) = 5.60550 5.96568 5.78839
#
# Compressibility (1/GPa) = 0.03281055
#
# Stress axis : x y z
#
# Youngs Moduli (GPa) = 57.49846 47.12261 73.54316
#
# Poissons Ratio (x) = 0.29037 0.20750
# Poissons Ratio (y) = 0.35430 0.05269
# Poissons Ratio (z) = 0.16223 0.03376
#
# Static dielectric constant tensor:
#      x y z
#    x 1.774220 0.000000 -0.007450 
#    y 0.000000 1.802480 0.000000 
#    z -0.007450 0.000000 1.786610 
# 
# From -- ./inp_files/154248.got.cif
#   From: 2010.05.17/outbox.cif.g08.bks.cpg/sg15_78_cif.got.tgz:154248.got - 2010.06.03 18:47:42.
