data_PCOD9302502
_publ_section_title
;
Structure prediction by ZEFSAII (Michael W. Deem and Ramdas Pophale) SiO2 
 PCOD9302502
Probable space group: C 2/C
;
_chemical_formula_sum "Si O2"
_cell_formula_units_Z 48
_cell_length_a 5.406808
_cell_length_b 17.670895
_cell_length_c 20.498455
_cell_angle_alpha 90.000000
_cell_angle_beta 99.407220
_cell_angle_gamma 90.000000
_cell_volume 1932.148117
_symmetry_space_group_name_H-M "C 2/C"
_symmetry_group_IT_number 15
_symmetry_cell_setting 'monoclinic'
loop_
_space_group_symop_operation_xyz
x,y,z
-x,y,1/2-z
-x,-y,-z
x,-y,1/2+z
1/2+x,1/2+y,z
1/2-x,1/2+y,1/2-z
1/2-x,1/2-y,-z
1/2+x,1/2-y,1/2+z
loop_
_atom_site_type_symbol
_atom_site_label
_atom_site_fract_x
_atom_site_fract_y
_atom_site_fract_z
Si Si1 0.478202 0.791252 0.938533
Si Si2 0.061550 0.007626 0.612287
Si Si3 0.421858 0.757567 0.159209
Si Si4 0.405635 0.663739 0.638380
Si Si5 0.199382 0.630035 0.316262
Si Si6 0.815304 0.430795 0.000980
O O1 0.606739 0.709405 0.932735
O O2 0.577509 0.836803 0.878123
O O3 0.459034 0.854360 0.992110
O O4 0.187841 0.767899 0.915416
O O5 0.902422 0.073445 0.638598
O O6 0.217182 0.060411 0.569430
O O7 0.222971 0.956074 0.666705
O O8 0.905751 0.948983 0.560332
O O9 0.171826 0.799942 0.176251
O O10 0.553289 0.679830 0.187580
O O11 0.659108 0.811298 0.165684
O O12 0.000000 0.637236 0.250000
O O13 0.000000 0.500000 0.000000
#
# Coordination Sequence:
#
# PCOD9302502 Si02
#       6
#     8   8   8   8   8   8
#     4   9  20  41  62  89 124 164 220 256 329 385
#     4  11  23  38  61 100 129 173 217 272 333 387
#     4   9  20  42  62  90 123 167 212 264 316 395
#     4   9  21  38  67  88 136 162 213 270 323 388
#     4  11  22  41  67  94 125 169 220 275 328 399
#     4  11  22  37  63  89 136 174 217 269 323 401
#
# _framework density 24.842815000000002
#
# number of rings (size 3 to 8) (size 9 to 14) (size 15 to 20)
#    1.000    1.000    3.333    0.000    2.333    1.333 
#    0.000    5.000    0.000    0.000    0.000    0.000 
#    0.000    0.000    0.000    0.000    0.000    0.000 
#
# Total GULP energy -133823.728623 kJ/mol
# GULP energy per Si atom -5575.988693 kJ/mol
# Density = 2.478627 g / cm^3
# Si number density = 24.842815 Si / 1000 Ang^3
#
#
#
# Elastic Constant Matrix: (Units=GPa)
#
#
# Indices 1 2 3 4 5 6 
#
# 1 127.7336 34.4426 37.0665 0.0000 17.9282 0.0000
# 2 34.4426 161.5248 48.4417 0.0000 8.2811 0.0000
# 3 37.0665 48.4417 38.4964 0.0000 12.9423 0.0000
# 4 0.0000 0.0000 0.0000 -25.6698 0.0000 64.7907
# 5 17.9282 8.2811 12.9423 0.0000 28.8146 0.0000
# 6 0.0000 0.0000 0.0000 64.7907 0.0000 -5.4356
#
#
#
# Elastic Compliance Matrix: (Units=1/GPa)
#
#
# Indices 1 2 3 4 5 6 
#
# 1 0.011146 0.001185 -0.011516 0.000000 -0.002103 0.000000
# 2 0.001185 0.010335 -0.015194 0.000000 0.003117 0.000000
# 3 -0.011516 -0.015194 0.061611 0.000000 -0.016141 0.000000
# 4 0.000000 0.000000 0.000000 0.001339 0.000000 0.015965
# 5 -0.002103 0.003117 -0.016141 0.000000 0.042367 0.000000
# 6 0.000000 0.000000 0.000000 0.015965 0.000000 0.006325
#
#
# Mechanical properties :
#
#
# Convention : Reuss Voigt Hill
#
# Bulk Modulus (GPa) = 31.20941 63.07293 47.14117
# Shear Modulus (GPa) = 25.65999 13.39544 19.52771
#
# Velocity S-wave (km/s) = 3.21735 2.32460 2.80670
# Velocity P-wave (km/s) = 5.13730 5.71393 5.43327
#
# Compressibility (1/GPa) = 0.03204162
#
# Stress axis : x y z
#
# Youngs Moduli (GPa) = 89.71576 96.75564 16.23090
#
# Poissons Ratio (x) = -0.11463 0.18692
# Poissons Ratio (y) = -0.10629 0.24661
# Poissons Ratio (z) = 1.03317 1.47012
#
# Static dielectric constant tensor:
#      x y z
#    x 1.906340 0.000000 0.055430 
#    y 0.000000 0.958610 0.000000 
#    z 0.055430 0.000000 2.075680 
# 
# From -- ./inp_files/260892.got.cif
#   From: 2010.05.17/outbox.cif.g08.bks.cpg/sg15_131_cif.got.tgz:260892.got - 2010.06.03 18:47:42.
