data_PCOD9302730
_publ_section_title
;
Structure prediction by ZEFSAII (Michael W. Deem and Ramdas Pophale) SiO2 
 PCOD9302730
Probable space group: C 2/C
;
_chemical_formula_sum "Si O2"
_cell_formula_units_Z 32
_cell_length_a 18.362619
_cell_length_b 6.932566
_cell_length_c 12.864394
_cell_angle_alpha 90.000000
_cell_angle_beta 55.098298
_cell_angle_gamma 90.000000
_cell_volume 1343.084235
_symmetry_space_group_name_H-M "C 2/C"
_symmetry_group_IT_number 15
_symmetry_cell_setting 'monoclinic'
loop_
_space_group_symop_operation_xyz
x,y,z
-x,y,1/2-z
-x,-y,-z
x,-y,1/2+z
1/2+x,1/2+y,z
1/2-x,1/2+y,1/2-z
1/2-x,1/2-y,-z
1/2+x,1/2-y,1/2+z
loop_
_atom_site_type_symbol
_atom_site_label
_atom_site_fract_x
_atom_site_fract_y
_atom_site_fract_z
Si Si1 0.353090 0.449389 0.151327
Si Si2 0.827342 0.308825 0.309318
Si Si3 0.152893 0.285695 0.631251
Si Si4 0.580535 0.430679 0.611113
O O1 0.359469 0.668738 0.188599
O O2 0.353214 0.317226 0.252113
O O3 0.260458 0.407683 0.167427
O O4 0.422841 0.384322 0.006816
O O5 0.872564 0.494696 0.325730
O O6 0.833213 0.157875 0.400896
O O7 0.250000 0.250000 0.500000
O O8 0.088381 0.161823 0.610883
O O9 0.500000 0.368222 0.750000
#
# Coordination Sequence:
#
# PCOD9302730 Si02
#       4
#     8   8   8   8
#     4  11  22  39  67  95 126 163 221 270 322 377
#     4  11  22  39  70  94 122 167 216 273 320 376
#     4  11  23  40  67  96 127 167 221 273 316 383
#     4  11  26  43  61  95 138 172 212 266 327 392
#
# _framework density 23.825758
#
# number of rings (size 3 to 8) (size 9 to 14) (size 15 to 20)
#    0.000    1.000    5.000    0.750    3.500    7.000 
#    0.000    2.500    0.000    0.000    0.000    0.000 
#    0.000    0.000    0.000    0.000    0.000    0.000 
#
# Total GULP energy -89157.393803 kJ/mol
# GULP energy per Si atom -5572.337113 kJ/mol
# Density = 2.377153 g / cm^3
# Si number density = 23.825758 Si / 1000 Ang^3
#
#
#
# Elastic Constant Matrix: (Units=GPa)
#
#
# Indices 1 2 3 4 5 6 
#
# 1 51.1234 4.4647 25.3598 0.0000 9.0511 0.0000
# 2 4.4647 156.2767 52.0528 0.0000 9.6031 0.0000
# 3 25.3598 52.0528 212.8792 0.0000 26.0514 0.0000
# 4 0.0000 0.0000 0.0000 27.7099 0.0000 14.4465
# 5 9.0511 9.6031 26.0514 0.0000 44.1400 0.0000
# 6 0.0000 0.0000 0.0000 14.4465 0.0000 35.8532
#
#
#
# Elastic Compliance Matrix: (Units=1/GPa)
#
#
# Indices 1 2 3 4 5 6 
#
# 1 0.021184 0.000326 -0.002224 0.000000 -0.003102 0.000000
# 2 0.000326 0.006984 -0.001673 0.000000 -0.000599 0.000000
# 3 -0.002224 -0.001673 0.005682 0.000000 -0.002533 0.000000
# 4 0.000000 0.000000 0.000000 0.045685 0.000000 -0.018408
# 5 -0.003102 -0.000599 -0.002533 0.000000 0.024917 0.000000
# 6 0.000000 0.000000 0.000000 -0.018408 0.000000 0.035309
#
#
# Mechanical properties :
#
#
# Convention : Reuss Voigt Hill
#
# Bulk Modulus (GPa) = 37.44201 64.89264 51.16733
# Shear Modulus (GPa) = 32.09150 44.10076 38.09613
#
# Velocity S-wave (km/s) = 3.67403 4.30696 4.00302
# Velocity P-wave (km/s) = 5.80922 7.21309 6.54888
#
# Compressibility (1/GPa) = 0.02670796
#
# Stress axis : x y z
#
# Youngs Moduli (GPa) = 47.20458 143.19059 176.00844
#
# Poissons Ratio (x) = -0.04669 0.39139
# Poissons Ratio (y) = -0.01539 0.29450
# Poissons Ratio (z) = 0.10497 0.23959
#
# Static dielectric constant tensor:
#      x y z
#    x 2.014910 0.000000 -0.105690 
#    y 0.000000 1.927030 0.000000 
#    z -0.105690 0.000000 1.998310 
# 
# From -- ./inp_files/179563.got.cif
#   From: 2010.05.17/outbox.cif.g08.bks.cpg/sg15_90_cif.got.tgz:179563.got - 2010.06.03 18:47:42.
