data_PCOD9302952
_publ_section_title
;
Structure prediction by ZEFSAII (Michael W. Deem and Ramdas Pophale) SiO2 
 PCOD9302952
Probable space group: C 2/C
;
_chemical_formula_sum "Si O2"
_cell_formula_units_Z 48
_cell_length_a 24.539361
_cell_length_b 6.242344
_cell_length_c 21.759338
_cell_angle_alpha 90.000000
_cell_angle_beta 48.797536
_cell_angle_gamma 90.000000
_cell_volume 2507.827539
_symmetry_space_group_name_H-M "C 2/C"
_symmetry_group_IT_number 15
_symmetry_cell_setting 'monoclinic'
loop_
_space_group_symop_operation_xyz
x,y,z
-x,y,1/2-z
-x,-y,-z
x,-y,1/2+z
1/2+x,1/2+y,z
1/2-x,1/2+y,1/2-z
1/2-x,1/2-y,-z
1/2+x,1/2-y,1/2+z
loop_
_atom_site_type_symbol
_atom_site_label
_atom_site_fract_x
_atom_site_fract_y
_atom_site_fract_z
Si Si1 0.289399 0.791555 0.373216
Si Si2 0.332261 0.488866 0.241804
Si Si3 0.301188 0.951062 0.979449
Si Si4 0.721284 0.357859 0.843015
Si Si5 0.595045 0.935879 0.486293
Si Si6 0.546373 0.693437 0.936739
O O1 0.340441 0.675735 0.285645
O O2 0.247607 0.611912 0.443424
O O3 0.324998 0.939926 0.398228
O O4 0.232242 0.938138 0.378345
O O5 0.279208 0.574082 0.227452
O O6 0.289324 0.294798 0.304911
O O7 0.401079 0.401989 0.154051
O O8 0.250000 0.750000 0.000000
O O9 0.369695 0.919147 0.972689
O O10 0.648179 0.223546 0.908899
O O11 0.513352 0.851330 0.547307
O O12 0.590141 0.165657 0.455096
O O13 0.500000 0.500000 0.000000
#
# Coordination Sequence:
#
# PCOD9302952 Si02
#       6
#     8   8   8   8   8   8
#     4  11  23  35  64  98 124 164 211 278 334 383
#     4  12  22  36  61  97 131 165 209 276 329 389
#     4  11  22  41  64  94 128 166 221 274 326 395
#     4  12  21  37  65  98 129 155 220 278 329 374
#     4  11  23  41  64  97 126 176 217 270 331 400
#     4  11  25  40  63  95 136 172 214 263 338 409
#
# _framework density 19.140073999999998
#
# number of rings (size 3 to 8) (size 9 to 14) (size 15 to 20)
#    0.000    0.667    6.667    2.000    0.000    0.000 
#    0.000    0.000    0.000   15.000    0.000    0.000 
#    0.000    0.000    0.000    0.000    0.000    0.000 
#
# Total GULP energy -133923.563324 kJ/mol
# GULP energy per Si atom -5580.148472 kJ/mol
# Density = 1.909651 g / cm^3
# Si number density = 19.140074 Si / 1000 Ang^3
#
#
#
# Elastic Constant Matrix: (Units=GPa)
#
#
# Indices 1 2 3 4 5 6 
#
# 1 124.1448 54.8764 36.3176 0.0136 19.2121 -0.0183
# 2 54.8764 119.0647 53.7728 0.0294 10.5762 -0.0700
# 3 36.3176 53.7728 89.5747 0.0165 4.7290 -0.0170
# 4 0.0136 0.0294 0.0165 45.7560 -0.0110 9.4735
# 5 19.2121 10.5762 4.7290 -0.0110 37.3078 0.0135
# 6 -0.0183 -0.0700 -0.0170 9.4735 0.0135 45.9592
#
#
#
# Elastic Compliance Matrix: (Units=1/GPa)
#
#
# Indices 1 2 3 4 5 6 
#
# 1 0.010970 -0.003795 -0.001941 -0.000001 -0.004327 -0.000001
# 2 -0.003795 0.013054 -0.006248 -0.000009 -0.000954 0.000018
# 3 -0.001941 -0.006248 0.015660 0.000000 0.000786 -0.000005
# 4 -0.000001 -0.000009 0.000000 0.022829 0.000012 -0.004706
# 5 -0.004327 -0.000954 0.000786 0.000012 0.029203 -0.000014
# 6 -0.000001 0.000018 -0.000005 -0.004706 -0.000014 0.022728
#
#
# Mechanical properties :
#
#
# Convention : Reuss Voigt Hill
#
# Bulk Modulus (GPa) = 63.62594 69.19087 66.40840
# Shear Modulus (GPa) = 34.80628 38.32574 36.56601
#
# Velocity S-wave (km/s) = 4.26902 4.47965 4.37560
# Velocity P-wave (km/s) = 7.59037 7.93628 7.76526
#
# Compressibility (1/GPa) = 0.01571686
#
# Stress axis : x y z
#
# Youngs Moduli (GPa) = 91.15606 76.60311 63.85728
#
# Poissons Ratio (x) = 0.29071 0.12396
# Poissons Ratio (y) = 0.34594 0.39895
# Poissons Ratio (z) = 0.17695 0.47858
#
# Static dielectric constant tensor:
#      x y z
#    x 1.672980 -0.000020 0.016290 
#    y -0.000020 1.749020 0.000000 
#    z 0.016290 0.000000 1.651180 
# 
# From -- ./inp_files/280930.got.cif
#   From: 2010.05.17/outbox.cif.g08.bks.cpg/sg15_141_cif.got.tgz:280930.got - 2010.06.03 18:47:42.
