data_PCOD9302360
_publ_section_title
;
Structure prediction by ZEFSAII (Michael W. Deem and Ramdas Pophale) SiO2 
 PCOD9302360
Probable space group: C 2/C
;
_chemical_formula_sum "Si O2"
_cell_formula_units_Z 52
_cell_length_a 14.693875
_cell_length_b 11.544598
_cell_length_c 14.823124
_cell_angle_alpha 90.000000
_cell_angle_beta 71.835069
_cell_angle_gamma 90.000000
_cell_volume 2389.202895
_symmetry_space_group_name_H-M "C 2/C"
_symmetry_group_IT_number 15
_symmetry_cell_setting 'monoclinic'
loop_
_space_group_symop_operation_xyz
x,y,z
-x,y,1/2-z
-x,-y,-z
x,-y,1/2+z
1/2+x,1/2+y,z
1/2-x,1/2+y,1/2-z
1/2-x,1/2-y,-z
1/2+x,1/2-y,1/2+z
loop_
_atom_site_type_symbol
_atom_site_label
_atom_site_fract_x
_atom_site_fract_y
_atom_site_fract_z
Si Si1 0.710538 0.500878 0.645515
Si Si2 0.594202 0.314615 0.101813
Si Si3 0.554258 0.739981 0.419027
Si Si4 0.500000 0.138390 0.250000
Si Si5 0.155346 0.826541 0.521833
Si Si6 0.400764 0.471236 0.136791
Si Si7 0.573549 0.989122 0.393341
O O1 0.687561 0.610195 0.589593
O O2 0.652055 0.398548 0.615654
O O3 0.668388 0.532749 0.755918
O O4 0.820997 0.468496 0.612899
O O5 0.580414 0.224143 0.186139
O O6 0.499747 0.399996 0.125606
O O7 0.594585 0.250154 0.007303
O O8 0.439655 0.749045 0.456413
O O9 0.577174 0.607850 0.383945
O O10 0.588126 0.854802 0.358452
O O11 0.535880 0.062596 0.321527
O O12 0.250000 0.750000 0.500000
O O13 0.146606 0.913430 0.437948
O O14 0.500000 0.000000 0.500000
#
# Coordination Sequence:
#
# PCOD9302360 Si02
#       7
#     8   8   8   4   8   8   8
#     4  12  25  42  73 106 133 184 239 282 352 417
#     4  11  21  46  76 101 134 187 236 291 344 418
#     4  11  23  47  71  99 147 183 234 292 345 420
#     4  12  26  48  74  94 150 190 226 288 366 414
#     4  11  24  42  72 105 146 184 229 292 353 410
#     4  11  23  43  74 110 135 179 243 295 347 406
#     4  12  29  47  65 102 145 187 227 281 357 426
#
# _framework density 21.764582000000001
#
# number of rings (size 3 to 8) (size 9 to 14) (size 15 to 20)
#    0.000    0.615    6.154    1.846    2.154    6.769 
#    0.000    0.000    0.000    0.000    0.000    0.000 
#    0.000    0.000    0.000    0.000    0.000    0.000 
#
# Total GULP energy -145318.327976 kJ/mol
# GULP energy per Si atom -5589.166461 kJ/mol
# Density = 2.171505 g / cm^3
# Si number density = 21.764582 Si / 1000 Ang^3
#
#
#
# Elastic Constant Matrix: (Units=GPa)
#
#
# Indices 1 2 3 4 5 6 
#
# 1 98.7726 8.3662 42.1916 0.0000 11.0107 0.0000
# 2 8.3662 104.8289 13.6269 0.0000 16.1799 0.0000
# 3 42.1916 13.6269 70.1491 0.0000 15.9498 0.0000
# 4 0.0000 0.0000 0.0000 38.3015 0.0000 -4.5167
# 5 11.0107 16.1799 15.9498 0.0000 23.9468 0.0000
# 6 0.0000 0.0000 0.0000 -4.5167 0.0000 24.1756
#
#
#
# Elastic Compliance Matrix: (Units=1/GPa)
#
#
# Indices 1 2 3 4 5 6 
#
# 1 0.013644 0.000108 -0.007995 0.000000 -0.001021 0.000000
# 2 0.000108 0.010666 -0.000574 0.000000 -0.006874 0.000000
# 3 -0.007995 -0.000574 0.021509 0.000000 -0.010262 0.000000
# 4 0.000000 0.000000 0.000000 0.026697 0.000000 0.004988
# 5 -0.001021 -0.006874 -0.010262 0.000000 0.053708 0.000000
# 6 0.000000 0.000000 0.000000 0.004988 0.000000 0.042296
#
#
# Mechanical properties :
#
#
# Convention : Reuss Voigt Hill
#
# Bulk Modulus (GPa) = 34.60547 44.68001 39.64274
# Shear Modulus (GPa) = 25.63116 31.25585 28.44350
#
# Velocity S-wave (km/s) = 3.43542 3.79369 3.61899
# Velocity P-wave (km/s) = 5.62766 6.30577 5.97634
#
# Compressibility (1/GPa) = 0.02889716
#
# Stress axis : x y z
#
# Youngs Moduli (GPa) = 73.29151 93.75289 46.49259
#
# Poissons Ratio (x) = -0.01013 0.37171
# Poissons Ratio (y) = -0.00792 0.02669
# Poissons Ratio (z) = 0.58597 0.05381
#
# Static dielectric constant tensor:
#      x y z
#    x 1.752150 0.000000 -0.006760 
#    y 0.000000 1.825410 0.000000 
#    z -0.006760 0.000000 1.788100 
# 
# From -- ./inp_files/152544.got.cif
#   From: 2010.05.17/outbox.cif.g08.bks.cpg/sg15_77_cif.got.tgz:152544.got - 2010.06.03 18:47:42.
