data_PCOD9302395
_publ_section_title
;
Structure prediction by ZEFSAII (Michael W. Deem and Ramdas Pophale) SiO2 
 PCOD9302395
Probable space group: C 2/C
;
_chemical_formula_sum "Si O2"
_cell_formula_units_Z 40
_cell_length_a 22.577427
_cell_length_b 7.043397
_cell_length_c 13.732013
_cell_angle_alpha 90.000000
_cell_angle_beta 40.946624
_cell_angle_gamma 90.000000
_cell_volume 1431.093074
_symmetry_space_group_name_H-M "C 2/C"
_symmetry_group_IT_number 15
_symmetry_cell_setting 'monoclinic'
loop_
_space_group_symop_operation_xyz
x,y,z
-x,y,1/2-z
-x,-y,-z
x,-y,1/2+z
1/2+x,1/2+y,z
1/2-x,1/2+y,1/2-z
1/2-x,1/2-y,-z
1/2+x,1/2-y,1/2+z
loop_
_atom_site_type_symbol
_atom_site_label
_atom_site_fract_x
_atom_site_fract_y
_atom_site_fract_z
Si Si1 0.385515 0.305832 0.054632
Si Si2 0.850765 0.316373 0.958124
Si Si3 0.393479 0.578810 0.338854
Si Si4 0.523545 0.220291 0.365239
Si Si5 0.208307 0.103091 0.211337
O O1 0.450187 0.210728 0.054800
O O2 0.366041 0.511981 0.126291
O O3 0.284441 0.219370 0.171742
O O4 0.417996 0.298170 0.902665
O O5 0.834610 0.091162 0.962725
O O6 0.900075 0.378419 0.796819
O O7 0.926443 0.344952 0.948147
O O8 0.762993 0.429553 0.094657
O O9 0.462523 0.438450 0.194330
O O10 0.341481 0.692687 0.319913
#
# Coordination Sequence:
#
# PCOD9302395 Si02
#       5
#     8   8   8   8   8
#     4  11  22  35  57  89 110 147 189 227 283 330
#     4   9  18  39  57  77 112 151 180 225 280 326
#     4   9  19  37  57  81 113 144 186 232 274 330
#     4   8  20  37  60  76 112 153 181 223 282 335
#     4  11  22  34  59  85 114 147 183 237 274 334
#
# _framework density 27.950664
#
# number of rings (size 3 to 8) (size 9 to 14) (size 15 to 20)
#    1.200    1.200    0.000    2.400    2.800    1.600 
#    0.000    0.000    8.800    0.000    0.000    0.000 
#    0.000    0.000    0.000    0.000    0.000    0.000 
#
# Total GULP energy -111813.133104 kJ/mol
# GULP energy per Si atom -5590.656655 kJ/mol
# Density = 2.788705 g / cm^3
# Si number density = 27.950664 Si / 1000 Ang^3
#
#
#
# Elastic Constant Matrix: (Units=GPa)
#
#
# Indices 1 2 3 4 5 6 
#
# 1 267.4818 33.4831 81.0403 -0.0045 71.3898 -0.0066
# 2 33.4831 56.5617 9.8860 0.0129 9.5519 0.0227
# 3 81.0403 9.8860 139.4878 -0.0050 19.0185 0.0164
# 4 -0.0045 0.0129 -0.0050 21.1038 0.0061 -6.6297
# 5 71.3898 9.5519 19.0185 0.0061 43.3942 -0.0141
# 6 -0.0066 0.0227 0.0164 -6.6297 -0.0141 33.0055
#
#
#
# Elastic Compliance Matrix: (Units=1/GPa)
#
#
# Indices 1 2 3 4 5 6 
#
# 1 0.007895 -0.002273 -0.002896 0.000006 -0.011218 0.000001
# 2 -0.002273 0.019101 0.000032 -0.000017 -0.000479 -0.000017
# 3 -0.002896 0.000032 0.008722 0.000000 0.000935 -0.000005
# 4 0.000006 -0.000017 0.000000 0.050576 -0.000010 0.010159
# 5 -0.011218 -0.000479 0.000935 -0.000010 0.041196 0.000013
# 6 0.000001 -0.000017 -0.000005 0.010159 0.000013 0.032339
#
#
# Mechanical properties :
#
#
# Convention : Reuss Voigt Hill
#
# Bulk Modulus (GPa) = 39.30241 79.15002 59.22622
# Shear Modulus (GPa) = 27.99822 42.10881 35.05351
#
# Velocity S-wave (km/s) = 3.16840 3.88563 3.54520
# Velocity P-wave (km/s) = 5.24184 6.96492 6.16388
#
# Compressibility (1/GPa) = 0.02544373
#
# Stress axis : x y z
#
# Youngs Moduli (GPa) = 126.66901 52.35444 114.65384
#
# Poissons Ratio (x) = 0.11899 0.33204
# Poissons Ratio (y) = 0.28788 -0.00368
# Poissons Ratio (z) = 0.36683 -0.00168
#
# Static dielectric constant tensor:
#      x y z
#    x 2.245230 0.000000 -0.033590 
#    y 0.000000 2.204740 0.000000 
#    z -0.033590 0.000000 2.214190 
# 
# From -- ./inp_files/171252.got.cif
#   From: 2010.05.17/outbox.cif.g08.bks.cpg/sg15_86_cif.got.tgz:171252.got - 2010.06.03 18:47:42.
