data_PCOD9302119
_publ_section_title
;
Structure prediction by ZEFSAII (Michael W. Deem and Ramdas Pophale) SiO2 
 PCOD9302119
Probable space group: C 2/C
;
_chemical_formula_sum "Si O2"
_cell_formula_units_Z 44
_cell_length_a 14.170160
_cell_length_b 5.975343
_cell_length_c 21.246896
_cell_angle_alpha 90.000000
_cell_angle_beta 78.009953
_cell_angle_gamma 90.000000
_cell_volume 1759.760272
_symmetry_space_group_name_H-M "C 2/C"
_symmetry_group_IT_number 15
_symmetry_cell_setting 'monoclinic'
loop_
_space_group_symop_operation_xyz
x,y,z
-x,y,1/2-z
-x,-y,-z
x,-y,1/2+z
1/2+x,1/2+y,z
1/2-x,1/2+y,1/2-z
1/2-x,1/2-y,-z
1/2+x,1/2-y,1/2+z
loop_
_atom_site_type_symbol
_atom_site_label
_atom_site_fract_x
_atom_site_fract_y
_atom_site_fract_z
Si Si1 0.888073 0.252721 0.874531
Si Si2 0.793534 0.462310 0.598547
Si Si3 0.000000 0.053371 0.750000
Si Si4 0.029508 0.749799 0.469281
Si Si5 0.297420 0.909428 0.314423
Si Si6 0.120291 0.759433 0.818527
O O1 0.853622 0.506372 0.868254
O O2 0.977441 0.241657 0.908496
O O3 0.796591 0.109804 0.913002
O O4 0.916674 0.187145 0.798274
O O5 0.854018 0.281064 0.550738
O O6 0.874903 0.624535 0.617717
O O7 0.745730 0.330014 0.662986
O O8 0.966740 0.903448 0.695608
O O9 0.000000 0.500000 0.500000
O O10 0.000000 0.000000 0.500000
O O11 0.209924 0.074878 0.314178
O O12 0.360393 0.896783 0.243682
#
# Coordination Sequence:
#
# PCOD9302119 Si02
#       6
#     8   8   4   8   8   8
#     4  11  28  46  77 112 152 205 255 321 408 474
#     4  11  26  47  76 106 156 202 260 325 393 472
#     4  12  24  42  72 118 160 192 242 314 398 496
#     4  12  33  55  80 111 153 209 280 337 384 461
#     4  11  21  42  67 108 150 195 244 303 390 482
#     4  11  22  37  68 110 156 193 236 302 394 479
#
# _framework density 25.003405000000001
#
# number of rings (size 3 to 8) (size 9 to 14) (size 15 to 20)
#    0.000    0.727    3.636    2.182   15.273    1.455 
#    0.000    0.000    0.000    0.000    0.000    0.000 
#    0.000    0.000    0.000    0.000    0.000    0.000 
#
# Total GULP energy -122697.749768 kJ/mol
# GULP energy per Si atom -5577.170444 kJ/mol
# Density = 2.494650 g / cm^3
# Si number density = 25.003405 Si / 1000 Ang^3
#
#
#
# Elastic Constant Matrix: (Units=GPa)
#
#
# Indices 1 2 3 4 5 6 
#
# 1 70.0612 23.0242 9.0546 0.0000 -4.8053 0.0000
# 2 23.0242 108.6027 34.3791 0.0000 -3.5077 0.0000
# 3 9.0546 34.3791 28.2092 0.0000 -18.1889 0.0000
# 4 0.0000 0.0000 0.0000 34.2941 0.0000 -9.1243
# 5 -4.8053 -3.5077 -18.1889 0.0000 31.0453 0.0000
# 6 0.0000 0.0000 0.0000 -9.1243 0.0000 33.9509
#
#
#
# Elastic Compliance Matrix: (Units=1/GPa)
#
#
# Indices 1 2 3 4 5 6 
#
# 1 0.015476 -0.003494 0.000934 0.000000 0.002548 0.000000
# 2 -0.003494 0.021331 -0.038040 0.000000 -0.020418 0.000000
# 3 0.000934 -0.038040 0.126693 0.000000 0.070074 0.000000
# 4 0.000000 0.000000 0.000000 0.031405 0.000000 0.008440
# 5 0.002548 -0.020418 0.070074 0.000000 0.071354 0.000000
# 6 0.000000 0.000000 0.000000 0.008440 0.000000 0.031723
#
#
# Mechanical properties :
#
#
# Convention : Reuss Voigt Hill
#
# Bulk Modulus (GPa) = 12.15094 37.75431 24.95262
# Shear Modulus (GPa) = 12.29663 29.21908 20.75785
#
# Velocity S-wave (km/s) = 2.22006 3.42219 2.88445
# Velocity P-wave (km/s) = 3.38257 5.54506 4.59290
#
# Compressibility (1/GPa) = 0.08229819
#
# Stress axis : x y z
#
# Youngs Moduli (GPa) = 64.61792 46.87966 7.89309
#
# Poissons Ratio (x) = 0.16381 -0.00737
# Poissons Ratio (y) = 0.22579 0.30026
# Poissons Ratio (z) = -0.06034 1.78332
#
# Static dielectric constant tensor:
#      x y z
#    x 2.035780 0.000000 -0.013670 
#    y 0.000000 2.107530 0.000000 
#    z -0.013670 0.000000 2.002260 
# 
# From -- ./inp_files/271868.got.cif
#   From: 2010.05.17/outbox.cif.g08.bks.cpg/sg15_136_cif.got.tgz:271868.got - 2010.06.03 18:47:42.
