data_PCOD9302530
_publ_section_title
;
Structure prediction by ZEFSAII (Michael W. Deem and Ramdas Pophale) SiO2 
 PCOD9302530
Probable space group: C 2/C
;
_chemical_formula_sum "Si O2"
_cell_formula_units_Z 56
_cell_length_a 13.258291
_cell_length_b 20.975205
_cell_length_c 11.287543
_cell_angle_alpha 90.000000
_cell_angle_beta 73.037084
_cell_angle_gamma 90.000000
_cell_volume 3002.446886
_symmetry_space_group_name_H-M "C 2/C"
_symmetry_group_IT_number 15
_symmetry_cell_setting 'monoclinic'
loop_
_space_group_symop_operation_xyz
x,y,z
-x,y,1/2-z
-x,-y,-z
x,-y,1/2+z
1/2+x,1/2+y,z
1/2-x,1/2+y,1/2-z
1/2-x,1/2-y,-z
1/2+x,1/2-y,1/2+z
loop_
_atom_site_type_symbol
_atom_site_label
_atom_site_fract_x
_atom_site_fract_y
_atom_site_fract_z
Si Si1 0.519651 0.464127 0.869722
Si Si2 0.841180 0.426500 0.358859
Si Si3 0.044415 0.383703 0.418502
Si Si4 0.302006 0.637629 0.203545
Si Si5 0.482495 0.262476 0.612878
Si Si6 0.156763 0.143870 0.045289
Si Si7 0.385747 0.927753 0.851773
O O1 0.500000 0.499772 0.750000
O O2 0.631801 0.428503 0.829679
O O3 0.434438 0.407371 0.896228
O O4 0.500000 0.500000 0.000000
O O5 0.886328 0.401582 0.219475
O O6 0.736752 0.387980 0.427404
O O7 0.833265 0.502589 0.356319
O O8 0.928923 0.411256 0.428597
O O9 0.035584 0.307643 0.429250
O O10 0.093335 0.413320 0.518523
O O11 0.381290 0.691976 0.126946
O O12 0.287262 0.654083 0.347292
O O13 0.191997 0.624834 0.177282
O O14 0.500000 0.258945 0.750000
O O15 0.590534 0.294460 0.528729
O O16 0.500000 0.929349 0.750000
#
# Coordination Sequence:
#
# PCOD9302530 Si02
#       7
#     8   8   8   8   8   8   8
#     4   9  17  34  54  84 115 151 197 246 294 347
#     4  11  22  38  58  89 118 149 196 240 295 340
#     4  11  23  39  60  83 120 155 190 247 287 337
#     4   9  20  36  60  82 115 155 188 241 292 344
#     4   9  18  41  62  87 114 148 199 242 287 342
#     4   9  19  35  63  85 112 149 198 238 288 352
#     4  12  24  39  58  85 122 156 194 233 295 356
#
# _framework density 18.651453
#
# number of rings (size 3 to 8) (size 9 to 14) (size 15 to 20)
#    0.000    2.000    2.857    3.857    2.000    1.143 
#    5.143    0.000    0.000    0.000    0.000    0.000 
#    0.000    0.000    0.000    0.000    0.000    0.000 
#
# Total GULP energy -156191.226711 kJ/mol
# GULP energy per Si atom -5578.258097 kJ/mol
# Density = 1.860900 g / cm^3
# Si number density = 18.651453 Si / 1000 Ang^3
#
#
#
# Elastic Constant Matrix: (Units=GPa)
#
#
# Indices 1 2 3 4 5 6 
#
# 1 73.8957 30.8686 30.0765 0.0000 -6.6855 0.0000
# 2 30.8686 91.4613 23.7021 0.0000 3.1678 0.0000
# 3 30.0765 23.7021 56.7711 0.0000 6.9918 0.0000
# 4 0.0000 0.0000 0.0000 37.7980 0.0000 -30.4451
# 5 -6.6855 3.1678 6.9918 0.0000 27.8562 0.0000
# 6 0.0000 0.0000 0.0000 -30.4451 0.0000 43.8533
#
#
#
# Elastic Compliance Matrix: (Units=1/GPa)
#
#
# Indices 1 2 3 4 5 6 
#
# 1 0.020077 -0.004531 -0.009701 0.000000 0.007769 0.000000
# 2 -0.004531 0.013283 -0.002915 0.000000 -0.001866 0.000000
# 3 -0.009701 -0.002915 0.024990 0.000000 -0.008269 0.000000
# 4 0.000000 0.000000 0.000000 0.060019 0.000000 0.041668
# 5 0.007769 -0.001866 -0.008269 0.000000 0.040051 0.000000
# 6 0.000000 0.000000 0.000000 0.041668 0.000000 0.051731
#
#
# Mechanical properties :
#
#
# Convention : Reuss Voigt Hill
#
# Bulk Modulus (GPa) = 41.57319 43.49141 42.53230
# Shear Modulus (GPa) = 19.80480 31.06690 25.43585
#
# Velocity S-wave (km/s) = 3.26212 4.08567 3.69690
# Velocity P-wave (km/s) = 6.04371 6.75467 6.40906
#
# Compressibility (1/GPa) = 0.02405396
#
# Stress axis : x y z
#
# Youngs Moduli (GPa) = 49.80870 75.28441 40.01618
#
# Poissons Ratio (x) = 0.34111 0.38822
# Poissons Ratio (y) = 0.22568 0.11666
# Poissons Ratio (z) = 0.48322 0.21948
#
# Static dielectric constant tensor:
#      x y z
#    x 1.659060 0.000000 -0.019170 
#    y 0.000000 1.646360 0.000000 
#    z -0.019170 0.000000 1.655900 
# 
# From -- ./inp_files/88908.got.cif
#   From: 2010.05.17/outbox.cif.g08.bks.cpg/sg15_45_cif.got.tgz:88908.got - 2010.06.03 18:47:42.
