data_PCOD9302810
_publ_section_title
;
Structure prediction by ZEFSAII (Michael W. Deem and Ramdas Pophale) SiO2 
 PCOD9302810
Probable space group: C 2/C
;
_chemical_formula_sum "Si O2"
_cell_formula_units_Z 36
_cell_length_a 23.529365
_cell_length_b 11.971573
_cell_length_c 8.182342
_cell_angle_alpha 90.000000
_cell_angle_beta 143.450926
_cell_angle_gamma 90.000000
_cell_volume 1372.552278
_symmetry_space_group_name_H-M "C 2/C"
_symmetry_group_IT_number 15
_symmetry_cell_setting 'monoclinic'
loop_
_space_group_symop_operation_xyz
x,y,z
-x,y,1/2-z
-x,-y,-z
x,-y,1/2+z
1/2+x,1/2+y,z
1/2-x,1/2+y,1/2-z
1/2-x,1/2-y,-z
1/2+x,1/2-y,1/2+z
loop_
_atom_site_type_symbol
_atom_site_label
_atom_site_fract_x
_atom_site_fract_y
_atom_site_fract_z
Si Si1 0.851397 0.834252 0.056676
Si Si2 0.848610 0.280604 0.069291
Si Si3 0.000000 0.573609 0.750000
Si Si4 0.356950 0.887151 0.427427
Si Si5 0.158104 0.938129 0.109299
O O1 0.739326 0.806268 0.758369
O O2 0.900775 0.714955 0.135097
O O3 0.879272 0.937351 0.004222
O O4 0.861164 0.882916 0.260596
O O5 0.941886 0.348764 0.235642
O O6 0.820946 0.323049 0.184065
O O7 0.874507 0.150784 0.102996
O O8 0.921430 0.485883 0.507975
O O9 0.272303 0.941086 0.338101
#
# Coordination Sequence:
#
# PCOD9302810 Si02
#       5
#     8   8   4   8   8
#     4  11  22  40  65  93 126 169 219 265 314 381
#     4  11  23  39  63  94 131 170 212 263 321 381
#     4  12  26  40  66  98 138 166 214 262 326 384
#     4  11  23  39  63  94 131 170 212 263 321 381
#     4  11  22  40  65  93 126 169 219 265 314 381
#
# _framework density 26.228508000000001
#
# number of rings (size 3 to 8) (size 9 to 14) (size 15 to 20)
#    0.000    0.889    2.222    8.667    0.000    5.333 
#    0.000    1.111    0.000    5.333    0.000    0.000 
#    0.000    0.000    0.000    0.000    0.000    0.000 
#
# Total GULP energy -100752.807245 kJ/mol
# GULP energy per Si atom -5597.378180 kJ/mol
# Density = 2.616881 g / cm^3
# Si number density = 26.228508 Si / 1000 Ang^3
#
#
#
# Elastic Constant Matrix: (Units=GPa)
#
#
# Indices 1 2 3 4 5 6 
#
# 1 73.9668 -1.3457 17.9490 0.0000 -4.7213 0.0000
# 2 -1.3457 154.5007 8.3988 0.0000 19.1515 0.0000
# 3 17.9490 8.3988 48.3082 0.0000 -4.6999 0.0000
# 4 0.0000 0.0000 0.0000 35.0357 0.0000 2.7173
# 5 -4.7213 19.1515 -4.6999 0.0000 32.8345 0.0000
# 6 0.0000 0.0000 0.0000 2.7173 0.0000 28.1339
#
#
#
# Elastic Compliance Matrix: (Units=1/GPa)
#
#
# Indices 1 2 3 4 5 6 
#
# 1 0.014931 0.000279 -0.005479 0.000000 0.001200 0.000000
# 2 0.000279 0.007111 -0.001764 0.000000 -0.004360 0.000000
# 3 -0.005479 -0.001764 0.023392 0.000000 0.003589 0.000000
# 4 0.000000 0.000000 0.000000 0.028758 0.000000 -0.002778
# 5 0.001200 -0.004360 0.003589 0.000000 0.033685 0.000000
# 6 0.000000 0.000000 0.000000 -0.002778 0.000000 0.035813
#
#
# Mechanical properties :
#
#
# Convention : Reuss Voigt Hill
#
# Bulk Modulus (GPa) = 31.74060 36.30889 34.02474
# Shear Modulus (GPa) = 29.74052 35.98574 32.86313
#
# Velocity S-wave (km/s) = 3.37100 3.70808 3.54355
# Velocity P-wave (km/s) = 5.22296 5.67508 5.45371
#
# Compressibility (1/GPa) = 0.03150539
#
# Stress axis : x y z
#
# Youngs Moduli (GPa) = 66.97523 140.62159 42.74917
#
# Poissons Ratio (x) = -0.03926 0.23424
# Poissons Ratio (y) = -0.01870 0.07542
# Poissons Ratio (z) = 0.36699 0.24810
#
# Static dielectric constant tensor:
#      x y z
#    x 2.058180 0.000000 0.058610 
#    y 0.000000 2.072430 0.000000 
#    z 0.058610 0.000000 2.127000 
# 
# From -- ./inp_files/28830.got.cif
#   From: 2010.05.17/outbox.cif.g08.bks.cpg/sg15_15_cif.got.tgz:28830.got - 2010.06.03 18:47:42.
