data_PCOD9302782
_publ_section_title
;
Structure prediction by ZEFSAII (Michael W. Deem and Ramdas Pophale) SiO2 
 PCOD9302782
Probable space group: C 2/C
;
_chemical_formula_sum "Si O2"
_cell_formula_units_Z 48
_cell_length_a 11.282122
_cell_length_b 20.347702
_cell_length_c 12.253825
_cell_angle_alpha 90.000000
_cell_angle_beta 51.561609
_cell_angle_gamma 90.000000
_cell_volume 2203.399536
_symmetry_space_group_name_H-M "C 2/C"
_symmetry_group_IT_number 15
_symmetry_cell_setting 'monoclinic'
loop_
_space_group_symop_operation_xyz
x,y,z
-x,y,1/2-z
-x,-y,-z
x,-y,1/2+z
1/2+x,1/2+y,z
1/2-x,1/2+y,1/2-z
1/2-x,1/2-y,-z
1/2+x,1/2-y,1/2+z
loop_
_atom_site_type_symbol
_atom_site_label
_atom_site_fract_x
_atom_site_fract_y
_atom_site_fract_z
Si Si1 0.356921 0.911135 0.661018
Si Si2 0.459586 0.288973 0.538841
Si Si3 0.028432 0.067971 0.420750
Si Si4 0.500000 0.999698 0.250000
Si Si5 0.798838 0.391229 0.449643
Si Si6 0.362371 0.766259 0.751392
Si Si7 0.000000 0.725475 0.750000
O O1 0.379330 0.895940 0.521274
O O2 0.362637 0.843550 0.724861
O O3 0.186323 0.939339 0.766931
O O4 0.473824 0.957903 0.656376
O O5 0.443944 0.366388 0.522855
O O6 0.598296 0.264760 0.387717
O O7 0.301528 0.251832 0.604349
O O8 0.476972 0.271144 0.657134
O O9 0.879798 0.093912 0.441120
O O10 0.000000 0.000000 0.500000
O O11 0.359065 0.951584 0.343716
O O12 0.861039 0.324122 0.359587
O O13 0.500000 0.747652 0.750000
#
# Coordination Sequence:
#
# PCOD9302782 Si02
#       7
#     8   8   8   4   8   8   4
#     4  11  22  41  66  94 127 178 222 273 339 403
#     4  11  25  42  69 100 137 177 226 289 342 410
#     4  11  24  43  65  95 134 172 221 277 342 409
#     4  11  22  40  62  92 133 172 220 272 325 410
#     4  11  23  41  66  98 134 171 223 281 337 404
#     4  11  23  43  67  95 134 180 227 278 341 407
#     4  11  24  42  72 106 135 174 232 286 347 402
#
# _framework density 21.784519
#
# number of rings (size 3 to 8) (size 9 to 14) (size 15 to 20)
#    0.000    1.000    4.167    2.500    4.667    1.333 
#    0.000    1.667    0.000    0.000    0.000    0.000 
#    0.000    0.000    0.000    0.000    0.000    0.000 
#
# Total GULP energy -133878.003391 kJ/mol
# GULP energy per Si atom -5578.250141 kJ/mol
# Density = 2.173494 g / cm^3
# Si number density = 21.784519 Si / 1000 Ang^3
#
#
#
# Elastic Constant Matrix: (Units=GPa)
#
#
# Indices 1 2 3 4 5 6 
#
# 1 98.3954 14.0784 19.9014 0.0000 -0.5837 0.0000
# 2 14.0784 103.9129 32.3136 0.0000 -4.9571 0.0000
# 3 19.9014 32.3136 67.7563 0.0000 2.6691 0.0000
# 4 0.0000 0.0000 0.0000 25.8131 0.0000 3.8480
# 5 -0.5837 -4.9571 2.6691 0.0000 32.3277 0.0000
# 6 0.0000 0.0000 0.0000 3.8480 0.0000 19.0842
#
#
#
# Elastic Compliance Matrix: (Units=1/GPa)
#
#
# Indices 1 2 3 4 5 6 
#
# 1 0.010837 -0.000537 -0.002941 0.000000 0.000356 0.000000
# 2 -0.000537 0.011482 -0.005405 0.000000 0.002197 0.000000
# 3 -0.002941 -0.005405 0.018294 0.000000 -0.002392 0.000000
# 4 0.000000 0.000000 0.000000 0.039940 0.000000 -0.008053
# 5 0.000356 0.002197 -0.002392 0.000000 0.031474 0.000000
# 6 0.000000 0.000000 0.000000 -0.008053 0.000000 0.054023
#
#
# Mechanical properties :
#
#
# Convention : Reuss Voigt Hill
#
# Bulk Modulus (GPa) = 43.76722 44.73904 44.25313
# Shear Modulus (GPa) = 26.11905 29.02977 27.57441
#
# Velocity S-wave (km/s) = 3.46638 3.65442 3.56164
# Velocity P-wave (km/s) = 6.01295 6.19581 6.10507
#
# Compressibility (1/GPa) = 0.02284815
#
# Stress axis : x y z
#
# Youngs Moduli (GPa) = 92.27784 87.09575 54.66157
#
# Poissons Ratio (x) = 0.04674 0.16077
# Poissons Ratio (y) = 0.04952 0.29542
# Poissons Ratio (z) = 0.27140 0.47072
#
# Static dielectric constant tensor:
#      x y z
#    x 1.888190 0.000000 -0.045560 
#    y 0.000000 1.778910 0.000000 
#    z -0.045560 0.000000 1.802790 
# 
# From -- ./inp_files/89186.got.cif
#   From: 2010.05.17/outbox.cif.g08.bks.cpg/sg15_45_cif.got.tgz:89186.got - 2010.06.03 18:47:42.
