data_PCOD9302111
_publ_section_title
;
Structure prediction by ZEFSAII (Michael W. Deem and Ramdas Pophale) SiO2 
 PCOD9302111
Probable space group: C 2/C
;
_chemical_formula_sum "Si O2"
_cell_formula_units_Z 48
_cell_length_a 9.171895
_cell_length_b 13.271973
_cell_length_c 26.941313
_cell_angle_alpha 90.000000
_cell_angle_beta 141.913079
_cell_angle_gamma 90.000000
_cell_volume 2023.006473
_symmetry_space_group_name_H-M "C 2/C"
_symmetry_group_IT_number 15
_symmetry_cell_setting 'monoclinic'
loop_
_space_group_symop_operation_xyz
x,y,z
-x,y,1/2-z
-x,-y,-z
x,-y,1/2+z
1/2+x,1/2+y,z
1/2-x,1/2+y,1/2-z
1/2-x,1/2-y,-z
1/2+x,1/2-y,1/2+z
loop_
_atom_site_type_symbol
_atom_site_label
_atom_site_fract_x
_atom_site_fract_y
_atom_site_fract_z
Si Si1 0.850673 0.341343 0.659342
Si Si2 0.231042 0.939492 0.158573
Si Si3 0.052952 0.954792 0.321150
Si Si4 0.698192 0.788548 0.407602
Si Si5 0.345826 0.323371 0.755645
Si Si6 0.001069 0.655056 0.546348
O O1 0.713225 0.446967 0.631114
O O2 0.678845 0.249910 0.601353
O O3 0.000000 0.327450 0.750000
O O4 0.065959 0.339747 0.677089
O O5 0.500000 0.937522 0.250000
O O6 0.076939 0.909629 0.165296
O O7 0.194554 0.860236 0.104988
O O8 0.000000 0.918673 0.250000
O O9 0.329547 0.940639 0.406050
O O10 0.951256 0.067018 0.295275
O O11 0.435938 0.754444 0.321050
O O12 0.670467 0.845692 0.452196
O O13 0.848323 0.687665 0.458172
O O14 0.500000 0.289631 0.750000
#
# Coordination Sequence:
#
# PCOD9302111 Si02
#       6
#     8   8   8   8   8   8
#     4  11  21  42  65  91 125 165 209 260 315 366
#     4  11  22  40  66  93 123 159 212 262 305 373
#     4  11  23  40  66  94 121 161 211 260 314 364
#     4  11  25  43  61  94 131 169 207 250 319 372
#     4  11  24  41  65  94 123 163 213 264 308 368
#     4  11  25  41  64  91 132 171 202 256 313 379
#
# _framework density 23.727063000000001
#
# number of rings (size 3 to 8) (size 9 to 14) (size 15 to 20)
#    0.000    1.000    5.000    2.000    7.000    2.000 
#    0.000    0.000    0.000    0.000    0.000    0.000 
#    0.000    0.000    0.000    0.000    0.000    0.000 
#
# Total GULP energy -134070.347323 kJ/mol
# GULP energy per Si atom -5586.264472 kJ/mol
# Density = 2.367306 g / cm^3
# Si number density = 23.727063 Si / 1000 Ang^3
#
#
#
# Elastic Constant Matrix: (Units=GPa)
#
#
# Indices 1 2 3 4 5 6 
#
# 1 142.7367 23.5865 29.9940 0.0000 -3.9400 0.0000
# 2 23.5865 75.4140 7.9913 0.0000 -10.5023 0.0000
# 3 29.9940 7.9913 50.8205 -0.0001 2.0828 0.0000
# 4 0.0000 0.0000 -0.0001 30.7009 0.0000 10.2866
# 5 -3.9400 -10.5023 2.0828 0.0000 28.1287 0.0000
# 6 0.0000 0.0000 0.0000 10.2866 0.0000 24.2975
#
#
#
# Elastic Compliance Matrix: (Units=1/GPa)
#
#
# Indices 1 2 3 4 5 6 
#
# 1 0.008332 -0.002009 -0.004633 0.000000 0.000760 0.000000
# 2 -0.002009 0.014775 -0.001356 0.000000 0.005336 0.000000
# 3 -0.004633 -0.001356 0.022741 0.000000 -0.002839 0.000000
# 4 0.000000 0.000000 0.000000 0.037956 0.000000 -0.016069
# 5 0.000760 0.005336 -0.002839 0.000000 0.037860 0.000000
# 6 0.000000 0.000000 0.000000 -0.016069 0.000000 0.047959
#
#
# Mechanical properties :
#
#
# Convention : Reuss Voigt Hill
#
# Bulk Modulus (GPa) = 33.49857 43.56830 38.53343
# Shear Modulus (GPa) = 25.56604 30.45204 28.00904
#
# Velocity S-wave (km/s) = 3.28610 3.58639 3.43952
# Velocity P-wave (km/s) = 5.34293 5.96253 5.66121
#
# Compressibility (1/GPa) = 0.02985202
#
# Stress axis : x y z
#
# Youngs Moduli (GPa) = 120.01264 67.68047 43.97329
#
# Poissons Ratio (x) = 0.13599 0.20373
# Poissons Ratio (y) = 0.24114 0.05963
# Poissons Ratio (z) = 0.55601 0.09179
#
# Static dielectric constant tensor:
#      x y z
#    x 2.028880 0.000000 -0.038430 
#    y 0.000000 1.967230 0.000000 
#    z -0.038430 0.000000 1.911120 
# 
# From -- ./inp_files/289124.got.cif
#   From: 2010.05.17/outbox.cif.g08.bks.cpg/sg15_145_cif.got.tgz:289124.got - 2010.06.03 18:47:42.
