data_PCOD9302157
_publ_section_title
;
Structure prediction by ZEFSAII (Michael W. Deem and Ramdas Pophale) SiO2 
 PCOD9302157
Probable space group: C 2/C
;
_chemical_formula_sum "Si O2"
_cell_formula_units_Z 48
_cell_length_a 9.328139
_cell_length_b 26.673606
_cell_length_c 10.795306
_cell_angle_alpha 90.000000
_cell_angle_beta 55.016324
_cell_angle_gamma 90.000000
_cell_volume 2200.710069
_symmetry_space_group_name_H-M "C 2/C"
_symmetry_group_IT_number 15
_symmetry_cell_setting 'monoclinic'
loop_
_space_group_symop_operation_xyz
x,y,z
-x,y,1/2-z
-x,-y,-z
x,-y,1/2+z
1/2+x,1/2+y,z
1/2-x,1/2+y,1/2-z
1/2-x,1/2-y,-z
1/2+x,1/2-y,1/2+z
loop_
_atom_site_type_symbol
_atom_site_label
_atom_site_fract_x
_atom_site_fract_y
_atom_site_fract_z
Si Si1 0.615307 0.627104 0.374626
Si Si2 0.553885 0.177011 0.369658
Si Si3 0.104304 0.404581 0.391324
Si Si4 0.812461 0.464251 0.911199
Si Si5 0.065706 0.780234 0.082173
Si Si6 0.267048 0.423635 0.055259
O O1 0.760310 0.649988 0.211822
O O2 0.709732 0.580795 0.396827
O O3 0.578185 0.672959 0.486606
O O4 0.432936 0.604889 0.419315
O O5 0.500000 0.173415 0.250000
O O6 0.415362 0.146622 0.520936
O O7 0.561397 0.235308 0.399323
O O8 0.152991 0.447519 0.465077
O O9 0.236235 0.404401 0.211209
O O10 0.913638 0.414976 0.427882
O O11 0.711521 0.516486 0.953035
O O12 0.000000 0.470229 0.750000
O O13 0.000000 0.795808 0.250000
O O14 0.250000 0.750000 0.000000
#
# Coordination Sequence:
#
# PCOD9302157 Si02
#       6
#     8   8   8   8   8   8
#     4  12  24  41  65 107 131 166 229 286 330 395
#     4  11  21  42  69  98 131 178 221 278 343 394
#     4  11  22  45  67  92 136 186 216 275 341 405
#     4  12  22  45  69  91 135 182 224 267 342 395
#     4  11  22  39  67 104 133 172 231 282 337 396
#     4  11  28  39  65 103 134 175 227 278 335 401
#
# _framework density 21.811140999999999
#
# number of rings (size 3 to 8) (size 9 to 14) (size 15 to 20)
#    0.000    0.667    8.333    1.000    4.667    0.667 
#    0.000    2.500    0.000    0.000    0.000    0.000 
#    0.000    0.000    0.000    0.000    0.000    0.000 
#
# Total GULP energy -134273.847605 kJ/mol
# GULP energy per Si atom -5594.743650 kJ/mol
# Density = 2.176150 g / cm^3
# Si number density = 21.811141 Si / 1000 Ang^3
#
#
#
# Elastic Constant Matrix: (Units=GPa)
#
#
# Indices 1 2 3 4 5 6 
#
# 1 71.1255 23.1722 16.5811 0.0000 -19.9396 0.0000
# 2 23.1722 155.2495 35.6711 0.0000 -3.6935 0.0000
# 3 16.5811 35.6711 101.9519 0.0000 -4.0711 0.0000
# 4 0.0000 0.0000 0.0000 32.2260 0.0000 -8.5030
# 5 -19.9396 -3.6935 -4.0711 0.0000 30.4518 0.0000
# 6 0.0000 0.0000 0.0000 -8.5030 0.0000 24.6495
#
#
#
# Elastic Compliance Matrix: (Units=1/GPa)
#
#
# Indices 1 2 3 4 5 6 
#
# 1 0.018389 -0.002054 -0.001811 0.000000 0.011550 0.000000
# 2 -0.002054 0.007242 -0.002230 0.000000 -0.000765 0.000000
# 3 -0.001811 -0.002230 0.010883 0.000000 -0.000001 0.000000
# 4 0.000000 0.000000 0.000000 0.034138 0.000000 0.011776
# 5 0.011550 -0.000765 -0.000001 0.000000 0.040308 0.000000
# 6 0.000000 0.000000 0.000000 0.011776 0.000000 0.044631
#
#
# Mechanical properties :
#
#
# Convention : Reuss Voigt Hill
#
# Bulk Modulus (GPa) = 41.11154 53.24175 47.17665
# Shear Modulus (GPa) = 28.42683 34.32562 31.37623
#
# Velocity S-wave (km/s) = 3.61406 3.97137 3.79693
# Velocity P-wave (km/s) = 6.02537 6.74481 6.39521
#
# Compressibility (1/GPa) = 0.02432407
#
# Stress axis : x y z
#
# Youngs Moduli (GPa) = 54.38088 138.08217 91.88320
#
# Poissons Ratio (x) = 0.28359 0.16639
# Poissons Ratio (y) = 0.11169 0.20493
# Poissons Ratio (z) = 0.09848 0.30797
#
# Static dielectric constant tensor:
#      x y z
#    x 1.831220 0.000000 -0.008360 
#    y 0.000000 1.788990 0.000000 
#    z -0.008360 0.000000 1.808490 
# 
# From -- ./inp_files/80520.got.cif
#   From: 2010.05.17/outbox.cif.g08.bks.cpg/sg15_41_cif.got.tgz:80520.got - 2010.06.03 18:47:42.
