data_PCOD9302539
_publ_section_title
;
Structure prediction by ZEFSAII (Michael W. Deem and Ramdas Pophale) SiO2 
 PCOD9302539
Probable space group: C 2/C
;
_chemical_formula_sum "Si O2"
_cell_formula_units_Z 44
_cell_length_a 23.767369
_cell_length_b 4.782721
_cell_length_c 17.844083
_cell_angle_alpha 90.000000
_cell_angle_beta 48.288188
_cell_angle_gamma 90.000000
_cell_volume 1514.191480
_symmetry_space_group_name_H-M "C 2/C"
_symmetry_group_IT_number 15
_symmetry_cell_setting 'monoclinic'
loop_
_space_group_symop_operation_xyz
x,y,z
-x,y,1/2-z
-x,-y,-z
x,-y,1/2+z
1/2+x,1/2+y,z
1/2-x,1/2+y,1/2-z
1/2-x,1/2-y,-z
1/2+x,1/2-y,1/2+z
loop_
_atom_site_type_symbol
_atom_site_label
_atom_site_fract_x
_atom_site_fract_y
_atom_site_fract_z
Si Si1 0.436451 0.187859 0.160759
Si Si2 0.583172 0.751649 0.455687
Si Si3 0.850752 0.461523 0.456239
Si Si4 0.500000 0.875468 0.250000
Si Si5 0.727202 0.558233 0.817497
Si Si6 0.303440 0.353436 0.365760
O O1 0.374459 0.401239 0.248222
O O2 0.415034 0.940045 0.121147
O O3 0.470729 0.047605 0.204736
O O4 0.502815 0.339848 0.058546
O O5 0.614796 0.940132 0.495986
O O6 0.639050 0.492618 0.402277
O O7 0.761100 0.419523 0.557207
O O8 0.836992 0.720090 0.411669
O O9 0.916671 0.270657 0.357696
O O10 0.747510 0.867841 0.775926
O O11 0.765133 0.402936 0.853656
#
# Coordination Sequence:
#
# PCOD9302539 Si02
#       6
#     8   8   8   4   8   8
#     4   9  15  28  51  84 118 161 203 259 305 374
#     4   9  17  30  53  83 120 155 209 249 316 361
#     4   8  15  26  48  80 115 158 201 256 303 373
#     4   8  14  24  44  82 116 164 202 258 312 368
#     4  11  22  38  60  90 123 164 207 260 309 373
#     4   9  16  30  52  80 117 153 205 247 312 359
#
# _framework density 29.058409999999999
#
# number of rings (size 3 to 8) (size 9 to 14) (size 15 to 20)
#    0.000    2.909    1.818    0.000    0.000    0.000 
#    0.000    0.909    0.000   17.455    0.000    1.273 
#    0.000    0.000    0.000    0.000    0.000    0.000 
#
# Total GULP energy -122995.601677 kJ/mol
# GULP energy per Si atom -5590.709167 kJ/mol
# Density = 2.899227 g / cm^3
# Si number density = 29.058410 Si / 1000 Ang^3
#
#
#
# Elastic Constant Matrix: (Units=GPa)
#
#
# Indices 1 2 3 4 5 6 
#
# 1 149.4545 33.1993 81.3887 0.0276 17.9834 -0.0985
# 2 33.1993 85.4859 77.3387 0.1912 -4.2411 -0.2581
# 3 81.3887 77.3387 246.6085 -0.0507 -24.1147 0.0355
# 4 0.0276 0.1912 -0.0507 38.5444 0.0265 4.9826
# 5 17.9834 -4.2411 -24.1147 0.0265 99.7286 -0.0287
# 6 -0.0985 -0.2581 0.0355 4.9826 -0.0287 6.9919
#
#
#
# Elastic Compliance Matrix: (Units=1/GPa)
#
#
# Indices 1 2 3 4 5 6 
#
# 1 0.008701 -0.000966 -0.002792 -0.000017 -0.002285 0.000104
# 2 -0.000966 0.016473 -0.004877 -0.000184 -0.000304 0.000749
# 3 -0.002792 -0.004877 0.006693 0.000072 0.001914 -0.000297
# 4 -0.000017 -0.000184 0.000072 0.028579 -0.000001 -0.020373
# 5 -0.002285 -0.000304 0.001914 -0.000001 0.010889 -0.000008
# 6 0.000104 0.000749 -0.000297 -0.020373 -0.000008 0.157571
#
#
# Mechanical properties :
#
#
# Convention : Reuss Voigt Hill
#
# Bulk Modulus (GPa) = 68.50935 96.15582 82.33259
# Shear Modulus (GPa) = 19.91691 48.36115 34.13903
#
# Velocity S-wave (km/s) = 2.62087 4.08398 3.43131
# Velocity P-wave (km/s) = 5.72593 7.44318 6.64030
#
# Compressibility (1/GPa) = 0.01459655
#
# Stress axis : x y z
#
# Youngs Moduli (GPa) = 114.92675 60.70574 149.40385
#
# Poissons Ratio (x) = 0.05865 0.41716
# Poissons Ratio (y) = 0.11104 0.72866
# Poissons Ratio (z) = 0.32089 0.29607
#
# Static dielectric constant tensor:
#      x y z
#    x 2.388690 -0.000070 -0.073850 
#    y -0.000070 2.143430 0.000020 
#    z -0.073850 0.000020 2.320870 
# 
# From -- ./inp_files/221109.got.cif
#   From: 2010.05.17/outbox.cif.g08.bks.cpg/sg15_111_cif.got.tgz:221109.got - 2010.06.03 18:47:42.
