data_PCOD9302500
_publ_section_title
;
Structure prediction by ZEFSAII (Michael W. Deem and Ramdas Pophale) SiO2 
 PCOD9302500
Probable space group: C 2/C
;
_chemical_formula_sum "Si O2"
_cell_formula_units_Z 40
_cell_length_a 20.271349
_cell_length_b 13.755039
_cell_length_c 10.027997
_cell_angle_alpha 90.000000
_cell_angle_beta 138.653924
_cell_angle_gamma 90.000000
_cell_volume 1847.144734
_symmetry_space_group_name_H-M "C 2/C"
_symmetry_group_IT_number 15
_symmetry_cell_setting 'monoclinic'
loop_
_space_group_symop_operation_xyz
x,y,z
-x,y,1/2-z
-x,-y,-z
x,-y,1/2+z
1/2+x,1/2+y,z
1/2-x,1/2+y,1/2-z
1/2-x,1/2-y,-z
1/2+x,1/2-y,1/2+z
loop_
_atom_site_type_symbol
_atom_site_label
_atom_site_fract_x
_atom_site_fract_y
_atom_site_fract_z
Si Si1 0.216147 0.757232 0.794594
Si Si2 0.876460 0.458988 0.709038
Si Si3 0.618658 0.899875 0.507746
Si Si4 0.707163 0.339971 0.346993
Si Si5 0.981123 0.268424 0.942606
O O1 0.269681 0.856238 0.827876
O O2 0.259765 0.678188 0.755967
O O3 0.096939 0.752229 0.605683
O O4 0.250000 0.750000 0.000000
O O5 0.883843 0.478678 0.877141
O O6 0.907543 0.549851 0.669596
O O7 0.764901 0.431852 0.493103
O O8 0.941328 0.359717 0.792507
O O9 0.553215 0.810541 0.464947
O O10 0.750000 0.250000 0.500000
O O11 0.588954 0.325473 0.185105
#
# Coordination Sequence:
#
# PCOD9302500 Si02
#       5
#     8   8   8   8   8
#     4  11  22  37  63  87 121 169 213 260 308 372
#     4   9  19  40  63  93 134 157 205 268 322 369
#     4   9  21  39  64  95 130 159 208 264 319 370
#     4   9  18  38  58  86 122 165 210 251 303 383
#     4   8  20  39  63  89 122 167 213 248 313 383
#
# _framework density 21.655045000000001
#
# number of rings (size 3 to 8) (size 9 to 14) (size 15 to 20)
#    1.200    1.600    2.000    0.000    2.800    6.400 
#    0.000    7.000    4.400    0.000    0.000    0.000 
#    0.000    0.000    0.000    0.000    0.000    0.000 
#
# Total GULP energy -111477.381631 kJ/mol
# GULP energy per Si atom -5573.869082 kJ/mol
# Density = 2.160576 g / cm^3
# Si number density = 21.655045 Si / 1000 Ang^3
#
#
#
# Elastic Constant Matrix: (Units=GPa)
#
#
# Indices 1 2 3 4 5 6 
#
# 1 94.6457 9.6911 41.9055 0.0000 4.5945 0.0000
# 2 9.6911 33.2661 22.5554 0.0000 12.3870 0.0000
# 3 41.9055 22.5554 120.4543 0.0000 29.1792 0.0000
# 4 0.0000 0.0000 0.0000 36.0779 0.0000 -2.6959
# 5 4.5945 12.3870 29.1792 0.0000 60.5837 0.0000
# 6 0.0000 0.0000 0.0000 -2.6959 0.0000 26.5731
#
#
#
# Elastic Compliance Matrix: (Units=1/GPa)
#
#
# Indices 1 2 3 4 5 6 
#
# 1 0.012617 -0.001149 -0.004528 0.000000 0.001459 0.000000
# 2 -0.001149 0.035632 -0.005127 0.000000 -0.004729 0.000000
# 3 -0.004528 -0.005127 0.011887 0.000000 -0.004333 0.000000
# 4 0.000000 0.000000 0.000000 0.027930 0.000000 0.002834
# 5 0.001459 -0.004729 -0.004333 0.000000 0.019449 0.000000
# 6 0.000000 0.000000 0.000000 0.002834 0.000000 0.037920
#
#
# Mechanical properties :
#
#
# Convention : Reuss Voigt Hill
#
# Bulk Modulus (GPa) = 25.95431 44.07445 35.01438
# Shear Modulus (GPa) = 27.79545 36.26121 32.02833
#
# Velocity S-wave (km/s) = 3.58656 4.09650 3.84998
# Velocity P-wave (km/s) = 5.40024 6.54005 5.99728
#
# Compressibility (1/GPa) = 0.03852925
#
# Stress axis : x y z
#
# Youngs Moduli (GPa) = 79.25656 28.06433 84.12639
#
# Poissons Ratio (x) = 0.03224 0.38090
# Poissons Ratio (y) = 0.09106 0.43131
# Poissons Ratio (z) = 0.35885 0.14389
#
# Static dielectric constant tensor:
#      x y z
#    x 1.858200 0.000000 0.011650 
#    y 0.000000 1.782370 0.000000 
#    z 0.011650 0.000000 1.866980 
# 
# From -- ./inp_files/113742.got.cif
#   From: 2010.05.17/outbox.cif.g08.bks.cpg/sg15_57_cif.got.tgz:113742.got - 2010.06.03 18:47:42.
