data_PCOD9302662
_publ_section_title
;
Structure prediction by ZEFSAII (Michael W. Deem and Ramdas Pophale) SiO2 
 PCOD9302662
Probable space group: C 2/C
;
_chemical_formula_sum "Si O2"
_cell_formula_units_Z 36
_cell_length_a 7.049732
_cell_length_b 21.045930
_cell_length_c 16.025718
_cell_angle_alpha 90.000000
_cell_angle_beta 37.283596
_cell_angle_gamma 90.000000
_cell_volume 1440.320918
_symmetry_space_group_name_H-M "C 2/C"
_symmetry_group_IT_number 15
_symmetry_cell_setting 'monoclinic'
loop_
_space_group_symop_operation_xyz
x,y,z
-x,y,1/2-z
-x,-y,-z
x,-y,1/2+z
1/2+x,1/2+y,z
1/2-x,1/2+y,1/2-z
1/2-x,1/2-y,-z
1/2+x,1/2-y,1/2+z
loop_
_atom_site_type_symbol
_atom_site_label
_atom_site_fract_x
_atom_site_fract_y
_atom_site_fract_z
Si Si1 0.435087 0.930860 0.640033
Si Si2 0.500000 0.202018 0.750000
Si Si3 0.996418 0.704230 0.456557
Si Si4 0.314855 0.119156 0.673696
Si Si5 0.642974 0.529760 0.062668
O O1 0.428065 0.854961 0.631779
O O2 0.282520 0.957917 0.607313
O O3 0.217866 0.952997 0.793144
O O4 0.779387 0.962348 0.508234
O O5 0.285465 0.156613 0.769523
O O6 0.711811 0.250755 0.624198
O O7 0.750000 0.750000 0.500000
O O8 0.873422 0.671331 0.582389
O O9 0.626235 0.076710 0.569100
O O10 0.000000 0.085088 0.750000
#
# Coordination Sequence:
#
# PCOD9302662 Si02
#       5
#     8   4   8   8   8
#     4   9  19  34  61  98 128 168 219 270 330 392
#     4  12  24  42  64  90 136 176 218 276 328 400
#     4  11  22  39  63  97 134 176 221 268 334 399
#     4  11  23  40  64  94 127 175 221 271 333 393
#     4   9  19  34  61  96 127 165 221 274 324 392
#
# _framework density 24.994427999999999
#
# number of rings (size 3 to 8) (size 9 to 14) (size 15 to 20)
#    0.000    1.778    2.222    3.333    9.333    0.000 
#    0.000    0.000    0.000    8.000    0.000    0.000 
#    0.000    0.000    0.000    0.000    0.000    0.000 
#
# Total GULP energy -100542.955261 kJ/mol
# GULP energy per Si atom -5585.719737 kJ/mol
# Density = 2.493754 g / cm^3
# Si number density = 24.994428 Si / 1000 Ang^3
#
#
#
# Elastic Constant Matrix: (Units=GPa)
#
#
# Indices 1 2 3 4 5 6 
#
# 1 70.4462 35.7495 17.9630 -0.0001 -20.7213 0.0000
# 2 35.7495 149.3889 57.1187 -0.0001 -11.2690 0.0000
# 3 17.9630 57.1187 115.9104 -0.0006 -14.0898 0.0001
# 4 -0.0001 -0.0001 -0.0006 55.3372 0.0001 -13.7229
# 5 -20.7213 -11.2690 -14.0898 0.0001 25.9693 0.0000
# 6 0.0000 0.0000 0.0001 -13.7229 0.0000 19.5945
#
#
#
# Elastic Compliance Matrix: (Units=1/GPa)
#
#
# Indices 1 2 3 4 5 6 
#
# 1 0.020460 -0.004007 0.000618 0.000000 0.014922 0.000000
# 2 -0.004007 0.009085 -0.004031 0.000000 -0.001442 0.000000
# 3 0.000618 -0.004031 0.011097 0.000000 0.004764 0.000000
# 4 0.000000 0.000000 0.000000 0.021869 0.000000 0.015316
# 5 0.014922 -0.001442 0.004764 0.000000 0.052373 0.000000
# 6 0.000000 0.000000 0.000000 0.015316 0.000000 0.061761
#
#
# Mechanical properties :
#
#
# Convention : Reuss Voigt Hill
#
# Bulk Modulus (GPa) = 38.75698 61.93421 50.34560
# Shear Modulus (GPa) = 24.98898 35.17449 30.08174
#
# Velocity S-wave (km/s) = 3.16536 3.75546 3.47297
# Velocity P-wave (km/s) = 5.37580 6.60588 6.02233
#
# Compressibility (1/GPa) = 0.02580181
#
# Stress axis : x y z
#
# Youngs Moduli (GPa) = 48.87513 110.06625 90.11090
#
# Poissons Ratio (x) = 0.44101 -0.05565
# Poissons Ratio (y) = 0.19583 0.36328
# Poissons Ratio (z) = -0.03018 0.44373
#
# Static dielectric constant tensor:
#      x y z
#    x 2.121930 0.000000 -0.107780 
#    y 0.000000 1.962530 0.000000 
#    z -0.107780 0.000000 2.039500 
# 
# From -- ./inp_files/191428.got.cif
#   From: 2010.05.17/outbox.cif.g08.bks.cpg/sg15_96_cif.got.tgz:191428.got - 2010.06.03 18:47:42.
