data_PCOD9302007
_publ_section_title
;
Structure prediction by ZEFSAII (Michael W. Deem and Ramdas Pophale) SiO2 
 PCOD9302007
Probable space group: C 2/C
;
_chemical_formula_sum "Si O2"
_cell_formula_units_Z 60
_cell_length_a 7.847619
_cell_length_b 25.207267
_cell_length_c 14.293045
_cell_angle_alpha 90.000000
_cell_angle_beta 88.473614
_cell_angle_gamma 90.000000
_cell_volume 2826.404409
_symmetry_space_group_name_H-M "C 2/C"
_symmetry_group_IT_number 15
_symmetry_cell_setting 'monoclinic'
loop_
_space_group_symop_operation_xyz
x,y,z
-x,y,1/2-z
-x,-y,-z
x,-y,1/2+z
1/2+x,1/2+y,z
1/2-x,1/2+y,1/2-z
1/2-x,1/2-y,-z
1/2+x,1/2-y,1/2+z
loop_
_atom_site_type_symbol
_atom_site_label
_atom_site_fract_x
_atom_site_fract_y
_atom_site_fract_z
Si Si1 0.254667 0.884440 0.118143
Si Si2 0.799635 0.308005 0.958475
Si Si3 0.661750 0.096195 0.599565
Si Si4 0.685768 0.479469 0.243053
Si Si5 0.500000 0.056031 0.250000
Si Si6 0.701381 0.690932 0.243968
Si Si7 0.401817 0.874826 0.594302
Si Si8 0.298224 0.192350 0.780378
O O1 0.456318 0.901153 0.120243
O O2 0.167044 0.936809 0.158834
O O3 0.219239 0.837894 0.193315
O O4 0.217281 0.855985 0.020563
O O5 0.755873 0.309822 0.850631
O O6 0.998384 0.325881 0.956579
O O7 0.750000 0.250000 0.000000
O O8 0.751686 0.053750 0.665842
O O9 0.680475 0.091475 0.488176
O O10 0.727373 0.153516 0.632697
O O11 0.500000 0.505299 0.250000
O O12 0.837163 0.520681 0.227261
O O13 0.469370 0.090379 0.344296
O O14 0.500000 0.687493 0.250000
O O15 0.775892 0.647359 0.174089
O O16 0.760639 0.748263 0.204815
O O17 0.500000 0.195290 0.750000
#
# Coordination Sequence:
#
# PCOD9302007 Si02
#       8
#     8   8   8   8   4   8   8   8
#     4   9  17  37  64  90 129 168 219 279 327 397
#     4  11  21  41  65  96 134 177 222 268 333 417
#     4   9  19  40  66  92 130 173 223 273 337 407
#     4  11  23  43  71 100 128 170 230 292 351 399
#     4  12  24  48  68  94 138 178 228 292 346 398
#     4  11  22  38  58  93 138 175 221 271 329 403
#     4  11  25  43  66  94 134 185 224 269 345 411
#     4   8  15  31  57  88 125 170 206 263 324 385
#
# _framework density 21.228384999999999
#
# number of rings (size 3 to 8) (size 9 to 14) (size 15 to 20)
#    0.000    1.867    4.000    0.800    1.867    2.667 
#    4.800    0.667    0.000    0.000    0.000    0.000 
#    0.000    0.000    0.000    0.000    0.000    0.000 
#
# Total GULP energy -167267.621969 kJ/mol
# GULP energy per Si atom -5575.587399 kJ/mol
# Density = 2.118007 g / cm^3
# Si number density = 21.228385 Si / 1000 Ang^3
#
#
#
# Elastic Constant Matrix: (Units=GPa)
#
#
# Indices 1 2 3 4 5 6 
#
# 1 51.0183 15.9746 -7.9080 0.0000 -2.2480 0.0000
# 2 15.9746 68.7232 14.6720 0.0000 -4.5730 0.0000
# 3 -7.9080 14.6720 101.7119 0.0000 -7.2148 0.0000
# 4 0.0000 0.0000 0.0000 3.1179 0.0000 -9.3164
# 5 -2.2480 -4.5730 -7.2148 0.0000 17.2727 0.0000
# 6 0.0000 0.0000 0.0000 -9.3164 0.0000 19.3224
#
#
#
# Elastic Compliance Matrix: (Units=1/GPa)
#
#
# Indices 1 2 3 4 5 6 
#
# 1 0.021840 -0.005479 0.002666 0.000000 0.002506 0.000000
# 2 -0.005479 0.016558 -0.002632 0.000000 0.002571 0.000000
# 3 0.002666 -0.002632 0.010711 0.000000 0.004124 0.000000
# 4 0.000000 0.000000 0.000000 -0.727775 0.000000 -0.350900
# 5 0.002506 0.002571 0.004124 0.000000 0.060625 0.000000
# 6 0.000000 0.000000 0.000000 -0.350900 0.000000 -0.117435
#
#
# Mechanical properties :
#
#
# Convention : Reuss Voigt Hill
#
# Bulk Modulus (GPa) = 26.16511 29.65896 27.91203
# Shear Modulus (GPa) = -7.02399 21.19025 7.08313
#
# Velocity S-wave (km/s) = -1.82098 3.16286 1.82863
# Velocity P-wave (km/s) = 2.81621 5.22876 4.19946
#
# Compressibility (1/GPa) = 0.03821884
#
# Stress axis : x y z
#
# Youngs Moduli (GPa) = 45.78737 60.39461 93.36015
#
# Poissons Ratio (x) = 0.33091 -0.24891
# Poissons Ratio (y) = 0.25088 0.24573
# Poissons Ratio (z) = -0.12208 0.15896
#
# Static dielectric constant tensor:
#      x y z
#    x 1.935330 0.000000 0.161350 
#    y 0.000000 1.789350 0.000000 
#    z 0.161350 0.000000 1.991850 
# 
# From -- ./inp_files/137413.got.cif
#   From: 2010.05.17/outbox.cif.g08.bks.cpg/sg15_69_cif.got.tgz:137413.got - 2010.06.03 18:47:42.
