data_PCOD9302893
_publ_section_title
;
Structure prediction by ZEFSAII (Michael W. Deem and Ramdas Pophale) SiO2 
 PCOD9302893
Probable space group: C 2/C
;
_chemical_formula_sum "Si O2"
_cell_formula_units_Z 48
_cell_length_a 9.247764
_cell_length_b 19.716494
_cell_length_c 12.674529
_cell_angle_alpha 90.000000
_cell_angle_beta 96.200852
_cell_angle_gamma 90.000000
_cell_volume 2297.470242
_symmetry_space_group_name_H-M "C 2/C"
_symmetry_group_IT_number 15
_symmetry_cell_setting 'monoclinic'
loop_
_space_group_symop_operation_xyz
x,y,z
-x,y,1/2-z
-x,-y,-z
x,-y,1/2+z
1/2+x,1/2+y,z
1/2-x,1/2+y,1/2-z
1/2-x,1/2-y,-z
1/2+x,1/2-y,1/2+z
loop_
_atom_site_type_symbol
_atom_site_label
_atom_site_fract_x
_atom_site_fract_y
_atom_site_fract_z
Si Si1 0.172425 0.568921 0.273857
Si Si2 0.653640 0.715057 0.703455
Si Si3 0.673596 0.568886 0.771871
Si Si4 0.352709 0.321463 0.696965
Si Si5 0.238510 0.362656 0.005033
Si Si6 0.007203 0.247261 0.013191
O O1 0.240627 0.495136 0.264409
O O2 0.237801 0.618010 0.187743
O O3 0.214984 0.600057 0.391459
O O4 0.000000 0.567525 0.250000
O O5 0.500000 0.716778 0.750000
O O6 0.703905 0.637814 0.708109
O O7 0.773254 0.764505 0.763291
O O8 0.611941 0.746929 0.588760
O O9 0.500000 0.556944 0.750000
O O10 0.721462 0.587539 0.895149
O O11 0.500000 0.355313 0.750000
O O12 0.418102 0.277041 0.607542
O O13 0.374592 0.311065 0.005272
O O14 0.096487 0.317347 0.021877
#
# Coordination Sequence:
#
# PCOD9302893 Si02
#       6
#     8   8   8   8   8   8
#     4  12  28  46  67  99 141 188 231 290 348 407
#     4  11  22  42  67  99 139 178 229 282 348 406
#     4  11  25  44  69 101 135 186 232 280 345 411
#     4  12  23  38  67 101 132 177 235 281 339 411
#     4  11  23  45  71 101 142 179 230 291 343 405
#     4  11  22  40  69 106 134 176 228 288 345 407
#
# _framework density 20.892544000000001
#
# number of rings (size 3 to 8) (size 9 to 14) (size 15 to 20)
#    0.000    0.667    5.000    4.500    0.000    4.667 
#    0.000    0.000    0.000    0.000    0.000    0.000 
#    0.000    0.000    0.000    0.000    0.000    0.000 
#
# Total GULP energy -134019.320474 kJ/mol
# GULP energy per Si atom -5584.138353 kJ/mol
# Density = 2.084499 g / cm^3
# Si number density = 20.892544 Si / 1000 Ang^3
#
#
#
# Elastic Constant Matrix: (Units=GPa)
#
#
# Indices 1 2 3 4 5 6 
#
# 1 145.7160 77.4226 28.8051 0.0000 1.4125 0.0000
# 2 77.4226 125.0610 29.0115 0.0000 -9.7617 0.0000
# 3 28.8051 29.0115 92.6651 0.0000 10.6488 0.0000
# 4 0.0000 0.0000 0.0000 28.3860 0.0000 -6.5798
# 5 1.4125 -9.7617 10.6488 0.0000 31.1310 0.0000
# 6 0.0000 0.0000 0.0000 -6.5798 0.0000 43.4785
#
#
#
# Elastic Compliance Matrix: (Units=1/GPa)
#
#
# Indices 1 2 3 4 5 6 
#
# 1 0.010502 -0.006437 -0.001002 0.000000 -0.002152 0.000000
# 2 -0.006437 0.013016 -0.002682 0.000000 0.005291 0.000000
# 3 -0.001002 -0.002682 0.012527 0.000000 -0.005081 0.000000
# 4 0.000000 0.000000 0.000000 0.036509 0.000000 0.005525
# 5 -0.002152 0.005291 -0.005081 0.000000 0.035617 0.000000
# 6 0.000000 0.000000 0.000000 0.005525 0.000000 0.023836
#
#
# Mechanical properties :
#
#
# Convention : Reuss Voigt Hill
#
# Bulk Modulus (GPa) = 63.28130 70.43562 66.85846
# Shear Modulus (GPa) = 31.74270 35.81262 33.77766
#
# Velocity S-wave (km/s) = 3.90209 4.14470 4.02522
# Velocity P-wave (km/s) = 7.11733 7.52936 7.32624
#
# Compressibility (1/GPa) = 0.01580246
#
# Stress axis : x y z
#
# Youngs Moduli (GPa) = 95.22273 76.82677 79.83030
#
# Poissons Ratio (x) = 0.49453 0.07998
# Poissons Ratio (y) = 0.61294 0.21412
# Poissons Ratio (z) = 0.09540 0.20607
#
# Static dielectric constant tensor:
#      x y z
#    x 1.767150 0.000000 0.020210 
#    y 0.000000 1.725800 0.000000 
#    z 0.020210 0.000000 1.840880 
# 
# From -- ./inp_files/79255.got.cif
#   From: 2010.05.17/outbox.cif.g08.bks.cpg/sg15_40_cif.got.tgz:79255.got - 2010.06.03 18:47:42.
