data_PCOD9302367
_publ_section_title
;
Structure prediction by ZEFSAII (Michael W. Deem and Ramdas Pophale) SiO2 
 PCOD9302367
Probable space group: C 2/C
;
_chemical_formula_sum "Si O2"
_cell_formula_units_Z 56
_cell_length_a 8.623251
_cell_length_b 17.486676
_cell_length_c 18.848837
_cell_angle_alpha 90.000000
_cell_angle_beta 112.067592
_cell_angle_gamma 90.000000
_cell_volume 2634.033901
_symmetry_space_group_name_H-M "C 2/C"
_symmetry_group_IT_number 15
_symmetry_cell_setting 'monoclinic'
loop_
_space_group_symop_operation_xyz
x,y,z
-x,y,1/2-z
-x,-y,-z
x,-y,1/2+z
1/2+x,1/2+y,z
1/2-x,1/2+y,1/2-z
1/2-x,1/2-y,-z
1/2+x,1/2-y,1/2+z
loop_
_atom_site_type_symbol
_atom_site_label
_atom_site_fract_x
_atom_site_fract_y
_atom_site_fract_z
Si Si1 0.830289 0.310390 0.179301
Si Si2 0.897112 0.683075 0.305700
Si Si3 0.838255 0.022250 0.517763
Si Si4 0.853693 0.326060 0.528893
Si Si5 0.630480 0.994137 0.707682
Si Si6 0.940181 0.604501 0.565614
Si Si7 0.553085 0.424226 0.184345
O O1 0.767767 0.232154 0.205205
O O2 0.872178 0.327173 0.104380
O O3 0.672301 0.365725 0.164363
O O4 0.000000 0.332259 0.250000
O O5 0.865008 0.593726 0.311987
O O6 0.000000 0.694496 0.250000
O O7 0.024235 0.701351 0.389320
O O8 0.756792 0.099266 0.471158
O O9 0.908006 0.044119 0.608367
O O10 0.703815 0.953109 0.488769
O O11 0.000000 0.000000 0.500000
O O12 0.750000 0.250000 0.500000
O O13 0.957236 0.356538 0.479429
O O14 0.500000 0.000614 0.750000
O O15 0.560966 0.050384 0.634690
O O16 0.815315 0.012420 0.767301
O O17 0.500000 0.387077 0.250000
#
# Coordination Sequence:
#
# PCOD9302367 Si02
#       7
#     8   8   8   8   8   8   8
#     4  12  25  47  74 104 144 192 241 293 366 428
#     4  11  28  47  72 105 151 189 234 297 371 431
#     4  12  25  46  75 111 143 185 248 298 361 439
#     4  12  29  49  72 107 149 196 239 304 374 425
#     4  11  21  47  74 105 141 192 240 295 358 427
#     4  12  24  49  78 102 147 194 246 299 361 442
#     4  12  24  40  75 108 141 184 247 294 357 436
#
# _framework density 21.260166999999999
#
# number of rings (size 3 to 8) (size 9 to 14) (size 15 to 20)
#    0.000    0.286    5.714    2.571    6.000    1.143 
#    0.000    0.000    0.000    0.000    0.000    0.000 
#    0.000    0.000    0.000    0.000    0.000    0.000 
#
# Total GULP energy -156377.451703 kJ/mol
# GULP energy per Si atom -5584.908989 kJ/mol
# Density = 2.121178 g / cm^3
# Si number density = 21.260167 Si / 1000 Ang^3
#
#
#
# Elastic Constant Matrix: (Units=GPa)
#
#
# Indices 1 2 3 4 5 6 
#
# 1 100.5516 40.9238 22.8956 0.0000 -10.5570 0.0000
# 2 40.9238 83.3751 14.5130 0.0000 -11.4624 0.0000
# 3 22.8956 14.5130 93.1100 0.0000 1.4608 0.0000
# 4 0.0000 0.0000 0.0000 28.0206 0.0000 11.2707
# 5 -10.5570 -11.4624 1.4608 0.0000 43.3974 0.0000
# 6 0.0000 0.0000 0.0000 11.2707 0.0000 30.8623
#
#
#
# Elastic Compliance Matrix: (Units=1/GPa)
#
#
# Indices 1 2 3 4 5 6 
#
# 1 0.012990 -0.005734 -0.002327 0.000000 0.001724 0.000000
# 2 -0.005734 0.015358 -0.001026 0.000000 0.002696 0.000000
# 3 -0.002327 -0.001026 0.011491 0.000000 -0.001224 0.000000
# 4 0.000000 0.000000 0.000000 0.041833 0.000000 -0.015277
# 5 0.001724 0.002696 -0.001224 0.000000 0.024216 0.000000
# 6 0.000000 0.000000 0.000000 -0.015277 0.000000 0.037981
#
#
# Mechanical properties :
#
#
# Convention : Reuss Voigt Hill
#
# Bulk Modulus (GPa) = 46.15950 48.18908 47.17429
# Shear Modulus (GPa) = 29.53958 33.70301 31.62130
#
# Velocity S-wave (km/s) = 3.73155 3.98586 3.86080
# Velocity P-wave (km/s) = 6.35019 6.62558 6.48934
#
# Compressibility (1/GPa) = 0.02166401
#
# Stress axis : x y z
#
# Youngs Moduli (GPa) = 76.98420 65.11427 87.02117
#
# Poissons Ratio (x) = 0.37335 0.20254
# Poissons Ratio (y) = 0.44141 0.08930
# Poissons Ratio (z) = 0.17918 0.06682
#
# Static dielectric constant tensor:
#      x y z
#    x 1.833640 0.000000 -0.073380 
#    y 0.000000 1.773120 0.000000 
#    z -0.073380 0.000000 1.680130 
# 
# From -- ./inp_files/191023.got.cif
#   From: 2010.05.17/outbox.cif.g08.bks.cpg/sg15_96_cif.got.tgz:191023.got - 2010.06.03 18:47:42.
