data_PCOD9302354
_publ_section_title
;
Structure prediction by ZEFSAII (Michael W. Deem and Ramdas Pophale) SiO2 
 PCOD9302354
Probable space group: C 2/C
;
_chemical_formula_sum "Si O2"
_cell_formula_units_Z 64
_cell_length_a 12.936694
_cell_length_b 11.857067
_cell_length_c 24.226815
_cell_angle_alpha 90.000000
_cell_angle_beta 134.842645
_cell_angle_gamma 90.000000
_cell_volume 2634.943852
_symmetry_space_group_name_H-M "C 2/C"
_symmetry_group_IT_number 15
_symmetry_cell_setting 'monoclinic'
loop_
_space_group_symop_operation_xyz
x,y,z
-x,y,1/2-z
-x,-y,-z
x,-y,1/2+z
1/2+x,1/2+y,z
1/2-x,1/2+y,1/2-z
1/2-x,1/2-y,-z
1/2+x,1/2-y,1/2+z
loop_
_atom_site_type_symbol
_atom_site_label
_atom_site_fract_x
_atom_site_fract_y
_atom_site_fract_z
Si Si1 0.149253 0.279245 0.409440
Si Si2 0.360768 0.959005 0.585951
Si Si3 0.675393 0.393582 0.821900
Si Si4 0.801915 0.594682 0.939497
Si Si5 0.068990 0.117981 0.124142
Si Si6 0.655908 0.166698 0.226586
Si Si7 0.486218 0.371921 0.359763
Si Si8 0.066486 0.827480 0.508717
O O1 0.250000 0.250000 0.500000
O O2 0.143776 0.411646 0.397289
O O3 0.194118 0.207707 0.372875
O O4 0.994134 0.226431 0.368977
O O5 0.363123 0.957819 0.519583
O O6 0.503143 0.896528 0.662695
O O7 0.215496 0.891168 0.547946
O O8 0.500000 0.414312 0.750000
O O9 0.760913 0.500621 0.879666
O O10 0.748718 0.362446 0.791604
O O11 0.647370 0.649894 0.898323
O O12 0.903736 0.698782 0.961873
O O13 0.242847 0.127288 0.185344
O O14 0.002084 0.111819 0.037933
O O15 0.030703 0.005176 0.142330
O O16 0.625281 0.300048 0.217797
O O17 0.474933 0.327986 0.418298
#
# Coordination Sequence:
#
# PCOD9302354 Si02
#       8
#     8   8   8   8   8   8   8   8
#     4  12  25  46  71 100 136 174 233 281 335 411
#     4  11  24  45  69 102 136 174 224 290 330 405
#     4  12  26  46  67  99 138 185 220 283 355 401
#     4  11  21  46  72  98 133 174 232 276 335 401
#     4  12  28  43  66 104 135 184 223 278 348 405
#     4  12  27  44  68 100 139 177 228 282 342 402
#     4  11  22  47  70  93 138 179 222 280 328 410
#     4  11  24  44  71 101 133 176 233 270 342 398
#
# _framework density 24.288943
#
# number of rings (size 3 to 8) (size 9 to 14) (size 15 to 20)
#    0.000    0.500    6.250    1.875    7.000    2.000 
#    0.000    0.000    0.000    0.000    0.000    0.000 
#    0.000    0.000    0.000    0.000    0.000    0.000 
#
# Total GULP energy -179304.375749 kJ/mol
# GULP energy per Si atom -5603.261742 kJ/mol
# Density = 2.423366 g / cm^3
# Si number density = 24.288943 Si / 1000 Ang^3
#
#
#
# Elastic Constant Matrix: (Units=GPa)
#
#
# Indices 1 2 3 4 5 6 
#
# 1 48.3434 4.4727 0.6588 0.0000 -0.8651 0.0000
# 2 4.4727 144.0058 16.4413 0.0000 1.1404 0.0000
# 3 0.6588 16.4413 71.9059 0.0000 7.4439 0.0000
# 4 0.0000 0.0000 0.0000 29.8250 0.0000 5.9091
# 5 -0.8651 1.1404 7.4439 0.0000 37.7557 0.0000
# 6 0.0000 0.0000 0.0000 5.9091 0.0000 15.6822
#
#
#
# Elastic Compliance Matrix: (Units=1/GPa)
#
#
# Indices 1 2 3 4 5 6 
#
# 1 0.020755 -0.000638 -0.000098 0.000000 0.000514 0.000000
# 2 -0.000638 0.007150 -0.001639 0.000000 0.000092 0.000000
# 3 -0.000098 -0.001639 0.014575 0.000000 -0.002826 0.000000
# 4 0.000000 0.000000 0.000000 0.036234 0.000000 -0.013653
# 5 0.000514 0.000092 -0.002826 0.000000 0.027052 0.000000
# 6 0.000000 0.000000 0.000000 -0.013653 0.000000 0.068911
#
#
# Mechanical properties :
#
#
# Convention : Reuss Voigt Hill
#
# Bulk Modulus (GPa) = 26.50215 34.15562 30.32888
# Shear Modulus (GPa) = 26.04127 32.83140 29.43633
#
# Velocity S-wave (km/s) = 3.27791 3.68054 3.48505
# Velocity P-wave (km/s) = 5.02605 5.67050 5.35797
#
# Compressibility (1/GPa) = 0.03773279
#
# Stress axis : x y z
#
# Youngs Moduli (GPa) = 48.18150 139.85384 68.60954
#
# Poissons Ratio (x) = 0.08916 0.00670
# Poissons Ratio (y) = 0.03072 0.11243
# Poissons Ratio (z) = 0.00470 0.22917
#
# Static dielectric constant tensor:
#      x y z
#    x 1.928160 0.000000 0.006560 
#    y 0.000000 1.899110 0.000000 
#    z 0.006560 0.000000 1.946660 
# 
# From -- ./inp_files/296153.got.cif
#   From: 2010.05.17/outbox.cif.g08.bks.cpg/sg15_149_cif.got.tgz:296153.got - 2010.06.03 18:47:42.
