data_PCOD9302835
_publ_section_title
;
Structure prediction by ZEFSAII (Michael W. Deem and Ramdas Pophale) SiO2 
 PCOD9302835
Probable space group: C 2/C
;
_chemical_formula_sum "Si O2"
_cell_formula_units_Z 64
_cell_length_a 9.746702
_cell_length_b 26.970050
_cell_length_c 12.205566
_cell_angle_alpha 90.000000
_cell_angle_beta 89.874136
_cell_angle_gamma 90.000000
_cell_volume 3208.457679
_symmetry_space_group_name_H-M "C 2/C"
_symmetry_group_IT_number 15
_symmetry_cell_setting 'monoclinic'
loop_
_space_group_symop_operation_xyz
x,y,z
-x,y,1/2-z
-x,-y,-z
x,-y,1/2+z
1/2+x,1/2+y,z
1/2-x,1/2+y,1/2-z
1/2-x,1/2-y,-z
1/2+x,1/2-y,1/2+z
loop_
_atom_site_type_symbol
_atom_site_label
_atom_site_fract_x
_atom_site_fract_y
_atom_site_fract_z
Si Si1 0.724699 0.863058 0.479408
Si Si2 0.502817 0.206766 0.620938
Si Si3 0.021050 0.175755 0.378201
Si Si4 0.838119 0.553127 0.054562
Si Si5 0.244483 0.846611 0.468522
Si Si6 0.339763 0.485764 0.773298
Si Si7 0.129780 0.539318 0.098812
Si Si8 0.161868 0.099311 0.744991
O O1 0.606157 0.823225 0.453035
O O2 0.659104 0.915687 0.514864
O O3 0.796252 0.871295 0.362532
O O4 0.841424 0.846666 0.566391
O O5 0.500000 0.189677 0.750000
O O6 0.466164 0.264609 0.622205
O O7 0.652752 0.197348 0.566989
O O8 0.887877 0.164404 0.455410
O O9 0.000000 0.159870 0.250000
O O10 0.696508 0.536476 0.109465
O O11 0.970398 0.543742 0.129753
O O12 0.830904 0.610548 0.028144
O O13 0.856687 0.515176 0.954573
O O14 0.204768 0.873029 0.354685
O O15 0.500000 0.482795 0.750000
O O16 0.247356 0.456066 0.688195
O O17 0.288963 0.542597 0.766269
O O18 0.000000 0.095194 0.750000
#
# Coordination Sequence:
#
# PCOD9302835 Si02
#       8
#     8   8   8   8   8   8   8   8
#     4  12  23  43  71  98 134 175 224 274 340 394
#     4  11  24  46  73 102 130 170 227 290 339 400
#     4  11  28  47  68  97 137 175 225 283 346 400
#     4  11  24  40  61  94 135 174 215 270 329 401
#     4  12  23  43  71  98 134 175 224 274 340 394
#     4  11  25  39  61  92 135 178 226 261 327 390
#     4  11  24  40  61  94 135 174 215 270 329 401
#     4  11  22  40  66 105 130 175 221 280 320 393
#
# _framework density 19.947278000000001
#
# number of rings (size 3 to 8) (size 9 to 14) (size 15 to 20)
#    0.000    0.750    6.250    1.125    3.500    0.500 
#    2.250    0.625    0.000    0.000    0.000    0.000 
#    0.000    0.000    0.000    0.000    0.000    0.000 
#
# Total GULP energy -178585.267335 kJ/mol
# GULP energy per Si atom -5580.789604 kJ/mol
# Density = 1.990188 g / cm^3
# Si number density = 19.947278 Si / 1000 Ang^3
#
#
#
# Elastic Constant Matrix: (Units=GPa)
#
#
# Indices 1 2 3 4 5 6 
#
# 1 94.1070 10.9302 31.3647 0.0000 -0.0826 0.0000
# 2 10.9302 50.9675 3.1646 0.0000 -1.6885 0.0000
# 3 31.3647 3.1646 77.9118 0.0000 -0.4075 0.0000
# 4 0.0000 0.0000 0.0000 31.3807 0.0000 0.6943
# 5 -0.0826 -1.6885 -0.4075 0.0000 32.2636 0.0000
# 6 0.0000 0.0000 0.0000 0.6943 0.0000 25.3372
#
#
#
# Elastic Compliance Matrix: (Units=1/GPa)
#
#
# Indices 1 2 3 4 5 6 
#
# 1 0.012556 -0.002390 -0.004958 0.000000 -0.000156 0.000000
# 2 -0.002390 0.020158 0.000149 0.000000 0.001051 0.000000
# 3 -0.004958 0.000149 0.014826 0.000000 0.000182 0.000000
# 4 0.000000 0.000000 0.000000 0.031886 0.000000 -0.000874
# 5 -0.000156 0.001051 0.000182 0.000000 0.031052 0.000000
# 6 0.000000 0.000000 0.000000 -0.000874 0.000000 0.039492
#
#
# Mechanical properties :
#
#
# Convention : Reuss Voigt Hill
#
# Bulk Modulus (GPa) = 30.17365 34.87836 32.52600
# Shear Modulus (GPa) = 28.50360 29.63143 29.06751
#
# Velocity S-wave (km/s) = 3.78424 3.85838 3.82149
# Velocity P-wave (km/s) = 5.85265 6.11332 5.98441
#
# Compressibility (1/GPa) = 0.03314150
#
# Stress axis : x y z
#
# Youngs Moduli (GPa) = 79.64155 49.60695 67.44880
#
# Poissons Ratio (x) = 0.11856 0.33444
# Poissons Ratio (y) = 0.19035 -0.01004
# Poissons Ratio (z) = 0.39490 -0.00738
#
# Static dielectric constant tensor:
#      x y z
#    x 1.695310 0.000000 0.024020 
#    y 0.000000 1.700900 0.000000 
#    z 0.024020 0.000000 1.644130 
# 
# From -- ./inp_files/82621.got.cif
#   From: 2010.05.17/outbox.cif.g08.bks.cpg/sg15_42_cif.got.tgz:82621.got - 2010.06.03 18:47:42.
