data_PCOD9302792
_publ_section_title
;
Structure prediction by ZEFSAII (Michael W. Deem and Ramdas Pophale) SiO2 
 PCOD9302792
Probable space group: C 2/C
;
_chemical_formula_sum "Si O2"
_cell_formula_units_Z 32
_cell_length_a 15.469456
_cell_length_b 10.071427
_cell_length_c 8.291844
_cell_angle_alpha 90.000000
_cell_angle_beta 88.422257
_cell_angle_gamma 90.000000
_cell_volume 1291.375359
_symmetry_space_group_name_H-M "C 2/C"
_symmetry_group_IT_number 15
_symmetry_cell_setting 'monoclinic'
loop_
_space_group_symop_operation_xyz
x,y,z
-x,y,1/2-z
-x,-y,-z
x,-y,1/2+z
1/2+x,1/2+y,z
1/2-x,1/2+y,1/2-z
1/2-x,1/2-y,-z
1/2+x,1/2-y,1/2+z
loop_
_atom_site_type_symbol
_atom_site_label
_atom_site_fract_x
_atom_site_fract_y
_atom_site_fract_z
Si Si1 0.199594 0.427203 0.412683
Si Si2 0.568070 0.616521 0.037070
Si Si3 0.580274 0.896791 0.142912
Si Si4 0.322271 0.553798 0.171989
O O1 0.150130 0.347251 0.275256
O O2 0.128904 0.495310 0.531788
O O3 0.244680 0.540320 0.301706
O O4 0.280553 0.376652 0.517179
O O5 0.546685 0.772122 0.038938
O O6 0.598997 0.593535 0.218530
O O7 0.500000 0.500000 0.000000
O O8 0.645821 0.586202 0.907611
O O9 0.500000 0.950749 0.250000
#
# Coordination Sequence:
#
# PCOD9302792 Si02
#       4
#     8   8   8   8
#     4   9  21  39  61  91 123 166 212 261 315 370
#     4  11  22  40  63  92 128 169 212 261 320 379
#     4  11  22  40  64  91 129 166 210 264 318 381
#     4   9  20  39  61  90 126 160 216 261 309 377
#
# _framework density 24.779782000000001
#
# number of rings (size 3 to 8) (size 9 to 14) (size 15 to 20)
#    0.000    2.000    0.000    3.000    0.000   10.000 
#    0.000   22.500    0.000    0.000    0.000    0.000 
#    0.000    0.000    0.000    0.000    0.000    0.000 
#
# Total GULP energy -89078.267573 kJ/mol
# GULP energy per Si atom -5567.391723 kJ/mol
# Density = 2.472338 g / cm^3
# Si number density = 24.779782 Si / 1000 Ang^3
#
#
#
# Elastic Constant Matrix: (Units=GPa)
#
#
# Indices 1 2 3 4 5 6 
#
# 1 90.3985 21.7638 20.0624 0.0000 5.4726 0.0000
# 2 21.7638 63.3634 25.2662 0.0000 13.2124 0.0000
# 3 20.0624 25.2662 92.2543 0.0000 15.7541 0.0000
# 4 0.0000 0.0000 0.0000 17.6236 0.0000 4.5801
# 5 5.4726 13.2124 15.7541 0.0000 81.3660 0.0000
# 6 0.0000 0.0000 0.0000 4.5801 0.0000 6.0685
#
#
#
# Elastic Compliance Matrix: (Units=1/GPa)
#
#
# Indices 1 2 3 4 5 6 
#
# 1 0.012294 -0.003557 -0.001714 0.000000 0.000082 0.000000
# 2 -0.003557 0.019067 -0.004096 0.000000 -0.002064 0.000000
# 3 -0.001714 -0.004096 0.012618 0.000000 -0.001663 0.000000
# 4 0.000000 0.000000 0.000000 0.070587 0.000000 -0.053274
# 5 0.000082 -0.002064 -0.001663 0.000000 0.012942 0.000000
# 6 0.000000 0.000000 0.000000 -0.053274 0.000000 0.204992
#
#
# Mechanical properties :
#
#
# Convention : Reuss Voigt Hill
#
# Bulk Modulus (GPa) = 39.60938 42.24455 40.92697
# Shear Modulus (GPa) = 13.90249 32.93988 23.42119
#
# Velocity S-wave (km/s) = 2.37120 3.64992 3.07770
# Velocity P-wave (km/s) = 4.84934 5.90318 5.40202
#
# Compressibility (1/GPa) = 0.02524654
#
# Stress axis : x y z
#
# Youngs Moduli (GPa) = 81.34262 52.44590 79.25174
#
# Poissons Ratio (x) = 0.18652 0.13580
# Poissons Ratio (y) = 0.28930 0.32463
# Poissons Ratio (z) = 0.13938 0.21483
#
# Static dielectric constant tensor:
#      x y z
#    x 2.086370 0.000000 0.052590 
#    y 0.000000 2.062890 0.000000 
#    z 0.052590 0.000000 1.945330 
# 
# From -- ./inp_files/36565.got.cif
#   From: 2010.05.17/outbox.cif.g08.bks.cpg/sg15_19_cif.got.tgz:36565.got - 2010.06.03 18:47:42.
