data_PCOD9302013
_publ_section_title
;
Structure prediction by ZEFSAII (Michael W. Deem and Ramdas Pophale) SiO2 
 PCOD9302013
Probable space group: C 2/C
;
_chemical_formula_sum "Si O2"
_cell_formula_units_Z 48
_cell_length_a 16.347662
_cell_length_b 9.996445
_cell_length_c 15.356815
_cell_angle_alpha 90.000000
_cell_angle_beta 108.968245
_cell_angle_gamma 90.000000
_cell_volume 2373.314284
_symmetry_space_group_name_H-M "C 2/C"
_symmetry_group_IT_number 15
_symmetry_cell_setting 'monoclinic'
loop_
_space_group_symop_operation_xyz
x,y,z
-x,y,1/2-z
-x,-y,-z
x,-y,1/2+z
1/2+x,1/2+y,z
1/2-x,1/2+y,1/2-z
1/2-x,1/2-y,-z
1/2+x,1/2-y,1/2+z
loop_
_atom_site_type_symbol
_atom_site_label
_atom_site_fract_x
_atom_site_fract_y
_atom_site_fract_z
Si Si1 0.491707 0.130819 0.939715
Si Si2 0.803532 0.827547 0.760773
Si Si3 0.078922 0.098632 0.038188
Si Si4 0.325207 0.180109 0.585806
Si Si5 0.811357 0.438619 0.335903
Si Si6 0.252210 0.086244 0.007924
O O1 0.456144 0.251497 0.986577
O O2 0.580449 0.176529 0.926373
O O3 0.411258 0.092683 0.849198
O O4 0.500000 0.000000 0.000000
O O5 0.876708 0.890547 0.850048
O O6 0.830406 0.767246 0.676231
O O7 0.764641 0.699518 0.796495
O O8 0.730302 0.936605 0.723660
O O9 0.152314 0.058882 0.995049
O O10 0.000000 0.000000 0.000000
O O11 0.250000 0.250000 0.500000
O O12 0.299300 0.021938 0.588808
O O13 0.794368 0.458446 0.431972
O O14 0.250000 0.250000 0.000000
#
# Coordination Sequence:
#
# PCOD9302013 Si02
#       6
#     8   8   8   8   8   8
#     4  11  21  41  66  97 130 175 227 278 333 415
#     4  11  24  43  66 101 134 178 229 288 342 415
#     4  11  25  42  68  95 133 173 227 281 347 410
#     4  12  23  41  72  97 135 181 226 277 348 410
#     4  11  24  42  67  98 138 174 233 284 347 420
#     4  12  21  44  66  98 133 183 217 280 350 416
#
# _framework density 20.224882000000001
#
# number of rings (size 3 to 8) (size 9 to 14) (size 15 to 20)
#    0.000    0.667    6.667    2.000    0.000    4.000 
#    0.000    0.000    0.000    0.000    0.000    0.000 
#    0.000    0.000    0.000    0.000    0.000    0.000 
#
# Total GULP energy -133657.336975 kJ/mol
# GULP energy per Si atom -5569.055707 kJ/mol
# Density = 2.017885 g / cm^3
# Si number density = 20.224882 Si / 1000 Ang^3
#
#
#
# Elastic Constant Matrix: (Units=GPa)
#
#
# Indices 1 2 3 4 5 6 
#
# 1 150.2067 32.0943 31.7253 0.0000 3.6717 0.0000
# 2 32.0943 118.8993 34.9016 0.0000 28.8266 0.0000
# 3 31.7253 34.9016 82.2140 0.0000 -4.0800 0.0000
# 4 0.0000 0.0000 0.0000 41.5883 0.0000 10.0103
# 5 3.6717 28.8266 -4.0800 0.0000 23.6873 0.0000
# 6 0.0000 0.0000 0.0000 10.0103 0.0000 38.8395
#
#
#
# Elastic Compliance Matrix: (Units=1/GPa)
#
#
# Indices 1 2 3 4 5 6 
#
# 1 0.007428 -0.001363 -0.002282 0.000000 0.000114 0.000000
# 2 -0.001363 0.015797 -0.007185 0.000000 -0.020251 0.000000
# 3 -0.002282 -0.007185 0.016689 0.000000 0.011973 0.000000
# 4 0.000000 0.000000 0.000000 0.025636 0.000000 -0.006607
# 5 0.000114 -0.020251 0.011973 0.000000 0.068906 0.000000
# 6 0.000000 0.000000 0.000000 -0.006607 0.000000 0.027450
#
#
# Mechanical properties :
#
#
# Convention : Reuss Voigt Hill
#
# Bulk Modulus (GPa) = 54.78513 60.97361 57.87937
# Shear Modulus (GPa) = 26.36428 37.66293 32.01361
#
# Velocity S-wave (km/s) = 3.61440 4.32001 3.98286
# Velocity P-wave (km/s) = 6.67572 7.42271 7.05910
#
# Compressibility (1/GPa) = 0.01825313
#
# Stress axis : x y z
#
# Youngs Moduli (GPa) = 134.62761 63.30185 59.92110
#
# Poissons Ratio (x) = 0.08626 0.13675
# Poissons Ratio (y) = 0.18346 0.43056
# Poissons Ratio (z) = 0.30725 0.45485
#
# Static dielectric constant tensor:
#      x y z
#    x 1.720270 0.000000 0.013260 
#    y 0.000000 1.773000 0.000000 
#    z 0.013260 0.000000 1.847530 
# 
# From -- ./inp_files/152174.got.cif
#   From: 2010.05.17/outbox.cif.g08.bks.cpg/sg15_77_cif.got.tgz:152174.got - 2010.06.03 18:47:42.
