data_PCOD9302708
_publ_section_title
;
Structure prediction by ZEFSAII (Michael W. Deem and Ramdas Pophale) SiO2 
 PCOD9302708
Probable space group: C 2/C
;
_chemical_formula_sum "Si O2"
_cell_formula_units_Z 48
_cell_length_a 14.643306
_cell_length_b 9.848995
_cell_length_c 13.759177
_cell_angle_alpha 90.000000
_cell_angle_beta 81.649978
_cell_angle_gamma 90.000000
_cell_volume 1963.338338
_symmetry_space_group_name_H-M "C 2/C"
_symmetry_group_IT_number 15
_symmetry_cell_setting 'monoclinic'
loop_
_space_group_symop_operation_xyz
x,y,z
-x,y,1/2-z
-x,-y,-z
x,-y,1/2+z
1/2+x,1/2+y,z
1/2-x,1/2+y,1/2-z
1/2-x,1/2-y,-z
1/2+x,1/2-y,1/2+z
loop_
_atom_site_type_symbol
_atom_site_label
_atom_site_fract_x
_atom_site_fract_y
_atom_site_fract_z
Si Si1 0.853343 0.356318 0.401140
Si Si2 0.434385 0.503683 0.161924
Si Si3 0.331074 0.269628 0.410803
Si Si4 0.781639 0.064605 0.415605
Si Si5 0.715243 0.055640 0.232549
Si Si6 0.997425 0.227919 0.505399
O O1 0.833760 0.200383 0.377578
O O2 0.764653 0.411173 0.474043
O O3 0.853088 0.450238 0.308270
O O4 0.936954 0.340608 0.461756
O O5 0.500000 0.498530 0.250000
O O6 0.324749 0.521161 0.201688
O O7 0.463742 0.628594 0.086252
O O8 0.445363 0.369386 0.091811
O O9 0.250000 0.250000 0.500000
O O10 0.343455 0.431274 0.405495
O O11 0.304905 0.200284 0.314055
O O12 0.420770 0.206924 0.445164
O O13 0.701935 0.047886 0.348931
#
# Coordination Sequence:
#
# PCOD9302708 Si02
#       6
#     8   8   8   8   8   8
#     4  11  23  42  68  96 133 173 213 274 322 383
#     4  11  22  39  66  98 126 169 224 272 313 380
#     4  12  23  44  66  93 132 176 212 270 329 385
#     4  11  23  42  68  98 129 174 220 264 329 389
#     4  12  24  43  69  97 132 174 217 266 331 390
#     4  11  23  40  64  95 133 168 221 268 322 387
#
# _framework density 24.448156000000001
#
# number of rings (size 3 to 8) (size 9 to 14) (size 15 to 20)
#    0.000    0.667    3.333    7.000    0.000    2.000 
#    0.000    0.000    0.000    0.000    0.000    0.000 
#    0.000    0.000    0.000    0.000    0.000    0.000 
#
# Total GULP energy -134333.106199 kJ/mol
# GULP energy per Si atom -5597.212758 kJ/mol
# Density = 2.439251 g / cm^3
# Si number density = 24.448156 Si / 1000 Ang^3
#
#
#
# Elastic Constant Matrix: (Units=GPa)
#
#
# Indices 1 2 3 4 5 6 
#
# 1 104.3805 22.0826 24.1327 0.0000 35.4996 0.0000
# 2 22.0826 77.3271 15.0817 0.0000 14.7415 0.0000
# 3 24.1327 15.0817 105.6858 0.0000 32.7552 0.0000
# 4 0.0000 0.0000 0.0000 17.9885 0.0000 33.9141
# 5 35.4996 14.7415 32.7552 0.0000 45.8568 0.0000
# 6 0.0000 0.0000 0.0000 33.9141 0.0000 22.0070
#
#
#
# Elastic Compliance Matrix: (Units=1/GPa)
#
#
# Indices 1 2 3 4 5 6 
#
# 1 0.013283 -0.001972 0.000307 0.000000 -0.009868 0.000000
# 2 -0.001972 0.014117 -0.000810 0.000000 -0.002433 0.000000
# 3 0.000307 -0.000810 0.012202 0.000000 -0.008693 0.000000
# 4 0.000000 0.000000 0.000000 -0.029176 0.000000 0.044961
# 5 -0.009868 -0.002433 -0.008693 0.000000 0.036437 0.000000
# 6 0.000000 0.000000 0.000000 0.044961 0.000000 -0.023848
#
#
# Mechanical properties :
#
#
# Convention : Reuss Voigt Hill
#
# Bulk Modulus (GPa) = 28.85945 45.55414 37.20679
# Shear Modulus (GPa) = 126.53222 32.24355 79.38788
#
# Velocity S-wave (km/s) = 7.20192 3.63554 5.70460
# Velocity P-wave (km/s) = 8.99927 6.02464 7.65778
#
# Compressibility (1/GPa) = 0.03465070
#
# Stress axis : x y z
#
# Youngs Moduli (GPa) = 75.28645 70.83648 81.95593
#
# Poissons Ratio (x) = 0.13967 -0.02514
# Poissons Ratio (y) = 0.14845 0.06640
# Poissons Ratio (z) = -0.02309 0.05739
#
# Static dielectric constant tensor:
#      x y z
#    x 1.979190 0.000000 0.014050 
#    y 0.000000 1.974610 0.000000 
#    z 0.014050 0.000000 1.956400 
# 
# From -- ./inp_files/159727.got.cif
#   From: 2010.05.17/outbox.cif.g08.bks.cpg/sg15_80_cif.got.tgz:159727.got - 2010.06.03 18:47:42.
