data_PCOD9302123
_publ_section_title
;
Structure prediction by ZEFSAII (Michael W. Deem and Ramdas Pophale) SiO2 
 PCOD9302123
Probable space group: C 2/C
;
_chemical_formula_sum "Si O2"
_cell_formula_units_Z 48
_cell_length_a 26.279627
_cell_length_b 10.011112
_cell_length_c 14.296224
_cell_angle_alpha 90.000000
_cell_angle_beta 31.285731
_cell_angle_gamma 90.000000
_cell_volume 1953.198818
_symmetry_space_group_name_H-M "C 2/C"
_symmetry_group_IT_number 15
_symmetry_cell_setting 'monoclinic'
loop_
_space_group_symop_operation_xyz
x,y,z
-x,y,1/2-z
-x,-y,-z
x,-y,1/2+z
1/2+x,1/2+y,z
1/2-x,1/2+y,1/2-z
1/2-x,1/2-y,-z
1/2+x,1/2-y,1/2+z
loop_
_atom_site_type_symbol
_atom_site_label
_atom_site_fract_x
_atom_site_fract_y
_atom_site_fract_z
Si Si1 0.057098 0.295003 0.974448
Si Si2 0.782236 0.846404 0.032660
Si Si3 0.868264 0.515791 0.514516
Si Si4 0.811417 0.610924 0.398373
Si Si5 0.603923 0.740923 0.410465
Si Si6 0.359123 0.461054 0.074968
O O1 0.073112 0.386186 0.040708
O O2 0.106979 0.370768 0.809413
O O3 0.111346 0.154315 0.900161
O O4 0.949114 0.262144 0.105979
O O5 0.718025 0.770313 0.212876
O O6 0.875713 0.892701 0.947292
O O7 0.753505 0.990672 0.038099
O O8 0.750000 0.750000 0.000000
O O9 0.853951 0.556591 0.429470
O O10 0.921937 0.640728 0.478676
O O11 0.756542 0.503173 0.730187
O O12 0.750000 0.750000 0.500000
O O13 0.586539 0.597708 0.483760
#
# Coordination Sequence:
#
# PCOD9302123 Si02
#       6
#     8   8   8   8   8   8
#     4  12  24  42  67  99 134 172 215 284 336 383
#     4  11  24  42  70  96 131 178 227 269 324 407
#     4  11  22  42  68  92 129 175 227 262 327 400
#     4  12  23  40  69 100 127 173 232 270 324 407
#     4  11  24  43  65  97 135 171 215 279 342 381
#     4  11  21  42  67  93 133 178 219 264 330 403
#
# _framework density 24.575071999999999
#
# number of rings (size 3 to 8) (size 9 to 14) (size 15 to 20)
#    0.000    0.667    5.000    6.000    0.000    0.667 
#    0.000    2.500    0.000    0.000    0.000    0.000 
#    0.000    0.000    0.000    0.000    0.000    0.000 
#
# Total GULP energy -133890.063676 kJ/mol
# GULP energy per Si atom -5578.752653 kJ/mol
# Density = 2.451914 g / cm^3
# Si number density = 24.575072 Si / 1000 Ang^3
#
#
#
# Elastic Constant Matrix: (Units=GPa)
#
#
# Indices 1 2 3 4 5 6 
#
# 1 156.0701 84.3443 12.1669 0.0000 -2.7517 0.0000
# 2 84.3443 198.7506 4.9644 0.0000 13.4300 0.0000
# 3 12.1669 4.9644 30.2567 0.0000 2.6125 0.0000
# 4 0.0000 0.0000 0.0000 -0.6621 0.0000 11.6198
# 5 -2.7517 13.4300 2.6125 0.0000 28.0270 0.0000
# 6 0.0000 0.0000 0.0000 11.6198 0.0000 51.6974
#
#
#
# Elastic Compliance Matrix: (Units=1/GPa)
#
#
# Indices 1 2 3 4 5 6 
#
# 1 0.008790 -0.003854 -0.003162 0.000000 0.003005 0.000000
# 2 -0.003854 0.006902 0.000742 0.000000 -0.003755 0.000000
# 3 -0.003162 0.000742 0.034536 0.000000 -0.003885 0.000000
# 4 0.000000 0.000000 0.000000 -0.305448 0.000000 0.068654
# 5 0.003005 -0.003755 -0.003885 0.000000 0.038136 0.000000
# 6 0.000000 0.000000 0.000000 0.068654 0.000000 0.003912
#
#
# Mechanical properties :
#
#
# Convention : Reuss Voigt Hill
#
# Bulk Modulus (GPa) = 26.53983 65.33651 45.93817
# Shear Modulus (GPa) = -26.58673 34.71924 4.06626
#
# Velocity S-wave (km/s) = -3.29273 3.76278 1.28772
# Velocity P-wave (km/s) = 1.90608 6.74702 4.57652
#
# Compressibility (1/GPa) = 0.03767922
#
# Stress axis : x y z
#
# Youngs Moduli (GPa) = 113.76935 144.88050 28.95562
#
# Poissons Ratio (x) = 0.55839 0.09155
# Poissons Ratio (y) = 0.43849 -0.02147
# Poissons Ratio (z) = 0.35969 -0.10744
#
# Static dielectric constant tensor:
#      x y z
#    x 1.998100 0.000000 -0.003440 
#    y 0.000000 1.957600 0.000000 
#    z -0.003440 0.000000 2.113050 
# 
# From -- ./inp_files/176899.got.cif
#   From: 2010.05.17/outbox.cif.g08.bks.cpg/sg15_89_cif.got.tgz:176899.got - 2010.06.03 18:47:42.
