data_PCOD9302482
_publ_section_title
;
Structure prediction by ZEFSAII (Michael W. Deem and Ramdas Pophale) SiO2 
 PCOD9302482
Probable space group: C 2/C
;
_chemical_formula_sum "Si O2"
_cell_formula_units_Z 60
_cell_length_a 25.856451
_cell_length_b 8.406958
_cell_length_c 21.273108
_cell_angle_alpha 90.000000
_cell_angle_beta 145.359981
_cell_angle_gamma 90.000000
_cell_volume 2628.493876
_symmetry_space_group_name_H-M "C 2/C"
_symmetry_group_IT_number 15
_symmetry_cell_setting 'monoclinic'
loop_
_space_group_symop_operation_xyz
x,y,z
-x,y,1/2-z
-x,-y,-z
x,-y,1/2+z
1/2+x,1/2+y,z
1/2-x,1/2+y,1/2-z
1/2-x,1/2-y,-z
1/2+x,1/2-y,1/2+z
loop_
_atom_site_type_symbol
_atom_site_label
_atom_site_fract_x
_atom_site_fract_y
_atom_site_fract_z
Si Si1 0.074123 0.483477 0.519515
Si Si2 0.150881 0.319766 0.708506
Si Si3 0.500000 0.250000 0.250000
Si Si4 0.359750 0.503652 0.542963
Si Si5 0.000000 0.750000 0.659221
Si Si6 0.859749 0.503652 0.176536
Si Si7 0.925877 0.983477 0.871269
Si Si8 0.849119 0.819766 0.906745
O O1 0.146483 0.385359 0.633329
O O2 0.091419 0.665590 0.520414
O O3 0.000000 0.500000 0.500000
O O4 0.046096 0.381615 0.431993
O O5 0.138216 0.458341 0.746612
O O6 0.250000 0.252479 0.819418
O O7 0.091419 0.165589 0.662424
O O8 0.572888 0.363509 0.359404
O O9 0.427112 0.136491 0.213628
O O10 0.416836 0.341693 0.609682
O O11 0.250000 0.504598 0.451127
O O12 0.361783 0.541658 0.470179
O O13 0.083165 0.658307 0.776011
O O14 0.046096 0.881615 0.660199
O O15 0.853517 0.885359 0.840362
O O16 0.000000 0.000000 0.000000
#
# Coordination Sequence:
#
# PCOD9302482 Si02
#       8
#     8   8   4   8   8   8   8   8
#     4  12  20  35  60  94 138 182 219 257 325 398
#     4  11  22  37  60  92 131 175 227 273 324 402
#     4  12  26  52  80  94 132 172 230 304 376 410
#     4  11  26  47  72 103 133 175 234 290 351 417
#     4  12  24  40  70  96 146 178 224 274 334 402
#     4  11  26  47  72 103 133 175 234 290 351 417
#     4  12  20  35  60  94 138 182 219 257 325 398
#     4  11  22  37  60  92 131 175 227 273 324 402
#
# _framework density 22.826761000000001
#
# number of rings (size 3 to 8) (size 9 to 14) (size 15 to 20)
#    0.000    0.533    5.333    2.800    0.000    4.800 
#    0.000    4.000    0.000    0.000    0.000    0.000 
#    0.000    0.000    0.000    0.000    0.000    0.000 
#
# Total GULP energy -167200.447113 kJ/mol
# GULP energy per Si atom -5573.348237 kJ/mol
# Density = 2.277481 g / cm^3
# Si number density = 22.826761 Si / 1000 Ang^3
#
#
#
# Elastic Constant Matrix: (Units=GPa)
#
#
# Indices 1 2 3 4 5 6 
#
# 1 76.2191 42.1258 56.2414 0.0000 13.3979 0.0000
# 2 42.1258 133.3345 62.8006 0.0000 16.3202 0.0000
# 3 56.2414 62.8006 136.2809 0.0000 34.0130 0.0000
# 4 0.0000 0.0000 0.0000 37.5887 0.0000 2.1691
# 5 13.3979 16.3202 34.0130 0.0000 34.7478 0.0000
# 6 0.0000 0.0000 0.0000 2.1691 0.0000 34.8409
#
#
#
# Elastic Compliance Matrix: (Units=1/GPa)
#
#
# Indices 1 2 3 4 5 6 
#
# 1 0.019813 -0.003080 -0.006897 0.000000 0.000558 0.000000
# 2 -0.003080 0.010059 -0.003284 0.000000 -0.000323 0.000000
# 3 -0.006897 -0.003284 0.014091 0.000000 -0.009592 0.000000
# 4 0.000000 0.000000 0.000000 0.026700 0.000000 -0.001662
# 5 0.000558 -0.000323 -0.009592 0.000000 0.038104 0.000000
# 6 0.000000 0.000000 0.000000 -0.001662 0.000000 0.028805
#
#
# Mechanical properties :
#
#
# Convention : Reuss Voigt Hill
#
# Bulk Modulus (GPa) = 57.33051 74.24112 65.78581
# Shear Modulus (GPa) = 29.42778 33.74659 31.58718
#
# Velocity S-wave (km/s) = 3.59441 3.84914 3.72395
# Velocity P-wave (km/s) = 6.51125 7.23525 6.88278
#
# Compressibility (1/GPa) = 0.01744272
#
# Stress axis : x y z
#
# Youngs Moduli (GPa) = 50.47150 99.41168 70.96663
#
# Poissons Ratio (x) = 0.30616 0.48943
# Poissons Ratio (y) = 0.15544 0.23305
# Poissons Ratio (z) = 0.34809 0.32647
#
# Static dielectric constant tensor:
#      x y z
#    x 1.979850 0.000000 0.066880 
#    y 0.000000 1.892570 0.000000 
#    z 0.066880 0.000000 2.064580 
# 
# From -- ./inp_files/283415.got.cif
#   From: 2010.05.17/outbox.cif.g08.bks.cpg/sg15_142_cif.got.tgz:283415.got - 2010.06.03 18:47:42.
