data_PCOD9302607
_publ_section_title
;
Structure prediction by ZEFSAII (Michael W. Deem and Ramdas Pophale) SiO2 
 PCOD9302607
Probable space group: C 2/C
;
_chemical_formula_sum "Si O2"
_cell_formula_units_Z 40
_cell_length_a 27.212230
_cell_length_b 5.214647
_cell_length_c 14.995722
_cell_angle_alpha 90.000000
_cell_angle_beta 54.204273
_cell_angle_gamma 90.000000
_cell_volume 1725.976245
_symmetry_space_group_name_H-M "C 2/C"
_symmetry_group_IT_number 15
_symmetry_cell_setting 'monoclinic'
loop_
_space_group_symop_operation_xyz
x,y,z
-x,y,1/2-z
-x,-y,-z
x,-y,1/2+z
1/2+x,1/2+y,z
1/2-x,1/2+y,1/2-z
1/2-x,1/2-y,-z
1/2+x,1/2-y,1/2+z
loop_
_atom_site_type_symbol
_atom_site_label
_atom_site_fract_x
_atom_site_fract_y
_atom_site_fract_z
Si Si1 0.321229 0.713596 0.442954
Si Si2 0.558602 0.428250 0.494569
Si Si3 0.170344 0.088078 0.740148
Si Si4 0.396830 0.932975 0.964490
Si Si5 0.785587 0.849485 0.638395
O O1 0.250000 0.750000 0.500000
O O2 0.344567 0.543302 0.336657
O O3 0.366335 0.955642 0.406394
O O4 0.318272 0.556293 0.539040
O O5 0.500000 0.500000 0.500000
O O6 0.611840 0.390557 0.364056
O O7 0.560429 0.159216 0.544597
O O8 0.569361 0.665478 0.551969
O O9 0.217751 0.317210 0.673330
O O10 0.214482 0.924068 0.758550
O O11 0.332988 0.885970 0.083862
#
# Coordination Sequence:
#
# PCOD9302607 Si02
#       5
#     8   8   8   8   8
#     4  12  23  39  66 107 146 173 218 282 357 418
#     4  11  25  47  73  95 134 187 242 278 332 395
#     4  11  22  38  69  98 137 183 223 273 357 402
#     4  11  22  45  68  96 141 173 220 297 331 405
#     4  11  22  42  63 104 140 176 220 285 347 425
#
# _framework density 23.175291999999999
#
# number of rings (size 3 to 8) (size 9 to 14) (size 15 to 20)
#    0.000    0.800    6.000    3.600    0.000    1.600 
#    0.000    1.000    4.400    0.000    0.000    0.000 
#    0.000    0.000    0.000    0.000    0.000    0.000 
#
# Total GULP energy -111467.128594 kJ/mol
# GULP energy per Si atom -5573.356430 kJ/mol
# Density = 2.312254 g / cm^3
# Si number density = 23.175292 Si / 1000 Ang^3
#
#
#
# Elastic Constant Matrix: (Units=GPa)
#
#
# Indices 1 2 3 4 5 6 
#
# 1 120.0954 35.2052 -15.5435 0.0002 0.4295 -0.0039
# 2 35.2052 119.2348 6.3418 0.0311 14.6474 0.0033
# 3 -15.5435 6.3418 38.9836 -0.0036 25.1412 -0.0067
# 4 0.0002 0.0311 -0.0036 24.9596 -0.0067 9.4861
# 5 0.4295 14.6474 25.1412 -0.0067 34.4292 -0.0023
# 6 -0.0039 0.0033 -0.0067 9.4861 -0.0023 45.0052
#
#
#
# Elastic Compliance Matrix: (Units=1/GPa)
#
#
# Indices 1 2 3 4 5 6 
#
# 1 0.010106 -0.002856 0.007167 0.000003 -0.004145 0.000001
# 2 -0.002856 0.009729 -0.000142 -0.000014 -0.004000 0.000002
# 3 0.007167 -0.000142 0.053966 -0.000006 -0.039437 0.000008
# 4 0.000003 -0.000014 -0.000006 0.043554 0.000018 -0.009180
# 5 -0.004145 -0.004000 -0.039437 0.000018 0.059596 -0.000007
# 6 0.000001 0.000002 0.000008 -0.009180 -0.000007 0.024155
#
#
# Mechanical properties :
#
#
# Convention : Reuss Voigt Hill
#
# Bulk Modulus (GPa) = 12.17436 36.70233 24.43834
# Shear Modulus (GPa) = 22.71205 37.69947 30.20576
#
# Velocity S-wave (km/s) = 3.13391 4.03762 3.61412
# Velocity P-wave (km/s) = 4.28483 6.13252 5.28997
#
# Compressibility (1/GPa) = 0.08213985
#
# Stress axis : x y z
#
# Youngs Moduli (GPa) = 98.94711 102.78554 18.53020
#
# Poissons Ratio (x) = 0.29356 -0.13281
# Poissons Ratio (y) = 0.28260 0.00263
# Poissons Ratio (z) = -0.70918 0.01459
#
# Static dielectric constant tensor:
#      x y z
#    x 1.915570 -0.000020 0.000020 
#    y -0.000020 2.169150 0.000000 
#    z 0.000020 0.000000 1.885240 
# 
# From -- ./inp_files/175307.got.cif
#   From: 2010.05.17/outbox.cif.g08.bks.cpg/sg15_88_cif.got.tgz:175307.got - 2010.06.03 18:47:42.
