data_PCOD9302120
_publ_section_title
;
Structure prediction by ZEFSAII (Michael W. Deem and Ramdas Pophale) SiO2 
 PCOD9302120
Probable space group: C 2/C
;
_chemical_formula_sum "Si O2"
_cell_formula_units_Z 64
_cell_length_a 9.151210
_cell_length_b 27.481119
_cell_length_c 16.398135
_cell_angle_alpha 90.000000
_cell_angle_beta 137.692300
_cell_angle_gamma 90.000000
_cell_volume 2775.841502
_symmetry_space_group_name_H-M "C 2/C"
_symmetry_group_IT_number 15
_symmetry_cell_setting 'monoclinic'
loop_
_space_group_symop_operation_xyz
x,y,z
-x,y,1/2-z
-x,-y,-z
x,-y,1/2+z
1/2+x,1/2+y,z
1/2-x,1/2+y,1/2-z
1/2-x,1/2-y,-z
1/2+x,1/2-y,1/2+z
loop_
_atom_site_type_symbol
_atom_site_label
_atom_site_fract_x
_atom_site_fract_y
_atom_site_fract_z
Si Si1 0.081262 0.030466 0.868332
Si Si2 0.268707 0.740405 0.634321
Si Si3 0.267898 0.123202 0.620351
Si Si4 0.326771 0.063771 0.492392
Si Si5 0.640698 0.998079 0.727973
Si Si6 0.649696 0.670795 0.978473
Si Si7 0.483185 0.905576 0.587917
Si Si8 0.434364 0.227861 0.634320
O O1 0.000000 0.052823 0.750000
O O2 0.176813 0.977000 0.890017
O O3 0.270367 0.061114 0.985685
O O4 0.874495 0.021312 0.839322
O O5 0.500000 0.763086 0.750000
O O6 0.321147 0.693878 0.599271
O O7 0.135821 0.781607 0.530420
O O8 0.147397 0.726137 0.666445
O O9 0.500000 0.103170 0.750000
O O10 0.209454 0.089722 0.519301
O O11 0.346718 0.174736 0.618220
O O12 0.062858 0.136985 0.593322
O O13 0.412737 0.100678 0.459009
O O14 0.525080 0.031827 0.611757
O O15 0.500000 0.998605 0.750000
O O16 0.643617 0.941404 0.702443
O O17 0.875259 0.641209 0.084399
O O18 0.500000 0.250562 0.750000
O O19 0.250000 0.250000 0.500000
#
# Coordination Sequence:
#
# PCOD9302120 Si02
#       8
#     8   8   8   8   8   8   8   8
#     4  11  21  42  67  88 132 177 225 269 337 400
#     4  11  24  47  72  97 139 179 230 287 355 424
#     4  11  24  42  67 101 137 170 227 283 338 414
#     4  11  23  41  63  97 129 172 227 276 331 407
#     4  11  24  40  64  93 128 176 216 280 338 396
#     4  11  26  43  68 103 134 177 229 285 351 417
#     4  11  24  41  64  96 130 173 228 274 329 416
#     4  11  23  45  75 104 139 184 232 291 354 422
#
# _framework density 23.056073000000001
#
# number of rings (size 3 to 8) (size 9 to 14) (size 15 to 20)
#    0.000    1.000    3.750    3.375    7.000    2.000 
#    0.000    0.625    0.000    0.000    0.000    0.000 
#    0.000    0.000    0.000    0.000    0.000    0.000 
#
# Total GULP energy -178736.370510 kJ/mol
# GULP energy per Si atom -5585.511578 kJ/mol
# Density = 2.300360 g / cm^3
# Si number density = 23.056073 Si / 1000 Ang^3
#
#
#
# Elastic Constant Matrix: (Units=GPa)
#
#
# Indices 1 2 3 4 5 6 
#
# 1 166.9066 17.1563 11.3125 0.0000 1.7636 0.0000
# 2 17.1563 61.9680 1.8186 0.0000 -10.2322 0.0000
# 3 11.3125 1.8186 57.9549 0.0000 -0.8177 0.0000
# 4 0.0000 0.0000 0.0000 27.4480 0.0000 1.8438
# 5 1.7636 -10.2322 -0.8177 0.0000 31.0977 0.0000
# 6 0.0000 0.0000 0.0000 1.8438 0.0000 34.9505
#
#
#
# Elastic Compliance Matrix: (Units=1/GPa)
#
#
# Indices 1 2 3 4 5 6 
#
# 1 0.006274 -0.001868 -0.001180 0.000000 -0.001001 0.000000
# 2 -0.001868 0.017633 -0.000105 0.000000 0.005905 0.000000
# 3 -0.001180 -0.000105 0.017495 0.000000 0.000492 0.000000
# 4 0.000000 0.000000 0.000000 0.036562 0.000000 -0.001929
# 5 -0.001001 0.005905 0.000492 0.000000 0.034169 0.000000
# 6 0.000000 0.000000 0.000000 -0.001929 0.000000 0.028714
#
#
# Mechanical properties :
#
#
# Convention : Reuss Voigt Hill
#
# Bulk Modulus (GPa) = 28.49379 38.60046 33.54713
# Shear Modulus (GPa) = 31.47583 35.80204 33.63893
#
# Velocity S-wave (km/s) = 3.69885 3.94486 3.82384
# Velocity P-wave (km/s) = 5.53419 6.12598 5.83759
#
# Compressibility (1/GPa) = 0.03509537
#
# Stress axis : x y z
#
# Youngs Moduli (GPa) = 159.38987 56.71327 57.15780
#
# Poissons Ratio (x) = 0.10592 0.06746
# Poissons Ratio (y) = 0.29769 0.00603
# Poissons Ratio (z) = 0.18811 0.00598
#
# Static dielectric constant tensor:
#      x y z
#    x 1.889070 0.000000 -0.002760 
#    y 0.000000 1.873940 0.000000 
#    z -0.002760 0.000000 1.953370 
# 
# From -- ./inp_files/194255.got.cif
#   From: 2010.05.17/outbox.cif.g08.bks.cpg/sg15_98_cif.got.tgz:194255.got - 2010.06.03 18:47:42.
