data_PCOD9302935
_publ_section_title
;
Structure prediction by ZEFSAII (Michael W. Deem and Ramdas Pophale) SiO2 
 PCOD9302935
Probable space group: C 2/C
;
_chemical_formula_sum "Si O2"
_cell_formula_units_Z 48
_cell_length_a 23.748139
_cell_length_b 9.686901
_cell_length_c 9.781165
_cell_angle_alpha 90.000000
_cell_angle_beta 80.339232
_cell_angle_gamma 90.000000
_cell_volume 2218.206839
_symmetry_space_group_name_H-M "C 2/C"
_symmetry_group_IT_number 15
_symmetry_cell_setting 'monoclinic'
loop_
_space_group_symop_operation_xyz
x,y,z
-x,y,1/2-z
-x,-y,-z
x,-y,1/2+z
1/2+x,1/2+y,z
1/2-x,1/2+y,1/2-z
1/2-x,1/2-y,-z
1/2+x,1/2-y,1/2+z
loop_
_atom_site_type_symbol
_atom_site_label
_atom_site_fract_x
_atom_site_fract_y
_atom_site_fract_z
Si Si1 0.152160 0.048868 0.143880
Si Si2 0.535652 0.585852 0.594680
Si Si3 0.289617 0.647834 0.656651
Si Si4 0.507542 0.131574 0.403744
Si Si5 0.846791 0.351419 0.280960
Si Si6 0.868901 0.602543 0.083017
O O1 0.097145 0.976564 0.100533
O O2 0.182724 0.948759 0.238868
O O3 0.134202 0.191701 0.225833
O O4 0.192948 0.091851 0.000761
O O5 0.500000 0.585970 0.750000
O O6 0.500000 0.500000 0.500000
O O7 0.535630 0.744794 0.548023
O O8 0.221924 0.651496 0.699402
O O9 0.316949 0.800705 0.653490
O O10 0.500000 0.090877 0.250000
O O11 0.572529 0.180949 0.402424
O O12 0.500000 0.000000 0.500000
O O13 0.868641 0.455784 0.157549
O O14 0.864591 0.410420 0.421952
#
# Coordination Sequence:
#
# PCOD9302935 Si02
#       6
#     8   8   8   8   8   8
#     4  11  23  40  64  93 125 164 209 257 308 370
#     4  11  23  41  63  92 125 163 206 256 309 366
#     4  11  22  41  62  90 127 164 204 257 311 365
#     4  11  24  42  62  90 124 161 203 254 308 366
#     4  11  23  41  63  92 124 164 207 254 308 369
#     4  11  23  41  62  89 125 162 203 256 309 366
#
# _framework density 21.639099999999999
#
# number of rings (size 3 to 8) (size 9 to 14) (size 15 to 20)
#    0.000    1.000    0.000   10.000    0.000    4.667 
#    0.000    3.333    0.000    0.000    0.000    0.000 
#    0.000    0.000    0.000    0.000    0.000    0.000 
#
# Total GULP energy -134397.264966 kJ/mol
# GULP energy per Si atom -5599.886040 kJ/mol
# Density = 2.158985 g / cm^3
# Si number density = 21.639100 Si / 1000 Ang^3
#
#
#
# Elastic Constant Matrix: (Units=GPa)
#
#
# Indices 1 2 3 4 5 6 
#
# 1 93.4028 31.4404 22.5421 0.0000 22.4310 0.0000
# 2 31.4404 150.6037 54.4033 0.0000 19.1268 0.0000
# 3 22.5421 54.4033 78.4750 0.0000 39.7313 0.0000
# 4 0.0000 0.0000 0.0000 32.7883 0.0000 11.4618
# 5 22.4310 19.1268 39.7313 0.0000 40.3886 0.0000
# 6 0.0000 0.0000 0.0000 11.4618 0.0000 31.2681
#
#
#
# Elastic Compliance Matrix: (Units=1/GPa)
#
#
# Indices 1 2 3 4 5 6 
#
# 1 0.012963 -0.002416 0.002026 0.000000 -0.008049 0.000000
# 2 -0.002416 0.009592 -0.008636 0.000000 0.005295 0.000000
# 3 0.002026 -0.008636 0.033165 0.000000 -0.029661 0.000000
# 4 0.000000 0.000000 0.000000 0.034981 0.000000 -0.012823
# 5 -0.008049 0.005295 -0.029661 0.000000 0.055900 0.000000
# 6 0.000000 0.000000 0.000000 -0.012823 0.000000 0.036682
#
#
# Mechanical properties :
#
#
# Convention : Reuss Voigt Hill
#
# Bulk Modulus (GPa) = 26.54808 59.91701 43.23254
# Shear Modulus (GPa) = 23.37632 35.16204 29.26918
#
# Velocity S-wave (km/s) = 3.29033 4.03542 3.68177
# Velocity P-wave (km/s) = 5.17013 7.03293 6.17221
#
# Compressibility (1/GPa) = 0.03766751
#
# Stress axis : x y z
#
# Youngs Moduli (GPa) = 77.13967 104.25824 30.15210
#
# Poissons Ratio (x) = 0.25189 -0.06109
# Poissons Ratio (y) = 0.18637 0.26041
# Poissons Ratio (z) = -0.15629 0.90042
#
# Static dielectric constant tensor:
#      x y z
#    x 1.794610 0.000000 -0.026040 
#    y 0.000000 1.800120 0.000000 
#    z -0.026040 0.000000 1.760610 
# 
# From -- ./inp_files/116359.got.cif
#   From: 2010.05.17/outbox.cif.g08.bks.cpg/sg15_59_cif.got.tgz:116359.got - 2010.06.03 18:47:42.
