data_PCOD9302602
_publ_section_title
;
Structure prediction by ZEFSAII (Michael W. Deem and Ramdas Pophale) SiO2 
 PCOD9302602
Probable space group: C 2/C
;
_chemical_formula_sum "Si O2"
_cell_formula_units_Z 40
_cell_length_a 22.394818
_cell_length_b 5.225428
_cell_length_c 14.978587
_cell_angle_alpha 90.000000
_cell_angle_beta 88.229180
_cell_angle_gamma 90.000000
_cell_volume 1751.994729
_symmetry_space_group_name_H-M "C 2/C"
_symmetry_group_IT_number 15
_symmetry_cell_setting 'monoclinic'
loop_
_space_group_symop_operation_xyz
x,y,z
-x,y,1/2-z
-x,-y,-z
x,-y,1/2+z
1/2+x,1/2+y,z
1/2-x,1/2+y,1/2-z
1/2-x,1/2-y,-z
1/2+x,1/2-y,1/2+z
loop_
_atom_site_type_symbol
_atom_site_label
_atom_site_fract_x
_atom_site_fract_y
_atom_site_fract_z
Si Si1 0.061015 0.080139 0.800497
Si Si2 0.106319 0.426066 0.387208
Si Si3 0.170926 0.090720 0.658841
Si Si4 0.679715 0.717534 0.985122
Si Si5 0.784424 0.854940 0.674142
O O1 0.065245 0.343841 0.854650
O O2 0.000000 0.046824 0.750000
O O3 0.071707 0.836439 0.865669
O O4 0.112626 0.112102 0.722337
O O5 0.136231 0.536994 0.476908
O O6 0.169373 0.381428 0.333090
O O7 0.156758 0.955547 0.567137
O O8 0.214496 0.929572 0.722880
O O9 0.217433 0.321335 0.640653
O O10 0.682624 0.560507 0.891774
O O11 0.750000 0.750000 0.000000
#
# Coordination Sequence:
#
# PCOD9302602 Si02
#       5
#     8   8   8   8   8
#     4  11  25  47  71  94 133 188 236 277 327 391
#     4  11  22  45  67  95 140 170 221 292 328 398
#     4  11  22  38  68  98 132 185 218 272 347 398
#     4  12  23  39  65 108 144 171 215 279 352 416
#     4  11  22  42  63 103 140 173 223 279 343 413
#
# _framework density 22.831118
#
# number of rings (size 3 to 8) (size 9 to 14) (size 15 to 20)
#    0.000    0.800    6.000    3.600    0.000    1.600 
#    0.000    2.000    0.000    0.000    0.000    0.000 
#    0.000    0.000    0.000    0.000    0.000    0.000 
#
# Total GULP energy -111466.604746 kJ/mol
# GULP energy per Si atom -5573.330237 kJ/mol
# Density = 2.277915 g / cm^3
# Si number density = 22.831118 Si / 1000 Ang^3
#
#
#
# Elastic Constant Matrix: (Units=GPa)
#
#
# Indices 1 2 3 4 5 6 
#
# 1 82.0051 24.6554 0.3972 0.0000 42.2384 0.0000
# 2 24.6554 126.4213 35.5483 0.0000 24.7077 0.0000
# 3 0.3972 35.5483 80.8484 0.0000 12.8624 0.0000
# 4 0.0000 0.0000 0.0000 33.8854 0.0000 12.7008
# 5 42.2384 24.7077 12.8624 0.0000 41.0413 0.0000
# 6 0.0000 0.0000 0.0000 12.7008 0.0000 26.7943
#
#
#
# Elastic Compliance Matrix: (Units=1/GPa)
#
#
# Indices 1 2 3 4 5 6 
#
# 1 0.027593 -0.001054 0.004994 0.000000 -0.029329 0.000000
# 2 -0.001054 0.009894 -0.003757 0.000000 -0.003695 0.000000
# 3 0.004994 -0.003757 0.015213 0.000000 -0.007645 0.000000
# 4 0.000000 0.000000 0.000000 0.035887 0.000000 -0.017011
# 5 -0.029329 -0.003695 -0.007645 0.000000 0.059170 0.000000
# 6 0.000000 0.000000 0.000000 -0.017011 0.000000 0.045385
#
#
# Mechanical properties :
#
#
# Convention : Reuss Voigt Hill
#
# Bulk Modulus (GPa) = 18.84453 45.60850 32.22652
# Shear Modulus (GPa) = 23.75684 35.58913 29.67298
#
# Velocity S-wave (km/s) = 3.22925 3.95245 3.60901
# Velocity P-wave (km/s) = 4.70913 6.39132 5.61359
#
# Compressibility (1/GPa) = 0.05306578
#
# Stress axis : x y z
#
# Youngs Moduli (GPa) = 36.24049 101.06988 65.73469
#
# Poissons Ratio (x) = 0.10648 -0.32826
# Poissons Ratio (y) = 0.03818 0.24699
# Poissons Ratio (z) = -0.18098 0.37976
#
# Static dielectric constant tensor:
#      x y z
#    x 1.864520 0.000000 0.011110 
#    y 0.000000 2.134310 0.000000 
#    z 0.011110 0.000000 1.894510 
# 
# From -- ./inp_files/170605.got.cif
#   From: 2010.05.17/outbox.cif.g08.bks.cpg/sg15_86_cif.got.tgz:170605.got - 2010.06.03 18:47:42.
