data_PCOD9302494
_publ_section_title
;
Structure prediction by ZEFSAII (Michael W. Deem and Ramdas Pophale) SiO2 
 PCOD9302494
Probable space group: C 2/C
;
_chemical_formula_sum "Si O2"
_cell_formula_units_Z 60
_cell_length_a 15.417739
_cell_length_b 14.949405
_cell_length_c 11.394549
_cell_angle_alpha 90.000000
_cell_angle_beta 107.065455
_cell_angle_gamma 90.000000
_cell_volume 2510.649331
_symmetry_space_group_name_H-M "C 2/C"
_symmetry_group_IT_number 15
_symmetry_cell_setting 'monoclinic'
loop_
_space_group_symop_operation_xyz
x,y,z
-x,y,1/2-z
-x,-y,-z
x,-y,1/2+z
1/2+x,1/2+y,z
1/2-x,1/2+y,1/2-z
1/2-x,1/2-y,-z
1/2+x,1/2-y,1/2+z
loop_
_atom_site_type_symbol
_atom_site_label
_atom_site_fract_x
_atom_site_fract_y
_atom_site_fract_z
Si Si1 0.830672 0.468839 0.275598
Si Si2 0.920155 0.741460 0.446452
Si Si3 0.197931 0.136280 0.180187
Si Si4 0.000000 0.985287 0.250000
Si Si5 0.208351 0.804471 0.307901
Si Si6 0.433374 0.357338 0.056812
Si Si7 0.844470 0.114195 0.093667
Si Si8 0.640477 0.944466 0.472935
O O1 0.765364 0.554369 0.226376
O O2 0.771258 0.379384 0.272401
O O3 0.876355 0.489320 0.421873
O O4 0.884806 0.464078 0.172965
O O5 0.858279 0.752855 0.307988
O O6 0.890200 0.822685 0.518080
O O7 0.902825 0.648947 0.503925
O O8 0.023166 0.761263 0.451547
O O9 0.233460 0.220917 0.122065
O O10 0.178857 0.173832 0.301972
O O11 0.108434 0.103813 0.078058
O O12 0.988492 0.918715 0.355854
O O13 0.084638 0.043851 0.325060
O O14 0.145728 0.851745 0.378996
O O15 0.750879 0.069479 0.014088
#
# Coordination Sequence:
#
# PCOD9302494 Si02
#       8
#     8   8   8   4   8   8   8   8
#     4  11  22  40  72 102 135 174 241 288 352 413
#     4  12  23  42  66  93 140 186 231 282 347 425
#     4  11  24  42  67  99 137 181 233 284 351 423
#     4  12  24  38  60 106 144 168 218 280 370 432
#     4  12  22  43  68  98 135 186 233 284 345 430
#     4  12  26  40  63 100 142 184 224 291 357 420
#     4  11  22  37  62  94 135 181 217 269 348 424
#     4  11  23  41  67  98 133 183 234 285 339 424
#
# _framework density 23.898201
#
# number of rings (size 3 to 8) (size 9 to 14) (size 15 to 20)
#    0.000    0.533    5.333    5.600    0.000    1.067 
#    0.000    0.000    0.000    4.800    0.000    0.000 
#    0.000    0.000    0.000    0.000    0.000    0.000 
#
# Total GULP energy -167700.312679 kJ/mol
# GULP energy per Si atom -5590.010423 kJ/mol
# Density = 2.384381 g / cm^3
# Si number density = 23.898201 Si / 1000 Ang^3
#
#
#
# Elastic Constant Matrix: (Units=GPa)
#
#
# Indices 1 2 3 4 5 6 
#
# 1 30.9724 18.7682 18.3671 0.0000 4.0052 0.0000
# 2 18.7682 90.8311 2.8251 0.0000 -6.3951 0.0000
# 3 18.3671 2.8251 116.5508 0.0000 -25.8590 0.0000
# 4 0.0000 0.0000 0.0000 22.1367 0.0000 -4.7138
# 5 4.0052 -6.3951 -25.8590 0.0000 23.9040 0.0000
# 6 0.0000 0.0000 0.0000 -4.7138 0.0000 32.3261
#
#
#
# Elastic Compliance Matrix: (Units=1/GPa)
#
#
# Indices 1 2 3 4 5 6 
#
# 1 0.051079 -0.011998 -0.013645 0.000000 -0.026529 0.000000
# 2 -0.011998 0.014063 0.003725 0.000000 0.009802 0.000000
# 3 -0.013645 0.003725 0.014958 0.000000 0.019465 0.000000
# 4 0.000000 0.000000 0.000000 0.046622 0.000000 0.006798
# 5 -0.026529 0.009802 0.019465 0.000000 0.069958 0.000000
# 6 0.000000 0.000000 0.000000 0.006798 0.000000 0.031926
#
#
# Mechanical properties :
#
#
# Convention : Reuss Voigt Hill
#
# Bulk Modulus (GPa) = 27.57505 35.36389 31.46947
# Shear Modulus (GPa) = 17.57286 28.89960 23.23623
#
# Velocity S-wave (km/s) = 2.71462 3.48124 3.12156
# Velocity P-wave (km/s) = 4.62484 5.56674 5.11751
#
# Compressibility (1/GPa) = 0.03626467
#
# Stress axis : x y z
#
# Youngs Moduli (GPa) = 19.57749 71.10968 66.85173
#
# Poissons Ratio (x) = 0.85316 0.91216
# Poissons Ratio (y) = 0.23489 -0.24899
# Poissons Ratio (z) = 0.26713 -0.26485
#
# Static dielectric constant tensor:
#      x y z
#    x 1.948020 0.000000 -0.017720 
#    y 0.000000 1.919120 0.000000 
#    z -0.017720 0.000000 1.940390 
# 
# From -- ./inp_files/105392.got.cif
#   From: 2010.05.17/outbox.cif.g08.bks.cpg/sg15_53_cif.got.tgz:105392.got - 2010.06.03 18:47:42.
