data_PCOD9302054
_publ_section_title
;
Structure prediction by ZEFSAII (Michael W. Deem and Ramdas Pophale) SiO2 
 PCOD9302054
Probable space group: C 2/C
;
_chemical_formula_sum "Si O2"
_cell_formula_units_Z 64
_cell_length_a 14.163847
_cell_length_b 17.176714
_cell_length_c 20.640834
_cell_angle_alpha 90.000000
_cell_angle_beta 146.658906
_cell_angle_gamma 90.000000
_cell_volume 2760.023441
_symmetry_space_group_name_H-M "C 2/C"
_symmetry_group_IT_number 15
_symmetry_cell_setting 'monoclinic'
loop_
_space_group_symop_operation_xyz
x,y,z
-x,y,1/2-z
-x,-y,-z
x,-y,1/2+z
1/2+x,1/2+y,z
1/2-x,1/2+y,1/2-z
1/2-x,1/2-y,-z
1/2+x,1/2-y,1/2+z
loop_
_atom_site_type_symbol
_atom_site_label
_atom_site_fract_x
_atom_site_fract_y
_atom_site_fract_z
Si Si1 0.300452 0.936037 0.865163
Si Si2 0.808914 0.888891 0.219015
Si Si3 0.320120 0.932042 0.028011
Si Si4 0.597906 0.831205 0.982634
Si Si5 0.006531 0.171677 0.002405
Si Si6 0.869677 0.342232 0.256026
Si Si7 0.504616 0.324430 0.652179
Si Si8 0.683240 0.599348 0.991707
O O1 0.133521 0.882181 0.762563
O O2 0.246831 0.021084 0.811387
O O3 0.357355 0.941003 0.972644
O O4 0.449304 0.894565 0.909769
O O5 0.755236 0.854949 0.119565
O O6 0.700765 0.843817 0.210873
O O7 0.006115 0.884708 0.351883
O O8 0.488924 0.909283 0.164603
O O9 0.184017 0.861217 0.952457
O O10 0.240276 0.011892 0.008189
O O11 0.671879 0.841546 0.952790
O O12 0.527596 0.750128 0.970985
O O13 0.129652 0.111600 0.035436
O O14 0.804773 0.148935 0.884377
O O15 0.053280 0.179463 0.103969
O O16 0.966037 0.260750 0.302149
#
# Coordination Sequence:
#
# PCOD9302054 Si02
#       8
#     8   8   8   8   8   8   8   8
#     4  12  23  42  71 107 136 174 233 298 345 405
#     4  11  21  41  69 104 138 173 226 290 353 399
#     4  12  24  44  71 102 136 180 237 287 346 407
#     4  12  21  41  72 101 138 175 230 290 342 408
#     4  11  26  47  66 101 145 185 230 276 352 421
#     4  11  24  45  70 100 136 187 228 287 350 411
#     4  12  25  44  70  97 144 184 228 291 346 409
#     4  11  25  41  71 104 137 179 230 287 344 416
#
# _framework density 23.188207999999999
#
# number of rings (size 3 to 8) (size 9 to 14) (size 15 to 20)
#    0.000    0.500    6.250    2.625    0.000    1.000 
#    2.250    0.625    2.750    0.000    0.000    0.000 
#    0.000    0.000    0.000    0.000    0.000    0.000 
#
# Total GULP energy -179183.178354 kJ/mol
# GULP energy per Si atom -5599.474324 kJ/mol
# Density = 2.313543 g / cm^3
# Si number density = 23.188208 Si / 1000 Ang^3
#
#
#
# Elastic Constant Matrix: (Units=GPa)
#
#
# Indices 1 2 3 4 5 6 
#
# 1 91.0463 2.3633 31.1616 0.0001 12.7885 0.0000
# 2 2.3633 72.8266 22.2510 0.0004 14.5593 0.0001
# 3 31.1616 22.2510 65.7336 0.0010 7.9245 0.0002
# 4 0.0001 0.0004 0.0010 28.7246 0.0001 9.8663
# 5 12.7885 14.5593 7.9245 0.0001 38.3323 0.0000
# 6 0.0000 0.0001 0.0002 9.8663 0.0000 27.9308
#
#
#
# Elastic Compliance Matrix: (Units=1/GPa)
#
#
# Indices 1 2 3 4 5 6 
#
# 1 0.013869 0.002492 -0.006919 0.000000 -0.004143 0.000000
# 2 0.002492 0.016703 -0.006123 0.000000 -0.005910 0.000000
# 3 -0.006919 -0.006123 0.020518 -0.000001 0.000392 0.000000
# 4 0.000000 0.000000 -0.000001 0.039621 0.000000 -0.013996
# 5 -0.004143 -0.005910 0.000392 0.000000 0.029633 0.000000
# 6 0.000000 0.000000 0.000000 -0.013996 0.000000 0.040747
#
#
# Mechanical properties :
#
#
# Convention : Reuss Voigt Hill
#
# Bulk Modulus (GPa) = 33.34386 37.90649 35.62518
# Shear Modulus (GPa) = 26.01652 30.58624 28.30138
#
# Velocity S-wave (km/s) = 3.35322 3.63580 3.49737
# Velocity P-wave (km/s) = 5.42245 5.83166 5.63077
#
# Compressibility (1/GPa) = 0.02999052
#
# Stress axis : x y z
#
# Youngs Moduli (GPa) = 72.10488 59.87119 48.73740
#
# Poissons Ratio (x) = -0.14921 0.33720
# Poissons Ratio (y) = -0.17969 0.29841
# Poissons Ratio (z) = 0.49887 0.36658
#
# Static dielectric constant tensor:
#      x y z
#    x 1.883460 0.000000 0.020630 
#    y 0.000000 1.861260 0.000000 
#    z 0.020630 0.000000 1.825970 
# 
# From -- ./inp_files/274863.got.cif
#   From: 2010.05.17/outbox.cif.g08.bks.cpg/sg15_138_cif.got.tgz:274863.got - 2010.06.03 18:47:42.
