data_PCOD9302279
_publ_section_title
;
Structure prediction by ZEFSAII (Michael W. Deem and Ramdas Pophale) SiO2 
 PCOD9302279
Probable space group: C 2/C
;
_chemical_formula_sum "Si O2"
_cell_formula_units_Z 56
_cell_length_a 30.298316
_cell_length_b 8.487299
_cell_length_c 21.324782
_cell_angle_alpha 90.000000
_cell_angle_beta 27.535693
_cell_angle_gamma 90.000000
_cell_volume 2535.114133
_symmetry_space_group_name_H-M "C 2/C"
_symmetry_group_IT_number 15
_symmetry_cell_setting 'monoclinic'
loop_
_space_group_symop_operation_xyz
x,y,z
-x,y,1/2-z
-x,-y,-z
x,-y,1/2+z
1/2+x,1/2+y,z
1/2-x,1/2+y,1/2-z
1/2-x,1/2-y,-z
1/2+x,1/2-y,1/2+z
loop_
_atom_site_type_symbol
_atom_site_label
_atom_site_fract_x
_atom_site_fract_y
_atom_site_fract_z
Si Si1 0.626811 0.201888 0.203539
Si Si2 0.846190 0.162155 0.959890
Si Si3 0.156740 0.369953 0.411732
Si Si4 0.458462 0.506431 0.621204
Si Si5 0.710363 0.657589 0.227303
Si Si6 0.097881 0.857800 0.545366
Si Si7 0.493584 0.049299 0.685371
O O1 0.736761 0.197191 0.081176
O O2 0.574348 0.317269 0.318292
O O3 0.601441 0.019265 0.224784
O O4 0.601482 0.280233 0.168522
O O5 0.854012 0.255133 0.015115
O O6 0.875696 0.984314 0.935596
O O7 0.247342 0.489630 0.300657
O O8 0.161529 0.264361 0.343218
O O9 0.068014 0.483006 0.539473
O O10 0.500000 0.500000 0.500000
O O11 0.364064 0.393020 0.733886
O O12 0.545626 0.450342 0.554915
O O13 0.803871 0.760174 0.090375
O O14 0.016828 0.730538 0.661638
O O15 0.500000 0.992882 0.750000
#
# Coordination Sequence:
#
# PCOD9302279 Si02
#       7
#     8   8   8   8   8   8   8
#     4  11  25  43  74 100 140 188 238 288 357 440
#     4  11  23  44  69 103 133 193 231 290 362 417
#     4  11  21  44  70  97 143 185 232 290 360 411
#     4  12  25  46  70 106 139 190 245 294 359 432
#     4  11  24  45  68 105 144 188 242 300 349 430
#     4  11  28  42  73 104 144 192 234 300 363 417
#     4  11  24  44  66 103 140 182 231 291 351 431
#
# _framework density 22.089735999999998
#
# number of rings (size 3 to 8) (size 9 to 14) (size 15 to 20)
#    0.000    0.857    2.857    4.286    4.000    0.000 
#    0.000    3.571    0.000    0.000    0.000    0.000 
#    0.000    0.000    0.000    0.000    0.000    0.000 
#
# Total GULP energy -156063.830010 kJ/mol
# GULP energy per Si atom -5573.708215 kJ/mol
# Density = 2.203946 g / cm^3
# Si number density = 22.089736 Si / 1000 Ang^3
#
#
#
# Elastic Constant Matrix: (Units=GPa)
#
#
# Indices 1 2 3 4 5 6 
#
# 1 66.0459 30.0757 8.9242 -0.0044 -1.6179 -0.0003
# 2 30.0757 124.4455 17.3234 -0.0180 9.4939 -0.0068
# 3 8.9242 17.3234 37.0766 -0.0178 8.1889 -0.0054
# 4 -0.0044 -0.0180 -0.0178 96.6375 0.0088 -13.4815
# 5 -1.6179 9.4939 8.1889 0.0088 26.1645 0.0034
# 6 -0.0003 -0.0068 -0.0054 -13.4815 0.0034 21.3131
#
#
#
# Elastic Compliance Matrix: (Units=1/GPa)
#
#
# Indices 1 2 3 4 5 6 
#
# 1 0.017497 -0.004067 -0.003090 -0.000001 0.003525 -0.000003
# 2 -0.004067 0.009639 -0.002897 0.000002 -0.002842 0.000004
# 3 -0.003090 -0.002897 0.031023 0.000008 -0.008849 0.000013
# 4 -0.000001 0.000002 0.000008 0.011349 -0.000008 0.007179
# 5 0.003525 -0.002842 -0.008849 -0.000008 0.042239 -0.000015
# 6 -0.000003 0.000004 0.000013 0.007179 -0.000015 0.051461
#
#
# Mechanical properties :
#
#
# Convention : Reuss Voigt Hill
#
# Bulk Modulus (GPa) = 26.28043 37.80163 32.04103
# Shear Modulus (GPa) = 25.51038 40.23934 32.87486
#
# Velocity S-wave (km/s) = 3.40200 4.27269 3.86196
# Velocity P-wave (km/s) = 5.23014 6.44135 5.86709
#
# Compressibility (1/GPa) = 0.03805113
#
# Stress axis : x y z
#
# Youngs Moduli (GPa) = 57.15262 103.74801 32.23431
#
# Poissons Ratio (x) = 0.42199 0.09959
# Poissons Ratio (y) = 0.23247 0.09337
# Poissons Ratio (z) = 0.17658 0.30053
#
# Static dielectric constant tensor:
#      x y z
#    x 1.818990 0.000000 -0.015860 
#    y 0.000000 1.892530 0.000000 
#    z -0.015860 0.000000 1.877420 
# 
# From -- ./inp_files/258971.got.cif
#   From: 2010.05.17/outbox.cif.g08.bks.cpg/sg15_130_cif.got.tgz:258971.got - 2010.06.03 18:47:42.
