data_PCOD9302881
_publ_section_title
;
Structure prediction by ZEFSAII (Michael W. Deem and Ramdas Pophale) SiO2 
 PCOD9302881
Probable space group: C 2/C
;
_chemical_formula_sum "Si O2"
_cell_formula_units_Z 56
_cell_length_a 11.936813
_cell_length_b 7.599251
_cell_length_c 26.256688
_cell_angle_alpha 90.000000
_cell_angle_beta 119.623223
_cell_angle_gamma 90.000000
_cell_volume 2070.456604
_symmetry_space_group_name_H-M "C 2/C"
_symmetry_group_IT_number 15
_symmetry_cell_setting 'monoclinic'
loop_
_space_group_symop_operation_xyz
x,y,z
-x,y,1/2-z
-x,-y,-z
x,-y,1/2+z
1/2+x,1/2+y,z
1/2-x,1/2+y,1/2-z
1/2-x,1/2-y,-z
1/2+x,1/2-y,1/2+z
loop_
_atom_site_type_symbol
_atom_site_label
_atom_site_fract_x
_atom_site_fract_y
_atom_site_fract_z
Si Si1 0.801239 0.520781 0.321613
Si Si2 0.978115 0.025672 0.646798
Si Si3 0.377132 0.787085 0.744921
Si Si4 0.671360 0.630691 0.604856
Si Si5 0.293462 0.861492 0.460600
Si Si6 0.940442 0.278516 0.021520
Si Si7 0.067913 0.659933 0.868805
O O1 0.711081 0.349840 0.306256
O O2 0.786195 0.596573 0.260727
O O3 0.798405 0.678631 0.361861
O O4 0.948994 0.459694 0.355403
O O5 0.837789 0.090711 0.597434
O O6 0.041856 0.159946 0.699853
O O7 0.074638 0.033192 0.620134
O O8 0.973523 0.832680 0.671115
O O9 0.500000 0.894179 0.750000
O O10 0.611099 0.658764 0.535780
O O11 0.813385 0.554907 0.627836
O O12 0.250000 0.750000 0.500000
O O13 0.404416 0.774818 0.450258
O O14 0.374331 0.031789 0.496938
O O15 0.895412 0.246350 0.068994
#
# Coordination Sequence:
#
# PCOD9302881 Si02
#       7
#     8   8   8   8   8   8   8
#     4  11  26  47  70  99 132 178 224 286 343 402
#     4  11  25  44  67 104 134 181 229 279 340 406
#     4  11  26  46  73  98 130 173 232 282 345 400
#     4  11  24  47  67 102 142 177 227 278 333 408
#     4  11  22  40  68  97 140 181 226 275 335 401
#     4  11  24  40  67 101 140 182 226 268 335 407
#     4  12  26  42  69 101 142 177 223 279 335 402
#
# _framework density 27.047173000000001
#
# number of rings (size 3 to 8) (size 9 to 14) (size 15 to 20)
#    0.000    0.857    2.857    3.857    4.000    5.143 
#    0.000    0.714    0.000    0.000    0.000    0.000 
#    0.000    0.000    0.000    0.000    0.000    0.000 
#
# Total GULP energy -156900.171825 kJ/mol
# GULP energy per Si atom -5603.577565 kJ/mol
# Density = 2.698561 g / cm^3
# Si number density = 27.047173 Si / 1000 Ang^3
#
#
#
# Elastic Constant Matrix: (Units=GPa)
#
#
# Indices 1 2 3 4 5 6 
#
# 1 204.0390 24.2636 40.2584 0.0000 44.5109 0.0000
# 2 24.2636 55.8753 8.4021 0.0000 8.7599 0.0000
# 3 40.2584 8.4021 85.3889 0.0000 19.7520 0.0000
# 4 0.0000 0.0000 0.0000 37.3658 0.0000 3.4157
# 5 44.5109 8.7599 19.7520 0.0000 40.5993 0.0000
# 6 0.0000 0.0000 0.0000 3.4157 0.0000 48.8810
#
#
#
# Elastic Compliance Matrix: (Units=1/GPa)
#
#
# Indices 1 2 3 4 5 6 
#
# 1 0.006793 -0.001724 -0.001573 0.000000 -0.006310 0.000000
# 2 -0.001724 0.019039 -0.000617 0.000000 -0.001918 0.000000
# 3 -0.001573 -0.000617 0.013616 0.000000 -0.004766 0.000000
# 4 0.000000 0.000000 0.000000 0.026935 0.000000 -0.001882
# 5 -0.006310 -0.001918 -0.004766 0.000000 0.034281 0.000000
# 6 0.000000 0.000000 0.000000 -0.001882 0.000000 0.020589
#
#
# Mechanical properties :
#
#
# Convention : Reuss Voigt Hill
#
# Bulk Modulus (GPa) = 31.62618 54.57239 43.09929
# Shear Modulus (GPa) = 35.81090 43.52782 39.66936
#
# Velocity S-wave (km/s) = 3.64265 4.01600 3.83387
# Velocity P-wave (km/s) = 5.42312 6.45948 5.96385
#
# Compressibility (1/GPa) = 0.03161937
#
# Stress axis : x y z
#
# Youngs Moduli (GPa) = 147.21020 52.52360 73.44199
#
# Poissons Ratio (x) = 0.09055 0.11556
# Poissons Ratio (y) = 0.25379 0.04531
# Poissons Ratio (z) = 0.23163 0.03241
#
# Static dielectric constant tensor:
#      x y z
#    x 2.164590 0.000000 -0.112310 
#    y 0.000000 2.172910 0.000000 
#    z -0.112310 0.000000 2.193860 
# 
# From -- ./inp_files/310382.got.cif
#   From: 2010.05.17/outbox.cif.g08.bks.cpg/sg15_156_cif.got.tgz:310382.got - 2010.06.03 18:47:42.
