data_PCOD9302042
_publ_section_title
;
Structure prediction by ZEFSAII (Michael W. Deem and Ramdas Pophale) SiO2 
 PCOD9302042
Probable space group: C 2/C
;
_chemical_formula_sum "Si O2"
_cell_formula_units_Z 48
_cell_length_a 18.584883
_cell_length_b 8.894037
_cell_length_c 30.327656
_cell_angle_alpha 90.000000
_cell_angle_beta 24.130571
_cell_angle_gamma 90.000000
_cell_volume 2049.401465
_symmetry_space_group_name_H-M "C 2/C"
_symmetry_group_IT_number 15
_symmetry_cell_setting 'monoclinic'
loop_
_space_group_symop_operation_xyz
x,y,z
-x,y,1/2-z
-x,-y,-z
x,-y,1/2+z
1/2+x,1/2+y,z
1/2-x,1/2+y,1/2-z
1/2-x,1/2-y,-z
1/2+x,1/2-y,1/2+z
loop_
_atom_site_type_symbol
_atom_site_label
_atom_site_fract_x
_atom_site_fract_y
_atom_site_fract_z
Si Si1 0.292334 0.679889 0.854104
Si Si2 0.751155 0.868760 0.538680
Si Si3 0.113901 0.189313 0.040220
Si Si4 0.361638 0.872499 0.733077
Si Si5 0.746946 0.700240 0.784197
Si Si6 0.289063 0.332963 0.857681
O O1 0.500000 0.673644 0.750000
O O2 0.211926 0.788257 0.935796
O O3 0.277378 0.756706 0.814999
O O4 0.232633 0.508057 0.890125
O O5 0.750000 0.750000 0.500000
O O6 0.546518 0.924969 0.651469
O O7 0.874643 0.010093 0.462312
O O8 0.928193 0.256453 0.157927
O O9 0.250000 0.250000 0.000000
O O10 0.182636 0.242496 0.954246
O O11 0.389835 0.782691 0.671687
O O12 0.247481 0.020752 0.788392
O O13 0.751900 0.769063 0.830080
O O14 0.500000 0.323108 0.750000
#
# Coordination Sequence:
#
# PCOD9302042 Si02
#       6
#     8   8   8   8   8   8
#     4   9  21  39  66  93 127 173 217 265 330 391
#     4  11  23  40  69  96 131 167 224 273 324 394
#     4  12  23  42  69 101 127 173 229 268 325 397
#     4  11  24  44  62  96 134 175 212 274 335 388
#     4  12  26  43  69  96 138 173 219 273 336 394
#     4  11  21  41  68  96 132 173 221 276 328 393
#
# _framework density 23.421471
#
# number of rings (size 3 to 8) (size 9 to 14) (size 15 to 20)
#    0.000    1.000    3.333    3.000    7.000    1.333 
#    3.000    3.333    0.000    0.000    0.000    0.000 
#    0.000    0.000    0.000    0.000    0.000    0.000 
#
# Total GULP energy -134453.442842 kJ/mol
# GULP energy per Si atom -5602.226785 kJ/mol
# Density = 2.336816 g / cm^3
# Si number density = 23.421471 Si / 1000 Ang^3
#
#
#
# Elastic Constant Matrix: (Units=GPa)
#
#
# Indices 1 2 3 4 5 6 
#
# 1 171.0942 57.5663 33.8095 -0.0002 31.2519 -0.0027
# 2 57.5663 165.5711 -4.4255 -0.0008 13.0689 -0.0044
# 3 33.8095 -4.4255 67.4723 -0.0107 3.3497 -0.0037
# 4 -0.0002 -0.0008 -0.0107 28.1038 -0.0025 13.4382
# 5 31.2519 13.0689 3.3497 -0.0025 48.3551 -0.0002
# 6 -0.0027 -0.0044 -0.0037 13.4382 -0.0002 39.4830
#
#
#
# Elastic Compliance Matrix: (Units=1/GPa)
#
#
# Indices 1 2 3 4 5 6 
#
# 1 0.008367 -0.002673 -0.004150 -0.000002 -0.004398 0.000001
# 2 -0.002673 0.007041 0.001816 0.000001 -0.000301 0.000001
# 3 -0.004150 0.001816 0.016969 0.000007 0.001016 -0.000001
# 4 -0.000002 0.000001 0.000007 0.042499 0.000003 -0.014465
# 5 -0.004398 -0.000301 0.001016 0.000003 0.023534 -0.000001
# 6 0.000001 0.000001 -0.000001 -0.014465 -0.000001 0.030250
#
#
# Mechanical properties :
#
#
# Convention : Reuss Voigt Hill
#
# Bulk Modulus (GPa) = 44.71337 64.22644 54.46991
# Shear Modulus (GPa) = 34.21633 44.33420 39.27527
#
# Velocity S-wave (km/s) = 3.82631 4.35545 4.09943
# Velocity P-wave (km/s) = 6.21716 7.26463 6.76121
#
# Compressibility (1/GPa) = 0.02236468
#
# Stress axis : x y z
#
# Youngs Moduli (GPa) = 119.51072 142.01746 58.93093
#
# Poissons Ratio (x) = 0.37961 0.24455
# Poissons Ratio (y) = 0.31945 -0.10703
# Poissons Ratio (z) = 0.49595 -0.25793
#
# Static dielectric constant tensor:
#      x y z
#    x 1.884150 0.000000 -0.099800 
#    y 0.000000 1.841230 0.000000 
#    z -0.099800 0.000000 1.968300 
# 
# From -- ./inp_files/315616.got.cif
#   From: 2010.05.17/outbox.cif.g08.bks.cpg/sg15_158_cif.got.tgz:315616.got - 2010.06.03 18:47:42.
