data_PCOD9302878
_publ_section_title
;
Structure prediction by ZEFSAII (Michael W. Deem and Ramdas Pophale) SiO2 
 PCOD9302878
Probable space group: C 2/C
;
_chemical_formula_sum "Si O2"
_cell_formula_units_Z 48
_cell_length_a 13.030109
_cell_length_b 21.900198
_cell_length_c 12.440499
_cell_angle_alpha 90.000000
_cell_angle_beta 42.942903
_cell_angle_gamma 90.000000
_cell_volume 2418.536517
_symmetry_space_group_name_H-M "C 2/C"
_symmetry_group_IT_number 15
_symmetry_cell_setting 'monoclinic'
loop_
_space_group_symop_operation_xyz
x,y,z
-x,y,1/2-z
-x,-y,-z
x,-y,1/2+z
1/2+x,1/2+y,z
1/2-x,1/2+y,1/2-z
1/2-x,1/2-y,-z
1/2+x,1/2-y,1/2+z
loop_
_atom_site_type_symbol
_atom_site_label
_atom_site_fract_x
_atom_site_fract_y
_atom_site_fract_z
Si Si1 0.839305 0.349791 0.197895
Si Si2 0.172049 0.381488 0.883105
Si Si3 0.153031 0.770435 0.676263
Si Si4 0.183131 0.439801 0.100842
Si Si5 0.679098 0.921045 0.639522
Si Si6 0.178482 0.188493 0.604909
O O1 0.888328 0.290930 0.228994
O O2 0.766103 0.397969 0.337527
O O3 0.737342 0.326606 0.179284
O O4 0.991448 0.377242 0.031309
O O5 0.249115 0.315201 0.825643
O O6 0.204866 0.414504 0.747021
O O7 0.225583 0.412485 0.952853
O O8 0.250000 0.750000 0.500000
O O9 0.000000 0.800202 0.750000
O O10 0.225778 0.510448 0.072675
O O11 0.000000 0.437055 0.250000
O O12 0.500000 0.913861 0.750000
O O13 0.769348 0.868512 0.508394
O O14 0.250000 0.250000 0.500000
O O15 0.000000 0.195435 0.750000
#
# Coordination Sequence:
#
# PCOD9302878 Si02
#       6
#     8   8   8   8   8   8
#     4  11  22  40  68  94 133 169 219 271 322 386
#     4  11  22  41  66  98 133 167 219 271 321 385
#     4  12  22  38  63  96 131 165 213 268 328 383
#     4   9  21  38  67 102 127 171 220 269 319 379
#     4  11  23  42  71  99 127 173 222 266 322 384
#     4  12  28  46  67  96 134 174 219 268 329 394
#
# _framework density 19.846713999999999
#
# number of rings (size 3 to 8) (size 9 to 14) (size 15 to 20)
#    0.000    1.000    5.000    2.000    4.667    3.333 
#    0.000    1.667    0.000    0.000    0.000    0.000 
#    0.000    0.000    0.000    0.000    0.000    0.000 
#
# Total GULP energy -134110.286333 kJ/mol
# GULP energy per Si atom -5587.928597 kJ/mol
# Density = 1.980154 g / cm^3
# Si number density = 19.846714 Si / 1000 Ang^3
#
#
#
# Elastic Constant Matrix: (Units=GPa)
#
#
# Indices 1 2 3 4 5 6 
#
# 1 108.5258 36.0838 47.9645 -0.0001 13.3953 0.0000
# 2 36.0838 133.1057 41.1393 0.0000 13.2374 0.0000
# 3 47.9645 41.1393 75.1745 -0.0001 10.4722 0.0000
# 4 -0.0001 0.0000 -0.0001 13.1959 0.0000 -2.3627
# 5 13.3953 13.2374 10.4722 0.0000 36.0365 0.0000
# 6 0.0000 0.0000 0.0000 -2.3627 0.0000 24.3657
#
#
#
# Elastic Compliance Matrix: (Units=1/GPa)
#
#
# Indices 1 2 3 4 5 6 
#
# 1 0.013162 -0.001012 -0.007519 0.000000 -0.002336 0.000000
# 2 -0.001012 0.009255 -0.004167 0.000000 -0.001813 0.000000
# 3 -0.007519 -0.004167 0.020612 0.000000 -0.001664 0.000000
# 4 0.000000 0.000000 0.000000 0.077120 0.000000 0.007478
# 5 -0.002336 -0.001813 -0.001664 0.000000 0.029767 0.000000
# 6 0.000000 0.000000 0.000000 0.007478 0.000000 0.041767
#
#
# Mechanical properties :
#
#
# Convention : Reuss Voigt Hill
#
# Bulk Modulus (GPa) = 56.70806 63.02014 59.86410
# Shear Modulus (GPa) = 22.42588 27.49417 24.96002
#
# Velocity S-wave (km/s) = 3.36513 3.72603 3.55017
# Velocity P-wave (km/s) = 6.61315 7.09461 6.85811
#
# Compressibility (1/GPa) = 0.01763418
#
# Stress axis : x y z
#
# Youngs Moduli (GPa) = 75.97474 108.04654 48.51578
#
# Poissons Ratio (x) = 0.10934 0.36478
# Poissons Ratio (y) = 0.07689 0.20215
# Poissons Ratio (z) = 0.57124 0.45020
#
# Static dielectric constant tensor:
#      x y z
#    x 1.713340 0.000000 -0.012690 
#    y 0.000000 1.698170 0.000000 
#    z -0.012690 0.000000 1.687810 
# 
# From -- ./inp_files/89386.got.cif
#   From: 2010.05.17/outbox.cif.g08.bks.cpg/sg15_45_cif.got.tgz:89386.got - 2010.06.03 18:47:42.
