data_PCOD9302134
_publ_section_title
;
Structure prediction by ZEFSAII (Michael W. Deem and Ramdas Pophale) SiO2 
 PCOD9302134
Probable space group: C 2/C
;
_chemical_formula_sum "Si O2"
_cell_formula_units_Z 40
_cell_length_a 9.024719
_cell_length_b 20.777678
_cell_length_c 17.207776
_cell_angle_alpha 90.000000
_cell_angle_beta 150.903724
_cell_angle_gamma 90.000000
_cell_volume 1569.063755
_symmetry_space_group_name_H-M "C 2/C"
_symmetry_group_IT_number 15
_symmetry_cell_setting 'monoclinic'
loop_
_space_group_symop_operation_xyz
x,y,z
-x,y,1/2-z
-x,-y,-z
x,-y,1/2+z
1/2+x,1/2+y,z
1/2-x,1/2+y,1/2-z
1/2-x,1/2-y,-z
1/2+x,1/2-y,1/2+z
loop_
_atom_site_type_symbol
_atom_site_label
_atom_site_fract_x
_atom_site_fract_y
_atom_site_fract_z
Si Si1 0.644814 0.330566 0.610558
Si Si2 0.234974 0.394744 0.679725
Si Si3 0.850855 0.318042 0.379661
Si Si4 0.265349 0.585128 0.815767
Si Si5 0.204449 0.972152 0.413009
O O1 0.599630 0.367212 0.670630
O O2 0.563573 0.256486 0.591366
O O3 0.460401 0.366365 0.458819
O O4 0.000000 0.331462 0.750000
O O5 0.500000 0.431730 0.750000
O O6 0.086772 0.344273 0.552178
O O7 0.928541 0.428112 0.567301
O O8 0.500000 0.315146 0.250000
O O9 0.857122 0.366894 0.309073
O O10 0.437179 0.523333 0.855661
O O11 0.000000 0.560709 0.750000
O O12 0.000000 0.943109 0.250000
O O13 0.500000 0.000000 0.500000
#
# Coordination Sequence:
#
# PCOD9302134 Si02
#       5
#     8   8   8   8   8
#     4  11  23  38  70 111 157 196 239 292 357 434
#     4  12  23  41  71 104 144 193 245 293 358 442
#     4  11  21  42  68 104 158 212 238 274 359 451
#     4  12  24  44  73 108 155 188 244 311 359 426
#     4  12  26  52  78 100 132 192 247 307 385 452
#
# _framework density 25.492910999999999
#
# number of rings (size 3 to 8) (size 9 to 14) (size 15 to 20)
#    0.000    0.400    6.000    3.000    0.000    8.000 
#    0.000    1.000    0.000    0.000    0.000    0.000 
#    0.000    0.000    0.000    0.000    0.000    0.000 
#
# Total GULP energy -111391.109769 kJ/mol
# GULP energy per Si atom -5569.555488 kJ/mol
# Density = 2.543489 g / cm^3
# Si number density = 25.492911 Si / 1000 Ang^3
#
#
#
# Elastic Constant Matrix: (Units=GPa)
#
#
# Indices 1 2 3 4 5 6 
#
# 1 197.0580 36.2901 34.2960 0.0071 27.1112 0.0094
# 2 36.2901 50.4033 26.5620 0.0107 4.0926 0.0109
# 3 34.2960 26.5620 136.1775 0.0616 -8.2878 0.0203
# 4 0.0071 0.0107 0.0616 19.0460 -0.0049 -2.2870
# 5 27.1112 4.0926 -8.2878 -0.0049 61.9106 -0.0014
# 6 0.0094 0.0109 0.0203 -2.2870 -0.0014 8.9079
#
#
#
# Elastic Compliance Matrix: (Units=1/GPa)
#
#
# Indices 1 2 3 4 5 6 
#
# 1 0.006315 -0.003799 -0.001011 0.000002 -0.002649 0.000001
# 2 -0.003799 0.024661 -0.003883 -0.000002 -0.000487 -0.000018
# 3 -0.001011 -0.003883 0.008467 -0.000027 0.001833 -0.000020
# 4 0.000002 -0.000002 -0.000027 0.054175 0.000000 0.013909
# 5 -0.002649 -0.000487 0.001833 0.000000 0.017590 0.000002
# 6 0.000001 -0.000018 -0.000020 0.013909 0.000002 0.115830
#
#
# Mechanical properties :
#
#
# Convention : Reuss Voigt Hill
#
# Bulk Modulus (GPa) = 45.33626 64.21500 54.77563
# Shear Modulus (GPa) = 19.85900 37.07230 28.46565
#
# Velocity S-wave (km/s) = 2.79409 3.81756 3.34520
# Velocity P-wave (km/s) = 5.31335 6.68399 6.03769
#
# Compressibility (1/GPa) = 0.02205740
#
# Stress axis : x y z
#
# Youngs Moduli (GPa) = 158.36269 40.54995 118.10778
#
# Poissons Ratio (x) = 0.15404 0.11936
# Poissons Ratio (y) = 0.60159 0.45863
# Poissons Ratio (z) = 0.16004 0.15746
#
# Static dielectric constant tensor:
#      x y z
#    x 1.971890 0.000000 0.131500 
#    y 0.000000 2.192370 -0.000020 
#    z 0.131500 -0.000020 1.971010 
# 
# From -- ./inp_files/193420.got.cif
#   From: 2010.05.17/outbox.cif.g08.bks.cpg/sg15_97_cif.got.tgz:193420.got - 2010.06.03 18:47:42.
