data_PCOD9302278
_publ_section_title
;
Structure prediction by ZEFSAII (Michael W. Deem and Ramdas Pophale) SiO2 
 PCOD9302278
Probable space group: C 2/C
;
_chemical_formula_sum "Si O2"
_cell_formula_units_Z 44
_cell_length_a 10.515195
_cell_length_b 17.250321
_cell_length_c 16.514237
_cell_angle_alpha 90.000000
_cell_angle_beta 47.287399
_cell_angle_gamma 90.000000
_cell_volume 2201.008603
_symmetry_space_group_name_H-M "C 2/C"
_symmetry_group_IT_number 15
_symmetry_cell_setting 'monoclinic'
loop_
_space_group_symop_operation_xyz
x,y,z
-x,y,1/2-z
-x,-y,-z
x,-y,1/2+z
1/2+x,1/2+y,z
1/2-x,1/2+y,1/2-z
1/2-x,1/2-y,-z
1/2+x,1/2-y,1/2+z
loop_
_atom_site_type_symbol
_atom_site_label
_atom_site_fract_x
_atom_site_fract_y
_atom_site_fract_z
Si Si1 0.167104 0.944841 0.442031
Si Si2 0.500000 0.955503 0.750000
Si Si3 0.675506 0.444198 0.621806
Si Si4 0.411265 0.848338 0.639527
Si Si5 0.860340 0.826398 0.192785
Si Si6 0.261747 0.626265 0.906534
O O1 0.152082 0.914982 0.540412
O O2 0.168297 0.877863 0.374204
O O3 0.344859 0.993008 0.353716
O O4 0.000000 0.000000 0.500000
O O5 0.417488 0.901104 0.716725
O O6 0.500000 0.445055 0.750000
O O7 0.810813 0.393832 0.613112
O O8 0.736062 0.533295 0.587628
O O9 0.333694 0.764152 0.689382
O O10 0.607175 0.838715 0.524606
O O11 0.747008 0.853779 0.318109
O O12 0.056958 0.842283 0.137487
#
# Coordination Sequence:
#
# PCOD9302278 Si02
#       6
#     8   4   8   8   8   8
#     4  12  24  44  70  97 133 180 227 274 329 410
#     4  12  24  42  72  98 126 176 238 262 328 412
#     4  12  24  44  70  96 135 178 223 272 335 396
#     4  12  26  41  67 104 129 170 224 283 325 393
#     4  11  24  42  67  98 135 172 215 279 341 383
#     4  11  21  44  70  92 133 176 222 269 330 398
#
# _framework density 19.990835000000001
#
# number of rings (size 3 to 8) (size 9 to 14) (size 15 to 20)
#    0.000    0.364    5.455    4.364    2.545    3.636 
#    1.636    0.000    0.000    0.000    0.000    0.000 
#    0.000    0.000    0.000    0.000    0.000    0.000 
#
# Total GULP energy -123110.589748 kJ/mol
# GULP energy per Si atom -5595.935898 kJ/mol
# Density = 1.994533 g / cm^3
# Si number density = 19.990835 Si / 1000 Ang^3
#
#
#
# Elastic Constant Matrix: (Units=GPa)
#
#
# Indices 1 2 3 4 5 6 
#
# 1 74.3005 21.8029 15.2488 -0.0003 30.3710 0.0001
# 2 21.8029 36.9662 6.6385 0.0000 -1.8497 0.0001
# 3 15.2488 6.6385 108.4546 -0.0004 26.6436 0.0001
# 4 -0.0003 0.0000 -0.0004 15.8137 0.0003 2.2977
# 5 30.3710 -1.8497 26.6436 0.0003 41.4279 0.0000
# 6 0.0001 0.0001 0.0001 2.2977 0.0000 20.3479
#
#
#
# Elastic Compliance Matrix: (Units=1/GPa)
#
#
# Indices 1 2 3 4 5 6 
#
# 1 0.027360 -0.017775 0.002807 0.000001 -0.022656 0.000000
# 2 -0.017775 0.039162 -0.004191 -0.000001 0.017475 0.000000
# 3 0.002807 -0.004191 0.011442 0.000001 -0.009603 0.000000
# 4 0.000001 -0.000001 0.000001 0.064291 -0.000002 -0.007260
# 5 -0.022656 0.017475 -0.009603 -0.000002 0.047704 0.000000
# 6 0.000000 0.000000 0.000000 -0.007260 0.000000 0.049965
#
#
# Mechanical properties :
#
#
# Convention : Reuss Voigt Hill
#
# Bulk Modulus (GPa) = 25.22279 34.12239 29.67259
# Shear Modulus (GPa) = 17.15523 27.25331 22.20427
#
# Velocity S-wave (km/s) = 2.93261 3.69628 3.33637
# Velocity P-wave (km/s) = 4.91034 5.94329 5.45134
#
# Compressibility (1/GPa) = 0.03964668
#
# Stress axis : x y z
#
# Youngs Moduli (GPa) = 36.55022 25.53474 87.40094
#
# Poissons Ratio (x) = 0.45387 -0.24535
# Poissons Ratio (y) = 0.64967 0.36629
# Poissons Ratio (z) = -0.10260 0.10701
#
# Static dielectric constant tensor:
#      x y z
#    x 1.692110 0.000000 -0.006990 
#    y 0.000000 1.712460 0.000000 
#    z -0.006990 0.000000 1.705960 
# 
# From -- ./inp_files/134758.got.cif
#   From: 2010.05.17/outbox.cif.g08.bks.cpg/sg15_68_cif.got.tgz:134758.got - 2010.06.03 18:47:42.
