data_PCOD9302510
_publ_section_title
;
Structure prediction by ZEFSAII (Michael W. Deem and Ramdas Pophale) SiO2 
 PCOD9302510
Probable space group: C 2/C
;
_chemical_formula_sum "Si O2"
_cell_formula_units_Z 52
_cell_length_a 10.918348
_cell_length_b 28.204553
_cell_length_c 8.367854
_cell_angle_alpha 90.000000
_cell_angle_beta 103.954448
_cell_angle_gamma 90.000000
_cell_volume 2500.807759
_symmetry_space_group_name_H-M "C 2/C"
_symmetry_group_IT_number 15
_symmetry_cell_setting 'monoclinic'
loop_
_space_group_symop_operation_xyz
x,y,z
-x,y,1/2-z
-x,-y,-z
x,-y,1/2+z
1/2+x,1/2+y,z
1/2-x,1/2+y,1/2-z
1/2-x,1/2-y,-z
1/2+x,1/2-y,1/2+z
loop_
_atom_site_type_symbol
_atom_site_label
_atom_site_fract_x
_atom_site_fract_y
_atom_site_fract_z
Si Si1 0.929146 0.649945 0.059118
Si Si2 0.000000 0.087877 0.250000
Si Si3 0.136447 0.854731 0.535154
Si Si4 0.709328 0.463329 0.010106
Si Si5 0.138188 0.054371 0.834210
Si Si6 0.033717 0.552286 0.073075
Si Si7 0.091538 0.248521 0.939948
O O1 0.784956 0.650632 0.066487
O O2 0.949694 0.702001 0.987826
O O3 0.000000 0.649589 0.250000
O O4 0.964575 0.600145 0.987188
O O5 0.903995 0.120495 0.315686
O O6 0.920672 0.057925 0.097873
O O7 0.113431 0.893171 0.388946
O O8 0.068628 0.804165 0.499236
O O9 0.701300 0.520226 0.985605
O O10 0.820912 0.443557 0.934680
O O11 0.719221 0.449591 0.198126
O O12 0.000000 0.034451 0.750000
O O13 0.000000 0.550908 0.250000
O O14 0.000000 0.500000 0.000000
O O15 0.000000 0.249086 0.750000
O O16 0.250000 0.250000 0.000000
#
# Coordination Sequence:
#
# PCOD9302510 Si02
#       7
#     8   4   8   8   8   8   8
#     4   9  19  39  63  86 120 164 211 257 319 381
#     4  12  22  36  56  88 128 164 208 260 322 388
#     4  11  22  37  64  91 123 166 213 266 329 385
#     4  12  24  37  60  89 129 167 214 257 325 388
#     4  12  22  40  57  91 129 166 207 269 320 388
#     4  11  22  39  60  87 121 163 206 253 307 384
#     4   9  19  37  66  93 123 167 223 273 332 393
#
# _framework density 20.793281
#
# number of rings (size 3 to 8) (size 9 to 14) (size 15 to 20)
#    0.000    1.231    2.308    5.538    0.000    0.000 
#    0.000    0.000   11.846    5.538    0.000    0.000 
#    0.000    0.000    0.000    0.000    0.000    0.000 
#
# Total GULP energy -144754.854421 kJ/mol
# GULP energy per Si atom -5567.494401 kJ/mol
# Density = 2.074595 g / cm^3
# Si number density = 20.793281 Si / 1000 Ang^3
#
#
#
# Elastic Constant Matrix: (Units=GPa)
#
#
# Indices 1 2 3 4 5 6 
#
# 1 63.7530 17.2403 2.1585 0.0000 -1.6799 0.0000
# 2 17.2403 202.9457 31.4921 0.0000 -2.5443 0.0000
# 3 2.1585 31.4921 54.1562 0.0000 -6.4588 0.0000
# 4 0.0000 0.0000 0.0000 17.2277 0.0000 8.0714
# 5 -1.6799 -2.5443 -6.4588 0.0000 35.2366 0.0000
# 6 0.0000 0.0000 0.0000 8.0714 0.0000 29.7674
#
#
#
# Elastic Compliance Matrix: (Units=1/GPa)
#
#
# Indices 1 2 3 4 5 6 
#
# 1 0.016073 -0.001396 0.000256 0.000000 0.000712 0.000000
# 2 -0.001396 0.005539 -0.003195 0.000000 -0.000252 0.000000
# 3 0.000256 -0.003195 0.020740 0.000000 0.003583 0.000000
# 4 0.000000 0.000000 0.000000 0.066493 0.000000 -0.018030
# 5 0.000712 -0.000252 0.003583 0.000000 0.029052 0.000000
# 6 0.000000 0.000000 0.000000 -0.018030 0.000000 0.038482
#
#
# Mechanical properties :
#
#
# Convention : Reuss Voigt Hill
#
# Bulk Modulus (GPa) = 29.68966 46.95964 38.32465
# Shear Modulus (GPa) = 25.47416 34.44396 29.95906
#
# Velocity S-wave (km/s) = 3.50396 4.07442 3.79991
# Velocity P-wave (km/s) = 5.53894 6.69086 6.14196
#
# Compressibility (1/GPa) = 0.03368176
#
# Stress axis : x y z
#
# Youngs Moduli (GPa) = 62.21530 180.54790 48.21541
#
# Poissons Ratio (x) = 0.25209 -0.01236
# Poissons Ratio (y) = 0.08687 0.15406
# Poissons Ratio (z) = -0.01594 0.57689
#
# Static dielectric constant tensor:
#      x y z
#    x 1.844760 0.000000 -0.002100 
#    y 0.000000 1.827570 0.000000 
#    z -0.002100 0.000000 1.705050 
# 
# From -- ./inp_files/33671.got.cif
#   From: 2010.05.17/outbox.cif.g08.bks.cpg/sg15_17_cif.got.tgz:33671.got - 2010.06.03 18:47:42.
