data_PCOD9302755
_publ_section_title
;
Structure prediction by ZEFSAII (Michael W. Deem and Ramdas Pophale) SiO2 
 PCOD9302755
Probable space group: C 2/C
;
_chemical_formula_sum "Si O2"
_cell_formula_units_Z 52
_cell_length_a 14.736120
_cell_length_b 14.961619
_cell_length_c 13.887453
_cell_angle_alpha 90.000000
_cell_angle_beta 117.828287
_cell_angle_gamma 90.000000
_cell_volume 2707.751614
_symmetry_space_group_name_H-M "C 2/C"
_symmetry_group_IT_number 15
_symmetry_cell_setting 'monoclinic'
loop_
_space_group_symop_operation_xyz
x,y,z
-x,y,1/2-z
-x,-y,-z
x,-y,1/2+z
1/2+x,1/2+y,z
1/2-x,1/2+y,1/2-z
1/2-x,1/2-y,-z
1/2+x,1/2-y,1/2+z
loop_
_atom_site_type_symbol
_atom_site_label
_atom_site_fract_x
_atom_site_fract_y
_atom_site_fract_z
Si Si1 0.417419 0.795461 0.421696
Si Si2 0.000000 0.876486 0.750000
Si Si3 0.151071 0.640614 0.014044
Si Si4 0.331519 0.757885 0.165644
Si Si5 0.762002 0.444489 0.396883
Si Si6 0.891956 0.015153 0.838560
Si Si7 0.596847 0.392944 0.476172
O O1 0.533522 0.832793 0.475984
O O2 0.375425 0.781278 0.291840
O O3 0.348699 0.870362 0.437364
O O4 0.400745 0.702870 0.470833
O O5 0.086999 0.813602 0.837972
O O6 0.055946 0.937936 0.700668
O O7 0.172395 0.662086 0.912066
O O8 0.223556 0.707122 0.111657
O O9 0.187721 0.540074 0.053002
O O10 0.708703 0.453513 0.266017
O O11 0.672409 0.411579 0.424735
O O12 0.874857 0.970037 0.932742
O O13 0.978733 0.090360 0.888741
#
# Coordination Sequence:
#
# PCOD9302755 Si02
#       7
#     8   4   8   8   8   8   8
#     4  12  25  41  63  95 138 172 218 264 328 405
#     4  12  16  44  64 104 120 160 216 288 292 384
#     4  11  23  42  66  96 127 179 218 272 328 379
#     4  11  22  39  70  95 128 161 228 276 321 374
#     4  12  25  41  63  95 138 172 218 264 328 405
#     4  11  22  39  70  95 128 161 228 276 321 374
#     4  11  23  42  66  96 127 179 218 272 328 379
#
# _framework density 19.204124
#
# number of rings (size 3 to 8) (size 9 to 14) (size 15 to 20)
#    0.000    0.615    6.154    0.923    4.308    2.462 
#    0.000    0.000    0.000    0.000    0.000    0.000 
#    0.000    0.000    0.000    0.000    0.000    0.000 
#
# Total GULP energy -145300.136742 kJ/mol
# GULP energy per Si atom -5588.466798 kJ/mol
# Density = 1.916042 g / cm^3
# Si number density = 19.204124 Si / 1000 Ang^3
#
#
#
# Elastic Constant Matrix: (Units=GPa)
#
#
# Indices 1 2 3 4 5 6 
#
# 1 64.9561 56.5646 29.7481 0.0000 24.9435 0.0000
# 2 56.5646 100.4689 43.5568 0.0000 24.9184 0.0000
# 3 29.7481 43.5568 94.5359 0.0000 31.2123 0.0000
# 4 0.0000 0.0000 0.0000 4.0874 0.0000 6.2747
# 5 24.9435 24.9184 31.2123 0.0000 26.2349 0.0000
# 6 0.0000 0.0000 0.0000 6.2747 0.0000 34.3891
#
#
#
# Elastic Compliance Matrix: (Units=1/GPa)
#
#
# Indices 1 2 3 4 5 6 
#
# 1 0.037679 -0.016859 0.004038 0.000000 -0.024616 0.000000
# 2 -0.016859 0.021162 -0.005107 0.000000 0.002006 0.000000
# 3 0.004038 -0.005107 0.018654 0.000000 -0.021181 0.000000
# 4 0.000000 0.000000 0.000000 0.339847 0.000000 -0.062009
# 5 -0.024616 0.002006 -0.021181 0.000000 0.084816 0.000000
# 6 0.000000 0.000000 0.000000 -0.062009 0.000000 0.040393
#
#
# Mechanical properties :
#
#
# Convention : Reuss Voigt Hill
#
# Bulk Modulus (GPa) = 24.01617 57.74445 40.88031
# Shear Modulus (GPa) = 8.44185 21.61504 15.02845
#
# Velocity S-wave (km/s) = 2.09890 3.35855 2.80047
# Velocity P-wave (km/s) = 4.29031 6.72115 5.63829
#
# Compressibility (1/GPa) = 0.04163861
#
# Stress axis : x y z
#
# Youngs Moduli (GPa) = 26.53964 47.25461 53.60898
#
# Poissons Ratio (x) = 0.79668 -0.21649
# Poissons Ratio (y) = 0.44744 0.27379
# Poissons Ratio (z) = -0.10717 0.24134
#
# Static dielectric constant tensor:
#      x y z
#    x 1.678240 0.000000 -0.004900 
#    y 0.000000 1.666880 0.000000 
#    z -0.004900 0.000000 1.681830 
# 
# From -- ./inp_files/154073.got.cif
#   From: 2010.05.17/outbox.cif.g08.bks.cpg/sg15_78_cif.got.tgz:154073.got - 2010.06.03 18:47:42.
