data_PCOD9302546
_publ_section_title
;
Structure prediction by ZEFSAII (Michael W. Deem and Ramdas Pophale) SiO2 
 PCOD9302546
Probable space group: C 2/C
;
_chemical_formula_sum "Si O2"
_cell_formula_units_Z 32
_cell_length_a 9.938335
_cell_length_b 10.427494
_cell_length_c 19.174137
_cell_angle_alpha 90.000000
_cell_angle_beta 39.655545
_cell_angle_gamma 90.000000
_cell_volume 1268.078792
_symmetry_space_group_name_H-M "C 2/C"
_symmetry_group_IT_number 15
_symmetry_cell_setting 'monoclinic'
loop_
_space_group_symop_operation_xyz
x,y,z
-x,y,1/2-z
-x,-y,-z
x,-y,1/2+z
1/2+x,1/2+y,z
1/2-x,1/2+y,1/2-z
1/2-x,1/2-y,-z
1/2+x,1/2-y,1/2+z
loop_
_atom_site_type_symbol
_atom_site_label
_atom_site_fract_x
_atom_site_fract_y
_atom_site_fract_z
Si Si1 0.479263 0.787314 0.464533
Si Si2 0.117139 0.312667 0.638104
Si Si3 0.943408 0.887377 0.853245
Si Si4 0.523378 0.618685 0.910633
O O1 0.719937 0.794809 0.395162
O O2 0.312014 0.898869 0.541518
O O3 0.483853 0.739118 0.383643
O O4 0.389085 0.670031 0.550741
O O5 0.278190 0.399831 0.531750
O O6 0.968811 0.241107 0.643299
O O7 0.000000 0.372894 0.750000
O O8 0.000000 0.882624 0.750000
O O9 0.071889 0.996059 0.844899
#
# Coordination Sequence:
#
# PCOD9302546 Si02
#       4
#     8   8   8   8
#     4   9  22  38  58  87 124 149 202 252 292 364
#     4   9  19  37  61  85 120 158 194 254 303 346
#     4  11  22  38  61  87 121 162 196 248 309 358
#     4   9  20  38  59  88 119 152 209 241 292 370
#
# _framework density 25.235023999999999
#
# number of rings (size 3 to 8) (size 9 to 14) (size 15 to 20)
#    1.500    1.000    0.000    1.500    3.500    1.000 
#    0.000    7.500    0.000    0.000    0.000    0.000 
#    0.000    0.000    0.000    0.000    0.000    0.000 
#
# Total GULP energy -89101.528426 kJ/mol
# GULP energy per Si atom -5568.845527 kJ/mol
# Density = 2.517759 g / cm^3
# Si number density = 25.235024 Si / 1000 Ang^3
#
#
#
# Elastic Constant Matrix: (Units=GPa)
#
#
# Indices 1 2 3 4 5 6 
#
# 1 100.5572 16.2292 30.8852 0.0000 23.6074 0.0000
# 2 16.2292 52.3720 20.1150 0.0000 20.9742 0.0000
# 3 30.8852 20.1150 140.9841 0.0000 53.1890 0.0000
# 4 0.0000 0.0000 0.0000 10.2421 0.0000 5.7811
# 5 23.6074 20.9742 53.1890 0.0000 43.6617 0.0000
# 6 0.0000 0.0000 0.0000 5.7811 0.0000 21.3553
#
#
#
# Elastic Compliance Matrix: (Units=1/GPa)
#
#
# Indices 1 2 3 4 5 6 
#
# 1 0.011477 -0.001380 -0.000419 0.000000 -0.005032 0.000000
# 2 -0.001380 0.024027 0.001753 0.000000 -0.012931 0.000000
# 3 -0.000419 0.001753 0.013262 0.000000 -0.016771 0.000000
# 4 0.000000 0.000000 0.000000 0.115246 0.000000 -0.031198
# 5 -0.005032 -0.012931 -0.016771 0.000000 0.052267 0.000000
# 6 0.000000 0.000000 0.000000 -0.031198 0.000000 0.055272
#
#
# Mechanical properties :
#
#
# Convention : Reuss Voigt Hill
#
# Bulk Modulus (GPa) = 20.54480 47.59689 34.07085
# Shear Modulus (GPa) = 17.36892 30.16408 23.76650
#
# Velocity S-wave (km/s) = 2.62637 3.46110 3.07222
# Velocity P-wave (km/s) = 4.16607 5.90548 5.11032
#
# Compressibility (1/GPa) = 0.04867411
#
# Stress axis : x y z
#
# Youngs Moduli (GPa) = 87.12738 41.61901 75.40340
#
# Poissons Ratio (x) = 0.05745 0.03158
# Poissons Ratio (y) = 0.12027 -0.13217
# Poissons Ratio (z) = 0.03649 -0.07295
#
# Static dielectric constant tensor:
#      x y z
#    x 2.070700 0.000000 -0.050470 
#    y 0.000000 2.025880 0.000000 
#    z -0.050470 0.000000 1.981920 
# 
# From -- ./inp_files/141014.got.cif
#   From: 2010.05.17/outbox.cif.g08.bks.cpg/sg15_71_cif.got.tgz:141014.got - 2010.06.03 18:47:42.
