data_PCOD9302584
_publ_section_title
;
Structure prediction by ZEFSAII (Michael W. Deem and Ramdas Pophale) SiO2 
 PCOD9302584
Probable space group: C 2/C
;
_chemical_formula_sum "Si O2"
_cell_formula_units_Z 60
_cell_length_a 24.225354
_cell_length_b 21.074685
_cell_length_c 9.192261
_cell_angle_alpha 90.000000
_cell_angle_beta 37.643830
_cell_angle_gamma 90.000000
_cell_volume 2866.274679
_symmetry_space_group_name_H-M "C 2/C"
_symmetry_group_IT_number 15
_symmetry_cell_setting 'monoclinic'
loop_
_space_group_symop_operation_xyz
x,y,z
-x,y,1/2-z
-x,-y,-z
x,-y,1/2+z
1/2+x,1/2+y,z
1/2-x,1/2+y,1/2-z
1/2-x,1/2-y,-z
1/2+x,1/2-y,1/2+z
loop_
_atom_site_type_symbol
_atom_site_label
_atom_site_fract_x
_atom_site_fract_y
_atom_site_fract_z
Si Si1 0.946714 0.451874 0.209301
Si Si2 0.756254 0.958171 0.940366
Si Si3 0.520374 0.181047 0.538816
Si Si4 0.500000 0.626372 0.750000
Si Si5 0.104002 0.771931 0.852590
Si Si6 0.251380 0.832147 0.347681
Si Si7 0.159169 0.929539 0.043282
Si Si8 0.228716 0.324499 0.531313
O O1 0.842797 0.472110 0.420701
O O2 0.000000 0.452284 0.250000
O O3 0.959595 0.380076 0.127416
O O4 0.000000 0.500000 0.000000
O O5 0.816071 0.944133 0.674957
O O6 0.801841 0.014120 0.938130
O O7 0.742613 0.896751 0.072031
O O8 0.500000 0.195305 0.750000
O O9 0.487336 0.238866 0.510819
O O10 0.624508 0.165470 0.293604
O O11 0.574239 0.672204 0.521345
O O12 0.447772 0.584549 0.738820
O O13 0.160710 0.798430 0.597236
O O14 0.168217 0.718384 0.789781
O O15 0.252423 0.844846 0.174016
O O16 0.210097 0.866470 0.991011
O O17 0.250000 0.250000 0.500000
#
# Coordination Sequence:
#
# PCOD9302584 Si02
#       8
#     8   8   8   4   8   8   8   8
#     4  11  23  40  63  98 139 182 231 283 352 430
#     4  12  24  48  72 104 147 196 241 300 376 434
#     4  11  22  38  65  99 141 187 232 297 354 430
#     4  12  26  48  74 108 138 196 244 316 358 442
#     4  11  22  43  70 103 145 185 243 296 365 431
#     4  11  24  42  71 103 141 192 238 296 369 432
#     4  12  27  48  74 103 146 193 251 302 368 439
#     4  12  25  42  68 105 144 191 243 298 367 435
#
# _framework density 20.933095000000002
#
# number of rings (size 3 to 8) (size 9 to 14) (size 15 to 20)
#    0.000    0.533    2.667    7.200    1.867    1.600 
#    1.200    0.000    0.000    0.000    0.000    0.000 
#    0.000    0.000    0.000    0.000    0.000    0.000 
#
# Total GULP energy -167778.318322 kJ/mol
# GULP energy per Si atom -5592.610611 kJ/mol
# Density = 2.088545 g / cm^3
# Si number density = 20.933095 Si / 1000 Ang^3
#
#
#
# Elastic Constant Matrix: (Units=GPa)
#
#
# Indices 1 2 3 4 5 6 
#
# 1 120.7640 64.3855 39.8997 0.0000 -8.7918 0.0000
# 2 64.3855 113.2168 20.0661 0.0000 1.2408 0.0000
# 3 39.8997 20.0661 75.4564 0.0000 7.6875 0.0000
# 4 0.0000 0.0000 0.0000 27.2542 0.0000 -1.4867
# 5 -8.7918 1.2408 7.6875 0.0000 42.9309 0.0000
# 6 0.0000 0.0000 0.0000 -1.4867 0.0000 50.4618
#
#
#
# Elastic Compliance Matrix: (Units=1/GPa)
#
#
# Indices 1 2 3 4 5 6 
#
# 1 0.014455 -0.007174 -0.006171 0.000000 0.004273 0.000000
# 2 -0.007174 0.012831 0.000579 0.000000 -0.001944 0.000000
# 3 -0.006171 0.000579 0.016799 0.000000 -0.004289 0.000000
# 4 0.000000 0.000000 0.000000 0.036751 0.000000 0.001083
# 5 0.004273 -0.001944 -0.004289 0.000000 0.024992 0.000000
# 6 0.000000 0.000000 0.000000 0.001083 0.000000 0.019849
#
#
# Mechanical properties :
#
#
# Convention : Reuss Voigt Hill
#
# Bulk Modulus (GPa) = 53.89815 62.01552 57.95683
# Shear Modulus (GPa) = 31.76767 36.46845 34.11806
#
# Velocity S-wave (km/s) = 3.89984 4.17843 4.04153
# Velocity P-wave (km/s) = 6.78838 7.27797 7.03743
#
# Compressibility (1/GPa) = 0.01855351
#
# Stress axis : x y z
#
# Youngs Moduli (GPa) = 69.17902 77.93712 59.52799
#
# Poissons Ratio (x) = 0.55909 0.36736
# Poissons Ratio (y) = 0.49627 -0.03448
# Poissons Ratio (z) = 0.42692 -0.04514
#
# Static dielectric constant tensor:
#      x y z
#    x 1.589250 0.000000 -0.001450 
#    y 0.000000 1.772050 0.000000 
#    z -0.001450 0.000000 1.746440 
# 
# From -- ./inp_files/63506.got.cif
#   From: 2010.05.17/outbox.cif.g08.bks.cpg/sg15_32_cif.got.tgz:63506.got - 2010.06.03 18:47:42.
