data_PCOD9302332
_publ_section_title
;
Structure prediction by ZEFSAII (Michael W. Deem and Ramdas Pophale) SiO2 
 PCOD9302332
Probable space group: C 2/C
;
_chemical_formula_sum "Si O2"
_cell_formula_units_Z 56
_cell_length_a 22.880109
_cell_length_b 10.350175
_cell_length_c 10.252907
_cell_angle_alpha 90.000000
_cell_angle_beta 117.113217
_cell_angle_gamma 90.000000
_cell_volume 2161.201976
_symmetry_space_group_name_H-M "C 2/C"
_symmetry_group_IT_number 15
_symmetry_cell_setting 'monoclinic'
loop_
_space_group_symop_operation_xyz
x,y,z
-x,y,1/2-z
-x,-y,-z
x,-y,1/2+z
1/2+x,1/2+y,z
1/2-x,1/2+y,1/2-z
1/2-x,1/2-y,-z
1/2+x,1/2-y,1/2+z
loop_
_atom_site_type_symbol
_atom_site_label
_atom_site_fract_x
_atom_site_fract_y
_atom_site_fract_z
Si Si1 0.070184 0.691965 0.764629
Si Si2 0.167331 0.211093 0.010686
Si Si3 0.896044 0.207516 0.926586
Si Si4 0.093647 0.933295 0.631226
Si Si5 0.245326 0.629216 0.784724
Si Si6 0.273565 0.487817 0.582222
Si Si7 0.427325 0.098453 0.242511
O O1 0.060010 0.802714 0.646879
O O2 0.095784 0.549445 0.756008
O O3 0.000000 0.658991 0.750000
O O4 0.103686 0.758103 0.922088
O O5 0.118441 0.099550 0.011309
O O6 0.196509 0.266988 0.175032
O O7 0.219034 0.129166 0.978227
O O8 0.126033 0.321897 0.897211
O O9 0.819132 0.176034 0.825403
O O10 0.924821 0.327091 0.876642
O O11 0.933413 0.078244 0.912883
O O12 0.154748 0.948581 0.793802
O O13 0.234002 0.505781 0.677185
O O14 0.244901 0.599728 0.937503
O O15 0.500000 0.108377 0.250000
#
# Coordination Sequence:
#
# PCOD9302332 Si02
#       7
#     8   8   8   8   8   8   8
#     4  11  27  46  69 106 145 186 239 294 353 428
#     4  12  24  43  71 102 140 190 231 290 356 426
#     4  11  24  48  72 100 144 184 240 294 347 428
#     4  11  23  45  72 102 143 182 241 295 352 409
#     4  11  24  42  72 102 142 180 229 293 362 415
#     4  11  21  46  65 103 144 176 238 299 337 428
#     4  11  28  47  70 100 144 189 237 292 358 427
#
# _framework density 25.911507
#
# number of rings (size 3 to 8) (size 9 to 14) (size 15 to 20)
#    0.000    0.857    7.143    0.429    4.000    5.143 
#    0.000    0.000    0.000    0.000    0.000    0.000 
#    0.000    0.000    0.000    0.000    0.000    0.000 
#
# Total GULP energy -156538.120552 kJ/mol
# GULP energy per Si atom -5590.647163 kJ/mol
# Density = 2.585253 g / cm^3
# Si number density = 25.911507 Si / 1000 Ang^3
#
#
#
# Elastic Constant Matrix: (Units=GPa)
#
#
# Indices 1 2 3 4 5 6 
#
# 1 50.9171 26.2350 6.4036 0.0000 -0.2256 0.0000
# 2 26.2350 192.5682 62.2643 0.0000 -8.6561 0.0000
# 3 6.4036 62.2643 117.3719 0.0000 -7.4411 0.0000
# 4 0.0000 0.0000 0.0000 109.1346 0.0000 -22.8136
# 5 -0.2256 -8.6561 -7.4411 0.0000 37.3469 0.0000
# 6 0.0000 0.0000 0.0000 -22.8136 0.0000 43.8457
#
#
#
# Elastic Compliance Matrix: (Units=1/GPa)
#
#
# Indices 1 2 3 4 5 6 
#
# 1 0.021151 -0.003042 0.000429 0.000000 -0.000492 0.000000
# 2 -0.003042 0.006729 -0.003348 0.000000 0.000874 0.000000
# 3 0.000429 -0.003348 0.010355 0.000000 0.001290 0.000000
# 4 0.000000 0.000000 0.000000 0.010281 0.000000 0.005350
# 5 -0.000492 0.000874 0.001290 0.000000 0.027233 0.000000
# 6 0.000000 0.000000 0.000000 0.005350 0.000000 0.025591
#
#
# Mechanical properties :
#
#
# Convention : Reuss Voigt Hill
#
# Bulk Modulus (GPa) = 38.00664 61.18477 49.59571
# Shear Modulus (GPa) = 40.97211 55.79574 48.38392
#
# Velocity S-wave (km/s) = 3.98078 4.64542 4.32589
# Velocity P-wave (km/s) = 5.98570 7.24137 6.64327
#
# Compressibility (1/GPa) = 0.02631119
#
# Stress axis : x y z
#
# Youngs Moduli (GPa) = 47.27855 148.60112 96.57537
#
# Poissons Ratio (x) = 0.45210 -0.04141
# Poissons Ratio (y) = 0.14384 0.32338
# Poissons Ratio (z) = -0.02027 0.49759
#
# Static dielectric constant tensor:
#      x y z
#    x 2.137840 0.000000 0.026200 
#    y 0.000000 2.084450 0.000000 
#    z 0.026200 0.000000 2.264470 
# 
# From -- ./inp_files/121997.got.cif
#   From: 2010.05.17/outbox.cif.g08.bks.cpg/sg15_61_cif.got.tgz:121997.got - 2010.06.03 18:47:42.
