data_PCOD9302913
_publ_section_title
;
Structure prediction by ZEFSAII (Michael W. Deem and Ramdas Pophale) SiO2 
 PCOD9302913
Probable space group: C 2/C
;
_chemical_formula_sum "Si O2"
_cell_formula_units_Z 56
_cell_length_a 14.390411
_cell_length_b 13.120071
_cell_length_c 23.094142
_cell_angle_alpha 90.000000
_cell_angle_beta 32.065511
_cell_angle_gamma 90.000000
_cell_volume 2314.805912
_symmetry_space_group_name_H-M "C 2/C"
_symmetry_group_IT_number 15
_symmetry_cell_setting 'monoclinic'
loop_
_space_group_symop_operation_xyz
x,y,z
-x,y,1/2-z
-x,-y,-z
x,-y,1/2+z
1/2+x,1/2+y,z
1/2-x,1/2+y,1/2-z
1/2-x,1/2-y,-z
1/2+x,1/2-y,1/2+z
loop_
_atom_site_type_symbol
_atom_site_label
_atom_site_fract_x
_atom_site_fract_y
_atom_site_fract_z
Si Si1 0.606577 0.603244 0.112429
Si Si2 0.000000 0.719704 0.750000
Si Si3 0.135999 0.629699 0.297936
Si Si4 0.783217 0.293579 0.143120
Si Si5 0.500000 0.568203 0.750000
Si Si6 0.468448 0.500704 0.084997
Si Si7 0.981899 0.459152 0.443953
Si Si8 0.874067 0.206208 0.601140
O O1 0.538324 0.709172 0.173425
O O2 0.495414 0.510248 0.199101
O O3 0.607518 0.570762 0.045326
O O4 0.799115 0.596081 0.035738
O O5 0.808958 0.672224 0.833539
O O6 0.144361 0.715213 0.244000
O O7 0.292120 0.556618 0.196486
O O8 0.986003 0.550764 0.395417
O O9 0.168419 0.692951 0.339394
O O10 0.671922 0.362127 0.157421
O O11 0.866517 0.375233 0.143726
O O12 0.955520 0.236691 0.027482
O O13 0.447478 0.380346 0.105989
O O14 0.500000 0.500000 0.000000
O O15 0.000000 0.500000 0.500000
#
# Coordination Sequence:
#
# PCOD9302913 Si02
#       8
#     8   4   8   8   4   8   8   8
#     4  11  22  43  78 108 145 197 261 318 377 458
#     4  11  22  44  81 116 142 200 277 324 383 450
#     4  12  24  46  71 100 150 200 238 314 387 448
#     4  12  25  43  72 111 150 192 253 320 382 467
#     4  11  22  40  71 114 144 190 257 316 387 454
#     4  12  27  49  68 105 160 199 245 320 393 453
#     4  12  22  45  77 110 142 191 261 320 376 457
#     4  12  24  47  76 107 151 198 260 324 383 461
#
# _framework density 24.192094000000001
#
# number of rings (size 3 to 8) (size 9 to 14) (size 15 to 20)
#    0.000    0.286    7.143    2.571    0.000    1.143 
#    5.143    5.000    0.000    0.000    0.000    0.000 
#    0.000    0.000    0.000    0.000    0.000    0.000 
#
# Total GULP energy -156277.559272 kJ/mol
# GULP energy per Si atom -5581.341403 kJ/mol
# Density = 2.413703 g / cm^3
# Si number density = 24.192094 Si / 1000 Ang^3
#
#
#
# Elastic Constant Matrix: (Units=GPa)
#
#
# Indices 1 2 3 4 5 6 
#
# 1 59.7855 -8.5780 10.9250 0.0000 4.4080 -0.0002
# 2 -8.5780 73.0045 9.0037 -0.0003 15.1191 -0.0001
# 3 10.9250 9.0037 91.3559 -0.0020 10.0023 0.0001
# 4 0.0000 -0.0003 -0.0020 53.6713 0.0002 9.0528
# 5 4.4080 15.1191 10.0023 0.0002 40.6814 0.0001
# 6 -0.0002 -0.0001 0.0001 9.0528 0.0001 28.2322
#
#
#
# Elastic Compliance Matrix: (Units=1/GPa)
#
#
# Indices 1 2 3 4 5 6 
#
# 1 0.017706 0.002851 -0.002130 0.000000 -0.002455 0.000000
# 2 0.002851 0.015369 -0.001230 0.000000 -0.005718 0.000000
# 3 -0.002130 -0.001230 0.011558 0.000000 -0.002154 0.000000
# 4 0.000000 0.000000 0.000000 0.019697 0.000000 -0.006316
# 5 -0.002455 -0.005718 -0.002154 0.000000 0.027502 0.000000
# 6 0.000000 0.000000 0.000000 -0.006316 0.000000 0.037446
#
#
# Mechanical properties :
#
#
# Convention : Reuss Voigt Hill
#
# Bulk Modulus (GPa) = 22.92701 27.42748 25.17725
# Shear Modulus (GPa) = 34.52273 38.70331 36.61302
#
# Velocity S-wave (km/s) = 3.78170 4.00413 3.89450
# Velocity P-wave (km/s) = 5.34471 5.72184 5.53649
#
# Compressibility (1/GPa) = 0.04361668
#
# Stress axis : x y z
#
# Youngs Moduli (GPa) = 56.47896 65.06712 86.52090
#
# Poissons Ratio (x) = -0.18553 0.18426
# Poissons Ratio (y) = -0.16104 0.10639
# Poissons Ratio (z) = 0.12028 0.08001
#
# Static dielectric constant tensor:
#      x y z
#    x 2.032430 0.000000 0.043040 
#    y 0.000000 2.024570 0.000000 
#    z 0.043040 0.000000 1.954180 
# 
# From -- ./inp_files/274494.got.cif
#   From: 2010.05.17/outbox.cif.g08.bks.cpg/sg15_138_cif.got.tgz:274494.got - 2010.06.03 18:47:42.
