data_PCOD9302538
_publ_section_title
;
Structure prediction by ZEFSAII (Michael W. Deem and Ramdas Pophale) SiO2 
 PCOD9302538
Probable space group: C 2/C
;
_chemical_formula_sum "Si O2"
_cell_formula_units_Z 32
_cell_length_a 11.363382
_cell_length_b 11.185960
_cell_length_c 17.851471
_cell_angle_alpha 90.000000
_cell_angle_beta 38.263323
_cell_angle_gamma 90.000000
_cell_volume 1405.204419
_symmetry_space_group_name_H-M "C 2/C"
_symmetry_group_IT_number 15
_symmetry_cell_setting 'monoclinic'
loop_
_space_group_symop_operation_xyz
x,y,z
-x,y,1/2-z
-x,-y,-z
x,-y,1/2+z
1/2+x,1/2+y,z
1/2-x,1/2+y,1/2-z
1/2-x,1/2-y,-z
1/2+x,1/2-y,1/2+z
loop_
_atom_site_type_symbol
_atom_site_label
_atom_site_fract_x
_atom_site_fract_y
_atom_site_fract_z
Si Si1 0.224291 0.300418 0.127444
Si Si2 0.082377 0.381453 0.633598
Si Si3 0.003354 0.865131 0.383224
Si Si4 0.260187 0.562236 0.454369
O O1 0.325608 0.368060 0.144723
O O2 0.276370 0.160026 0.090410
O O3 0.000000 0.299419 0.250000
O O4 0.280998 0.365442 0.022186
O O5 0.976587 0.257642 0.672024
O O6 0.307042 0.351534 0.529378
O O7 0.089111 0.470309 0.559221
O O8 0.000000 0.436704 0.750000
O O9 0.948319 0.978221 0.359445
#
# Coordination Sequence:
#
# PCOD9302538 Si02
#       4
#     8   8   8   8
#     4  11  22  38  60  89 126 157 199 247 305 359
#     4   9  19  39  62  85 119 161 197 249 311 346
#     4   9  21  40  58  90 121 153 207 250 288 373
#     4   9  21  40  57  87 122 154 203 248 293 367
#
# _framework density 22.772489
#
# number of rings (size 3 to 8) (size 9 to 14) (size 15 to 20)
#    1.500    1.000    0.000    1.500    0.000    6.000 
#    4.500    0.000    0.000    0.000    0.000    0.000 
#    0.000    0.000    0.000    0.000    0.000    0.000 
#
# Total GULP energy -89125.336668 kJ/mol
# GULP energy per Si atom -5570.333542 kJ/mol
# Density = 2.272066 g / cm^3
# Si number density = 22.772489 Si / 1000 Ang^3
#
#
#
# Elastic Constant Matrix: (Units=GPa)
#
#
# Indices 1 2 3 4 5 6 
#
# 1 46.8095 3.5746 16.9877 0.0000 1.5747 0.0000
# 2 3.5746 132.1654 1.5507 0.0000 16.6037 0.0000
# 3 16.9877 1.5507 48.0134 -0.0001 9.7575 0.0000
# 4 0.0000 0.0000 -0.0001 11.0664 0.0000 18.9813
# 5 1.5747 16.6037 9.7575 0.0000 11.5068 0.0000
# 6 0.0000 0.0000 0.0000 18.9813 0.0000 36.6853
#
#
#
# Elastic Compliance Matrix: (Units=1/GPa)
#
#
# Indices 1 2 3 4 5 6 
#
# 1 0.024965 -0.001494 -0.010304 -0.000001 0.007476 0.000001
# 2 -0.001494 0.009681 0.003640 0.000001 -0.016852 0.000000
# 3 -0.010304 0.003640 0.030370 0.000003 -0.029596 -0.000002
# 4 -0.000001 0.000001 0.000003 0.803027 -0.000005 -0.415493
# 5 0.007476 -0.016852 -0.029596 -0.000005 0.135295 0.000003
# 6 0.000001 0.000000 -0.000002 -0.415493 0.000003 0.242238
#
#
# Mechanical properties :
#
#
# Convention : Reuss Voigt Hill
#
# Bulk Modulus (GPa) = 20.53298 30.13491 25.33394
# Shear Modulus (GPa) = 3.91198 25.51005 14.71102
#
# Velocity S-wave (km/s) = 1.31209 3.35059 2.54441
# Velocity P-wave (km/s) = 3.36624 5.31323 4.44758
#
# Compressibility (1/GPa) = 0.04870213
#
# Stress axis : x y z
#
# Youngs Moduli (GPa) = 40.05565 103.29485 32.92684
#
# Poissons Ratio (x) = 0.15428 0.33928
# Poissons Ratio (y) = 0.05983 -0.11987
# Poissons Ratio (z) = 0.41274 -0.37604
#
# Static dielectric constant tensor:
#      x y z
#    x 1.842060 0.000000 0.006190 
#    y 0.000000 1.962890 0.000000 
#    z 0.006190 0.000000 1.864160 
# 
# From -- ./inp_files/83866.got.cif
#   From: 2010.05.17/outbox.cif.g08.bks.cpg/sg15_42_cif.got.tgz:83866.got - 2010.06.03 18:47:42.
