data_PCOD9302783
_publ_section_title
;
Structure prediction by ZEFSAII (Michael W. Deem and Ramdas Pophale) SiO2 
 PCOD9302783
Probable space group: C 2/C
;
_chemical_formula_sum "Si O2"
_cell_formula_units_Z 56
_cell_length_a 5.150905
_cell_length_b 30.318124
_cell_length_c 18.468752
_cell_angle_alpha 90.000000
_cell_angle_beta 73.181696
_cell_angle_gamma 90.000000
_cell_volume 2760.821993
_symmetry_space_group_name_H-M "C 2/C"
_symmetry_group_IT_number 15
_symmetry_cell_setting 'monoclinic'
loop_
_space_group_symop_operation_xyz
x,y,z
-x,y,1/2-z
-x,-y,-z
x,-y,1/2+z
1/2+x,1/2+y,z
1/2-x,1/2+y,1/2-z
1/2-x,1/2-y,-z
1/2+x,1/2-y,1/2+z
loop_
_atom_site_type_symbol
_atom_site_label
_atom_site_fract_x
_atom_site_fract_y
_atom_site_fract_z
Si Si1 0.793283 0.128161 0.836716
Si Si2 0.612451 0.284100 0.954294
Si Si3 0.795292 0.827371 0.099010
Si Si4 0.806495 0.563425 0.195663
Si Si5 0.647690 0.744709 0.166212
Si Si6 0.305067 0.968082 0.196123
Si Si7 0.041223 0.658222 0.334449
O O1 0.514394 0.157031 0.861088
O O2 0.686904 0.077766 0.846550
O O3 0.000000 0.133671 0.750000
O O4 0.986903 0.137806 0.889218
O O5 0.510634 0.254938 0.895863
O O6 0.803048 0.320777 0.901632
O O7 0.750000 0.250000 0.000000
O O8 0.370773 0.311321 0.012457
O O9 0.865364 0.783138 0.139695
O O10 0.500000 0.567886 0.250000
O O11 0.850022 0.515732 0.155022
O O12 0.882495 0.608660 0.149707
O O13 0.000000 0.561603 0.250000
O O14 0.500000 0.758004 0.250000
O O15 0.730453 0.694445 0.169950
O O16 0.500000 0.963974 0.250000
O O17 0.000000 0.971128 0.250000
O O18 0.000000 0.658684 0.250000
#
# Coordination Sequence:
#
# PCOD9302783 Si02
#       7
#     8   8   8   8   8   8   8
#     4  11  22  40  62  93 124 167 213 265 315 380
#     4  12  26  44  61  91 132 181 217 263 326 392
#     4  12  26  39  62  91 130 168 213 257 318 388
#     4   9  19  35  60  96 126 158 209 273 333 379
#     4  12  24  41  65  90 124 167 220 273 317 378
#     4   9  17  34  61  91 126 160 206 271 329 381
#     4  11  23  40  65  93 127 166 219 271 321 377
#
# _framework density 20.283815000000001
#
# number of rings (size 3 to 8) (size 9 to 14) (size 15 to 20)
#    0.000    1.143    2.857    4.714    4.000    0.571 
#    0.000    0.000    0.000    1.714    0.000    0.000 
#    0.000    0.000    0.000    0.000    0.000    0.000 
#
# Total GULP energy -155996.820305 kJ/mol
# GULP energy per Si atom -5571.315011 kJ/mol
# Density = 2.023765 g / cm^3
# Si number density = 20.283815 Si / 1000 Ang^3
#
#
#
# Elastic Constant Matrix: (Units=GPa)
#
#
# Indices 1 2 3 4 5 6 
#
# 1 113.0055 37.8474 30.2793 0.0000 -7.1107 0.0000
# 2 37.8474 184.3288 45.8352 0.0000 -4.5295 0.0000
# 3 30.2793 45.8352 97.4807 0.0000 -16.2277 0.0000
# 4 0.0000 0.0000 0.0000 11.9357 0.0000 -0.8804
# 5 -7.1107 -4.5295 -16.2277 0.0000 32.7868 0.0000
# 6 0.0000 0.0000 0.0000 -0.8804 0.0000 36.9872
#
#
#
# Elastic Compliance Matrix: (Units=1/GPa)
#
#
# Indices 1 2 3 4 5 6 
#
# 1 0.010004 -0.001467 -0.002278 0.000000 0.000840 0.000000
# 2 -0.001467 0.006371 -0.002666 0.000000 -0.000758 0.000000
# 3 -0.002278 -0.002666 0.013160 0.000000 0.005651 0.000000
# 4 0.000000 0.000000 0.000000 0.083930 0.000000 0.001998
# 5 0.000840 -0.000758 0.005651 0.000000 0.033375 0.000000
# 6 0.000000 0.000000 0.000000 0.001998 0.000000 0.027084
#
#
# Mechanical properties :
#
#
# Convention : Reuss Voigt Hill
#
# Bulk Modulus (GPa) = 59.83307 69.19319 64.51313
# Shear Modulus (GPa) = 25.99904 35.06547 30.53225
#
# Velocity S-wave (km/s) = 3.58406 4.16232 3.88397
# Velocity P-wave (km/s) = 6.83295 7.56878 7.21026
#
# Compressibility (1/GPa) = 0.01671316
#
# Stress axis : x y z
#
# Youngs Moduli (GPa) = 99.96422 156.97175 75.98651
#
# Poissons Ratio (x) = 0.23027 0.17308
# Poissons Ratio (y) = 0.14664 0.20257
# Poissons Ratio (z) = 0.22770 0.41847
#
# Static dielectric constant tensor:
#      x y z
#    x 1.776620 0.000000 -0.029200 
#    y 0.000000 1.797610 0.000000 
#    z -0.029200 0.000000 1.782830 
# 
# From -- ./inp_files/186487.got.cif
#   From: 2010.05.17/outbox.cif.g08.bks.cpg/sg15_94_cif.got.tgz:186487.got - 2010.06.03 18:47:42.
