data_PCOD9302550
_publ_section_title
;
Structure prediction by ZEFSAII (Michael W. Deem and Ramdas Pophale) SiO2 
 PCOD9302550
Probable space group: C 2/C
;
_chemical_formula_sum "Si O2"
_cell_formula_units_Z 56
_cell_length_a 25.070153
_cell_length_b 18.897234
_cell_length_c 9.413944
_cell_angle_alpha 90.000000
_cell_angle_beta 138.966737
_cell_angle_gamma 90.000000
_cell_volume 2927.922817
_symmetry_space_group_name_H-M "C 2/C"
_symmetry_group_IT_number 15
_symmetry_cell_setting 'monoclinic'
loop_
_space_group_symop_operation_xyz
x,y,z
-x,y,1/2-z
-x,-y,-z
x,-y,1/2+z
1/2+x,1/2+y,z
1/2-x,1/2+y,1/2-z
1/2-x,1/2-y,-z
1/2+x,1/2-y,1/2+z
loop_
_atom_site_type_symbol
_atom_site_label
_atom_site_fract_x
_atom_site_fract_y
_atom_site_fract_z
Si Si1 0.427610 0.447163 0.817663
Si Si2 0.735394 0.855303 0.128978
Si Si3 0.583308 0.241362 0.329146
Si Si4 0.178622 0.002501 0.642645
Si Si5 0.190307 0.743151 0.012838
Si Si6 0.218881 0.145536 0.104925
Si Si7 0.518293 0.709179 0.121540
O O1 0.356182 0.467343 0.783993
O O2 0.393906 0.460309 0.591638
O O3 0.459667 0.367549 0.897797
O O4 0.500000 0.500000 0.000000
O O5 0.792064 0.810213 0.349505
O O6 0.754214 0.937514 0.194566
O O7 0.644506 0.824794 0.967610
O O8 0.760085 0.839610 0.016237
O O9 0.500000 0.236081 0.250000
O O10 0.637581 0.309897 0.479016
O O11 0.554714 0.255288 0.110530
O O12 0.207891 0.937066 0.607037
O O13 0.213185 0.675890 0.153428
O O14 0.250000 0.750000 0.000000
O O15 0.099198 0.744070 0.774473
O O16 0.500000 0.700048 0.250000
#
# Coordination Sequence:
#
# PCOD9302550 Si02
#       7
#     8   8   8   8   8   8   8
#     4  12  24  37  58  94 133 162 201 251 324 384
#     4  11  23  43  62  90 130 172 210 253 317 387
#     4  11  23  41  64  92 125 163 210 263 320 368
#     4  12  23  41  61  92 128 171 207 253 318 381
#     4  11  22  38  62  90 121 163 215 260 301 371
#     4  11  23  41  63  91 127 166 212 256 317 384
#     4  12  22  37  61  92 125 160 205 259 316 368
#
# _framework density 19.126187000000002
#
# number of rings (size 3 to 8) (size 9 to 14) (size 15 to 20)
#    0.000    0.571    2.857    9.000    0.000    0.000 
#    0.000    0.000    0.000    4.286    0.000    0.000 
#    0.000    0.000    0.000    0.000    0.000    0.000 
#
# Total GULP energy -156590.482077 kJ/mol
# GULP energy per Si atom -5592.517217 kJ/mol
# Density = 1.908266 g / cm^3
# Si number density = 19.126187 Si / 1000 Ang^3
#
#
#
# Elastic Constant Matrix: (Units=GPa)
#
#
# Indices 1 2 3 4 5 6 
#
# 1 77.4264 30.8068 10.4753 0.0000 -1.2375 0.0000
# 2 30.8068 80.8290 30.4318 0.0000 16.3928 0.0000
# 3 10.4753 30.4318 91.9851 0.0000 12.4849 0.0000
# 4 0.0000 0.0000 0.0000 33.5994 0.0000 -1.2526
# 5 -1.2375 16.3928 12.4849 0.0000 40.0765 0.0000
# 6 0.0000 0.0000 0.0000 -1.2526 0.0000 22.8081
#
#
#
# Elastic Compliance Matrix: (Units=1/GPa)
#
#
# Indices 1 2 3 4 5 6 
#
# 1 0.015586 -0.006573 -0.000032 0.000000 0.003180 0.000000
# 2 -0.006573 0.017733 -0.004287 0.000000 -0.006121 0.000000
# 3 -0.000032 -0.004287 0.012588 0.000000 -0.002169 0.000000
# 4 0.000000 0.000000 0.000000 0.029824 0.000000 0.001638
# 5 0.003180 -0.006121 -0.002169 0.000000 0.028230 0.000000
# 6 0.000000 0.000000 0.000000 0.001638 0.000000 0.043934
#
#
# Mechanical properties :
#
#
# Convention : Reuss Voigt Hill
#
# Bulk Modulus (GPa) = 41.45684 43.74093 42.59888
# Shear Modulus (GPa) = 28.13433 31.19857 29.66645
#
# Velocity S-wave (km/s) = 3.83950 4.04319 3.94266
# Velocity P-wave (km/s) = 6.43259 6.68699 6.56102
#
# Compressibility (1/GPa) = 0.02412147
#
# Stress axis : x y z
#
# Youngs Moduli (GPa) = 64.15993 56.39348 79.44289
#
# Poissons Ratio (x) = 0.37069 0.00253
# Poissons Ratio (y) = 0.42174 0.34059
# Poissons Ratio (z) = 0.00205 0.24177
#
# Static dielectric constant tensor:
#      x y z
#    x 1.708320 0.000000 -0.029010 
#    y 0.000000 1.665430 0.000000 
#    z -0.029010 0.000000 1.675840 
# 
# From -- ./inp_files/67210.got.cif
#   From: 2010.05.17/outbox.cif.g08.bks.cpg/sg15_34_cif.got.tgz:67210.got - 2010.06.03 18:47:42.
