data_PCOD9302667
_publ_section_title
;
Structure prediction by ZEFSAII (Michael W. Deem and Ramdas Pophale) SiO2 
 PCOD9302667
Probable space group: C 2/C
;
_chemical_formula_sum "Si O2"
_cell_formula_units_Z 56
_cell_length_a 19.873132
_cell_length_b 13.785873
_cell_length_c 9.186058
_cell_angle_alpha 90.000000
_cell_angle_beta 86.923889
_cell_angle_gamma 90.000000
_cell_volume 2513.064071
_symmetry_space_group_name_H-M "C 2/C"
_symmetry_group_IT_number 15
_symmetry_cell_setting 'monoclinic'
loop_
_space_group_symop_operation_xyz
x,y,z
-x,y,1/2-z
-x,-y,-z
x,-y,1/2+z
1/2+x,1/2+y,z
1/2-x,1/2+y,1/2-z
1/2-x,1/2-y,-z
1/2+x,1/2-y,1/2+z
loop_
_atom_site_type_symbol
_atom_site_label
_atom_site_fract_x
_atom_site_fract_y
_atom_site_fract_z
Si Si1 0.302510 0.642845 0.676997
Si Si2 0.850744 0.349174 0.188116
Si Si3 0.746111 0.446526 0.885925
Si Si4 0.889654 0.746225 0.966668
Si Si5 0.857817 0.195903 0.964147
Si Si6 0.839423 0.555500 0.113455
Si Si7 0.007284 0.104394 0.424545
O O1 0.225930 0.655798 0.741867
O O2 0.307793 0.526783 0.662360
O O3 0.322874 0.695117 0.525436
O O4 0.352787 0.684755 0.792407
O O5 0.890416 0.283532 0.297619
O O6 0.855179 0.303627 0.028100
O O7 0.874312 0.460376 0.178359
O O8 0.707144 0.361201 0.968233
O O9 0.788354 0.409214 0.744177
O O10 0.793534 0.507932 0.990729
O O11 0.884496 0.642871 0.050252
O O12 0.950832 0.819036 0.985387
O O13 0.922045 0.145844 0.027806
O O14 0.000000 0.096144 0.250000
O O15 0.000000 0.000000 0.500000
#
# Coordination Sequence:
#
# PCOD9302667 Si02
#       7
#     8   8   8   8   8   8   8
#     4  11  24  38  68 106 141 183 235 295 378 426
#     4  11  23  42  68 107 143 187 233 302 371 428
#     4  11  22  39  64 109 148 181 230 304 369 433
#     4  12  25  46  70 100 150 194 241 298 363 440
#     4  12  25  42  69  99 147 187 242 289 358 428
#     4  11  23  41  68 106 146 180 234 294 375 431
#     4  12  30  52  74  99 141 196 246 294 347 439
#
# _framework density 22.283555
#
# number of rings (size 3 to 8) (size 9 to 14) (size 15 to 20)
#    0.000    0.571    7.143    2.571    8.000    0.000 
#    0.000    0.714    0.000    0.000    0.000    0.000 
#    0.000    0.000    0.000    0.000    0.000    0.000 
#
# Total GULP energy -156617.229067 kJ/mol
# GULP energy per Si atom -5593.472467 kJ/mol
# Density = 2.223284 g / cm^3
# Si number density = 22.283555 Si / 1000 Ang^3
#
#
#
# Elastic Constant Matrix: (Units=GPa)
#
#
# Indices 1 2 3 4 5 6 
#
# 1 64.9253 43.8635 20.2714 0.0000 7.0255 0.0000
# 2 43.8635 142.2162 28.6473 0.0000 -8.6995 0.0000
# 3 20.2714 28.6473 92.1790 0.0000 -3.2859 0.0000
# 4 0.0000 0.0000 0.0000 48.0654 0.0000 -1.4500
# 5 7.0255 -8.6995 -3.2859 0.0000 22.6980 0.0000
# 6 0.0000 0.0000 0.0000 -1.4500 0.0000 33.8347
#
#
#
# Elastic Compliance Matrix: (Units=1/GPa)
#
#
# Indices 1 2 3 4 5 6 
#
# 1 0.022004 -0.006768 -0.003087 0.000000 -0.009851 0.000000
# 2 -0.006768 0.009732 -0.001336 0.000000 0.005631 0.000000
# 3 -0.003087 -0.001336 0.012020 0.000000 0.002184 0.000000
# 4 0.000000 0.000000 0.000000 0.020832 0.000000 0.000893
# 5 -0.009851 0.005631 0.002184 0.000000 0.049580 0.000000
# 6 0.000000 0.000000 0.000000 0.000893 0.000000 0.029594
#
#
# Mechanical properties :
#
#
# Convention : Reuss Voigt Hill
#
# Bulk Modulus (GPa) = 46.78003 53.87609 50.32806
# Shear Modulus (GPa) = 28.85688 34.68884 31.77286
#
# Velocity S-wave (km/s) = 3.60249 3.94979 3.78013
# Velocity P-wave (km/s) = 6.19214 6.71052 6.45653
#
# Compressibility (1/GPa) = 0.02137664
#
# Stress axis : x y z
#
# Youngs Moduli (GPa) = 45.44557 102.74981 83.19296
#
# Poissons Ratio (x) = 0.69537 0.25682
# Poissons Ratio (y) = 0.30756 0.11111
# Poissons Ratio (z) = 0.14029 0.13723
#
# Static dielectric constant tensor:
#      x y z
#    x 1.818160 0.000000 0.023740 
#    y 0.000000 1.868540 0.000000 
#    z 0.023740 0.000000 1.889150 
# 
# From -- ./inp_files/55608.got.cif
#   From: 2010.05.17/outbox.cif.g08.bks.cpg/sg15_28_cif.got.tgz:55608.got - 2010.06.03 18:47:42.
