data_PCOD9302069
_publ_section_title
;
Structure prediction by ZEFSAII (Michael W. Deem and Ramdas Pophale) SiO2 
 PCOD9302069
Probable space group: C 2/C
;
_chemical_formula_sum "Si O2"
_cell_formula_units_Z 52
_cell_length_a 24.524702
_cell_length_b 12.875140
_cell_length_c 12.652148
_cell_angle_alpha 90.000000
_cell_angle_beta 39.453452
_cell_angle_gamma 90.000000
_cell_volume 2538.645848
_symmetry_space_group_name_H-M "C 2/C"
_symmetry_group_IT_number 15
_symmetry_cell_setting 'monoclinic'
loop_
_space_group_symop_operation_xyz
x,y,z
-x,y,1/2-z
-x,-y,-z
x,-y,1/2+z
1/2+x,1/2+y,z
1/2-x,1/2+y,1/2-z
1/2-x,1/2-y,-z
1/2+x,1/2-y,1/2+z
loop_
_atom_site_type_symbol
_atom_site_label
_atom_site_fract_x
_atom_site_fract_y
_atom_site_fract_z
Si Si1 0.500000 0.596433 0.250000
Si Si2 0.407626 0.217029 0.997510
Si Si3 0.179997 0.974769 0.538824
Si Si4 0.443026 0.922379 0.151160
Si Si5 0.255895 0.799454 0.875831
Si Si6 0.305396 0.133148 0.696509
Si Si7 0.310594 0.049358 0.018756
O O1 0.447702 0.672392 0.407543
O O2 0.422688 0.532401 0.312304
O O3 0.353382 0.208110 0.186805
O O4 0.491428 0.146320 0.882055
O O5 0.343308 0.161354 0.010094
O O6 0.216524 0.085718 0.444498
O O7 0.224399 0.891239 0.393448
O O8 0.219244 0.953055 0.596579
O O9 0.384983 0.857710 0.156543
O O10 0.377998 0.980876 0.326464
O O11 0.500000 0.000000 0.000000
O O12 0.206404 0.729512 0.863547
O O13 0.250000 0.750000 0.000000
O O14 0.315294 0.031652 0.607118
#
# Coordination Sequence:
#
# PCOD9302069 Si02
#       7
#     4   8   8   8   8   8   8
#     4  12  26  46  68 104 142 180 236 294 344 412
#     4  12  23  43  71 101 138 179 238 283 341 422
#     4  11  25  46  71 100 139 184 234 289 351 419
#     4  11  22  37  64 104 134 165 225 296 342 395
#     4  12  25  47  69  97 139 189 232 283 358 426
#     4  11  23  41  68  99 136 181 225 281 352 413
#     4  11  21  41  70  98 133 183 229 289 340 412
#
# _framework density 20.483360999999999
#
# number of rings (size 3 to 8) (size 9 to 14) (size 15 to 20)
#    0.000    0.615    7.692    0.923    0.000    1.846 
#    2.769    1.538    0.000    0.000    0.000    0.000 
#    0.000    0.000    0.000    0.000    0.000    0.000 
#
# Total GULP energy -145217.517912 kJ/mol
# GULP energy per Si atom -5585.289150 kJ/mol
# Density = 2.043674 g / cm^3
# Si number density = 20.483361 Si / 1000 Ang^3
#
#
#
# Elastic Constant Matrix: (Units=GPa)
#
#
# Indices 1 2 3 4 5 6 
#
# 1 138.1515 39.6529 51.8890 0.0000 -15.8783 0.0000
# 2 39.6529 83.1261 23.7823 0.0000 -7.9172 0.0000
# 3 51.8890 23.7823 90.9185 0.0000 -12.5839 0.0000
# 4 0.0000 0.0000 0.0000 28.9456 0.0000 0.4299
# 5 -15.8783 -7.9172 -12.5839 0.0000 41.7080 0.0000
# 6 0.0000 0.0000 0.0000 0.4299 0.0000 31.5591
#
#
#
# Elastic Compliance Matrix: (Units=1/GPa)
#
#
# Indices 1 2 3 4 5 6 
#
# 1 0.010161 -0.003336 -0.004674 0.000000 0.001825 0.000000
# 2 -0.003336 0.014189 -0.001681 0.000000 0.000916 0.000000
# 3 -0.004674 -0.001681 0.014418 0.000000 0.002252 0.000000
# 4 0.000000 0.000000 0.000000 0.034555 0.000000 -0.000471
# 5 0.001825 0.000916 0.002252 0.000000 0.025524 0.000000
# 6 0.000000 0.000000 0.000000 -0.000471 0.000000 0.031693
#
#
# Mechanical properties :
#
#
# Convention : Reuss Voigt Hill
#
# Bulk Modulus (GPa) = 51.58216 60.31605 55.94910
# Shear Modulus (GPa) = 31.97252 33.56733 32.76993
#
# Velocity S-wave (km/s) = 3.95511 4.05255 4.00413
# Velocity P-wave (km/s) = 6.78928 7.16993 6.98220
#
# Compressibility (1/GPa) = 0.01938655
#
# Stress axis : x y z
#
# Youngs Moduli (GPa) = 98.41318 70.47484 69.35919
#
# Poissons Ratio (x) = 0.23511 0.32418
# Poissons Ratio (y) = 0.32832 0.11658
# Poissons Ratio (z) = 0.45998 0.11846
#
# Static dielectric constant tensor:
#      x y z
#    x 1.781500 0.000000 0.023790 
#    y 0.000000 1.760520 0.000000 
#    z 0.023790 0.000000 1.761170 
# 
# From -- ./inp_files/97120.got.cif
#   From: 2010.05.17/outbox.cif.g08.bks.cpg/sg15_49_cif.got.tgz:97120.got - 2010.06.03 18:47:42.
