data_PCOD9302542
_publ_section_title
;
Structure prediction by ZEFSAII (Michael W. Deem and Ramdas Pophale) SiO2 
 PCOD9302542
Probable space group: C 2/C
;
_chemical_formula_sum "Si O2"
_cell_formula_units_Z 56
_cell_length_a 13.970377
_cell_length_b 23.357114
_cell_length_c 9.217432
_cell_angle_alpha 90.000000
_cell_angle_beta 108.641980
_cell_angle_gamma 90.000000
_cell_volume 2849.917322
_symmetry_space_group_name_H-M "C 2/C"
_symmetry_group_IT_number 15
_symmetry_cell_setting 'monoclinic'
loop_
_space_group_symop_operation_xyz
x,y,z
-x,y,1/2-z
-x,-y,-z
x,-y,1/2+z
1/2+x,1/2+y,z
1/2-x,1/2+y,1/2-z
1/2-x,1/2-y,-z
1/2+x,1/2-y,1/2+z
loop_
_atom_site_type_symbol
_atom_site_label
_atom_site_fract_x
_atom_site_fract_y
_atom_site_fract_z
Si Si1 0.393654 0.636863 0.750816
Si Si2 0.581098 0.828535 0.105674
Si Si3 0.388745 0.958374 0.751881
Si Si4 0.872445 0.341512 0.915190
Si Si5 0.854242 0.739954 0.131751
Si Si6 0.256925 0.690513 0.915128
Si Si7 0.195916 0.560288 0.600853
O O1 0.500000 0.610038 0.750000
O O2 0.394347 0.695718 0.658929
O O3 0.358250 0.665217 0.889235
O O4 0.303080 0.591956 0.677674
O O5 0.671653 0.803507 0.247296
O O6 0.611850 0.894418 0.112699
O O7 0.461718 0.823735 0.071141
O O8 0.586217 0.801105 0.947584
O O9 0.500000 0.977673 0.750000
O O10 0.401442 0.898487 0.842757
O O11 0.321592 0.948585 0.577266
O O12 0.330647 0.003134 0.825386
O O13 0.850165 0.292255 0.784490
O O14 0.779315 0.353095 0.977327
O O15 0.750000 0.750000 0.000000
O O16 0.250000 0.750000 0.000000
#
# Coordination Sequence:
#
# PCOD9302542 Si02
#       7
#     8   8   8   8   8   8   8
#     4  11  24  44  68  90 131 180 227 263 325 391
#     4  11  22  38  60  97 133 173 209 256 336 407
#     4  12  24  42  67  99 135 169 216 271 347 403
#     4  12  22  38  63  95 138 165 207 270 337 398
#     4  12  19  39  67  94 130 175 214 261 320 405
#     4  11  23  39  60  99 134 169 214 270 320 384
#     4  11  25  41  65  96 128 173 221 270 325 398
#
# _framework density 19.649692000000002
#
# number of rings (size 3 to 8) (size 9 to 14) (size 15 to 20)
#    0.000    0.571    7.143    2.143    4.000    0.000 
#    0.000    0.714    0.000    0.000    0.000    0.000 
#    0.000    0.000    0.000    0.000    0.000    0.000 
#
# Total GULP energy -155936.610334 kJ/mol
# GULP energy per Si atom -5569.164655 kJ/mol
# Density = 1.960497 g / cm^3
# Si number density = 19.649692 Si / 1000 Ang^3
#
#
#
# Elastic Constant Matrix: (Units=GPa)
#
#
# Indices 1 2 3 4 5 6 
#
# 1 120.0164 19.7475 27.0476 0.0000 -0.6647 0.0000
# 2 19.7475 79.1765 28.6005 0.0000 11.6872 0.0000
# 3 27.0476 28.6005 93.0500 0.0000 3.0089 0.0000
# 4 0.0000 0.0000 0.0000 -0.8368 0.0000 -41.7279
# 5 -0.6647 11.6872 3.0089 0.0000 26.9654 0.0000
# 6 0.0000 0.0000 0.0000 -41.7279 0.0000 -22.5074
#
#
#
# Elastic Compliance Matrix: (Units=1/GPa)
#
#
# Indices 1 2 3 4 5 6 
#
# 1 0.009102 -0.001660 -0.002174 0.000000 0.001186 0.000000
# 2 -0.001660 0.015437 -0.004059 0.000000 -0.006279 0.000000
# 3 -0.002174 -0.004059 0.012617 0.000000 0.000298 0.000000
# 4 0.000000 0.000000 0.000000 0.013068 0.000000 -0.024227
# 5 0.001186 -0.006279 0.000298 0.000000 0.039802 0.000000
# 6 0.000000 0.000000 0.000000 -0.024227 0.000000 0.000486
#
#
# Mechanical properties :
#
#
# Convention : Reuss Voigt Hill
#
# Bulk Modulus (GPa) = 46.79556 49.22601 48.01078
# Shear Modulus (GPa) = 44.08376 15.18074 29.63225
#
# Velocity S-wave (km/s) = 4.74168 2.78253 3.88754
# Velocity P-wave (km/s) = 7.33789 5.95227 6.68110
#
# Compressibility (1/GPa) = 0.02136955
#
# Stress axis : x y z
#
# Youngs Moduli (GPa) = 109.86829 64.77883 79.25900
#
# Poissons Ratio (x) = 0.10753 0.17230
# Poissons Ratio (y) = 0.18238 0.32174
# Poissons Ratio (z) = 0.23884 0.26296
#
# Static dielectric constant tensor:
#      x y z
#    x 1.870630 0.000000 -0.015360 
#    y 0.000000 1.694280 0.000000 
#    z -0.015360 0.000000 1.687290 
# 
# From -- ./inp_files/42281.got.cif
#   From: 2010.05.17/outbox.cif.g08.bks.cpg/sg15_22_cif.got.tgz:42281.got - 2010.06.03 18:47:42.
