data_PCOD9302562
_publ_section_title
;
Structure prediction by ZEFSAII (Michael W. Deem and Ramdas Pophale) SiO2 
 PCOD9302562
Probable space group: C 2/C
;
_chemical_formula_sum "Si O2"
_cell_formula_units_Z 32
_cell_length_a 9.559655
_cell_length_b 21.848532
_cell_length_c 16.160553
_cell_angle_alpha 90.000000
_cell_angle_beta 155.735471
_cell_angle_gamma 90.000000
_cell_volume 1387.106253
_symmetry_space_group_name_H-M "C 2/C"
_symmetry_group_IT_number 15
_symmetry_cell_setting 'monoclinic'
loop_
_space_group_symop_operation_xyz
x,y,z
-x,y,1/2-z
-x,-y,-z
x,-y,1/2+z
1/2+x,1/2+y,z
1/2-x,1/2+y,1/2-z
1/2-x,1/2-y,-z
1/2+x,1/2-y,1/2+z
loop_
_atom_site_type_symbol
_atom_site_label
_atom_site_fract_x
_atom_site_fract_y
_atom_site_fract_z
Si Si1 0.699236 0.666297 0.655250
Si Si2 0.732930 0.540442 0.305377
Si Si3 0.236888 0.445203 0.947026
Si Si4 0.138639 0.283874 0.524307
O O1 0.439123 0.610847 0.516946
O O2 0.540138 0.730883 0.537120
O O3 0.000000 0.653635 0.750000
O O4 0.851883 0.672520 0.831113
O O5 0.500000 0.569430 0.250000
O O6 0.000000 0.500000 0.500000
O O7 0.971758 0.579010 0.373664
O O8 0.492795 0.494842 0.123209
O O9 0.000000 0.475742 0.750000
O O10 0.500000 0.309004 0.750000
O O11 0.250000 0.250000 0.500000
#
# Coordination Sequence:
#
# PCOD9302562 Si02
#       4
#     8   8   8   8
#     4   9  18  34  59  93 126 160 202 249 307 363
#     4   9  21  43  62  83 121 161 203 255 308 368
#     4  11  22  38  63  94 121 161 209 255 307 367
#     4   7  13  31  55  82 121 162 198 245 295 352
#
# _framework density 23.069609
#
# number of rings (size 3 to 8) (size 9 to 14) (size 15 to 20)
#    0.000    3.500    0.000    0.750    0.000    5.000 
#    0.000   27.500    0.000    1.500    0.000    1.750 
#    0.000    0.000    0.000    0.000    0.000    0.000 
#
# Total GULP energy -89183.993330 kJ/mol
# GULP energy per Si atom -5573.999583 kJ/mol
# Density = 2.301710 g / cm^3
# Si number density = 23.069609 Si / 1000 Ang^3
#
#
#
# Elastic Constant Matrix: (Units=GPa)
#
#
# Indices 1 2 3 4 5 6 
#
# 1 120.9390 32.0850 30.1767 0.0223 18.5520 -0.0697
# 2 32.0850 95.4615 52.0730 0.0177 0.3098 -0.0518
# 3 30.1767 52.0730 176.2276 0.2068 -37.0877 -0.3485
# 4 0.0223 0.0177 0.2068 2.7966 0.0489 34.6774
# 5 18.5520 0.3098 -37.0877 0.0489 43.5279 -0.1140
# 6 -0.0697 -0.0518 -0.3485 34.6774 -0.1140 -31.3656
#
#
#
# Elastic Compliance Matrix: (Units=1/GPa)
#
#
# Indices 1 2 3 4 5 6 
#
# 1 0.010488 -0.002099 -0.002575 -0.000012 -0.006649 0.000020
# 2 -0.002099 0.013488 -0.004214 -0.000013 -0.002792 0.000025
# 3 -0.002575 -0.004214 0.009258 0.000050 0.009015 -0.000068
# 4 -0.000012 -0.000013 0.000050 0.024310 0.000090 0.026876
# 5 -0.006649 -0.002792 0.009015 0.000090 0.033508 -0.000103
# 6 0.000020 0.000025 -0.000068 0.026876 -0.000103 -0.002167
#
#
# Mechanical properties :
#
#
# Convention : Reuss Voigt Hill
#
# Bulk Modulus (GPa) = 64.68773 69.03305 66.86039
# Shear Modulus (GPa) = 44.71721 21.54468 33.13095
#
# Velocity S-wave (km/s) = 4.40746 3.05929 3.79374
# Velocity P-wave (km/s) = 7.34861 6.51673 6.94514
#
# Compressibility (1/GPa) = 0.01545888
#
# Stress axis : x y z
#
# Youngs Moduli (GPa) = 95.34755 74.13757 108.01950
#
# Poissons Ratio (x) = 0.15560 0.27815
# Poissons Ratio (y) = 0.20012 0.45516
# Poissons Ratio (z) = 0.24552 0.31239
#
# Static dielectric constant tensor:
#      x y z
#    x 1.928600 -0.000030 -0.029090 
#    y -0.000030 1.862960 -0.000100 
#    z -0.029090 -0.000100 1.977570 
# 
# From -- ./inp_files/138031.got.cif
#   From: 2010.05.17/outbox.cif.g08.bks.cpg/sg15_70_cif.got.tgz:138031.got - 2010.06.03 18:47:42.
