data_PCOD9302293
_publ_section_title
;
Structure prediction by ZEFSAII (Michael W. Deem and Ramdas Pophale) SiO2 
 PCOD9302293
Probable space group: C 2/C
;
_chemical_formula_sum "Si O2"
_cell_formula_units_Z 48
_cell_length_a 7.856446
_cell_length_b 17.897820
_cell_length_c 14.607098
_cell_angle_alpha 90.000000
_cell_angle_beta 65.566080
_cell_angle_gamma 90.000000
_cell_volume 1869.997525
_symmetry_space_group_name_H-M "C 2/C"
_symmetry_group_IT_number 15
_symmetry_cell_setting 'monoclinic'
loop_
_space_group_symop_operation_xyz
x,y,z
-x,y,1/2-z
-x,-y,-z
x,-y,1/2+z
1/2+x,1/2+y,z
1/2-x,1/2+y,1/2-z
1/2-x,1/2-y,-z
1/2+x,1/2-y,1/2+z
loop_
_atom_site_type_symbol
_atom_site_label
_atom_site_fract_x
_atom_site_fract_y
_atom_site_fract_z
Si Si1 0.410689 0.267420 0.388135
Si Si2 0.210396 0.987175 0.486742
Si Si3 0.009900 0.385880 0.624571
Si Si4 0.367872 0.825248 0.457249
Si Si5 0.226075 0.339599 0.262527
Si Si6 0.281025 0.502169 0.299694
O O1 0.250000 0.250000 0.500000
O O2 0.408016 0.185765 0.345534
O O3 0.328082 0.328110 0.338132
O O4 0.631317 0.296142 0.339174
O O5 0.254263 0.900443 0.460447
O O6 0.346616 0.046093 0.409344
O O7 0.256521 0.004690 0.583174
O O8 0.000000 0.000000 0.500000
O O9 0.960109 0.350176 0.534722
O O10 0.823855 0.422888 0.705147
O O11 0.250000 0.750000 0.500000
O O12 0.517658 0.814221 0.341235
O O13 0.223160 0.429500 0.254602
O O14 0.500000 0.511448 0.250000
#
# Coordination Sequence:
#
# PCOD9302293 Si02
#       6
#     8   8   8   8   8   8
#     4  11  22  38  72 103 132 182 242 291 358 425
#     4  11  24  43  71 104 138 187 240 302 367 441
#     4  11  23  44  69  96 146 184 233 305 362 428
#     4  11  23  42  71 102 143 186 237 293 368 442
#     4  11  22  42  70  99 140 188 236 295 362 438
#     4  11  21  44  73  97 137 192 240 287 372 444
#
# _framework density 25.668482999999998
#
# number of rings (size 3 to 8) (size 9 to 14) (size 15 to 20)
#    0.000    1.000    6.667    1.000    2.333    4.000 
#    3.000    0.000    0.000    0.000    0.000    0.000 
#    0.000    0.000    0.000    0.000    0.000    0.000 
#
# Total GULP energy -133917.341980 kJ/mol
# GULP energy per Si atom -5579.889249 kJ/mol
# Density = 2.561006 g / cm^3
# Si number density = 25.668483 Si / 1000 Ang^3
#
#
#
# Elastic Constant Matrix: (Units=GPa)
#
#
# Indices 1 2 3 4 5 6 
#
# 1 72.0615 43.8016 41.4239 0.0000 -25.5224 0.0000
# 2 43.8016 213.5137 65.3866 0.0000 -36.0396 0.0000
# 3 41.4239 65.3866 202.7272 0.0000 -22.3179 0.0000
# 4 0.0000 0.0000 0.0000 38.4094 0.0000 -10.8994
# 5 -25.5224 -36.0396 -22.3179 0.0000 67.3690 0.0000
# 6 0.0000 0.0000 0.0000 -10.8994 0.0000 32.7923
#
#
#
# Elastic Compliance Matrix: (Units=1/GPa)
#
#
# Indices 1 2 3 4 5 6 
#
# 1 0.018402 -0.002165 -0.002514 0.000000 0.004981 0.000000
# 2 -0.002165 0.005822 -0.001228 0.000000 0.001888 0.000000
# 3 -0.002514 -0.001228 0.005880 0.000000 0.000339 0.000000
# 4 0.000000 0.000000 0.000000 0.028747 0.000000 0.009555
# 5 0.004981 0.001888 0.000339 0.000000 0.017853 0.000000
# 6 0.000000 0.000000 0.000000 0.009555 0.000000 0.033671
#
#
# Mechanical properties :
#
#
# Convention : Reuss Voigt Hill
#
# Bulk Modulus (GPa) = 54.66952 87.72518 71.19735
# Shear Modulus (GPa) = 38.97637 50.22682 44.60160
#
# Velocity S-wave (km/s) = 3.90096 4.42832 4.17298
# Velocity P-wave (km/s) = 6.45248 7.77155 7.14253
#
# Compressibility (1/GPa) = 0.01829173
#
# Stress axis : x y z
#
# Youngs Moduli (GPa) = 54.34280 171.75516 170.07859
#
# Poissons Ratio (x) = 0.37177 0.42751
# Poissons Ratio (y) = 0.11763 0.20881
# Poissons Ratio (z) = 0.13660 0.21087
#
# Static dielectric constant tensor:
#      x y z
#    x 2.212020 0.000000 0.009430 
#    y 0.000000 2.009550 0.000000 
#    z 0.009430 0.000000 2.664250 
# 
# From -- ./inp_files/232493.got.cif
#   From: 2010.05.17/outbox.cif.g08.bks.cpg/sg15_117_cif.got.tgz:232493.got - 2010.06.03 18:47:42.
