data_PCOD9302732
_publ_section_title
;
Structure prediction by ZEFSAII (Michael W. Deem and Ramdas Pophale) SiO2 
 PCOD9302732
Probable space group: C 2/C
;
_chemical_formula_sum "Si O2"
_cell_formula_units_Z 52
_cell_length_a 18.564986
_cell_length_b 17.425538
_cell_length_c 8.914503
_cell_angle_alpha 90.000000
_cell_angle_beta 52.343532
_cell_angle_gamma 90.000000
_cell_volume 2283.137041
_symmetry_space_group_name_H-M "C 2/C"
_symmetry_group_IT_number 15
_symmetry_cell_setting 'monoclinic'
loop_
_space_group_symop_operation_xyz
x,y,z
-x,y,1/2-z
-x,-y,-z
x,-y,1/2+z
1/2+x,1/2+y,z
1/2-x,1/2+y,1/2-z
1/2-x,1/2-y,-z
1/2+x,1/2-y,1/2+z
loop_
_atom_site_type_symbol
_atom_site_label
_atom_site_fract_x
_atom_site_fract_y
_atom_site_fract_z
Si Si1 0.000000 0.144307 0.750000
Si Si2 0.838824 0.399147 0.696320
Si Si3 0.160227 0.554224 0.641799
Si Si4 0.973681 0.844939 0.951101
Si Si5 0.311191 0.279237 0.556155
Si Si6 0.517079 0.175696 0.906658
Si Si7 0.771121 0.186118 0.600911
O O1 0.091715 0.193455 0.621275
O O2 0.987448 0.109442 0.593029
O O3 0.832596 0.466752 0.822455
O O4 0.856979 0.437158 0.512043
O O5 0.746585 0.350467 0.804096
O O6 0.925800 0.345183 0.613160
O O7 0.251122 0.602325 0.562424
O O8 0.083870 0.602256 0.830379
O O9 0.032873 0.767255 0.905229
O O10 0.000000 0.877152 0.750000
O O11 0.870039 0.815807 0.051714
O O12 0.250000 0.250000 0.500000
O O13 0.303283 0.209337 0.680987
O O14 0.500000 0.175995 0.750000
O O15 0.750000 0.250000 0.500000
#
# Coordination Sequence:
#
# PCOD9302732 Si02
#       7
#     4   8   8   8   8   8   8
#     4  12  24  40  64 102 130 170 226 294 340 398
#     4  11  23  41  61  94 135 177 220 276 344 407
#     4  11  24  37  66  95 136 176 220 273 340 414
#     4  11  22  39  67  97 136 174 226 280 340 403
#     4  12  24  42  68  97 134 172 231 290 334 400
#     4   9  17  39  60  92 132 178 215 264 332 413
#     4  12  21  42  68  97 130 180 225 278 340 402
#
# _framework density 22.775682
#
# number of rings (size 3 to 8) (size 9 to 14) (size 15 to 20)
#    0.000    0.923    4.615    4.154    2.154    0.000 
#    2.769    0.000    1.692    1.846    0.000    0.000 
#    0.000    0.000    0.000    0.000    0.000    0.000 
#
# Total GULP energy -144861.721677 kJ/mol
# GULP energy per Si atom -5571.604680 kJ/mol
# Density = 2.272384 g / cm^3
# Si number density = 22.775682 Si / 1000 Ang^3
#
#
#
# Elastic Constant Matrix: (Units=GPa)
#
#
# Indices 1 2 3 4 5 6 
#
# 1 70.2308 -24.8281 14.6608 0.0000 1.7865 0.0000
# 2 -24.8281 36.3799 -2.9203 0.0000 14.2153 0.0000
# 3 14.6608 -2.9203 92.1210 0.0000 6.3715 0.0000
# 4 0.0000 0.0000 0.0000 16.6742 0.0000 11.4942
# 5 1.7865 14.2153 6.3715 0.0000 50.5293 0.0000
# 6 0.0000 0.0000 0.0000 11.4942 0.0000 19.6614
#
#
#
# Elastic Compliance Matrix: (Units=1/GPa)
#
#
# Indices 1 2 3 4 5 6 
#
# 1 0.020376 0.015588 -0.002417 0.000000 -0.004801 0.000000
# 2 0.015588 0.043041 -0.000243 0.000000 -0.012629 0.000000
# 3 -0.002417 -0.000243 0.011320 0.000000 -0.001274 0.000000
# 4 0.000000 0.000000 0.000000 0.100456 0.000000 -0.058727
# 5 -0.004801 -0.012629 -0.001274 0.000000 0.023674 0.000000
# 6 0.000000 0.000000 0.000000 -0.058727 0.000000 0.085194
#
#
# Mechanical properties :
#
#
# Convention : Reuss Voigt Hill
#
# Bulk Modulus (GPa) = 9.94089 19.17295 14.55692
# Shear Modulus (GPa) = 17.13880 31.49426 24.31653
#
# Velocity S-wave (km/s) = 2.74616 3.72264 3.27104
# Velocity P-wave (km/s) = 3.79860 5.18785 4.54660
#
# Compressibility (1/GPa) = 0.10059465
#
# Stress axis : x y z
#
# Youngs Moduli (GPa) = 49.07731 23.23351 88.33710
#
# Poissons Ratio (x) = -0.36216 0.21347
# Poissons Ratio (y) = -0.76501 0.02145
# Poissons Ratio (z) = 0.11860 0.00564
#
# Static dielectric constant tensor:
#      x y z
#    x 1.742660 0.000000 0.030130 
#    y 0.000000 1.916070 0.000000 
#    z 0.030130 0.000000 1.921540 
# 
# From -- ./inp_files/56958.got.cif
#   From: 2010.05.17/outbox.cif.g08.bks.cpg/sg15_29_cif.got.tgz:56958.got - 2010.06.03 18:47:42.
