data_PCOD9302862
_publ_section_title
;
Structure prediction by ZEFSAII (Michael W. Deem and Ramdas Pophale) SiO2 
 PCOD9302862
Probable space group: C 2/C
;
_chemical_formula_sum "Si O2"
_cell_formula_units_Z 40
_cell_length_a 16.697067
_cell_length_b 16.248963
_cell_length_c 11.676659
_cell_angle_alpha 90.000000
_cell_angle_beta 145.958798
_cell_angle_gamma 90.000000
_cell_volume 1773.408321
_symmetry_space_group_name_H-M "C 2/C"
_symmetry_group_IT_number 15
_symmetry_cell_setting 'monoclinic'
loop_
_space_group_symop_operation_xyz
x,y,z
-x,y,1/2-z
-x,-y,-z
x,-y,1/2+z
1/2+x,1/2+y,z
1/2-x,1/2+y,1/2-z
1/2-x,1/2-y,-z
1/2+x,1/2-y,1/2+z
loop_
_atom_site_type_symbol
_atom_site_label
_atom_site_fract_x
_atom_site_fract_y
_atom_site_fract_z
Si Si1 0.339488 0.949853 0.029740
Si Si2 0.389194 0.431182 0.325695
Si Si3 0.655960 0.350373 0.989248
Si Si4 0.453153 0.269397 0.071672
Si Si5 0.647547 0.807501 0.622196
O O1 0.500000 0.973545 0.250000
O O2 0.273747 0.886954 0.044781
O O3 0.341817 0.899046 0.913457
O O4 0.232575 0.026005 0.892858
O O5 0.500000 0.500000 0.500000
O O6 0.326968 0.393815 0.368382
O O7 0.469212 0.357309 0.356262
O O8 0.654474 0.254393 0.021532
O O9 0.500000 0.369261 0.750000
O O10 0.500000 0.235976 0.250000
O O11 0.508671 0.212976 0.032873
O O12 0.285105 0.284950 0.861451
#
# Coordination Sequence:
#
# PCOD9302862 Si02
#       5
#     8   8   8   8   8
#     4  12  24  40  67  98 135 173 216 280 333 376
#     4  11  23  42  64  99 128 176 225 261 318 408
#     4  11  22  40  67  95 131 176 221 266 334 391
#     4  11  24  42  69  94 133 178 217 271 330 393
#     4  11  22  42  64 101 132 165 229 269 324 402
#
# _framework density 22.555437999999999
#
# number of rings (size 3 to 8) (size 9 to 14) (size 15 to 20)
#    0.000    0.800    4.000    4.200    2.800    0.800 
#    0.000    8.000    0.000    0.000    0.000    0.000 
#    0.000    0.000    0.000    0.000    0.000    0.000 
#
# Total GULP energy -111993.743036 kJ/mol
# GULP energy per Si atom -5599.687152 kJ/mol
# Density = 2.250410 g / cm^3
# Si number density = 22.555438 Si / 1000 Ang^3
#
#
#
# Elastic Constant Matrix: (Units=GPa)
#
#
# Indices 1 2 3 4 5 6 
#
# 1 52.4702 9.3259 2.4801 0.0000 -3.3521 0.0000
# 2 9.3259 49.6511 -16.8466 0.0000 -0.1304 0.0000
# 3 2.4801 -16.8466 98.3480 0.0000 12.9032 0.0000
# 4 0.0000 0.0000 0.0000 64.7925 0.0000 14.7874
# 5 -3.3521 -0.1304 12.9032 0.0000 33.9783 0.0000
# 6 0.0000 0.0000 0.0000 14.7874 0.0000 4.3960
#
#
#
# Elastic Compliance Matrix: (Units=1/GPa)
#
#
# Indices 1 2 3 4 5 6 
#
# 1 0.020060 -0.004297 -0.001578 0.000000 0.002562 0.000000
# 2 -0.004297 0.022365 0.004193 0.000000 -0.001930 0.000000
# 3 -0.001578 0.004193 0.011518 0.000000 -0.004514 0.000000
# 4 0.000000 0.000000 0.000000 0.066443 0.000000 -0.223501
# 5 0.002562 -0.001930 -0.004514 0.000000 0.031390 0.000000
# 6 0.000000 0.000000 0.000000 -0.223501 0.000000 0.979290
#
#
# Mechanical properties :
#
#
# Convention : Reuss Voigt Hill
#
# Bulk Modulus (GPa) = 19.77078 21.15423 20.46251
# Shear Modulus (GPa) = 4.34295 34.33403 19.33849
#
# Velocity S-wave (km/s) = 1.38911 3.90578 2.93127
# Velocity P-wave (km/s) = 3.37006 5.45337 4.53302
#
# Compressibility (1/GPa) = 0.05057970
#
# Stress axis : x y z
#
# Youngs Moduli (GPa) = 49.84957 44.71260 86.81966
#
# Poissons Ratio (x) = 0.19211 0.13700
# Poissons Ratio (y) = 0.21418 -0.36400
# Poissons Ratio (z) = 0.07866 -0.18746
#
# Static dielectric constant tensor:
#      x y z
#    x 1.829770 0.000000 0.006500 
#    y 0.000000 1.858930 0.000000 
#    z 0.006500 0.000000 1.816770 
# 
# From -- ./inp_files/39422.got.cif
#   From: 2010.05.17/outbox.cif.g08.bks.cpg/sg15_20_cif.got.tgz:39422.got - 2010.06.03 18:47:42.
