data_PCOD9302495
_publ_section_title
;
Structure prediction by ZEFSAII (Michael W. Deem and Ramdas Pophale) SiO2 
 PCOD9302495
Probable space group: C 2/C
;
_chemical_formula_sum "Si O2"
_cell_formula_units_Z 40
_cell_length_a 29.147299
_cell_length_b 10.288549
_cell_length_c 12.292570
_cell_angle_alpha 90.000000
_cell_angle_beta 28.055547
_cell_angle_gamma 90.000000
_cell_volume 1733.785480
_symmetry_space_group_name_H-M "C 2/C"
_symmetry_group_IT_number 15
_symmetry_cell_setting 'monoclinic'
loop_
_space_group_symop_operation_xyz
x,y,z
-x,y,1/2-z
-x,-y,-z
x,-y,1/2+z
1/2+x,1/2+y,z
1/2-x,1/2+y,1/2-z
1/2-x,1/2-y,-z
1/2+x,1/2-y,1/2+z
loop_
_atom_site_type_symbol
_atom_site_label
_atom_site_fract_x
_atom_site_fract_y
_atom_site_fract_z
Si Si1 0.769589 0.584113 0.886092
Si Si2 0.767624 0.700165 0.342569
Si Si3 0.893923 0.708455 0.453046
Si Si4 0.408298 0.326463 0.877640
Si Si5 0.916108 0.548650 0.760072
O O1 0.805434 0.444924 0.766712
O O2 0.835101 0.689566 0.687183
O O3 0.810865 0.576832 0.922250
O O4 0.658213 0.607573 0.078883
O O5 0.750000 0.750000 0.500000
O O6 0.663872 0.696196 0.502620
O O7 0.832094 0.793701 0.133701
O O8 0.903061 0.569819 0.371320
O O9 0.000000 0.759016 0.250000
O O10 0.500000 0.389161 0.750000
O O11 0.444050 0.186909 0.754465
O O12 0.000000 0.500000 0.500000
#
# Coordination Sequence:
#
# PCOD9302495 Si02
#       5
#     8   8   8   8   8
#     4  11  23  41  63  93 129 169 211 270 324 383
#     4  11  23  41  65  91 128 172 215 259 327 386
#     4  11  22  37  62  95 122 161 216 268 311 384
#     4  11  25  42  63  95 133 169 217 269 323 385
#     4  12  21  38  69  93 124 164 223 269 321 374
#
# _framework density 23.070905
#
# number of rings (size 3 to 8) (size 9 to 14) (size 15 to 20)
#    0.000    0.800    6.000    2.400    0.000    0.800 
#    0.000    1.000    0.000    0.000    0.000    0.000 
#    0.000    0.000    0.000    0.000    0.000    0.000 
#
# Total GULP energy -111675.579011 kJ/mol
# GULP energy per Si atom -5583.778951 kJ/mol
# Density = 2.301839 g / cm^3
# Si number density = 23.070905 Si / 1000 Ang^3
#
#
#
# Elastic Constant Matrix: (Units=GPa)
#
#
# Indices 1 2 3 4 5 6 
#
# 1 117.5808 -6.5947 34.6879 0.0000 -42.0510 0.0000
# 2 -6.5947 31.2121 -0.4357 0.0000 5.2420 0.0000
# 3 34.6879 -0.4357 77.3701 0.0000 -16.6070 0.0000
# 4 0.0000 0.0000 0.0000 19.9162 0.0000 -1.5257
# 5 -42.0510 5.2420 -16.6070 0.0000 53.9123 0.0000
# 6 0.0000 0.0000 0.0000 -1.5257 0.0000 36.1954
#
#
#
# Elastic Compliance Matrix: (Units=1/GPa)
#
#
# Indices 1 2 3 4 5 6 
#
# 1 0.012824 0.001196 -0.003877 0.000000 0.008692 0.000000
# 2 0.001196 0.032703 -0.000893 0.000000 -0.002522 0.000000
# 3 -0.003877 -0.000893 0.015021 0.000000 0.001690 0.000000
# 4 0.000000 0.000000 0.000000 0.050373 0.000000 0.002123
# 5 0.008692 -0.002522 0.001690 0.000000 0.026094 0.000000
# 6 0.000000 0.000000 0.000000 0.002123 0.000000 0.027717
#
#
# Mechanical properties :
#
#
# Convention : Reuss Voigt Hill
#
# Bulk Modulus (GPa) = 18.72726 31.27534 25.00130
# Shear Modulus (GPa) = 26.35999 35.23848 30.79924
#
# Velocity S-wave (km/s) = 3.38385 3.91244 3.65770
# Velocity P-wave (km/s) = 4.83758 5.83054 5.35711
#
# Compressibility (1/GPa) = 0.05339810
#
# Stress axis : x y z
#
# Youngs Moduli (GPa) = 77.97687 30.57860 66.57430
#
# Poissons Ratio (x) = -0.03656 0.25812
# Poissons Ratio (y) = -0.09323 0.05947
# Poissons Ratio (z) = 0.30233 0.02732
#
# Static dielectric constant tensor:
#      x y z
#    x 1.911100 0.000000 -0.035090 
#    y 0.000000 1.795450 0.000000 
#    z -0.035090 0.000000 1.877980 
# 
# From -- ./inp_files/94485.got.cif
#   From: 2010.05.17/outbox.cif.g08.bks.cpg/sg15_48_cif.got.tgz:94485.got - 2010.06.03 18:47:42.
