data_PCOD9302549
_publ_section_title
;
Structure prediction by ZEFSAII (Michael W. Deem and Ramdas Pophale) SiO2 
 PCOD9302549
Probable space group: C 2/C
;
_chemical_formula_sum "Si O2"
_cell_formula_units_Z 44
_cell_length_a 11.538089
_cell_length_b 20.678222
_cell_length_c 10.044011
_cell_angle_alpha 90.000000
_cell_angle_beta 106.029451
_cell_angle_gamma 90.000000
_cell_volume 2303.200898
_symmetry_space_group_name_H-M "C 2/C"
_symmetry_group_IT_number 15
_symmetry_cell_setting 'monoclinic'
loop_
_space_group_symop_operation_xyz
x,y,z
-x,y,1/2-z
-x,-y,-z
x,-y,1/2+z
1/2+x,1/2+y,z
1/2-x,1/2+y,1/2-z
1/2-x,1/2-y,-z
1/2+x,1/2-y,1/2+z
loop_
_atom_site_type_symbol
_atom_site_label
_atom_site_fract_x
_atom_site_fract_y
_atom_site_fract_z
Si Si1 0.000000 0.068829 0.750000
Si Si2 0.644845 0.654930 0.986370
Si Si3 0.577499 0.199358 0.408917
Si Si4 0.012843 0.401939 0.099748
Si Si5 0.700486 0.005153 0.059106
Si Si6 0.860262 0.963544 0.856613
O O1 0.894466 0.114293 0.658201
O O2 0.954235 0.020371 0.850823
O O3 0.587277 0.725280 0.949136
O O4 0.786542 0.669656 0.057083
O O5 0.597384 0.608372 0.089737
O O6 0.500000 0.190623 0.250000
O O7 0.516447 0.160402 0.508679
O O8 0.000000 0.386468 0.250000
O O9 0.131347 0.444871 0.105256
O O10 0.901491 0.446345 0.022286
O O11 0.781889 0.037994 0.197205
O O12 0.776686 0.984058 0.954601
#
# Coordination Sequence:
#
# PCOD9302549 Si02
#       6
#     4   8   8   8   8   8
#     4  12  24  42  68  96 136 170 218 274 324 386
#     4  11  24  42  67  94 127 178 219 261 330 392
#     4  11  23  44  69  90 131 176 223 262 321 402
#     4  11  22  38  62 100 133 169 212 278 330 380
#     4  11  23  37  65  96 135 167 217 272 334 383
#     4  12  22  42  63  96 128 174 216 271 323 386
#
# _framework density 19.103846999999998
#
# number of rings (size 3 to 8) (size 9 to 14) (size 15 to 20)
#    0.000    0.727    6.364    1.636    0.000    0.000 
#    1.636    0.000    0.000    4.364    0.000    0.000 
#    0.000    0.000    0.000    0.000    0.000    0.000 
#
# Total GULP energy -122820.080106 kJ/mol
# GULP energy per Si atom -5582.730914 kJ/mol
# Density = 1.906037 g / cm^3
# Si number density = 19.103847 Si / 1000 Ang^3
#
#
#
# Elastic Constant Matrix: (Units=GPa)
#
#
# Indices 1 2 3 4 5 6 
#
# 1 82.8140 48.5468 45.4871 0.0000 1.4523 0.0000
# 2 48.5468 154.7401 72.1254 0.0000 -5.1895 0.0000
# 3 45.4871 72.1254 159.4082 0.0000 -0.8643 0.0000
# 4 0.0000 0.0000 0.0000 36.1341 0.0000 -1.5649
# 5 1.4523 -5.1895 -0.8643 0.0000 42.8071 0.0000
# 6 0.0000 0.0000 0.0000 -1.5649 0.0000 18.8925
#
#
#
# Elastic Compliance Matrix: (Units=1/GPa)
#
#
# Indices 1 2 3 4 5 6 
#
# 1 0.015811 -0.003662 -0.002860 0.000000 -0.001038 0.000000
# 2 -0.003662 0.009074 -0.003054 0.000000 0.001163 0.000000
# 3 -0.002860 -0.003054 0.008471 0.000000 -0.000102 0.000000
# 4 0.000000 0.000000 0.000000 0.027774 0.000000 0.002301
# 5 -0.001038 0.001163 -0.000102 0.000000 0.023535 0.000000
# 6 0.000000 0.000000 0.000000 0.002301 0.000000 0.053122
#
#
# Mechanical properties :
#
#
# Convention : Reuss Voigt Hill
#
# Bulk Modulus (GPa) = 70.41018 81.03120 75.72069
# Shear Modulus (GPa) = 30.92631 34.95361 32.93996
#
# Velocity S-wave (km/s) = 4.02786 4.28210 4.15692
# Velocity P-wave (km/s) = 7.65298 8.18271 7.92227
#
# Compressibility (1/GPa) = 0.01420249
#
# Stress axis : x y z
#
# Youngs Moduli (GPa) = 63.24563 110.20527 118.05212
#
# Poissons Ratio (x) = 0.40358 0.33769
# Poissons Ratio (y) = 0.23161 0.36057
# Poissons Ratio (z) = 0.18091 0.33660
#
# Static dielectric constant tensor:
#      x y z
#    x 1.704780 0.000000 0.043280 
#    y 0.000000 1.669390 0.000000 
#    z 0.043280 0.000000 1.659170 
# 
# From -- ./inp_files/30825.got.cif
#   From: 2010.05.17/outbox.cif.g08.bks.cpg/sg15_16_cif.got.tgz:30825.got - 2010.06.03 18:47:42.
