data_PCOD9302780
_publ_section_title
;
Structure prediction by ZEFSAII (Michael W. Deem and Ramdas Pophale) SiO2 
 PCOD9302780
Probable space group: C 2/C
;
_chemical_formula_sum "Si O2"
_cell_formula_units_Z 32
_cell_length_a 9.860134
_cell_length_b 11.071852
_cell_length_c 28.708717
_cell_angle_alpha 90.000000
_cell_angle_beta 153.025280
_cell_angle_gamma 90.000000
_cell_volume 1421.632552
_symmetry_space_group_name_H-M "C 2/C"
_symmetry_group_IT_number 15
_symmetry_cell_setting 'monoclinic'
loop_
_space_group_symop_operation_xyz
x,y,z
-x,y,1/2-z
-x,-y,-z
x,-y,1/2+z
1/2+x,1/2+y,z
1/2-x,1/2+y,1/2-z
1/2-x,1/2-y,-z
1/2+x,1/2-y,1/2+z
loop_
_atom_site_type_symbol
_atom_site_label
_atom_site_fract_x
_atom_site_fract_y
_atom_site_fract_z
Si Si1 0.130801 0.832975 0.833267
Si Si2 0.132057 0.925202 0.937829
Si Si3 0.552430 0.309985 0.135612
Si Si4 0.278386 0.197927 0.869103
O O1 0.145078 0.893699 0.886855
O O2 0.434593 0.779879 0.904831
O O3 0.000000 0.910385 0.750000
O O4 0.881801 0.724397 0.758676
O O5 0.938432 0.823483 0.904251
O O6 0.471125 0.906431 0.058897
O O7 0.987160 0.056039 0.896095
O O8 0.332951 0.294146 0.111831
O O9 0.000000 0.182915 0.750000
#
# Coordination Sequence:
#
# PCOD9302780 Si02
#       4
#     8   8   8   8
#     4   8  20  39  58  91 119 149 206 233 292 366
#     4  11  22  40  64  87 121 161 190 249 302 337
#     4   9  21  39  60  85 125 151 197 249 289 352
#     4  11  22  40  62  90 120 156 205 239 292 362
#
# _framework density 22.509331
#
# number of rings (size 3 to 8) (size 9 to 14) (size 15 to 20)
#    1.500    0.500    2.500    0.750    3.500    2.000 
#    0.000    7.500    0.000    0.000    0.000    0.000 
#    0.000    0.000    0.000    0.000    0.000    0.000 
#
# Total GULP energy -89256.980279 kJ/mol
# GULP energy per Si atom -5578.561267 kJ/mol
# Density = 2.245810 g / cm^3
# Si number density = 22.509331 Si / 1000 Ang^3
#
#
#
# Elastic Constant Matrix: (Units=GPa)
#
#
# Indices 1 2 3 4 5 6 
#
# 1 65.5332 23.3689 2.8034 -0.0002 3.8159 0.0001
# 2 23.3689 91.4274 19.6879 0.0004 3.9171 0.0000
# 3 2.8034 19.6879 125.2317 -0.0019 -3.2535 0.0003
# 4 -0.0002 0.0004 -0.0019 29.0630 -0.0002 -1.5295
# 5 3.8159 3.9171 -3.2535 -0.0002 34.7605 0.0001
# 6 0.0001 0.0000 0.0003 -1.5295 0.0001 20.6965
#
#
#
# Elastic Compliance Matrix: (Units=1/GPa)
#
#
# Indices 1 2 3 4 5 6 
#
# 1 0.016863 -0.004310 0.000265 0.000000 -0.001341 0.000000
# 2 -0.004310 0.012495 -0.001897 0.000000 -0.001112 0.000000
# 3 0.000265 -0.001897 0.008302 0.000001 0.000962 0.000000
# 4 0.000000 0.000000 0.000001 0.034542 0.000000 0.002553
# 5 -0.001341 -0.001112 0.000962 0.000000 0.029131 0.000000
# 6 0.000000 0.000000 0.000000 0.002553 0.000000 0.048506
#
#
# Mechanical properties :
#
#
# Convention : Reuss Voigt Hill
#
# Bulk Modulus (GPa) = 38.79287 41.54583 40.16935
# Shear Modulus (GPa) = 29.35724 32.65948 31.00836
#
# Velocity S-wave (km/s) = 3.61532 3.81324 3.71560
# Velocity P-wave (km/s) = 5.89058 6.15508 6.02428
#
# Compressibility (1/GPa) = 0.02577793
#
# Stress axis : x y z
#
# Youngs Moduli (GPa) = 59.30122 80.02960 120.44635
#
# Poissons Ratio (x) = 0.34492 -0.03195
# Poissons Ratio (y) = 0.25558 0.22847
# Poissons Ratio (z) = -0.01573 0.15180
#
# Static dielectric constant tensor:
#      x y z
#    x 1.805260 0.000000 -0.000860 
#    y 0.000000 1.834840 0.000000 
#    z -0.000860 0.000000 1.965770 
# 
# From -- ./inp_files/141194.got.cif
#   From: 2010.05.17/outbox.cif.g08.bks.cpg/sg15_71_cif.got.tgz:141194.got - 2010.06.03 18:47:42.
