data_PCOD9302970
_publ_section_title
;
Structure prediction by ZEFSAII (Michael W. Deem and Ramdas Pophale) SiO2 
 PCOD9302970
Probable space group: C 2/C
;
_chemical_formula_sum "Si O2"
_cell_formula_units_Z 40
_cell_length_a 15.516987
_cell_length_b 26.578981
_cell_length_c 8.215537
_cell_angle_alpha 90.000000
_cell_angle_beta 146.812754
_cell_angle_gamma 90.000000
_cell_volume 1854.676553
_symmetry_space_group_name_H-M "C 2/C"
_symmetry_group_IT_number 15
_symmetry_cell_setting 'monoclinic'
loop_
_space_group_symop_operation_xyz
x,y,z
-x,y,1/2-z
-x,-y,-z
x,-y,1/2+z
1/2+x,1/2+y,z
1/2-x,1/2+y,1/2-z
1/2-x,1/2-y,-z
1/2+x,1/2-y,1/2+z
loop_
_atom_site_type_symbol
_atom_site_label
_atom_site_fract_x
_atom_site_fract_y
_atom_site_fract_z
Si Si1 0.314053 0.306034 0.414262
Si Si2 0.763862 0.401814 0.427725
Si Si3 0.070553 0.554950 0.584397
Si Si4 0.244928 0.306930 0.679027
Si Si5 0.000000 0.127374 0.750000
Si Si6 0.000000 0.619299 0.750000
O O1 0.254056 0.348352 0.194746
O O2 0.233557 0.308280 0.464811
O O3 0.278125 0.249603 0.296537
O O4 0.500000 0.311233 0.750000
O O5 0.784183 0.441379 0.310376
O O6 0.618792 0.404126 0.323769
O O7 0.924671 0.413268 0.778738
O O8 0.000000 0.500000 0.500000
O O9 0.106918 0.582534 0.810873
O O10 0.106980 0.342902 0.521580
O O11 0.401854 0.334700 0.981080
#
# Coordination Sequence:
#
# PCOD9302970 Si02
#       6
#     8   8   8   8   4   4
#     4  11  22  41  65  97 144 192 234 273 345 419
#     4  11  24  43  70 102 139 176 230 295 350 410
#     4  11  25  46  73  99 129 181 245 293 351 422
#     4  11  24  39  65 101 145 191 233 279 344 418
#     4  12  24  42  66 103 147 178 228 292 352 400
#     4  12  20  42  70  95 137 186 232 288 348 420
#
# _framework density 21.567102999999999
#
# number of rings (size 3 to 8) (size 9 to 14) (size 15 to 20)
#    0.000    0.800    7.000    1.200    0.000    2.400 
#    0.000    1.000    2.200    0.000    0.000    0.000 
#    0.000    0.000    0.000    0.000    0.000    0.000 
#
# Total GULP energy -111544.887198 kJ/mol
# GULP energy per Si atom -5577.244360 kJ/mol
# Density = 2.151802 g / cm^3
# Si number density = 21.567103 Si / 1000 Ang^3
#
#
#
# Elastic Constant Matrix: (Units=GPa)
#
#
# Indices 1 2 3 4 5 6 
#
# 1 137.7769 69.3705 11.0084 0.0000 1.5324 0.0000
# 2 69.3705 134.6074 22.1773 0.0000 9.1446 0.0000
# 3 11.0084 22.1773 60.7047 0.0000 16.1480 0.0000
# 4 0.0000 0.0000 0.0000 24.6335 0.0000 7.1145
# 5 1.5324 9.1446 16.1480 0.0000 22.7230 0.0000
# 6 0.0000 0.0000 0.0000 7.1145 0.0000 15.7112
#
#
#
# Elastic Compliance Matrix: (Units=1/GPa)
#
#
# Indices 1 2 3 4 5 6 
#
# 1 0.009851 -0.005131 -0.000351 0.000000 0.001650 0.000000
# 2 -0.005131 0.010613 -0.002346 0.000000 -0.002258 0.000000
# 3 -0.000351 -0.002346 0.021131 0.000000 -0.014049 0.000000
# 4 0.000000 0.000000 0.000000 0.046703 0.000000 -0.021149
# 5 0.001650 -0.002258 -0.014049 0.000000 0.054789 0.000000
# 6 0.000000 0.000000 0.000000 -0.021149 0.000000 0.073226
#
#
# Mechanical properties :
#
#
# Convention : Reuss Voigt Hill
#
# Bulk Modulus (GPa) = 38.55170 59.80015 49.17593
# Shear Modulus (GPa) = 20.77991 27.98239 24.38115
#
# Velocity S-wave (km/s) = 3.10740 3.60593 3.36591
# Velocity P-wave (km/s) = 5.54875 6.71749 6.16090
#
# Compressibility (1/GPa) = 0.02593919
#
# Stress axis : x y z
#
# Youngs Moduli (GPa) = 101.50884 94.22081 47.32375
#
# Poissons Ratio (x) = 0.48347 0.01660
# Poissons Ratio (y) = 0.52087 0.11103
# Poissons Ratio (z) = 0.03561 0.22107
#
# Static dielectric constant tensor:
#      x y z
#    x 1.914400 0.000000 -0.031690 
#    y 0.000000 1.767280 0.000000 
#    z -0.031690 0.000000 1.903430 
# 
# From -- ./inp_files/51711.got.cif
#   From: 2010.05.17/outbox.cif.g08.bks.cpg/sg15_26_cif.got.tgz:51711.got - 2010.06.03 18:47:42.
