data_PCOD9302666
_publ_section_title
;
Structure prediction by ZEFSAII (Michael W. Deem and Ramdas Pophale) SiO2 
 PCOD9302666
Probable space group: C 2/C
;
_chemical_formula_sum "Si O2"
_cell_formula_units_Z 36
_cell_length_a 6.625223
_cell_length_b 26.124105
_cell_length_c 11.137394
_cell_angle_alpha 90.000000
_cell_angle_beta 118.935670
_cell_angle_gamma 90.000000
_cell_volume 1686.998493
_symmetry_space_group_name_H-M "C 2/C"
_symmetry_group_IT_number 15
_symmetry_cell_setting 'monoclinic'
loop_
_space_group_symop_operation_xyz
x,y,z
-x,y,1/2-z
-x,-y,-z
x,-y,1/2+z
1/2+x,1/2+y,z
1/2-x,1/2+y,1/2-z
1/2-x,1/2-y,-z
1/2+x,1/2-y,1/2+z
loop_
_atom_site_type_symbol
_atom_site_label
_atom_site_fract_x
_atom_site_fract_y
_atom_site_fract_z
Si Si1 0.661982 0.381835 0.894794
Si Si2 0.025738 0.292938 0.615105
Si Si3 0.008889 0.816338 0.447629
Si Si4 0.500000 0.601871 0.750000
Si Si5 0.523185 0.042046 0.612913
O O1 0.500000 0.409329 0.750000
O O2 0.828351 0.342237 0.875463
O O3 0.505519 0.344584 0.930361
O O4 0.816965 0.418519 0.021118
O O5 0.000000 0.286919 0.750000
O O6 0.116849 0.238348 0.593086
O O7 0.771808 0.303519 0.489452
O O8 0.924451 0.859008 0.332155
O O9 0.273823 0.567752 0.663196
O O10 0.500000 0.027420 0.750000
O O11 0.500000 0.000000 0.500000
#
# Coordination Sequence:
#
# PCOD9302666 Si02
#       5
#     8   8   8   4   8
#     4  12  25  44  70 107 142 186 235 295 355 425
#     4  11  22  39  64 105 145 192 234 276 342 424
#     4  11  23  41  68 101 146 187 233 283 345 428
#     4  12  24  48  76 100 140 188 234 294 364 430
#     4  12  30  51  77 106 137 187 247 311 372 432
#
# _framework density 21.339676000000001
#
# number of rings (size 3 to 8) (size 9 to 14) (size 15 to 20)
#    0.000    0.444    7.778    0.667    1.556    3.556 
#    4.000    0.000    0.000    0.000    0.000    0.000 
#    0.000    0.000    0.000    0.000    0.000    0.000 
#
# Total GULP energy -100442.049755 kJ/mol
# GULP energy per Si atom -5580.113875 kJ/mol
# Density = 2.129111 g / cm^3
# Si number density = 21.339676 Si / 1000 Ang^3
#
#
#
# Elastic Constant Matrix: (Units=GPa)
#
#
# Indices 1 2 3 4 5 6 
#
# 1 49.3662 32.0355 23.7574 0.0000 3.2386 0.0000
# 2 32.0355 109.4393 62.1142 0.0000 2.9039 0.0000
# 3 23.7574 62.1142 131.3935 0.0000 -4.8356 0.0000
# 4 0.0000 0.0000 0.0000 69.7050 0.0000 -0.5060
# 5 3.2386 2.9039 -4.8356 0.0000 40.8274 0.0000
# 6 0.0000 0.0000 0.0000 -0.5060 0.0000 11.9311
#
#
#
# Elastic Compliance Matrix: (Units=1/GPa)
#
#
# Indices 1 2 3 4 5 6 
#
# 1 0.025332 -0.006469 -0.001586 0.000000 -0.001737 0.000000
# 2 -0.006469 0.014244 -0.005607 0.000000 -0.001164 0.000000
# 3 -0.001586 -0.005607 0.010614 0.000000 0.001782 0.000000
# 4 0.000000 0.000000 0.000000 0.014351 0.000000 0.000609
# 5 -0.001737 -0.001164 0.001782 0.000000 0.024925 0.000000
# 6 0.000000 0.000000 0.000000 0.000609 0.000000 0.083841
#
#
# Mechanical properties :
#
#
# Convention : Reuss Voigt Hill
#
# Bulk Modulus (GPa) = 43.73321 58.44592 51.08956
# Shear Modulus (GPa) = 24.00935 35.97882 29.99408
#
# Velocity S-wave (km/s) = 3.35790 4.11055 3.75314
# Velocity P-wave (km/s) = 5.96425 7.06942 6.54022
#
# Compressibility (1/GPa) = 0.02286592
#
# Stress axis : x y z
#
# Youngs Moduli (GPa) = 39.47570 70.20341 94.21796
#
# Poissons Ratio (x) = 0.45414 0.14944
# Poissons Ratio (y) = 0.25537 0.52828
# Poissons Ratio (z) = 0.06261 0.39363
#
# Static dielectric constant tensor:
#      x y z
#    x 1.818620 0.000000 -0.028490 
#    y 0.000000 1.788560 0.000000 
#    z -0.028490 0.000000 1.849890 
# 
# From -- ./inp_files/72445.got.cif
#   From: 2010.05.17/outbox.cif.g08.bks.cpg/sg15_37_cif.got.tgz:72445.got - 2010.06.03 18:47:42.
