data_PCOD9302159
_publ_section_title
;
Structure prediction by ZEFSAII (Michael W. Deem and Ramdas Pophale) SiO2 
 PCOD9302159
Probable space group: C 2/C
;
_chemical_formula_sum "Si O2"
_cell_formula_units_Z 56
_cell_length_a 7.471383
_cell_length_b 20.295246
_cell_length_c 20.712573
_cell_angle_alpha 90.000000
_cell_angle_beta 130.174320
_cell_angle_gamma 90.000000
_cell_volume 2399.778653
_symmetry_space_group_name_H-M "C 2/C"
_symmetry_group_IT_number 15
_symmetry_cell_setting 'monoclinic'
loop_
_space_group_symop_operation_xyz
x,y,z
-x,y,1/2-z
-x,-y,-z
x,-y,1/2+z
1/2+x,1/2+y,z
1/2-x,1/2+y,1/2-z
1/2-x,1/2-y,-z
1/2+x,1/2-y,1/2+z
loop_
_atom_site_type_symbol
_atom_site_label
_atom_site_fract_x
_atom_site_fract_y
_atom_site_fract_z
Si Si1 0.623693 0.103257 0.652647
Si Si2 0.697614 0.018941 0.094758
Si Si3 0.500000 0.977629 0.250000
Si Si4 0.165033 0.818105 0.017047
Si Si5 0.731095 0.738719 0.670492
Si Si6 0.000000 0.786507 0.250000
Si Si7 0.254367 0.117822 0.302221
Si Si8 0.141525 0.909238 0.638721
O O1 0.598046 0.069005 0.716476
O O2 0.373213 0.127323 0.566976
O O3 0.773199 0.168771 0.687875
O O4 0.762475 0.049787 0.642636
O O5 0.586621 0.066310 0.124259
O O6 0.898812 0.057584 0.104487
O O7 0.500000 0.000000 0.000000
O O8 0.690618 0.026670 0.327282
O O9 0.135554 0.799102 0.085947
O O10 0.250000 0.750000 0.000000
O O11 0.938420 0.854181 0.932023
O O12 0.561815 0.741990 0.693455
O O13 0.757249 0.815888 0.660073
O O14 0.000000 0.717158 0.750000
O O15 0.263807 0.127815 0.228308
O O16 0.000000 0.083583 0.250000
#
# Coordination Sequence:
#
# PCOD9302159 Si02
#       8
#     8   8   4   8   8   4   8   8
#     4  12  25  45  71 102 150 191 251 314 380 451
#     4  11  21  42  70 104 137 187 243 313 377 441
#     4  12  26  49  76 108 143 208 254 314 388 460
#     4  12  25  47  74 111 154 204 246 319 391 454
#     4  11  23  47  76 103 149 204 254 305 384 454
#     4  12  26  47  76 106 145 202 260 304 376 476
#     4   9  20  41  72 101 138 198 242 305 376 451
#     4  11  24  44  74 105 150 191 253 313 385 461
#
# _framework density 23.335484999999998
#
# number of rings (size 3 to 8) (size 9 to 14) (size 15 to 20)
#    0.000    0.857    4.286    4.286    1.000    1.143 
#    2.571    0.714    0.000    0.000    0.000    0.000 
#    0.000    0.000    0.000    0.000    0.000    0.000 
#
# Total GULP energy -156079.060465 kJ/mol
# GULP energy per Si atom -5574.252159 kJ/mol
# Density = 2.328237 g / cm^3
# Si number density = 23.335485 Si / 1000 Ang^3
#
#
#
# Elastic Constant Matrix: (Units=GPa)
#
#
# Indices 1 2 3 4 5 6 
#
# 1 103.7398 23.9568 44.2110 0.0000 -13.8210 0.0000
# 2 23.9568 97.6645 47.1070 0.0000 -5.3689 0.0000
# 3 44.2110 47.1070 144.4477 0.0000 -10.7541 0.0000
# 4 0.0000 0.0000 0.0000 46.8422 0.0000 3.6892
# 5 -13.8210 -5.3689 -10.7541 0.0000 23.1742 0.0000
# 6 0.0000 0.0000 0.0000 3.6892 0.0000 34.2093
#
#
#
# Elastic Compliance Matrix: (Units=1/GPa)
#
#
# Indices 1 2 3 4 5 6 
#
# 1 0.011857 -0.001250 -0.002814 0.000000 0.005476 0.000000
# 2 -0.001250 0.012305 -0.003598 0.000000 0.000436 0.000000
# 3 -0.002814 -0.003598 0.009084 0.000000 0.001704 0.000000
# 4 0.000000 0.000000 0.000000 0.021531 0.000000 -0.002322
# 5 0.005476 0.000436 0.001704 0.000000 0.047309 0.000000
# 6 0.000000 0.000000 0.000000 -0.002322 0.000000 0.029482
#
#
# Mechanical properties :
#
#
# Convention : Reuss Voigt Hill
#
# Bulk Modulus (GPa) = 55.79484 64.04462 59.91973
# Shear Modulus (GPa) = 32.70830 36.21695 34.46263
#
# Velocity S-wave (km/s) = 3.74793 3.94383 3.84713
# Velocity P-wave (km/s) = 6.53384 6.94573 6.74293
#
# Compressibility (1/GPa) = 0.01792280
#
# Stress axis : x y z
#
# Youngs Moduli (GPa) = 84.33932 81.26691 110.08067
#
# Poissons Ratio (x) = 0.10161 0.30972
# Poissons Ratio (y) = 0.10545 0.39605
# Poissons Ratio (z) = 0.23729 0.29238
#
# Static dielectric constant tensor:
#      x y z
#    x 2.019980 0.000000 -0.045330 
#    y 0.000000 1.911860 0.000000 
#    z -0.045330 0.000000 2.008010 
# 
# From -- ./inp_files/233950.got.cif
#   From: 2010.05.17/outbox.cif.g08.bks.cpg/sg15_117_cif.got.tgz:233950.got - 2010.06.03 18:47:42.
