data_PCOD9302559
_publ_section_title
;
Structure prediction by ZEFSAII (Michael W. Deem and Ramdas Pophale) SiO2 
 PCOD9302559
Probable space group: C 2/C
;
_chemical_formula_sum "Si O2"
_cell_formula_units_Z 32
_cell_length_a 10.849766
_cell_length_b 22.149494
_cell_length_c 8.827425
_cell_angle_alpha 90.000000
_cell_angle_beta 136.970260
_cell_angle_gamma 90.000000
_cell_volume 1447.581956
_symmetry_space_group_name_H-M "C 2/C"
_symmetry_group_IT_number 15
_symmetry_cell_setting 'monoclinic'
loop_
_space_group_symop_operation_xyz
x,y,z
-x,y,1/2-z
-x,-y,-z
x,-y,1/2+z
1/2+x,1/2+y,z
1/2-x,1/2+y,1/2-z
1/2-x,1/2-y,-z
1/2+x,1/2-y,1/2+z
loop_
_atom_site_type_symbol
_atom_site_label
_atom_site_fract_x
_atom_site_fract_y
_atom_site_fract_z
Si Si1 0.855640 0.141989 0.222430
Si Si2 0.792615 0.684918 0.104497
Si Si3 0.296878 0.059043 0.998399
Si Si4 0.190408 0.940961 0.064578
O O1 0.757348 0.178008 0.264258
O O2 0.000000 0.179465 0.250000
O O3 0.991192 0.089272 0.409178
O O4 0.731701 0.106276 0.990747
O O5 0.712689 0.624720 0.957066
O O6 0.000000 0.678153 0.250000
O O7 0.750000 0.750000 0.000000
O O8 0.500000 0.054744 0.250000
O O9 0.190304 0.005444 0.984340
O O10 0.293376 0.053294 0.814374
#
# Coordination Sequence:
#
# PCOD9302559 Si02
#       4
#     8   8   8   8
#     4   8  22  43  69 103 134 176 230 288 351 401
#     4  11  26  45  67  98 139 190 237 278 337 418
#     4  11  22  38  63 105 144 180 225 288 352 417
#     4   9  21  39  71 103 140 173 226 291 358 413
#
# _framework density 22.105830999999998
#
# number of rings (size 3 to 8) (size 9 to 14) (size 15 to 20)
#    1.500    0.500    0.000    2.250    3.500   11.000 
#    0.000    5.000    0.000    0.000    0.000    0.000 
#    0.000    0.000    0.000    0.000    0.000    0.000 
#
# Total GULP energy -89105.771103 kJ/mol
# GULP energy per Si atom -5569.110694 kJ/mol
# Density = 2.205552 g / cm^3
# Si number density = 22.105831 Si / 1000 Ang^3
#
#
#
# Elastic Constant Matrix: (Units=GPa)
#
#
# Indices 1 2 3 4 5 6 
#
# 1 164.8873 74.6825 62.3884 0.0000 -33.9638 0.0000
# 2 74.6825 88.0664 24.4236 0.0000 -39.8869 0.0000
# 3 62.3884 24.4236 155.1355 0.0000 -33.1506 0.0000
# 4 0.0000 0.0000 0.0000 20.7437 0.0000 -8.7694
# 5 -33.9638 -39.8869 -33.1506 0.0000 51.7386 0.0000
# 6 0.0000 0.0000 0.0000 -8.7694 0.0000 51.3839
#
#
#
# Elastic Compliance Matrix: (Units=1/GPa)
#
#
# Indices 1 2 3 4 5 6 
#
# 1 0.011282 -0.009616 -0.003505 0.000000 -0.002252 0.000000
# 2 -0.009616 0.025645 0.003135 0.000000 0.015467 0.000000
# 3 -0.003505 0.003135 0.008558 0.000000 0.005600 0.000000
# 4 0.000000 0.000000 0.000000 0.051956 0.000000 0.008867
# 5 -0.002252 0.015467 0.005600 0.000000 0.033361 0.000000
# 6 0.000000 0.000000 0.000000 0.008867 0.000000 0.020975
#
#
# Mechanical properties :
#
#
# Convention : Reuss Voigt Hill
#
# Bulk Modulus (GPa) = 39.19318 81.23093 60.21205
# Shear Modulus (GPa) = 27.73859 41.21287 34.47573
#
# Velocity S-wave (km/s) = 3.54617 4.32249 3.95343
# Velocity P-wave (km/s) = 5.87668 7.85736 6.93806
#
# Compressibility (1/GPa) = 0.02551464
#
# Stress axis : x y z
#
# Youngs Moduli (GPa) = 88.63614 38.99327 116.84345
#
# Poissons Ratio (x) = 0.37495 0.40949
# Poissons Ratio (y) = 0.85230 -0.36627
# Poissons Ratio (z) = 0.31064 -0.12223
#
# Static dielectric constant tensor:
#      x y z
#    x 1.836100 0.000000 -0.025670 
#    y 0.000000 1.902410 0.000000 
#    z -0.025670 0.000000 1.826820 
# 
# From -- ./inp_files/30621.got.cif
#   From: 2010.05.17/outbox.cif.g08.bks.cpg/sg15_16_cif.got.tgz:30621.got - 2010.06.03 18:47:42.
