data_PCOD9302258
_publ_section_title
;
Structure prediction by ZEFSAII (Michael W. Deem and Ramdas Pophale) SiO2 
 PCOD9302258
Probable space group: C 2/C
;
_chemical_formula_sum "Si O2"
_cell_formula_units_Z 40
_cell_length_a 29.453526
_cell_length_b 9.013826
_cell_length_c 19.722750
_cell_angle_alpha 90.000000
_cell_angle_beta 20.145410
_cell_angle_gamma 90.000000
_cell_volume 1803.358020
_symmetry_space_group_name_H-M "C 2/C"
_symmetry_group_IT_number 15
_symmetry_cell_setting 'monoclinic'
loop_
_space_group_symop_operation_xyz
x,y,z
-x,y,1/2-z
-x,-y,-z
x,-y,1/2+z
1/2+x,1/2+y,z
1/2-x,1/2+y,1/2-z
1/2-x,1/2-y,-z
1/2+x,1/2-y,1/2+z
loop_
_atom_site_type_symbol
_atom_site_label
_atom_site_fract_x
_atom_site_fract_y
_atom_site_fract_z
Si Si1 0.915288 0.981778 0.431630
Si Si2 0.579247 0.824308 0.051776
Si Si3 0.939509 0.905092 0.147456
Si Si4 0.795261 0.387760 0.483476
Si Si5 0.373513 0.897760 0.667114
O O1 0.762787 0.978509 0.625505
O O2 0.000000 0.926507 0.250000
O O3 0.948945 0.889523 0.451532
O O4 0.955985 0.150873 0.391232
O O5 0.444732 0.919424 0.249083
O O6 0.679771 0.851759 0.972108
O O7 0.633791 0.853642 0.901503
O O8 0.891542 0.749899 0.185393
O O9 0.816935 0.987873 0.356110
O O10 0.000000 0.000000 0.000000
O O11 0.750000 0.250000 0.500000
O O12 0.500000 0.000000 0.500000
#
# Coordination Sequence:
#
# PCOD9302258 Si02
#       5
#     8   8   8   8   8
#     4  12  26  47  76 108 147 194 252 306 375 450
#     4  11  24  44  75 106 143 198 247 301 372 463
#     4  12  25  46  77 106 148 196 251 305 374 448
#     4  11  21  43  76 108 138 191 254 303 371 446
#     4  12  31  47  74 110 156 195 247 316 381 450
#
# _framework density 22.180841999999998
#
# number of rings (size 3 to 8) (size 9 to 14) (size 15 to 20)
#    0.000    0.400    6.000    1.200   11.200    0.800 
#    3.600    0.000    0.000    0.000    0.000    0.000 
#    0.000    0.000    0.000    0.000    0.000    0.000 
#
# Total GULP energy -111901.090168 kJ/mol
# GULP energy per Si atom -5595.054508 kJ/mol
# Density = 2.213036 g / cm^3
# Si number density = 22.180842 Si / 1000 Ang^3
#
#
#
# Elastic Constant Matrix: (Units=GPa)
#
#
# Indices 1 2 3 4 5 6 
#
# 1 118.1754 16.7918 49.5234 0.0000 -4.8856 0.0000
# 2 16.7918 77.2184 55.0082 0.0001 -3.1846 0.0000
# 3 49.5234 55.0082 152.6469 0.0001 -19.1316 0.0000
# 4 0.0000 0.0001 0.0001 26.2386 0.0000 -2.6049
# 5 -4.8856 -3.1846 -19.1316 0.0000 39.6102 0.0000
# 6 0.0000 0.0000 0.0000 -2.6049 0.0000 29.0841
#
#
#
# Elastic Compliance Matrix: (Units=1/GPa)
#
#
# Indices 1 2 3 4 5 6 
#
# 1 0.009800 0.000204 -0.003299 0.000000 -0.000368 0.000000
# 2 0.000204 0.017540 -0.006607 0.000000 -0.001756 0.000000
# 3 -0.003299 -0.006607 0.010522 0.000000 0.004144 0.000000
# 4 0.000000 0.000000 0.000000 0.038454 0.000000 0.003444
# 5 -0.000368 -0.001756 0.004144 0.000000 0.027061 0.000000
# 6 0.000000 0.000000 0.000000 0.003444 0.000000 0.034691
#
#
# Mechanical properties :
#
#
# Convention : Reuss Voigt Hill
#
# Bulk Modulus (GPa) = 54.17820 65.63195 59.90507
# Shear Modulus (GPa) = 30.55757 34.10107 32.32932
#
# Velocity S-wave (km/s) = 3.71571 3.92524 3.82191
# Velocity P-wave (km/s) = 6.54884 7.08499 6.82218
#
# Compressibility (1/GPa) = 0.01845761
#
# Stress axis : x y z
#
# Youngs Moduli (GPa) = 102.03685 57.01196 95.04171
#
# Poissons Ratio (x) = -0.01162 0.31356
# Poissons Ratio (y) = -0.02080 0.62794
# Poissons Ratio (z) = 0.33664 0.37668
#
# Static dielectric constant tensor:
#      x y z
#    x 1.777590 0.000000 -0.062520 
#    y 0.000000 1.793590 0.000000 
#    z -0.062520 0.000000 1.839510 
# 
# From -- ./inp_files/258923.got.cif
#   From: 2010.05.17/outbox.cif.g08.bks.cpg/sg15_130_cif.got.tgz:258923.got - 2010.06.03 18:47:42.
