data_PCOD9302511
_publ_section_title
;
Structure prediction by ZEFSAII (Michael W. Deem and Ramdas Pophale) SiO2 
 PCOD9302511
Probable space group: C 2/C
;
_chemical_formula_sum "Si O2"
_cell_formula_units_Z 64
_cell_length_a 28.969856
_cell_length_b 9.318943
_cell_length_c 18.523983
_cell_angle_alpha 90.000000
_cell_angle_beta 139.125822
_cell_angle_gamma 90.000000
_cell_volume 3272.583396
_symmetry_space_group_name_H-M "C 2/C"
_symmetry_group_IT_number 15
_symmetry_cell_setting 'monoclinic'
loop_
_space_group_symop_operation_xyz
x,y,z
-x,y,1/2-z
-x,-y,-z
x,-y,1/2+z
1/2+x,1/2+y,z
1/2-x,1/2+y,1/2-z
1/2-x,1/2-y,-z
1/2+x,1/2-y,1/2+z
loop_
_atom_site_type_symbol
_atom_site_label
_atom_site_fract_x
_atom_site_fract_y
_atom_site_fract_z
Si Si1 0.851253 0.972989 0.420118
Si Si2 0.190467 0.081454 0.787683
Si Si3 0.343608 0.818924 0.414855
Si Si4 0.814258 0.187552 0.121706
Si Si5 0.819326 0.687852 0.123314
Si Si6 0.305997 0.930357 0.216655
Si Si7 0.419703 0.972167 0.628476
Si Si8 0.421379 0.312069 0.627698
O O1 0.851936 0.932822 0.336630
O O2 0.777101 0.910788 0.363951
O O3 0.908725 0.899160 0.539229
O O4 0.851585 0.146556 0.422063
O O5 0.266428 0.149097 0.857717
O O6 0.149877 0.174576 0.799278
O O7 0.207114 0.931805 0.846048
O O8 0.342748 0.899407 0.336539
O O9 0.402891 0.889422 0.534873
O O10 0.839951 0.319081 0.200739
O O11 0.869596 0.131251 0.129058
O O12 0.750000 0.250000 0.000000
O O13 0.806488 0.579803 0.174817
O O14 0.868157 0.603578 0.125304
O O15 0.750000 0.750000 0.000000
O O16 0.500000 0.958672 0.750000
O O17 0.404346 0.141835 0.600186
O O18 0.500000 0.324410 0.750000
#
# Coordination Sequence:
#
# PCOD9302511 Si02
#       8
#     8   8   8   8   8   8   8   8
#     4  11  23  40  61  96 131 165 206 259 326 371
#     4  11  24  37  64  99 130 160 208 268 313 375
#     4  11  23  40  61  95 133 163 206 261 323 374
#     4  12  21  39  66  96 122 167 213 260 317 367
#     4  12  22  41  65  99 127 160 217 263 309 373
#     4  11  22  37  64  95 127 162 206 267 316 372
#     4  11  25  44  65  91 125 170 214 261 317 376
#     4  11  26  44  65  91 126 170 216 261 316 378
#
# _framework density 19.556414
#
# number of rings (size 3 to 8) (size 9 to 14) (size 15 to 20)
#    0.000    0.750    6.250    1.500    3.500    0.500 
#    0.000    2.500    0.000    0.000    0.000    0.000 
#    0.000    0.000    0.000    0.000    0.000    0.000 
#
# Total GULP energy -178600.539238 kJ/mol
# GULP energy per Si atom -5581.266851 kJ/mol
# Density = 1.951190 g / cm^3
# Si number density = 19.556414 Si / 1000 Ang^3
#
#
#
# Elastic Constant Matrix: (Units=GPa)
#
#
# Indices 1 2 3 4 5 6 
#
# 1 58.5164 29.5118 49.1464 0.0000 -19.0302 0.0000
# 2 29.5118 120.3925 68.3058 0.0000 -16.6391 0.0000
# 3 49.1464 68.3058 146.4250 0.0000 -31.3557 0.0000
# 4 0.0000 0.0000 0.0000 31.8576 0.0000 -11.8632
# 5 -19.0302 -16.6391 -31.3557 0.0000 31.6646 0.0000
# 6 0.0000 0.0000 0.0000 -11.8632 0.0000 33.5846
#
#
#
# Elastic Compliance Matrix: (Units=1/GPa)
#
#
# Indices 1 2 3 4 5 6 
#
# 1 0.025822 -0.001724 -0.006007 0.000000 0.008664 0.000000
# 2 -0.001724 0.011432 -0.004683 0.000000 0.000334 0.000000
# 3 -0.006007 -0.004683 0.012349 0.000000 0.006157 0.000000
# 4 0.000000 0.000000 0.000000 0.036144 0.000000 0.012767
# 5 0.008664 0.000334 0.006157 0.000000 0.043061 0.000000
# 6 0.000000 0.000000 0.000000 0.012767 0.000000 0.034285
#
#
# Mechanical properties :
#
#
# Convention : Reuss Voigt Hill
#
# Bulk Modulus (GPa) = 40.36439 68.80689 54.58564
# Shear Modulus (GPa) = 25.48709 31.31270 28.39989
#
# Velocity S-wave (km/s) = 3.61399 4.00577 3.81491
# Velocity P-wave (km/s) = 6.17246 7.52696 6.88311
#
# Compressibility (1/GPa) = 0.02477431
#
# Stress axis : x y z
#
# Youngs Moduli (GPa) = 38.72719 87.47662 80.98063
#
# Poissons Ratio (x) = 0.15080 0.48648
# Poissons Ratio (y) = 0.06676 0.37920
# Poissons Ratio (z) = 0.23265 0.40961
#
# Static dielectric constant tensor:
#      x y z
#    x 1.733660 0.000000 -0.066230 
#    y 0.000000 1.753670 0.000000 
#    z -0.066230 0.000000 1.740330 
# 
# From -- ./inp_files/224633.got.cif
#   From: 2010.05.17/outbox.cif.g08.bks.cpg/sg15_113_cif.got.tgz:224633.got - 2010.06.03 18:47:42.
