data_PCOD9302177
_publ_section_title
;
Structure prediction by ZEFSAII (Michael W. Deem and Ramdas Pophale) SiO2 
 PCOD9302177
Probable space group: C 2/C
;
_chemical_formula_sum "Si O2"
_cell_formula_units_Z 52
_cell_length_a 8.883126
_cell_length_b 21.115082
_cell_length_c 16.400921
_cell_angle_alpha 90.000000
_cell_angle_beta 45.695652
_cell_angle_gamma 90.000000
_cell_volume 2201.513106
_symmetry_space_group_name_H-M "C 2/C"
_symmetry_group_IT_number 15
_symmetry_cell_setting 'monoclinic'
loop_
_space_group_symop_operation_xyz
x,y,z
-x,y,1/2-z
-x,-y,-z
x,-y,1/2+z
1/2+x,1/2+y,z
1/2-x,1/2+y,1/2-z
1/2-x,1/2-y,-z
1/2+x,1/2-y,1/2+z
loop_
_atom_site_type_symbol
_atom_site_label
_atom_site_fract_x
_atom_site_fract_y
_atom_site_fract_z
Si Si1 0.787023 0.063668 0.281719
Si Si2 0.051493 0.004580 0.073679
Si Si3 0.820700 0.290945 0.892383
Si Si4 0.131351 0.403180 0.500621
Si Si5 0.500000 0.808546 0.250000
Si Si6 0.938493 0.802537 0.661705
Si Si7 0.843863 0.629894 0.969022
O O1 0.569237 0.052523 0.406142
O O2 0.819349 0.136265 0.242286
O O3 0.000000 0.048822 0.250000
O O4 0.818868 0.017977 0.195382
O O5 0.208224 0.065200 0.023357
O O6 0.159072 0.943956 0.074115
O O7 0.000000 0.000000 0.000000
O O8 0.867254 0.356264 0.921970
O O9 0.619005 0.295211 0.910530
O O10 0.000000 0.277486 0.750000
O O11 0.750000 0.250000 0.000000
O O12 0.057333 0.372837 0.442587
O O13 0.621641 0.758552 0.262684
O O14 0.617817 0.850520 0.138557
O O15 0.186607 0.818970 0.570640
#
# Coordination Sequence:
#
# PCOD9302177 Si02
#       7
#     8   8   8   8   4   8   8
#     4  11  21  42  73 101 130 186 244 286 361 441
#     4  11  26  44  68 105 138 183 242 299 352 442
#     4  12  28  45  73 109 148 196 248 302 371 447
#     4  12  23  48  74 101 144 197 239 299 378 442
#     4  12  24  40  70 102 138 180 230 306 364 412
#     4  11  22  43  67  99 141 187 238 289 363 447
#     4  11  25  43  68 104 136 184 246 294 362 442
#
# _framework density 23.620118000000002
#
# number of rings (size 3 to 8) (size 9 to 14) (size 15 to 20)
#    0.000    0.615    5.385    3.692    2.154    1.231 
#    0.000    0.769    0.000    0.000    0.000    0.000 
#    0.000    0.000    0.000    0.000    0.000    0.000 
#
# Total GULP energy -144903.308844 kJ/mol
# GULP energy per Si atom -5573.204186 kJ/mol
# Density = 2.356636 g / cm^3
# Si number density = 23.620118 Si / 1000 Ang^3
#
#
#
# Elastic Constant Matrix: (Units=GPa)
#
#
# Indices 1 2 3 4 5 6 
#
# 1 113.9667 27.7589 16.6932 0.0000 33.7869 0.0000
# 2 27.7589 49.9054 48.5297 0.0000 -1.7032 0.0000
# 3 16.6932 48.5297 128.2133 0.0001 26.0337 -0.0001
# 4 0.0000 0.0000 0.0001 34.9086 0.0000 22.8819
# 5 33.7869 -1.7032 26.0337 0.0000 39.4623 0.0000
# 6 0.0000 0.0000 -0.0001 22.8819 0.0000 13.9657
#
#
#
# Elastic Compliance Matrix: (Units=1/GPa)
#
#
# Indices 1 2 3 4 5 6 
#
# 1 0.020687 -0.023750 0.011663 0.000002 -0.026431 -0.000004
# 2 -0.023750 0.063462 -0.029575 -0.000005 0.042584 0.000008
# 3 0.011663 -0.029575 0.022819 0.000004 -0.026316 -0.000006
# 4 0.000002 -0.000005 0.000004 -0.387308 -0.000005 0.634579
# 5 -0.026431 0.042584 -0.026316 -0.000005 0.067169 0.000009
# 6 -0.000004 0.000008 -0.000006 0.634579 0.000009 -0.968111
#
#
# Mechanical properties :
#
#
# Convention : Reuss Voigt Hill
#
# Bulk Modulus (GPa) = 42.29657 53.11658 47.70658
# Shear Modulus (GPa) = -4.58683 30.94090 13.17703
#
# Velocity S-wave (km/s) = -1.39504 3.62323 2.36450
# Velocity P-wave (km/s) = 3.91804 6.32775 5.26267
#
# Compressibility (1/GPa) = 0.02364258
#
# Stress axis : x y z
#
# Youngs Moduli (GPa) = 48.34029 15.75752 43.82322
#
# Poissons Ratio (x) = 0.37424 -0.51111
# Poissons Ratio (y) = 1.14808 1.29609
# Poissons Ratio (z) = -0.56379 0.46603
#
# Static dielectric constant tensor:
#      x y z
#    x 1.823390 0.000000 -0.185010 
#    y 0.000000 1.948680 0.000000 
#    z -0.185010 0.000000 1.717900 
# 
# From -- ./inp_files/192468.got.cif
#   From: 2010.05.17/outbox.cif.g08.bks.cpg/sg15_97_cif.got.tgz:192468.got - 2010.06.03 18:47:42.
