data_PCOD9302543
_publ_section_title
;
Structure prediction by ZEFSAII (Michael W. Deem and Ramdas Pophale) SiO2 
 PCOD9302543
Probable space group: C 2/C
;
_chemical_formula_sum "Si O2"
_cell_formula_units_Z 56
_cell_length_a 15.342977
_cell_length_b 20.042956
_cell_length_c 17.998014
_cell_angle_alpha 90.000000
_cell_angle_beta 29.054741
_cell_angle_gamma 90.000000
_cell_volume 2687.911293
_symmetry_space_group_name_H-M "C 2/C"
_symmetry_group_IT_number 15
_symmetry_cell_setting 'monoclinic'
loop_
_space_group_symop_operation_xyz
x,y,z
-x,y,1/2-z
-x,-y,-z
x,-y,1/2+z
1/2+x,1/2+y,z
1/2-x,1/2+y,1/2-z
1/2-x,1/2-y,-z
1/2+x,1/2-y,1/2+z
loop_
_atom_site_type_symbol
_atom_site_label
_atom_site_fract_x
_atom_site_fract_y
_atom_site_fract_z
Si Si1 0.181434 0.913854 0.291745
Si Si2 0.711037 0.202151 0.095353
Si Si3 0.651277 0.779416 0.363423
Si Si4 0.271868 0.843610 0.690367
Si Si5 0.213449 0.081471 0.385828
Si Si6 0.966981 0.457349 0.195574
Si Si7 0.818991 0.973704 0.836916
O O1 0.197816 0.836670 0.256824
O O2 0.347616 0.919708 0.224120
O O3 0.996383 0.930094 0.471738
O O4 0.196800 0.967456 0.213297
O O5 0.500000 0.192138 0.250000
O O6 0.791653 0.238641 0.106590
O O7 0.790493 0.128461 0.038906
O O8 0.750000 0.250000 0.000000
O O9 0.461049 0.815414 0.519014
O O10 0.655853 0.723144 0.295238
O O11 0.294358 0.881378 0.753156
O O12 0.192856 0.901327 0.695826
O O13 0.339922 0.020094 0.308086
O O14 0.000000 0.422159 0.250000
O O15 0.150292 0.476999 0.018298
O O16 0.000000 0.979748 0.750000
#
# Coordination Sequence:
#
# PCOD9302543 Si02
#       7
#     8   8   8   8   8   8   8
#     4  12  24  45  73 103 142 188 237 291 364 432
#     4  11  22  38  60  98 140 174 225 282 340 424
#     4  11  23  42  70  96 136 196 233 293 359 428
#     4  11  23  46  68 101 139 184 245 287 359 433
#     4  11  23  40  69 100 143 187 226 286 354 432
#     4  12  25  43  68 104 140 180 235 297 360 421
#     4  12  27  47  73 105 143 188 239 307 365 433
#
# _framework density 20.834022000000001
#
# number of rings (size 3 to 8) (size 9 to 14) (size 15 to 20)
#    0.000    0.571    2.857    7.286    2.000    2.857 
#    0.000    1.429    0.000    0.000    0.000    0.000 
#    0.000    0.000    0.000    0.000    0.000    0.000 
#
# Total GULP energy -156344.855882 kJ/mol
# GULP energy per Si atom -5583.744853 kJ/mol
# Density = 2.078660 g / cm^3
# Si number density = 20.834022 Si / 1000 Ang^3
#
#
#
# Elastic Constant Matrix: (Units=GPa)
#
#
# Indices 1 2 3 4 5 6 
#
# 1 89.9954 12.1241 19.8629 -0.1303 0.9437 -0.1159
# 2 12.1241 65.6101 3.7243 0.1761 20.7461 0.1613
# 3 19.8629 3.7243 88.5640 0.5431 -6.4609 0.4288
# 4 -0.1303 0.1761 0.5431 94.2945 0.2781 58.5785
# 5 0.9437 20.7461 -6.4609 0.2781 31.2886 0.2520
# 6 -0.1159 0.1613 0.4288 58.5785 0.2520 59.3328
#
#
#
# Elastic Compliance Matrix: (Units=1/GPa)
#
#
# Indices 1 2 3 4 5 6 
#
# 1 0.011972 -0.002262 -0.002545 0.000014 0.000612 0.000031
# 2 -0.002262 0.019989 -0.001315 0.000005 -0.013458 0.000003
# 3 -0.002545 -0.001315 0.012171 -0.000043 0.003463 -0.000061
# 4 0.000014 0.000005 -0.000043 0.027427 -0.000038 -0.027078
# 5 0.000612 -0.013458 0.003463 -0.000038 0.041582 -0.000126
# 6 0.000031 0.000003 -0.000061 -0.027078 -0.000126 0.043589
#
#
# Mechanical properties :
#
#
# Convention : Reuss Voigt Hill
#
# Bulk Modulus (GPa) = 31.36029 35.06581 33.21305
# Shear Modulus (GPa) = 27.83920 50.88038 39.35979
#
# Velocity S-wave (km/s) = 3.65942 4.94720 4.35122
# Velocity P-wave (km/s) = 5.73936 7.03567 6.42032
#
# Compressibility (1/GPa) = 0.03188746
#
# Stress axis : x y z
#
# Youngs Moduli (GPa) = 83.52965 50.02646 82.16489
#
# Poissons Ratio (x) = 0.11314 0.20915
# Poissons Ratio (y) = 0.18891 0.10806
# Poissons Ratio (z) = 0.21262 0.06579
#
# Static dielectric constant tensor:
#      x y z
#    x 1.771370 0.000000 0.020630 
#    y 0.000000 1.731960 0.000030 
#    z 0.020630 0.000030 1.769350 
# 
# From -- ./inp_files/206906.got.cif
#   From: 2010.05.17/outbox.cif.g08.bks.cpg/sg15_104_cif.got.tgz:206906.got - 2010.06.03 18:47:42.
