data_PCOD9302645
_publ_section_title
;
Structure prediction by ZEFSAII (Michael W. Deem and Ramdas Pophale) SiO2 
 PCOD9302645
Probable space group: C 2/C
;
_chemical_formula_sum "Si O2"
_cell_formula_units_Z 64
_cell_length_a 18.157649
_cell_length_b 14.331774
_cell_length_c 15.897372
_cell_angle_alpha 90.000000
_cell_angle_beta 130.992642
_cell_angle_gamma 90.000000
_cell_volume 3122.577627
_symmetry_space_group_name_H-M "C 2/C"
_symmetry_group_IT_number 15
_symmetry_cell_setting 'monoclinic'
loop_
_space_group_symop_operation_xyz
x,y,z
-x,y,1/2-z
-x,-y,-z
x,-y,1/2+z
1/2+x,1/2+y,z
1/2-x,1/2+y,1/2-z
1/2-x,1/2-y,-z
1/2+x,1/2-y,1/2+z
loop_
_atom_site_type_symbol
_atom_site_label
_atom_site_fract_x
_atom_site_fract_y
_atom_site_fract_z
Si Si1 0.230532 0.823912 0.911843
Si Si2 0.629142 0.453181 0.949548
Si Si3 0.183209 0.999748 0.177663
Si Si4 0.773046 0.168220 0.674280
Si Si5 0.657418 0.149324 0.170885
Si Si6 0.057369 0.299906 0.004319
Si Si7 0.945437 0.164716 0.344715
Si Si8 0.591517 0.337592 0.376107
O O1 0.210058 0.921831 0.943172
O O2 0.314875 0.830891 0.905631
O O3 0.133784 0.803985 0.783554
O O4 0.250000 0.750000 0.000000
O O5 0.544858 0.375703 0.882367
O O6 0.587210 0.553802 0.895791
O O7 0.668296 0.459481 0.073653
O O8 0.284974 0.055901 0.260446
O O9 0.103398 0.077739 0.141750
O O10 0.174712 0.915933 0.237543
O O11 0.797706 0.264537 0.741412
O O12 0.658362 0.145738 0.591010
O O13 0.813632 0.176446 0.610598
O O14 0.541236 0.147445 0.095026
O O15 0.084753 0.223562 0.954173
O O16 0.036466 0.245446 0.074921
O O17 0.500000 0.311821 0.250000
#
# Coordination Sequence:
#
# PCOD9302645 Si02
#       8
#     8   8   8   8   8   8   8   8
#     4  11  22  39  62  92 136 171 212 274 332 395
#     4  12  23  38  67 101 129 170 227 282 334 390
#     4  11  23  41  67  93 140 176 216 276 337 397
#     4  12  23  43  68  94 132 175 220 273 335 395
#     4  11  24  45  63  97 137 174 221 271 337 401
#     4  12  24  42  69  94 133 181 217 271 332 406
#     4  11  22  40  64 101 132 170 221 278 343 393
#     4  12  23  39  66 102 130 163 222 284 337 385
#
# _framework density 20.495888000000001
#
# number of rings (size 3 to 8) (size 9 to 14) (size 15 to 20)
#    0.000    0.500    5.000    6.375    0.000    0.500 
#    0.000    0.000    0.000    1.500    0.000    0.000 
#    0.000    0.000    0.000    0.000    0.000    0.000 
#
# Total GULP energy -178999.238085 kJ/mol
# GULP energy per Si atom -5593.726190 kJ/mol
# Density = 2.044924 g / cm^3
# Si number density = 20.495888 Si / 1000 Ang^3
#
#
#
# Elastic Constant Matrix: (Units=GPa)
#
#
# Indices 1 2 3 4 5 6 
#
# 1 111.7950 -0.3976 26.1879 0.0000 4.8769 0.0000
# 2 -0.3976 31.2850 11.6231 0.0000 -4.2435 0.0000
# 3 26.1879 11.6231 85.3619 0.0000 -10.8904 0.0000
# 4 0.0000 0.0000 0.0000 33.2465 0.0000 -5.2945
# 5 4.8769 -4.2435 -10.8904 0.0000 35.3201 0.0000
# 6 0.0000 0.0000 0.0000 -5.2945 0.0000 29.3617
#
#
#
# Elastic Compliance Matrix: (Units=1/GPa)
#
#
# Indices 1 2 3 4 5 6 
#
# 1 0.009862 0.001102 -0.003469 0.000000 -0.002299 0.000000
# 2 0.001102 0.034047 -0.004655 0.000000 0.002503 0.000000
# 3 -0.003469 -0.004655 0.013951 0.000000 0.004221 0.000000
# 4 0.000000 0.000000 0.000000 0.030968 0.000000 0.005584
# 5 -0.002299 0.002503 0.004221 0.000000 0.030232 0.000000
# 6 0.000000 0.000000 0.000000 0.005584 0.000000 0.035065
#
#
# Mechanical properties :
#
#
# Convention : Reuss Voigt Hill
#
# Bulk Modulus (GPa) = 22.82189 33.69653 28.25921
# Shear Modulus (GPa) = 27.35627 32.32089 29.83858
#
# Velocity S-wave (km/s) = 3.65734 3.97538 3.81968
# Velocity P-wave (km/s) = 5.38460 6.12763 5.76809
#
# Compressibility (1/GPa) = 0.04381758
#
# Stress axis : x y z
#
# Youngs Moduli (GPa) = 101.40229 29.37106 71.67750
#
# Poissons Ratio (x) = -0.03237 0.24864
# Poissons Ratio (y) = -0.11177 0.33364
# Poissons Ratio (z) = 0.35174 0.13672
#
# Static dielectric constant tensor:
#      x y z
#    x 1.747070 0.000000 0.008050 
#    y 0.000000 1.706700 0.000000 
#    z 0.008050 0.000000 1.759730 
# 
# From -- ./inp_files/162522.got.cif
#   From: 2010.05.17/outbox.cif.g08.bks.cpg/sg15_82_cif.got.tgz:162522.got - 2010.06.03 18:47:42.
