data_PCOD9302760
_publ_section_title
;
Structure prediction by ZEFSAII (Michael W. Deem and Ramdas Pophale) SiO2 
 PCOD9302760
Probable space group: C 2/C
;
_chemical_formula_sum "Si O2"
_cell_formula_units_Z 40
_cell_length_a 5.409905
_cell_length_b 26.335833
_cell_length_c 11.647141
_cell_angle_alpha 90.000000
_cell_angle_beta 102.571790
_cell_angle_gamma 90.000000
_cell_volume 1619.632750
_symmetry_space_group_name_H-M "C 2/C"
_symmetry_group_IT_number 15
_symmetry_cell_setting 'monoclinic'
loop_
_space_group_symop_operation_xyz
x,y,z
-x,y,1/2-z
-x,-y,-z
x,-y,1/2+z
1/2+x,1/2+y,z
1/2-x,1/2+y,1/2-z
1/2-x,1/2-y,-z
1/2+x,1/2-y,1/2+z
loop_
_atom_site_type_symbol
_atom_site_label
_atom_site_fract_x
_atom_site_fract_y
_atom_site_fract_z
Si Si1 0.146812 0.825404 0.139468
Si Si2 0.739240 0.024194 0.586628
Si Si3 0.500000 0.911228 0.250000
Si Si4 0.000000 0.063397 0.250000
Si Si5 0.000000 0.323493 0.750000
Si Si6 0.500000 0.259619 0.750000
Si Si7 0.216718 0.877484 0.564519
O O1 0.327896 0.874677 0.157208
O O2 0.340982 0.778517 0.150940
O O3 0.000000 0.823440 0.250000
O O4 0.948764 0.835493 0.018499
O O5 0.676150 0.052055 0.697684
O O6 0.810522 0.072288 0.515898
O O7 0.500000 0.000000 0.500000
O O8 0.895261 0.975614 0.643256
O O9 0.843848 0.101350 0.314532
O O10 0.263960 0.291548 0.776785
O O11 0.013826 0.352588 0.875319
#
# Coordination Sequence:
#
# PCOD9302760 Si02
#       7
#     8   8   4   4   4   4   8
#     4  11  23  49  77 112 150 204 258 317 392 468
#     4  12  23  40  68 106 152 205 254 310 373 454
#     4  11  22  39  71 108 150 192 261 309 378 451
#     4  12  25  46  70 114 156 202 262 308 379 448
#     4  12  28  51  75 117 156 201 259 325 402 462
#     4  11  27  52  80 117 152 195 266 326 395 479
#     4  12  26  47  76 108 162 205 254 321 385 459
#
# _framework density 24.696957999999999
#
# number of rings (size 3 to 8) (size 9 to 14) (size 15 to 20)
#    0.000    0.400    3.000    6.000    0.000    3.200 
#    0.000    0.000    0.000    0.000    0.000    0.000 
#    0.000    0.000    0.000    0.000    0.000    0.000 
#
# Total GULP energy -111552.655223 kJ/mol
# GULP energy per Si atom -5577.632761 kJ/mol
# Density = 2.464075 g / cm^3
# Si number density = 24.696958 Si / 1000 Ang^3
#
#
#
# Elastic Constant Matrix: (Units=GPa)
#
#
# Indices 1 2 3 4 5 6 
#
# 1 83.4686 31.3813 46.7735 0.0000 24.5648 0.0000
# 2 31.3813 114.3257 55.3455 0.0000 18.8452 0.0000
# 3 46.7735 55.3455 108.1015 0.0000 51.5672 0.0000
# 4 0.0000 0.0000 0.0000 12.5994 0.0000 3.8097
# 5 24.5648 18.8452 51.5672 0.0000 59.8695 0.0000
# 6 0.0000 0.0000 0.0000 3.8097 0.0000 32.4509
#
#
#
# Elastic Compliance Matrix: (Units=1/GPa)
#
#
# Indices 1 2 3 4 5 6 
#
# 1 0.016040 -0.001505 -0.005527 0.000000 -0.001347 0.000000
# 2 -0.001505 0.011994 -0.006761 0.000000 0.002666 0.000000
# 3 -0.005527 -0.006761 0.022078 0.000000 -0.014620 0.000000
# 4 0.000000 0.000000 0.000000 0.082290 0.000000 -0.009661
# 5 -0.001347 0.002666 -0.014620 0.000000 0.029009 0.000000
# 6 0.000000 0.000000 0.000000 -0.009661 0.000000 0.031950
#
#
# Mechanical properties :
#
#
# Convention : Reuss Voigt Hill
#
# Bulk Modulus (GPa) = 44.39474 63.65518 54.02496
# Shear Modulus (GPa) = 21.88615 32.47699 27.18157
#
# Velocity S-wave (km/s) = 2.98012 3.63025 3.32113
# Velocity P-wave (km/s) = 5.46409 6.58803 6.05221
#
# Compressibility (1/GPa) = 0.02252519
#
# Stress axis : x y z
#
# Youngs Moduli (GPa) = 62.34382 83.37775 45.29479
#
# Poissons Ratio (x) = 0.12549 0.25035
# Poissons Ratio (y) = 0.09383 0.30623
# Poissons Ratio (z) = 0.34459 0.56370
#
# Static dielectric constant tensor:
#      x y z
#    x 2.030210 0.000000 -0.036660 
#    y 0.000000 2.002160 0.000000 
#    z -0.036660 0.000000 1.889720 
# 
# From -- ./inp_files/73398.got.cif
#   From: 2010.05.17/outbox.cif.g08.bks.cpg/sg15_37_cif.got.tgz:73398.got - 2010.06.03 18:47:42.
