data_PCOD9302968
_publ_section_title
;
Structure prediction by ZEFSAII (Michael W. Deem and Ramdas Pophale) SiO2 
 PCOD9302968
Probable space group: C 2/C
;
_chemical_formula_sum "Si O2"
_cell_formula_units_Z 44
_cell_length_a 10.746631
_cell_length_b 30.830812
_cell_length_c 5.794705
_cell_angle_alpha 90.000000
_cell_angle_beta 84.697533
_cell_angle_gamma 90.000000
_cell_volume 1911.728330
_symmetry_space_group_name_H-M "C 2/C"
_symmetry_group_IT_number 15
_symmetry_cell_setting 'monoclinic'
loop_
_space_group_symop_operation_xyz
x,y,z
-x,y,1/2-z
-x,-y,-z
x,-y,1/2+z
1/2+x,1/2+y,z
1/2-x,1/2+y,1/2-z
1/2-x,1/2-y,-z
1/2+x,1/2-y,1/2+z
loop_
_atom_site_type_symbol
_atom_site_label
_atom_site_fract_x
_atom_site_fract_y
_atom_site_fract_z
Si Si1 0.500000 0.024542 0.750000
Si Si2 0.209436 0.671836 0.966808
Si Si3 0.748100 0.580102 0.787234
Si Si4 0.390662 0.279038 0.112392
Si Si5 0.867977 0.862615 0.841227
Si Si6 0.500000 0.214913 0.750000
Si Si7 0.500000 0.474945 0.250000
O O1 0.373245 0.052526 0.766818
O O2 0.500000 0.000000 0.500000
O O3 0.233458 0.623763 0.863502
O O4 0.284914 0.708333 0.812763
O O5 0.068045 0.684766 0.928797
O O6 0.274796 0.666990 0.203039
O O7 0.626581 0.553753 0.726973
O O8 0.716011 0.599411 0.043448
O O9 0.500000 0.261489 0.250000
O O10 0.421084 0.326693 0.009354
O O11 0.399651 0.245791 0.898795
O O12 0.000000 0.883667 0.750000
O O13 0.500000 0.500000 0.500000
#
# Coordination Sequence:
#
# PCOD9302968 Si02
#       7
#     4   8   8   8   8   4   4
#     4  12  29  54  80 112 160 204 248 304 394 472
#     4  11  25  43  70 101 143 197 252 308 390 448
#     4  11  27  47  77 111 152 197 251 311 384 477
#     4  11  22  41  65  97 140 189 254 314 383 435
#     4  11  22  44  74 107 143 198 251 321 387 446
#     4  12  25  42  63 102 148 198 260 320 375 456
#     4  12  28  48  83 124 152 190 252 318 393 464
#
# _framework density 23.015820999999999
#
# number of rings (size 3 to 8) (size 9 to 14) (size 15 to 20)
#    0.000    0.727    2.727    3.273    8.909    5.818 
#    0.000    0.000    0.000    0.000    0.000    0.000 
#    0.000    0.000    0.000    0.000    0.000    0.000 
#
# Total GULP energy -122625.055714 kJ/mol
# GULP energy per Si atom -5573.866169 kJ/mol
# Density = 2.296344 g / cm^3
# Si number density = 23.015821 Si / 1000 Ang^3
#
#
#
# Elastic Constant Matrix: (Units=GPa)
#
#
# Indices 1 2 3 4 5 6 
#
# 1 119.6756 76.2306 43.4540 0.0000 19.6897 0.0000
# 2 76.2306 119.5941 65.8177 0.0000 11.3277 0.0000
# 3 43.4540 65.8177 106.8948 0.0000 8.4669 0.0000
# 4 0.0000 0.0000 0.0000 88.3467 0.0000 27.5713
# 5 19.6897 11.3277 8.4669 0.0000 27.1767 0.0000
# 6 0.0000 0.0000 0.0000 27.5713 0.0000 253.4173
#
#
#
# Elastic Compliance Matrix: (Units=1/GPa)
#
#
# Indices 1 2 3 4 5 6 
#
# 1 0.015355 -0.009041 -0.000095 0.000000 -0.007327 0.000000
# 2 -0.009041 0.018201 -0.007638 0.000000 0.001344 0.000000
# 3 -0.000095 -0.007638 0.014189 0.000000 -0.001168 0.000000
# 4 0.000000 0.000000 0.000000 0.011717 0.000000 -0.001275
# 5 -0.007327 0.001344 -0.001168 0.000000 0.041908 0.000000
# 6 0.000000 0.000000 0.000000 -0.001275 0.000000 0.004085
#
#
# Mechanical properties :
#
#
# Convention : Reuss Voigt Hill
#
# Bulk Modulus (GPa) = 70.43720 79.68546 75.06133
# Shear Modulus (GPa) = 34.78658 84.49895 59.64276
#
# Velocity S-wave (km/s) = 3.89192 6.06573 5.09608
# Velocity P-wave (km/s) = 7.13206 9.15176 8.20430
#
# Compressibility (1/GPa) = 0.01419704
#
# Stress axis : x y z
#
# Youngs Moduli (GPa) = 65.12626 54.94313 70.47873
#
# Poissons Ratio (x) = 0.49675 0.00667
# Poissons Ratio (y) = 0.58882 0.53829
# Poissons Ratio (z) = 0.00617 0.41963
#
# Static dielectric constant tensor:
#      x y z
#    x 2.001180 0.000000 0.026330 
#    y 0.000000 1.800380 0.000000 
#    z 0.026330 0.000000 2.109840 
# 
# From -- ./inp_files/5907.got.cif
#   From: 2010.05.17/outbox.cif.g08.bks.cpg/sg15_3_cif.got.tgz:5907.got - 2010.06.03 18:47:42.
