data_PCOD9302534
_publ_section_title
;
Structure prediction by ZEFSAII (Michael W. Deem and Ramdas Pophale) SiO2 
 PCOD9302534
Probable space group: C 2/C
;
_chemical_formula_sum "Si O2"
_cell_formula_units_Z 64
_cell_length_a 22.897962
_cell_length_b 18.321658
_cell_length_c 18.041315
_cell_angle_alpha 90.000000
_cell_angle_beta 19.764939
_cell_angle_gamma 90.000000
_cell_volume 2559.497611
_symmetry_space_group_name_H-M "C 2/C"
_symmetry_group_IT_number 15
_symmetry_cell_setting 'monoclinic'
loop_
_space_group_symop_operation_xyz
x,y,z
-x,y,1/2-z
-x,-y,-z
x,-y,1/2+z
1/2+x,1/2+y,z
1/2-x,1/2+y,1/2-z
1/2-x,1/2-y,-z
1/2+x,1/2-y,1/2+z
loop_
_atom_site_type_symbol
_atom_site_label
_atom_site_fract_x
_atom_site_fract_y
_atom_site_fract_z
Si Si1 0.458431 0.560525 0.612210
Si Si2 0.831082 0.457417 0.497217
Si Si3 0.159553 0.817396 0.651596
Si Si4 0.274303 0.706083 0.801984
Si Si5 0.538080 0.091435 0.891582
Si Si6 0.230553 0.220828 0.866584
Si Si7 0.828917 0.974386 0.502590
Si Si8 0.419821 0.855196 0.694561
O O1 0.500000 0.500000 0.500000
O O2 0.416583 0.642369 0.638555
O O3 0.602086 0.559402 0.503026
O O4 0.286845 0.526663 0.851968
O O5 0.731076 0.398898 0.563474
O O6 0.000000 0.474113 0.250000
O O7 0.893611 0.431562 0.504832
O O8 0.250000 0.750000 0.500000
O O9 0.225047 0.799126 0.655827
O O10 0.954844 0.810695 0.887566
O O11 0.264400 0.722542 0.726739
O O12 0.325246 0.780208 0.782631
O O13 0.086792 0.670734 0.041170
O O14 0.615297 0.171554 0.784928
O O15 0.703226 0.039761 0.678478
O O16 0.484122 0.099767 0.042929
O O17 0.709769 0.910618 0.610589
O O18 0.000000 0.991797 0.250000
#
# Coordination Sequence:
#
# PCOD9302534 Si02
#       8
#     8   8   8   8   8   8   8   8
#     4  12  25  44  70  98 132 176 228 280 338 411
#     4  12  24  40  61  93 130 174 222 278 338 405
#     4  12  23  37  58  91 136 182 224 270 342 421
#     4  11  23  42  68  98 127 170 230 289 340 402
#     4  11  23  41  67  95 133 179 226 278 340 413
#     4  11  22  38  59  91 128 172 223 283 336 399
#     4  12  26  46  69 102 139 179 225 286 348 410
#     4  11  23  44  70  98 133 176 226 282 343 407
#
# _framework density 25.004906999999999
#
# number of rings (size 3 to 8) (size 9 to 14) (size 15 to 20)
#    0.000    0.500    0.000   11.250    0.000    1.000 
#    0.000    3.125    0.000    0.000    0.000    0.000 
#    0.000    0.000    0.000    0.000    0.000    0.000 
#
# Total GULP energy -179121.227670 kJ/mol
# GULP energy per Si atom -5597.538365 kJ/mol
# Density = 2.494800 g / cm^3
# Si number density = 25.004907 Si / 1000 Ang^3
#
#
#
# Elastic Constant Matrix: (Units=GPa)
#
#
# Indices 1 2 3 4 5 6 
#
# 1 75.4283 11.3732 -1.6855 0.0013 -19.3989 -0.0013
# 2 11.3732 110.8323 37.7169 0.0064 -1.8173 0.0052
# 3 -1.6855 37.7169 123.3271 0.0200 -16.2998 0.0011
# 4 0.0013 0.0064 0.0200 44.1031 -0.0095 -17.2564
# 5 -19.3989 -1.8173 -16.2998 -0.0095 34.0899 0.0003
# 6 -0.0013 0.0052 0.0011 -17.2564 0.0003 21.3505
#
#
#
# Elastic Compliance Matrix: (Units=1/GPa)
#
#
# Indices 1 2 3 4 5 6 
#
# 1 0.016282 -0.002276 0.002271 0.000002 0.010230 0.000003
# 2 -0.002276 0.010421 -0.003539 -0.000002 -0.002432 -0.000004
# 3 0.002271 -0.003539 0.010000 -0.000004 0.005885 -0.000003
# 4 0.000002 -0.000002 -0.000004 0.033161 0.000008 0.026802
# 5 0.010230 -0.002432 0.005885 0.000008 0.037840 0.000007
# 6 0.000003 -0.000004 -0.000003 0.026802 0.000007 0.068500
#
#
# Mechanical properties :
#
#
# Convention : Reuss Voigt Hill
#
# Bulk Modulus (GPa) = 33.76818 44.93297 39.35057
# Shear Modulus (GPa) = 25.88461 37.38756 31.63608
#
# Velocity S-wave (km/s) = 3.22091 3.87099 3.56082
# Velocity P-wave (km/s) = 5.23128 6.16345 5.71640
#
# Compressibility (1/GPa) = 0.02961368
#
# Stress axis : x y z
#
# Youngs Moduli (GPa) = 61.41571 95.96179 100.00209
#
# Poissons Ratio (x) = 0.21839 -0.22706
# Poissons Ratio (y) = 0.13977 0.35396
# Poissons Ratio (z) = -0.13945 0.33966
#
# Static dielectric constant tensor:
#      x y z
#    x 2.020970 0.000030 0.045210 
#    y 0.000030 2.064310 -0.000030 
#    z 0.045210 -0.000030 2.033380 
# 
# From -- ./inp_files/220271.got.cif
#   From: 2010.05.17/outbox.cif.g08.bks.cpg/sg15_111_cif.got.tgz:220271.got - 2010.06.03 18:47:42.
