data_PCOD9302477
_publ_section_title
;
Structure prediction by ZEFSAII (Michael W. Deem and Ramdas Pophale) SiO2 
 PCOD9302477
Probable space group: C 2/C
;
_chemical_formula_sum "Si O2"
_cell_formula_units_Z 40
_cell_length_a 14.153057
_cell_length_b 23.140113
_cell_length_c 4.911912
_cell_angle_alpha 90.000000
_cell_angle_beta 86.673889
_cell_angle_gamma 90.000000
_cell_volume 1605.957744
_symmetry_space_group_name_H-M "C 2/C"
_symmetry_group_IT_number 15
_symmetry_cell_setting 'monoclinic'
loop_
_space_group_symop_operation_xyz
x,y,z
-x,y,1/2-z
-x,-y,-z
x,-y,1/2+z
1/2+x,1/2+y,z
1/2-x,1/2+y,1/2-z
1/2-x,1/2-y,-z
1/2+x,1/2-y,1/2+z
loop_
_atom_site_type_symbol
_atom_site_label
_atom_site_fract_x
_atom_site_fract_y
_atom_site_fract_z
Si Si1 0.323604 0.834833 0.451760
Si Si2 0.098322 0.928378 0.664242
Si Si3 0.593886 0.221716 0.077797
Si Si4 0.303410 0.035589 0.965942
Si Si5 0.375103 0.351826 0.321033
O O1 0.323071 0.798397 0.729059
O O2 0.344889 0.901474 0.519793
O O3 0.224157 0.838694 0.312464
O O4 0.391238 0.805242 0.219193
O O5 0.188474 0.960106 0.519790
O O6 0.069249 0.880720 0.441913
O O7 0.000000 0.960299 0.750000
O O8 0.135431 0.896810 0.930167
O O9 0.500000 0.200902 0.250000
O O10 0.590599 0.290813 0.069103
O O11 0.331345 0.014992 0.664663
#
# Coordination Sequence:
#
# PCOD9302477 Si02
#       5
#     8   8   8   8   8
#     4  11  23  41  62  88 120 157 204 245 287 358
#     4  11  22  37  59  92 129 158 195 241 287 351
#     4  12  23  38  63  93 125 156 192 243 299 353
#     4  11  23  41  63  84 112 159 207 251 301 345
#     4  11  22  39  61  90 127 167 194 223 288 364
#
# _framework density 24.907256
#
# number of rings (size 3 to 8) (size 9 to 14) (size 15 to 20)
#    0.000    0.800    0.000   10.800    0.000    0.800 
#    0.000    0.000    0.000   12.000    0.000    0.000 
#    0.000    0.000    0.000    0.000    0.000    0.000 
#
# Total GULP energy -112018.493816 kJ/mol
# GULP energy per Si atom -5600.924691 kJ/mol
# Density = 2.485057 g / cm^3
# Si number density = 24.907256 Si / 1000 Ang^3
#
#
#
# Elastic Constant Matrix: (Units=GPa)
#
#
# Indices 1 2 3 4 5 6 
#
# 1 24.1286 -19.2439 8.2555 0.0000 3.2103 0.0000
# 2 -19.2439 104.5531 25.5452 0.0000 0.3381 0.0000
# 3 8.2555 25.5452 123.8752 0.0000 12.3088 0.0000
# 4 0.0000 0.0000 0.0000 44.9486 0.0000 -12.7716
# 5 3.2103 0.3381 12.3088 0.0000 35.4779 0.0000
# 6 0.0000 0.0000 0.0000 -12.7716 0.0000 18.5230
#
#
#
# Elastic Compliance Matrix: (Units=1/GPa)
#
#
# Indices 1 2 3 4 5 6 
#
# 1 0.052491 0.011009 -0.005475 0.000000 -0.002955 0.000000
# 2 0.011009 0.012395 -0.003293 0.000000 0.000028 0.000000
# 3 -0.005475 -0.003293 0.009388 0.000000 -0.002730 0.000000
# 4 0.000000 0.000000 0.000000 0.027668 0.000000 0.019077
# 5 -0.002955 0.000028 -0.002730 0.000000 0.029401 0.000000
# 6 0.000000 0.000000 0.000000 0.019077 0.000000 0.067141
#
#
# Mechanical properties :
#
#
# Convention : Reuss Voigt Hill
#
# Bulk Modulus (GPa) = 12.69738 31.29672 21.99705
# Shear Modulus (GPa) = 22.70117 35.65656 29.17887
#
# Velocity S-wave (km/s) = 3.02226 3.78772 3.42643
# Velocity P-wave (km/s) = 4.15785 5.63220 4.95022
#
# Compressibility (1/GPa) = 0.07875642
#
# Stress axis : x y z
#
# Youngs Moduli (GPa) = 19.05096 80.67693 106.52168
#
# Poissons Ratio (x) = -0.88814 0.58317
# Poissons Ratio (y) = -0.20972 0.35073
# Poissons Ratio (z) = 0.10430 0.26563
#
# Static dielectric constant tensor:
#      x y z
#    x 2.110400 0.000000 0.013960 
#    y 0.000000 1.936750 0.000000 
#    z 0.013960 0.000000 1.904780 
# 
# From -- ./inp_files/10165.got.cif
#   From: 2010.05.17/outbox.cif.g08.bks.cpg/sg15_6_cif.got.tgz:10165.got - 2010.06.03 18:47:42.
