data_PCOD9302440
_publ_section_title
;
Structure prediction by ZEFSAII (Michael W. Deem and Ramdas Pophale) SiO2 
 PCOD9302440
Probable space group: C 2/C
;
_chemical_formula_sum "Si O2"
_cell_formula_units_Z 56
_cell_length_a 18.016000
_cell_length_b 14.715670
_cell_length_c 20.570880
_cell_angle_alpha 90.000000
_cell_angle_beta 27.823822
_cell_angle_gamma 90.000000
_cell_volume 2545.538619
_symmetry_space_group_name_H-M "C 2/C"
_symmetry_group_IT_number 15
_symmetry_cell_setting 'monoclinic'
loop_
_space_group_symop_operation_xyz
x,y,z
-x,y,1/2-z
-x,-y,-z
x,-y,1/2+z
1/2+x,1/2+y,z
1/2-x,1/2+y,1/2-z
1/2-x,1/2-y,-z
1/2+x,1/2-y,1/2+z
loop_
_atom_site_type_symbol
_atom_site_label
_atom_site_fract_x
_atom_site_fract_y
_atom_site_fract_z
Si Si1 0.896506 0.281416 0.098452
Si Si2 0.076784 0.700238 0.333991
Si Si3 0.649850 0.530525 0.085403
Si Si4 0.009300 0.109884 0.415638
Si Si5 0.226439 0.950696 0.292472
Si Si6 0.512950 0.015151 0.161677
Si Si7 0.388439 0.677328 0.899276
O O1 0.759945 0.214820 0.174042
O O2 0.949590 0.216726 0.116314
O O3 0.807923 0.373772 0.185783
O O4 0.037357 0.307384 0.940452
O O5 0.991655 0.618944 0.361225
O O6 0.994082 0.793214 0.377326
O O7 0.500000 0.539022 0.250000
O O8 0.602171 0.586601 0.058897
O O9 0.663485 0.425406 0.053237
O O10 0.825833 0.541461 0.979594
O O11 0.915219 0.092426 0.555640
O O12 0.155832 0.037312 0.307442
O O13 0.360232 0.977931 0.241560
O O14 0.500000 0.012866 0.250000
O O15 0.500000 0.683544 0.750000
O O16 0.250000 0.750000 0.000000
#
# Coordination Sequence:
#
# PCOD9302440 Si02
#       7
#     8   8   8   8   8   8   8
#     4  12  26  45  70 103 137 183 243 283 345 415
#     4  12  25  39  65 104 138 179 228 292 346 417
#     4  11  26  43  66 102 139 182 228 288 353 410
#     4  11  24  47  72 100 145 188 227 290 354 418
#     4  11  25  46  72 100 141 190 236 282 347 425
#     4  12  25  44  70 102 140 186 234 285 353 419
#     4  11  22  36  58  93 140 174 212 274 351 417
#
# _framework density 21.999272000000001
#
# number of rings (size 3 to 8) (size 9 to 14) (size 15 to 20)
#    0.000    0.571    5.714    2.143    8.000    1.714 
#    0.000    1.429    0.000    0.000    0.000    0.000 
#    0.000    0.000    0.000    0.000    0.000    0.000 
#
# Total GULP energy -156377.520309 kJ/mol
# GULP energy per Si atom -5584.911440 kJ/mol
# Density = 2.194920 g / cm^3
# Si number density = 21.999272 Si / 1000 Ang^3
#
#
#
# Elastic Constant Matrix: (Units=GPa)
#
#
# Indices 1 2 3 4 5 6 
#
# 1 68.8499 9.3359 10.7584 -0.0043 -19.4586 0.0010
# 2 9.3359 54.1545 11.9572 -0.0128 -1.1816 0.0051
# 3 10.7584 11.9572 89.8983 -0.0125 -10.3368 0.0044
# 4 -0.0043 -0.0128 -0.0125 19.7134 0.0041 3.4978
# 5 -19.4586 -1.1816 -10.3368 0.0041 33.8721 -0.0012
# 6 0.0010 0.0051 0.0044 3.4978 -0.0012 36.8150
#
#
#
# Elastic Compliance Matrix: (Units=1/GPa)
#
#
# Indices 1 2 3 4 5 6 
#
# 1 0.017799 -0.002713 -0.000626 0.000000 0.009939 0.000000
# 2 -0.002713 0.019438 -0.002448 0.000011 -0.001628 -0.000003
# 3 -0.000626 -0.002448 0.011890 0.000005 0.003183 -0.000001
# 4 0.000000 0.000011 0.000005 0.051597 -0.000005 -0.004902
# 5 0.009939 -0.001628 0.003183 -0.000005 0.036147 0.000001
# 6 0.000000 -0.000003 -0.000001 -0.004902 0.000001 0.027629
#
#
# Mechanical properties :
#
#
# Convention : Reuss Voigt Hill
#
# Bulk Modulus (GPa) = 26.62913 30.77840 28.70377
# Shear Modulus (GPa) = 26.51205 30.13684 28.32445
#
# Velocity S-wave (km/s) = 3.47527 3.70523 3.59209
# Velocity P-wave (km/s) = 5.31358 5.68560 5.50274
#
# Compressibility (1/GPa) = 0.03755285
#
# Stress axis : x y z
#
# Youngs Moduli (GPa) = 56.18214 51.44448 84.10240
#
# Poissons Ratio (x) = 0.13958 0.05268
# Poissons Ratio (y) = 0.15244 0.20587
# Poissons Ratio (z) = 0.03519 0.12593
#
# Static dielectric constant tensor:
#      x y z
#    x 1.849690 0.000000 -0.061480 
#    y 0.000000 1.821560 0.000000 
#    z -0.061480 0.000000 1.844390 
# 
# From -- ./inp_files/249210.got.cif
#   From: 2010.05.17/outbox.cif.g08.bks.cpg/sg15_125_cif.got.tgz:249210.got - 2010.06.03 18:47:42.
