data_PCOD9302622
_publ_section_title
;
Structure prediction by ZEFSAII (Michael W. Deem and Ramdas Pophale) SiO2 
 PCOD9302622
Probable space group: C 2/C
;
_chemical_formula_sum "Si O2"
_cell_formula_units_Z 60
_cell_length_a 17.295373
_cell_length_b 21.084637
_cell_length_c 8.545676
_cell_angle_alpha 90.000000
_cell_angle_beta 68.085302
_cell_angle_gamma 90.000000
_cell_volume 2891.139314
_symmetry_space_group_name_H-M "C 2/C"
_symmetry_group_IT_number 15
_symmetry_cell_setting 'monoclinic'
loop_
_space_group_symop_operation_xyz
x,y,z
-x,y,1/2-z
-x,-y,-z
x,-y,1/2+z
1/2+x,1/2+y,z
1/2-x,1/2+y,1/2-z
1/2-x,1/2-y,-z
1/2+x,1/2-y,1/2+z
loop_
_atom_site_type_symbol
_atom_site_label
_atom_site_fract_x
_atom_site_fract_y
_atom_site_fract_z
Si Si1 0.247709 0.681811 0.739852
Si Si2 0.663722 0.681670 0.293790
Si Si3 0.092651 0.197412 0.692891
Si Si4 0.388703 0.100135 0.492779
Si Si5 0.000000 0.220924 0.250000
Si Si6 0.451476 0.187056 0.072962
Si Si7 0.901968 0.487403 0.286129
Si Si8 0.797971 0.387602 0.544360
O O1 0.220532 0.754813 0.734277
O O2 0.341240 0.673516 0.730412
O O3 0.186146 0.647929 0.911046
O O4 0.233632 0.648056 0.586788
O O5 0.631806 0.688002 0.494236
O O6 0.584361 0.684547 0.236559
O O7 0.720479 0.620091 0.219826
O O8 0.078990 0.270172 0.759083
O O9 0.000000 0.169172 0.750000
O O10 0.473610 0.139311 0.448288
O O11 0.390047 0.046075 0.627890
O O12 0.385779 0.061765 0.331926
O O13 0.982283 0.264625 0.414502
O O14 0.374775 0.150485 0.057365
O O15 0.837710 0.451923 0.450102
O O16 0.000000 0.476887 0.250000
#
# Coordination Sequence:
#
# PCOD9302622 Si02
#       8
#     8   8   8   8   4   8   8   8
#     4  11  22  39  60  87 124 166 212 262 315 383
#     4  12  23  37  61  92 122 165 212 262 321 383
#     4  12  25  39  56  93 127 157 208 266 329 375
#     4  11  24  41  63  93 129 175 213 259 309 374
#     4  12  20  38  62  90 126 166 216 250 318 388
#     4  12  21  38  61  87 132 169 207 255 312 384
#     4  11  23  41  60  93 128 171 218 251 302 378
#     4  11  23  38  62  86 122 171 217 253 305 384
#
# _framework density 20.753066
#
# number of rings (size 3 to 8) (size 9 to 14) (size 15 to 20)
#    0.000    0.533    6.667    2.800    0.000    2.667 
#    0.000    0.000    0.000    0.000    1.733    2.800 
#    0.000    0.000    0.000    0.000    0.000    0.000 
#
# Total GULP energy -167746.601025 kJ/mol
# GULP energy per Si atom -5591.553367 kJ/mol
# Density = 2.070583 g / cm^3
# Si number density = 20.753066 Si / 1000 Ang^3
#
#
#
# Elastic Constant Matrix: (Units=GPa)
#
#
# Indices 1 2 3 4 5 6 
#
# 1 163.4634 44.7215 30.3554 0.0000 -7.0431 0.0000
# 2 44.7215 55.3858 38.0939 0.0000 -0.3532 0.0000
# 3 30.3554 38.0939 104.6638 0.0000 -9.3149 0.0000
# 4 0.0000 0.0000 0.0000 41.8059 0.0000 -3.8221
# 5 -7.0431 -0.3532 -9.3149 0.0000 21.8898 0.0000
# 6 0.0000 0.0000 0.0000 -3.8221 0.0000 22.5933
#
#
#
# Elastic Compliance Matrix: (Units=1/GPa)
#
#
# Indices 1 2 3 4 5 6 
#
# 1 0.007992 -0.006672 0.000343 0.000000 0.002610 0.000000
# 2 -0.006672 0.029911 -0.009458 0.000000 -0.005689 0.000000
# 3 0.000343 -0.009458 0.013401 0.000000 0.005660 0.000000
# 4 0.000000 0.000000 0.000000 0.024296 0.000000 0.004110
# 5 0.002610 -0.005689 0.005660 0.000000 0.048840 0.000000
# 6 0.000000 0.000000 0.000000 0.004110 0.000000 0.044956
#
#
# Mechanical properties :
#
#
# Convention : Reuss Voigt Hill
#
# Bulk Modulus (GPa) = 50.68460 61.09496 55.88978
# Shear Modulus (GPa) = 24.09092 31.28061 27.68577
#
# Velocity S-wave (km/s) = 3.41080 3.88658 3.65644
# Velocity P-wave (km/s) = 6.32354 7.04582 6.69443
#
# Compressibility (1/GPa) = 0.01972986
#
# Stress axis : x y z
#
# Youngs Moduli (GPa) = 125.12884 33.43210 74.62099
#
# Poissons Ratio (x) = 0.22306 -0.02558
# Poissons Ratio (y) = 0.83488 0.70576
# Poissons Ratio (z) = -0.04290 0.31620
#
# Static dielectric constant tensor:
#      x y z
#    x 1.751880 0.000000 0.004980 
#    y 0.000000 1.737880 0.000000 
#    z 0.004980 0.000000 1.816140 
# 
# From -- ./inp_files/50190.got.cif
#   From: 2010.05.17/outbox.cif.g08.bks.cpg/sg15_26_cif.got.tgz:50190.got - 2010.06.03 18:47:42.
