data_PCOD9302296
_publ_section_title
;
Structure prediction by ZEFSAII (Michael W. Deem and Ramdas Pophale) SiO2 
 PCOD9302296
Probable space group: C 2/C
;
_chemical_formula_sum "Si O2"
_cell_formula_units_Z 40
_cell_length_a 19.530241
_cell_length_b 10.493044
_cell_length_c 9.507015
_cell_angle_alpha 90.000000
_cell_angle_beta 66.506059
_cell_angle_gamma 90.000000
_cell_volume 1786.779776
_symmetry_space_group_name_H-M "C 2/C"
_symmetry_group_IT_number 15
_symmetry_cell_setting 'monoclinic'
loop_
_space_group_symop_operation_xyz
x,y,z
-x,y,1/2-z
-x,-y,-z
x,-y,1/2+z
1/2+x,1/2+y,z
1/2-x,1/2+y,1/2-z
1/2-x,1/2-y,-z
1/2+x,1/2-y,1/2+z
loop_
_atom_site_type_symbol
_atom_site_label
_atom_site_fract_x
_atom_site_fract_y
_atom_site_fract_z
Si Si1 0.000000 0.273771 0.250000
Si Si2 0.604234 0.979054 0.044537
Si Si3 0.959167 0.864856 0.519473
Si Si4 0.500000 0.808289 0.750000
Si Si5 0.789097 0.192031 0.109155
Si Si6 0.197581 0.560015 0.720070
O O1 0.952840 0.364901 0.389749
O O2 0.952133 0.189397 0.183308
O O3 0.567908 0.100001 0.151838
O O4 0.675956 0.935719 0.074601
O O5 0.624727 0.021379 0.872132
O O6 0.011704 0.781088 0.374637
O O7 0.876426 0.847562 0.521290
O O8 0.000000 0.000000 0.500000
O O9 0.779545 0.305713 0.231126
O O10 0.751485 0.060594 0.188766
O O11 0.750000 0.250000 0.000000
#
# Coordination Sequence:
#
# PCOD9302296 Si02
#       6
#     4   8   8   4   8   8
#     4  11  23  42  70 108 135 171 248 292 370 439
#     4  11  22  42  75 101 135 187 242 304 358 440
#     4  12  26  45  70 106 146 186 236 308 379 439
#     4  11  21  44  74 102 143 187 236 304 372 445
#     4  12  27  49  72 107 152 199 247 305 376 454
#     4  12  24  46  72 103 146 194 248 300 367 446
#
# _framework density 22.386641999999998
#
# number of rings (size 3 to 8) (size 9 to 14) (size 15 to 20)
#    0.000    0.400    6.000    1.800    0.000   10.400 
#    0.000    0.000    0.000    0.000    0.000    0.000 
#    0.000    0.000    0.000    0.000    0.000    0.000 
#
# Total GULP energy -111743.026555 kJ/mol
# GULP energy per Si atom -5587.151328 kJ/mol
# Density = 2.233569 g / cm^3
# Si number density = 22.386642 Si / 1000 Ang^3
#
#
#
# Elastic Constant Matrix: (Units=GPa)
#
#
# Indices 1 2 3 4 5 6 
#
# 1 89.0809 53.3885 17.4228 0.0000 7.5899 0.0000
# 2 53.3885 151.5479 14.3482 0.0000 1.1256 0.0000
# 3 17.4228 14.3482 64.3911 0.0000 6.2326 0.0000
# 4 0.0000 0.0000 0.0000 29.8671 0.0000 0.2357
# 5 7.5899 1.1256 6.2326 0.0000 38.9384 0.0000
# 6 0.0000 0.0000 0.0000 0.2357 0.0000 14.9441
#
#
#
# Elastic Compliance Matrix: (Units=1/GPa)
#
#
# Indices 1 2 3 4 5 6 
#
# 1 0.014946 -0.004992 -0.002706 0.000000 -0.002336 0.000000
# 2 -0.004992 0.008408 -0.000603 0.000000 0.000826 0.000000
# 3 -0.002706 -0.000603 0.016601 0.000000 -0.002112 0.000000
# 4 0.000000 0.000000 0.000000 0.033486 0.000000 -0.000528
# 5 -0.002336 0.000826 -0.002112 0.000000 0.026451 0.000000
# 6 0.000000 0.000000 0.000000 -0.000528 0.000000 0.066924
#
#
# Mechanical properties :
#
#
# Convention : Reuss Voigt Hill
#
# Bulk Modulus (GPa) = 42.81866 52.81544 47.81705
# Shear Modulus (GPa) = 26.15053 31.40728 28.77890
#
# Velocity S-wave (km/s) = 3.42150 3.74966 3.58933
# Velocity P-wave (km/s) = 5.89723 6.51077 6.21158
#
# Compressibility (1/GPa) = 0.02335430
#
# Stress axis : x y z
#
# Youngs Moduli (GPa) = 66.90960 118.93426 60.23748
#
# Poissons Ratio (x) = 0.59368 0.16298
# Poissons Ratio (y) = 0.33399 0.03632
# Poissons Ratio (z) = 0.18103 0.07171
#
# Static dielectric constant tensor:
#      x y z
#    x 1.913880 0.000000 -0.009500 
#    y 0.000000 1.852990 0.000000 
#    z -0.009500 0.000000 1.839070 
# 
# From -- ./inp_files/54093.got.cif
#   From: 2010.05.17/outbox.cif.g08.bks.cpg/sg15_28_cif.got.tgz:54093.got - 2010.06.03 18:47:42.
