data_PCOD9302490
_publ_section_title
;
Structure prediction by ZEFSAII (Michael W. Deem and Ramdas Pophale) SiO2 
 PCOD9302490
Probable space group: C 2/C
;
_chemical_formula_sum "Si O2"
_cell_formula_units_Z 64
_cell_length_a 31.735647
_cell_length_b 22.920821
_cell_length_c 9.702010
_cell_angle_alpha 90.000000
_cell_angle_beta 153.800447
_cell_angle_gamma 90.000000
_cell_volume 3115.794624
_symmetry_space_group_name_H-M "C 2/C"
_symmetry_group_IT_number 15
_symmetry_cell_setting 'monoclinic'
loop_
_space_group_symop_operation_xyz
x,y,z
-x,y,1/2-z
-x,-y,-z
x,-y,1/2+z
1/2+x,1/2+y,z
1/2-x,1/2+y,1/2-z
1/2-x,1/2-y,-z
1/2+x,1/2-y,1/2+z
loop_
_atom_site_type_symbol
_atom_site_label
_atom_site_fract_x
_atom_site_fract_y
_atom_site_fract_z
Si Si1 0.845609 0.102988 0.791065
Si Si2 0.932405 0.055241 0.307509
Si Si3 0.113412 0.265784 0.958213
Si Si4 0.235752 0.495621 0.344397
Si Si5 0.801256 0.426591 0.011191
Si Si6 0.401464 0.369614 0.144677
Si Si7 0.599705 0.195979 0.722503
Si Si8 0.280398 0.278784 0.232848
O O1 0.769037 0.053450 0.525895
O O2 0.884551 0.127929 0.761086
O O3 0.810667 0.156652 0.780479
O O4 0.917297 0.072286 0.105136
O O5 0.993800 0.103413 0.568288
O O6 0.000000 0.000000 0.500000
O O7 0.831917 0.037540 0.078068
O O8 0.102011 0.195969 0.918344
O O9 0.013797 0.295928 0.622970
O O10 0.138576 0.283910 0.187175
O O11 0.194169 0.281723 0.086931
O O12 0.179882 0.452635 0.282214
O O13 0.186436 0.522042 0.064477
O O14 0.688833 0.406763 0.676500
O O15 0.862431 0.369920 0.149849
O O16 0.640591 0.238419 0.960636
O O17 0.250000 0.250000 0.000000
#
# Coordination Sequence:
#
# PCOD9302490 Si02
#       8
#     8   8   8   8   8   8   8   8
#     4  11  22  37  61  95 133 177 216 270 330 401
#     4  12  22  35  59  95 137 177 217 264 335 411
#     4  11  25  46  69 102 135 180 228 277 347 399
#     4  11  23  40  60  95 127 181 218 269 339 393
#     4  11  23  42  65  93 133 172 219 276 328 408
#     4  11  22  39  62  95 140 171 213 274 328 415
#     4  11  26  45  69  99 140 178 228 283 335 406
#     4  12  23  44  71 101 137 180 223 278 346 404
#
# _framework density 20.540506000000001
#
# number of rings (size 3 to 8) (size 9 to 14) (size 15 to 20)
#    0.000    0.750    6.250    2.250    1.750    4.000 
#    0.000    0.000    0.000    6.750    0.000    0.000 
#    0.000    0.000    0.000    0.000    0.000    0.000 
#
# Total GULP energy -178915.616831 kJ/mol
# GULP energy per Si atom -5591.113026 kJ/mol
# Density = 2.049375 g / cm^3
# Si number density = 20.540506 Si / 1000 Ang^3
#
#
#
# Elastic Constant Matrix: (Units=GPa)
#
#
# Indices 1 2 3 4 5 6 
#
# 1 57.0955 31.8765 12.8901 0.0000 -22.4156 0.0000
# 2 31.8765 87.7904 6.3004 0.0000 -3.3769 0.0000
# 3 12.8901 6.3004 45.4583 0.0000 -20.5262 0.0000
# 4 0.0000 0.0000 0.0000 22.0671 0.0000 -5.7622
# 5 -22.4156 -3.3769 -20.5262 0.0000 25.7415 0.0000
# 6 0.0000 0.0000 0.0000 -5.7622 0.0000 44.4786
#
#
#
# Elastic Compliance Matrix: (Units=1/GPa)
#
#
# Indices 1 2 3 4 5 6 
#
# 1 0.037494 -0.012751 0.008005 0.000000 0.037360 0.000000
# 2 -0.012751 0.015844 -0.004150 0.000000 -0.012334 0.000000
# 3 0.008005 -0.004150 0.036261 0.000000 0.035341 0.000000
# 4 0.000000 0.000000 0.000000 0.046903 0.000000 0.006076
# 5 0.037360 -0.012334 0.035341 0.000000 0.097944 0.000000
# 6 0.000000 0.000000 0.000000 0.006076 0.000000 0.023270
#
#
# Mechanical properties :
#
#
# Convention : Reuss Voigt Hill
#
# Bulk Modulus (GPa) = 13.92608 32.49759 23.21184
# Shear Modulus (GPa) = 16.69764 27.74260 22.22012
#
# Velocity S-wave (km/s) = 2.85426 3.67908 3.29260
# Velocity P-wave (km/s) = 4.20201 5.82263 5.07740
#
# Compressibility (1/GPa) = 0.07180770
#
# Stress axis : x y z
#
# Youngs Moduli (GPa) = 26.67107 63.11495 27.57756
#
# Poissons Ratio (x) = 0.80480 -0.22076
# Poissons Ratio (y) = 0.34009 0.11443
# Poissons Ratio (z) = -0.21351 0.26190
#
# Static dielectric constant tensor:
#      x y z
#    x 1.739740 0.000000 -0.008180 
#    y 0.000000 2.842630 0.000000 
#    z -0.008180 0.000000 1.746720 
# 
# From -- ./inp_files/70983.got.cif
#   From: 2010.05.17/outbox.cif.g08.bks.cpg/sg15_36_cif.got.tgz:70983.got - 2010.06.03 18:47:42.
