data_PCOD9302212
_publ_section_title
;
Structure prediction by ZEFSAII (Michael W. Deem and Ramdas Pophale) SiO2 
 PCOD9302212
Probable space group: C 2/C
;
_chemical_formula_sum "Si O2"
_cell_formula_units_Z 60
_cell_length_a 8.192555
_cell_length_b 24.690084
_cell_length_c 14.822973
_cell_angle_alpha 90.000000
_cell_angle_beta 68.391204
_cell_angle_gamma 90.000000
_cell_volume 2787.593261
_symmetry_space_group_name_H-M "C 2/C"
_symmetry_group_IT_number 15
_symmetry_cell_setting 'monoclinic'
loop_
_space_group_symop_operation_xyz
x,y,z
-x,y,1/2-z
-x,-y,-z
x,-y,1/2+z
1/2+x,1/2+y,z
1/2-x,1/2+y,1/2-z
1/2-x,1/2-y,-z
1/2+x,1/2-y,1/2+z
loop_
_atom_site_type_symbol
_atom_site_label
_atom_site_fract_x
_atom_site_fract_y
_atom_site_fract_z
Si Si1 0.188331 0.214106 0.259922
Si Si2 0.339482 0.698052 0.027886
Si Si3 0.012898 0.033636 0.587415
Si Si4 0.289584 0.878570 0.604848
Si Si5 0.708081 0.334697 0.230341
Si Si6 0.000000 0.041635 0.250000
Si Si7 0.658703 0.100939 0.964065
Si Si8 0.677256 0.354994 0.425725
O O1 0.151342 0.191109 0.366793
O O2 0.293979 0.172274 0.173893
O O3 0.281188 0.269885 0.270026
O O4 0.000000 0.223338 0.250000
O O5 0.250000 0.750000 0.000000
O O6 0.241429 0.644990 0.014135
O O7 0.537151 0.693829 0.951295
O O8 0.213529 0.049659 0.569331
O O9 0.918154 0.089199 0.581239
O O10 0.933744 0.998727 0.685026
O O11 0.000000 0.000000 0.500000
O O12 0.144802 0.919326 0.674981
O O13 0.470202 0.909549 0.545901
O O14 0.243966 0.857401 0.513518
O O15 0.500000 0.349536 0.250000
O O16 0.825627 0.366194 0.133370
O O17 0.786409 0.347521 0.313215
#
# Coordination Sequence:
#
# PCOD9302212 Si02
#       8
#     8   8   8   8   8   4   8   8
#     4  12  26  41  66 105 146 198 240 285 357 424
#     4  11  21  43  68  96 144 194 241 286 348 424
#     4  11  23  47  77  96 130 185 236 293 369 423
#     4  12  27  45  70 106 148 181 238 301 358 433
#     4  12  24  43  69  99 144 197 241 286 352 421
#     4  12  24  50  76  96 140 186 226 298 374 420
#     4  11  27  44  71 107 138 182 246 298 346 439
#     4  11  23  44  70 100 141 188 237 292 362 426
#
# _framework density 21.523945000000001
#
# number of rings (size 3 to 8) (size 9 to 14) (size 15 to 20)
#    0.000    0.533    7.333    0.800    7.467    1.067 
#    0.000    0.000    0.000    0.000    0.000    0.000 
#    0.000    0.000    0.000    0.000    0.000    0.000 
#
# Total GULP energy -167312.942644 kJ/mol
# GULP energy per Si atom -5577.098088 kJ/mol
# Density = 2.147496 g / cm^3
# Si number density = 21.523945 Si / 1000 Ang^3
#
#
#
# Elastic Constant Matrix: (Units=GPa)
#
#
# Indices 1 2 3 4 5 6 
#
# 1 40.0698 1.1324 40.0074 0.0000 -0.0354 0.0000
# 2 1.1324 67.3245 29.9874 0.0000 3.1044 0.0000
# 3 40.0074 29.9874 183.5223 0.0000 22.1071 0.0000
# 4 0.0000 0.0000 0.0000 113.7890 0.0000 111.9658
# 5 -0.0354 3.1044 22.1071 0.0000 46.0178 0.0000
# 6 0.0000 0.0000 0.0000 111.9658 0.0000 152.4777
#
#
#
# Elastic Compliance Matrix: (Units=1/GPa)
#
#
# Indices 1 2 3 4 5 6 
#
# 1 0.032974 0.002885 -0.008109 0.000000 0.003726 0.000000
# 2 0.002885 0.016273 -0.003350 0.000000 0.000514 0.000000
# 3 -0.008109 -0.003350 0.008213 0.000000 -0.003726 0.000000
# 4 0.000000 0.000000 0.000000 0.031674 0.000000 -0.023259
# 5 0.003726 0.000514 -0.003726 0.000000 0.023489 0.000000
# 6 0.000000 0.000000 0.000000 -0.023259 0.000000 0.023637
#
#
# Mechanical properties :
#
#
# Convention : Reuss Voigt Hill
#
# Bulk Modulus (GPa) = 24.80542 48.13010 36.46776
# Shear Modulus (GPa) = 29.96796 77.10952 53.53874
#
# Velocity S-wave (km/s) = 3.73541 5.99189 4.99280
# Velocity P-wave (km/s) = 5.49127 8.38332 7.08640
#
# Compressibility (1/GPa) = 0.04031378
#
# Stress axis : x y z
#
# Youngs Moduli (GPa) = 30.32680 61.45030 121.76207
#
# Poissons Ratio (x) = -0.17730 0.98732
# Poissons Ratio (y) = -0.08750 0.40789
# Poissons Ratio (z) = 0.24591 0.20585
#
# Static dielectric constant tensor:
#      x y z
#    x 1.801760 0.000000 -0.035220 
#    y 0.000000 1.126290 0.000000 
#    z -0.035220 0.000000 1.748080 
# 
# From -- ./inp_files/137781.got.cif
#   From: 2010.05.17/outbox.cif.g08.bks.cpg/sg15_69_cif.got.tgz:137781.got - 2010.06.03 18:47:42.
