data_PCOD9302029
_publ_section_title
;
Structure prediction by ZEFSAII (Michael W. Deem and Ramdas Pophale) SiO2 
 PCOD9302029
Probable space group: C 2/C
;
_chemical_formula_sum "Si O2"
_cell_formula_units_Z 44
_cell_length_a 17.407710
_cell_length_b 11.688646
_cell_length_c 11.111323
_cell_angle_alpha 90.000000
_cell_angle_beta 55.067830
_cell_angle_gamma 90.000000
_cell_volume 1853.513246
_symmetry_space_group_name_H-M "C 2/C"
_symmetry_group_IT_number 15
_symmetry_cell_setting 'monoclinic'
loop_
_space_group_symop_operation_xyz
x,y,z
-x,y,1/2-z
-x,-y,-z
x,-y,1/2+z
1/2+x,1/2+y,z
1/2-x,1/2+y,1/2-z
1/2-x,1/2-y,-z
1/2+x,1/2-y,1/2+z
loop_
_atom_site_type_symbol
_atom_site_label
_atom_site_fract_x
_atom_site_fract_y
_atom_site_fract_z
Si Si1 0.134456 0.973145 0.025272
Si Si2 0.010278 0.800490 0.998416
Si Si3 0.677925 0.690142 0.707653
Si Si4 0.843915 0.461749 0.802234
Si Si5 0.885979 0.414124 0.026486
Si Si6 0.500000 0.337520 0.750000
O O1 0.283673 0.852655 0.132078
O O2 0.081133 0.077489 0.134077
O O3 0.075200 0.907762 0.976241
O O4 0.238077 0.009655 0.895339
O O5 0.040131 0.689042 0.046046
O O6 0.027030 0.769609 0.844441
O O7 0.902738 0.831788 0.121607
O O8 0.643994 0.622694 0.620623
O O9 0.673886 0.825729 0.692551
O O10 0.895880 0.509644 0.637877
O O11 0.885088 0.480258 0.899473
#
# Coordination Sequence:
#
# PCOD9302029 Si02
#       6
#     8   8   8   8   8   4
#     4  11  21  41  67  97 130 168 216 274 337 388
#     4  12  24  43  65  98 137 172 215 280 329 393
#     4  11  22  43  69  97 127 175 223 268 331 398
#     4  11  24  42  68  99 131 184 220 264 335 399
#     4  11  25  44  70  98 137 175 225 271 329 398
#     4  12  26  36  70 104 128 166 224 282 340 382
#
# _framework density 23.738703999999998
#
# number of rings (size 3 to 8) (size 9 to 14) (size 15 to 20)
#    0.000    0.727    5.455    2.727    5.091    2.182 
#    0.000    2.727    0.000    0.000    0.000    0.000 
#    0.000    0.000    0.000    0.000    0.000    0.000 
#
# Total GULP energy -123159.675543 kJ/mol
# GULP energy per Si atom -5598.167070 kJ/mol
# Density = 2.368467 g / cm^3
# Si number density = 23.738704 Si / 1000 Ang^3
#
#
#
# Elastic Constant Matrix: (Units=GPa)
#
#
# Indices 1 2 3 4 5 6 
#
# 1 87.0508 11.8177 40.3024 0.0000 -4.5252 0.0000
# 2 11.8177 51.6201 13.7898 0.0000 12.1183 0.0000
# 3 40.3024 13.7898 143.3807 0.0000 6.4377 0.0000
# 4 0.0000 0.0000 0.0000 37.1627 0.0000 4.3261
# 5 -4.5252 12.1183 6.4377 0.0000 37.3357 0.0000
# 6 0.0000 0.0000 0.0000 4.3261 0.0000 21.0179
#
#
#
# Elastic Compliance Matrix: (Units=1/GPa)
#
#
# Indices 1 2 3 4 5 6 
#
# 1 0.013786 -0.002923 -0.003740 0.000000 0.003265 0.000000
# 2 -0.002923 0.022022 -0.000967 0.000000 -0.007335 0.000000
# 3 -0.003740 -0.000967 0.008188 0.000000 -0.001551 0.000000
# 4 0.000000 0.000000 0.000000 0.027569 0.000000 -0.005675
# 5 0.003265 -0.007335 -0.001551 0.000000 0.029828 0.000000
# 6 0.000000 0.000000 0.000000 -0.005675 0.000000 0.048746
#
#
# Mechanical properties :
#
#
# Convention : Reuss Voigt Hill
#
# Bulk Modulus (GPa) = 34.80087 45.98572 40.39330
# Shear Modulus (GPa) = 28.57477 33.51272 31.04375
#
# Velocity S-wave (km/s) = 3.47323 3.76138 3.62017
# Velocity P-wave (km/s) = 5.54763 6.18689 5.87596
#
# Compressibility (1/GPa) = 0.02873492
#
# Stress axis : x y z
#
# Youngs Moduli (GPa) = 72.53823 45.40940 122.12276
#
# Poissons Ratio (x) = 0.13274 0.45679
# Poissons Ratio (y) = 0.21205 0.11809
# Poissons Ratio (z) = 0.27133 0.04391
#
# Static dielectric constant tensor:
#      x y z
#    x 1.944280 0.000000 -0.004220 
#    y 0.000000 1.871100 0.000000 
#    z -0.004220 0.000000 1.928010 
# 
# From -- ./inp_files/47023.got.cif
#   From: 2010.05.17/outbox.cif.g08.bks.cpg/sg15_24_cif.got.tgz:47023.got - 2010.06.03 18:47:42.
