data_PCOD9302006
_publ_section_title
;
Structure prediction by ZEFSAII (Michael W. Deem and Ramdas Pophale) SiO2 
 PCOD9302006
Probable space group: C 2/C
;
_chemical_formula_sum "Si O2"
_cell_formula_units_Z 48
_cell_length_a 35.675532
_cell_length_b 8.449543
_cell_length_c 19.790916
_cell_angle_alpha 90.000000
_cell_angle_beta 25.352784
_cell_angle_gamma 90.000000
_cell_volume 2554.504516
_symmetry_space_group_name_H-M "C 2/C"
_symmetry_group_IT_number 15
_symmetry_cell_setting 'monoclinic'
loop_
_space_group_symop_operation_xyz
x,y,z
-x,y,1/2-z
-x,-y,-z
x,-y,1/2+z
1/2+x,1/2+y,z
1/2-x,1/2+y,1/2-z
1/2-x,1/2-y,-z
1/2+x,1/2-y,1/2+z
loop_
_atom_site_type_symbol
_atom_site_label
_atom_site_fract_x
_atom_site_fract_y
_atom_site_fract_z
Si Si1 0.918098 0.394286 0.833485
Si Si2 0.022399 0.402480 0.395335
Si Si3 0.208969 0.686030 0.634692
Si Si4 0.846137 0.221622 0.649797
Si Si5 0.728828 0.327225 0.962703
Si Si6 0.261649 0.920042 0.666686
O O1 0.949318 0.485137 0.714226
O O2 0.000000 0.375915 0.750000
O O3 0.869045 0.229806 0.896044
O O4 0.841963 0.492149 0.996981
O O5 0.107347 0.312465 0.282517
O O6 0.000000 0.500000 0.500000
O O7 0.945182 0.283998 0.497483
O O8 0.250000 0.750000 0.500000
O O9 0.250214 0.511952 0.575466
O O10 0.226614 0.791300 0.671129
O O11 0.797851 0.252768 0.798776
O O12 0.801372 0.332053 0.666505
O O13 0.815934 0.040869 0.685043
O O14 0.750000 0.250000 0.000000
#
# Coordination Sequence:
#
# PCOD9302006 Si02
#       6
#     8   8   8   8   8   8
#     4  11  22  42  68  97 133 176 218 272 342 399
#     4  12  23  40  68  98 131 170 224 274 328 396
#     4  12  23  41  66  96 130 175 218 273 336 395
#     4  11  23  41  65  97 128 174 220 273 328 397
#     4  11  21  41  65  93 130 173 218 265 332 397
#     4  11  24  41  67  95 137 174 218 274 343 396
#
# _framework density 18.790337000000001
#
# number of rings (size 3 to 8) (size 9 to 14) (size 15 to 20)
#    0.000    0.667    6.667    2.000    0.000    0.667 
#    0.000    5.833    0.000    0.000    0.000    0.000 
#    0.000    0.000    0.000    0.000    0.000    0.000 
#
# Total GULP energy -133885.899278 kJ/mol
# GULP energy per Si atom -5578.579137 kJ/mol
# Density = 1.874757 g / cm^3
# Si number density = 18.790337 Si / 1000 Ang^3
#
#
#
# Elastic Constant Matrix: (Units=GPa)
#
#
# Indices 1 2 3 4 5 6 
#
# 1 137.5866 54.6157 56.7876 0.0000 -29.5715 0.0000
# 2 54.6157 113.3231 40.2562 -0.0003 -31.5686 0.0000
# 3 56.7876 40.2562 113.1595 -0.0001 -28.4296 0.0000
# 4 0.0000 -0.0003 -0.0001 33.9226 0.0000 1.4419
# 5 -29.5715 -31.5686 -28.4296 0.0000 49.5981 0.0000
# 6 0.0000 0.0000 0.0000 1.4419 0.0000 37.2261
#
#
#
# Elastic Compliance Matrix: (Units=1/GPa)
#
#
# Indices 1 2 3 4 5 6 
#
# 1 0.010471 -0.003169 -0.003582 0.000000 0.002173 0.000000
# 2 -0.003169 0.012302 -0.001511 0.000000 0.005074 0.000000
# 3 -0.003582 -0.001511 0.012143 0.000000 0.003863 0.000000
# 4 0.000000 0.000000 0.000000 0.029527 0.000000 -0.001144
# 5 0.002173 0.005074 0.003863 0.000000 0.026902 0.000000
# 6 0.000000 0.000000 0.000000 -0.001144 0.000000 0.026907
#
#
# Mechanical properties :
#
#
# Convention : Reuss Voigt Hill
#
# Bulk Modulus (GPa) = 54.37015 74.15426 64.26220
# Shear Modulus (GPa) = 35.48441 38.31000 36.89720
#
# Velocity S-wave (km/s) = 4.35033 4.52022 4.43609
# Velocity P-wave (km/s) = 7.36423 8.17269 7.77897
#
# Compressibility (1/GPa) = 0.01839245
#
# Stress axis : x y z
#
# Youngs Moduli (GPa) = 95.49746 81.28735 82.35505
#
# Poissons Ratio (x) = 0.25760 0.29496
# Poissons Ratio (y) = 0.30263 0.12446
# Poissons Ratio (z) = 0.34203 0.12285
#
# Static dielectric constant tensor:
#      x y z
#    x 1.638690 0.000000 -0.004730 
#    y 0.000000 1.662120 0.000000 
#    z -0.004730 0.000000 1.624290 
# 
# From -- ./inp_files/224519.got.cif
#   From: 2010.05.17/outbox.cif.g08.bks.cpg/sg15_113_cif.got.tgz:224519.got - 2010.06.03 18:47:42.
