data_PCOD9302689
_publ_section_title
;
Structure prediction by ZEFSAII (Michael W. Deem and Ramdas Pophale) SiO2 
 PCOD9302689
Probable space group: C 2/C
;
_chemical_formula_sum "Si O2"
_cell_formula_units_Z 48
_cell_length_a 25.476359
_cell_length_b 8.709045
_cell_length_c 10.176748
_cell_angle_alpha 90.000000
_cell_angle_beta 70.354208
_cell_angle_gamma 90.000000
_cell_volume 2126.525294
_symmetry_space_group_name_H-M "C 2/C"
_symmetry_group_IT_number 15
_symmetry_cell_setting 'monoclinic'
loop_
_space_group_symop_operation_xyz
x,y,z
-x,y,1/2-z
-x,-y,-z
x,-y,1/2+z
1/2+x,1/2+y,z
1/2-x,1/2+y,1/2-z
1/2-x,1/2-y,-z
1/2+x,1/2-y,1/2+z
loop_
_atom_site_type_symbol
_atom_site_label
_atom_site_fract_x
_atom_site_fract_y
_atom_site_fract_z
Si Si1 0.659827 0.891035 0.799207
Si Si2 0.544848 0.143013 0.318342
Si Si3 0.015021 0.280762 0.380552
Si Si4 0.633016 0.777745 0.334733
Si Si5 0.275038 0.381720 0.570427
Si Si6 0.186967 0.800887 0.526236
O O1 0.611076 0.842092 0.738538
O O2 0.719153 0.940009 0.689552
O O3 0.670469 0.759353 0.896459
O O4 0.636499 0.047453 0.883576
O O5 0.500000 0.201509 0.250000
O O6 0.532794 0.218611 0.470247
O O7 0.531118 0.960876 0.343374
O O8 0.070942 0.212886 0.398012
O O9 0.000000 0.216585 0.250000
O O10 0.681736 0.685723 0.362679
O O11 0.646662 0.772810 0.167846
O O12 0.250000 0.250000 0.500000
O O13 0.308044 0.515847 0.468985
O O14 0.250000 0.750000 0.500000
#
# Coordination Sequence:
#
# PCOD9302689 Si02
#       6
#     8   8   8   8   8   8
#     4  11  22  39  65  93 128 163 208 266 323 376
#     4   9  19  33  58  93 124 157 209 264 315 372
#     4   9  18  36  59  89 123 162 207 261 318 371
#     4  11  24  40  65  94 129 167 208 268 321 379
#     4  12  26  39  61  93 129 170 214 256 320 383
#     4  12  23  41  62  92 129 169 215 256 319 392
#
# _framework density 22.572032
#
# number of rings (size 3 to 8) (size 9 to 14) (size 15 to 20)
#    0.000    1.333    3.333    2.000    4.667    2.667 
#    0.000    0.000    0.000    5.000    0.000    0.000 
#    0.000    0.000    0.000    0.000    0.000    0.000 
#
# Total GULP energy -134037.407149 kJ/mol
# GULP energy per Si atom -5584.891965 kJ/mol
# Density = 2.252066 g / cm^3
# Si number density = 22.572032 Si / 1000 Ang^3
#
#
#
# Elastic Constant Matrix: (Units=GPa)
#
#
# Indices 1 2 3 4 5 6 
#
# 1 155.3908 6.9899 16.2746 0.0000 11.8246 0.0000
# 2 6.9899 54.0687 6.4509 0.0000 10.0928 0.0000
# 3 16.2746 6.4509 44.5027 0.0000 10.0043 0.0000
# 4 0.0000 0.0000 0.0000 21.5943 0.0000 3.8717
# 5 11.8246 10.0928 10.0043 0.0000 33.8996 0.0000
# 6 0.0000 0.0000 0.0000 3.8717 0.0000 14.2496
#
#
#
# Elastic Compliance Matrix: (Units=1/GPa)
#
#
# Indices 1 2 3 4 5 6 
#
# 1 0.006793 -0.000321 -0.002063 0.000000 -0.001665 0.000000
# 2 -0.000321 0.019710 -0.001548 0.000000 -0.005299 0.000000
# 3 -0.002063 -0.001548 0.024831 0.000000 -0.006147 0.000000
# 4 0.000000 0.000000 0.000000 0.048680 0.000000 -0.013227
# 5 -0.001665 -0.005299 -0.006147 0.000000 0.033472 0.000000
# 6 0.000000 0.000000 0.000000 -0.013227 0.000000 0.073771
#
#
# Mechanical properties :
#
#
# Convention : Reuss Voigt Hill
#
# Bulk Modulus (GPa) = 23.00497 34.82145 28.91321
# Shear Modulus (GPa) = 21.77584 28.89849 25.33716
#
# Velocity S-wave (km/s) = 3.10937 3.58198 3.35401
# Velocity P-wave (km/s) = 4.80675 5.70682 5.27601
#
# Compressibility (1/GPa) = 0.04346886
#
# Stress axis : x y z
#
# Youngs Moduli (GPa) = 147.21884 50.73450 40.27148
#
# Poissons Ratio (x) = 0.01630 0.08309
# Poissons Ratio (y) = 0.04729 0.06236
# Poissons Ratio (z) = 0.30375 0.07856
#
# Static dielectric constant tensor:
#      x y z
#    x 1.883150 0.000000 -0.038000 
#    y 0.000000 1.906650 0.000000 
#    z -0.038000 0.000000 1.898300 
# 
# From -- ./inp_files/116286.got.cif
#   From: 2010.05.17/outbox.cif.g08.bks.cpg/sg15_59_cif.got.tgz:116286.got - 2010.06.03 18:47:42.
