data_PCOD9302762
_publ_section_title
;
Structure prediction by ZEFSAII (Michael W. Deem and Ramdas Pophale) SiO2 
 PCOD9302762
Probable space group: C 2/C
;
_chemical_formula_sum "Si O2"
_cell_formula_units_Z 56
_cell_length_a 10.003279
_cell_length_b 16.467913
_cell_length_c 28.940304
_cell_angle_alpha 90.000000
_cell_angle_beta 145.346357
_cell_angle_gamma 90.000000
_cell_volume 2710.826368
_symmetry_space_group_name_H-M "C 2/C"
_symmetry_group_IT_number 15
_symmetry_cell_setting 'monoclinic'
loop_
_space_group_symop_operation_xyz
x,y,z
-x,y,1/2-z
-x,-y,-z
x,-y,1/2+z
1/2+x,1/2+y,z
1/2-x,1/2+y,1/2-z
1/2-x,1/2-y,-z
1/2+x,1/2-y,1/2+z
loop_
_atom_site_type_symbol
_atom_site_label
_atom_site_fract_x
_atom_site_fract_y
_atom_site_fract_z
Si Si1 0.448555 0.020377 0.914362
Si Si2 0.650320 0.313519 0.188171
Si Si3 0.072274 0.577067 0.848476
Si Si4 0.500000 0.447040 0.750000
Si Si5 0.000000 0.450666 0.750000
Si Si6 0.632941 0.871991 0.025245
Si Si7 0.220608 0.239838 0.604776
Si Si8 0.194353 0.838215 0.725737
O O1 0.530604 0.039734 0.886475
O O2 0.472978 0.094742 0.956710
O O3 0.172244 0.998824 0.831016
O O4 0.576271 0.942564 0.972431
O O5 0.841404 0.374532 0.264023
O O6 0.407491 0.357514 0.109637
O O7 0.737299 0.274541 0.164598
O O8 0.627718 0.236244 0.215288
O O9 0.111583 0.508485 0.821203
O O10 0.264834 0.647770 0.908704
O O11 0.659709 0.392757 0.761738
O O12 0.202206 0.395586 0.784287
O O13 0.508841 0.789746 0.973591
O O14 0.440921 0.293519 0.648979
#
# Coordination Sequence:
#
# PCOD9302762 Si02
#       8
#     8   8   8   4   4   8   8   8
#     4  11  24  40  67 104 134 178 233 288 339 405
#     4  11  22  42  71 101 135 183 232 286 340 417
#     4  11  23  43  69  98 138 179 234 282 349 406
#     4  12  18  39  71  92 128 178 226 284 328 407
#     4  12  24  39  69 110 130 166 238 302 338 391
#     4  11  25  42  68 101 139 181 236 282 343 415
#     4  11  22  44  67  96 137 187 222 279 353 418
#     4  11  22  39  71  99 129 178 235 282 337 407
#
# _framework density 20.657907000000002
#
# number of rings (size 3 to 8) (size 9 to 14) (size 15 to 20)
#    0.000    0.857    5.714    2.143    0.000    2.857 
#    0.000    2.143    0.000    0.000    0.000    0.000 
#    0.000    0.000    0.000    0.000    0.000    0.000 
#
# Total GULP energy -156459.688242 kJ/mol
# GULP energy per Si atom -5587.846009 kJ/mol
# Density = 2.061089 g / cm^3
# Si number density = 20.657907 Si / 1000 Ang^3
#
#
#
# Elastic Constant Matrix: (Units=GPa)
#
#
# Indices 1 2 3 4 5 6 
#
# 1 118.6643 66.5126 26.4265 -0.0001 -25.9685 0.0000
# 2 66.5126 107.7821 34.7516 -0.0002 -13.5872 0.0000
# 3 26.4265 34.7516 71.0866 -0.0007 -12.3512 -0.0001
# 4 -0.0001 -0.0002 -0.0007 5.0161 -0.0001 -1.7322
# 5 -25.9685 -13.5872 -12.3512 -0.0001 27.1452 0.0000
# 6 0.0000 0.0000 -0.0001 -1.7322 0.0000 21.8305
#
#
#
# Elastic Compliance Matrix: (Units=1/GPa)
#
#
# Indices 1 2 3 4 5 6 
#
# 1 0.015277 -0.008136 0.000141 0.000000 0.010607 0.000000
# 2 -0.008136 0.015631 -0.005005 0.000000 -0.002237 0.000000
# 3 0.000141 -0.005005 0.017428 0.000002 0.005559 0.000000
# 4 0.000000 0.000000 0.000002 0.204976 0.000002 0.016264
# 5 0.010607 -0.002237 0.005559 0.000002 0.048396 0.000000
# 6 0.000000 0.000000 0.000000 0.016264 0.000000 0.047098
#
#
# Mechanical properties :
#
#
# Convention : Reuss Voigt Hill
#
# Bulk Modulus (GPa) = 44.77307 61.43492 53.10399
# Shear Modulus (GPa) = 13.08042 22.12118 17.60080
#
# Velocity S-wave (km/s) = 2.51906 3.27591 2.92209
# Velocity P-wave (km/s) = 5.49377 6.64173 6.09484
#
# Compressibility (1/GPa) = 0.02233486
#
# Stress axis : x y z
#
# Youngs Moduli (GPa) = 65.45703 63.97745 57.37979
#
# Poissons Ratio (x) = 0.52052 -0.00809
# Poissons Ratio (y) = 0.53255 0.28720
# Poissons Ratio (z) = -0.00923 0.32023
#
# Static dielectric constant tensor:
#      x y z
#    x 1.751460 0.000000 0.007600 
#    y 0.000000 1.767180 0.000000 
#    z 0.007600 0.000000 1.728850 
# 
# From -- ./inp_files/289792.got.cif
#   From: 2010.05.17/outbox.cif.g08.bks.cpg/sg15_145_cif.got.tgz:289792.got - 2010.06.03 18:47:42.
