data_PCOD9302853
_publ_section_title
;
Structure prediction by ZEFSAII (Michael W. Deem and Ramdas Pophale) SiO2 
 PCOD9302853
Probable space group: C 2/C
;
_chemical_formula_sum "Si O2"
_cell_formula_units_Z 48
_cell_length_a 8.063825
_cell_length_b 25.323210
_cell_length_c 18.851362
_cell_angle_alpha 90.000000
_cell_angle_beta 148.239827
_cell_angle_gamma 90.000000
_cell_volume 2026.233554
_symmetry_space_group_name_H-M "C 2/C"
_symmetry_group_IT_number 15
_symmetry_cell_setting 'monoclinic'
loop_
_space_group_symop_operation_xyz
x,y,z
-x,y,1/2-z
-x,-y,-z
x,-y,1/2+z
1/2+x,1/2+y,z
1/2-x,1/2+y,1/2-z
1/2-x,1/2-y,-z
1/2+x,1/2-y,1/2+z
loop_
_atom_site_type_symbol
_atom_site_label
_atom_site_fract_x
_atom_site_fract_y
_atom_site_fract_z
Si Si1 0.223284 0.639090 0.984602
Si Si2 0.147289 0.334465 0.723720
Si Si3 0.019571 0.873320 0.436266
Si Si4 0.015194 0.469446 0.432357
Si Si5 0.780081 0.785944 0.238809
Si Si6 0.177144 0.990785 0.173663
O O1 0.358461 0.628862 0.955009
O O2 0.977049 0.593709 0.918179
O O3 0.054473 0.695132 0.913451
O O4 0.510282 0.640057 0.144078
O O5 0.195927 0.273097 0.722190
O O6 0.000000 0.335218 0.750000
O O7 0.891894 0.363356 0.582175
O O8 0.883500 0.827934 0.335944
O O9 0.930097 0.930415 0.374638
O O10 0.380357 0.475606 0.540609
O O11 0.000000 0.500000 0.500000
O O12 0.776474 0.496099 0.291228
O O13 0.000000 0.788285 0.250000
O O14 0.500000 0.002097 0.250000
#
# Coordination Sequence:
#
# PCOD9302853 Si02
#       6
#     8   8   8   8   8   8
#     4  11  23  44  68  98 138 186 233 288 350 423
#     4   9  22  40  68 104 139 179 231 293 340 423
#     4  11  22  43  72  97 135 183 240 281 351 415
#     4  12  28  45  70 102 143 182 236 300 363 418
#     4  11  22  40  67 103 142 183 229 285 360 409
#     4  12  25  46  71 103 132 187 240 288 353 429
#
# _framework density 23.689271999999999
#
# number of rings (size 3 to 8) (size 9 to 14) (size 15 to 20)
#    0.000    1.000    3.333    2.500    4.667    0.667 
#    0.000    2.500    0.000    0.000    0.000    0.000 
#    0.000    0.000    0.000    0.000    0.000    0.000 
#
# Total GULP energy -134395.511252 kJ/mol
# GULP energy per Si atom -5599.812969 kJ/mol
# Density = 2.363535 g / cm^3
# Si number density = 23.689272 Si / 1000 Ang^3
#
#
#
# Elastic Constant Matrix: (Units=GPa)
#
#
# Indices 1 2 3 4 5 6 
#
# 1 55.8588 21.7916 12.8736 0.0003 -10.2999 -0.0005
# 2 21.7916 48.5322 -11.5635 0.0005 -0.3128 -0.0002
# 3 12.8736 -11.5635 107.6328 -0.0009 7.2175 -0.0027
# 4 0.0003 0.0005 -0.0009 42.8190 0.0002 2.6927
# 5 -10.2999 -0.3128 7.2175 0.0002 28.2121 -0.0005
# 6 -0.0005 -0.0002 -0.0027 2.6927 -0.0005 22.3190
#
#
#
# Elastic Compliance Matrix: (Units=1/GPa)
#
#
# Indices 1 2 3 4 5 6 
#
# 1 0.026121 -0.012906 -0.005230 0.000000 0.010732 0.000000
# 2 -0.012906 0.027526 0.004880 0.000000 -0.005655 0.000000
# 3 -0.005230 0.004880 0.010750 0.000000 -0.004606 0.000001
# 4 0.000000 0.000000 0.000000 0.023533 0.000000 -0.002839
# 5 0.010732 -0.005655 -0.004606 0.000000 0.040479 0.000001
# 6 0.000000 0.000000 0.000001 -0.002839 0.000001 0.045147
#
#
# Mechanical properties :
#
#
# Convention : Reuss Voigt Hill
#
# Bulk Modulus (GPa) = 26.39601 28.69190 27.54395
# Shear Modulus (GPa) = 23.50761 31.26484 27.38623
#
# Velocity S-wave (km/s) = 3.15355 3.63683 3.40378
# Velocity P-wave (km/s) = 4.94233 5.45651 5.20577
#
# Compressibility (1/GPa) = 0.03788452
#
# Stress axis : x y z
#
# Youngs Moduli (GPa) = 38.28277 36.32919 93.02699
#
# Poissons Ratio (x) = 0.46886 0.48657
# Poissons Ratio (y) = 0.49407 -0.45398
# Poissons Ratio (z) = 0.20024 -0.17729
#
# Static dielectric constant tensor:
#      x y z
#    x 1.926040 0.000000 0.041720 
#    y 0.000000 1.898610 0.000000 
#    z 0.041720 0.000000 1.890210 
# 
# From -- ./inp_files/234806.got.cif
#   From: 2010.05.17/outbox.cif.g08.bks.cpg/sg15_118_cif.got.tgz:234806.got - 2010.06.03 18:47:42.
