data_PCOD9302426
_publ_section_title
;
Structure prediction by ZEFSAII (Michael W. Deem and Ramdas Pophale) SiO2 
 PCOD9302426
Probable space group: C 2/C
;
_chemical_formula_sum "Si O2"
_cell_formula_units_Z 64
_cell_length_a 22.280570
_cell_length_b 16.756579
_cell_length_c 10.277666
_cell_angle_alpha 90.000000
_cell_angle_beta 54.409984
_cell_angle_gamma 90.000000
_cell_volume 3120.359934
_symmetry_space_group_name_H-M "C 2/C"
_symmetry_group_IT_number 15
_symmetry_cell_setting 'monoclinic'
loop_
_space_group_symop_operation_xyz
x,y,z
-x,y,1/2-z
-x,-y,-z
x,-y,1/2+z
1/2+x,1/2+y,z
1/2-x,1/2+y,1/2-z
1/2-x,1/2-y,-z
1/2+x,1/2-y,1/2+z
loop_
_atom_site_type_symbol
_atom_site_label
_atom_site_fract_x
_atom_site_fract_y
_atom_site_fract_z
Si Si1 0.838761 0.906849 0.306968
Si Si2 0.283660 0.164570 0.161137
Si Si3 0.069811 0.238331 0.737306
Si Si4 0.189539 0.017926 0.391201
Si Si5 0.057842 0.474836 0.277062
Si Si6 0.301814 0.812393 0.105584
Si Si7 0.800129 0.606960 0.873961
Si Si8 0.555246 0.126849 0.450276
O O1 0.891158 0.830206 0.227590
O O2 0.852014 0.939597 0.436297
O O3 0.754123 0.873184 0.398090
O O4 0.849275 0.973177 0.181255
O O5 0.243678 0.084597 0.262859
O O6 0.247199 0.238256 0.282229
O O7 0.370575 0.160093 0.080036
O O8 0.273575 0.166607 0.018620
O O9 0.133367 0.278445 0.566762
O O10 0.036659 0.309882 0.864034
O O11 0.000000 0.203067 0.750000
O O12 0.235300 0.949337 0.406678
O O13 0.138018 0.447249 0.133257
O O14 0.072205 0.539523 0.369658
O O15 0.000000 0.513487 0.250000
O O16 0.014390 0.395088 0.374263
O O17 0.330050 0.854316 0.202646
#
# Coordination Sequence:
#
# PCOD9302426 Si02
#       8
#     8   8   8   8   8   8   8   8
#     4  11  23  42  67  96 123 165 209 270 318 377
#     4  12  20  38  63  90 125 162 215 263 313 367
#     4  12  24  42  65  91 124 165 211 262 316 382
#     4  11  22  38  64  92 124 158 217 264 320 368
#     4  11  22  36  54  86 131 173 199 243 309 380
#     4  11  24  40  66  92 127 163 215 262 314 375
#     4  11  23  36  58  93 126 166 207 263 314 371
#     4  11  23  36  58  90 125 168 211 245 304 381
#
# _framework density 20.510455
#
# number of rings (size 3 to 8) (size 9 to 14) (size 15 to 20)
#    0.000    0.750    6.250    2.625    0.000    1.000 
#    0.000    0.625    0.000    0.000    0.000    0.000 
#    0.000    0.000    0.000    0.000    0.000    0.000 
#
# Total GULP energy -178611.929052 kJ/mol
# GULP energy per Si atom -5581.622783 kJ/mol
# Density = 2.046377 g / cm^3
# Si number density = 20.510455 Si / 1000 Ang^3
#
#
#
# Elastic Constant Matrix: (Units=GPa)
#
#
# Indices 1 2 3 4 5 6 
#
# 1 64.3415 16.2258 4.9908 0.0000 4.8008 0.0000
# 2 16.2258 63.7134 11.5085 0.0000 6.1500 0.0000
# 3 4.9908 11.5085 35.6429 0.0000 15.9469 0.0000
# 4 0.0000 0.0000 0.0000 30.7308 0.0000 12.0542
# 5 4.8008 6.1500 15.9469 0.0000 26.1206 0.0000
# 6 0.0000 0.0000 0.0000 12.0542 0.0000 23.7727
#
#
#
# Elastic Compliance Matrix: (Units=1/GPa)
#
#
# Indices 1 2 3 4 5 6 
#
# 1 0.016723 -0.004039 -0.000121 0.000000 -0.002049 0.000000
# 2 -0.004039 0.017658 -0.004964 0.000000 -0.000385 0.000000
# 3 -0.000121 -0.004964 0.040095 0.000000 -0.023287 0.000000
# 4 0.000000 0.000000 0.000000 0.040620 0.000000 -0.020597
# 5 -0.002049 -0.000385 -0.023287 0.000000 0.052968 0.000000
# 6 0.000000 0.000000 0.000000 -0.020597 0.000000 0.052509
#
#
# Mechanical properties :
#
#
# Convention : Reuss Voigt Hill
#
# Bulk Modulus (GPa) = 17.78475 25.46089 21.62282
# Shear Modulus (GPa) = 19.41283 24.85634 22.13459
#
# Velocity S-wave (km/s) = 3.07984 3.48499 3.28866
# Velocity P-wave (km/s) = 4.61921 5.35109 4.99856
#
# Compressibility (1/GPa) = 0.05622794
#
# Stress axis : x y z
#
# Youngs Moduli (GPa) = 59.79816 56.63265 24.94105
#
# Poissons Ratio (x) = 0.22875 0.00301
# Poissons Ratio (y) = 0.24154 0.12380
# Poissons Ratio (z) = 0.00722 0.28111
#
# Static dielectric constant tensor:
#      x y z
#    x 1.771960 0.000000 0.042020 
#    y 0.000000 1.743010 0.000000 
#    z 0.042020 0.000000 1.771770 
# 
# From -- ./inp_files/113655.got.cif
#   From: 2010.05.17/outbox.cif.g08.bks.cpg/sg15_57_cif.got.tgz:113655.got - 2010.06.03 18:47:42.
