data_PCOD9302338
_publ_section_title
;
Structure prediction by ZEFSAII (Michael W. Deem and Ramdas Pophale) SiO2 
 PCOD9302338
Probable space group: C 2/C
;
_chemical_formula_sum "Si O2"
_cell_formula_units_Z 48
_cell_length_a 16.846210
_cell_length_b 8.416316
_cell_length_c 28.957290
_cell_angle_alpha 90.000000
_cell_angle_beta 35.752447
_cell_angle_gamma 90.000000
_cell_volume 2398.868242
_symmetry_space_group_name_H-M "C 2/C"
_symmetry_group_IT_number 15
_symmetry_cell_setting 'monoclinic'
loop_
_space_group_symop_operation_xyz
x,y,z
-x,y,1/2-z
-x,-y,-z
x,-y,1/2+z
1/2+x,1/2+y,z
1/2-x,1/2+y,1/2-z
1/2-x,1/2-y,-z
1/2+x,1/2-y,1/2+z
loop_
_atom_site_type_symbol
_atom_site_label
_atom_site_fract_x
_atom_site_fract_y
_atom_site_fract_z
Si Si1 0.205977 0.427345 0.688422
Si Si2 0.510916 0.292179 0.910305
Si Si3 0.100801 0.978680 0.624508
Si Si4 0.764327 0.667920 0.905037
Si Si5 0.750000 0.250000 0.000000
Si Si6 0.973473 0.481191 0.873376
Si Si7 0.000000 0.188118 0.750000
O O1 0.347325 0.352786 0.637142
O O2 0.226485 0.587044 0.649114
O O3 0.129990 0.302271 0.690828
O O4 0.103978 0.456220 0.779102
O O5 0.476660 0.388853 0.879864
O O6 0.508451 0.107540 0.896675
O O7 0.388208 0.327640 0.003499
O O8 0.173915 0.843204 0.620499
O O9 0.211244 0.093317 0.549241
O O10 0.004871 0.079646 0.702831
O O11 0.855162 0.560998 0.897210
O O12 0.908703 0.316244 0.920227
#
# Coordination Sequence:
#
# PCOD9302338 Si02
#       7
#     8   8   8   8   4   8   4
#     4  12  25  42  68  98 144 174 225 290 350 404
#     4  11  25  43  69 100 132 178 233 287 338 411
#     4  11  24  41  71  96 129 179 228 273 339 419
#     4  11  21  46  67  99 129 187 225 280 347 424
#     4  12  18  42  70  96 130 174 228 272 334 418
#     4  11  22  41  70  97 133 183 229 272 347 413
#     4  12  26  42  62 102 136 178 218 276 352 412
#
# _framework density 20.009436999999998
#
# number of rings (size 3 to 8) (size 9 to 14) (size 15 to 20)
#    0.000    0.667    6.667    1.500    7.000    0.000 
#    0.000    2.500    0.000    0.000    0.000    0.000 
#    0.000    0.000    0.000    0.000    0.000    0.000 
#
# Total GULP energy -133649.456482 kJ/mol
# GULP energy per Si atom -5568.727353 kJ/mol
# Density = 1.996389 g / cm^3
# Si number density = 20.009437 Si / 1000 Ang^3
#
#
#
# Elastic Constant Matrix: (Units=GPa)
#
#
# Indices 1 2 3 4 5 6 
#
# 1 75.6453 42.4673 46.5553 -0.0008 -20.0663 -0.0030
# 2 42.4673 104.2007 57.3573 0.0002 0.7831 -0.0018
# 3 46.5553 57.3573 79.7530 0.0000 -24.2127 -0.0005
# 4 -0.0008 0.0002 0.0000 32.8183 0.0003 12.5229
# 5 -20.0663 0.7831 -24.2127 0.0003 31.1880 0.0000
# 6 -0.0030 -0.0018 -0.0005 12.5229 0.0000 32.9523
#
#
#
# Elastic Compliance Matrix: (Units=1/GPa)
#
#
# Indices 1 2 3 4 5 6 
#
# 1 0.023111 -0.006366 -0.005691 0.000000 0.010611 0.000002
# 2 -0.006366 0.022137 -0.017816 0.000000 -0.018483 0.000000
# 3 -0.005691 -0.017816 0.036239 0.000000 0.024920 -0.000001
# 4 0.000000 0.000000 0.000000 0.035639 0.000000 -0.013544
# 5 0.010611 -0.018483 0.024920 0.000000 0.058702 0.000000
# 6 0.000002 0.000000 -0.000001 -0.013544 0.000000 0.035494
#
#
# Mechanical properties :
#
#
# Convention : Reuss Voigt Hill
#
# Bulk Modulus (GPa) = 45.99503 61.37320 53.68412
# Shear Modulus (GPa) = 17.96528 26.93964 22.45246
#
# Velocity S-wave (km/s) = 2.99965 3.67324 3.35340
# Velocity P-wave (km/s) = 5.91893 6.98061 6.47158
#
# Compressibility (1/GPa) = 0.02174148
#
# Stress axis : x y z
#
# Youngs Moduli (GPa) = 43.27008 45.17313 27.59429
#
# Poissons Ratio (x) = 0.28757 0.15703
# Poissons Ratio (y) = 0.27546 0.49162
# Poissons Ratio (z) = 0.24624 0.80480
#
# Static dielectric constant tensor:
#      x y z
#    x 1.686140 0.000000 0.025510 
#    y 0.000000 1.732550 0.000000 
#    z 0.025510 0.000000 1.721790 
# 
# From -- ./inp_files/208984.got.cif
#   From: 2010.05.17/outbox.cif.g08.bks.cpg/sg15_105_cif.got.tgz:208984.got - 2010.06.03 18:47:42.
