data_PCOD9302106
_publ_section_title
;
Structure prediction by ZEFSAII (Michael W. Deem and Ramdas Pophale) SiO2 
 PCOD9302106
Probable space group: C 2/C
;
_chemical_formula_sum "Si O2"
_cell_formula_units_Z 64
_cell_length_a 16.378141
_cell_length_b 17.196726
_cell_length_c 18.698568
_cell_angle_alpha 90.000000
_cell_angle_beta 38.668383
_cell_angle_gamma 90.000000
_cell_volume 3290.546407
_symmetry_space_group_name_H-M "C 2/C"
_symmetry_group_IT_number 15
_symmetry_cell_setting 'monoclinic'
loop_
_space_group_symop_operation_xyz
x,y,z
-x,y,1/2-z
-x,-y,-z
x,-y,1/2+z
1/2+x,1/2+y,z
1/2-x,1/2+y,1/2-z
1/2-x,1/2-y,-z
1/2+x,1/2-y,1/2+z
loop_
_atom_site_type_symbol
_atom_site_label
_atom_site_fract_x
_atom_site_fract_y
_atom_site_fract_z
Si Si1 0.650824 0.223024 0.631063
Si Si2 0.175382 0.103456 0.308691
Si Si3 0.813352 0.532667 0.779831
Si Si4 0.696868 0.952319 0.059815
Si Si5 0.048773 0.117423 0.922142
Si Si6 0.958463 0.433707 0.471595
Si Si7 0.503904 0.493348 0.663714
Si Si8 0.836800 0.720913 0.129177
O O1 0.500000 0.250684 0.750000
O O2 0.750000 0.250000 0.500000
O O3 0.645118 0.132458 0.616811
O O4 0.737478 0.242604 0.640143
O O5 0.242071 0.185703 0.253727
O O6 0.070664 0.101378 0.443236
O O7 0.288256 0.043142 0.249988
O O8 0.101593 0.071530 0.288661
O O9 0.844441 0.504210 0.838833
O O10 0.677459 0.579173 0.869451
O O11 0.919933 0.582670 0.664784
O O12 0.644352 0.968575 0.016168
O O13 0.852821 0.959481 0.950070
O O14 0.072532 0.209947 0.903619
O O15 0.023745 0.069232 0.866477
O O16 0.908071 0.353885 0.543085
O O17 0.000000 0.500000 0.500000
O O18 0.500000 0.510771 0.750000
#
# Coordination Sequence:
#
# PCOD9302106 Si02
#       8
#     8   8   8   8   8   8   8   8
#     4  12  27  40  60 103 144 173 215 272 348 415
#     4  11  22  43  66  98 129 172 221 266 331 400
#     4  11  21  42  64  94 130 169 218 263 322 389
#     4  12  23  41  65  96 132 173 210 274 331 397
#     4  11  24  42  68  96 133 171 217 274 328 399
#     4  12  26  42  62  98 132 170 219 266 327 391
#     4  11  23  41  69  97 128 170 229 276 324 390
#     4  12  26  40  67  95 135 179 211 273 337 397
#
# _framework density 19.449656999999998
#
# number of rings (size 3 to 8) (size 9 to 14) (size 15 to 20)
#    0.000    0.500    6.250    2.625    7.000    0.000 
#    0.000    0.000    2.750    1.500    0.000    0.000 
#    0.000    0.000    0.000    0.000    0.000    0.000 
#
# Total GULP energy -178441.281717 kJ/mol
# GULP energy per Si atom -5576.290054 kJ/mol
# Density = 1.940539 g / cm^3
# Si number density = 19.449657 Si / 1000 Ang^3
#
#
#
# Elastic Constant Matrix: (Units=GPa)
#
#
# Indices 1 2 3 4 5 6 
#
# 1 100.5275 41.8792 26.1609 0.0000 6.1667 0.0000
# 2 41.8792 80.7687 23.7563 0.0000 2.5084 0.0000
# 3 26.1609 23.7563 108.9636 -0.0001 2.0125 0.0001
# 4 0.0000 0.0000 -0.0001 31.9285 0.0000 -2.3639
# 5 6.1667 2.5084 2.0125 0.0000 27.7083 -0.0001
# 6 0.0000 0.0000 0.0001 -2.3639 -0.0001 19.6373
#
#
#
# Elastic Compliance Matrix: (Units=1/GPa)
#
#
# Indices 1 2 3 4 5 6 
#
# 1 0.013134 -0.006225 -0.001755 0.000000 -0.002232 0.000000
# 2 -0.006225 0.016207 -0.002040 0.000000 0.000066 0.000000
# 3 -0.001755 -0.002040 0.010046 0.000000 -0.000154 0.000000
# 4 0.000000 0.000000 0.000000 0.031602 0.000000 0.003804
# 5 -0.002232 0.000066 -0.000154 0.000000 0.036592 0.000000
# 6 0.000000 0.000000 0.000000 0.003804 0.000000 0.051382
#
#
# Mechanical properties :
#
#
# Convention : Reuss Voigt Hill
#
# Bulk Modulus (GPa) = 51.68617 52.65029 52.16823
# Shear Modulus (GPa) = 26.96118 29.08570 28.02344
#
# Velocity S-wave (km/s) = 3.72721 3.87128 3.79993
# Velocity P-wave (km/s) = 6.71974 6.86376 6.79213
#
# Compressibility (1/GPa) = 0.01934754
#
# Stress axis : x y z
#
# Youngs Moduli (GPa) = 76.13604 61.70324 99.53833
#
# Poissons Ratio (x) = 0.38409 0.17470
# Poissons Ratio (y) = 0.47393 0.20307
# Poissons Ratio (z) = 0.13362 0.12588
#
# Static dielectric constant tensor:
#      x y z
#    x 1.685560 0.000000 -0.050860 
#    y 0.000000 1.688840 0.000000 
#    z -0.050860 0.000000 1.732030 
# 
# From -- ./inp_files/206446.got.cif
#   From: 2010.05.17/outbox.cif.g08.bks.cpg/sg15_104_cif.got.tgz:206446.got - 2010.06.03 18:47:42.
