data_PCOD9302431
_publ_section_title
;
Structure prediction by ZEFSAII (Michael W. Deem and Ramdas Pophale) SiO2 
 PCOD9302431
Probable space group: C 2/C
;
_chemical_formula_sum "Si O2"
_cell_formula_units_Z 56
_cell_length_a 19.490904
_cell_length_b 12.879118
_cell_length_c 21.248386
_cell_angle_alpha 90.000000
_cell_angle_beta 31.074749
_cell_angle_gamma 90.000000
_cell_volume 2753.118830
_symmetry_space_group_name_H-M "C 2/C"
_symmetry_group_IT_number 15
_symmetry_cell_setting 'monoclinic'
loop_
_space_group_symop_operation_xyz
x,y,z
-x,y,1/2-z
-x,-y,-z
x,-y,1/2+z
1/2+x,1/2+y,z
1/2-x,1/2+y,1/2-z
1/2-x,1/2-y,-z
1/2+x,1/2-y,1/2+z
loop_
_atom_site_type_symbol
_atom_site_label
_atom_site_fract_x
_atom_site_fract_y
_atom_site_fract_z
Si Si1 0.508468 0.651507 0.933535
Si Si2 0.560969 0.343758 0.766787
Si Si3 0.297450 0.928393 0.658932
Si Si4 0.240704 0.223012 0.303265
Si Si5 0.592339 0.901165 0.234432
Si Si6 0.438969 0.118731 0.603118
Si Si7 0.397335 0.572851 0.503103
O O1 0.367598 0.711939 0.055830
O O2 0.471987 0.537525 0.935854
O O3 0.618085 0.716611 0.807342
O O4 0.569285 0.620904 0.954603
O O5 0.500000 0.386080 0.750000
O O6 0.683494 0.409317 0.698207
O O7 0.600678 0.224457 0.723033
O O8 0.449239 0.350172 0.908448
O O9 0.257149 0.890197 0.759919
O O10 0.422747 0.859752 0.538988
O O11 0.355719 0.042453 0.622973
O O12 0.156043 0.283428 0.316537
O O13 0.500000 0.937999 0.250000
O O14 0.534190 0.926158 0.349182
O O15 0.741151 0.943231 0.117275
#
# Coordination Sequence:
#
# PCOD9302431 Si02
#       7
#     8   8   8   8   8   8   8
#     4  11  22  36  63  85 127 153 214 262 311 362
#     4  11  24  36  58  88 126 164 197 246 308 384
#     4  11  22  36  56  85 120 158 204 251 298 355
#     4  12  20  36  57  92 117 160 194 260 310 358
#     4  11  24  36  58  88 126 164 197 246 308 384
#     4  11  22  36  56  85 120 158 204 251 298 355
#     4  11  22  39  56  87 120 168 204 249 311 376
#
# _framework density 20.340567
#
# number of rings (size 3 to 8) (size 9 to 14) (size 15 to 20)
#    0.000    0.857    5.714    1.714    4.000    1.143 
#    0.000    0.000    0.000    0.000    0.000   24.000 
#    0.000    0.000    0.000    0.000    0.000    0.000 
#
# Total GULP energy -156260.252457 kJ/mol
# GULP energy per Si atom -5580.723302 kJ/mol
# Density = 2.029427 g / cm^3
# Si number density = 20.340567 Si / 1000 Ang^3
#
#
#
# Elastic Constant Matrix: (Units=GPa)
#
#
# Indices 1 2 3 4 5 6 
#
# 1 82.3052 18.2906 17.2999 0.0000 -13.8489 0.0000
# 2 18.2906 57.3350 18.5326 0.0000 -12.5964 0.0000
# 3 17.2999 18.5326 114.0613 0.0000 -18.9221 0.0000
# 4 0.0000 0.0000 0.0000 34.9894 0.0000 -3.4503
# 5 -13.8489 -12.5964 -18.9221 0.0000 19.9688 0.0000
# 6 0.0000 0.0000 0.0000 -3.4503 0.0000 20.3596
#
#
#
# Elastic Compliance Matrix: (Units=1/GPa)
#
#
# Indices 1 2 3 4 5 6 
#
# 1 0.014132 -0.002676 -0.000430 0.000000 0.007705 0.000000
# 2 -0.002676 0.020942 -0.001321 0.000000 0.010102 0.000000
# 3 -0.000430 -0.001321 0.010512 0.000000 0.008829 0.000000
# 4 0.000000 0.000000 0.000000 0.029066 0.000000 0.004926
# 5 0.007705 0.010102 0.008829 0.000000 0.070161 0.000000
# 6 0.000000 0.000000 0.000000 0.004926 0.000000 0.049952
#
#
# Mechanical properties :
#
#
# Convention : Reuss Voigt Hill
#
# Bulk Modulus (GPa) = 27.22571 40.21642 33.72107
# Shear Modulus (GPa) = 23.16303 28.36876 25.76590
#
# Velocity S-wave (km/s) = 3.37821 3.73860 3.56297
# Velocity P-wave (km/s) = 5.35074 6.20086 5.79142
#
# Compressibility (1/GPa) = 0.03672999
#
# Stress axis : x y z
#
# Youngs Moduli (GPa) = 70.76378 47.75200 95.13125
#
# Poissons Ratio (x) = 0.12780 0.04094
# Poissons Ratio (y) = 0.18939 0.12564
# Poissons Ratio (z) = 0.03045 0.06307
#
# Static dielectric constant tensor:
#      x y z
#    x 1.687140 0.000000 0.002760 
#    y 0.000000 1.807120 0.000000 
#    z 0.002760 0.000000 1.788620 
# 
# From -- ./inp_files/249212.got.cif
#   From: 2010.05.17/outbox.cif.g08.bks.cpg/sg15_125_cif.got.tgz:249212.got - 2010.06.03 18:47:42.
