data_PCOD9302110
_publ_section_title
;
Structure prediction by ZEFSAII (Michael W. Deem and Ramdas Pophale) SiO2 
 PCOD9302110
Probable space group: C 2/C
;
_chemical_formula_sum "Si O2"
_cell_formula_units_Z 36
_cell_length_a 21.153116
_cell_length_b 6.512540
_cell_length_c 14.487816
_cell_angle_alpha 90.000000
_cell_angle_beta 126.321118
_cell_angle_gamma 90.000000
_cell_volume 1608.075530
_symmetry_space_group_name_H-M "C 2/C"
_symmetry_group_IT_number 15
_symmetry_cell_setting 'monoclinic'
loop_
_space_group_symop_operation_xyz
x,y,z
-x,y,1/2-z
-x,-y,-z
x,-y,1/2+z
1/2+x,1/2+y,z
1/2-x,1/2+y,1/2-z
1/2-x,1/2-y,-z
1/2+x,1/2-y,1/2+z
loop_
_atom_site_type_symbol
_atom_site_label
_atom_site_fract_x
_atom_site_fract_y
_atom_site_fract_z
Si Si1 0.556799 0.153928 0.604410
Si Si2 0.500000 0.080614 0.750000
Si Si3 0.347211 0.544346 0.427293
Si Si4 0.677514 0.801714 0.729221
Si Si5 0.410995 0.676412 0.670852
O O1 0.580647 0.346700 0.563547
O O2 0.500000 0.000000 0.500000
O O3 0.520453 0.195373 0.673460
O O4 0.634531 0.019404 0.688946
O O5 0.428360 0.920083 0.666082
O O6 0.335764 0.317196 0.377743
O O7 0.267451 0.663757 0.332532
O O8 0.363693 0.568024 0.549258
O O9 0.634204 0.670640 0.771716
O O10 0.500000 0.596746 0.750000
#
# Coordination Sequence:
#
# PCOD9302110 Si02
#       5
#     8   4   8   8   8
#     4  11  21  42  65  89 125 167 209 256 307 373
#     4   8  18  38  60  88 120 158 206 250 310 346
#     4  12  22  42  66  91 130 163 209 260 313 380
#     4  11  24  40  63  97 124 167 207 257 323 363
#     4   9  20  40  64  88 125 166 202 259 312 365
#
# _framework density 22.387008000000002
#
# number of rings (size 3 to 8) (size 9 to 14) (size 15 to 20)
#    0.667    0.889    4.444    0.667    0.000    3.556 
#    6.000    1.111    0.000    0.000    0.000    0.000 
#    0.000    0.000    0.000    0.000    0.000    0.000 
#
# Total GULP energy -100602.039531 kJ/mol
# GULP energy per Si atom -5589.002196 kJ/mol
# Density = 2.233605 g / cm^3
# Si number density = 22.387008 Si / 1000 Ang^3
#
#
#
# Elastic Constant Matrix: (Units=GPa)
#
#
# Indices 1 2 3 4 5 6 
#
# 1 70.6237 2.6894 1.8200 0.0000 -0.0263 0.0000
# 2 2.6894 26.9567 -6.3195 0.0000 0.1277 0.0000
# 3 1.8200 -6.3195 63.7795 0.0000 2.2798 0.0000
# 4 0.0000 0.0000 0.0000 12.8212 0.0000 -1.9909
# 5 -0.0263 0.1277 2.2798 0.0000 40.2690 0.0000
# 6 0.0000 0.0000 0.0000 -1.9909 0.0000 31.1097
#
#
#
# Elastic Compliance Matrix: (Units=1/GPa)
#
#
# Indices 1 2 3 4 5 6 
#
# 1 0.014233 -0.001552 -0.000562 0.000000 0.000046 0.000000
# 2 -0.001552 0.038152 0.003837 0.000000 -0.000339 0.000000
# 3 -0.000562 0.003837 0.016108 0.000000 -0.000924 0.000000
# 4 0.000000 0.000000 0.000000 0.078779 0.000000 0.005041
# 5 0.000046 -0.000339 -0.000924 0.000000 0.024886 0.000000
# 6 0.000000 0.000000 0.000000 0.005041 0.000000 0.032467
#
#
# Mechanical properties :
#
#
# Convention : Reuss Voigt Hill
#
# Bulk Modulus (GPa) = 13.90039 17.52662 15.71350
# Shear Modulus (GPa) = 22.20646 27.71797 24.96221
#
# Velocity S-wave (km/s) = 3.15292 3.52252 3.34283
# Velocity P-wave (km/s) = 4.41329 4.93864 4.68333
#
# Compressibility (1/GPa) = 0.07194042
#
# Stress axis : x y z
#
# Youngs Moduli (GPa) = 70.25859 26.21064 62.07997
#
# Poissons Ratio (x) = 0.04067 0.03486
# Poissons Ratio (y) = 0.10903 -0.23818
# Poissons Ratio (z) = 0.03946 -0.10056
#
# Static dielectric constant tensor:
#      x y z
#    x 1.825150 0.000000 0.035750 
#    y 0.000000 1.868570 0.000000 
#    z 0.035750 0.000000 1.814850 
# 
# From -- ./inp_files/165905.got.cif
#   From: 2010.05.17/outbox.cif.g08.bks.cpg/sg15_83_cif.got.tgz:165905.got - 2010.06.03 18:47:42.
