data_PCOD9302475
_publ_section_title
;
Structure prediction by ZEFSAII (Michael W. Deem and Ramdas Pophale) SiO2 
 PCOD9302475
Probable space group: C 2/C
;
_chemical_formula_sum "Si O2"
_cell_formula_units_Z 32
_cell_length_a 27.946747
_cell_length_b 5.002947
_cell_length_c 19.524915
_cell_angle_alpha 90.000000
_cell_angle_beta 152.463376
_cell_angle_gamma 90.000000
_cell_volume 1262.073872
_symmetry_space_group_name_H-M "C 2/C"
_symmetry_group_IT_number 15
_symmetry_cell_setting 'monoclinic'
loop_
_space_group_symop_operation_xyz
x,y,z
-x,y,1/2-z
-x,-y,-z
x,-y,1/2+z
1/2+x,1/2+y,z
1/2-x,1/2+y,1/2-z
1/2-x,1/2-y,-z
1/2+x,1/2-y,1/2+z
loop_
_atom_site_type_symbol
_atom_site_label
_atom_site_fract_x
_atom_site_fract_y
_atom_site_fract_z
Si Si1 0.845074 0.008729 0.049480
Si Si2 0.049409 0.253768 0.600444
Si Si3 0.743035 0.574226 0.198046
Si Si4 0.113225 0.494907 0.817543
O O1 0.908357 0.217129 0.176680
O O2 0.876318 0.708558 0.106619
O O3 0.840483 0.038770 0.961886
O O4 0.725657 0.034222 0.924115
O O5 0.170431 0.261661 0.734240
O O6 0.045151 0.338243 0.674886
O O7 0.000000 0.500000 0.500000
O O8 0.000000 0.000000 0.500000
O O9 0.791665 0.309069 0.294554
#
# Coordination Sequence:
#
# PCOD9302475 Si02
#       4
#     8   8   8   8
#     4   9  17  31  53  80 108 143 192 240 276 327
#     4  11  22  37  59  87 119 154 195 246 299 354
#     4  11  22  37  59  87 119 154 195 246 302 357
#     4   9  17  31  53  80 108 143 192 240 276 326
#
# _framework density 25.355091999999999
#
# number of rings (size 3 to 8) (size 9 to 14) (size 15 to 20)
#    0.000    2.000    0.000    4.500    0.000    8.000 
#    0.000    0.000    0.000   22.500    0.000    0.000 
#    0.000    0.000    0.000    0.000    0.000    0.500 
#
# Total GULP energy -89326.438206 kJ/mol
# GULP energy per Si atom -5582.902388 kJ/mol
# Density = 2.529738 g / cm^3
# Si number density = 25.355092 Si / 1000 Ang^3
#
#
#
# Elastic Constant Matrix: (Units=GPa)
#
#
# Indices 1 2 3 4 5 6 
#
# 1 61.2802 18.5287 31.7367 0.0004 -9.1870 0.0001
# 2 18.5287 186.3527 47.3142 -0.0003 -35.1729 0.0021
# 3 31.7367 47.3142 121.5568 -0.0004 -39.4194 0.0007
# 4 0.0004 -0.0003 -0.0004 42.2797 -0.0001 13.1319
# 5 -9.1870 -35.1729 -39.4194 -0.0001 48.9288 0.0003
# 6 0.0001 0.0021 0.0007 13.1319 0.0003 -26.4963
#
#
#
# Elastic Compliance Matrix: (Units=1/GPa)
#
#
# Indices 1 2 3 4 5 6 
#
# 1 0.018987 -0.000820 -0.004972 0.000000 -0.001030 0.000000
# 2 -0.000820 0.006402 -0.001131 0.000000 0.003537 0.000000
# 3 -0.004972 -0.001131 0.012722 0.000000 0.008503 0.000000
# 4 0.000000 0.000000 0.000000 0.020497 0.000000 0.010158
# 5 -0.001030 0.003537 0.008503 0.000000 0.029638 0.000001
# 6 0.000000 0.000000 0.000000 0.010158 0.000001 -0.032706
#
#
# Mechanical properties :
#
#
# Convention : Reuss Voigt Hill
#
# Bulk Modulus (GPa) = 41.20965 62.70541 51.95753
# Shear Modulus (GPa) = 64.53705 31.04978 47.79342
#
# Velocity S-wave (km/s) = 5.05060 3.50322 4.34633
# Velocity P-wave (km/s) = 7.09223 6.41467 6.76194
#
# Compressibility (1/GPa) = 0.02426616
#
# Stress axis : x y z
#
# Youngs Moduli (GPa) = 52.66765 156.18939 78.60118
#
# Poissons Ratio (x) = 0.12805 0.39082
# Poissons Ratio (y) = 0.04318 0.08889
# Poissons Ratio (z) = 0.26187 0.17663
#
# Static dielectric constant tensor:
#      x y z
#    x 2.181690 0.000000 0.046610 
#    y 0.000000 1.886310 0.000000 
#    z 0.046610 0.000000 2.000010 
# 
# From -- ./inp_files/212458.got.cif
#   From: 2010.05.17/outbox.cif.g08.bks.cpg/sg15_107_cif.got.tgz:212458.got - 2010.06.03 18:47:42.
