data_PCOD9302879
_publ_section_title
;
Structure prediction by ZEFSAII (Michael W. Deem and Ramdas Pophale) SiO2 
 PCOD9302879
Probable space group: C 2/C
;
_chemical_formula_sum "Si O2"
_cell_formula_units_Z 60
_cell_length_a 17.555728
_cell_length_b 16.685340
_cell_length_c 18.441837
_cell_angle_alpha 90.000000
_cell_angle_beta 29.413850
_cell_angle_gamma 90.000000
_cell_volume 2653.021046
_symmetry_space_group_name_H-M "C 2/C"
_symmetry_group_IT_number 15
_symmetry_cell_setting 'monoclinic'
loop_
_space_group_symop_operation_xyz
x,y,z
-x,y,1/2-z
-x,-y,-z
x,-y,1/2+z
1/2+x,1/2+y,z
1/2-x,1/2+y,1/2-z
1/2-x,1/2-y,-z
1/2+x,1/2-y,1/2+z
loop_
_atom_site_type_symbol
_atom_site_label
_atom_site_fract_x
_atom_site_fract_y
_atom_site_fract_z
Si Si1 0.418432 0.777488 0.884163
Si Si2 0.500000 0.509396 0.250000
Si Si3 0.051142 0.338816 0.910886
Si Si4 0.504091 0.634587 0.366451
Si Si5 0.660501 0.090371 0.807968
Si Si6 0.735474 0.737516 0.863801
Si Si7 0.333142 0.427998 0.622783
Si Si8 0.071355 0.887270 0.301047
O O1 0.500000 0.823466 0.750000
O O2 0.422599 0.822258 0.957172
O O3 0.521553 0.698399 0.812836
O O4 0.250000 0.750000 0.000000
O O5 0.447229 0.569195 0.356579
O O6 0.607707 0.448092 0.205210
O O7 0.103328 0.262584 0.914587
O O8 0.203015 0.360645 0.739406
O O9 0.998425 0.405323 0.013701
O O10 0.367714 0.698935 0.488351
O O11 0.657007 0.684583 0.214889
O O12 0.553733 0.589874 0.401198
O O13 0.660494 0.164244 0.752136
O O14 0.787640 0.114617 0.761597
O O15 0.732102 0.009462 0.715063
O O16 0.428053 0.418711 0.470217
#
# Coordination Sequence:
#
# PCOD9302879 Si02
#       8
#     8   4   8   8   8   8   8   8
#     4  12  24  38  59  89 129 169 201 249 318 387
#     4  12  26  42  64  96 132 170 214 260 320 400
#     4  11  24  39  62  96 129 160 210 267 320 376
#     4  11  23  42  66  95 130 166 215 264 324 379
#     4  12  21  40  66  95 122 161 211 268 314 369
#     4  11  22  40  68  95 121 167 217 272 311 371
#     4  11  23  41  66  94 126 165 213 267 319 371
#     4  12  23  41  65  94 125 168 214 261 313 380
#
# _framework density 22.615728000000001
#
# number of rings (size 3 to 8) (size 9 to 14) (size 15 to 20)
#    0.000    0.533    6.000    3.200    1.867    0.533 
#    0.000    0.000    0.000    1.600    0.000    0.000 
#    0.000    0.000    0.000    0.000    0.000    0.000 
#
# Total GULP energy -167506.875914 kJ/mol
# GULP energy per Si atom -5583.562530 kJ/mol
# Density = 2.256425 g / cm^3
# Si number density = 22.615728 Si / 1000 Ang^3
#
#
#
# Elastic Constant Matrix: (Units=GPa)
#
#
# Indices 1 2 3 4 5 6 
#
# 1 33.7467 -0.1188 7.8115 0.0004 11.4739 -0.0011
# 2 -0.1188 77.8316 0.0897 -0.0034 21.1172 -0.0022
# 3 7.8115 0.0897 75.6210 -0.0014 6.3189 -0.0018
# 4 0.0004 -0.0034 -0.0014 34.8050 0.0015 19.9073
# 5 11.4739 21.1172 6.3189 0.0015 21.8128 0.0023
# 6 -0.0011 -0.0022 -0.0018 19.9073 0.0023 21.5565
#
#
#
# Elastic Compliance Matrix: (Units=1/GPa)
#
#
# Indices 1 2 3 4 5 6 
#
# 1 0.039424 0.007525 -0.001783 -0.000004 -0.027506 0.000009
# 2 0.007525 0.019012 0.001095 0.000000 -0.022682 0.000005
# 3 -0.001783 0.001095 0.013750 0.000000 -0.004106 0.000002
# 4 -0.000004 0.000000 0.000000 0.060898 0.000004 -0.056239
# 5 -0.027506 -0.022682 -0.004106 0.000004 0.083461 -0.000017
# 6 0.000009 0.000005 0.000002 -0.056239 -0.000017 0.098326
#
#
# Mechanical properties :
#
#
# Convention : Reuss Voigt Hill
#
# Bulk Modulus (GPa) = 11.64666 22.52936 17.08801
# Shear Modulus (GPa) = 15.15989 27.59597 21.37793
#
# Velocity S-wave (km/s) = 2.59187 3.49694 3.07786
# Velocity P-wave (km/s) = 3.75740 5.12721 4.49479
#
# Compressibility (1/GPa) = 0.08586155
#
# Stress axis : x y z
#
# Youngs Moduli (GPa) = 25.36533 52.59700 72.72840
#
# Poissons Ratio (x) = -0.39580 0.12967
# Poissons Ratio (y) = -0.19088 -0.07967
# Poissons Ratio (z) = 0.04522 -0.05762
#
# Static dielectric constant tensor:
#      x y z
#    x 1.850410 0.000000 0.005750 
#    y 0.000000 1.862290 0.000000 
#    z 0.005750 0.000000 1.893560 
# 
# From -- ./inp_files/49088.got.cif
#   From: 2010.05.17/outbox.cif.g08.bks.cpg/sg15_25_cif.got.tgz:49088.got - 2010.06.03 18:47:42.
