data_PCOD9302208
_publ_section_title
;
Structure prediction by ZEFSAII (Michael W. Deem and Ramdas Pophale) SiO2 
 PCOD9302208
Probable space group: C 2/C
;
_chemical_formula_sum "Si O2"
_cell_formula_units_Z 48
_cell_length_a 30.664022
_cell_length_b 7.211398
_cell_length_c 22.465443
_cell_angle_alpha 90.000000
_cell_angle_beta 154.866432
_cell_angle_gamma 90.000000
_cell_volume 2109.970594
_symmetry_space_group_name_H-M "C 2/C"
_symmetry_group_IT_number 15
_symmetry_cell_setting 'monoclinic'
loop_
_space_group_symop_operation_xyz
x,y,z
-x,y,1/2-z
-x,-y,-z
x,-y,1/2+z
1/2+x,1/2+y,z
1/2-x,1/2+y,1/2-z
1/2-x,1/2-y,-z
1/2+x,1/2-y,1/2+z
loop_
_atom_site_type_symbol
_atom_site_label
_atom_site_fract_x
_atom_site_fract_y
_atom_site_fract_z
Si Si1 0.644624 0.056595 0.078881
Si Si2 0.141461 0.658405 0.380236
Si Si3 0.506144 0.290223 0.406944
Si Si4 0.337920 0.672880 0.792748
Si Si5 0.613066 0.787339 0.410031
Si Si6 0.162553 0.910833 0.512772
O O1 0.764032 0.997708 0.218447
O O2 0.631934 0.216051 0.111227
O O3 0.581233 0.875210 0.020649
O O4 0.607932 0.116811 0.968271
O O5 0.250000 0.750000 0.500000
O O6 0.068435 0.700875 0.234943
O O7 0.148428 0.443770 0.407340
O O8 0.112052 0.768303 0.403913
O O9 0.434679 0.369590 0.370520
O O10 0.580188 0.432993 0.464064
O O11 0.263180 0.813060 0.663341
O O12 0.500000 0.725072 0.250000
O O13 0.681371 0.605105 0.503713
#
# Coordination Sequence:
#
# PCOD9302208 Si02
#       6
#     8   8   8   8   8   8
#     4  11  23  42  67  93 135 175 221 286 334 400
#     4  12  21  42  67  97 137 175 221 280 338 391
#     4  11  21  43  68  95 134 182 219 278 349 394
#     4  11  23  44  66  98 134 176 231 278 340 412
#     4  12  22  41  68  97 134 177 222 276 338 400
#     4  11  24  41  69  99 138 178 223 281 338 405
#
# _framework density 22.749131999999999
#
# number of rings (size 3 to 8) (size 9 to 14) (size 15 to 20)
#    0.000    0.667    6.667    3.000    0.000    0.667 
#    0.000   12.500    0.000    0.000    0.000    0.000 
#    0.000    0.000    0.000    0.000    0.000    0.000 
#
# Total GULP energy -134298.382283 kJ/mol
# GULP energy per Si atom -5595.765928 kJ/mol
# Density = 2.269735 g / cm^3
# Si number density = 22.749132 Si / 1000 Ang^3
#
#
#
# Elastic Constant Matrix: (Units=GPa)
#
#
# Indices 1 2 3 4 5 6 
#
# 1 126.3641 9.4280 34.5187 0.0000 13.4051 0.0000
# 2 9.4280 77.0515 -5.0061 0.0000 -6.1970 0.0000
# 3 34.5187 -5.0061 50.1812 0.0000 -4.3943 0.0000
# 4 0.0000 0.0000 0.0000 24.4779 0.0000 -8.1774
# 5 13.4051 -6.1970 -4.3943 0.0000 43.1637 0.0000
# 6 0.0000 0.0000 0.0000 -8.1774 0.0000 22.4041
#
#
#
# Elastic Compliance Matrix: (Units=1/GPa)
#
#
# Indices 1 2 3 4 5 6 
#
# 1 0.010734 -0.002192 -0.007993 0.000000 -0.004462 0.000000
# 2 -0.002192 0.013688 0.003133 0.000000 0.002965 0.000000
# 3 -0.007993 0.003133 0.026229 0.000000 0.005602 0.000000
# 4 0.000000 0.000000 0.000000 0.046526 0.000000 0.016982
# 5 -0.004462 0.002965 0.005602 0.000000 0.025549 0.000000
# 6 0.000000 0.000000 0.000000 0.016982 0.000000 0.050833
#
#
# Mechanical properties :
#
#
# Convention : Reuss Voigt Hill
#
# Bulk Modulus (GPa) = 27.36142 36.83088 32.09615
# Shear Modulus (GPa) = 25.01920 32.31957 28.66939
#
# Velocity S-wave (km/s) = 3.31990 3.77330 3.55384
# Velocity P-wave (km/s) = 5.17197 5.93371 5.56588
#
# Compressibility (1/GPa) = 0.03654782
#
# Stress axis : x y z
#
# Youngs Moduli (GPa) = 93.16253 73.05414 38.12553
#
# Poissons Ratio (x) = 0.16010 0.30474
# Poissons Ratio (y) = 0.20417 -0.11944
# Poissons Ratio (z) = 0.74465 -0.22886
#
# Static dielectric constant tensor:
#      x y z
#    x 1.891710 0.000000 0.014770 
#    y 0.000000 1.837530 0.000000 
#    z 0.014770 0.000000 1.844280 
# 
# From -- ./inp_files/257248.got.cif
#   From: 2010.05.17/outbox.cif.g08.bks.cpg/sg15_129_cif.got.tgz:257248.got - 2010.06.03 18:47:42.
