data_PCOD9302658
_publ_section_title
;
Structure prediction by ZEFSAII (Michael W. Deem and Ramdas Pophale) SiO2 
 PCOD9302658
Probable space group: C 2/C
;
_chemical_formula_sum "Si O2"
_cell_formula_units_Z 44
_cell_length_a 27.023109
_cell_length_b 10.992065
_cell_length_c 9.433561
_cell_angle_alpha 90.000000
_cell_angle_beta 142.392419
_cell_angle_gamma 90.000000
_cell_volume 1710.007611
_symmetry_space_group_name_H-M "C 2/C"
_symmetry_group_IT_number 15
_symmetry_cell_setting 'monoclinic'
loop_
_space_group_symop_operation_xyz
x,y,z
-x,y,1/2-z
-x,-y,-z
x,-y,1/2+z
1/2+x,1/2+y,z
1/2-x,1/2+y,1/2-z
1/2-x,1/2-y,-z
1/2+x,1/2-y,1/2+z
loop_
_atom_site_type_symbol
_atom_site_label
_atom_site_fract_x
_atom_site_fract_y
_atom_site_fract_z
Si Si1 0.000000 0.721372 0.750000
Si Si2 0.588598 0.314445 0.487539
Si Si3 0.742324 0.004330 0.437544
Si Si4 0.216360 0.658679 0.623950
Si Si5 0.574607 0.554233 0.579464
Si Si6 0.648841 0.805163 0.411910
O O1 0.931043 0.650266 0.683343
O O2 0.952568 0.814093 0.536393
O O3 0.500000 0.268359 0.250000
O O4 0.648234 0.251055 0.515665
O O5 0.587161 0.459904 0.477907
O O6 0.614181 0.275772 0.703668
O O7 0.712287 0.961017 0.216732
O O8 0.837226 0.037175 0.650214
O O9 0.711306 0.894012 0.469761
O O10 0.707243 0.119659 0.441630
O O11 0.299342 0.722081 0.863327
O O12 0.500000 0.500000 0.500000
#
# Coordination Sequence:
#
# PCOD9302658 Si02
#       6
#     4   8   8   8   8   8
#     4  12  22  36  64 102 132 156 226 278 322 384
#     4  11  22  39  63  94 131 170 213 270 337 388
#     4  11  23  43  66  91 134 176 218 261 337 400
#     4  11  22  44  66  92 128 185 220 268 331 406
#     4  12  21  34  64 100 125 163 209 273 331 388
#     4  11  22  43  65  93 136 177 210 278 336 395
#
# _framework density 25.730879000000002
#
# number of rings (size 3 to 8) (size 9 to 14) (size 15 to 20)
#    0.000    0.727    8.182    1.091    0.000    0.000 
#    4.909    2.727    0.000    0.000    0.000    0.000 
#    0.000    0.000    0.000    0.000    0.000    0.000 
#
# Total GULP energy -123126.677575 kJ/mol
# GULP energy per Si atom -5596.667162 kJ/mol
# Density = 2.567231 g / cm^3
# Si number density = 25.730879 Si / 1000 Ang^3
#
#
#
# Elastic Constant Matrix: (Units=GPa)
#
#
# Indices 1 2 3 4 5 6 
#
# 1 149.7346 34.7945 55.2795 0.0000 25.1812 0.0000
# 2 34.7945 48.3043 45.6511 0.0000 -3.2304 0.0000
# 3 55.2795 45.6511 116.6600 0.0000 18.9873 0.0000
# 4 0.0000 0.0000 0.0000 13.2505 0.0000 -1.6383
# 5 25.1812 -3.2304 18.9873 0.0000 52.6189 0.0000
# 6 0.0000 0.0000 0.0000 -1.6383 0.0000 62.5450
#
#
#
# Elastic Compliance Matrix: (Units=1/GPa)
#
#
# Indices 1 2 3 4 5 6 
#
# 1 0.009224 -0.005456 -0.001554 0.000000 -0.004188 0.000000
# 2 -0.005456 0.038756 -0.014229 0.000000 0.010124 0.000000
# 3 -0.001554 -0.014229 0.015827 0.000000 -0.005841 0.000000
# 4 0.000000 0.000000 0.000000 0.075714 0.000000 0.001983
# 5 -0.004188 0.010124 -0.005841 0.000000 0.023738 0.000000
# 6 0.000000 0.000000 0.000000 0.001983 0.000000 0.016040
#
#
# Mechanical properties :
#
#
# Convention : Reuss Voigt Hill
#
# Bulk Modulus (GPa) = 46.88188 65.12768 56.00478
# Shear Modulus (GPa) = 21.84480 37.61449 29.72964
#
# Velocity S-wave (km/s) = 2.91687 3.82755 3.40282
# Velocity P-wave (km/s) = 5.44094 6.70072 6.10342
#
# Compressibility (1/GPa) = 0.02133020
#
# Stress axis : x y z
#
# Youngs Moduli (GPa) = 108.40707 25.80246 63.18312
#
# Poissons Ratio (x) = 0.14077 0.09821
# Poissons Ratio (y) = 0.59143 0.89901
# Poissons Ratio (z) = 0.16851 0.36713
#
# Static dielectric constant tensor:
#      x y z
#    x 2.046600 0.000000 -0.018450 
#    y 0.000000 2.074400 0.000000 
#    z -0.018450 0.000000 2.022070 
# 
# From -- ./inp_files/126790.got.cif
#   From: 2010.05.17/outbox.cif.g08.bks.cpg/sg15_64_cif.got.tgz:126790.got - 2010.06.03 18:47:42.
