data_PCOD9302342
_publ_section_title
;
Structure prediction by ZEFSAII (Michael W. Deem and Ramdas Pophale) SiO2 
 PCOD9302342
Probable space group: C 2/C
;
_chemical_formula_sum "Si O2"
_cell_formula_units_Z 40
_cell_length_a 34.172088
_cell_length_b 8.082972
_cell_length_c 15.698508
_cell_angle_alpha 90.000000
_cell_angle_beta 158.466163
_cell_angle_gamma 90.000000
_cell_volume 1591.574422
_symmetry_space_group_name_H-M "C 2/C"
_symmetry_group_IT_number 15
_symmetry_cell_setting 'monoclinic'
loop_
_space_group_symop_operation_xyz
x,y,z
-x,y,1/2-z
-x,-y,-z
x,-y,1/2+z
1/2+x,1/2+y,z
1/2-x,1/2+y,1/2-z
1/2-x,1/2-y,-z
1/2+x,1/2-y,1/2+z
loop_
_atom_site_type_symbol
_atom_site_label
_atom_site_fract_x
_atom_site_fract_y
_atom_site_fract_z
Si Si1 0.161075 0.515786 0.247322
Si Si2 0.035923 0.732300 0.592203
Si Si3 0.361536 0.302990 0.101031
Si Si4 0.602032 0.371415 0.897058
Si Si5 0.627064 0.996780 0.491159
O O1 0.052272 0.622236 0.036065
O O2 0.264082 0.631308 0.461670
O O3 0.170068 0.446277 0.170039
O O4 0.137260 0.372987 0.266175
O O5 0.969577 0.790351 0.375529
O O6 0.075706 0.858699 0.743038
O O7 0.366998 0.435539 0.035189
O O8 0.341826 0.122203 0.020719
O O9 0.500000 0.361302 0.750000
O O10 0.656156 0.194515 0.029894
O O11 0.500000 0.007266 0.250000
#
# Coordination Sequence:
#
# PCOD9302342 Si02
#       5
#     8   8   8   8   8
#     4  11  24  42  70 106 135 186 238 282 358 427
#     4  11  22  46  69  94 146 186 226 299 357 410
#     4  12  26  42  73 107 134 185 240 289 354 430
#     4  11  24  44  71 101 137 185 235 285 357 426
#     4  11  21  46  69  95 146 185 222 294 355 413
#
# _framework density 25.132348
#
# number of rings (size 3 to 8) (size 9 to 14) (size 15 to 20)
#    0.000    0.800    6.000    3.000    2.800    0.800 
#    0.000    2.000    0.000    0.000    0.000    0.000 
#    0.000    0.000    0.000    0.000    0.000    0.000 
#
# Total GULP energy -111682.730681 kJ/mol
# GULP energy per Si atom -5584.136534 kJ/mol
# Density = 2.507515 g / cm^3
# Si number density = 25.132348 Si / 1000 Ang^3
#
#
#
# Elastic Constant Matrix: (Units=GPa)
#
#
# Indices 1 2 3 4 5 6 
#
# 1 99.5845 70.7619 23.3986 0.0000 4.3446 0.0000
# 2 70.7619 154.9872 31.7305 0.0000 11.2551 0.0000
# 3 23.3986 31.7305 49.6289 0.0000 12.3921 0.0000
# 4 0.0000 0.0000 0.0000 39.3005 0.0000 -14.1865
# 5 4.3446 11.2551 12.3921 0.0000 33.7962 0.0000
# 6 0.0000 0.0000 0.0000 -14.1865 0.0000 110.4588
#
#
#
# Elastic Compliance Matrix: (Units=1/GPa)
#
#
# Indices 1 2 3 4 5 6 
#
# 1 0.015346 -0.006393 -0.003508 0.000000 0.001443 0.000000
# 2 -0.006393 0.010107 -0.003096 0.000000 -0.001409 0.000000
# 3 -0.003508 -0.003096 0.025773 0.000000 -0.007968 0.000000
# 4 0.000000 0.000000 0.000000 0.026682 0.000000 0.003427
# 5 0.001443 -0.001409 -0.007968 0.000000 0.032794 0.000000
# 6 0.000000 0.000000 0.000000 0.003427 0.000000 0.009493
#
#
# Mechanical properties :
#
#
# Convention : Reuss Voigt Hill
#
# Bulk Modulus (GPa) = 39.63325 61.77586 50.70456
# Shear Modulus (GPa) = 32.34169 48.59841 40.47005
#
# Velocity S-wave (km/s) = 3.59117 4.40216 4.01718
# Velocity P-wave (km/s) = 5.74451 7.10438 6.46032
#
# Compressibility (1/GPa) = 0.02523134
#
# Stress axis : x y z
#
# Youngs Moduli (GPa) = 65.16533 98.94036 38.80099
#
# Poissons Ratio (x) = 0.63251 0.13611
# Poissons Ratio (y) = 0.41659 0.12014
# Poissons Ratio (z) = 0.22859 0.30634
#
# Static dielectric constant tensor:
#      x y z
#    x 1.929730 0.000000 0.002240 
#    y 0.000000 2.021810 0.000000 
#    z 0.002240 0.000000 2.254240 
# 
# From -- ./inp_files/181262.got.cif
#   From: 2010.05.17/outbox.cif.g08.bks.cpg/sg15_91_cif.got.tgz:181262.got - 2010.06.03 18:47:42.
