data_PCOD9302699
_publ_section_title
;
Structure prediction by ZEFSAII (Michael W. Deem and Ramdas Pophale) SiO2 
 PCOD9302699
Probable space group: C 2/C
;
_chemical_formula_sum "Si O2"
_cell_formula_units_Z 52
_cell_length_a 19.989259
_cell_length_b 9.433994
_cell_length_c 17.182581
_cell_angle_alpha 90.000000
_cell_angle_beta 42.908919
_cell_angle_gamma 90.000000
_cell_volume 2206.086291
_symmetry_space_group_name_H-M "C 2/C"
_symmetry_group_IT_number 15
_symmetry_cell_setting 'monoclinic'
loop_
_space_group_symop_operation_xyz
x,y,z
-x,y,1/2-z
-x,-y,-z
x,-y,1/2+z
1/2+x,1/2+y,z
1/2-x,1/2+y,1/2-z
1/2-x,1/2-y,-z
1/2+x,1/2-y,1/2+z
loop_
_atom_site_type_symbol
_atom_site_label
_atom_site_fract_x
_atom_site_fract_y
_atom_site_fract_z
Si Si1 0.079708 0.312899 0.285712
Si Si2 0.162510 0.879772 0.573712
Si Si3 0.500000 0.604679 0.750000
Si Si4 0.343460 0.947865 0.670848
Si Si5 0.037048 0.188749 0.883583
Si Si6 0.123550 0.092696 0.373544
Si Si7 0.138901 0.390034 0.018334
O O1 0.126336 0.233394 0.171613
O O2 0.144834 0.422441 0.279820
O O3 0.066730 0.182652 0.356308
O O4 0.975478 0.391079 0.360284
O O5 0.159867 0.781569 0.499226
O O6 0.270603 0.936478 0.503485
O O7 0.084031 0.002470 0.644563
O O8 0.542701 0.690099 0.785932
O O9 0.431796 0.839515 0.610720
O O10 0.238331 0.876578 0.776008
O O11 0.347634 0.971035 0.574432
O O12 0.107226 0.069255 0.861708
O O13 0.929843 0.138894 0.002668
#
# Coordination Sequence:
#
# PCOD9302699 Si02
#       7
#     8   8   4   8   8   8   8
#     4  12  22  43  64  97 136 169 218 276 318 393
#     4  11  23  40  69  95 126 173 226 270 314 403
#     4  12  22  48  64  92 132 174 224 266 320 400
#     4  12  25  41  66 103 134 167 218 277 333 384
#     4  11  25  43  67  95 132 172 215 272 323 390
#     4  11  23  42  69  95 129 174 221 262 321 396
#     4  11  22  39  66 100 128 167 219 274 332 373
#
# _framework density 23.571155000000001
#
# number of rings (size 3 to 8) (size 9 to 14) (size 15 to 20)
#    0.000    0.615    6.154    1.385    2.154    1.231 
#    2.769    0.769    0.000    0.000    0.000    0.000 
#    0.000    0.000    0.000    0.000    0.000    0.000 
#
# Total GULP energy -145276.088484 kJ/mol
# GULP energy per Si atom -5587.541865 kJ/mol
# Density = 2.351751 g / cm^3
# Si number density = 23.571155 Si / 1000 Ang^3
#
#
#
# Elastic Constant Matrix: (Units=GPa)
#
#
# Indices 1 2 3 4 5 6 
#
# 1 92.9786 7.1103 26.5963 0.0000 -11.9062 0.0000
# 2 7.1103 39.5890 -6.7547 0.0000 13.0052 0.0000
# 3 26.5963 -6.7547 80.3257 0.0000 -4.3732 0.0000
# 4 0.0000 0.0000 0.0000 19.8406 0.0000 6.2759
# 5 -11.9062 13.0052 -4.3732 0.0000 47.2191 0.0000
# 6 0.0000 0.0000 0.0000 6.2759 0.0000 27.5822
#
#
#
# Elastic Compliance Matrix: (Units=1/GPa)
#
#
# Indices 1 2 3 4 5 6 
#
# 1 0.012871 -0.004394 -0.004411 0.000000 0.004047 0.000000
# 2 -0.004394 0.029573 0.003455 0.000000 -0.008933 0.000000
# 3 -0.004411 0.003455 0.014159 0.000000 -0.000752 0.000000
# 4 0.000000 0.000000 0.000000 0.054310 0.000000 -0.012357
# 5 0.004047 -0.008933 -0.000752 0.000000 0.024589 0.000000
# 6 0.000000 0.000000 0.000000 -0.012357 0.000000 0.039067
#
#
# Mechanical properties :
#
#
# Convention : Reuss Voigt Hill
#
# Bulk Modulus (GPa) = 21.78432 29.64412 25.71422
# Shear Modulus (GPa) = 24.92897 31.32448 28.12673
#
# Velocity S-wave (km/s) = 3.25561 3.64941 3.45812
# Velocity P-wave (km/s) = 4.83674 5.51011 5.18437
#
# Compressibility (1/GPa) = 0.04590457
#
# Stress axis : x y z
#
# Youngs Moduli (GPa) = 77.69338 33.81491 70.62464
#
# Poissons Ratio (x) = 0.14857 0.31151
# Poissons Ratio (y) = 0.34137 -0.24403
# Poissons Ratio (z) = 0.34269 -0.11684
#
# Static dielectric constant tensor:
#      x y z
#    x 1.938980 0.000000 -0.005180 
#    y 0.000000 1.894730 0.000000 
#    z -0.005180 0.000000 1.993320 
# 
# From -- ./inp_files/214249.got.cif
#   From: 2010.05.17/outbox.cif.g08.bks.cpg/sg15_108_cif.got.tgz:214249.got - 2010.06.03 18:47:42.
