data_PCOD9302093
_publ_section_title
;
Structure prediction by ZEFSAII (Michael W. Deem and Ramdas Pophale) SiO2 
 PCOD9302093
Probable space group: C 2/C
;
_chemical_formula_sum "Si O2"
_cell_formula_units_Z 52
_cell_length_a 6.679474
_cell_length_b 25.427498
_cell_length_c 24.304572
_cell_angle_alpha 90.000000
_cell_angle_beta 136.343504
_cell_angle_gamma 90.000000
_cell_volume 2849.657567
_symmetry_space_group_name_H-M "C 2/C"
_symmetry_group_IT_number 15
_symmetry_cell_setting 'monoclinic'
loop_
_space_group_symop_operation_xyz
x,y,z
-x,y,1/2-z
-x,-y,-z
x,-y,1/2+z
1/2+x,1/2+y,z
1/2-x,1/2+y,1/2-z
1/2-x,1/2-y,-z
1/2+x,1/2-y,1/2+z
loop_
_atom_site_type_symbol
_atom_site_label
_atom_site_fract_x
_atom_site_fract_y
_atom_site_fract_z
Si Si1 0.292078 0.050376 0.464849
Si Si2 0.000000 0.757352 0.250000
Si Si3 0.088195 0.307852 0.330353
Si Si4 0.276411 0.589046 0.930246
Si Si5 0.336482 0.205866 0.330004
Si Si6 0.371667 0.985773 0.663639
Si Si7 0.451499 0.096232 0.088704
O O1 0.345332 0.081567 0.532192
O O2 0.344790 0.085575 0.422339
O O3 0.963221 0.031132 0.399932
O O4 0.500000 0.000000 0.500000
O O5 0.294394 0.790772 0.303211
O O6 0.012867 0.723654 0.196773
O O7 0.223133 0.355584 0.390450
O O8 0.293613 0.256713 0.361229
O O9 0.000000 0.323296 0.250000
O O10 0.133205 0.542687 0.866007
O O11 0.623547 0.582513 0.004989
O O12 0.509529 0.156591 0.387230
O O13 0.000000 0.190564 0.250000
O O14 0.500000 0.986939 0.750000
O O15 0.520373 0.942882 0.653090
#
# Coordination Sequence:
#
# PCOD9302093 Si02
#       7
#     8   4   8   8   8   8   8
#     4  11  21  42  59  81 123 163 192 233 306 355
#     4   8  18  40  60  84 122 152 192 246 292 344
#     4   9  20  39  61  88 118 153 200 243 294 345
#     4  11  22  40  60  85 124 156 192 251 292 351
#     4   9  21  37  60  87 118 152 196 246 290 347
#     4  11  24  38  60  91 118 152 200 252 292 352
#     4  11  23  39  60  88 120 155 196 242 298 355
#
# _framework density 18.247807000000002
#
# number of rings (size 3 to 8) (size 9 to 14) (size 15 to 20)
#    0.000    2.154    3.077    1.385    3.231    6.769 
#    2.769    1.538    0.000    0.000    0.000    0.000 
#    0.000    0.000    0.000    0.000    0.000    0.000 
#
# Total GULP energy -145012.676890 kJ/mol
# GULP energy per Si atom -5577.410650 kJ/mol
# Density = 1.820627 g / cm^3
# Si number density = 18.247807 Si / 1000 Ang^3
#
#
#
# Elastic Constant Matrix: (Units=GPa)
#
#
# Indices 1 2 3 4 5 6 
#
# 1 103.8796 33.5927 27.7168 0.0000 -29.9195 0.0000
# 2 33.5927 116.8130 56.7401 0.0000 -23.5021 0.0000
# 3 27.7168 56.7401 93.7586 0.0000 -26.9699 0.0000
# 4 0.0000 0.0000 0.0000 27.8532 0.0000 -1.2863
# 5 -29.9195 -23.5021 -26.9699 0.0000 23.1942 0.0000
# 6 0.0000 0.0000 0.0000 -1.2863 0.0000 17.0175
#
#
#
# Elastic Compliance Matrix: (Units=1/GPa)
#
#
# Indices 1 2 3 4 5 6 
#
# 1 0.015642 -0.001307 0.002389 0.000000 0.021631 0.000000
# 2 -0.001307 0.012746 -0.006156 0.000000 0.004072 0.000000
# 3 0.002389 -0.006156 0.019199 0.000000 0.019168 0.000000
# 4 0.000000 0.000000 0.000000 0.036028 0.000000 0.002723
# 5 0.021631 0.004072 0.019168 0.000000 0.097431 0.000000
# 6 0.000000 0.000000 0.000000 0.002723 0.000000 0.058969
#
#
# Mechanical properties :
#
#
# Convention : Reuss Voigt Hill
#
# Bulk Modulus (GPa) = 26.71004 61.17226 43.94115
# Shear Modulus (GPa) = 19.03735 26.70641 22.87188
#
# Velocity S-wave (km/s) = 3.23347 3.82978 3.54419
# Velocity P-wave (km/s) = 5.34880 7.29055 6.39381
#
# Compressibility (1/GPa) = 0.03743910
#
# Stress axis : x y z
#
# Youngs Moduli (GPa) = 63.93083 78.45751 52.08726
#
# Poissons Ratio (x) = 0.10251 -0.12443
# Poissons Ratio (y) = 0.08353 0.32065
# Poissons Ratio (z) = -0.15273 0.48298
#
# Static dielectric constant tensor:
#      x y z
#    x 1.637160 0.000000 -0.015890 
#    y 0.000000 1.646400 0.000000 
#    z -0.015890 0.000000 1.638930 
# 
# From -- ./inp_files/185784.got.cif
#   From: 2010.05.17/outbox.cif.g08.bks.cpg/sg15_93_cif.got.tgz:185784.got - 2010.06.03 18:47:42.
