data_PCOD9302669
_publ_section_title
;
Structure prediction by ZEFSAII (Michael W. Deem and Ramdas Pophale) SiO2 
 PCOD9302669
Probable space group: C 2/C
;
_chemical_formula_sum "Si O2"
_cell_formula_units_Z 64
_cell_length_a 14.906060
_cell_length_b 8.329710
_cell_length_c 22.819850
_cell_angle_alpha 90.000000
_cell_angle_beta 100.883948
_cell_angle_gamma 90.000000
_cell_volume 2782.416708
_symmetry_space_group_name_H-M "C 2/C"
_symmetry_group_IT_number 15
_symmetry_cell_setting 'monoclinic'
loop_
_space_group_symop_operation_xyz
x,y,z
-x,y,1/2-z
-x,-y,-z
x,-y,1/2+z
1/2+x,1/2+y,z
1/2-x,1/2+y,1/2-z
1/2-x,1/2-y,-z
1/2+x,1/2-y,1/2+z
loop_
_atom_site_type_symbol
_atom_site_label
_atom_site_fract_x
_atom_site_fract_y
_atom_site_fract_z
Si Si1 0.106301 0.695680 0.014334
Si Si2 0.961386 0.810256 0.808211
Si Si3 0.130853 0.688652 0.889803
Si Si4 0.299708 0.810270 0.853359
Si Si5 0.799708 0.310270 0.353359
Si Si6 0.538614 0.689743 0.691789
Si Si7 0.606301 0.804320 0.014334
Si Si8 0.869147 0.688652 0.110197
O O1 0.155599 0.749447 0.079572
O O2 0.109350 0.500000 0.014366
O O3 0.148746 0.751267 0.957829
O O4 0.000000 0.742797 0.000000
O O5 0.856294 0.771144 0.808493
O O6 0.000000 0.759874 0.750000
O O7 0.024895 0.718750 0.862651
O O8 0.975960 1.000000 0.816284
O O9 0.193528 0.773067 0.849205
O O10 0.149794 0.500000 0.890087
O O11 0.356294 0.728856 0.808493
O O12 0.312778 1.000000 0.849862
O O13 0.844401 0.250553 0.420428
O O14 0.693528 0.273068 0.349205
O O15 0.500000 0.740126 0.750000
O O16 0.475105 0.781250 0.637349
O O17 0.648746 0.748733 0.957829
#
# Coordination Sequence:
#
# PCOD9302669 Si02
#       8
#     8   8   8   8   8   8   8   8
#     4   9  17  34  60  91 124 158 194 239 296 357
#     4  11  25  44  63  86 118 157 206 257 302 353
#     4  11  22  39  64  92 125 160 198 244 298 359
#     4  11  22  39  64  92 125 160 198 244 298 359
#     4  11  22  39  64  92 125 160 198 244 298 359
#     4  11  25  44  63  86 118 157 206 257 302 353
#     4   9  17  34  60  91 124 158 194 239 296 357
#     4  11  22  39  64  92 125 160 198 244 298 359
#
# _framework density 23.001588000000002
#
# number of rings (size 3 to 8) (size 9 to 14) (size 15 to 20)
#    0.000    1.500    2.500    3.000    0.000    3.000 
#    0.000    5.000    0.000    0.000    0.000    0.000 
#    0.000    0.000    0.000    0.000    0.000    0.000 
#
# Total GULP energy -178978.709094 kJ/mol
# GULP energy per Si atom -5593.084659 kJ/mol
# Density = 2.294923 g / cm^3
# Si number density = 23.001588 Si / 1000 Ang^3
#
#
#
# Elastic Constant Matrix: (Units=GPa)
#
#
# Indices 1 2 3 4 5 6 
#
# 1 93.1186 -6.0340 8.6090 0.0000 -33.6924 0.0000
# 2 -6.0340 29.6856 15.5624 0.0000 -10.4550 0.0000
# 3 8.6090 15.5624 76.0180 0.0000 -33.7806 0.0000
# 4 0.0000 0.0000 0.0000 18.2669 0.0000 -2.3731
# 5 -33.6924 -10.4550 -33.7806 0.0000 45.9141 0.0000
# 6 0.0000 0.0000 0.0000 -2.3731 0.0000 31.7233
#
#
#
# Elastic Compliance Matrix: (Units=1/GPa)
#
#
# Indices 1 2 3 4 5 6 
#
# 1 0.017107 0.007354 0.004278 0.000000 0.017376 0.000000
# 2 0.007354 0.041484 -0.004056 0.000000 0.011859 0.000000
# 3 0.004278 -0.004056 0.021522 0.000000 0.018050 0.000000
# 4 0.000000 0.000000 0.000000 0.055281 0.000000 0.004135
# 5 0.017376 0.011859 0.018050 0.000000 0.050511 0.000000
# 6 0.000000 0.000000 0.000000 0.004135 0.000000 0.031832
#
#
# Mechanical properties :
#
#
# Convention : Reuss Voigt Hill
#
# Bulk Modulus (GPa) = 10.49701 26.12190 18.30945
# Shear Modulus (GPa) = 21.33669 31.22650 26.28160
#
# Velocity S-wave (km/s) = 3.04899 3.68853 3.38390
# Velocity P-wave (km/s) = 4.11930 5.43338 4.82132
#
# Compressibility (1/GPa) = 0.09526525
#
# Stress axis : x y z
#
# Youngs Moduli (GPa) = 58.45626 24.10584 46.46480
#
# Poissons Ratio (x) = -0.17727 -0.19880
# Poissons Ratio (y) = -0.42987 0.18845
# Poissons Ratio (z) = -0.25010 0.09777
#
# Static dielectric constant tensor:
#      x y z
#    x 1.842030 0.000000 -0.002640 
#    y 0.000000 1.765910 0.000000 
#    z -0.002640 0.000000 1.890150 
# 
# From -- ./inp_files/273187.got.cif
#   From: 2010.05.17/outbox.cif.g08.bks.cpg/sg15_137_cif.got.tgz:273187.got - 2010.06.03 18:47:42.
