data_PCOD9302806
_publ_section_title
;
Structure prediction by ZEFSAII (Michael W. Deem and Ramdas Pophale) SiO2 
 PCOD9302806
Probable space group: C 2/C
;
_chemical_formula_sum "Si O2"
_cell_formula_units_Z 48
_cell_length_a 7.820625
_cell_length_b 12.912557
_cell_length_c 17.062790
_cell_angle_alpha 90.000000
_cell_angle_beta 93.871658
_cell_angle_gamma 90.000000
_cell_volume 1719.140930
_symmetry_space_group_name_H-M "C 2/C"
_symmetry_group_IT_number 15
_symmetry_cell_setting 'monoclinic'
loop_
_space_group_symop_operation_xyz
x,y,z
-x,y,1/2-z
-x,-y,-z
x,-y,1/2+z
1/2+x,1/2+y,z
1/2-x,1/2+y,1/2-z
1/2-x,1/2-y,-z
1/2+x,1/2-y,1/2+z
loop_
_atom_site_type_symbol
_atom_site_label
_atom_site_fract_x
_atom_site_fract_y
_atom_site_fract_z
Si Si1 0.689520 0.038737 0.258665
Si Si2 0.152758 0.167840 0.881573
Si Si3 0.413194 0.469099 0.899378
Si Si4 0.310342 0.803230 0.219806
Si Si5 0.894275 0.624086 0.018060
Si Si6 0.747379 0.624123 0.401068
O O1 0.500000 0.087100 0.250000
O O2 0.669955 0.925414 0.295818
O O3 0.842410 0.080029 0.316189
O O4 0.747764 0.043496 0.171522
O O5 0.186229 0.196240 0.792066
O O6 0.117923 0.269435 0.932378
O O7 0.334523 0.134989 0.927008
O O8 0.003984 0.080937 0.889139
O O9 0.247689 0.451408 0.948021
O O10 0.565352 0.395136 0.935438
O O11 0.500000 0.769033 0.250000
O O12 0.249331 0.733242 0.145510
O O13 0.091686 0.600593 0.039813
#
# Coordination Sequence:
#
# PCOD9302806 Si02
#       6
#     8   8   8   8   8   8
#     4  11  22  40  65 100 138 178 237 303 364 427
#     4  11  25  47  72 104 151 200 246 307 383 454
#     4  12  24  45  72 105 142 193 251 307 375 451
#     4  11  24  43  70 105 143 187 249 314 371 451
#     4  11  26  47  71 105 150 199 248 306 378 457
#     4  12  24  43  73 104 141 191 243 315 370 445
#
# _framework density 27.920922999999998
#
# number of rings (size 3 to 8) (size 9 to 14) (size 15 to 20)
#    0.000    0.667    3.333    5.000    0.000    2.000 
#    0.000    9.167    0.000    0.000    0.000    0.000 
#    0.000    0.000    0.000    0.000    0.000    0.000 
#
# Total GULP energy -134458.838230 kJ/mol
# GULP energy per Si atom -5602.451593 kJ/mol
# Density = 2.785737 g / cm^3
# Si number density = 27.920923 Si / 1000 Ang^3
#
#
#
# Elastic Constant Matrix: (Units=GPa)
#
#
# Indices 1 2 3 4 5 6 
#
# 1 176.7808 58.9771 66.9147 0.0000 49.2474 0.0000
# 2 58.9771 138.0537 4.7489 0.0000 -0.5021 0.0000
# 3 66.9147 4.7489 76.4656 0.0000 38.5477 0.0000
# 4 0.0000 0.0000 0.0000 37.4220 0.0000 1.3822
# 5 49.2474 -0.5021 38.5477 0.0000 66.3503 0.0000
# 6 0.0000 0.0000 0.0000 1.3822 0.0000 36.4548
#
#
#
# Elastic Compliance Matrix: (Units=1/GPa)
#
#
# Indices 1 2 3 4 5 6 
#
# 1 0.011052 -0.004481 -0.007412 0.000000 -0.003931 0.000000
# 2 -0.004481 0.009085 0.002327 0.000000 0.002043 0.000000
# 3 -0.007412 0.002327 0.023528 0.000000 -0.008150 0.000000
# 4 0.000000 0.000000 0.000000 0.026760 0.000000 -0.001015
# 5 -0.003931 0.002043 -0.008150 0.000000 0.022740 0.000000
# 6 0.000000 0.000000 0.000000 -0.001015 0.000000 0.027470
#
#
# Mechanical properties :
#
#
# Convention : Reuss Voigt Hill
#
# Bulk Modulus (GPa) = 40.75849 72.50907 56.63378
# Shear Modulus (GPa) = 33.79670 45.42270 39.60970
#
# Velocity S-wave (km/s) = 3.48292 4.03778 3.77057
# Velocity P-wave (km/s) = 5.55012 6.91115 6.26769
#
# Compressibility (1/GPa) = 0.02453476
#
# Stress axis : x y z
#
# Youngs Moduli (GPa) = 90.47943 110.06932 42.50286
#
# Poissons Ratio (x) = 0.49321 0.31502
# Poissons Ratio (y) = 0.40543 -0.09892
# Poissons Ratio (z) = 0.67060 -0.25616
#
# Static dielectric constant tensor:
#      x y z
#    x 2.203350 0.000000 0.020990 
#    y 0.000000 2.347040 0.000000 
#    z 0.020990 0.000000 2.139510 
# 
# From -- ./inp_files/231355.got.cif
#   From: 2010.05.17/outbox.cif.g08.bks.cpg/sg15_116_cif.got.tgz:231355.got - 2010.06.03 18:47:42.
