data_PCOD9302676
_publ_section_title
;
Structure prediction by ZEFSAII (Michael W. Deem and Ramdas Pophale) SiO2 
 PCOD9302676
Probable space group: C 2/C
;
_chemical_formula_sum "Si O2"
_cell_formula_units_Z 40
_cell_length_a 10.186260
_cell_length_b 10.071073
_cell_length_c 20.674851
_cell_angle_alpha 90.000000
_cell_angle_beta 114.269968
_cell_angle_gamma 90.000000
_cell_volume 1933.508947
_symmetry_space_group_name_H-M "C 2/C"
_symmetry_group_IT_number 15
_symmetry_cell_setting 'monoclinic'
loop_
_space_group_symop_operation_xyz
x,y,z
-x,y,1/2-z
-x,-y,-z
x,-y,1/2+z
1/2+x,1/2+y,z
1/2-x,1/2+y,1/2-z
1/2-x,1/2-y,-z
1/2+x,1/2-y,1/2+z
loop_
_atom_site_type_symbol
_atom_site_label
_atom_site_fract_x
_atom_site_fract_y
_atom_site_fract_z
Si Si1 0.269715 0.227405 0.177775
Si Si2 0.563719 0.229187 0.157931
Si Si3 0.387735 0.489041 0.416897
Si Si4 0.317185 0.105333 0.521377
Si Si5 0.862202 0.527303 0.907615
O O1 0.409805 0.209535 0.160797
O O2 0.318636 0.213007 0.261462
O O3 0.222499 0.378871 0.157652
O O4 0.147677 0.124219 0.128978
O O5 0.570978 0.370449 0.123252
O O6 0.594355 0.113431 0.113182
O O7 0.500000 0.500000 0.500000
O O8 0.238568 0.448276 0.421991
O O9 0.250000 0.250000 0.500000
O O10 0.489029 0.105088 0.549295
O O11 0.274165 0.004626 0.454929
#
# Coordination Sequence:
#
# PCOD9302676 Si02
#       5
#     8   8   8   8   8
#     4  11  25  43  65  96 129 175 220 266 325 395
#     4  11  24  45  65  92 135 175 215 266 332 394
#     4  12  24  41  70 100 133 169 223 276 325 386
#     4  11  22  39  64  97 128 162 214 270 326 379
#     4  11  23  41  67  91 129 171 211 266 327 382
#
# _framework density 20.687778000000002
#
# number of rings (size 3 to 8) (size 9 to 14) (size 15 to 20)
#    0.000    0.800    4.000    3.600    2.800    1.600 
#    0.000    0.000    0.000    0.000    0.000    0.000 
#    0.000    0.000    0.000    0.000    0.000    0.000 
#
# Total GULP energy -111736.458771 kJ/mol
# GULP energy per Si atom -5586.822939 kJ/mol
# Density = 2.064069 g / cm^3
# Si number density = 20.687778 Si / 1000 Ang^3
#
#
#
# Elastic Constant Matrix: (Units=GPa)
#
#
# Indices 1 2 3 4 5 6 
#
# 1 44.1685 23.5515 28.0775 0.0000 -3.5683 0.0000
# 2 23.5515 117.5757 45.5546 0.0000 7.6070 0.0000
# 3 28.0775 45.5546 116.4807 0.0000 5.4672 0.0000
# 4 0.0000 0.0000 0.0000 38.4676 0.0000 4.3184
# 5 -3.5683 7.6070 5.4672 0.0000 33.6393 0.0000
# 6 0.0000 0.0000 0.0000 4.3184 0.0000 33.0107
#
#
#
# Elastic Compliance Matrix: (Units=1/GPa)
#
#
# Indices 1 2 3 4 5 6 
#
# 1 0.028672 -0.003878 -0.005622 0.000000 0.004832 0.000000
# 2 -0.003878 0.010639 -0.003118 0.000000 -0.002311 0.000000
# 3 -0.005622 -0.003118 0.011240 0.000000 -0.001718 0.000000
# 4 0.000000 0.000000 0.000000 0.026383 0.000000 -0.003451
# 5 0.004832 -0.002311 -0.001718 0.000000 0.031041 0.000000
# 6 0.000000 0.000000 0.000000 -0.003451 0.000000 0.030745
#
#
# Mechanical properties :
#
#
# Convention : Reuss Voigt Hill
#
# Bulk Modulus (GPa) = 39.49860 52.51024 46.00442
# Shear Modulus (GPa) = 29.00317 33.09295 31.04806
#
# Velocity S-wave (km/s) = 3.74832 4.00389 3.87821
# Velocity P-wave (km/s) = 6.15365 6.84194 6.50690
#
# Compressibility (1/GPa) = 0.02531735
#
# Stress axis : x y z
#
# Youngs Moduli (GPa) = 34.87689 93.99026 88.96660
#
# Poissons Ratio (x) = 0.36448 0.50014
# Poissons Ratio (y) = 0.13525 0.27738
# Poissons Ratio (z) = 0.19606 0.29304
#
# Static dielectric constant tensor:
#      x y z
#    x 1.742250 0.000000 0.032500 
#    y 0.000000 1.724530 0.000000 
#    z 0.032500 0.000000 1.763790 
# 
# From -- ./inp_files/235929.got.cif
#   From: 2010.05.17/outbox.cif.g08.bks.cpg/sg15_118_cif.got.tgz:235929.got - 2010.06.03 18:47:42.
