data_PCOD9302437
_publ_section_title
;
Structure prediction by ZEFSAII (Michael W. Deem and Ramdas Pophale) SiO2 
 PCOD9302437
Probable space group: C 2/C
;
_chemical_formula_sum "Si O2"
_cell_formula_units_Z 64
_cell_length_a 30.160137
_cell_length_b 14.036334
_cell_length_c 9.287689
_cell_angle_alpha 90.000000
_cell_angle_beta 118.180012
_cell_angle_gamma 90.000000
_cell_volume 3465.782804
_symmetry_space_group_name_H-M "C 2/C"
_symmetry_group_IT_number 15
_symmetry_cell_setting 'monoclinic'
loop_
_space_group_symop_operation_xyz
x,y,z
-x,y,1/2-z
-x,-y,-z
x,-y,1/2+z
1/2+x,1/2+y,z
1/2-x,1/2+y,1/2-z
1/2-x,1/2-y,-z
1/2+x,1/2-y,1/2+z
loop_
_atom_site_type_symbol
_atom_site_label
_atom_site_fract_x
_atom_site_fract_y
_atom_site_fract_z
Si Si1 0.948009 0.113210 0.099965
Si Si2 0.205148 0.136679 0.778779
Si Si3 0.804217 0.915681 0.730525
Si Si4 0.649750 0.708979 0.435669
Si Si5 0.809542 0.413858 0.064905
Si Si6 0.682726 0.901617 0.086680
Si Si7 0.150649 0.203287 0.957942
Si Si8 0.550924 0.589375 0.744861
O O1 0.901510 0.182761 0.061239
O O2 0.000000 0.150170 0.250000
O O3 0.937857 0.015574 0.173239
O O4 0.953622 0.091828 0.937022
O O5 0.195860 0.176240 0.606708
O O6 0.263858 0.130126 0.898942
O O7 0.175118 0.204711 0.838322
O O8 0.184623 0.028212 0.754208
O O9 0.843228 0.857137 0.692859
O O10 0.746942 0.903162 0.587351
O O11 0.812694 0.868366 0.898321
O O12 0.658774 0.818595 0.414051
O O13 0.806750 0.428400 0.231849
O O14 0.833683 0.505509 0.025184
O O15 0.649181 0.807670 0.023978
O O16 0.096432 0.156599 0.860778
O O17 0.500000 0.618418 0.750000
#
# Coordination Sequence:
#
# PCOD9302437 Si02
#       8
#     8   8   8   8   8   8   8   8
#     4  11  24  39  62  90 119 157 192 241 297 353
#     4  11  22  36  57  91 121 158 194 244 287 359
#     4  11  22  37  58  87 124 160 198 239 295 350
#     4  12  22  39  61  83 122 159 201 240 293 352
#     4  11  25  40  58  84 119 160 203 251 287 343
#     4  11  25  40  58  84 119 160 204 248 292 336
#     4  12  24  38  60  87 120 162 199 242 295 351
#     4  11  24  40  60  90 122 154 193 242 295 356
#
# _framework density 18.466248
#
# number of rings (size 3 to 8) (size 9 to 14) (size 15 to 20)
#    0.000    0.750    3.750    5.250   10.500    0.000 
#    0.000    0.000    0.000    0.750    0.000    3.500 
#    0.000    0.000    0.000    0.000    0.000    0.000 
#
# Total GULP energy -178786.453698 kJ/mol
# GULP energy per Si atom -5587.076678 kJ/mol
# Density = 1.842422 g / cm^3
# Si number density = 18.466248 Si / 1000 Ang^3
#
#
#
# Elastic Constant Matrix: (Units=GPa)
#
#
# Indices 1 2 3 4 5 6 
#
# 1 58.1360 16.3866 12.2048 0.0000 -9.4152 0.0000
# 2 16.3866 78.0699 22.9452 0.0000 -0.0310 0.0000
# 3 12.2048 22.9452 68.5238 0.0000 -9.5357 0.0000
# 4 0.0000 0.0000 0.0000 24.4581 0.0000 -1.5625
# 5 -9.4152 -0.0310 -9.5357 0.0000 16.3311 0.0000
# 6 0.0000 0.0000 0.0000 -1.5625 0.0000 24.6469
#
#
#
# Elastic Compliance Matrix: (Units=1/GPa)
#
#
# Indices 1 2 3 4 5 6 
#
# 1 0.020320 -0.004059 -0.000687 0.000000 0.011306 0.000000
# 2 -0.004059 0.015154 -0.005086 0.000000 -0.005281 0.000000
# 3 -0.000687 -0.005086 0.017810 0.000000 0.009993 0.000000
# 4 0.000000 0.000000 0.000000 0.041053 0.000000 0.002602
# 5 0.011306 -0.005281 0.009993 0.000000 0.073576 0.000000
# 6 0.000000 0.000000 0.000000 0.002602 0.000000 0.040738
#
#
# Mechanical properties :
#
#
# Convention : Reuss Voigt Hill
#
# Bulk Modulus (GPa) = 29.74421 34.20033 31.97227
# Shear Modulus (GPa) = 20.87499 23.30008 22.08753
#
# Velocity S-wave (km/s) = 3.36585 3.55599 3.46222
# Velocity P-wave (km/s) = 5.58995 5.95153 5.77357
#
# Compressibility (1/GPa) = 0.03361999
#
# Stress axis : x y z
#
# Youngs Moduli (GPa) = 49.21166 65.99024 56.14955
#
# Poissons Ratio (x) = 0.26784 0.03856
# Poissons Ratio (y) = 0.19974 0.28559
# Poissons Ratio (z) = 0.03380 0.33564
#
# Static dielectric constant tensor:
#      x y z
#    x 1.631140 0.000000 -0.011340 
#    y 0.000000 1.637700 0.000000 
#    z -0.011340 0.000000 1.682150 
# 
# From -- ./inp_files/69921.got.cif
#   From: 2010.05.17/outbox.cif.g08.bks.cpg/sg15_35_cif.got.tgz:69921.got - 2010.06.03 18:47:42.
