data_PCOD9302379
_publ_section_title
;
Structure prediction by ZEFSAII (Michael W. Deem and Ramdas Pophale) SiO2 
 PCOD9302379
Probable space group: C 2/C
;
_chemical_formula_sum "Si O2"
_cell_formula_units_Z 28
_cell_length_a 17.726656
_cell_length_b 17.095618
_cell_length_c 5.364026
_cell_angle_alpha 90.000000
_cell_angle_beta 104.254617
_cell_angle_gamma 90.000000
_cell_volume 1575.508906
_symmetry_space_group_name_H-M "C 2/C"
_symmetry_group_IT_number 15
_symmetry_cell_setting 'monoclinic'
loop_
_space_group_symop_operation_xyz
x,y,z
-x,y,1/2-z
-x,-y,-z
x,-y,1/2+z
1/2+x,1/2+y,z
1/2-x,1/2+y,1/2-z
1/2-x,1/2-y,-z
1/2+x,1/2-y,1/2+z
loop_
_atom_site_type_symbol
_atom_site_label
_atom_site_fract_x
_atom_site_fract_y
_atom_site_fract_z
Si Si1 0.000000 0.610465 0.750000
Si Si2 0.208836 0.280582 0.216200
Si Si3 0.332198 0.955596 0.205241
Si Si4 0.472096 0.261417 0.972588
O O1 0.925479 0.560754 0.764358
O O2 0.014896 0.675455 0.979541
O O3 0.250000 0.250000 0.500000
O O4 0.205881 0.374090 0.244378
O O5 0.119165 0.253347 0.122442
O O6 0.250000 0.250000 0.000000
O O7 0.312792 0.016246 0.410041
O O8 0.500000 0.306057 0.750000
O O9 0.500000 0.297596 0.250000
#
# Coordination Sequence:
#
# PCOD9302379 Si02
#       4
#     4   8   8   8
#     4   8  20  28  52  70 114 140 178 194 254 300
#     4  11  22  36  54  75 111 149 182 222 269 310
#     4  11  22  33  51  77 109 145 181 211 256 321
#     4   9  18  31  51  74 106 139 182 219 244 313
#
# _framework density 17.772036
#
# number of rings (size 3 to 8) (size 9 to 14) (size 15 to 20)
#    0.857    1.143    0.000    4.286    8.000    0.000 
#    0.000    0.000    0.000    0.000    0.000    0.000 
#    0.000   80.000    0.000    0.000    0.000    0.000 
#
# Total GULP energy -77943.450316 kJ/mol
# GULP energy per Si atom -5567.389308 kJ/mol
# Density = 1.773159 g / cm^3
# Si number density = 17.772036 Si / 1000 Ang^3
#
#
#
# Elastic Constant Matrix: (Units=GPa)
#
#
# Indices 1 2 3 4 5 6 
#
# 1 104.9465 36.0979 52.0806 0.0000 -25.7713 0.0000
# 2 36.0979 50.3421 19.3995 0.0000 -8.4957 0.0000
# 3 52.0806 19.3995 136.3427 0.0000 -26.8868 0.0000
# 4 0.0000 0.0000 0.0000 21.3554 0.0000 -3.8891
# 5 -25.7713 -8.4957 -26.8868 0.0000 34.5425 0.0000
# 6 0.0000 0.0000 0.0000 -3.8891 0.0000 30.1683
#
#
#
# Elastic Compliance Matrix: (Units=1/GPa)
#
#
# Indices 1 2 3 4 5 6 
#
# 1 0.016086 -0.009003 -0.003466 0.000000 0.007090 0.000000
# 2 -0.009003 0.026389 -0.000426 0.000000 -0.000558 0.000000
# 3 -0.003466 -0.000426 0.009673 0.000000 0.004839 0.000000
# 4 0.000000 0.000000 0.000000 0.047952 0.000000 0.006182
# 5 0.007090 -0.000558 0.004839 0.000000 0.037869 0.000000
# 6 0.000000 0.000000 0.000000 0.006182 0.000000 0.033944
#
#
# Mechanical properties :
#
#
# Convention : Reuss Voigt Hill
#
# Bulk Modulus (GPa) = 37.93582 56.30971 47.12276
# Shear Modulus (GPa) = 24.21438 29.48346 26.84892
#
# Velocity S-wave (km/s) = 3.69521 4.07748 3.89104
# Velocity P-wave (km/s) = 6.29271 7.34309 6.83810
#
# Compressibility (1/GPa) = 0.02636031
#
# Stress axis : x y z
#
# Youngs Moduli (GPa) = 62.16562 37.89396 103.37960
#
# Poissons Ratio (x) = 0.34114 0.35827
# Poissons Ratio (y) = 0.55965 0.04403
# Poissons Ratio (z) = 0.21544 0.01614
#
# Static dielectric constant tensor:
#      x y z
#    x 1.635680 0.000000 -0.041630 
#    y 0.000000 1.598830 0.000000 
#    z -0.041630 0.000000 1.713110 
# 
# From -- ./inp_files/10011.got.cif
#   From: 2010.05.17/outbox.cif.g08.bks.cpg/sg15_6_cif.got.tgz:10011.got - 2010.06.03 18:47:42.
