data_PCOD9302250
_publ_section_title
;
Structure prediction by ZEFSAII (Michael W. Deem and Ramdas Pophale) SiO2 
 PCOD9302250
Probable space group: C 2/C
;
_chemical_formula_sum "Si O2"
_cell_formula_units_Z 64
_cell_length_a 12.129870
_cell_length_b 20.405558
_cell_length_c 18.509572
_cell_angle_alpha 90.000000
_cell_angle_beta 130.944386
_cell_angle_gamma 90.000000
_cell_volume 3460.564492
_symmetry_space_group_name_H-M "C 2/C"
_symmetry_group_IT_number 15
_symmetry_cell_setting 'monoclinic'
loop_
_space_group_symop_operation_xyz
x,y,z
-x,y,1/2-z
-x,-y,-z
x,-y,1/2+z
1/2+x,1/2+y,z
1/2-x,1/2+y,1/2-z
1/2-x,1/2-y,-z
1/2+x,1/2-y,1/2+z
loop_
_atom_site_type_symbol
_atom_site_label
_atom_site_fract_x
_atom_site_fract_y
_atom_site_fract_z
Si Si1 0.887136 0.992018 0.137133
Si Si2 0.368415 0.985079 0.249996
Si Si3 0.091156 0.440745 0.071686
Si Si4 0.366872 0.858283 0.749999
Si Si5 0.547497 0.684318 0.060508
Si Si6 0.052218 0.940742 0.071683
Si Si7 0.884249 0.143994 0.134247
Si Si8 0.073519 0.315686 0.560506
O O1 0.850158 0.067422 0.100153
O O2 0.000000 0.999500 0.250000
O O3 0.750966 0.952186 0.108359
O O4 0.965767 0.952185 0.108365
O O5 0.500000 0.980424 0.250000
O O6 0.339220 0.063202 0.249993
O O7 0.407428 0.950619 0.341940
O O8 0.223550 0.950615 0.158052
O O9 0.000000 0.500000 0.000000
O O10 0.020300 0.374657 0.013244
O O11 0.500000 0.852187 0.750000
O O12 0.217958 0.826843 0.654336
O O13 0.409285 0.826850 0.845665
O O14 0.457612 0.678078 0.096773
O O15 0.493821 0.625344 0.986762
O O16 0.506107 0.750001 0.999999
O O17 0.000000 0.000000 0.000000
O O18 0.735933 0.178074 0.096771
O O19 0.000000 0.144948 0.250000
#
# Coordination Sequence:
#
# PCOD9302250 Si02
#       8
#     8   8   8   8   8   8   8   8
#     4  11  22  41  68 100 134 172 224 279 329 389
#     4  11  24  42  67 103 137 169 223 286 330 385
#     4  12  24  41  68  98 130 174 225 273 328 387
#     4  11  24  46  69  95 133 179 225 274 332 397
#     4  12  27  45  68 100 137 180 222 268 337 403
#     4  12  24  41  68  98 130 174 225 273 328 387
#     4  11  21  43  73  94 133 176 219 276 335 400
#     4  12  27  45  68 100 137 180 222 268 337 403
#
# _framework density 18.494091999999998
#
# number of rings (size 3 to 8) (size 9 to 14) (size 15 to 20)
#    0.000    0.500    7.500    0.375    5.250    1.500 
#    0.000    0.000    0.000    0.000    0.000    0.000 
#    0.000    0.000    0.000    0.000    0.000    0.000 
#
# Total GULP energy -178851.190612 kJ/mol
# GULP energy per Si atom -5589.099707 kJ/mol
# Density = 1.845200 g / cm^3
# Si number density = 18.494092 Si / 1000 Ang^3
#
#
#
# Elastic Constant Matrix: (Units=GPa)
#
#
# Indices 1 2 3 4 5 6 
#
# 1 132.6263 46.3723 68.2521 0.0000 0.0252 0.0000
# 2 46.3723 151.1233 88.2426 0.0000 0.6590 0.0000
# 3 68.2521 88.2426 163.1832 0.0000 0.4725 0.0000
# 4 0.0000 0.0000 0.0000 33.3669 0.0000 0.2544
# 5 0.0252 0.6590 0.4725 0.0000 32.7006 0.0000
# 6 0.0000 0.0000 0.0000 0.2544 0.0000 17.0434
#
#
#
# Elastic Compliance Matrix: (Units=1/GPa)
#
#
# Indices 1 2 3 4 5 6 
#
# 1 0.009689 -0.000887 -0.003573 0.000000 0.000062 0.000000
# 2 -0.000887 0.009752 -0.004902 0.000000 -0.000125 0.000000
# 3 -0.003573 -0.004902 0.010274 0.000000 -0.000047 0.000000
# 4 0.000000 0.000000 0.000000 0.029973 0.000000 -0.000447
# 5 0.000062 -0.000125 -0.000047 0.000000 0.030584 0.000000
# 6 0.000000 0.000000 0.000000 -0.000447 0.000000 0.058680
#
#
# Mechanical properties :
#
#
# Convention : Reuss Voigt Hill
#
# Bulk Modulus (GPa) = 90.98964 94.74075 92.86519
# Shear Modulus (GPa) = 29.18177 32.89323 31.03750
#
# Velocity S-wave (km/s) = 3.97658 4.22190 4.10108
# Velocity P-wave (km/s) = 8.38990 8.66630 8.52922
#
# Compressibility (1/GPa) = 0.01099026
#
# Stress axis : x y z
#
# Youngs Moduli (GPa) = 103.21190 102.53942 97.33726
#
# Poissons Ratio (x) = 0.09096 0.34778
# Poissons Ratio (y) = 0.09155 0.47718
# Poissons Ratio (z) = 0.36877 0.50268
#
# Static dielectric constant tensor:
#      x y z
#    x 1.685860 0.000000 -0.001000 
#    y 0.000000 1.602380 0.000000 
#    z -0.001000 0.000000 1.621810 
# 
# From -- ./inp_files/200405.got.cif
#   From: 2010.05.17/outbox.cif.g08.bks.cpg/sg15_101_cif.got.tgz:200405.got - 2010.06.03 18:47:42.
