data_PCOD9302982
_publ_section_title
;
Structure prediction by ZEFSAII (Michael W. Deem and Ramdas Pophale) SiO2 
 PCOD9302982
Probable space group: C 2/C
;
_chemical_formula_sum "Si O2"
_cell_formula_units_Z 40
_cell_length_a 8.421556
_cell_length_b 31.300066
_cell_length_c 11.622624
_cell_angle_alpha 90.000000
_cell_angle_beta 41.793772
_cell_angle_gamma 90.000000
_cell_volume 2041.786317
_symmetry_space_group_name_H-M "C 2/C"
_symmetry_group_IT_number 15
_symmetry_cell_setting 'monoclinic'
loop_
_space_group_symop_operation_xyz
x,y,z
-x,y,1/2-z
-x,-y,-z
x,-y,1/2+z
1/2+x,1/2+y,z
1/2-x,1/2+y,1/2-z
1/2-x,1/2-y,-z
1/2+x,1/2-y,1/2+z
loop_
_atom_site_type_symbol
_atom_site_label
_atom_site_fract_x
_atom_site_fract_y
_atom_site_fract_z
Si Si1 0.306360 0.891913 0.256446
Si Si2 0.513861 0.952428 0.545770
Si Si3 0.731550 0.300042 0.202456
Si Si4 0.385993 0.453139 0.554927
Si Si5 0.755002 0.275225 0.617514
O O1 0.500000 0.884347 0.250000
O O2 0.205487 0.846450 0.272022
O O3 0.096369 0.920040 0.422762
O O4 0.420613 0.918608 0.088730
O O5 0.716698 0.951595 0.534392
O O6 0.270039 0.944244 0.747187
O O7 0.500000 0.000000 0.500000
O O8 0.500000 0.292400 0.250000
O O9 0.742614 0.261298 0.286817
O O10 0.997368 0.300374 0.003245
O O11 0.500000 0.500000 0.500000
O O12 0.500000 0.299614 0.750000
O O13 0.750000 0.250000 0.500000
#
# Coordination Sequence:
#
# PCOD9302982 Si02
#       5
#     8   8   8   8   8
#     4  12  25  42  64  92 129 170 214 267 319 377
#     4  11  23  40  63  92 124 166 216 263 322 379
#     4  11  22  41  66  95 128 165 210 264 319 383
#     4  11  23  40  64  90 125 167 213 265 320 382
#     4   9  19  39  65  91 124 162 203 250 315 384
#
# _framework density 19.590689000000001
#
# number of rings (size 3 to 8) (size 9 to 14) (size 15 to 20)
#    0.000    1.200    2.000    5.400    0.000    2.400 
#   10.800    0.000    0.000    0.000    0.000    0.000 
#    0.000    0.000    0.000    0.000    0.000    0.000 
#
# Total GULP energy -111686.904208 kJ/mol
# GULP energy per Si atom -5584.345210 kJ/mol
# Density = 1.954610 g / cm^3
# Si number density = 19.590689 Si / 1000 Ang^3
#
#
#
# Elastic Constant Matrix: (Units=GPa)
#
#
# Indices 1 2 3 4 5 6 
#
# 1 126.5903 17.9122 46.5154 0.0000 -11.1009 0.0000
# 2 17.9122 64.3851 6.8794 0.0000 -7.8633 0.0000
# 3 46.5154 6.8794 99.3476 0.0000 -15.1735 0.0000
# 4 0.0000 0.0000 0.0000 28.0212 0.0000 0.7072
# 5 -11.1009 -7.8633 -15.1735 0.0000 39.8024 0.0000
# 6 0.0000 0.0000 0.0000 0.7072 0.0000 29.8131
#
#
#
# Elastic Compliance Matrix: (Units=1/GPa)
#
#
# Indices 1 2 3 4 5 6 
#
# 1 0.009874 -0.002200 -0.004371 0.000000 0.000653 0.000000
# 2 -0.002200 0.016447 0.000312 0.000000 0.002754 0.000000
# 3 -0.004371 0.000312 0.012650 0.000000 0.003665 0.000000
# 4 0.000000 0.000000 0.000000 0.035709 0.000000 -0.000847
# 5 0.000653 0.002754 0.003665 0.000000 0.027248 0.000000
# 6 0.000000 0.000000 0.000000 -0.000847 0.000000 0.033562
#
#
# Mechanical properties :
#
#
# Convention : Reuss Voigt Hill
#
# Bulk Modulus (GPa) = 37.80340 48.10412 42.95376
# Shear Modulus (GPa) = 31.88239 34.12841 33.00540
#
# Velocity S-wave (km/s) = 4.03851 4.17834 4.10902
# Velocity P-wave (km/s) = 6.40973 6.91997 6.66973
#
# Compressibility (1/GPa) = 0.02645265
#
# Stress axis : x y z
#
# Youngs Moduli (GPa) = 101.27348 60.80234 79.04856
#
# Poissons Ratio (x) = 0.13378 0.34553
# Poissons Ratio (y) = 0.22283 -0.02466
# Poissons Ratio (z) = 0.44268 -0.01897
#
# Static dielectric constant tensor:
#      x y z
#    x 1.552260 0.000000 0.186810 
#    y 0.000000 1.649970 0.000000 
#    z 0.186810 0.000000 1.397940 
# 
# From -- ./inp_files/81988.got.cif
#   From: 2010.05.17/outbox.cif.g08.bks.cpg/sg15_41_cif.got.tgz:81988.got - 2010.06.03 18:47:42.
