data_PCOD9302441
_publ_section_title
;
Structure prediction by ZEFSAII (Michael W. Deem and Ramdas Pophale) SiO2 
 PCOD9302441
Probable space group: C 2/C
;
_chemical_formula_sum "Si O2"
_cell_formula_units_Z 60
_cell_length_a 16.892128
_cell_length_b 22.691112
_cell_length_c 8.640443
_cell_angle_alpha 90.000000
_cell_angle_beta 121.934164
_cell_angle_gamma 90.000000
_cell_volume 2810.658395
_symmetry_space_group_name_H-M "C 2/C"
_symmetry_group_IT_number 15
_symmetry_cell_setting 'monoclinic'
loop_
_space_group_symop_operation_xyz
x,y,z
-x,y,1/2-z
-x,-y,-z
x,-y,1/2+z
1/2+x,1/2+y,z
1/2-x,1/2+y,1/2-z
1/2-x,1/2-y,-z
1/2+x,1/2-y,1/2+z
loop_
_atom_site_type_symbol
_atom_site_label
_atom_site_fract_x
_atom_site_fract_y
_atom_site_fract_z
Si Si1 0.628641 0.470042 0.131833
Si Si2 0.500000 0.536643 0.750000
Si Si3 0.268192 0.566960 0.052875
Si Si4 0.856827 0.378075 0.693470
Si Si5 0.597762 0.007477 0.776053
Si Si6 0.742200 0.690955 0.305836
Si Si7 0.100694 0.271577 0.302466
Si Si8 0.559449 0.120628 0.548284
O O1 0.572961 0.433036 0.206417
O O2 0.673753 0.523219 0.276691
O O3 0.558394 0.496664 0.930524
O O4 0.703737 0.438984 0.099264
O O5 0.281430 0.633295 0.117809
O O6 0.161387 0.546500 0.954864
O O7 0.842684 0.448712 0.694933
O O8 0.777469 0.336897 0.681983
O O9 0.876707 0.367310 0.534308
O O10 0.953164 0.367776 0.886576
O O11 0.500000 0.988831 0.750000
O O12 0.573089 0.053328 0.615797
O O13 0.828896 0.723257 0.480095
O O14 0.653372 0.733034 0.227159
O O15 0.084226 0.336045 0.213233
O O16 0.000000 0.247942 0.250000
#
# Coordination Sequence:
#
# PCOD9302441 Si02
#       8
#     8   4   8   8   8   8   8   8
#     4   9  19  35  61  87 122 167 206 264 330 382
#     4   8  16  38  58  78 110 168 212 252 312 380
#     4  11  22  36  58  96 135 168 213 267 322 401
#     4  11  24  37  62  98 136 171 218 258 342 394
#     4  12  23  35  61  99 145 179 208 254 328 423
#     4  11  24  42  65  96 124 172 221 276 321 388
#     4  11  23  45  71  88 122 170 232 278 328 375
#     4  11  22  39  63  95 133 178 212 273 323 399
#
# _framework density 21.347311999999999
#
# number of rings (size 3 to 8) (size 9 to 14) (size 15 to 20)
#    0.000    1.333    4.000    2.400    3.733    0.533 
#    7.200    0.000    0.000    1.600    0.000    0.000 
#    0.000    0.000    0.000    0.000    0.000    0.000 
#
# Total GULP energy -167527.916576 kJ/mol
# GULP energy per Si atom -5584.263886 kJ/mol
# Density = 2.129872 g / cm^3
# Si number density = 21.347312 Si / 1000 Ang^3
#
#
#
# Elastic Constant Matrix: (Units=GPa)
#
#
# Indices 1 2 3 4 5 6 
#
# 1 121.7868 28.9686 23.4770 0.0000 -21.5896 0.0000
# 2 28.9686 58.3685 -1.6633 0.0000 1.1808 0.0000
# 3 23.4770 -1.6633 73.9170 0.0000 -2.1696 0.0000
# 4 0.0000 0.0000 0.0000 19.0692 0.0000 -8.1279
# 5 -21.5896 1.1808 -2.1696 0.0000 34.5248 0.0000
# 6 0.0000 0.0000 0.0000 -8.1279 0.0000 21.8419
#
#
#
# Elastic Compliance Matrix: (Units=1/GPa)
#
#
# Indices 1 2 3 4 5 6 
#
# 1 0.011624 -0.006019 -0.003615 0.000000 0.007248 0.000000
# 2 -0.006019 0.020271 0.002241 0.000000 -0.004316 0.000000
# 3 -0.003615 0.002241 0.014686 0.000000 -0.001414 0.000000
# 4 0.000000 0.000000 0.000000 0.062326 0.000000 0.023193
# 5 0.007248 -0.004316 -0.001414 0.000000 0.033556 0.000000
# 6 0.000000 0.000000 0.000000 0.023193 0.000000 0.054414
#
#
# Mechanical properties :
#
#
# Convention : Reuss Voigt Hill
#
# Bulk Modulus (GPa) = 31.45050 39.51521 35.48285
# Shear Modulus (GPa) = 22.49605 28.63985 25.56795
#
# Velocity S-wave (km/s) = 3.24977 3.66678 3.46455
# Velocity P-wave (km/s) = 5.37085 6.03969 5.71506
#
# Compressibility (1/GPa) = 0.03179600
#
# Stress axis : x y z
#
# Youngs Moduli (GPa) = 86.02574 49.33173 68.09347
#
# Poissons Ratio (x) = 0.29692 0.24614
# Poissons Ratio (y) = 0.51778 -0.15261
# Poissons Ratio (z) = 0.31096 -0.11056
#
# Static dielectric constant tensor:
#      x y z
#    x 1.886810 0.000000 -0.005000 
#    y 0.000000 1.744000 0.000000 
#    z -0.005000 0.000000 1.790050 
# 
# From -- ./inp_files/50665.got.cif
#   From: 2010.05.17/outbox.cif.g08.bks.cpg/sg15_26_cif.got.tgz:50665.got - 2010.06.03 18:47:42.
