data_PCOD9302335
_publ_section_title
;
Structure prediction by ZEFSAII (Michael W. Deem and Ramdas Pophale) SiO2 
 PCOD9302335
Probable space group: C 2/C
;
_chemical_formula_sum "Si O2"
_cell_formula_units_Z 56
_cell_length_a 12.218817
_cell_length_b 8.005035
_cell_length_c 25.183067
_cell_angle_alpha 90.000000
_cell_angle_beta 120.694788
_cell_angle_gamma 90.000000
_cell_volume 2118.109042
_symmetry_space_group_name_H-M "C 2/C"
_symmetry_group_IT_number 15
_symmetry_cell_setting 'monoclinic'
loop_
_space_group_symop_operation_xyz
x,y,z
-x,y,1/2-z
-x,-y,-z
x,-y,1/2+z
1/2+x,1/2+y,z
1/2-x,1/2+y,1/2-z
1/2-x,1/2-y,-z
1/2+x,1/2-y,1/2+z
loop_
_atom_site_type_symbol
_atom_site_label
_atom_site_fract_x
_atom_site_fract_y
_atom_site_fract_z
Si Si1 0.500000 0.364147 0.750000
Si Si2 0.000000 0.352179 0.750000
Si Si3 0.601862 0.546190 0.380276
Si Si4 0.600056 0.614376 0.602728
Si Si5 0.750331 0.329533 0.348329
Si Si6 0.193602 0.592488 0.757406
Si Si7 0.519225 0.991988 0.567720
Si Si8 0.716289 0.871557 0.442602
O O1 0.477947 0.475942 0.693363
O O2 0.620421 0.253170 0.762723
O O3 0.876722 0.285399 0.685622
O O4 0.918937 0.457855 0.772495
O O5 0.531011 0.474644 0.413539
O O6 0.724512 0.442007 0.394236
O O7 0.636865 0.740478 0.387429
O O8 0.697918 0.554040 0.672663
O O9 0.665282 0.568341 0.562972
O O10 0.584405 0.815241 0.599132
O O11 0.748642 0.387229 0.286269
O O12 0.905117 0.339325 0.394118
O O13 0.380444 0.992044 0.560508
O O14 0.500000 0.000000 0.500000
O O15 0.750000 0.750000 0.500000
#
# Coordination Sequence:
#
# PCOD9302335 Si02
#       8
#     4   4   8   8   8   8   8   8
#     4  11  21  46  66 106 154 198 244 316 388 470
#     4  11  29  44  70 122 152 206 262 324 402 486
#     4  12  26  46  74 114 151 203 255 323 398 479
#     4  12  27  48  79 115 157 201 268 326 404 476
#     4  12  26  45  79 112 165 202 267 326 407 477
#     4  11  26  44  75 110 160 206 256 321 404 477
#     4  12  27  55  83 114 162 217 270 337 402 481
#     4  12  26  53  80 106 155 210 267 331 396 470
#
# _framework density 26.438679
#
# number of rings (size 3 to 8) (size 9 to 14) (size 15 to 20)
#    0.000    0.286    4.286    3.000   12.000    0.571 
#    0.000    1.429    0.000    0.000    0.000    0.000 
#    0.000    0.000    0.000    0.000    0.000    0.000 
#
# Total GULP energy -156336.720660 kJ/mol
# GULP energy per Si atom -5583.454309 kJ/mol
# Density = 2.637850 g / cm^3
# Si number density = 26.438679 Si / 1000 Ang^3
#
#
#
# Elastic Constant Matrix: (Units=GPa)
#
#
# Indices 1 2 3 4 5 6 
#
# 1 166.9222 37.6870 19.3260 0.0000 -40.6650 0.0000
# 2 37.6870 56.4411 -1.5076 0.0000 0.8574 0.0000
# 3 19.3260 -1.5076 123.7002 0.0000 -13.5892 0.0000
# 4 0.0000 0.0000 0.0000 24.8032 0.0000 -11.3695
# 5 -40.6650 0.8574 -13.5892 0.0000 48.6111 0.0000
# 6 0.0000 0.0000 0.0000 -11.3695 0.0000 -32.5437
#
#
#
# Elastic Compliance Matrix: (Units=1/GPa)
#
#
# Indices 1 2 3 4 5 6 
#
# 1 0.009424 -0.006429 -0.000693 0.000000 0.007803 0.000000
# 2 -0.006429 0.022113 0.000661 0.000000 -0.005584 0.000000
# 3 -0.000693 0.000661 0.008393 0.000000 0.001755 0.000000
# 4 0.000000 0.000000 0.000000 0.034752 0.000000 -0.012141
# 5 0.007803 -0.005584 0.001755 0.000000 0.027688 0.000000
# 6 0.000000 0.000000 0.000000 -0.012141 0.000000 -0.026486
#
#
# Mechanical properties :
#
#
# Convention : Reuss Voigt Hill
#
# Bulk Modulus (GPa) = 37.02972 50.89715 43.96343
# Shear Modulus (GPa) = 51.11970 27.61132 39.36551
#
# Velocity S-wave (km/s) = 4.40195 3.23515 3.86286
# Velocity P-wave (km/s) = 6.31447 5.76609 6.04650
#
# Compressibility (1/GPa) = 0.02700534
#
# Stress axis : x y z
#
# Youngs Moduli (GPa) = 106.11697 45.22209 119.14407
#
# Poissons Ratio (x) = 0.29075 0.08262
# Poissons Ratio (y) = 0.68227 -0.07870
# Poissons Ratio (z) = 0.07359 -0.02987
#
# Static dielectric constant tensor:
#      x y z
#    x 2.118030 0.000000 0.038270 
#    y 0.000000 2.522890 0.000000 
#    z 0.038270 0.000000 2.108270 
# 
# From -- ./inp_files/291648.got.cif
#   From: 2010.05.17/outbox.cif.g08.bks.cpg/sg15_146_cif.got.tgz:291648.got - 2010.06.03 18:47:42.
