data_PCOD9302002
_publ_section_title
;
Structure prediction by ZEFSAII (Michael W. Deem and Ramdas Pophale) SiO2 
 PCOD9302002
Probable space group: C 2/C
;
_chemical_formula_sum "Si O2"
_cell_formula_units_Z 28
_cell_length_a 14.422994
_cell_length_b 14.214478
_cell_length_c 10.869223
_cell_angle_alpha 90.000000
_cell_angle_beta 148.297404
_cell_angle_gamma 90.000000
_cell_volume 1171.024516
_symmetry_space_group_name_H-M "C 2/C"
_symmetry_group_IT_number 15
_symmetry_cell_setting 'monoclinic'
loop_
_space_group_symop_operation_xyz
x,y,z
-x,y,1/2-z
-x,-y,-z
x,-y,1/2+z
1/2+x,1/2+y,z
1/2-x,1/2+y,1/2-z
1/2-x,1/2-y,-z
1/2+x,1/2-y,1/2+z
loop_
_atom_site_type_symbol
_atom_site_label
_atom_site_fract_x
_atom_site_fract_y
_atom_site_fract_z
Si Si1 0.500000 0.649967 0.750000
Si Si2 0.935302 0.776545 0.920080
Si Si3 0.898141 0.604326 0.508858
Si Si4 0.331470 0.563541 0.776055
O O1 0.412220 0.709223 0.541344
O O2 0.354459 0.587658 0.656640
O O3 0.779728 0.831895 0.675564
O O4 0.980523 0.671110 0.936931
O O5 0.116246 0.837997 0.101306
O O6 0.830864 0.504303 0.382970
O O7 0.000000 0.589590 0.750000
O O8 0.500000 0.500000 0.000000
#
# Coordination Sequence:
#
# PCOD9302002 Si02
#       4
#     4   8   8   8
#     4   8  18  42  68  86 132 174 218 258 340 384
#     4   9  21  41  65  96 133 171 216 273 332 382
#     4  11  21  41  65 105 129 172 221 274 324 395
#     4   8  18  41  63  89 127 179 211 258 328 392
#
# _framework density 23.910686999999999
#
# number of rings (size 3 to 8) (size 9 to 14) (size 15 to 20)
#    1.714    1.143    0.000    0.857    0.000    1.143 
#   20.571    5.714    0.000    0.000    0.000    0.000 
#    0.000    0.000    0.000    0.000    0.000    0.000 
#
# Total GULP energy -78022.910351 kJ/mol
# GULP energy per Si atom -5573.065025 kJ/mol
# Density = 2.385627 g / cm^3
# Si number density = 23.910687 Si / 1000 Ang^3
#
#
#
# Elastic Constant Matrix: (Units=GPa)
#
#
# Indices 1 2 3 4 5 6 
#
# 1 46.4782 21.4196 21.7832 0.0000 28.0076 0.0000
# 2 21.4196 138.9215 33.4392 0.0000 7.7738 0.0000
# 3 21.7832 33.4392 141.3510 0.0000 9.9597 0.0000
# 4 0.0000 0.0000 0.0000 61.8482 0.0000 -30.6978
# 5 28.0076 7.7738 9.9597 0.0000 28.3776 0.0000
# 6 0.0000 0.0000 0.0000 -30.6978 0.0000 105.2666
#
#
#
# Elastic Compliance Matrix: (Units=1/GPa)
#
#
# Indices 1 2 3 4 5 6 
#
# 1 0.059334 -0.005061 -0.004017 0.000000 -0.055764 0.000000
# 2 -0.005061 0.008127 -0.001372 0.000000 0.003250 0.000000
# 3 -0.004017 -0.001372 0.007908 0.000000 0.001565 0.000000
# 4 0.000000 0.000000 0.000000 0.018905 0.000000 0.005513
# 5 -0.055764 0.003250 0.001565 0.000000 0.088836 0.000000
# 6 0.000000 0.000000 0.000000 0.005513 0.000000 0.011107
#
#
# Mechanical properties :
#
#
# Convention : Reuss Voigt Hill
#
# Bulk Modulus (GPa) = 18.35916 53.33717 35.84817
# Shear Modulus (GPa) = 21.43412 55.77238 38.60325
#
# Velocity S-wave (km/s) = 2.99728 4.83487 4.02241
# Velocity P-wave (km/s) = 4.43544 7.31595 6.04964
#
# Compressibility (1/GPa) = 0.05446872
#
# Stress axis : x y z
#
# Youngs Moduli (GPa) = 16.85383 123.04779 126.45601
#
# Poissons Ratio (x) = 0.62273 0.50802
# Poissons Ratio (y) = 0.08530 0.17345
# Poissons Ratio (z) = 0.06771 0.16878
#
# Static dielectric constant tensor:
#      x y z
#    x 1.993890 0.000000 0.071480 
#    y 0.000000 1.975270 0.000000 
#    z 0.071480 0.000000 1.949820 
# 
# From -- ./inp_files/105076.got.cif
#   From: 2010.05.17/outbox.cif.g08.bks.cpg/sg15_53_cif.got.tgz:105076.got - 2010.06.03 18:47:42.
