data_PCOD9302309
_publ_section_title
;
Structure prediction by ZEFSAII (Michael W. Deem and Ramdas Pophale) SiO2 
 PCOD9302309
Probable space group: C 2/C
;
_chemical_formula_sum "Si O2"
_cell_formula_units_Z 56
_cell_length_a 20.943027
_cell_length_b 10.890716
_cell_length_c 22.208871
_cell_angle_alpha 90.000000
_cell_angle_beta 155.404315
_cell_angle_gamma 90.000000
_cell_volume 2108.323715
_symmetry_space_group_name_H-M "C 2/C"
_symmetry_group_IT_number 15
_symmetry_cell_setting 'monoclinic'
loop_
_space_group_symop_operation_xyz
x,y,z
-x,y,1/2-z
-x,-y,-z
x,-y,1/2+z
1/2+x,1/2+y,z
1/2-x,1/2+y,1/2-z
1/2-x,1/2-y,-z
1/2+x,1/2-y,1/2+z
loop_
_atom_site_type_symbol
_atom_site_label
_atom_site_fract_x
_atom_site_fract_y
_atom_site_fract_z
Si Si1 0.573696 0.289578 0.751070
Si Si2 0.337925 0.995937 0.165779
Si Si3 0.356456 0.861631 0.392876
Si Si4 0.105680 0.275593 0.516442
Si Si5 0.371230 0.358317 0.089010
Si Si6 0.567432 0.198163 0.181034
Si Si7 0.670914 0.455528 0.144587
O O1 0.500000 0.333222 0.750000
O O2 0.466014 0.302374 0.600388
O O3 0.595298 0.140423 0.777038
O O4 0.744217 0.339305 0.882889
O O5 0.444499 0.113897 0.268989
O O6 0.254860 0.009970 0.159276
O O7 0.229541 0.024621 0.016921
O O8 0.465724 0.843302 0.428199
O O9 0.471925 0.870644 0.547202
O O10 0.232254 0.755756 0.303328
O O11 0.252087 0.972257 0.278261
O O12 0.163236 0.187587 0.619317
O O13 0.500000 0.378185 0.250000
O O14 0.466124 0.317056 0.111570
O O15 0.250000 0.250000 0.000000
O O16 0.500000 0.500000 0.000000
#
# Coordination Sequence:
#
# PCOD9302309 Si02
#       7
#     8   8   8   8   8   8   8
#     4  11  25  45  71  96 137 182 240 295 343 413
#     4  11  24  42  66 101 138 176 239 290 340 417
#     4  12  21  41  69  99 141 185 226 283 360 424
#     4  11  21  45  69  96 132 187 224 281 365 402
#     4  12  24  43  69  97 140 191 233 285 363 425
#     4  12  23  40  68 101 137 187 232 283 360 428
#     4  11  23  41  68 101 145 176 228 297 348 418
#
# _framework density 26.561385000000001
#
# number of rings (size 3 to 8) (size 9 to 14) (size 15 to 20)
#    0.000    0.571    7.143    2.143    2.000    0.571 
#    2.571    5.714    0.000    0.000    0.000    0.000 
#    0.000    0.000    0.000    0.000    0.000    0.000 
#
# Total GULP energy -156614.354482 kJ/mol
# GULP energy per Si atom -5593.369803 kJ/mol
# Density = 2.650093 g / cm^3
# Si number density = 26.561385 Si / 1000 Ang^3
#
#
#
# Elastic Constant Matrix: (Units=GPa)
#
#
# Indices 1 2 3 4 5 6 
#
# 1 147.3972 12.5240 68.8009 -0.0002 12.5474 0.0000
# 2 12.5240 74.5998 17.2686 -0.0008 0.5763 -0.0002
# 3 68.8009 17.2686 205.1578 -0.0016 -25.9558 -0.0004
# 4 -0.0002 -0.0008 -0.0016 38.6652 -0.0008 -1.8434
# 5 12.5474 0.5763 -25.9558 -0.0008 63.5606 -0.0001
# 6 0.0000 -0.0002 -0.0004 -1.8434 -0.0001 26.9779
#
#
#
# Elastic Compliance Matrix: (Units=1/GPa)
#
#
# Indices 1 2 3 4 5 6 
#
# 1 0.008593 -0.000678 -0.003204 0.000000 -0.002998 0.000000
# 2 -0.000678 0.013748 -0.000979 0.000000 -0.000391 0.000000
# 3 -0.003204 -0.000979 0.006445 0.000000 0.003273 0.000000
# 4 0.000000 0.000000 0.000000 0.025948 0.000000 0.001773
# 5 -0.002998 -0.000391 0.003273 0.000000 0.017665 0.000000
# 6 0.000000 0.000000 0.000000 0.001773 0.000000 0.037189
#
#
# Mechanical properties :
#
#
# Convention : Reuss Voigt Hill
#
# Bulk Modulus (GPa) = 52.45409 69.37132 60.91271
# Shear Modulus (GPa) = 39.78841 47.74482 43.76662
#
# Velocity S-wave (km/s) = 3.87457 4.24433 4.06366
# Velocity P-wave (km/s) = 6.30932 7.08471 6.70823
#
# Compressibility (1/GPa) = 0.01906429
#
# Stress axis : x y z
#
# Youngs Moduli (GPa) = 116.37739 72.73588 155.15103
#
# Poissons Ratio (x) = 0.04930 0.49709
# Poissons Ratio (y) = 0.07887 0.15195
# Poissons Ratio (z) = 0.37287 0.07124
#
# Static dielectric constant tensor:
#      x y z
#    x 2.029940 0.000000 0.106940 
#    y 0.000000 2.586020 0.000010 
#    z 0.106940 0.000010 2.201540 
# 
# From -- ./inp_files/282120.got.cif
#   From: 2010.05.17/outbox.cif.g08.bks.cpg/sg15_142_cif.got.tgz:282120.got - 2010.06.03 18:47:42.
