data_PCOD9302282
_publ_section_title
;
Structure prediction by ZEFSAII (Michael W. Deem and Ramdas Pophale) SiO2 
 PCOD9302282
Probable space group: C 2/C
;
_chemical_formula_sum "Si O2"
_cell_formula_units_Z 40
_cell_length_a 13.723766
_cell_length_b 11.227774
_cell_length_c 24.239701
_cell_angle_alpha 90.000000
_cell_angle_beta 32.693624
_cell_angle_gamma 90.000000
_cell_volume 2017.464631
_symmetry_space_group_name_H-M "C 2/C"
_symmetry_group_IT_number 15
_symmetry_cell_setting 'monoclinic'
loop_
_space_group_symop_operation_xyz
x,y,z
-x,y,1/2-z
-x,-y,-z
x,-y,1/2+z
1/2+x,1/2+y,z
1/2-x,1/2+y,1/2-z
1/2-x,1/2-y,-z
1/2+x,1/2-y,1/2+z
loop_
_atom_site_type_symbol
_atom_site_label
_atom_site_fract_x
_atom_site_fract_y
_atom_site_fract_z
Si Si1 0.887498 0.779856 0.885295
Si Si2 0.657868 0.511521 0.282600
Si Si3 0.981756 0.488483 0.321169
Si Si4 0.684267 0.384042 0.035602
Si Si5 0.785493 0.513623 0.098924
O O1 0.965431 0.654543 0.828840
O O2 0.783404 0.855546 0.887637
O O3 0.042299 0.866984 0.834890
O O4 0.750000 0.750000 0.000000
O O5 0.526905 0.412365 0.371937
O O6 0.703993 0.482394 0.197033
O O7 0.842464 0.523713 0.227671
O O8 0.806139 0.539779 0.435570
O O9 0.000000 0.532301 0.250000
O O10 0.721327 0.429954 0.079848
O O11 0.750000 0.250000 0.000000
O O12 0.000000 0.500000 0.000000
#
# Coordination Sequence:
#
# PCOD9302282 Si02
#       5
#     8   8   8   8   8
#     4  11  21  44  71  98 132 173 228 277 329 404
#     4  11  24  44  70  95 132 180 223 273 333 397
#     4  12  26  44  65 100 137 176 223 276 342 394
#     4  11  25  44  63 101 137 169 223 277 334 400
#     4  11  21  44  74  99 126 176 229 272 329 403
#
# _framework density 19.826865000000002
#
# number of rings (size 3 to 8) (size 9 to 14) (size 15 to 20)
#    0.000    0.800    6.000    3.600    2.800    4.000 
#    3.600    0.000    0.000    0.000    0.000    0.000 
#    0.000    0.000    0.000    0.000    0.000    0.000 
#
# Total GULP energy -111796.387147 kJ/mol
# GULP energy per Si atom -5589.819357 kJ/mol
# Density = 1.978174 g / cm^3
# Si number density = 19.826865 Si / 1000 Ang^3
#
#
#
# Elastic Constant Matrix: (Units=GPa)
#
#
# Indices 1 2 3 4 5 6 
#
# 1 87.0561 1.6050 48.6373 0.0000 16.8526 0.0000
# 2 1.6050 101.0456 29.4942 0.0000 4.7480 0.0000
# 3 48.6373 29.4942 161.0070 -0.0001 11.6514 0.0000
# 4 0.0000 0.0000 -0.0001 31.9835 0.0000 -6.6571
# 5 16.8526 4.7480 11.6514 0.0000 39.4545 0.0000
# 6 0.0000 0.0000 0.0000 -6.6571 0.0000 9.0142
#
#
#
# Elastic Compliance Matrix: (Units=1/GPa)
#
#
# Indices 1 2 3 4 5 6 
#
# 1 0.014913 0.001282 -0.004361 0.000000 -0.005237 0.000000
# 2 0.001282 0.010585 -0.002242 0.000000 -0.001159 0.000000
# 3 -0.004361 -0.002242 0.007955 0.000000 -0.000217 0.000000
# 4 0.000000 0.000000 0.000000 0.036945 0.000000 0.027284
# 5 -0.005237 -0.001159 -0.000217 0.000000 0.027786 0.000000
# 6 0.000000 0.000000 0.000000 0.027284 0.000000 0.131086
#
#
# Mechanical properties :
#
#
# Convention : Reuss Voigt Hill
#
# Bulk Modulus (GPa) = 43.83928 56.50906 50.17417
# Shear Modulus (GPa) = 20.20071 34.04860 27.12465
#
# Velocity S-wave (km/s) = 3.19541 4.14852 3.70276
# Velocity P-wave (km/s) = 5.98108 7.17706 6.60619
#
# Compressibility (1/GPa) = 0.02281059
#
# Stress axis : x y z
#
# Youngs Moduli (GPa) = 67.05407 94.47173 125.71136
#
# Poissons Ratio (x) = -0.12112 0.54822
# Poissons Ratio (y) = -0.08597 0.28190
# Poissons Ratio (z) = 0.29242 0.21185
#
# Static dielectric constant tensor:
#      x y z
#    x 1.690390 0.000000 -0.014560 
#    y 0.000000 1.704720 0.000000 
#    z -0.014560 0.000000 1.708480 
# 
# From -- ./inp_files/142109.got.cif
#   From: 2010.05.17/outbox.cif.g08.bks.cpg/sg15_72_cif.got.tgz:142109.got - 2010.06.03 18:47:42.
