data_PCOD9302411
_publ_section_title
;
Structure prediction by ZEFSAII (Michael W. Deem and Ramdas Pophale) SiO2 
 PCOD9302411
Probable space group: C 2/C
;
_chemical_formula_sum "Si O2"
_cell_formula_units_Z 44
_cell_length_a 11.482774
_cell_length_b 23.207359
_cell_length_c 11.647367
_cell_angle_alpha 90.000000
_cell_angle_beta 39.820175
_cell_angle_gamma 90.000000
_cell_volume 1987.642091
_symmetry_space_group_name_H-M "C 2/C"
_symmetry_group_IT_number 15
_symmetry_cell_setting 'monoclinic'
loop_
_space_group_symop_operation_xyz
x,y,z
-x,y,1/2-z
-x,-y,-z
x,-y,1/2+z
1/2+x,1/2+y,z
1/2-x,1/2+y,1/2-z
1/2-x,1/2-y,-z
1/2+x,1/2-y,1/2+z
loop_
_atom_site_type_symbol
_atom_site_label
_atom_site_fract_x
_atom_site_fract_y
_atom_site_fract_z
Si Si1 0.785623 0.814298 0.432476
Si Si2 0.786930 0.990013 0.439936
Si Si3 0.829243 0.096249 0.090915
Si Si4 0.765796 0.597686 0.714172
Si Si5 0.500000 0.129021 0.750000
Si Si6 0.705885 0.377129 0.620713
O O1 0.750000 0.750000 0.500000
O O2 0.748102 0.856980 0.565649
O O3 0.702717 0.842547 0.380505
O O4 0.000000 0.819226 0.250000
O O5 0.760587 0.963755 0.587017
O O6 0.694578 0.952735 0.408680
O O7 0.000000 0.979873 0.250000
O O8 0.762248 0.057610 0.449589
O O9 0.772324 0.114286 0.260437
O O10 0.051706 0.095292 0.914521
O O11 0.891282 0.597084 0.729965
O O12 0.654315 0.160918 0.558099
O O13 0.500000 0.360370 0.750000
#
# Coordination Sequence:
#
# PCOD9302411 Si02
#       6
#     8   8   8   8   4   8
#     4   9  19  37  66  88 111 145 190 247 289 339
#     4   8  18  33  57  80 108 155 200 240 276 329
#     4   9  18  38  59  81 113 154 197 236 288 339
#     4   9  19  37  55  84 117 148 193 237 284 343
#     4  12  24  34  54  86 122 152 194 234 282 348
#     4  11  22  35  57  81 118 163 192 233 287 341
#
# _framework density 22.136780000000002
#
# number of rings (size 3 to 8) (size 9 to 14) (size 15 to 20)
#    0.000    2.545    1.818    2.182    2.545    4.364 
#    0.000    1.818    2.000    3.273    0.000    0.000 
#    0.000    0.000    0.000    0.000    0.000    0.000 
#
# Total GULP energy -122696.669622 kJ/mol
# GULP energy per Si atom -5577.121346 kJ/mol
# Density = 2.208640 g / cm^3
# Si number density = 22.136780 Si / 1000 Ang^3
#
#
#
# Elastic Constant Matrix: (Units=GPa)
#
#
# Indices 1 2 3 4 5 6 
#
# 1 136.4797 -2.6829 43.3560 0.0000 17.2570 0.0000
# 2 -2.6829 30.9709 2.9264 0.0000 -8.1343 0.0000
# 3 43.3560 2.9264 128.3075 0.0000 29.1731 0.0000
# 4 0.0000 0.0000 0.0000 13.2205 0.0000 -2.4990
# 5 17.2570 -8.1343 29.1731 0.0000 31.1852 0.0000
# 6 0.0000 0.0000 0.0000 -2.4990 0.0000 2.2774
#
#
#
# Elastic Compliance Matrix: (Units=1/GPa)
#
#
# Indices 1 2 3 4 5 6 
#
# 1 0.008364 0.000307 -0.002285 0.000000 -0.002410 0.000000
# 2 0.000307 0.036047 -0.003842 0.000000 0.012827 0.000000
# 3 -0.002285 -0.003842 0.010916 0.000000 -0.009949 0.000000
# 4 0.000000 0.000000 0.000000 0.095434 0.000000 0.104718
# 5 -0.002410 0.012827 -0.009949 0.000000 0.046053 0.000000
# 6 0.000000 0.000000 0.000000 0.104718 0.000000 0.553999
#
#
# Mechanical properties :
#
#
# Convention : Reuss Voigt Hill
#
# Bulk Modulus (GPa) = 22.89058 42.55078 32.72068
# Shear Modulus (GPa) = 6.43488 26.14720 16.29104
#
# Velocity S-wave (km/s) = 1.70680 3.44054 2.71574
# Velocity P-wave (km/s) = 3.77455 5.92001 4.96456
#
# Compressibility (1/GPa) = 0.04368610
#
# Stress axis : x y z
#
# Youngs Moduli (GPa) = 119.56206 27.74157 91.61100
#
# Poissons Ratio (x) = -0.00853 0.20935
# Poissons Ratio (y) = -0.03675 0.35201
# Poissons Ratio (z) = 0.27322 0.10660
#
# Static dielectric constant tensor:
#      x y z
#    x 1.817720 0.000000 -0.025190 
#    y 0.000000 1.228360 0.000000 
#    z -0.025190 0.000000 1.930810 
# 
# From -- ./inp_files/32763.got.cif
#   From: 2010.05.17/outbox.cif.g08.bks.cpg/sg15_17_cif.got.tgz:32763.got - 2010.06.03 18:47:42.
