data_PCOD9302340
_publ_section_title
;
Structure prediction by ZEFSAII (Michael W. Deem and Ramdas Pophale) SiO2 
 PCOD9302340
Probable space group: C 2/C
;
_chemical_formula_sum "Si O2"
_cell_formula_units_Z 48
_cell_length_a 17.184122
_cell_length_b 8.794224
_cell_length_c 18.462293
_cell_angle_alpha 90.000000
_cell_angle_beta 119.118112
_cell_angle_gamma 90.000000
_cell_volume 2437.430848
_symmetry_space_group_name_H-M "C 2/C"
_symmetry_group_IT_number 15
_symmetry_cell_setting 'monoclinic'
loop_
_space_group_symop_operation_xyz
x,y,z
-x,y,1/2-z
-x,-y,-z
x,-y,1/2+z
1/2+x,1/2+y,z
1/2-x,1/2+y,1/2-z
1/2-x,1/2-y,-z
1/2+x,1/2-y,1/2+z
loop_
_atom_site_type_symbol
_atom_site_label
_atom_site_fract_x
_atom_site_fract_y
_atom_site_fract_z
Si Si1 0.667273 0.676392 0.148434
Si Si2 0.684633 0.185072 0.031279
Si Si3 0.337571 0.830003 0.507519
Si Si4 0.807312 0.174244 0.813717
Si Si5 0.507040 0.308920 0.339458
Si Si6 0.020925 0.092680 0.434159
O O1 0.648300 0.739313 0.060359
O O2 0.737552 0.782345 0.220239
O O3 0.700425 0.501798 0.165767
O O4 0.569020 0.667045 0.137590
O O5 0.593065 0.279568 0.981839
O O6 0.750000 0.250000 0.000000
O O7 0.713910 0.222517 0.126357
O O8 0.676067 0.006355 0.015531
O O9 0.250000 0.750000 0.500000
O O10 0.423306 0.812841 0.598043
O O11 0.908307 0.201449 0.830340
O O12 0.500000 0.304590 0.250000
O O13 0.548566 0.467185 0.387947
O O14 0.000000 0.000000 0.500000
#
# Coordination Sequence:
#
# PCOD9302340 Si02
#       6
#     8   8   8   8   8   8
#     4  11  22  40  67  93 138 174 224 279 342 408
#     4  12  25  42  69  95 134 180 230 281 352 418
#     4  12  24  41  65  96 132 179 230 282 343 416
#     4  11  23  41  63 101 134 177 224 284 338 410
#     4  11  23  42  68  95 136 175 224 280 353 408
#     4  11  21  46  68  95 137 182 221 287 348 413
#
# _framework density 19.692867
#
# number of rings (size 3 to 8) (size 9 to 14) (size 15 to 20)
#    0.000    0.667    5.000    4.000    0.000    8.000 
#    0.000    0.833    0.000    0.000    0.000    0.000 
#    0.000    0.000    0.000    0.000    0.000    0.000 
#
# Total GULP energy -134105.185974 kJ/mol
# GULP energy per Si atom -5587.716082 kJ/mol
# Density = 1.964804 g / cm^3
# Si number density = 19.692867 Si / 1000 Ang^3
#
#
#
# Elastic Constant Matrix: (Units=GPa)
#
#
# Indices 1 2 3 4 5 6 
#
# 1 60.6363 41.7865 20.5963 0.0000 -3.9461 0.0000
# 2 41.7865 131.4497 43.9491 0.0000 -6.1928 0.0000
# 3 20.5963 43.9491 133.2138 0.0000 -7.6008 0.0000
# 4 0.0000 0.0000 0.0000 34.6712 0.0000 4.7349
# 5 -3.9461 -6.1928 -7.6008 0.0000 40.6038 0.0000
# 6 0.0000 0.0000 0.0000 4.7349 0.0000 31.8361
#
#
#
# Elastic Compliance Matrix: (Units=1/GPa)
#
#
# Indices 1 2 3 4 5 6 
#
# 1 0.021316 -0.006350 -0.001150 0.000000 0.000888 0.000000
# 2 -0.006350 0.010467 -0.002442 0.000000 0.000522 0.000000
# 3 -0.001150 -0.002442 0.008554 0.000000 0.001117 0.000000
# 4 0.000000 0.000000 0.000000 0.029440 0.000000 -0.004379
# 5 0.000888 0.000522 0.001117 0.000000 0.025003 0.000000
# 6 0.000000 0.000000 0.000000 -0.004379 0.000000 0.032062
#
#
# Mechanical properties :
#
#
# Convention : Reuss Voigt Hill
#
# Bulk Modulus (GPa) = 48.89098 59.77375 54.33236
# Shear Modulus (GPa) = 32.56403 36.02008 34.29205
#
# Velocity S-wave (km/s) = 4.07085 4.28143 4.17747
# Velocity P-wave (km/s) = 6.85394 7.40674 7.13569
#
# Compressibility (1/GPa) = 0.02045367
#
# Stress axis : x y z
#
# Youngs Moduli (GPa) = 46.91291 95.53878 116.90672
#
# Poissons Ratio (x) = 0.60665 0.13446
# Poissons Ratio (y) = 0.29789 0.28545
# Poissons Ratio (z) = 0.05396 0.23327
#
# Static dielectric constant tensor:
#      x y z
#    x 1.854870 0.000000 -0.016510 
#    y 0.000000 1.829490 0.000000 
#    z -0.016510 0.000000 1.707640 
# 
# From -- ./inp_files/209263.got.cif
#   From: 2010.05.17/outbox.cif.g08.bks.cpg/sg15_105_cif.got.tgz:209263.got - 2010.06.03 18:47:42.
