data_PCOD9302955
_publ_section_title
;
Structure prediction by ZEFSAII (Michael W. Deem and Ramdas Pophale) SiO2 
 PCOD9302955
Probable space group: C 2/C
;
_chemical_formula_sum "Si O2"
_cell_formula_units_Z 64
_cell_length_a 17.613819
_cell_length_b 15.022858
_cell_length_c 15.086122
_cell_angle_alpha 90.000000
_cell_angle_beta 139.220075
_cell_angle_gamma 90.000000
_cell_volume 2607.355105
_symmetry_space_group_name_H-M "C 2/C"
_symmetry_group_IT_number 15
_symmetry_cell_setting 'monoclinic'
loop_
_space_group_symop_operation_xyz
x,y,z
-x,y,1/2-z
-x,-y,-z
x,-y,1/2+z
1/2+x,1/2+y,z
1/2-x,1/2+y,1/2-z
1/2-x,1/2-y,-z
1/2+x,1/2-y,1/2+z
loop_
_atom_site_type_symbol
_atom_site_label
_atom_site_fract_x
_atom_site_fract_y
_atom_site_fract_z
Si Si1 0.629216 0.077120 0.887305
Si Si2 0.392063 0.833076 0.423038
Si Si3 0.375190 0.621913 0.379387
Si Si4 0.102693 0.103194 0.905027
Si Si5 0.776457 0.171788 0.875394
Si Si6 0.524147 0.583236 0.359065
Si Si7 0.634652 0.128528 0.394656
Si Si8 0.349712 0.873359 0.898152
O O1 0.500000 0.108748 0.750000
O O2 0.710245 0.145232 0.906406
O O3 0.634985 0.974354 0.863991
O O4 0.652605 0.073973 0.012469
O O5 0.395557 0.728459 0.399647
O O6 0.295667 0.868141 0.269920
O O7 0.361587 0.851085 0.497300
O O8 0.518679 0.871828 0.517484
O O9 0.432200 0.596010 0.522638
O O10 0.410408 0.574169 0.318741
O O11 0.237067 0.601921 0.257641
O O12 0.000000 0.139877 0.750000
O O13 0.099090 0.997257 0.881574
O O14 0.228247 0.151179 0.010818
O O15 0.805278 0.274684 0.886368
O O16 0.898313 0.125291 0.996146
O O17 0.500000 0.641820 0.250000
O O18 0.500000 0.159791 0.250000
#
# Coordination Sequence:
#
# PCOD9302955 Si02
#       8
#     8   8   8   8   8   8   8   8
#     4  11  22  41  64  96 132 173 218 269 336 400
#     4  11  25  43  66  98 130 174 225 276 330 398
#     4  11  25  43  68  99 134 177 220 279 335 399
#     4  11  26  44  70 101 132 179 228 276 339 397
#     4  11  22  41  65  94 134 170 217 270 333 403
#     4  11  23  43  68  98 137 174 219 274 338 405
#     4  11  26  46  67  96 133 177 228 278 332 394
#     4  11  23  40  66  98 131 173 215 270 335 404
#
# _framework density 24.545946000000001
#
# number of rings (size 3 to 8) (size 9 to 14) (size 15 to 20)
#    0.000    1.000    3.750    2.250    3.500    4.000 
#    0.000    0.000    0.000    0.000    0.000    0.000 
#    0.000    0.000    0.000    0.000    0.000    0.000 
#
# Total GULP energy -178388.402227 kJ/mol
# GULP energy per Si atom -5574.637570 kJ/mol
# Density = 2.449008 g / cm^3
# Si number density = 24.545946 Si / 1000 Ang^3
#
#
#
# Elastic Constant Matrix: (Units=GPa)
#
#
# Indices 1 2 3 4 5 6 
#
# 1 120.8776 8.5929 46.0399 0.0000 -21.2993 0.0000
# 2 8.5929 54.2854 -1.7183 0.0000 4.6807 0.0000
# 3 46.0399 -1.7183 171.3425 0.0000 -5.0671 0.0000
# 4 0.0000 0.0000 0.0000 1.6893 0.0000 -16.4558
# 5 -21.2993 4.6807 -5.0671 0.0000 43.5235 0.0000
# 6 0.0000 0.0000 0.0000 -16.4558 0.0000 15.2577
#
#
#
# Elastic Compliance Matrix: (Units=1/GPa)
#
#
# Indices 1 2 3 4 5 6 
#
# 1 0.010308 -0.002144 -0.002644 0.000000 0.004967 0.000000
# 2 -0.002144 0.019042 0.000678 0.000000 -0.003018 0.000000
# 3 -0.002644 0.000678 0.006536 0.000000 -0.000606 0.000000
# 4 0.000000 0.000000 0.000000 -0.062271 0.000000 -0.067161
# 5 0.004967 -0.003018 -0.000606 0.000000 0.025661 0.000000
# 6 0.000000 0.000000 0.000000 -0.067161 0.000000 -0.006895
#
#
# Mechanical properties :
#
#
# Convention : Reuss Voigt Hill
#
# Bulk Modulus (GPa) = 36.14666 50.25941 43.20304
# Shear Modulus (GPa) = 509.04678 31.66683 270.35681
#
# Velocity S-wave (km/s) = 14.41650 3.59570 10.50630
# Velocity P-wave (km/s) = 17.08426 6.14482 12.83805
#
# Compressibility (1/GPa) = 0.02766507
#
# Stress axis : x y z
#
# Youngs Moduli (GPa) = 97.01607 52.51510 153.00688
#
# Poissons Ratio (x) = 0.11257 0.40459
# Poissons Ratio (y) = 0.20796 -0.10369
# Poissons Ratio (z) = 0.25654 -0.03559
#
# Static dielectric constant tensor:
#      x y z
#    x 2.048390 0.000000 0.127930 
#    y 0.000000 2.032440 0.000000 
#    z 0.127930 0.000000 2.146510 
# 
# From -- ./inp_files/163298.got.cif
#   From: 2010.05.17/outbox.cif.g08.bks.cpg/sg15_82_cif.got.tgz:163298.got - 2010.06.03 18:47:42.
