data_PCOD9302885
_publ_section_title
;
Structure prediction by ZEFSAII (Michael W. Deem and Ramdas Pophale) SiO2 
 PCOD9302885
Probable space group: C 2/C
;
_chemical_formula_sum "Si O2"
_cell_formula_units_Z 64
_cell_length_a 16.722259
_cell_length_b 11.406121
_cell_length_c 28.840670
_cell_angle_alpha 90.000000
_cell_angle_beta 31.453738
_cell_angle_gamma 90.000000
_cell_volume 2870.454209
_symmetry_space_group_name_H-M "C 2/C"
_symmetry_group_IT_number 15
_symmetry_cell_setting 'monoclinic'
loop_
_space_group_symop_operation_xyz
x,y,z
-x,y,1/2-z
-x,-y,-z
x,-y,1/2+z
1/2+x,1/2+y,z
1/2-x,1/2+y,1/2-z
1/2-x,1/2-y,-z
1/2+x,1/2-y,1/2+z
loop_
_atom_site_type_symbol
_atom_site_label
_atom_site_fract_x
_atom_site_fract_y
_atom_site_fract_z
Si Si1 0.839309 0.556875 0.809815
Si Si2 0.817956 0.271176 0.567022
Si Si3 0.300853 0.536028 0.448500
Si Si4 0.991257 0.423888 0.137664
Si Si5 0.359196 0.343856 0.595778
Si Si6 0.594112 0.661105 0.328058
Si Si7 0.330862 0.358408 0.350059
Si Si8 0.187788 0.550631 0.354078
O O1 0.806933 0.684072 0.848447
O O2 0.696126 0.472626 0.890463
O O3 0.000000 0.509968 0.750000
O O4 0.875016 0.557789 0.737431
O O5 0.747283 0.352797 0.561307
O O6 0.881758 0.363413 0.573374
O O7 0.963401 0.189318 0.485193
O O8 0.165145 0.529629 0.553531
O O9 0.462377 0.562677 0.392559
O O10 0.317858 0.424504 0.405915
O O11 0.991473 0.284192 0.134077
O O12 0.926827 0.483174 0.122935
O O13 0.303467 0.329253 0.676593
O O14 0.280084 0.251779 0.600881
O O15 0.701137 0.629352 0.232171
O O16 0.500000 0.322269 0.250000
O O17 0.281155 0.455206 0.336777
#
# Coordination Sequence:
#
# PCOD9302885 Si02
#       8
#     8   8   8   8   8   8   8   8
#     4  12  27  43  65  92 130 179 218 269 334 399
#     4  11  24  42  68  96 132 166 221 276 334 393
#     4  11  24  40  69 102 126 168 225 281 324 394
#     4  12  23  42  66  96 135 166 216 278 333 393
#     4  12  25  43  65  94 135 174 216 272 335 399
#     4  12  22  39  63  99 129 170 217 269 334 383
#     4  11  22  42  69  96 136 175 219 274 335 397
#     4  11  22  40  68  99 127 173 217 271 335 402
#
# _framework density 22.296123000000001
#
# number of rings (size 3 to 8) (size 9 to 14) (size 15 to 20)
#    0.000    0.500    6.250    2.625    1.750    2.000 
#    0.000    0.000    0.000    2.250    0.000    0.000 
#    0.000    0.000    0.000    0.000    0.000    0.000 
#
# Total GULP energy -178798.299833 kJ/mol
# GULP energy per Si atom -5587.446870 kJ/mol
# Density = 2.224538 g / cm^3
# Si number density = 22.296123 Si / 1000 Ang^3
#
#
#
# Elastic Constant Matrix: (Units=GPa)
#
#
# Indices 1 2 3 4 5 6 
#
# 1 44.2506 16.6838 -8.4477 0.0000 -0.5748 0.0000
# 2 16.6838 59.3980 10.8558 0.0000 15.5159 0.0000
# 3 -8.4477 10.8558 64.0034 -0.0003 0.6008 0.0000
# 4 0.0000 0.0000 -0.0003 24.2558 0.0000 -7.5146
# 5 -0.5748 15.5159 0.6008 0.0000 24.6975 0.0000
# 6 0.0000 0.0000 0.0000 -7.5146 0.0000 32.9516
#
#
#
# Elastic Compliance Matrix: (Units=1/GPa)
#
#
# Indices 1 2 3 4 5 6 
#
# 1 0.027745 -0.010665 0.005403 0.000000 0.007215 0.000000
# 2 -0.010665 0.024962 -0.005493 0.000000 -0.015796 0.000000
# 3 0.005403 -0.005493 0.017239 0.000000 0.003157 0.000000
# 4 0.000000 0.000000 0.000000 0.044361 0.000000 0.010117
# 5 0.007215 -0.015796 0.003157 0.000000 0.050505 0.000000
# 6 0.000000 0.000000 0.000000 0.010117 0.000000 0.032655
#
#
# Mechanical properties :
#
#
# Convention : Reuss Voigt Hill
#
# Bulk Modulus (GPa) = 20.64599 22.87064 21.75832
# Shear Modulus (GPa) = 21.26555 26.28500 23.77528
#
# Velocity S-wave (km/s) = 3.09168 3.43724 3.26903
# Velocity P-wave (km/s) = 4.69304 5.10223 4.90191
#
# Compressibility (1/GPa) = 0.04843556
#
# Stress axis : x y z
#
# Youngs Moduli (GPa) = 36.04278 40.06168 58.00671
#
# Poissons Ratio (x) = 0.42726 -0.31342
# Poissons Ratio (y) = 0.38440 0.31864
# Poissons Ratio (z) = -0.19475 0.22007
#
# Static dielectric constant tensor:
#      x y z
#    x 1.843560 0.000000 0.021990 
#    y 0.000000 1.796950 0.000000 
#    z 0.021990 0.000000 1.896640 
# 
# From -- ./inp_files/316171.got.cif
#   From: 2010.05.17/outbox.cif.g08.bks.cpg/sg15_159_cif.got.tgz:316171.got - 2010.06.03 18:47:42.
