data_PCOD9302015
_publ_section_title
;
Structure prediction by ZEFSAII (Michael W. Deem and Ramdas Pophale) SiO2 
 PCOD9302015
Probable space group: C 2/C
;
_chemical_formula_sum "Si O2"
_cell_formula_units_Z 64
_cell_length_a 26.053767
_cell_length_b 19.553058
_cell_length_c 19.479526
_cell_angle_alpha 90.000000
_cell_angle_beta 161.263687
_cell_angle_gamma 90.000000
_cell_volume 3187.550327
_symmetry_space_group_name_H-M "C 2/C"
_symmetry_group_IT_number 15
_symmetry_cell_setting 'monoclinic'
loop_
_space_group_symop_operation_xyz
x,y,z
-x,y,1/2-z
-x,-y,-z
x,-y,1/2+z
1/2+x,1/2+y,z
1/2-x,1/2+y,1/2-z
1/2-x,1/2-y,-z
1/2+x,1/2-y,1/2+z
loop_
_atom_site_type_symbol
_atom_site_label
_atom_site_fract_x
_atom_site_fract_y
_atom_site_fract_z
Si Si1 0.221732 0.039984 0.777998
Si Si2 0.884695 0.852126 0.666087
Si Si3 0.700759 0.563106 0.125742
Si Si4 0.922398 0.478207 0.785305
Si Si5 0.043742 0.177747 0.512160
Si Si6 0.471293 0.868653 0.294470
Si Si7 0.139034 0.012562 0.829667
Si Si8 0.750332 0.300689 0.765475
O O1 0.110368 0.103760 0.617995
O O2 0.184030 0.013266 0.806311
O O3 0.194737 0.980674 0.688142
O O4 0.408770 0.058875 0.009291
O O5 0.701475 0.832813 0.418873
O O6 0.000000 0.831861 0.750000
O O7 0.883465 0.934983 0.672474
O O8 0.953178 0.826592 0.824690
O O9 0.839158 0.533290 0.252823
O O10 0.734434 0.640791 0.188011
O O11 0.527721 0.551641 0.872591
O O12 0.959020 0.558247 0.816970
O O13 0.788469 0.457228 0.560322
O O14 0.188875 0.229926 0.687700
O O15 0.916372 0.203537 0.406124
O O16 0.500000 0.881130 0.250000
O O17 0.614537 0.826974 0.509737
#
# Coordination Sequence:
#
# PCOD9302015 Si02
#       8
#     8   8   8   8   8   8   8   8
#     4  12  23  41  69  97 131 171 221 272 333 384
#     4  11  23  38  65 101 136 175 213 266 326 402
#     4  12  23  41  68 101 132 170 222 277 329 380
#     4  11  24  36  68 104 135 166 210 277 332 389
#     4  12  28  45  66  92 133 181 224 269 331 391
#     4  11  22  41  64  97 142 173 220 261 325 402
#     4  11  21  41  66  98 134 167 216 270 335 386
#     4  12  28  45  66  93 133 183 223 272 324 393
#
# _framework density 20.078113999999999
#
# number of rings (size 3 to 8) (size 9 to 14) (size 15 to 20)
#    0.000    0.500    5.000    5.250    3.500    1.000 
#    0.000    0.000    0.000    4.500    0.000    0.000 
#    0.000    0.000    0.000    0.000    0.000    0.000 
#
# Total GULP energy -179160.236519 kJ/mol
# GULP energy per Si atom -5598.757391 kJ/mol
# Density = 2.003242 g / cm^3
# Si number density = 20.078114 Si / 1000 Ang^3
#
#
#
# Elastic Constant Matrix: (Units=GPa)
#
#
# Indices 1 2 3 4 5 6 
#
# 1 97.9638 -1.8174 6.1629 0.0005 22.3782 0.0002
# 2 -1.8174 38.4582 2.5086 0.0007 -0.1343 0.0002
# 3 6.1629 2.5086 108.7866 0.0013 17.9918 0.0005
# 4 0.0005 0.0007 0.0013 23.4254 0.0006 6.9230
# 5 22.3782 -0.1343 17.9918 0.0006 39.1667 0.0002
# 6 0.0002 0.0002 0.0005 6.9230 0.0002 18.4717
#
#
#
# Elastic Compliance Matrix: (Units=1/GPa)
#
#
# Indices 1 2 3 4 5 6 
#
# 1 0.011773 0.000501 0.000469 0.000000 -0.006941 0.000000
# 2 0.000501 0.026068 -0.000646 -0.000001 0.000100 0.000000
# 3 0.000469 -0.000646 0.009984 0.000000 -0.004857 0.000000
# 4 0.000000 -0.000001 0.000000 0.048006 0.000000 -0.017992
# 5 -0.006941 0.000100 -0.004857 0.000000 0.031729 0.000000
# 6 0.000000 0.000000 0.000000 -0.017992 0.000000 0.060880
#
#
# Mechanical properties :
#
#
# Convention : Reuss Voigt Hill
#
# Bulk Modulus (GPa) = 20.62921 28.76855 24.69888
# Shear Modulus (GPa) = 24.51593 32.10307 28.30950
#
# Velocity S-wave (km/s) = 3.49811 4.00297 3.75903
# Velocity P-wave (km/s) = 5.15873 5.97700 5.58287
#
# Compressibility (1/GPa) = 0.04847494
#
# Stress axis : x y z
#
# Youngs Moduli (GPa) = 84.93959 38.36060 100.16199
#
# Poissons Ratio (x) = -0.01924 -0.04701
# Poissons Ratio (y) = -0.04260 0.06471
# Poissons Ratio (z) = -0.03987 0.02478
#
# Static dielectric constant tensor:
#      x y z
#    x 1.697050 0.000000 0.004400 
#    y 0.000000 1.686000 0.000000 
#    z 0.004400 0.000000 1.740890 
# 
# From -- ./inp_files/220237.got.cif
#   From: 2010.05.17/outbox.cif.g08.bks.cpg/sg15_111_cif.got.tgz:220237.got - 2010.06.03 18:47:42.
