data_PCOD9302680
_publ_section_title
;
Structure prediction by ZEFSAII (Michael W. Deem and Ramdas Pophale) SiO2 
 PCOD9302680
Probable space group: C 2/C
;
_chemical_formula_sum "Si O2"
_cell_formula_units_Z 64
_cell_length_a 22.273038
_cell_length_b 13.302676
_cell_length_c 14.738033
_cell_angle_alpha 90.000000
_cell_angle_beta 137.943496
_cell_angle_gamma 90.000000
_cell_volume 2925.122695
_symmetry_space_group_name_H-M "C 2/C"
_symmetry_group_IT_number 15
_symmetry_cell_setting 'monoclinic'
loop_
_space_group_symop_operation_xyz
x,y,z
-x,y,1/2-z
-x,-y,-z
x,-y,1/2+z
1/2+x,1/2+y,z
1/2-x,1/2+y,1/2-z
1/2-x,1/2-y,-z
1/2+x,1/2-y,1/2+z
loop_
_atom_site_type_symbol
_atom_site_label
_atom_site_fract_x
_atom_site_fract_y
_atom_site_fract_z
Si Si1 0.828956 0.587184 0.870998
Si Si2 0.830756 0.759913 0.520305
Si Si3 0.559867 0.072501 0.893737
Si Si4 0.767043 0.057796 0.359226
Si Si5 0.103674 0.022601 0.351840
Si Si6 0.480329 0.217880 0.957091
Si Si7 0.915110 0.936524 0.868720
Si Si8 0.680051 0.260996 0.209231
O O1 0.799979 0.531824 0.744655
O O2 0.907587 0.667500 0.940848
O O3 0.741052 0.645661 0.806146
O O4 0.868824 0.501804 0.980797
O O5 0.750000 0.750000 0.500000
O O6 0.892134 0.663404 0.604666
O O7 0.882474 0.864103 0.594375
O O8 0.805736 0.754517 0.385029
O O9 0.500000 0.019664 0.750000
O O10 0.507502 0.131108 0.915703
O O11 0.840871 0.060542 0.362459
O O12 0.715902 0.161775 0.297194
O O13 0.822647 0.040228 0.511945
O O14 0.120087 0.019438 0.264074
O O15 0.000000 0.992710 0.250000
O O16 0.439105 0.320741 0.872397
O O17 0.573524 0.258664 0.103971
O O18 0.000000 0.000000 0.000000
#
# Coordination Sequence:
#
# PCOD9302680 Si02
#       8
#     8   8   8   8   8   8   8   8
#     4  12  24  46  70 101 144 187 230 296 359 434
#     4  11  22  39  65 102 137 169 227 305 357 411
#     4  11  25  41  66 103 139 179 243 293 358 438
#     4  12  24  43  67 104 145 180 236 297 357 440
#     4  12  24  40  68 105 137 183 237 294 366 427
#     4  11  24  46  74  99 139 185 238 297 365 418
#     4  12  24  43  70 104 142 184 234 300 369 428
#     4  11  23  44  68 102 136 184 234 288 354 435
#
# _framework density 21.879424
#
# number of rings (size 3 to 8) (size 9 to 14) (size 15 to 20)
#    0.000    0.500    6.250    4.500    1.750    0.000 
#    0.000    1.875    0.000    2.250    0.000    0.000 
#    0.000    0.000    0.000    0.000    0.000    0.000 
#
# Total GULP energy -179041.651307 kJ/mol
# GULP energy per Si atom -5595.051603 kJ/mol
# Density = 2.182963 g / cm^3
# Si number density = 21.879424 Si / 1000 Ang^3
#
#
#
# Elastic Constant Matrix: (Units=GPa)
#
#
# Indices 1 2 3 4 5 6 
#
# 1 45.8588 13.1451 31.1383 0.0000 18.1247 0.0000
# 2 13.1451 90.9704 40.3505 0.0000 6.1382 0.0000
# 3 31.1383 40.3505 146.5271 0.0000 -5.5801 0.0000
# 4 0.0000 0.0000 0.0000 43.4093 0.0000 15.2501
# 5 18.1247 6.1382 -5.5801 0.0000 30.2039 0.0000
# 6 0.0000 0.0000 0.0000 15.2501 0.0000 21.5094
#
#
#
# Elastic Compliance Matrix: (Units=1/GPa)
#
#
# Indices 1 2 3 4 5 6 
#
# 1 0.037305 0.000178 -0.008893 0.000000 -0.024065 0.000000
# 2 0.000178 0.012839 -0.003703 0.000000 -0.003400 0.000000
# 3 -0.008893 -0.003703 0.010037 0.000000 0.007943 0.000000
# 4 0.000000 0.000000 0.000000 0.030678 0.000000 -0.021750
# 5 -0.024065 -0.003400 0.007943 0.000000 0.049708 0.000000
# 6 0.000000 0.000000 0.000000 -0.021750 0.000000 0.061912
#
#
# Mechanical properties :
#
#
# Convention : Reuss Voigt Hill
#
# Bulk Modulus (GPa) = 28.29326 50.29156 39.29241
# Shear Modulus (GPa) = 20.91223 32.27267 26.59245
#
# Velocity S-wave (km/s) = 3.09495 3.84477 3.49005
# Velocity P-wave (km/s) = 5.07258 6.53799 5.85134
#
# Compressibility (1/GPa) = 0.03534410
#
# Stress axis : x y z
#
# Youngs Moduli (GPa) = 26.80639 77.88959 99.63471
#
# Poissons Ratio (x) = -0.01385 0.88605
# Poissons Ratio (y) = -0.00477 0.36892
# Poissons Ratio (z) = 0.23839 0.28841
#
# Static dielectric constant tensor:
#      x y z
#    x 1.804290 0.000000 0.041100 
#    y 0.000000 1.804550 0.000000 
#    z 0.041100 0.000000 1.855070 
# 
# From -- ./inp_files/173695.got.cif
#   From: 2010.05.17/outbox.cif.g08.bks.cpg/sg15_87_cif.got.tgz:173695.got - 2010.06.03 18:47:42.
