data_PCOD9302976
_publ_section_title
;
Structure prediction by ZEFSAII (Michael W. Deem and Ramdas Pophale) SiO2 
 PCOD9302976
Probable space group: C 2/C
;
_chemical_formula_sum "Si O2"
_cell_formula_units_Z 40
_cell_length_a 17.734353
_cell_length_b 9.170079
_cell_length_c 21.338855
_cell_angle_alpha 90.000000
_cell_angle_beta 155.048742
_cell_angle_gamma 90.000000
_cell_volume 1463.910789
_symmetry_space_group_name_H-M "C 2/C"
_symmetry_group_IT_number 15
_symmetry_cell_setting 'monoclinic'
loop_
_space_group_symop_operation_xyz
x,y,z
-x,y,1/2-z
-x,-y,-z
x,-y,1/2+z
1/2+x,1/2+y,z
1/2-x,1/2+y,1/2-z
1/2-x,1/2-y,-z
1/2+x,1/2-y,1/2+z
loop_
_atom_site_type_symbol
_atom_site_label
_atom_site_fract_x
_atom_site_fract_y
_atom_site_fract_z
Si Si1 0.331200 0.704159 0.812277
Si Si2 0.002399 0.491901 0.420560
Si Si3 0.885308 0.869804 0.723434
Si Si4 0.901456 0.326150 0.737586
Si Si5 0.351003 0.413343 0.460783
O O1 0.129547 0.642676 0.666007
O O2 0.373836 0.703921 0.769883
O O3 0.408226 0.622444 0.931743
O O4 0.995534 0.886876 0.624177
O O5 0.896169 0.628863 0.370405
O O6 0.015025 0.547952 0.358354
O O7 0.202302 0.458700 0.588151
O O8 0.808823 0.705579 0.652156
O O9 0.000000 0.913264 0.750000
O O10 0.722392 0.420319 0.589102
O O11 0.000000 0.275606 0.750000
#
# Coordination Sequence:
#
# PCOD9302976 Si02
#       5
#     8   8   8   8   8
#     4   9  21  43  74 109 158 202 268 319 398 476
#     4   9  21  43  72 116 155 201 259 330 390 481
#     4  12  24  42  73 113 159 201 263 332 400 459
#     4   9  18  39  73 105 149 199 260 322 386 463
#     4  11  22  41  66 112 150 201 255 332 385 467
#
# _framework density 27.324069999999999
#
# number of rings (size 3 to 8) (size 9 to 14) (size 15 to 20)
#    1.200    0.800    0.000    4.800    0.000    0.800 
#    3.600    2.000    0.000    8.400    0.000    8.400 
#    0.000    0.000    0.000    0.000    0.000    0.000 
#
# Total GULP energy -111655.447079 kJ/mol
# GULP energy per Si atom -5582.772354 kJ/mol
# Density = 2.726188 g / cm^3
# Si number density = 27.324070 Si / 1000 Ang^3
#
#
#
# Elastic Constant Matrix: (Units=GPa)
#
#
# Indices 1 2 3 4 5 6 
#
# 1 285.8181 74.0251 132.3012 0.0005 2.6523 0.0001
# 2 74.0251 141.6140 86.1520 0.0027 6.6415 -0.0003
# 3 132.3012 86.1520 215.8309 0.0021 -35.3438 -0.0002
# 4 0.0005 0.0027 0.0021 48.0373 -0.0005 3.1904
# 5 2.6523 6.6415 -35.3438 -0.0005 54.8294 -0.0004
# 6 0.0001 -0.0003 -0.0002 3.1904 -0.0004 9.4309
#
#
#
# Elastic Compliance Matrix: (Units=1/GPa)
#
#
# Indices 1 2 3 4 5 6 
#
# 1 0.005223 -0.000580 -0.003354 0.000000 -0.002345 0.000000
# 2 -0.000580 0.010222 -0.004386 0.000000 -0.004038 0.000000
# 3 -0.003354 -0.004386 0.009563 0.000000 0.006858 0.000000
# 4 0.000000 0.000000 0.000000 0.021296 0.000000 -0.007204
# 5 -0.002345 -0.004038 0.006858 0.000000 0.023262 0.000001
# 6 0.000000 0.000000 0.000000 -0.007204 0.000001 0.108472
#
#
# Mechanical properties :
#
#
# Convention : Reuss Voigt Hill
#
# Bulk Modulus (GPa) = 119.49830 136.46885 127.98358
# Shear Modulus (GPa) = 25.32056 45.84517 35.58286
#
# Velocity S-wave (km/s) = 3.04744 4.10058 3.61259
# Velocity P-wave (km/s) = 7.49741 8.51309 8.02134
#
# Compressibility (1/GPa) = 0.00836832
#
# Stress axis : x y z
#
# Youngs Moduli (GPa) = 191.44874 97.82633 104.56624
#
# Poissons Ratio (x) = 0.05671 0.35076
# Poissons Ratio (y) = 0.11099 0.45864
# Poissons Ratio (z) = 0.64219 0.42908
#
# Static dielectric constant tensor:
#      x y z
#    x 2.159930 0.000000 -0.026850 
#    y 0.000000 2.198300 0.000000 
#    z -0.026850 0.000000 2.201740 
# 
# From -- ./inp_files/273928.got.cif
#   From: 2010.05.17/outbox.cif.g08.bks.cpg/sg15_137_cif.got.tgz:273928.got - 2010.06.03 18:47:42.
