data_PCOD9302686
_publ_section_title
;
Structure prediction by ZEFSAII (Michael W. Deem and Ramdas Pophale) SiO2 
 PCOD9302686
Probable space group: C 2/C
;
_chemical_formula_sum "Si O2"
_cell_formula_units_Z 56
_cell_length_a 8.882451
_cell_length_b 29.286262
_cell_length_c 17.281024
_cell_angle_alpha 90.000000
_cell_angle_beta 140.118405
_cell_angle_gamma 90.000000
_cell_volume 2882.450736
_symmetry_space_group_name_H-M "C 2/C"
_symmetry_group_IT_number 15
_symmetry_cell_setting 'monoclinic'
loop_
_space_group_symop_operation_xyz
x,y,z
-x,y,1/2-z
-x,-y,-z
x,-y,1/2+z
1/2+x,1/2+y,z
1/2-x,1/2+y,1/2-z
1/2-x,1/2-y,-z
1/2+x,1/2-y,1/2+z
loop_
_atom_site_type_symbol
_atom_site_label
_atom_site_fract_x
_atom_site_fract_y
_atom_site_fract_z
Si Si1 0.239203 0.651980 0.176247
Si Si2 0.120296 0.383073 0.089503
Si Si3 0.043649 0.566652 0.177492
Si Si4 0.450229 0.402833 0.085817
Si Si5 0.228125 0.973965 0.287838
Si Si6 0.223044 0.328451 0.285711
Si Si7 0.486888 0.240587 0.148359
O O1 0.500000 0.663177 0.250000
O O2 0.219232 0.607945 0.224649
O O3 0.103400 0.693709 0.163503
O O4 0.092881 0.636227 0.043470
O O5 0.349682 0.379765 0.125034
O O6 0.108559 0.437067 0.103845
O O7 0.145634 0.355754 0.178474
O O8 0.139822 0.519583 0.181436
O O9 0.000000 0.561549 0.250000
O O10 0.787503 0.579588 0.044641
O O11 0.621007 0.444744 0.174096
O O12 0.594165 0.363164 0.100531
O O13 0.000000 0.984133 0.250000
O O14 0.349064 0.282633 0.310402
O O15 0.000000 0.319236 0.250000
O O16 0.500000 0.239240 0.250000
O O17 0.250000 0.250000 0.000000
#
# Coordination Sequence:
#
# PCOD9302686 Si02
#       7
#     8   8   8   8   8   8   8
#     4  11  24  40  61  91 124 158 200 253 313 368
#     4   9  20  41  64  85 119 163 209 250 299 366
#     4  11  23  37  55  85 125 161 196 248 314 369
#     4   9  20  39  59  82 115 159 205 244 298 363
#     4   9  19  36  60  84 110 156 209 249 289 357
#     4  11  22  39  65  92 117 155 209 257 297 357
#     4  12  25  44  68  93 127 167 207 252 313 377
#
# _framework density 19.427913
#
# number of rings (size 3 to 8) (size 9 to 14) (size 15 to 20)
#    0.000    1.714    0.000    6.000    0.000   11.429 
#    0.000    2.857    0.000    0.000    0.000    0.000 
#    0.000    0.000    0.000    0.000    0.000    0.000 
#
# Total GULP energy -156119.937860 kJ/mol
# GULP energy per Si atom -5575.712066 kJ/mol
# Density = 1.938369 g / cm^3
# Si number density = 19.427913 Si / 1000 Ang^3
#
#
#
# Elastic Constant Matrix: (Units=GPa)
#
#
# Indices 1 2 3 4 5 6 
#
# 1 120.1630 91.7260 70.9848 0.0000 5.8228 0.0000
# 2 91.7260 159.2085 50.6135 0.0000 8.6373 0.0000
# 3 70.9848 50.6135 108.7496 0.0000 2.3147 0.0000
# 4 0.0000 0.0000 0.0000 9.1026 0.0000 2.4536
# 5 5.8228 8.6373 2.3147 0.0000 24.7502 0.0000
# 6 0.0000 0.0000 0.0000 2.4536 0.0000 1.8877
#
#
#
# Elastic Compliance Matrix: (Units=1/GPa)
#
#
# Indices 1 2 3 4 5 6 
#
# 1 0.020664 -0.008891 -0.009332 0.000000 -0.000886 0.000000
# 2 -0.008891 0.011325 0.000573 0.000000 -0.001914 0.000000
# 3 -0.009332 0.000573 0.015007 0.000000 0.000592 0.000000
# 4 0.000000 0.000000 0.000000 0.169109 0.000000 -0.219807
# 5 -0.000886 -0.001914 0.000592 0.000000 0.041225 0.000000
# 6 0.000000 0.000000 0.000000 -0.219807 0.000000 0.815452
#
#
# Mechanical properties :
#
#
# Convention : Reuss Voigt Hill
#
# Bulk Modulus (GPa) = 85.48340 90.52999 88.00670
# Shear Modulus (GPa) = 4.49649 18.80122 11.64885
#
# Velocity S-wave (km/s) = 1.52298 3.11423 2.45132
# Velocity P-wave (km/s) = 6.86939 7.72207 7.30817
#
# Compressibility (1/GPa) = 0.01169818
#
# Stress axis : x y z
#
# Youngs Moduli (GPa) = 48.39283 88.30037 66.63536
#
# Poissons Ratio (x) = 0.78506 0.62181
# Poissons Ratio (y) = 0.43025 -0.03820
# Poissons Ratio (z) = 0.45158 -0.05062
#
# Static dielectric constant tensor:
#      x y z
#    x 1.675370 0.000000 -0.024560 
#    y 0.000000 1.675480 0.000000 
#    z -0.024560 0.000000 1.760360 
# 
# From -- ./inp_files/193912.got.cif
#   From: 2010.05.17/outbox.cif.g08.bks.cpg/sg15_97_cif.got.tgz:193912.got - 2010.06.03 18:47:42.
