data_PCOD9302690
_publ_section_title
;
Structure prediction by ZEFSAII (Michael W. Deem and Ramdas Pophale) SiO2 
 PCOD9302690
Probable space group: C 2/C
;
_chemical_formula_sum "Si O2"
_cell_formula_units_Z 48
_cell_length_a 16.548490
_cell_length_b 8.625764
_cell_length_c 28.782546
_cell_angle_alpha 90.000000
_cell_angle_beta 27.956677
_cell_angle_gamma 90.000000
_cell_volume 1926.088686
_symmetry_space_group_name_H-M "C 2/C"
_symmetry_group_IT_number 15
_symmetry_cell_setting 'monoclinic'
loop_
_space_group_symop_operation_xyz
x,y,z
-x,y,1/2-z
-x,-y,-z
x,-y,1/2+z
1/2+x,1/2+y,z
1/2-x,1/2+y,1/2-z
1/2-x,1/2-y,-z
1/2+x,1/2-y,1/2+z
loop_
_atom_site_type_symbol
_atom_site_label
_atom_site_fract_x
_atom_site_fract_y
_atom_site_fract_z
Si Si1 0.705961 0.596237 0.559956
Si Si2 0.933389 0.391697 0.574399
Si Si3 0.197916 0.431278 0.270849
Si Si4 0.507218 0.620847 0.112613
Si Si5 0.841713 0.104593 0.562798
Si Si6 0.409670 0.101553 0.360210
O O1 0.883141 0.642208 0.494828
O O2 0.622745 0.424406 0.598697
O O3 0.569244 0.713326 0.652969
O O4 0.768578 0.600187 0.474109
O O5 0.000000 0.500000 0.500000
O O6 0.830741 0.489984 0.664443
O O7 0.832022 0.247504 0.603437
O O8 0.395606 0.465243 0.159122
O O9 0.126388 0.258457 0.309746
O O10 0.077850 0.520156 0.294896
O O11 0.606926 0.665204 0.014938
O O12 0.678735 0.991957 0.636612
O O13 0.000000 0.000000 0.500000
#
# Coordination Sequence:
#
# PCOD9302690 Si02
#       6
#     8   8   8   8   8   8
#     4   9  19  36  61  89 120 161 206 250 305 382
#     4  11  22  39  65  94 125 159 211 267 315 367
#     4  11  24  40  63  89 126 168 213 261 317 384
#     4  11  24  40  63  90 125 169 213 260 318 381
#     4  11  22  39  67  94 123 163 211 261 317 376
#     4   9  19  36  61  90 119 161 206 248 306 385
#
# _framework density 24.920970000000001
#
# number of rings (size 3 to 8) (size 9 to 14) (size 15 to 20)
#    0.000    1.667    3.333    1.000    7.000    2.000 
#    0.000    1.667    0.000    0.000    0.000    0.000 
#    0.000    0.000    0.000    0.000    0.000    0.000 
#
# Total GULP energy -134042.656278 kJ/mol
# GULP energy per Si atom -5585.110678 kJ/mol
# Density = 2.486425 g / cm^3
# Si number density = 24.920970 Si / 1000 Ang^3
#
#
#
# Elastic Constant Matrix: (Units=GPa)
#
#
# Indices 1 2 3 4 5 6 
#
# 1 140.8378 57.4891 34.2697 0.0004 -2.6792 0.0008
# 2 57.4891 109.6168 20.5528 0.0004 5.5730 0.0010
# 3 34.2697 20.5528 56.3504 -0.0001 -1.5047 -0.0006
# 4 0.0004 0.0004 -0.0001 37.5314 0.0000 -5.1488
# 5 -2.6792 5.5730 -1.5047 0.0000 37.4451 0.0007
# 6 0.0008 0.0010 -0.0006 -5.1488 0.0007 62.9634
#
#
#
# Elastic Compliance Matrix: (Units=1/GPa)
#
#
# Indices 1 2 3 4 5 6 
#
# 1 0.010036 -0.004494 -0.004432 0.000000 0.001209 0.000000
# 2 -0.004494 0.011902 -0.001666 0.000000 -0.002160 0.000000
# 3 -0.004432 -0.001666 0.021070 0.000000 0.000777 0.000000
# 4 0.000000 0.000000 0.000000 0.026947 0.000000 0.002204
# 5 0.001209 -0.002160 0.000777 0.000000 0.027145 0.000000
# 6 0.000000 0.000000 0.000000 0.002204 0.000000 0.016062
#
#
# Mechanical properties :
#
#
# Convention : Reuss Voigt Hill
#
# Bulk Modulus (GPa) = 45.82065 59.04759 52.43412
# Shear Modulus (GPa) = 35.30575 40.55421 37.92998
#
# Velocity S-wave (km/s) = 3.76800 4.03837 3.90553
# Velocity P-wave (km/s) = 6.11202 6.74463 6.43610
#
# Compressibility (1/GPa) = 0.02182422
#
# Stress axis : x y z
#
# Youngs Moduli (GPa) = 99.63869 84.02169 47.46135
#
# Poissons Ratio (x) = 0.37759 0.21036
# Poissons Ratio (y) = 0.44778 0.07905
# Poissons Ratio (z) = 0.44162 0.13994
#
# Static dielectric constant tensor:
#      x y z
#    x 1.841470 0.000000 0.030030 
#    y 0.000000 2.159380 0.000000 
#    z 0.030030 0.000000 1.968620 
# 
# From -- ./inp_files/315643.got.cif
#   From: 2010.05.17/outbox.cif.g08.bks.cpg/sg15_158_cif.got.tgz:315643.got - 2010.06.03 18:47:42.
