data_PCOD9302476
_publ_section_title
;
Structure prediction by ZEFSAII (Michael W. Deem and Ramdas Pophale) SiO2 
 PCOD9302476
Probable space group: C 2/C
;
_chemical_formula_sum "Si O2"
_cell_formula_units_Z 24
_cell_length_a 21.028913
_cell_length_b 10.077739
_cell_length_c 17.960499
_cell_angle_alpha 90.000000
_cell_angle_beta 162.133309
_cell_angle_gamma 90.000000
_cell_volume 1167.773010
_symmetry_space_group_name_H-M "C 2/C"
_symmetry_group_IT_number 15
_symmetry_cell_setting 'monoclinic'
loop_
_space_group_symop_operation_xyz
x,y,z
-x,y,1/2-z
-x,-y,-z
x,-y,1/2+z
1/2+x,1/2+y,z
1/2-x,1/2+y,1/2-z
1/2-x,1/2-y,-z
1/2+x,1/2-y,1/2+z
loop_
_atom_site_type_symbol
_atom_site_label
_atom_site_fract_x
_atom_site_fract_y
_atom_site_fract_z
Si Si1 0.241962 0.155558 0.791761
Si Si2 0.827522 0.942368 0.903851
Si Si3 0.866096 0.378204 0.665621
O O1 0.208967 0.311407 0.740301
O O2 0.064020 0.084482 0.642592
O O3 0.251090 0.071056 0.726951
O O4 0.447450 0.158615 0.070631
O O5 0.791848 0.947944 0.953031
O O6 0.750000 0.250000 0.500000
O O7 0.000000 0.448854 0.750000
#
# Coordination Sequence:
#
# PCOD9302476 Si02
#       3
#     8   8   8
#     4  11  22  37  59  92 119 155 203 247 305 353
#     4  11  22  37  59  92 118 158 198 254 296 361
#     4  12  21  34  59  88 119 153 202 250 291 351
#
# _framework density 20.551939999999998
#
# number of rings (size 3 to 8) (size 9 to 14) (size 15 to 20)
#    0.000    0.667    6.667    1.000    0.000    0.000 
#    0.000    0.000    0.000    2.000    8.667    0.000 
#    0.000    0.000    0.000    0.000    0.000    0.000 
#
# Total GULP energy -66836.759179 kJ/mol
# GULP energy per Si atom -5569.729932 kJ/mol
# Density = 2.050516 g / cm^3
# Si number density = 20.551940 Si / 1000 Ang^3
#
#
#
# Elastic Constant Matrix: (Units=GPa)
#
#
# Indices 1 2 3 4 5 6 
#
# 1 180.0962 30.9538 23.1010 0.0004 7.3136 0.0001
# 2 30.9538 61.4449 16.6953 0.0002 -12.4413 0.0000
# 3 23.1010 16.6953 111.9920 0.0002 1.9114 -0.0004
# 4 0.0004 0.0002 0.0002 25.7314 0.0001 -9.4556
# 5 7.3136 -12.4413 1.9114 0.0001 32.4303 0.0001
# 6 0.0001 0.0000 -0.0004 -9.4556 0.0001 42.7292
#
#
#
# Elastic Compliance Matrix: (Units=1/GPa)
#
#
# Indices 1 2 3 4 5 6 
#
# 1 0.006373 -0.003570 -0.000735 0.000000 -0.002763 0.000000
# 2 -0.003570 0.020533 -0.002475 0.000000 0.008828 0.000000
# 3 -0.000735 -0.002475 0.009473 0.000000 -0.001342 0.000000
# 4 0.000000 0.000000 0.000000 0.042303 0.000000 0.009361
# 5 -0.002763 0.008828 -0.001342 0.000000 0.034925 0.000000
# 6 0.000000 0.000000 0.000000 0.009361 0.000000 0.025475
#
#
# Mechanical properties :
#
#
# Convention : Reuss Voigt Hill
#
# Bulk Modulus (GPa) = 43.82560 55.00370 49.41465
# Shear Modulus (GPa) = 31.20158 39.03037 35.11598
#
# Velocity S-wave (km/s) = 3.90061 4.36260 4.13806
# Velocity P-wave (km/s) = 6.45422 7.22480 6.85036
#
# Compressibility (1/GPa) = 0.02281771
#
# Stress axis : x y z
#
# Youngs Moduli (GPa) = 156.91880 48.70123 105.56587
#
# Poissons Ratio (x) = 0.17387 0.07761
# Poissons Ratio (y) = 0.56022 0.26130
# Poissons Ratio (z) = 0.11536 0.12055
#
# Static dielectric constant tensor:
#      x y z
#    x 1.862390 0.000000 0.096400 
#    y 0.000000 1.751010 0.000000 
#    z 0.096400 0.000000 1.839040 
# 
# From -- ./inp_files/214480.got.cif
#   From: 2010.05.17/outbox.cif.g08.bks.cpg/sg15_108_cif.got.tgz:214480.got - 2010.06.03 18:47:42.
