data_PCOD9302365
_publ_section_title
;
Structure prediction by ZEFSAII (Michael W. Deem and Ramdas Pophale) SiO2 
 PCOD9302365
Probable space group: C 2/C
;
_chemical_formula_sum "Si O2"
_cell_formula_units_Z 44
_cell_length_a 8.360824
_cell_length_b 16.867239
_cell_length_c 14.913324
_cell_angle_alpha 90.000000
_cell_angle_beta 75.186016
_cell_angle_gamma 90.000000
_cell_volume 2033.230716
_symmetry_space_group_name_H-M "C 2/C"
_symmetry_group_IT_number 15
_symmetry_cell_setting 'monoclinic'
loop_
_space_group_symop_operation_xyz
x,y,z
-x,y,1/2-z
-x,-y,-z
x,-y,1/2+z
1/2+x,1/2+y,z
1/2-x,1/2+y,1/2-z
1/2-x,1/2-y,-z
1/2+x,1/2-y,1/2+z
loop_
_atom_site_type_symbol
_atom_site_label
_atom_site_fract_x
_atom_site_fract_y
_atom_site_fract_z
Si Si1 0.055930 0.315824 0.471855
Si Si2 0.438490 0.337800 0.083810
Si Si3 0.891795 0.428435 0.357640
Si Si4 0.845379 0.794441 0.706168
Si Si5 0.000000 0.771146 0.250000
Si Si6 0.295025 0.410659 0.568784
O O1 0.129258 0.267400 0.377900
O O2 0.177338 0.347457 0.532403
O O3 0.940804 0.246802 0.531897
O O4 0.981995 0.391961 0.431969
O O5 0.257645 0.366635 0.136806
O O6 0.540639 0.325609 0.159887
O O7 0.534784 0.403722 0.011675
O O8 0.807467 0.510097 0.400960
O O9 0.000000 0.435090 0.250000
O O10 0.656073 0.779543 0.761950
O O11 0.844222 0.879621 0.659818
O O12 0.000000 0.785643 0.750000
#
# Coordination Sequence:
#
# PCOD9302365 Si02
#       6
#     8   8   8   8   4   8
#     4  11  21  47  72  98 136 188 241 290 349 425
#     4  11  23  43  72  97 138 187 241 286 352 423
#     4  12  27  43  67 110 146 182 236 293 364 427
#     4  11  23  42  72 107 140 182 246 298 347 421
#     4  12  20  40  74 106 136 182 246 298 344 414
#     4  11  24  47  68 102 145 189 231 294 366 427
#
# _framework density 21.640438
#
# number of rings (size 3 to 8) (size 9 to 14) (size 15 to 20)
#    0.000    0.727    3.636    5.455    1.273    1.455 
#    1.636    3.636    0.000    0.000    0.000    0.000 
#    0.000    0.000    0.000    0.000    0.000    0.000 
#
# Total GULP energy -122703.042486 kJ/mol
# GULP energy per Si atom -5577.411022 kJ/mol
# Density = 2.159118 g / cm^3
# Si number density = 21.640438 Si / 1000 Ang^3
#
#
#
# Elastic Constant Matrix: (Units=GPa)
#
#
# Indices 1 2 3 4 5 6 
#
# 1 129.8612 32.7409 53.2771 0.0000 7.5023 0.0000
# 2 32.7409 63.7051 39.4633 0.0000 0.5046 0.0000
# 3 53.2771 39.4633 116.3029 0.0000 -7.1110 0.0000
# 4 0.0000 0.0000 0.0000 -22.1583 0.0000 8.3261
# 5 7.5023 0.5046 -7.1110 0.0000 46.1333 0.0000
# 6 0.0000 0.0000 0.0000 8.3261 0.0000 48.6573
#
#
#
# Elastic Compliance Matrix: (Units=1/GPa)
#
#
# Indices 1 2 3 4 5 6 
#
# 1 0.010098 -0.002816 -0.003805 0.000000 -0.002198 0.000000
# 2 -0.002816 0.020734 -0.005786 0.000000 -0.000661 0.000000
# 3 -0.003805 -0.005786 0.012464 0.000000 0.002603 0.000000
# 4 0.000000 0.000000 0.000000 -0.042403 0.000000 0.007256
# 5 -0.002198 -0.000661 0.002603 0.000000 0.022442 0.000000
# 6 0.000000 0.000000 0.000000 0.007256 0.000000 0.019310
#
#
# Mechanical properties :
#
#
# Convention : Reuss Voigt Hill
#
# Bulk Modulus (GPa) = 54.10386 62.31464 58.20925
# Shear Modulus (GPa) = 67.91725 26.81899 47.36812
#
# Velocity S-wave (km/s) = 5.60826 3.52419 4.68361
# Velocity P-wave (km/s) = 8.18488 6.73928 7.49700
#
# Compressibility (1/GPa) = 0.01848297
#
# Stress axis : x y z
#
# Youngs Moduli (GPa) = 99.02546 48.23042 80.23314
#
# Poissons Ratio (x) = 0.13580 0.30529
# Poissons Ratio (y) = 0.27881 0.46422
# Poissons Ratio (z) = 0.37679 0.27906
#
# Static dielectric constant tensor:
#      x y z
#    x 1.920700 0.000000 -0.057930 
#    y 0.000000 1.822610 0.000000 
#    z -0.057930 0.000000 1.838400 
# 
# From -- ./inp_files/134351.got.cif
#   From: 2010.05.17/outbox.cif.g08.bks.cpg/sg15_68_cif.got.tgz:134351.got - 2010.06.03 18:47:42.
