data_PCOD9302417
_publ_section_title
;
Structure prediction by ZEFSAII (Michael W. Deem and Ramdas Pophale) SiO2 
 PCOD9302417
Probable space group: C 2/C
;
_chemical_formula_sum "Si O2"
_cell_formula_units_Z 44
_cell_length_a 23.717161
_cell_length_b 18.500749
_cell_length_c 15.324836
_cell_angle_alpha 90.000000
_cell_angle_beta 18.941057
_cell_angle_gamma 90.000000
_cell_volume 2182.679903
_symmetry_space_group_name_H-M "C 2/C"
_symmetry_group_IT_number 15
_symmetry_cell_setting 'monoclinic'
loop_
_space_group_symop_operation_xyz
x,y,z
-x,y,1/2-z
-x,-y,-z
x,-y,1/2+z
1/2+x,1/2+y,z
1/2-x,1/2+y,1/2-z
1/2-x,1/2-y,-z
1/2+x,1/2-y,1/2+z
loop_
_atom_site_type_symbol
_atom_site_label
_atom_site_fract_x
_atom_site_fract_y
_atom_site_fract_z
Si Si1 0.979155 0.316078 0.113363
Si Si2 0.384959 0.521015 0.541743
Si Si3 0.360783 0.061150 0.230220
Si Si4 0.000000 0.603154 0.750000
Si Si5 0.932644 0.827363 0.759493
Si Si6 0.754642 0.975634 0.414612
O O1 0.065857 0.349667 0.073252
O O2 0.983158 0.229089 0.109507
O O3 0.773959 0.333134 0.425569
O O4 0.067066 0.362003 0.908519
O O5 0.301842 0.471878 0.587312
O O6 0.471808 0.596248 0.386297
O O7 0.544426 0.477959 0.351405
O O8 0.253681 0.542691 0.812857
O O9 0.331263 0.064067 0.377192
O O10 0.500000 0.000000 0.000000
O O11 0.154293 0.552086 0.558417
O O12 0.000000 0.792400 0.750000
#
# Coordination Sequence:
#
# PCOD9302417 Si02
#       6
#     8   8   8   4   8   8
#     4  11  23  37  60  90 120 156 200 250 304 361
#     4  11  22  37  57  89 120 153 204 250 292 357
#     4  12  21  37  60  87 119 158 204 250 301 354
#     4  12  18  40  56  90 118 154 196 248 304 352
#     4  11  22  38  60  88 122 156 199 252 305 354
#     4  11  22  35  60  87 119 155 199 250 297 350
#
# _framework density 20.158705999999999
#
# number of rings (size 3 to 8) (size 9 to 14) (size 15 to 20)
#    0.000    0.727    6.364    2.727    0.000    0.000 
#    0.000    0.909    0.000    0.000    9.455    0.000 
#    0.000    0.000    0.000    0.000    0.000    0.000 
#
# Total GULP energy -122556.945673 kJ/mol
# GULP energy per Si atom -5570.770258 kJ/mol
# Density = 2.011282 g / cm^3
# Si number density = 20.158706 Si / 1000 Ang^3
#
#
#
# Elastic Constant Matrix: (Units=GPa)
#
#
# Indices 1 2 3 4 5 6 
#
# 1 60.3231 9.7695 23.5647 0.0185 11.7829 -0.0214
# 2 9.7695 71.5821 27.4709 0.0289 7.2968 -0.0303
# 3 23.5647 27.4709 65.0685 0.0482 15.7867 -0.0542
# 4 0.0185 0.0289 0.0482 -38.8972 -0.0124 89.3371
# 5 11.7829 7.2968 15.7867 -0.0124 56.8363 0.0130
# 6 -0.0214 -0.0303 -0.0542 89.3371 0.0130 -83.8979
#
#
#
# Elastic Compliance Matrix: (Units=1/GPa)
#
#
# Indices 1 2 3 4 5 6 
#
# 1 0.019572 0.000082 -0.006579 0.000000 -0.002241 -0.000001
# 2 0.000082 0.016673 -0.007018 0.000000 -0.000208 -0.000002
# 3 -0.006579 -0.007018 0.021622 0.000003 -0.003741 -0.000007
# 4 0.000000 0.000000 0.000003 0.017784 -0.000001 0.018936
# 5 -0.002241 -0.000208 -0.003741 -0.000001 0.019125 0.000005
# 6 -0.000001 -0.000002 -0.000007 0.018936 0.000005 0.008245
#
#
# Mechanical properties :
#
#
# Convention : Reuss Voigt Hill
#
# Bulk Modulus (GPa) = 32.42957 35.39821 33.91389
# Shear Modulus (GPa) = 35.63044 -4.11384 15.75830
#
# Velocity S-wave (km/s) = 4.20872 -1.43009 2.79894
# Velocity P-wave (km/s) = 6.30395 3.85629 5.22546
#
# Compressibility (1/GPa) = 0.03083605
#
# Stress axis : x y z
#
# Youngs Moduli (GPa) = 51.09388 59.97560 46.25000
#
# Poissons Ratio (x) = -0.00492 0.30428
# Poissons Ratio (y) = -0.00419 0.32460
# Poissons Ratio (z) = 0.33615 0.42094
#
# Static dielectric constant tensor:
#      x y z
#    x 1.841910 0.000000 -0.036660 
#    y 0.000000 1.732560 0.000010 
#    z -0.036660 0.000010 1.838640 
# 
# From -- ./inp_files/174181.got.cif
#   From: 2010.05.17/outbox.cif.g08.bks.cpg/sg15_88_cif.got.tgz:174181.got - 2010.06.03 18:47:42.
