data_PCOD9302421
_publ_section_title
;
Structure prediction by ZEFSAII (Michael W. Deem and Ramdas Pophale) SiO2 
 PCOD9302421
Probable space group: C 2/C
;
_chemical_formula_sum "Si O2"
_cell_formula_units_Z 40
_cell_length_a 23.693295
_cell_length_b 8.990750
_cell_length_c 7.752915
_cell_angle_alpha 90.000000
_cell_angle_beta 108.759181
_cell_angle_gamma 90.000000
_cell_volume 1563.798212
_symmetry_space_group_name_H-M "C 2/C"
_symmetry_group_IT_number 15
_symmetry_cell_setting 'monoclinic'
loop_
_space_group_symop_operation_xyz
x,y,z
-x,y,1/2-z
-x,-y,-z
x,-y,1/2+z
1/2+x,1/2+y,z
1/2-x,1/2+y,1/2-z
1/2-x,1/2-y,-z
1/2+x,1/2-y,1/2+z
loop_
_atom_site_type_symbol
_atom_site_label
_atom_site_fract_x
_atom_site_fract_y
_atom_site_fract_z
Si Si1 0.213139 0.326535 0.720860
Si Si2 0.786072 0.972457 0.088665
Si Si3 0.914218 0.312592 0.813019
Si Si4 0.083525 0.918333 0.880602
Si Si5 0.045054 0.228884 0.991656
O O1 0.212503 0.150802 0.757059
O O2 0.238652 0.397461 0.573938
O O3 0.146778 0.391997 0.690440
O O4 0.262916 0.382092 0.903231
O O5 0.852024 0.032604 0.123358
O O6 0.910371 0.169159 0.934779
O O7 0.909362 0.303535 0.599798
O O8 0.046367 0.064268 0.902498
O O9 0.014511 0.330586 0.582922
O O10 0.058838 0.810735 0.703722
#
# Coordination Sequence:
#
# PCOD9302421 Si02
#       5
#     8   8   8   8   8
#     4  11  24  46  65 102 139 184 230 290 350 418
#     4  11  25  41  70 100 140 181 231 288 357 414
#     4  11  24  37  62  98 140 176 227 283 354 412
#     4  12  21  39  65 105 136 178 235 306 348 396
#     4  11  22  35  63  97 138 178 227 296 350 399
#
# _framework density 25.578747
#
# number of rings (size 3 to 8) (size 9 to 14) (size 15 to 20)
#    0.000    0.800    4.000    3.600    5.600    3.200 
#    0.000    0.000    0.000    4.800    0.000    0.000 
#    0.000    0.000    0.000    0.000    0.000    0.000 
#
# Total GULP energy -111413.626558 kJ/mol
# GULP energy per Si atom -5570.681328 kJ/mol
# Density = 2.552053 g / cm^3
# Si number density = 25.578747 Si / 1000 Ang^3
#
#
#
# Elastic Constant Matrix: (Units=GPa)
#
#
# Indices 1 2 3 4 5 6 
#
# 1 170.1661 26.9292 29.7381 0.0000 -14.7737 0.0000
# 2 26.9292 42.7116 11.8045 0.0000 -10.7693 0.0000
# 3 29.7381 11.8045 72.0284 0.0000 3.0845 0.0000
# 4 0.0000 0.0000 0.0000 7.7146 0.0000 -15.7870
# 5 -14.7737 -10.7693 3.0845 0.0000 47.5469 0.0000
# 6 0.0000 0.0000 0.0000 -15.7870 0.0000 17.9131
#
#
#
# Elastic Compliance Matrix: (Units=1/GPa)
#
#
# Indices 1 2 3 4 5 6 
#
# 1 0.006958 -0.003331 -0.002394 0.000000 0.001563 0.000000
# 2 -0.003331 0.027844 -0.003423 0.000000 0.005494 0.000000
# 3 -0.002394 -0.003423 0.015541 0.000000 -0.002527 0.000000
# 4 0.000000 0.000000 0.000000 -0.161327 0.000000 -0.142179
# 5 0.001563 0.005494 -0.002527 0.000000 0.022926 0.000000
# 6 0.000000 0.000000 0.000000 -0.142179 0.000000 -0.069479
#
#
# Mechanical properties :
#
#
# Convention : Reuss Voigt Hill
#
# Bulk Modulus (GPa) = 31.20421 46.87218 39.03819
# Shear Modulus (GPa) = -38.89261 29.06388 -4.91436
#
# Velocity S-wave (km/s) = -3.90360 3.37449 -1.38760
# Velocity P-wave (km/s) = 2.84458 5.79201 3.56761
#
# Compressibility (1/GPa) = 0.03204696
#
# Stress axis : x y z
#
# Youngs Moduli (GPa) = 143.72447 35.91380 64.34635
#
# Poissons Ratio (x) = 0.11964 0.15402
# Poissons Ratio (y) = 0.47878 0.22027
# Poissons Ratio (z) = 0.34402 0.12294
#
# Static dielectric constant tensor:
#      x y z
#    x 2.071920 0.000000 0.034540 
#    y 0.000000 2.135780 0.000000 
#    z 0.034540 0.000000 2.052830 
# 
# From -- ./inp_files/60339.got.cif
#   From: 2010.05.17/outbox.cif.g08.bks.cpg/sg15_31_cif.got.tgz:60339.got - 2010.06.03 18:47:42.
