data_PCOD9302688
_publ_section_title
;
Structure prediction by ZEFSAII (Michael W. Deem and Ramdas Pophale) SiO2 
 PCOD9302688
Probable space group: C 2/C
;
_chemical_formula_sum "Si O2"
_cell_formula_units_Z 40
_cell_length_a 11.900738
_cell_length_b 26.889722
_cell_length_c 7.496130
_cell_angle_alpha 90.000000
_cell_angle_beta 126.239271
_cell_angle_gamma 90.000000
_cell_volume 1934.779487
_symmetry_space_group_name_H-M "C 2/C"
_symmetry_group_IT_number 15
_symmetry_cell_setting 'monoclinic'
loop_
_space_group_symop_operation_xyz
x,y,z
-x,y,1/2-z
-x,-y,-z
x,-y,1/2+z
1/2+x,1/2+y,z
1/2-x,1/2+y,1/2-z
1/2-x,1/2-y,-z
1/2+x,1/2-y,1/2+z
loop_
_atom_site_type_symbol
_atom_site_label
_atom_site_fract_x
_atom_site_fract_y
_atom_site_fract_z
Si Si1 0.000000 0.629275 0.750000
Si Si2 0.665867 0.223092 0.755324
Si Si3 0.000000 0.873146 0.750000
Si Si4 0.557089 0.298888 0.114061
Si Si5 0.756194 0.061776 0.013341
Si Si6 0.609269 0.533903 0.713498
O O1 0.097853 0.669514 0.738022
O O2 0.114789 0.589908 0.931372
O O3 0.542225 0.256760 0.563846
O O4 0.784878 0.218435 0.719860
O O5 0.750000 0.250000 0.000000
O O6 0.940849 0.839854 0.537708
O O7 0.880104 0.907097 0.719015
O O8 0.500000 0.315119 0.250000
O O9 0.798376 0.064064 0.842162
O O10 0.782368 0.004498 0.090949
O O11 0.500000 0.558913 0.750000
O O12 0.500000 0.500000 0.500000
#
# Coordination Sequence:
#
# PCOD9302688 Si02
#       6
#     4   8   4   8   8   8
#     4  12  23  38  66  94 130 172 216 268 337 378
#     4  12  21  44  69  90 135 183 213 267 334 395
#     4  12  21  40  66  98 124 170 220 274 313 388
#     4  12  25  41  67  97 133 172 221 270 332 388
#     4  11  22  39  65  92 126 167 216 268 328 392
#     4   9  18  38  64  89 116 167 211 262 328 395
#
# _framework density 20.674188999999998
#
# number of rings (size 3 to 8) (size 9 to 14) (size 15 to 20)
#    0.000    0.800    9.000    0.600    0.000    1.600 
#    0.000    0.000    0.000    0.000    0.000    0.000 
#    0.000    0.000    0.000    0.000    0.000    0.000 
#
# Total GULP energy -111361.079036 kJ/mol
# GULP energy per Si atom -5568.053952 kJ/mol
# Density = 2.062713 g / cm^3
# Si number density = 20.674189 Si / 1000 Ang^3
#
#
#
# Elastic Constant Matrix: (Units=GPa)
#
#
# Indices 1 2 3 4 5 6 
#
# 1 103.3476 27.1317 31.5365 0.0000 12.9651 0.0000
# 2 27.1317 93.9228 28.8652 0.0000 9.2623 0.0000
# 3 31.5365 28.8652 53.6638 0.0000 17.0494 0.0000
# 4 0.0000 0.0000 0.0000 30.0048 0.0000 15.8880
# 5 12.9651 9.2623 17.0494 0.0000 49.8047 0.0000
# 6 0.0000 0.0000 0.0000 15.8880 0.0000 24.1772
#
#
#
# Elastic Compliance Matrix: (Units=1/GPa)
#
#
# Indices 1 2 3 4 5 6 
#
# 1 0.012005 -0.001556 -0.005966 0.000000 -0.000793 0.000000
# 2 -0.001556 0.012957 -0.006079 0.000000 0.000077 0.000000
# 3 -0.005966 -0.006079 0.027555 0.000000 -0.006749 0.000000
# 4 0.000000 0.000000 0.000000 0.051114 0.000000 -0.033590
# 5 -0.000793 0.000077 -0.006749 0.000000 0.022581 0.000000
# 6 0.000000 0.000000 0.000000 -0.033590 0.000000 0.063435
#
#
# Mechanical properties :
#
#
# Convention : Reuss Voigt Hill
#
# Bulk Modulus (GPa) = 39.50347 47.33345 43.41846
# Shear Modulus (GPa) = 22.19388 31.69072 26.94230
#
# Velocity S-wave (km/s) = 3.28000 3.91943 3.61388
# Velocity P-wave (km/s) = 5.78737 6.58993 6.20165
#
# Compressibility (1/GPa) = 0.02531424
#
# Stress axis : x y z
#
# Youngs Moduli (GPa) = 83.30172 77.17586 36.29150
#
# Poissons Ratio (x) = 0.12010 0.21650
# Poissons Ratio (y) = 0.12963 0.22063
# Poissons Ratio (z) = 0.49694 0.46919
#
# Static dielectric constant tensor:
#      x y z
#    x 1.830940 0.000000 0.003470 
#    y 0.000000 1.804060 0.000000 
#    z 0.003470 0.000000 1.801960 
# 
# From -- ./inp_files/34900.got.cif
#   From: 2010.05.17/outbox.cif.g08.bks.cpg/sg15_18_cif.got.tgz:34900.got - 2010.06.03 18:47:42.
