data_PCOD9302537
_publ_section_title
;
Structure prediction by ZEFSAII (Michael W. Deem and Ramdas Pophale) SiO2 
 PCOD9302537
Probable space group: C 2/C
;
_chemical_formula_sum "Si O2"
_cell_formula_units_Z 32
_cell_length_a 11.043023
_cell_length_b 10.417006
_cell_length_c 15.587577
_cell_angle_alpha 90.000000
_cell_angle_beta 121.054064
_cell_angle_gamma 90.000000
_cell_volume 1536.132237
_symmetry_space_group_name_H-M "C 2/C"
_symmetry_group_IT_number 15
_symmetry_cell_setting 'monoclinic'
loop_
_space_group_symop_operation_xyz
x,y,z
-x,y,1/2-z
-x,-y,-z
x,-y,1/2+z
1/2+x,1/2+y,z
1/2-x,1/2+y,1/2-z
1/2-x,1/2-y,-z
1/2+x,1/2-y,1/2+z
loop_
_atom_site_type_symbol
_atom_site_label
_atom_site_fract_x
_atom_site_fract_y
_atom_site_fract_z
Si Si1 0.286652 0.949960 0.559827
Si Si2 0.899993 0.166793 0.957180
Si Si3 0.405051 0.681828 0.635711
Si Si4 0.912692 0.711920 0.632454
O O1 0.340566 0.823164 0.626419
O O2 0.222422 0.908204 0.444374
O O3 0.158289 0.021420 0.561805
O O4 0.403128 0.062223 0.600030
O O5 0.751066 0.245546 0.905245
O O6 0.994070 0.195057 0.910434
O O7 0.965988 0.204215 0.072713
O O8 0.500000 0.637869 0.750000
O O9 0.000000 0.725343 0.750000
#
# Coordination Sequence:
#
# PCOD9302537 Si02
#       4
#     8   8   8   8
#     4   9  21  40  56  88 122 152 206 250 289 368
#     4   9  21  40  58  90 120 154 207 250 288 374
#     4  11  22  38  60  88 126 160 198 246 308 356
#     4   9  19  39  61  85 119 159 198 251 309 348
#
# _framework density 20.83154
#
# number of rings (size 3 to 8) (size 9 to 14) (size 15 to 20)
#    1.500    1.000    0.000    1.500    0.000    6.000 
#    4.500    0.000    0.000    0.000    0.000    0.000 
#    0.000    0.000    0.000    0.000    0.000    0.000 
#
# Total GULP energy -89124.652242 kJ/mol
# GULP energy per Si atom -5570.290765 kJ/mol
# Density = 2.078413 g / cm^3
# Si number density = 20.831540 Si / 1000 Ang^3
#
#
#
# Elastic Constant Matrix: (Units=GPa)
#
#
# Indices 1 2 3 4 5 6 
#
# 1 64.0690 29.5871 26.7507 0.0000 -21.7337 0.0000
# 2 29.5871 48.9766 3.9678 0.0000 -6.0652 0.0000
# 3 26.7507 3.9678 163.8496 0.0000 -10.1589 0.0000
# 4 0.0000 0.0000 0.0000 20.0528 0.0000 7.1771
# 5 -21.7337 -6.0652 -10.1589 0.0000 20.1895 0.0000
# 6 0.0000 0.0000 0.0000 7.1771 0.0000 20.3202
#
#
#
# Elastic Compliance Matrix: (Units=1/GPa)
#
#
# Indices 1 2 3 4 5 6 
#
# 1 0.035829 -0.017453 -0.003469 0.000000 0.031581 0.000000
# 2 -0.017453 0.029711 0.001567 0.000000 -0.009073 0.000000
# 3 -0.003469 0.001567 0.006636 0.000000 0.000076 0.000000
# 4 0.000000 0.000000 0.000000 0.057085 0.000000 -0.020162
# 5 0.031581 -0.009073 0.000076 0.000000 0.080840 0.000000
# 6 0.000000 0.000000 0.000000 -0.020162 0.000000 0.056334
#
#
# Mechanical properties :
#
#
# Convention : Reuss Voigt Hill
#
# Bulk Modulus (GPa) = 29.87969 44.16737 37.02353
# Shear Modulus (GPa) = 15.80787 26.55180 21.17983
#
# Velocity S-wave (km/s) = 2.75770 3.57402 3.19206
# Velocity P-wave (km/s) = 4.95121 6.18706 5.60331
#
# Compressibility (1/GPa) = 0.03346755
#
# Stress axis : x y z
#
# Youngs Moduli (GPa) = 27.91018 33.65805 150.68751
#
# Poissons Ratio (x) = 0.58742 0.52272
# Poissons Ratio (y) = 0.48711 -0.23618
# Poissons Ratio (z) = 0.09682 -0.05275
#
# Static dielectric constant tensor:
#      x y z
#    x 1.756280 0.000000 0.056410 
#    y 0.000000 1.803420 0.000000 
#    z 0.056410 0.000000 1.750820 
# 
# From -- ./inp_files/142064.got.cif
#   From: 2010.05.17/outbox.cif.g08.bks.cpg/sg15_72_cif.got.tgz:142064.got - 2010.06.03 18:47:42.
