data_PCOD9302418
_publ_section_title
;
Structure prediction by ZEFSAII (Michael W. Deem and Ramdas Pophale) SiO2 
 PCOD9302418
Probable space group: C 2/C
;
_chemical_formula_sum "Si O2"
_cell_formula_units_Z 32
_cell_length_a 17.586282
_cell_length_b 8.947695
_cell_length_c 10.335949
_cell_angle_alpha 90.000000
_cell_angle_beta 48.743873
_cell_angle_gamma 90.000000
_cell_volume 1222.700659
_symmetry_space_group_name_H-M "C 2/C"
_symmetry_group_IT_number 15
_symmetry_cell_setting 'monoclinic'
loop_
_space_group_symop_operation_xyz
x,y,z
-x,y,1/2-z
-x,-y,-z
x,-y,1/2+z
1/2+x,1/2+y,z
1/2-x,1/2+y,1/2-z
1/2-x,1/2-y,-z
1/2+x,1/2-y,1/2+z
loop_
_atom_site_type_symbol
_atom_site_label
_atom_site_fract_x
_atom_site_fract_y
_atom_site_fract_z
Si Si1 0.072959 0.408189 0.568703
Si Si2 0.610397 0.275966 0.272290
Si Si3 0.391266 0.606195 0.315407
Si Si4 0.769683 0.354628 0.294172
O O1 0.126938 0.298189 0.612421
O O2 0.157587 0.458612 0.374760
O O3 0.000000 0.500483 0.750000
O O4 0.992738 0.310588 0.576613
O O5 0.591215 0.452186 0.279858
O O6 0.699153 0.266231 0.273769
O O7 0.500000 0.649245 0.250000
O O8 0.307819 0.569403 0.519971
O O9 0.339017 0.738294 0.294094
#
# Coordination Sequence:
#
# PCOD9302418 Si02
#       4
#     8   8   8   8
#     4   8  19  36  62  90 116 157 202 254 293 356
#     4   9  20  38  65  90 119 158 209 250 299 358
#     4  11  23  39  62  96 124 157 204 260 302 350
#     4  11  22  35  61  96 125 154 202 261 304 356
#
# _framework density 26.171572000000001
#
# number of rings (size 3 to 8) (size 9 to 14) (size 15 to 20)
#    1.500    0.500    2.500    2.250    3.500    2.000 
#    0.000    0.000    0.000   24.000    0.000    0.000 
#    0.000    0.000    0.000    0.000    0.000    0.000 
#
# Total GULP energy -89407.018773 kJ/mol
# GULP energy per Si atom -5587.938673 kJ/mol
# Density = 2.611200 g / cm^3
# Si number density = 26.171572 Si / 1000 Ang^3
#
#
#
# Elastic Constant Matrix: (Units=GPa)
#
#
# Indices 1 2 3 4 5 6 
#
# 1 203.6859 49.1590 27.4780 0.0000 -19.1519 0.0000
# 2 49.1590 95.2117 13.6122 0.0000 -18.7492 0.0000
# 3 27.4780 13.6122 183.2359 0.0000 -29.6758 0.0000
# 4 0.0000 0.0000 0.0000 7.4037 0.0000 13.1479
# 5 -19.1519 -18.7492 -29.6758 0.0000 23.0203 0.0000
# 6 0.0000 0.0000 0.0000 13.1479 0.0000 16.0020
#
#
#
# Elastic Compliance Matrix: (Units=1/GPa)
#
#
# Indices 1 2 3 4 5 6 
#
# 1 0.005770 -0.002461 -0.000290 0.000000 0.002422 0.000000
# 2 -0.002461 0.013680 0.001044 0.000000 0.010440 0.000000
# 3 -0.000290 0.001044 0.006979 0.000000 0.009605 0.000000
# 4 0.000000 0.000000 0.000000 -0.294190 0.000000 0.241718
# 5 0.002422 0.010440 0.009605 0.000000 0.066341 0.000000
# 6 0.000000 0.000000 0.000000 0.241718 0.000000 -0.136113
#
#
# Mechanical properties :
#
#
# Convention : Reuss Voigt Hill
#
# Bulk Modulus (GPa) = 43.45070 73.62576 58.53823
# Shear Modulus (GPa) = -15.31648 35.41081 10.04717
#
# Velocity S-wave (km/s) = -2.42178 3.68234 1.96145
# Velocity P-wave (km/s) = 2.96955 6.80239 5.24837
#
# Compressibility (1/GPa) = 0.02301459
#
# Stress axis : x y z
#
# Youngs Moduli (GPa) = 173.29995 73.09887 143.28561
#
# Poissons Ratio (x) = 0.17988 0.04158
# Poissons Ratio (y) = 0.42646 -0.14953
# Poissons Ratio (z) = 0.05029 -0.07628
#
# Static dielectric constant tensor:
#      x y z
#    x 2.035100 0.000000 -0.020820 
#    y 0.000000 1.976670 0.000000 
#    z -0.020820 0.000000 2.154790 
# 
# From -- ./inp_files/103137.got.cif
#   From: 2010.05.17/outbox.cif.g08.bks.cpg/sg15_52_cif.got.tgz:103137.got - 2010.06.03 18:47:42.
