data_PCOD9302739
_publ_section_title
;
Structure prediction by ZEFSAII (Michael W. Deem and Ramdas Pophale) SiO2 
 PCOD9302739
Probable space group: C 2/C
;
_chemical_formula_sum "Si O2"
_cell_formula_units_Z 44
_cell_length_a 24.046122
_cell_length_b 13.534903
_cell_length_c 21.310338
_cell_angle_alpha 90.000000
_cell_angle_beta 17.988236
_cell_angle_gamma 90.000000
_cell_volume 2141.895924
_symmetry_space_group_name_H-M "C 2/C"
_symmetry_group_IT_number 15
_symmetry_cell_setting 'monoclinic'
loop_
_space_group_symop_operation_xyz
x,y,z
-x,y,1/2-z
-x,-y,-z
x,-y,1/2+z
1/2+x,1/2+y,z
1/2-x,1/2+y,1/2-z
1/2-x,1/2-y,-z
1/2+x,1/2-y,1/2+z
loop_
_atom_site_type_symbol
_atom_site_label
_atom_site_fract_x
_atom_site_fract_y
_atom_site_fract_z
Si Si1 0.204471 0.353390 0.014058
Si Si2 0.263538 0.465183 0.619593
Si Si3 0.000000 0.999340 0.750000
Si Si4 0.336758 0.399174 0.163050
Si Si5 0.876430 0.555927 0.027794
Si Si6 0.273031 0.680027 0.213105
O O1 0.000000 0.375377 0.250000
O O2 0.250000 0.250000 0.000000
O O3 0.343369 0.430470 0.891975
O O4 0.206470 0.373934 0.937307
O O5 0.406130 0.451198 0.410748
O O6 0.325809 0.541439 0.608584
O O7 0.243183 0.360007 0.675324
O O8 0.071514 0.509645 0.803295
O O9 0.249880 0.467258 0.311018
O O10 0.231701 0.296118 0.273814
O O11 0.539650 0.366664 0.962836
O O12 0.886119 0.629053 0.076397
#
# Coordination Sequence:
#
# PCOD9302739 Si02
#       6
#     8   8   4   8   8   8
#     4  12  25  41  61  93 128 176 214 263 331 400
#     4  11  23  41  64  97 130 178 216 273 336 385
#     4  12  24  42  64  88 142 170 218 268 324 402
#     4  11  22  40  65  96 127 170 222 279 330 387
#     4  11  23  41  63  95 132 168 224 276 330 389
#     4  11  22  39  68  94 128 170 223 276 328 394
#
# _framework density 20.542548
#
# number of rings (size 3 to 8) (size 9 to 14) (size 15 to 20)
#    0.000    0.727    2.727    8.727    2.545    1.455 
#    0.000    0.000    2.000    3.273    0.000    0.000 
#    0.000    0.000    0.000    0.000    0.000    0.000 
#
# Total GULP energy -122761.776557 kJ/mol
# GULP energy per Si atom -5580.080753 kJ/mol
# Density = 2.049579 g / cm^3
# Si number density = 20.542548 Si / 1000 Ang^3
#
#
#
# Elastic Constant Matrix: (Units=GPa)
#
#
# Indices 1 2 3 4 5 6 
#
# 1 60.4185 12.9588 40.1200 -0.0277 12.1574 0.0066
# 2 12.9588 93.2592 30.8563 -0.0479 12.1654 0.0156
# 3 40.1200 30.8563 114.9207 -0.0265 7.7166 0.0084
# 4 -0.0277 -0.0479 -0.0265 20.9074 0.0030 -4.2089
# 5 12.1574 12.1654 7.7166 0.0030 51.2297 0.0000
# 6 0.0066 0.0156 0.0084 -4.2089 0.0000 27.6407
#
#
#
# Elastic Compliance Matrix: (Units=1/GPa)
#
#
# Indices 1 2 3 4 5 6 
#
# 1 0.022399 -0.000082 -0.007518 0.000021 -0.004164 0.000000
# 2 -0.000082 0.012054 -0.003048 0.000024 -0.002384 -0.000002
# 3 -0.007518 -0.003048 0.012099 -0.000002 0.000685 0.000000
# 4 0.000021 0.000024 -0.000002 0.049343 -0.000013 0.007514
# 5 -0.004164 -0.002384 0.000685 -0.000013 0.020971 0.000000
# 6 0.000000 -0.000002 0.000000 0.007514 0.000000 0.037323
#
#
# Mechanical properties :
#
#
# Convention : Reuss Voigt Hill
#
# Bulk Modulus (GPa) = 39.59507 48.49651 44.04579
# Shear Modulus (GPa) = 27.18855 32.26647 29.72751
#
# Velocity S-wave (km/s) = 3.64197 3.96752 3.80823
# Velocity P-wave (km/s) = 6.08291 6.68187 6.38941
#
# Compressibility (1/GPa) = 0.02525567
#
# Stress axis : x y z
#
# Youngs Moduli (GPa) = 44.64507 82.96322 82.65409
#
# Poissons Ratio (x) = 0.00678 0.62141
# Poissons Ratio (y) = 0.00365 0.25191
# Poissons Ratio (z) = 0.33565 0.25285
#
# Static dielectric constant tensor:
#      x y z
#    x 1.834690 -0.000020 0.036890 
#    y -0.000020 1.719610 0.000000 
#    z 0.036890 0.000000 1.788850 
# 
# From -- ./inp_files/255638.got.cif
#   From: 2010.05.17/outbox.cif.g08.bks.cpg/sg15_128_cif.got.tgz:255638.got - 2010.06.03 18:47:42.
