data_PCOD9302923
_publ_section_title
;
Structure prediction by ZEFSAII (Michael W. Deem and Ramdas Pophale) SiO2 
 PCOD9302923
Probable space group: C 2/C
;
_chemical_formula_sum "Si O2"
_cell_formula_units_Z 48
_cell_length_a 15.133981
_cell_length_b 15.443329
_cell_length_c 14.416623
_cell_angle_alpha 90.000000
_cell_angle_beta 142.917761
_cell_angle_gamma 90.000000
_cell_volume 2031.639597
_symmetry_space_group_name_H-M "C 2/C"
_symmetry_group_IT_number 15
_symmetry_cell_setting 'monoclinic'
loop_
_space_group_symop_operation_xyz
x,y,z
-x,y,1/2-z
-x,-y,-z
x,-y,1/2+z
1/2+x,1/2+y,z
1/2-x,1/2+y,1/2-z
1/2-x,1/2-y,-z
1/2+x,1/2-y,1/2+z
loop_
_atom_site_type_symbol
_atom_site_label
_atom_site_fract_x
_atom_site_fract_y
_atom_site_fract_z
Si Si1 0.326113 0.500849 0.831864
Si Si2 0.000000 0.155046 0.750000
Si Si3 0.321483 0.692542 0.769216
Si Si4 0.720295 0.494459 0.499365
Si Si5 0.472825 0.758267 0.402894
Si Si6 0.898266 0.446273 0.985099
Si Si7 0.000000 0.143994 0.250000
O O1 0.299681 0.589504 0.754643
O O2 0.252716 0.432302 0.701039
O O3 0.500000 0.500000 0.000000
O O4 0.246983 0.496812 0.864442
O O5 0.919875 0.210333 0.762067
O O6 0.879188 0.090160 0.604079
O O7 0.166605 0.738246 0.646121
O O8 0.402235 0.713068 0.932526
O O9 0.854712 0.502468 0.541433
O O10 0.621860 0.579383 0.393902
O O11 0.525768 0.855832 0.427622
O O12 0.446248 0.707003 0.286436
O O13 0.000000 0.500000 0.000000
#
# Coordination Sequence:
#
# PCOD9302923 Si02
#       7
#     8   4   8   8   8   8   4
#     4  12  23  44  72 100 134 186 234 281 346 421
#     4  11  22  44  72  97 136 180 244 277 334 420
#     4  12  26  46  68 104 139 186 228 293 349 419
#     4  11  22  40  74 103 132 185 234 281 349 422
#     4  12  28  44  69 105 149 180 228 293 363 419
#     4  12  26  46  67 103 145 180 230 292 344 417
#     4  11  24  42  70 111 140 182 226 293 366 418
#
# _framework density 23.626238000000001
#
# number of rings (size 3 to 8) (size 9 to 14) (size 15 to 20)
#    0.000    0.333    6.667    2.000    4.667    2.667 
#    0.000    1.667    0.000    0.000    0.000    0.000 
#    0.000    0.000    0.000    0.000    0.000    0.000 
#
# Total GULP energy -134410.889105 kJ/mol
# GULP energy per Si atom -5600.453713 kJ/mol
# Density = 2.357246 g / cm^3
# Si number density = 23.626238 Si / 1000 Ang^3
#
#
#
# Elastic Constant Matrix: (Units=GPa)
#
#
# Indices 1 2 3 4 5 6 
#
# 1 142.5529 -14.0963 9.7186 0.0000 0.7478 0.0000
# 2 -14.0963 38.8856 -2.8052 0.0000 11.7285 0.0000
# 3 9.7186 -2.8052 58.0236 0.0000 -2.9003 0.0000
# 4 0.0000 0.0000 0.0000 19.9824 0.0001 -3.9265
# 5 0.7478 11.7285 -2.9003 0.0001 40.5799 0.0000
# 6 0.0000 0.0000 0.0000 -3.9265 0.0000 37.9317
#
#
#
# Elastic Compliance Matrix: (Units=1/GPa)
#
#
# Indices 1 2 3 4 5 6 
#
# 1 0.007387 0.002915 -0.001149 0.000000 -0.001061 0.000000
# 2 0.002915 0.029376 0.000507 0.000000 -0.008508 0.000000
# 3 -0.001149 0.000507 0.017508 0.000000 0.001126 0.000000
# 4 0.000000 0.000000 0.000000 0.051083 0.000000 0.005288
# 5 -0.001061 -0.008508 0.001126 0.000000 0.027202 0.000000
# 6 0.000000 0.000000 0.000000 0.005288 0.000000 0.026911
#
#
# Mechanical properties :
#
#
# Convention : Reuss Voigt Hill
#
# Bulk Modulus (GPa) = 17.00250 25.01072 21.00661
# Shear Modulus (GPa) = 28.64896 36.14180 32.39538
#
# Velocity S-wave (km/s) = 3.48601 3.91542 3.70694
# Velocity P-wave (km/s) = 4.83891 5.57222 5.21846
#
# Compressibility (1/GPa) = 0.05881489
#
# Stress axis : x y z
#
# Youngs Moduli (GPa) = 135.37108 34.04167 57.11789
#
# Poissons Ratio (x) = -0.09923 0.06565
# Poissons Ratio (y) = -0.39459 -0.02894
# Poissons Ratio (z) = 0.15560 -0.01725
#
# Static dielectric constant tensor:
#      x y z
#    x 1.921930 0.000000 0.050670 
#    y 0.000000 1.897100 0.000000 
#    z 0.050670 0.000000 1.954950 
# 
# From -- ./inp_files/155297.got.cif
#   From: 2010.05.17/outbox.cif.g08.bks.cpg/sg15_78_cif.got.tgz:155297.got - 2010.06.03 18:47:42.
