data_PCOD9302965
_publ_section_title
;
Structure prediction by ZEFSAII (Michael W. Deem and Ramdas Pophale) SiO2 
 PCOD9302965
Probable space group: C 2/C
;
_chemical_formula_sum "Si O2"
_cell_formula_units_Z 48
_cell_length_a 8.249016
_cell_length_b 10.908736
_cell_length_c 24.906407
_cell_angle_alpha 90.000000
_cell_angle_beta 82.851559
_cell_angle_gamma 90.000000
_cell_volume 2223.815411
_symmetry_space_group_name_H-M "C 2/C"
_symmetry_group_IT_number 15
_symmetry_cell_setting 'monoclinic'
loop_
_space_group_symop_operation_xyz
x,y,z
-x,y,1/2-z
-x,-y,-z
x,-y,1/2+z
1/2+x,1/2+y,z
1/2-x,1/2+y,1/2-z
1/2-x,1/2-y,-z
1/2+x,1/2-y,1/2+z
loop_
_atom_site_type_symbol
_atom_site_label
_atom_site_fract_x
_atom_site_fract_y
_atom_site_fract_z
Si Si1 0.359510 0.530999 0.870089
Si Si2 0.397534 0.691804 0.706843
Si Si3 0.837436 0.639547 0.963280
Si Si4 0.135201 0.428475 0.285079
Si Si5 0.706361 0.110781 0.987739
Si Si6 0.593430 0.262903 0.652749
O O1 0.477849 0.633507 0.840403
O O2 0.199265 0.518600 0.838548
O O3 0.302434 0.569686 0.930736
O O4 0.445397 0.399186 0.864934
O O5 0.500000 0.755041 0.750000
O O6 0.297688 0.586791 0.742942
O O7 0.253219 0.763829 0.683964
O O8 0.859372 0.681808 0.901057
O O9 0.015393 0.622022 0.981701
O O10 0.750000 0.750000 0.000000
O O11 0.761733 0.502424 0.972414
O O12 0.000000 0.481261 0.250000
O O13 0.052329 0.300647 0.308357
O O14 0.750000 0.250000 0.000000
#
# Coordination Sequence:
#
# PCOD9302965 Si02
#       6
#     8   8   8   8   8   8
#     4  11  22  41  65  95 129 170 213 269 326 397
#     4   9  22  39  62  95 129 163 217 259 323 394
#     4  11  24  44  66  98 129 173 223 271 327 397
#     4   9  20  41  61  91 129 165 212 266 320 385
#     4  11  26  43  67  96 136 170 222 280 328 393
#     4  11  22  41  69  91 131 173 214 268 332 387
#
# _framework density 21.584524999999999
#
# number of rings (size 3 to 8) (size 9 to 14) (size 15 to 20)
#    0.000    1.667    3.333    0.000    2.333    8.667 
#    0.000    3.333    0.000    0.000    0.000    0.000 
#    0.000    0.000    0.000    0.000    0.000    0.000 
#
# Total GULP energy -133842.533555 kJ/mol
# GULP energy per Si atom -5576.772231 kJ/mol
# Density = 2.153540 g / cm^3
# Si number density = 21.584525 Si / 1000 Ang^3
#
#
#
# Elastic Constant Matrix: (Units=GPa)
#
#
# Indices 1 2 3 4 5 6 
#
# 1 56.3269 4.4376 -2.3553 0.0000 -6.8711 0.0000
# 2 4.4376 129.7828 23.9543 0.0000 -9.6438 0.0000
# 3 -2.3553 23.9543 71.0028 0.0000 -11.7139 0.0000
# 4 0.0000 0.0000 0.0000 -66.6694 0.0000 -30.9404
# 5 -6.8711 -9.6438 -11.7139 0.0000 34.4856 0.0000
# 6 0.0000 0.0000 0.0000 -30.9404 0.0000 1.1687
#
#
#
# Elastic Compliance Matrix: (Units=1/GPa)
#
#
# Indices 1 2 3 4 5 6 
#
# 1 0.018349 -0.000602 0.001470 0.000000 0.003987 0.000000
# 2 -0.000602 0.008304 -0.002604 0.000000 0.001318 0.000000
# 3 0.001470 -0.002604 0.015826 0.000000 0.004940 0.000000
# 4 0.000000 0.000000 0.000000 -0.001129 0.000000 -0.029888
# 5 0.003987 0.001318 0.004940 0.000000 0.031839 0.000000
# 6 0.000000 0.000000 0.000000 -0.029888 0.000000 0.064401
#
#
# Mechanical properties :
#
#
# Convention : Reuss Voigt Hill
#
# Bulk Modulus (GPa) = 25.63750 34.35396 29.99573
# Shear Modulus (GPa) = 32.45371 9.20204 20.82787
#
# Velocity S-wave (km/s) = 3.88179 2.06701 3.10973
# Velocity P-wave (km/s) = 5.65637 4.65266 5.17889
#
# Compressibility (1/GPa) = 0.03900536
#
# Stress axis : x y z
#
# Youngs Moduli (GPa) = 54.49963 120.41858 63.18575
#
# Poissons Ratio (x) = 0.07254 -0.09286
# Poissons Ratio (y) = 0.03283 0.16455
# Poissons Ratio (z) = -0.08009 0.31360
#
# Static dielectric constant tensor:
#      x y z
#    x 1.794520 0.000000 0.052870 
#    y 0.000000 1.961030 0.000000 
#    z 0.052870 0.000000 1.780040 
# 
# From -- ./inp_files/263083.got.cif
#   From: 2010.05.17/outbox.cif.g08.bks.cpg/sg15_132_cif.got.tgz:263083.got - 2010.06.03 18:47:42.
