data_PCOD9302118
_publ_section_title
;
Structure prediction by ZEFSAII (Michael W. Deem and Ramdas Pophale) SiO2 
 PCOD9302118
Probable space group: C 2/C
;
_chemical_formula_sum "Si O2"
_cell_formula_units_Z 64
_cell_length_a 26.657173
_cell_length_b 16.272312
_cell_length_c 11.951749
_cell_angle_alpha 90.000000
_cell_angle_beta 143.807866
_cell_angle_gamma 90.000000
_cell_volume 3061.335662
_symmetry_space_group_name_H-M "C 2/C"
_symmetry_group_IT_number 15
_symmetry_cell_setting 'monoclinic'
loop_
_space_group_symop_operation_xyz
x,y,z
-x,y,1/2-z
-x,-y,-z
x,-y,1/2+z
1/2+x,1/2+y,z
1/2-x,1/2+y,1/2-z
1/2-x,1/2-y,-z
1/2+x,1/2-y,1/2+z
loop_
_atom_site_type_symbol
_atom_site_label
_atom_site_fract_x
_atom_site_fract_y
_atom_site_fract_z
Si Si1 0.246621 0.187357 0.765658
Si Si2 0.373689 0.068852 0.587772
Si Si3 0.944620 0.923467 0.864750
Si Si4 0.549893 0.705929 0.449712
Si Si5 0.035082 0.385071 0.479703
Si Si6 0.294769 0.481810 0.439742
Si Si7 0.817308 0.415939 0.582975
Si Si8 0.199728 0.136140 0.226229
O O1 0.148472 0.213524 0.601928
O O2 0.243680 0.104299 0.681179
O O3 0.296706 0.270060 0.815601
O O4 0.274995 0.159284 0.941531
O O5 0.415994 0.089922 0.545809
O O6 0.290799 0.124793 0.452556
O O7 0.345659 0.975529 0.534759
O O8 0.443817 0.071904 0.812388
O O9 0.885028 0.952865 0.653846
O O10 0.877825 0.883086 0.830864
O O11 0.020992 0.859959 0.985066
O O12 0.000000 0.000000 0.000000
O O13 0.500000 0.680953 0.250000
O O14 0.512250 0.791151 0.421434
O O15 0.100669 0.392230 0.697734
O O16 0.241499 0.526363 0.443732
O O17 0.302296 0.558497 0.365281
#
# Coordination Sequence:
#
# PCOD9302118 Si02
#       8
#     8   8   8   8   8   8   8   8
#     4  12  25  43  72 102 145 187 243 301 355 436
#     4  11  21  42  66  97 136 179 234 287 353 428
#     4  12  28  44  71 105 141 190 233 292 359 424
#     4  12  22  43  68  98 134 182 237 287 354 419
#     4  11  23  41  68  97 136 178 230 300 351 423
#     4  12  23  44  72  99 145 188 238 302 358 431
#     4  12  23  42  68 103 136 185 234 295 372 422
#     4  12  25  47  71 108 142 189 244 296 359 435
#
# _framework density 20.905908
#
# number of rings (size 3 to 8) (size 9 to 14) (size 15 to 20)
#    0.000    0.250    7.500    1.875    0.000    4.500 
#    0.000    2.500    0.000    0.000    0.000    0.000 
#    0.000    0.000    0.000    0.000    0.000    0.000 
#
# Total GULP energy -178352.458189 kJ/mol
# GULP energy per Si atom -5573.514318 kJ/mol
# Density = 2.085832 g / cm^3
# Si number density = 20.905908 Si / 1000 Ang^3
#
#
#
# Elastic Constant Matrix: (Units=GPa)
#
#
# Indices 1 2 3 4 5 6 
#
# 1 121.8831 -30.7815 -13.9874 0.0000 20.2079 0.0000
# 2 -30.7815 136.9444 27.3863 0.0000 -12.9804 0.0000
# 3 -13.9874 27.3863 106.8309 0.0000 -5.5393 0.0000
# 4 0.0000 0.0000 0.0000 37.9009 0.0000 -49.6026
# 5 20.2079 -12.9804 -5.5393 0.0000 27.4022 0.0000
# 6 0.0000 0.0000 0.0000 -49.6026 0.0000 224.3200
#
#
#
# Elastic Compliance Matrix: (Units=1/GPa)
#
#
# Indices 1 2 3 4 5 6 
#
# 1 0.009690 0.001464 0.000565 0.000000 -0.006338 0.000000
# 2 0.001464 0.008222 -0.001789 0.000000 0.002453 0.000000
# 3 0.000565 -0.001789 0.009932 0.000000 0.000744 0.000000
# 4 0.000000 0.000000 0.000000 0.037130 0.000000 0.008210
# 5 -0.006338 0.002453 0.000744 0.000000 0.042480 0.000000
# 6 0.000000 0.000000 0.000000 0.008210 0.000000 0.006273
#
#
# Mechanical properties :
#
#
# Convention : Reuss Voigt Hill
#
# Bulk Modulus (GPa) = 35.30570 36.76591 36.03580
# Shear Modulus (GPa) = 40.75407 83.46067 62.10737
#
# Velocity S-wave (km/s) = 4.42000 6.32524 5.45642
# Velocity P-wave (km/s) = 6.55538 8.42434 7.54793
#
# Compressibility (1/GPa) = 0.02832404
#
# Stress axis : x y z
#
# Youngs Moduli (GPa) = 103.19842 121.63067 100.68839
#
# Poissons Ratio (x) = -0.17811 -0.05686
# Poissons Ratio (y) = -0.15112 0.18010
# Poissons Ratio (z) = -0.05827 0.21756
#
# Static dielectric constant tensor:
#      x y z
#    x 1.633620 0.000000 -0.123280 
#    y 0.000000 1.775820 0.000000 
#    z -0.123280 0.000000 1.648810 
# 
# From -- ./inp_files/123549.got.cif
#   From: 2010.05.17/outbox.cif.g08.bks.cpg/sg15_62_cif.got.tgz:123549.got - 2010.06.03 18:47:42.
