data_PCOD9302478
_publ_section_title
;
Structure prediction by ZEFSAII (Michael W. Deem and Ramdas Pophale) SiO2 
 PCOD9302478
Probable space group: C 2/C
;
_chemical_formula_sum "Si O2"
_cell_formula_units_Z 48
_cell_length_a 18.016194
_cell_length_b 19.148630
_cell_length_c 14.410632
_cell_angle_alpha 90.000000
_cell_angle_beta 28.217963
_cell_angle_gamma 90.000000
_cell_volume 2350.639838
_symmetry_space_group_name_H-M "C 2/C"
_symmetry_group_IT_number 15
_symmetry_cell_setting 'monoclinic'
loop_
_space_group_symop_operation_xyz
x,y,z
-x,y,1/2-z
-x,-y,-z
x,-y,1/2+z
1/2+x,1/2+y,z
1/2-x,1/2+y,1/2-z
1/2-x,1/2-y,-z
1/2+x,1/2-y,1/2+z
loop_
_atom_site_type_symbol
_atom_site_label
_atom_site_fract_x
_atom_site_fract_y
_atom_site_fract_z
Si Si1 0.113116 0.465755 0.769721
Si Si2 0.321033 0.719529 0.825502
Si Si3 0.546016 0.113557 0.595783
Si Si4 0.552261 0.831421 0.484616
Si Si5 0.645398 0.427275 0.145039
Si Si6 0.180287 0.024675 0.275862
O O1 0.986496 0.410452 0.943650
O O2 0.210541 0.425471 0.584080
O O3 0.229231 0.482079 0.726943
O O4 0.037969 0.537662 0.819799
O O5 0.423399 0.779400 0.667667
O O6 0.408139 0.648366 0.759842
O O7 0.250000 0.750000 0.000000
O O8 0.204449 0.693783 0.872653
O O9 0.500000 0.138038 0.750000
O O10 0.467937 0.163962 0.604217
O O11 0.730075 0.095993 0.364217
O O12 0.500000 0.460502 0.250000
O O13 0.704235 0.473052 0.164383
O O14 0.000000 0.000000 0.500000
#
# Coordination Sequence:
#
# PCOD9302478 Si02
#       6
#     8   8   8   8   8   8
#     4  11  22  40  63  94 130 166 210 266 324 399
#     4  12  24  39  62  89 127 168 212 264 324 390
#     4  11  23  42  68  93 126 173 221 270 325 392
#     4  11  25  42  61  93 127 170 220 264 326 389
#     4  12  22  36  62  95 132 162 206 261 328 388
#     4  11  22  37  59  93 130 164 205 264 326 379
#
# _framework density 20.419972000000001
#
# number of rings (size 3 to 8) (size 9 to 14) (size 15 to 20)
#    0.000    0.667    5.000    5.500    0.000    0.000 
#    0.000    0.833    0.000    0.000    0.000    0.000 
#    0.000    0.000    0.000    0.000    0.000    0.000 
#
# Total GULP energy -133701.303581 kJ/mol
# GULP energy per Si atom -5570.887649 kJ/mol
# Density = 2.037350 g / cm^3
# Si number density = 20.419972 Si / 1000 Ang^3
#
#
#
# Elastic Constant Matrix: (Units=GPa)
#
#
# Indices 1 2 3 4 5 6 
#
# 1 156.8373 39.3071 46.4915 -0.0025 12.7838 0.0004
# 2 39.3071 51.7170 -4.6575 -0.0071 -0.2864 0.0060
# 3 46.4915 -4.6575 78.3854 -0.0110 9.2414 0.0105
# 4 -0.0025 -0.0071 -0.0110 28.0812 0.0039 -0.8093
# 5 12.7838 -0.2864 9.2414 0.0039 47.9475 -0.0019
# 6 0.0004 0.0060 0.0105 -0.8093 -0.0019 35.9837
#
#
#
# Elastic Compliance Matrix: (Units=1/GPa)
#
#
# Indices 1 2 3 4 5 6 
#
# 1 0.010663 -0.008712 -0.006652 -0.000004 -0.001613 0.000003
# 2 -0.008712 0.026559 0.006603 0.000008 0.001209 -0.000006
# 3 -0.006652 0.006603 0.017274 0.000008 -0.001516 -0.000006
# 4 -0.000004 0.000008 0.000008 0.035634 -0.000003 0.000801
# 5 -0.001613 0.001209 -0.001516 -0.000003 0.021586 0.000001
# 6 0.000003 -0.000006 -0.000006 0.000801 0.000001 0.027808
#
#
# Mechanical properties :
#
#
# Convention : Reuss Voigt Hill
#
# Bulk Modulus (GPa) = 27.04644 49.91354 38.47999
# Shear Modulus (GPa) = 29.52118 36.12242 32.82180
#
# Velocity S-wave (km/s) = 3.80636 4.21048 4.01351
# Velocity P-wave (km/s) = 5.70892 6.93787 6.35318
#
# Compressibility (1/GPa) = 0.03697344
#
# Stress axis : x y z
#
# Youngs Moduli (GPa) = 93.78470 37.65219 57.89114
#
# Poissons Ratio (x) = 0.32803 0.38507
# Poissons Ratio (y) = 0.81706 -0.38224
# Poissons Ratio (z) = 0.62383 -0.24861
#
# Static dielectric constant tensor:
#      x y z
#    x 1.936360 0.000000 0.046030 
#    y 0.000000 1.719670 0.000000 
#    z 0.046030 0.000000 1.846990 
# 
# From -- ./inp_files/163182.got.cif
#   From: 2010.05.17/outbox.cif.g08.bks.cpg/sg15_82_cif.got.tgz:163182.got - 2010.06.03 18:47:42.
