data_PCOD9302141
_publ_section_title
;
Structure prediction by ZEFSAII (Michael W. Deem and Ramdas Pophale) SiO2 
 PCOD9302141
Probable space group: C 2/C
;
_chemical_formula_sum "Si O2"
_cell_formula_units_Z 64
_cell_length_a 25.731117
_cell_length_b 14.232492
_cell_length_c 12.252758
_cell_angle_alpha 90.000000
_cell_angle_beta 138.040714
_cell_angle_gamma 90.000000
_cell_volume 3000.138827
_symmetry_space_group_name_H-M "C 2/C"
_symmetry_group_IT_number 15
_symmetry_cell_setting 'monoclinic'
loop_
_space_group_symop_operation_xyz
x,y,z
-x,y,1/2-z
-x,-y,-z
x,-y,1/2+z
1/2+x,1/2+y,z
1/2-x,1/2+y,1/2-z
1/2-x,1/2-y,-z
1/2+x,1/2-y,1/2+z
loop_
_atom_site_type_symbol
_atom_site_label
_atom_site_fract_x
_atom_site_fract_y
_atom_site_fract_z
Si Si1 0.152025 0.315816 0.018759
Si Si2 0.391697 0.213608 0.289229
Si Si3 0.739917 0.866271 0.774939
Si Si4 0.317422 0.449474 0.489753
Si Si5 0.310442 0.395064 0.253912
Si Si6 0.079101 0.052208 0.156787
Si Si7 0.430893 0.775789 0.388362
Si Si8 0.703287 0.156838 0.964086
O O1 0.205847 0.223919 0.118766
O O2 0.217324 0.395620 0.100537
O O3 0.102689 0.320711 0.052066
O O4 0.104144 0.305553 0.833172
O O5 0.334461 0.143287 0.262485
O O6 0.350348 0.315059 0.242962
O O7 0.477046 0.211973 0.472657
O O8 0.713025 0.862759 0.607169
O O9 0.789444 0.955031 0.890815
O O10 0.325825 0.374487 0.405559
O O11 0.398055 0.455118 0.680340
O O12 0.248737 0.420523 0.464249
O O13 0.353444 0.490710 0.292468
O O14 0.082158 0.162097 0.130401
O O15 0.000000 0.000000 0.000000
O O16 0.383136 0.822841 0.215065
O O17 0.750000 0.250000 0.000000
#
# Coordination Sequence:
#
# PCOD9302141 Si02
#       8
#     8   8   8   8   8   8   8   8
#     4  11  21  42  68  93 134 184 233 277 338 413
#     4  11  24  41  64  98 140 173 233 279 355 406
#     4  11  24  41  70  99 130 188 235 289 331 411
#     4  12  23  42  70  97 136 176 240 286 335 416
#     4  11  22  41  64  98 129 179 230 282 338 410
#     4  12  25  41  62 104 145 176 222 286 359 412
#     4  12  24  43  69  99 142 187 220 285 356 422
#     4  12  22  46  69  98 137 187 238 278 349 428
#
# _framework density 21.332346999999999
#
# number of rings (size 3 to 8) (size 9 to 14) (size 15 to 20)
#    0.000    0.500    5.000    5.625    0.000    1.000 
#    2.250    0.625    0.000    0.000    0.000    0.000 
#    0.000    0.000    0.000    0.000    0.000    0.000 
#
# Total GULP energy -178895.972380 kJ/mol
# GULP energy per Si atom -5590.499137 kJ/mol
# Density = 2.128379 g / cm^3
# Si number density = 21.332347 Si / 1000 Ang^3
#
#
#
# Elastic Constant Matrix: (Units=GPa)
#
#
# Indices 1 2 3 4 5 6 
#
# 1 37.5072 2.2239 3.2838 0.0000 -9.5279 0.0000
# 2 2.2239 43.9822 10.3903 0.0000 -3.8145 0.0000
# 3 3.2838 10.3903 125.1439 0.0000 -16.4964 0.0000
# 4 0.0000 0.0000 0.0000 30.2824 0.0000 -3.1793
# 5 -9.5279 -3.8145 -16.4964 0.0000 43.7686 0.0000
# 6 0.0000 0.0000 0.0000 -3.1793 0.0000 26.0089
#
#
#
# Elastic Compliance Matrix: (Units=1/GPa)
#
#
# Indices 1 2 3 4 5 6 
#
# 1 0.028260 -0.000932 0.000143 0.000000 0.006125 0.000000
# 2 -0.000932 0.023300 -0.001756 0.000000 0.001166 0.000000
# 3 0.000143 -0.001756 0.008541 0.000000 0.003097 0.000000
# 4 0.000000 0.000000 0.000000 0.033452 0.000000 0.004089
# 5 0.006125 0.001166 0.003097 0.000000 0.025450 0.000000
# 6 0.000000 0.000000 0.000000 0.004089 0.000000 0.038948
#
#
# Mechanical properties :
#
#
# Convention : Reuss Voigt Hill
#
# Bulk Modulus (GPa) = 18.17807 26.49214 22.33510
# Shear Modulus (GPa) = 27.56688 32.72768 30.14728
#
# Velocity S-wave (km/s) = 3.59870 3.92111 3.76336
# Velocity P-wave (km/s) = 5.08010 5.73985 5.42002
#
# Compressibility (1/GPa) = 0.05501133
#
# Stress axis : x y z
#
# Youngs Moduli (GPa) = 35.38556 42.91922 117.08035
#
# Poissons Ratio (x) = 0.03998 -0.01676
# Poissons Ratio (y) = 0.03296 0.20564
# Poissons Ratio (z) = -0.00507 0.07538
#
# Static dielectric constant tensor:
#      x y z
#    x 1.793930 0.000000 -0.036350 
#    y 0.000000 1.852010 0.000000 
#    z -0.036350 0.000000 1.801240 
# 
# From -- ./inp_files/123528.got.cif
#   From: 2010.05.17/outbox.cif.g08.bks.cpg/sg15_62_cif.got.tgz:123528.got - 2010.06.03 18:47:42.
