data_PCOD9302256
_publ_section_title
;
Structure prediction by ZEFSAII (Michael W. Deem and Ramdas Pophale) SiO2 
 PCOD9302256
Probable space group: C 2/C
;
_chemical_formula_sum "Si O2"
_cell_formula_units_Z 60
_cell_length_a 20.611393
_cell_length_b 17.878950
_cell_length_c 10.902000
_cell_angle_alpha 90.000000
_cell_angle_beta 39.700158
_cell_angle_gamma 90.000000
_cell_volume 2566.256140
_symmetry_space_group_name_H-M "C 2/C"
_symmetry_group_IT_number 15
_symmetry_cell_setting 'monoclinic'
loop_
_space_group_symop_operation_xyz
x,y,z
-x,y,1/2-z
-x,-y,-z
x,-y,1/2+z
1/2+x,1/2+y,z
1/2-x,1/2+y,1/2-z
1/2-x,1/2-y,-z
1/2+x,1/2-y,1/2+z
loop_
_atom_site_type_symbol
_atom_site_label
_atom_site_fract_x
_atom_site_fract_y
_atom_site_fract_z
Si Si1 0.400973 0.265484 0.472779
Si Si2 0.500000 0.472880 0.250000
Si Si3 0.143182 0.163276 0.894361
Si Si4 0.449034 0.383232 0.567608
Si Si5 0.880541 0.444844 0.430161
Si Si6 0.816090 0.667730 0.238532
Si Si7 0.302596 0.568858 0.468394
Si Si8 0.832476 0.612525 0.486873
O O1 0.500000 0.280719 0.250000
O O2 0.420050 0.298804 0.577135
O O3 0.302626 0.310637 0.569033
O O4 0.381208 0.178493 0.495205
O O5 0.489629 0.425411 0.389807
O O6 0.386149 0.511711 0.405793
O O7 0.139341 0.250847 0.865450
O O8 0.213544 0.122497 0.690720
O O9 0.034556 0.124260 0.044818
O O10 0.189276 0.142584 0.959038
O O11 0.352435 0.422610 0.762704
O O12 0.835652 0.390795 0.601198
O O13 0.814992 0.442928 0.397578
O O14 0.869757 0.532617 0.476226
O O15 0.000000 0.426413 0.250000
O O16 0.852460 0.634094 0.315724
#
# Coordination Sequence:
#
# PCOD9302256 Si02
#       8
#     8   4   8   8   8   8   8   8
#     4  11  21  43  75 113 142 187 248 314 373 445
#     4  12  26  42  78 118 156 198 244 316 396 460
#     4  11  25  47  76 111 151 194 249 312 387 455
#     4  12  23  43  76 113 154 192 245 317 387 452
#     4  12  30  51  72 105 153 208 254 309 372 443
#     4  11  26  50  74 108 149 197 256 314 380 455
#     4  12  27  46  72 111 156 199 249 311 387 457
#     4  11  26  48  75 105 149 197 257 309 370 455
#
# _framework density 23.380364
#
# number of rings (size 3 to 8) (size 9 to 14) (size 15 to 20)
#    0.000    0.533    3.333    4.800    5.600    2.133 
#    9.600    0.000    0.000    0.000    0.000    0.000 
#    0.000    0.000    0.000    0.000    0.000    0.000 
#
# Total GULP energy -167511.713869 kJ/mol
# GULP energy per Si atom -5583.723796 kJ/mol
# Density = 2.332715 g / cm^3
# Si number density = 23.380364 Si / 1000 Ang^3
#
#
#
# Elastic Constant Matrix: (Units=GPa)
#
#
# Indices 1 2 3 4 5 6 
#
# 1 105.2116 30.5931 23.8811 0.0000 -15.6524 0.0000
# 2 30.5931 93.7959 36.8888 0.0000 0.4662 0.0000
# 3 23.8811 36.8888 59.5593 0.0000 -10.4387 0.0000
# 4 0.0000 0.0000 0.0000 27.0945 0.0000 -2.4505
# 5 -15.6524 0.4662 -10.4387 0.0000 41.4352 0.0000
# 6 0.0000 0.0000 0.0000 -2.4505 0.0000 40.9506
#
#
#
# Elastic Compliance Matrix: (Units=1/GPa)
#
#
# Indices 1 2 3 4 5 6 
#
# 1 0.011394 -0.002910 -0.002099 0.000000 0.003808 0.000000
# 2 -0.002910 0.015083 -0.008786 0.000000 -0.003482 0.000000
# 3 -0.002099 -0.008786 0.024012 0.000000 0.005355 0.000000
# 4 0.000000 0.000000 0.000000 0.037109 0.000000 0.002221
# 5 0.003808 -0.003482 0.005355 0.000000 0.026961 0.000000
# 6 0.000000 0.000000 0.000000 0.002221 0.000000 0.024553
#
#
# Mechanical properties :
#
#
# Convention : Reuss Voigt Hill
#
# Bulk Modulus (GPa) = 43.66788 49.03252 46.35020
# Shear Modulus (GPa) = 28.68092 33.04297 30.86195
#
# Velocity S-wave (km/s) = 3.50624 3.76344 3.63711
# Velocity P-wave (km/s) = 5.92531 6.31679 6.12418
#
# Compressibility (1/GPa) = 0.02290013
#
# Stress axis : x y z
#
# Youngs Moduli (GPa) = 87.76818 66.29959 41.64658
#
# Poissons Ratio (x) = 0.19291 0.08741
# Poissons Ratio (y) = 0.25538 0.36589
# Poissons Ratio (z) = 0.18421 0.58248
#
# Static dielectric constant tensor:
#      x y z
#    x 1.925750 0.000000 -0.062310 
#    y 0.000000 1.910540 0.000000 
#    z -0.062310 0.000000 1.884700 
# 
# From -- ./inp_files/113806.got.cif
#   From: 2010.05.17/outbox.cif.g08.bks.cpg/sg15_57_cif.got.tgz:113806.got - 2010.06.03 18:47:42.
