data_PCOD9302746
_publ_section_title
;
Structure prediction by ZEFSAII (Michael W. Deem and Ramdas Pophale) SiO2 
 PCOD9302746
Probable space group: C 2/C
;
_chemical_formula_sum "Si O2"
_cell_formula_units_Z 48
_cell_length_a 20.562398
_cell_length_b 11.044297
_cell_length_c 11.499939
_cell_angle_alpha 90.000000
_cell_angle_beta 53.709250
_cell_angle_gamma 90.000000
_cell_volume 2105.015346
_symmetry_space_group_name_H-M "C 2/C"
_symmetry_group_IT_number 15
_symmetry_cell_setting 'monoclinic'
loop_
_space_group_symop_operation_xyz
x,y,z
-x,y,1/2-z
-x,-y,-z
x,-y,1/2+z
1/2+x,1/2+y,z
1/2-x,1/2+y,1/2-z
1/2-x,1/2-y,-z
1/2+x,1/2-y,1/2+z
loop_
_atom_site_type_symbol
_atom_site_label
_atom_site_fract_x
_atom_site_fract_y
_atom_site_fract_z
Si Si1 0.542635 0.665684 0.516264
Si Si2 0.240000 0.913824 0.466420
Si Si3 0.797226 0.326278 0.850675
Si Si4 0.710100 0.697832 0.219322
Si Si5 0.558976 0.403807 0.588853
Si Si6 0.517572 0.079439 0.360264
O O1 0.624726 0.657302 0.356903
O O2 0.546616 0.549518 0.594855
O O3 0.468337 0.646672 0.506647
O O4 0.537701 0.799439 0.574144
O O5 0.299838 0.816479 0.348746
O O6 0.246408 0.905811 0.598392
O O7 0.149615 0.876993 0.528155
O O8 0.254976 0.043894 0.401109
O O9 0.770249 0.268284 0.758385
O O10 0.891670 0.363398 0.746700
O O11 0.750000 0.250000 0.000000
O O12 0.500000 0.354299 0.750000
O O13 0.500000 0.020294 0.250000
O O14 0.500000 0.000000 0.500000
#
# Coordination Sequence:
#
# PCOD9302746 Si02
#       6
#     8   8   8   8   8   8
#     4  11  23  42  71 102 144 178 239 290 364 425
#     4  11  25  43  69 101 142 181 237 292 364 421
#     4  12  28  45  76 101 142 189 246 295 369 445
#     4  11  24  44  69 102 139 184 228 301 356 437
#     4  11  22  39  69 104 135 181 226 300 353 422
#     4  12  29  50  73 105 149 198 246 302 368 451
#
# _framework density 22.802683999999999
#
# number of rings (size 3 to 8) (size 9 to 14) (size 15 to 20)
#    0.000    0.667    3.333    3.500    7.000    0.667 
#    0.000    0.000    0.000    0.000    0.000    0.000 
#    0.000    0.000    0.000    0.000    0.000    0.000 
#
# Total GULP energy -134001.654602 kJ/mol
# GULP energy per Si atom -5583.402275 kJ/mol
# Density = 2.275078 g / cm^3
# Si number density = 22.802684 Si / 1000 Ang^3
#
#
#
# Elastic Constant Matrix: (Units=GPa)
#
#
# Indices 1 2 3 4 5 6 
#
# 1 82.9984 1.8259 40.3041 0.0000 13.7867 0.0000
# 2 1.8259 67.6376 21.5601 0.0000 9.3626 0.0000
# 3 40.3041 21.5601 131.4806 0.0000 10.9725 0.0000
# 4 0.0000 0.0000 0.0000 29.6383 0.0000 -6.6994
# 5 13.7867 9.3626 10.9725 0.0000 33.3676 0.0000
# 6 0.0000 0.0000 0.0000 -6.6994 0.0000 14.6311
#
#
#
# Elastic Compliance Matrix: (Units=1/GPa)
#
#
# Indices 1 2 3 4 5 6 
#
# 1 0.015046 0.001741 -0.004461 0.000000 -0.005238 0.000000
# 2 0.001741 0.016243 -0.002834 0.000000 -0.004345 0.000000
# 3 -0.004461 -0.002834 0.009478 0.000000 -0.000478 0.000000
# 4 0.000000 0.000000 0.000000 0.037635 0.000000 0.017233
# 5 -0.005238 -0.004345 -0.000478 0.000000 0.033510 0.000000
# 6 0.000000 0.000000 0.000000 0.017233 0.000000 0.076238
#
#
# Mechanical properties :
#
#
# Convention : Reuss Voigt Hill
#
# Bulk Modulus (GPa) = 33.71761 45.49966 39.60863
# Shear Modulus (GPa) = 23.90690 30.08919 26.99804
#
# Velocity S-wave (km/s) = 3.24145 3.63650 3.44464
# Velocity P-wave (km/s) = 5.36918 6.13426 5.76443
#
# Compressibility (1/GPa) = 0.02965809
#
# Stress axis : x y z
#
# Youngs Moduli (GPa) = 66.46133 61.56650 105.51026
#
# Poissons Ratio (x) = -0.10717 0.47064
# Poissons Ratio (y) = -0.11570 0.29907
# Poissons Ratio (z) = 0.29646 0.17451
#
# Static dielectric constant tensor:
#      x y z
#    x 1.903520 0.000000 0.025330 
#    y 0.000000 1.835190 0.000000 
#    z 0.025330 0.000000 1.883930 
# 
# From -- ./inp_files/111431.got.cif
#   From: 2010.05.17/outbox.cif.g08.bks.cpg/sg15_56_cif.got.tgz:111431.got - 2010.06.03 18:47:42.
