data_PCOD9302565
_publ_section_title
;
Structure prediction by ZEFSAII (Michael W. Deem and Ramdas Pophale) SiO2 
 PCOD9302565
Probable space group: C 2/C
;
_chemical_formula_sum "Si O2"
_cell_formula_units_Z 64
_cell_length_a 32.498749
_cell_length_b 17.372149
_cell_length_c 9.230237
_cell_angle_alpha 90.000000
_cell_angle_beta 37.391261
_cell_angle_gamma 90.000000
_cell_volume 3164.491267
_symmetry_space_group_name_H-M "C 2/C"
_symmetry_group_IT_number 15
_symmetry_cell_setting 'monoclinic'
loop_
_space_group_symop_operation_xyz
x,y,z
-x,y,1/2-z
-x,-y,-z
x,-y,1/2+z
1/2+x,1/2+y,z
1/2-x,1/2+y,1/2-z
1/2-x,1/2-y,-z
1/2+x,1/2-y,1/2+z
loop_
_atom_site_type_symbol
_atom_site_label
_atom_site_fract_x
_atom_site_fract_y
_atom_site_fract_z
Si Si1 0.592840 0.910127 0.878808
Si Si2 0.108514 0.565412 0.672110
Si Si3 0.254823 0.430189 0.889045
Si Si4 0.591694 0.773945 0.378826
Si Si5 0.319753 0.319075 0.510501
Si Si6 0.753480 0.103733 0.926778
Si Si7 0.048872 0.735442 0.331735
Si Si8 0.772097 0.185538 0.591386
O O1 0.672397 0.889037 0.636481
O O2 0.551628 0.839950 0.925103
O O3 0.580471 0.988461 0.824886
O O4 0.585824 0.925593 0.069701
O O5 0.190588 0.560677 0.460739
O O6 0.092425 0.641327 0.807962
O O7 0.315144 0.392019 0.630066
O O8 0.268374 0.514167 0.914080
O O9 0.239781 0.368934 0.058522
O O10 0.526899 0.734997 0.482057
O O11 0.576385 0.782154 0.592067
O O12 0.660392 0.727856 0.153907
O O13 0.279412 0.341666 0.480267
O O14 0.395658 0.294294 0.263557
O O15 0.278803 0.250357 0.704957
O O16 0.787262 0.130195 0.683312
#
# Coordination Sequence:
#
# PCOD9302565 Si02
#       8
#     8   8   8   8   8   8   8   8
#     4  11  23  39  61  95 129 168 202 253 312 380
#     4  11  23  38  62  93 131 164 207 249 313 383
#     4  11  22  38  63  95 126 163 202 257 312 374
#     4  11  24  43  61  91 121 168 211 257 311 374
#     4  12  21  40  63  95 125 163 206 262 310 365
#     4  11  24  36  62  97 132 156 204 261 318 369
#     4  11  25  41  64  87 126 165 210 259 313 368
#     4  12  22  38  67  92 125 165 211 257 314 365
#
# _framework density 20.224419000000001
#
# number of rings (size 3 to 8) (size 9 to 14) (size 15 to 20)
#    0.000    0.750    5.000    3.000    7.000    1.000 
#    0.000    0.000    0.000    4.500    0.000    0.000 
#    0.000    0.000    0.000    0.000    0.000    0.000 
#
# Total GULP energy -178949.547968 kJ/mol
# GULP energy per Si atom -5592.173374 kJ/mol
# Density = 2.017839 g / cm^3
# Si number density = 20.224419 Si / 1000 Ang^3
#
#
#
# Elastic Constant Matrix: (Units=GPa)
#
#
# Indices 1 2 3 4 5 6 
#
# 1 116.1923 47.9135 31.5572 0.0000 6.4657 0.0000
# 2 47.9135 77.2785 16.8626 0.0000 -2.7465 0.0000
# 3 31.5572 16.8626 42.1693 0.0000 -2.2177 0.0000
# 4 0.0000 0.0000 0.0000 20.0712 0.0000 10.1513
# 5 6.4657 -2.7465 -2.2177 0.0000 37.8374 0.0000
# 6 0.0000 0.0000 0.0000 10.1513 0.0000 39.0261
#
#
#
# Elastic Compliance Matrix: (Units=1/GPa)
#
#
# Indices 1 2 3 4 5 6 
#
# 1 0.013748 -0.006966 -0.007676 0.000000 -0.003305 0.000000
# 2 -0.006966 0.017726 -0.001750 0.000000 0.002374 0.000000
# 3 -0.007676 -0.001750 0.030314 0.000000 0.002961 0.000000
# 4 0.000000 0.000000 0.000000 0.057370 0.000000 -0.014923
# 5 -0.003305 0.002374 0.002961 0.000000 0.027340 0.000000
# 6 0.000000 0.000000 0.000000 -0.014923 0.000000 0.029506
#
#
# Mechanical properties :
#
#
# Convention : Reuss Voigt Hill
#
# Bulk Modulus (GPa) = 34.48007 47.58964 41.03486
# Shear Modulus (GPa) = 22.88800 28.67404 25.78102
#
# Velocity S-wave (km/s) = 3.36773 3.76944 3.57423
# Velocity P-wave (km/s) = 5.67520 6.52126 6.11288
#
# Compressibility (1/GPa) = 0.02900226
#
# Stress axis : x y z
#
# Youngs Moduli (GPa) = 72.73910 56.41552 32.98809
#
# Poissons Ratio (x) = 0.39300 0.25322
# Poissons Ratio (y) = 0.50672 0.05773
# Poissons Ratio (z) = 0.55836 0.09873
#
# Static dielectric constant tensor:
#      x y z
#    x 1.740500 0.000000 -0.002190 
#    y 0.000000 1.706640 0.000000 
#    z -0.002190 0.000000 1.745570 
# 
# From -- ./inp_files/70571.got.cif
#   From: 2010.05.17/outbox.cif.g08.bks.cpg/sg15_36_cif.got.tgz:70571.got - 2010.06.03 18:47:42.
