data_PCOD9302911
_publ_section_title
;
Structure prediction by ZEFSAII (Michael W. Deem and Ramdas Pophale) SiO2 
 PCOD9302911
Probable space group: C 2/C
;
_chemical_formula_sum "Si O2"
_cell_formula_units_Z 40
_cell_length_a 18.006816
_cell_length_b 10.143076
_cell_length_c 9.483776
_cell_angle_alpha 90.000000
_cell_angle_beta 88.277552
_cell_angle_gamma 90.000000
_cell_volume 1731.376898
_symmetry_space_group_name_H-M "C 2/C"
_symmetry_group_IT_number 15
_symmetry_cell_setting 'monoclinic'
loop_
_space_group_symop_operation_xyz
x,y,z
-x,y,1/2-z
-x,-y,-z
x,-y,1/2+z
1/2+x,1/2+y,z
1/2-x,1/2+y,1/2-z
1/2-x,1/2-y,-z
1/2+x,1/2-y,1/2+z
loop_
_atom_site_type_symbol
_atom_site_label
_atom_site_fract_x
_atom_site_fract_y
_atom_site_fract_z
Si Si1 0.708954 0.610801 0.179686
Si Si2 0.031916 0.383645 0.401859
Si Si3 0.289580 0.162973 0.623290
Si Si4 0.985326 0.835653 0.395540
Si Si5 0.621461 0.498423 0.452725
O O1 0.731683 0.755679 0.232821
O O2 0.762110 0.488396 0.136183
O O3 0.668202 0.559928 0.324628
O O4 0.658922 0.616047 0.042203
O O5 0.121018 0.356715 0.397844
O O6 0.998572 0.251876 0.471071
O O7 0.000000 0.403480 0.250000
O O8 0.000000 0.500000 0.500000
O O9 0.250000 0.250000 0.500000
O O10 0.000000 0.758636 0.250000
O O11 0.045455 0.950783 0.386622
O O12 0.904100 0.895295 0.427371
#
# Coordination Sequence:
#
# PCOD9302911 Si02
#       5
#     8   8   8   8   8
#     4  12  24  47  72 104 150 195 259 318 386 462
#     4  12  28  48  74 110 156 202 259 320 397 468
#     4  12  28  49  77 111 156 205 265 323 392 471
#     4  11  22  40  71 104 143 187 250 309 391 457
#     4  11  23  40  70 105 137 191 246 320 377 460
#
# _framework density 23.103000000000002
#
# number of rings (size 3 to 8) (size 9 to 14) (size 15 to 20)
#    0.000    0.400    6.000    1.800    2.800    2.400 
#    0.000    0.000    0.000    0.000    0.000    0.000 
#    0.000    0.000    0.000    0.000    0.000    0.000 
#
# Total GULP energy -111554.361153 kJ/mol
# GULP energy per Si atom -5577.718058 kJ/mol
# Density = 2.305042 g / cm^3
# Si number density = 23.103000 Si / 1000 Ang^3
#
#
#
# Elastic Constant Matrix: (Units=GPa)
#
#
# Indices 1 2 3 4 5 6 
#
# 1 118.0115 34.2083 39.9665 0.0000 1.7008 0.0000
# 2 34.2083 83.0232 5.7683 0.0000 -0.9907 0.0000
# 3 39.9665 5.7683 133.7074 0.0000 -0.2673 0.0000
# 4 0.0000 0.0000 0.0000 50.9984 0.0000 -8.4501
# 5 1.7008 -0.9907 -0.2673 0.0000 32.2350 0.0000
# 6 0.0000 0.0000 0.0000 -8.4501 0.0000 29.1241
#
#
#
# Elastic Compliance Matrix: (Units=1/GPa)
#
#
# Indices 1 2 3 4 5 6 
#
# 1 0.010733 -0.004221 -0.003028 0.000000 -0.000721 0.000000
# 2 -0.004221 0.013745 0.000670 0.000000 0.000651 0.000000
# 3 -0.003028 0.000670 0.008356 0.000000 0.000250 0.000000
# 4 0.000000 0.000000 0.000000 0.020599 0.000000 0.005977
# 5 -0.000721 0.000651 0.000250 0.000000 0.031082 0.000000
# 6 0.000000 0.000000 0.000000 0.005977 0.000000 0.036070
#
#
# Mechanical properties :
#
#
# Convention : Reuss Voigt Hill
#
# Bulk Modulus (GPa) = 50.82044 54.95870 52.88957
# Shear Modulus (GPa) = 35.63796 39.45810 37.54803
#
# Velocity S-wave (km/s) = 3.93182 4.13718 4.03581
# Velocity P-wave (km/s) = 6.53126 6.83095 6.68279
#
# Compressibility (1/GPa) = 0.01967712
#
# Stress axis : x y z
#
# Youngs Moduli (GPa) = 93.17149 72.75342 119.68046
#
# Poissons Ratio (x) = 0.30706 0.36234
# Poissons Ratio (y) = 0.39324 -0.08017
# Poissons Ratio (z) = 0.28208 -0.04874
#
# Static dielectric constant tensor:
#      x y z
#    x 2.121940 0.000000 0.014540 
#    y 0.000000 2.049160 0.000000 
#    z 0.014540 0.000000 1.894560 
# 
# From -- ./inp_files/46211.got.cif
#   From: 2010.05.17/outbox.cif.g08.bks.cpg/sg15_24_cif.got.tgz:46211.got - 2010.06.03 18:47:42.
