data_PCOD9302085
_publ_section_title
;
Structure prediction by ZEFSAII (Michael W. Deem and Ramdas Pophale) SiO2 
 PCOD9302085
Probable space group: C 2/C
;
_chemical_formula_sum "Si O2"
_cell_formula_units_Z 40
_cell_length_a 15.341997
_cell_length_b 14.876662
_cell_length_c 10.120302
_cell_angle_alpha 90.000000
_cell_angle_beta 120.775666
_cell_angle_gamma 90.000000
_cell_volume 1984.557334
_symmetry_space_group_name_H-M "C 2/C"
_symmetry_group_IT_number 15
_symmetry_cell_setting 'monoclinic'
loop_
_space_group_symop_operation_xyz
x,y,z
-x,y,1/2-z
-x,-y,-z
x,-y,1/2+z
1/2+x,1/2+y,z
1/2-x,1/2+y,1/2-z
1/2-x,1/2-y,-z
1/2+x,1/2-y,1/2+z
loop_
_atom_site_type_symbol
_atom_site_label
_atom_site_fract_x
_atom_site_fract_y
_atom_site_fract_z
Si Si1 0.654751 0.688812 0.903414
Si Si2 0.759486 0.495655 0.564270
Si Si3 0.046820 0.933307 0.926130
Si Si4 0.396538 0.942815 0.923659
Si Si5 0.466430 0.738377 0.937732
O O1 0.567869 0.731090 0.928722
O O2 0.616643 0.695126 0.724575
O O3 0.750000 0.750000 0.000000
O O4 0.691712 0.589837 0.968060
O O5 0.668932 0.564490 0.525004
O O6 0.827796 0.467525 0.742605
O O7 0.831606 0.531051 0.502998
O O8 0.000000 0.962107 0.750000
O O9 0.015952 0.830690 0.930357
O O10 0.000000 0.000000 0.000000
O O11 0.430402 0.838234 0.945381
O O12 0.500000 0.000000 0.000000
#
# Coordination Sequence:
#
# PCOD9302085 Si02
#       5
#     8   8   8   8   8
#     4  11  21  41  73  97 133 183 239 278 343 427
#     4  12  25  45  72 101 139 187 231 286 357 421
#     4  12  25  45  71 106 146 182 236 299 351 418
#     4  12  27  46  70 102 145 182 234 290 351 421
#     4  11  25  42  71 104 137 183 237 292 346 414
#
# _framework density 20.155628
#
# number of rings (size 3 to 8) (size 9 to 14) (size 15 to 20)
#    0.000    0.400    4.000    5.400    2.800    2.400 
#    0.000    0.000    0.000    0.000    0.000    0.000 
#    0.000    0.000    0.000    0.000    0.000    0.000 
#
# Total GULP energy -111781.829822 kJ/mol
# GULP energy per Si atom -5589.091491 kJ/mol
# Density = 2.010975 g / cm^3
# Si number density = 20.155628 Si / 1000 Ang^3
#
#
#
# Elastic Constant Matrix: (Units=GPa)
#
#
# Indices 1 2 3 4 5 6 
#
# 1 152.5712 51.4498 59.8869 0.0000 -9.1740 0.0000
# 2 51.4498 93.6827 51.8236 0.0000 -13.1808 0.0000
# 3 59.8869 51.8236 128.4748 0.0000 -5.9835 0.0000
# 4 0.0000 0.0000 0.0000 31.9925 0.0000 3.4827
# 5 -9.1740 -13.1808 -5.9835 0.0000 41.4198 0.0000
# 6 0.0000 0.0000 0.0000 3.4827 0.0000 42.8423
#
#
#
# Elastic Compliance Matrix: (Units=1/GPa)
#
#
# Indices 1 2 3 4 5 6 
#
# 1 0.008750 -0.003205 -0.002762 0.000000 0.000519 0.000000
# 2 -0.003205 0.015467 -0.004580 0.000000 0.003551 0.000000
# 3 -0.002762 -0.004580 0.010896 0.000000 -0.000495 0.000000
# 4 0.000000 0.000000 0.000000 0.031536 0.000000 -0.002564
# 5 0.000519 0.003551 -0.000495 0.000000 0.025316 0.000000
# 6 0.000000 0.000000 0.000000 -0.002564 0.000000 0.023550
#
#
# Mechanical properties :
#
#
# Convention : Reuss Voigt Hill
#
# Bulk Modulus (GPa) = 71.32691 77.89436 74.61064
# Shear Modulus (GPa) = 35.39004 37.35547 36.37275
#
# Velocity S-wave (km/s) = 4.19482 4.30973 4.25266
# Velocity P-wave (km/s) = 7.67639 7.96840 7.82375
#
# Compressibility (1/GPa) = 0.01401995
#
# Stress axis : x y z
#
# Youngs Moduli (GPa) = 114.28120 64.65184 91.78101
#
# Poissons Ratio (x) = 0.20719 0.25350
# Poissons Ratio (y) = 0.36623 0.42036
# Poissons Ratio (z) = 0.31564 0.29611
#
# Static dielectric constant tensor:
#      x y z
#    x 1.739550 0.000000 -0.016170 
#    y 0.000000 2.036220 0.000000 
#    z -0.016170 0.000000 1.689110 
# 
# From -- ./inp_files/38031.got.cif
#   From: 2010.05.17/outbox.cif.g08.bks.cpg/sg15_20_cif.got.tgz:38031.got - 2010.06.03 18:47:42.
