data_PCOD9302674
_publ_section_title
;
Structure prediction by ZEFSAII (Michael W. Deem and Ramdas Pophale) SiO2 
 PCOD9302674
Probable space group: C 2/C
;
_chemical_formula_sum "Si O2"
_cell_formula_units_Z 52
_cell_length_a 21.228990
_cell_length_b 22.490543
_cell_length_c 5.077033
_cell_angle_alpha 90.000000
_cell_angle_beta 78.916027
_cell_angle_gamma 90.000000
_cell_volume 2378.820257
_symmetry_space_group_name_H-M "C 2/C"
_symmetry_group_IT_number 15
_symmetry_cell_setting 'monoclinic'
loop_
_space_group_symop_operation_xyz
x,y,z
-x,y,1/2-z
-x,-y,-z
x,-y,1/2+z
1/2+x,1/2+y,z
1/2-x,1/2+y,1/2-z
1/2-x,1/2-y,-z
1/2+x,1/2-y,1/2+z
loop_
_atom_site_type_symbol
_atom_site_label
_atom_site_fract_x
_atom_site_fract_y
_atom_site_fract_z
Si Si1 0.605893 0.870441 0.532359
Si Si2 0.682295 0.041519 0.625097
Si Si3 0.000000 0.458469 0.750000
Si Si4 0.933350 0.748142 0.665309
Si Si5 0.793234 0.129100 0.433472
Si Si6 0.147624 0.171881 0.620475
Si Si7 0.816387 0.287359 0.656516
O O1 0.635676 0.905265 0.259006
O O2 0.561740 0.917109 0.713714
O O3 0.562094 0.815184 0.482223
O O4 0.659577 0.841791 0.677305
O O5 0.751619 0.073099 0.555508
O O6 0.674182 0.008781 0.354485
O O7 0.000000 0.500000 0.500000
O O8 0.913685 0.798785 0.471540
O O9 0.000000 0.762246 0.750000
O O10 0.873868 0.734820 0.914845
O O11 0.849447 0.140669 0.599300
O O12 0.821034 0.128318 0.118001
O O13 0.189769 0.231242 0.642930
O O14 0.256441 0.185472 0.046359
#
# Coordination Sequence:
#
# PCOD9302674 Si02
#       7
#     8   8   4   8   8   8   8
#     4  11  24  41  61  88 124 172 224 273 319 363
#     4  12  25  42  63  89 125 167 215 269 323 367
#     4  12  28  42  60  82 116 176 244 292 306 340
#     4  11  24  41  65  92 133 171 214 257 322 381
#     4  12  23  41  64  93 128 160 218 259 325 382
#     4  11  24  39  65  95 126 165 209 258 318 401
#     4  11  22  39  64  95 124 174 203 269 319 397
#
# _framework density 21.859577000000002
#
# number of rings (size 3 to 8) (size 9 to 14) (size 15 to 20)
#    0.000    0.615    3.077    5.538    5.385    1.846 
#    0.000    0.000    0.000    0.000    0.000    0.000 
#    0.000   12.308    0.000    0.000    0.000    0.000 
#
# Total GULP energy -145412.971501 kJ/mol
# GULP energy per Si atom -5592.806596 kJ/mol
# Density = 2.180982 g / cm^3
# Si number density = 21.859577 Si / 1000 Ang^3
#
#
#
# Elastic Constant Matrix: (Units=GPa)
#
#
# Indices 1 2 3 4 5 6 
#
# 1 100.5884 8.9261 15.1023 0.0000 36.0477 0.0000
# 2 8.9261 53.4213 21.0321 0.0000 3.1834 0.0000
# 3 15.1023 21.0321 107.3925 0.0000 20.8990 0.0000
# 4 0.0000 0.0000 0.0000 26.8556 0.0000 5.6357
# 5 36.0477 3.1834 20.8990 0.0000 29.5479 0.0000
# 6 0.0000 0.0000 0.0000 5.6357 0.0000 14.4045
#
#
#
# Elastic Compliance Matrix: (Units=1/GPa)
#
#
# Indices 1 2 3 4 5 6 
#
# 1 0.018380 -0.002667 0.002604 0.000000 -0.023977 0.000000
# 2 -0.002667 0.020683 -0.004494 0.000000 0.004204 0.000000
# 3 0.002604 -0.004494 0.012001 0.000000 -0.011181 0.000000
# 4 0.000000 0.000000 0.000000 0.040567 0.000000 -0.015872
# 5 -0.023977 0.004204 -0.011181 0.000000 0.070550 0.000000
# 6 0.000000 0.000000 0.000000 -0.015872 0.000000 0.075633
#
#
# Mechanical properties :
#
#
# Convention : Reuss Voigt Hill
#
# Bulk Modulus (GPa) = 23.83785 39.05813 31.44799
# Shear Modulus (GPa) = 19.16350 28.58438 23.87394
#
# Velocity S-wave (km/s) = 2.96406 3.62005 3.30835
# Velocity P-wave (km/s) = 4.75845 5.94807 5.38621
#
# Compressibility (1/GPa) = 0.04195008
#
# Stress axis : x y z
#
# Youngs Moduli (GPa) = 54.40692 48.34775 83.32382
#
# Poissons Ratio (x) = 0.12896 -0.21695
# Poissons Ratio (y) = 0.14512 0.37444
# Poissons Ratio (z) = -0.14166 0.21726
#
# Static dielectric constant tensor:
#      x y z
#    x 1.841500 0.000000 0.013600 
#    y 0.000000 1.810540 0.000000 
#    z 0.013600 0.000000 1.874280 
# 
# From -- ./inp_files/13391.got.cif
#   From: 2010.05.17/outbox.cif.g08.bks.cpg/sg15_7_cif.got.tgz:13391.got - 2010.06.03 18:47:42.
