data_PCOD9302914
_publ_section_title
;
Structure prediction by ZEFSAII (Michael W. Deem and Ramdas Pophale) SiO2 
 PCOD9302914
Probable space group: C 2/C
;
_chemical_formula_sum "Si O2"
_cell_formula_units_Z 64
_cell_length_a 16.041298
_cell_length_b 10.670380
_cell_length_c 28.446207
_cell_angle_alpha 90.000000
_cell_angle_beta 36.382132
_cell_angle_gamma 90.000000
_cell_volume 2888.160745
_symmetry_space_group_name_H-M "C 2/C"
_symmetry_group_IT_number 15
_symmetry_cell_setting 'monoclinic'
loop_
_space_group_symop_operation_xyz
x,y,z
-x,y,1/2-z
-x,-y,-z
x,-y,1/2+z
1/2+x,1/2+y,z
1/2-x,1/2+y,1/2-z
1/2-x,1/2-y,-z
1/2+x,1/2-y,1/2+z
loop_
_atom_site_type_symbol
_atom_site_label
_atom_site_fract_x
_atom_site_fract_y
_atom_site_fract_z
Si Si1 0.303383 0.046412 0.156181
Si Si2 0.961196 0.604706 0.375737
Si Si3 0.849333 0.745912 0.610795
Si Si4 0.426467 0.367197 0.669066
Si Si5 0.551827 0.857140 0.173788
Si Si6 0.667739 0.218557 0.448657
Si Si7 0.715806 0.489392 0.541080
Si Si8 0.893375 0.187213 0.839309
O O1 0.432546 0.093585 0.129373
O O2 0.166367 0.057446 0.251293
O O3 0.296388 0.136022 0.113830
O O4 0.330314 0.902256 0.130586
O O5 0.988079 0.493089 0.326869
O O6 0.805982 0.576371 0.466307
O O7 0.969525 0.735310 0.345368
O O8 0.839888 0.825102 0.662824
O O9 0.727098 0.773764 0.629262
O O10 0.007010 0.760857 0.519886
O O11 0.480459 0.244157 0.671923
O O12 0.567110 0.440096 0.589964
O O13 0.500000 0.837720 0.250000
O O14 0.718320 0.828178 0.097749
O O15 0.690542 0.127699 0.483582
O O16 0.678116 0.568864 0.604348
O O17 0.000000 0.150614 0.750000
#
# Coordination Sequence:
#
# PCOD9302914 Si02
#       8
#     8   8   8   8   8   8   8   8
#     4  12  22  40  66  97 128 167 225 262 317 378
#     4  12  25  44  64  97 135 174 206 267 333 389
#     4  12  23  44  66  98 129 167 219 267 315 385
#     4  11  24  40  67 100 126 167 218 275 313 379
#     4  11  22  42  66  96 134 169 213 264 330 379
#     4  11  22  40  71  97 122 171 222 270 309 378
#     4  11  23  42  68  96 131 168 220 264 325 376
#     4  12  26  44  65  94 135 175 209 263 331 384
#
# _framework density 22.159431999999999
#
# number of rings (size 3 to 8) (size 9 to 14) (size 15 to 20)
#    0.000    0.500    5.000    4.125    0.000    2.000 
#    0.000    5.000    0.000    0.000    0.000    0.000 
#    0.000    0.000    0.000    0.000    0.000    0.000 
#
# Total GULP energy -179217.912940 kJ/mol
# GULP energy per Si atom -5600.559779 kJ/mol
# Density = 2.210900 g / cm^3
# Si number density = 22.159432 Si / 1000 Ang^3
#
#
#
# Elastic Constant Matrix: (Units=GPa)
#
#
# Indices 1 2 3 4 5 6 
#
# 1 81.6553 8.5660 -17.9091 0.0000 -0.7264 0.0000
# 2 8.5660 23.1265 -6.6589 0.0000 6.7064 0.0000
# 3 -17.9091 -6.6589 74.8669 0.0000 0.1889 0.0000
# 4 0.0000 0.0000 0.0000 -3.9621 0.0000 5.7300
# 5 -0.7264 6.7064 0.1889 0.0000 32.6077 0.0000
# 6 0.0000 0.0000 0.0000 5.7300 0.0000 28.4513
#
#
#
# Elastic Compliance Matrix: (Units=1/GPa)
#
#
# Indices 1 2 3 4 5 6 
#
# 1 0.013340 -0.004487 0.002789 0.000000 0.001204 0.000000
# 2 -0.004487 0.048795 0.003292 0.000000 -0.010155 0.000000
# 3 0.002789 0.003292 0.014319 0.000000 -0.000698 0.000000
# 4 0.000000 0.000000 0.000000 -0.195461 0.000000 0.039365
# 5 0.001204 -0.010155 -0.000698 0.000000 0.032787 0.000000
# 6 0.000000 0.000000 0.000000 0.039365 0.000000 0.027220
#
#
# Mechanical properties :
#
#
# Convention : Reuss Voigt Hill
#
# Bulk Modulus (GPa) = 12.55623 16.40496 14.48060
# Shear Modulus (GPa) = -140.28353 24.46277 -57.91038
#
# Velocity S-wave (km/s) = -7.96517 3.32617 -5.11764
# Velocity P-wave (km/s) = 8.88331 4.70855 5.32648
#
# Compressibility (1/GPa) = 0.07964171
#
# Stress axis : x y z
#
# Youngs Moduli (GPa) = 74.96422 20.49386 69.83843
#
# Poissons Ratio (x) = 0.09196 -0.19477
# Poissons Ratio (y) = 0.33637 -0.22993
# Poissons Ratio (z) = -0.20907 -0.06747
#
# Static dielectric constant tensor:
#      x y z
#    x 1.808360 0.000000 -0.012930 
#    y 0.000000 1.764960 0.000000 
#    z -0.012930 0.000000 1.813760 
# 
# From -- ./inp_files/296095.got.cif
#   From: 2010.05.17/outbox.cif.g08.bks.cpg/sg15_149_cif.got.tgz:296095.got - 2010.06.03 18:47:42.
