data_PCOD9302218
_publ_section_title
;
Structure prediction by ZEFSAII (Michael W. Deem and Ramdas Pophale) SiO2 
 PCOD9302218
Probable space group: C 2/C
;
_chemical_formula_sum "Si O2"
_cell_formula_units_Z 44
_cell_length_a 21.763208
_cell_length_b 8.595235
_cell_length_c 13.916464
_cell_angle_alpha 90.000000
_cell_angle_beta 128.207385
_cell_angle_gamma 90.000000
_cell_volume 2045.544725
_symmetry_space_group_name_H-M "C 2/C"
_symmetry_group_IT_number 15
_symmetry_cell_setting 'monoclinic'
loop_
_space_group_symop_operation_xyz
x,y,z
-x,y,1/2-z
-x,-y,-z
x,-y,1/2+z
1/2+x,1/2+y,z
1/2-x,1/2+y,1/2-z
1/2-x,1/2-y,-z
1/2+x,1/2-y,1/2+z
loop_
_atom_site_type_symbol
_atom_site_label
_atom_site_fract_x
_atom_site_fract_y
_atom_site_fract_z
Si Si1 0.049046 0.106132 0.976503
Si Si2 0.784692 0.614354 0.376473
Si Si3 0.417097 0.072570 0.893950
Si Si4 0.000000 0.725695 0.250000
Si Si5 0.710044 0.482615 0.130493
Si Si6 0.151850 0.481227 0.864844
O O1 0.995412 0.170513 0.840038
O O2 0.084116 0.257248 0.062950
O O3 0.123545 0.013587 0.009146
O O4 0.000000 0.000000 0.000000
O O5 0.857598 0.546439 0.386599
O O6 0.715848 0.532961 0.248196
O O7 0.773490 0.798995 0.360412
O O8 0.805628 0.564498 0.504946
O O9 0.396377 0.080238 0.761312
O O10 0.500000 0.000000 0.000000
O O11 0.082110 0.630568 0.335226
O O12 0.774078 0.576008 0.128307
#
# Coordination Sequence:
#
# PCOD9302218 Si02
#       6
#     8   8   8   4   8   8
#     4  12  27  46  69 107 147 183 248 294 363 429
#     4  11  23  44  68 103 141 184 243 292 363 421
#     4  11  21  43  69  99 137 190 230 297 358 420
#     4  12  26  46  74 108 138 206 230 304 364 434
#     4  11  26  42  70 105 141 191 233 308 351 431
#     4  11  23  43  75 100 142 187 250 283 370 430
#
# _framework density 21.510164
#
# number of rings (size 3 to 8) (size 9 to 14) (size 15 to 20)
#    0.000    0.727    3.636    3.818    2.545    3.636 
#    0.000    0.000    0.000    0.000    0.000    0.000 
#    0.000    0.000    0.000    0.000    0.000    0.000 
#
# Total GULP energy -122757.570850 kJ/mol
# GULP energy per Si atom -5579.889584 kJ/mol
# Density = 2.146121 g / cm^3
# Si number density = 21.510164 Si / 1000 Ang^3
#
#
#
# Elastic Constant Matrix: (Units=GPa)
#
#
# Indices 1 2 3 4 5 6 
#
# 1 83.7328 28.5092 7.0616 0.0000 6.5691 0.0000
# 2 28.5092 69.1121 26.7167 0.0000 -8.1568 0.0000
# 3 7.0616 26.7167 115.4631 0.0000 -24.1309 0.0000
# 4 0.0000 0.0000 0.0000 22.5424 0.0000 2.5287
# 5 6.5691 -8.1568 -24.1309 0.0000 48.3974 0.0000
# 6 0.0000 0.0000 0.0000 2.5287 0.0000 31.7920
#
#
#
# Elastic Compliance Matrix: (Units=1/GPa)
#
#
# Indices 1 2 3 4 5 6 
#
# 1 0.014308 -0.006234 -0.000065 0.000000 -0.003025 0.000000
# 2 -0.006234 0.018646 -0.003460 0.000000 0.002264 0.000000
# 3 -0.000065 -0.003460 0.010432 0.000000 0.004627 0.000000
# 4 0.000000 0.000000 0.000000 0.044760 0.000000 -0.003560
# 5 -0.003025 0.002264 0.004627 0.000000 0.023761 0.000000
# 6 0.000000 0.000000 0.000000 -0.003560 0.000000 0.031738
#
#
# Mechanical properties :
#
#
# Convention : Reuss Voigt Hill
#
# Bulk Modulus (GPa) = 41.89684 43.65367 42.77526
# Shear Modulus (GPa) = 29.21935 34.28106 31.75021
#
# Velocity S-wave (km/s) = 3.68964 3.99647 3.84612
# Velocity P-wave (km/s) = 6.13769 6.45245 6.29704
#
# Compressibility (1/GPa) = 0.02386815
#
# Stress axis : x y z
#
# Youngs Moduli (GPa) = 69.89022 53.63200 95.85528
#
# Poissons Ratio (x) = 0.33435 0.00621
# Poissons Ratio (y) = 0.43571 0.33166
# Poissons Ratio (z) = 0.00453 0.18557
#
# Static dielectric constant tensor:
#      x y z
#    x 1.833140 0.000000 0.013900 
#    y 0.000000 1.768190 0.000000 
#    z 0.013900 0.000000 1.825490 
# 
# From -- ./inp_files/172113.got.cif
#   From: 2010.05.17/outbox.cif.g08.bks.cpg/sg15_87_cif.got.tgz:172113.got - 2010.06.03 18:47:42.
