data_PCOD9302261
_publ_section_title
;
Structure prediction by ZEFSAII (Michael W. Deem and Ramdas Pophale) SiO2 
 PCOD9302261
Probable space group: C 2/C
;
_chemical_formula_sum "Si O2"
_cell_formula_units_Z 60
_cell_length_a 7.202064
_cell_length_b 12.076453
_cell_length_c 32.554267
_cell_angle_alpha 90.000000
_cell_angle_beta 117.326510
_cell_angle_gamma 90.000000
_cell_volume 2515.447462
_symmetry_space_group_name_H-M "C 2/C"
_symmetry_group_IT_number 15
_symmetry_cell_setting 'monoclinic'
loop_
_space_group_symop_operation_xyz
x,y,z
-x,y,1/2-z
-x,-y,-z
x,-y,1/2+z
1/2+x,1/2+y,z
1/2-x,1/2+y,1/2-z
1/2-x,1/2-y,-z
1/2+x,1/2-y,1/2+z
loop_
_atom_site_type_symbol
_atom_site_label
_atom_site_fract_x
_atom_site_fract_y
_atom_site_fract_z
Si Si1 0.507747 0.246494 0.560439
Si Si2 0.000000 0.389073 0.750000
Si Si3 0.861173 0.242956 0.804635
Si Si4 0.248437 0.905376 0.351878
Si Si5 0.961535 0.792214 0.467676
Si Si6 0.117506 0.575344 0.823832
Si Si7 0.547505 0.115543 0.105778
Si Si8 0.890933 0.007592 0.422765
O O1 0.660173 0.180984 0.605726
O O2 0.279804 0.194644 0.542362
O O3 0.575424 0.245537 0.519548
O O4 0.495629 0.375835 0.571438
O O5 0.849385 0.311931 0.761743
O O6 0.890854 0.470224 0.706686
O O7 0.657715 0.184997 0.801939
O O8 0.944214 0.323287 0.849342
O O9 0.028298 0.143538 0.815643
O O10 0.409477 0.913038 0.329998
O O11 0.264747 0.026428 0.374192
O O12 0.950813 0.706391 0.429423
O O13 0.021023 0.916671 0.460987
O O14 0.312200 0.556263 0.874224
O O15 0.332024 0.046595 0.080677
#
# Coordination Sequence:
#
# PCOD9302261 Si02
#       8
#     8   4   8   8   8   8   8   8
#     4  11  22  40  64  96 135 177 230 281 323 392
#     4  12  26  48  70 106 136 160 232 288 322 426
#     4  12  25  46  72  98 132 180 221 273 349 407
#     4  11  23  47  70 100 138 182 227 274 338 407
#     4  11  24  39  62  99 133 179 230 275 333 395
#     4  11  25  48  70  99 139 172 219 284 339 403
#     4  11  22  42  64  92 135 174 223 274 330 400
#     4  11  21  44  63  90 133 176 221 275 331 394
#
# _framework density 23.852616999999999
#
# number of rings (size 3 to 8) (size 9 to 14) (size 15 to 20)
#    0.000    0.800    8.000    0.400    3.733    1.067 
#    2.400    1.333    0.000    0.000    0.000    0.000 
#    0.000    0.000    0.000    0.000    0.000    0.000 
#
# Total GULP energy -167897.348855 kJ/mol
# GULP energy per Si atom -5596.578295 kJ/mol
# Density = 2.379833 g / cm^3
# Si number density = 23.852617 Si / 1000 Ang^3
#
#
#
# Elastic Constant Matrix: (Units=GPa)
#
#
# Indices 1 2 3 4 5 6 
#
# 1 31.4922 21.1588 22.8994 0.0000 -8.4533 0.0000
# 2 21.1588 150.5141 42.3296 0.0000 -23.8776 0.0000
# 3 22.8994 42.3296 107.2814 0.0000 -36.3675 0.0000
# 4 0.0000 0.0000 0.0000 47.4344 0.0000 -5.9489
# 5 -8.4533 -23.8776 -36.3675 0.0000 35.8753 0.0000
# 6 0.0000 0.0000 0.0000 -5.9489 0.0000 35.2785
#
#
#
# Elastic Compliance Matrix: (Units=1/GPa)
#
#
# Indices 1 2 3 4 5 6 
#
# 1 0.039209 -0.003573 -0.007060 0.000000 -0.000296 0.000000
# 2 -0.003573 0.008021 -0.001337 0.000000 0.003141 0.000000
# 3 -0.007060 -0.001337 0.015982 0.000000 0.013648 0.000000
# 4 0.000000 0.000000 0.000000 0.021537 0.000000 0.003632
# 5 -0.000296 0.003141 0.013648 0.000000 0.043730 0.000000
# 6 0.000000 0.000000 0.000000 0.003632 0.000000 0.028958
#
#
# Mechanical properties :
#
#
# Convention : Reuss Voigt Hill
#
# Bulk Modulus (GPa) = 25.46393 51.34035 38.40214
# Shear Modulus (GPa) = 25.71114 37.24432 31.47773
#
# Velocity S-wave (km/s) = 3.28673 3.95579 3.63668
# Velocity P-wave (km/s) = 5.01020 6.51422 5.81107
#
# Compressibility (1/GPa) = 0.03927124
#
# Stress axis : x y z
#
# Youngs Moduli (GPa) = 25.50460 124.67987 62.56877
#
# Poissons Ratio (x) = 0.44553 0.44171
# Poissons Ratio (y) = 0.09114 0.08367
# Poissons Ratio (z) = 0.18005 0.16672
#
# Static dielectric constant tensor:
#      x y z
#    x 1.925280 0.000000 -0.003760 
#    y 0.000000 1.889570 0.000000 
#    z -0.003760 0.000000 1.941300 
# 
# From -- ./inp_files/307149.got.cif
#   From: 2010.05.17/outbox.cif.g08.bks.cpg/sg15_154_cif.got.tgz:307149.got - 2010.06.03 18:47:42.
