data_PCOD9302816
_publ_section_title
;
Structure prediction by ZEFSAII (Michael W. Deem and Ramdas Pophale) SiO2 
 PCOD9302816
Probable space group: C 2/C
;
_chemical_formula_sum "Si O2"
_cell_formula_units_Z 32
_cell_length_a 19.425170
_cell_length_b 10.009622
_cell_length_c 8.636799
_cell_angle_alpha 90.000000
_cell_angle_beta 106.625187
_cell_angle_gamma 90.000000
_cell_volume 1609.126092
_symmetry_space_group_name_H-M "C 2/C"
_symmetry_group_IT_number 15
_symmetry_cell_setting 'monoclinic'
loop_
_space_group_symop_operation_xyz
x,y,z
-x,y,1/2-z
-x,-y,-z
x,-y,1/2+z
1/2+x,1/2+y,z
1/2-x,1/2+y,1/2-z
1/2-x,1/2-y,-z
1/2+x,1/2-y,1/2+z
loop_
_atom_site_type_symbol
_atom_site_label
_atom_site_fract_x
_atom_site_fract_y
_atom_site_fract_z
Si Si1 0.185081 0.904869 0.328013
Si Si2 0.648765 0.850936 0.984798
Si Si3 0.671304 0.685076 0.469981
Si Si4 0.417563 0.916661 0.237748
O O1 0.270935 0.885823 0.405465
O O2 0.149526 0.799609 0.423202
O O3 0.165039 0.864558 0.141596
O O4 0.166085 0.056204 0.356597
O O5 0.595894 0.877449 0.093384
O O6 0.627599 0.951189 0.833636
O O7 0.750000 0.750000 0.500000
O O8 0.614283 0.796930 0.386467
O O9 0.500000 0.939116 0.250000
#
# Coordination Sequence:
#
# PCOD9302816 Si02
#       4
#     8   8   8   8
#     4  11  23  39  68  98 123 163 222 272 317 362
#     4  11  22  40  65  95 131 165 216 269 316 379
#     4  12  23  41  66  95 131 166 217 270 314 378
#     4  12  25  42  64  97 135 175 210 258 328 391
#
# _framework density 19.886572000000001
#
# number of rings (size 3 to 8) (size 9 to 14) (size 15 to 20)
#    0.000    0.500    5.000    3.750    3.500    0.000 
#    0.000    6.250    0.000    0.000    0.000    0.000 
#    0.000    0.000    0.000    0.000    0.000    0.000 
#
# Total GULP energy -89569.496931 kJ/mol
# GULP energy per Si atom -5598.093558 kJ/mol
# Density = 1.984131 g / cm^3
# Si number density = 19.886572 Si / 1000 Ang^3
#
#
#
# Elastic Constant Matrix: (Units=GPa)
#
#
# Indices 1 2 3 4 5 6 
#
# 1 26.7835 7.2349 7.8301 0.0000 -13.5197 0.0000
# 2 7.2349 113.1401 6.6587 0.0000 8.6515 0.0000
# 3 7.8301 6.6587 68.2366 0.0000 -13.9280 0.0000
# 4 0.0000 0.0000 0.0000 32.7208 0.0000 -10.0883
# 5 -13.5197 8.6515 -13.9280 0.0000 30.5077 0.0000
# 6 0.0000 0.0000 0.0000 -10.0883 0.0000 14.2915
#
#
#
# Elastic Compliance Matrix: (Units=1/GPa)
#
#
# Indices 1 2 3 4 5 6 
#
# 1 0.050815 -0.005034 -0.000498 0.000000 0.023719 0.000000
# 2 -0.005034 0.009684 -0.001525 0.000000 -0.005673 0.000000
# 3 -0.000498 -0.001525 0.016436 0.000000 0.007715 0.000000
# 4 0.000000 0.000000 0.000000 0.039063 0.000000 0.027575
# 5 0.023719 -0.005673 0.007715 0.000000 0.048421 0.000000
# 6 0.000000 0.000000 0.000000 0.027575 0.000000 0.089437
#
#
# Mechanical properties :
#
#
# Convention : Reuss Voigt Hill
#
# Bulk Modulus (GPa) = 15.91868 27.95641 21.93755
# Shear Modulus (GPa) = 17.30638 27.93309 22.61974
#
# Velocity S-wave (km/s) = 2.95321 3.75189 3.37625
# Velocity P-wave (km/s) = 4.43291 5.73214 5.12387
#
# Compressibility (1/GPa) = 0.06281926
#
# Stress axis : x y z
#
# Youngs Moduli (GPa) = 19.67937 103.26207 60.84302
#
# Poissons Ratio (x) = 0.51980 0.03033
# Poissons Ratio (y) = 0.09906 0.09281
# Poissons Ratio (z) = 0.00981 0.15752
#
# Static dielectric constant tensor:
#      x y z
#    x 1.666440 0.000000 -0.009320 
#    y 0.000000 1.676100 0.000000 
#    z -0.009320 0.000000 1.707220 
# 
# From -- ./inp_files/53385.got.cif
#   From: 2010.05.17/outbox.cif.g08.bks.cpg/sg15_27_cif.got.tgz:53385.got - 2010.06.03 18:47:42.
