data_PCOD9302569
_publ_section_title
;
Structure prediction by ZEFSAII (Michael W. Deem and Ramdas Pophale) SiO2 
 PCOD9302569
Probable space group: C 2/C
;
_chemical_formula_sum "Si O2"
_cell_formula_units_Z 60
_cell_length_a 18.605972
_cell_length_b 19.363826
_cell_length_c 12.346165
_cell_angle_alpha 90.000000
_cell_angle_beta 137.993732
_cell_angle_gamma 90.000000
_cell_volume 2976.728781
_symmetry_space_group_name_H-M "C 2/C"
_symmetry_group_IT_number 15
_symmetry_cell_setting 'monoclinic'
loop_
_space_group_symop_operation_xyz
x,y,z
-x,y,1/2-z
-x,-y,-z
x,-y,1/2+z
1/2+x,1/2+y,z
1/2-x,1/2+y,1/2-z
1/2-x,1/2-y,-z
1/2+x,1/2-y,1/2+z
loop_
_atom_site_type_symbol
_atom_site_label
_atom_site_fract_x
_atom_site_fract_y
_atom_site_fract_z
Si Si1 0.270895 0.983678 0.735602
Si Si2 0.500000 0.358288 0.750000
Si Si3 0.797175 0.324779 0.558284
Si Si4 0.869615 0.942378 0.109112
Si Si5 0.409910 0.462091 0.829106
Si Si6 0.810706 0.238174 0.952010
Si Si7 0.588516 0.146456 0.093405
Si Si8 0.342620 0.140027 0.862681
O O1 0.196983 0.992188 0.545301
O O2 0.184332 0.934900 0.702417
O O3 0.373367 0.933664 0.857173
O O4 0.305105 0.060924 0.803385
O O5 0.453501 0.408388 0.791508
O O6 0.411073 0.310097 0.596146
O O7 0.750000 0.250000 0.500000
O O8 0.694304 0.372237 0.471125
O O9 0.877886 0.327521 0.749283
O O10 0.843406 0.346178 0.493054
O O11 0.000000 0.938618 0.250000
O O12 0.851289 0.974972 0.204609
O O13 0.500000 0.500000 0.000000
O O14 0.854457 0.306263 0.935888
O O15 0.736210 0.194019 0.786194
O O16 0.750000 0.250000 0.000000
O O17 0.460309 0.149904 0.942765
#
# Coordination Sequence:
#
# PCOD9302569 Si02
#       8
#     8   4   8   8   8   8   8   8
#     4  11  24  42  66 102 138 176 231 286 343 419
#     4  12  26  40  70 102 136 178 228 288 354 418
#     4  11  24  45  67 103 137 180 233 288 347 421
#     4  11  22  38  63  99 136 171 225 281 348 404
#     4  12  20  37  64  98 135 171 218 281 347 408
#     4  12  26  48  69 100 137 185 236 290 351 432
#     4  11  26  46  70 100 139 182 237 291 348 422
#     4  12  24  46  75  96 139 187 230 285 360 419
#
# _framework density 20.156354
#
# number of rings (size 3 to 8) (size 9 to 14) (size 15 to 20)
#    0.000    0.533    4.667    4.000    0.000    1.067 
#    0.000    0.000    0.000    0.000    0.000    0.000 
#    0.000    0.000    0.000    0.000    0.000    0.000 
#
# Total GULP energy -167168.092033 kJ/mol
# GULP energy per Si atom -5572.269734 kJ/mol
# Density = 2.011048 g / cm^3
# Si number density = 20.156354 Si / 1000 Ang^3
#
#
#
# Elastic Constant Matrix: (Units=GPa)
#
#
# Indices 1 2 3 4 5 6 
#
# 1 103.8771 39.9119 45.5019 0.0000 -3.4608 0.0000
# 2 39.9119 100.4752 42.6306 0.0000 3.4868 0.0000
# 3 45.5019 42.6306 119.9539 0.0000 2.0832 0.0000
# 4 0.0000 0.0000 0.0000 19.3590 0.0000 3.9325
# 5 -3.4608 3.4868 2.0832 0.0000 38.2184 0.0000
# 6 0.0000 0.0000 0.0000 3.9325 0.0000 12.3030
#
#
#
# Elastic Compliance Matrix: (Units=1/GPa)
#
#
# Indices 1 2 3 4 5 6 
#
# 1 0.012602 -0.003560 -0.003544 0.000000 0.001659 0.000000
# 2 -0.003560 0.012753 -0.003159 0.000000 -0.001314 0.000000
# 3 -0.003544 -0.003159 0.010814 0.000000 -0.000622 0.000000
# 4 0.000000 0.000000 0.000000 0.055242 0.000000 -0.017658
# 5 0.001659 -0.001314 -0.000622 0.000000 0.026469 0.000000
# 6 0.000000 0.000000 0.000000 -0.017658 0.000000 0.086925
#
#
# Mechanical properties :
#
#
# Convention : Reuss Voigt Hill
#
# Bulk Modulus (GPa) = 63.92455 64.48833 64.20644
# Shear Modulus (GPa) = 21.68758 27.06021 24.37389
#
# Velocity S-wave (km/s) = 3.28375 3.66801 3.48119
# Velocity P-wave (km/s) = 6.79416 7.07125 6.93409
#
# Compressibility (1/GPa) = 0.01564344
#
# Stress axis : x y z
#
# Youngs Moduli (GPa) = 79.35091 78.41452 92.46938
#
# Poissons Ratio (x) = 0.27915 0.32772
# Poissons Ratio (y) = 0.28248 0.29211
# Poissons Ratio (z) = 0.28122 0.24771
#
# Static dielectric constant tensor:
#      x y z
#    x 1.735770 0.000000 -0.100670 
#    y 0.000000 1.590810 0.000000 
#    z -0.100670 0.000000 1.679920 
# 
# From -- ./inp_files/107644.got.cif
#   From: 2010.05.17/outbox.cif.g08.bks.cpg/sg15_54_cif.got.tgz:107644.got - 2010.06.03 18:47:42.
