data_PCOD9302619
_publ_section_title
;
Structure prediction by ZEFSAII (Michael W. Deem and Ramdas Pophale) SiO2 
 PCOD9302619
Probable space group: C 2/C
;
_chemical_formula_sum "Si O2"
_cell_formula_units_Z 56
_cell_length_a 15.461196
_cell_length_b 20.342370
_cell_length_c 18.698845
_cell_angle_alpha 90.000000
_cell_angle_beta 152.496664
_cell_angle_gamma 90.000000
_cell_volume 2715.898829
_symmetry_space_group_name_H-M "C 2/C"
_symmetry_group_IT_number 15
_symmetry_cell_setting 'monoclinic'
loop_
_space_group_symop_operation_xyz
x,y,z
-x,y,1/2-z
-x,-y,-z
x,-y,1/2+z
1/2+x,1/2+y,z
1/2-x,1/2+y,1/2-z
1/2-x,1/2-y,-z
1/2+x,1/2-y,1/2+z
loop_
_atom_site_type_symbol
_atom_site_label
_atom_site_fract_x
_atom_site_fract_y
_atom_site_fract_z
Si Si1 0.110859 0.903930 0.625918
Si Si2 0.721500 0.449928 0.425362
Si Si3 0.308403 0.498739 0.939797
Si Si4 0.491644 0.063166 0.607639
Si Si5 0.980242 0.627891 0.018546
Si Si6 0.005618 0.298752 0.336752
Si Si7 0.088219 0.231380 0.534730
O O1 0.049549 0.829814 0.566154
O O2 0.961018 0.943519 0.564551
O O3 0.104817 0.943178 0.547250
O O4 0.319556 0.901806 0.810219
O O5 0.500000 0.446986 0.250000
O O6 0.752758 0.463876 0.532298
O O7 0.829377 0.388249 0.469213
O O8 0.825694 0.513117 0.467937
O O9 0.141738 0.529852 0.770322
O O10 0.576725 0.089925 0.595951
O O11 0.420141 0.127707 0.596755
O O12 0.017902 0.704177 0.025698
O O13 0.111277 0.251936 0.468628
O O14 0.000000 0.282129 0.250000
O O15 0.791118 0.293636 0.207619
#
# Coordination Sequence:
#
# PCOD9302619 Si02
#       7
#     8   8   8   8   8   8   8
#     4  11  23  42  68  96 133 173 228 268 349 400
#     4  12  26  43  66 100 136 172 225 281 341 390
#     4  11  24  40  71  98 128 173 221 288 334 400
#     4  11  23  41  67  97 134 174 222 270 346 400
#     4  11  25  44  67  95 137 181 222 278 330 411
#     4  11  22  39  59  96 133 173 215 273 327 406
#     4  11  23  41  65  91 132 183 220 264 334 410
#
# _framework density 20.619325
#
# number of rings (size 3 to 8) (size 9 to 14) (size 15 to 20)
#    0.000    0.857    4.286    3.000    4.000    0.000 
#    0.000    0.714    0.000    0.000    0.000    0.000 
#    0.000    0.000    0.000    0.000    0.000    0.000 
#
# Total GULP energy -156429.598572 kJ/mol
# GULP energy per Si atom -5586.771378 kJ/mol
# Density = 2.057239 g / cm^3
# Si number density = 20.619325 Si / 1000 Ang^3
#
#
#
# Elastic Constant Matrix: (Units=GPa)
#
#
# Indices 1 2 3 4 5 6 
#
# 1 100.4438 48.7857 24.7492 0.0011 -3.0451 -0.0016
# 2 48.7857 112.5372 31.4039 -0.0065 -2.2193 -0.0071
# 3 24.7492 31.4039 105.5508 -0.0207 14.0324 -0.0071
# 4 0.0011 -0.0065 -0.0207 22.4367 -0.0069 -7.2905
# 5 -3.0451 -2.2193 14.0324 -0.0069 28.9166 -0.0037
# 6 -0.0016 -0.0071 -0.0071 -7.2905 -0.0037 1.8844
#
#
#
# Elastic Compliance Matrix: (Units=1/GPa)
#
#
# Indices 1 2 3 4 5 6 
#
# 1 0.012906 -0.005068 -0.001761 0.000026 0.001825 0.000089
# 2 -0.005068 0.011824 -0.002544 -0.000049 0.001608 -0.000158
# 3 -0.001761 -0.002544 0.011432 -0.000057 -0.005928 -0.000201
# 4 0.000026 -0.000049 -0.000057 -0.173318 -0.000100 -0.670552
# 5 0.001825 0.001608 -0.005928 -0.000100 0.037775 -0.000326
# 6 0.000089 -0.000158 -0.000201 -0.670552 -0.000326 -2.063627
#
#
# Mechanical properties :
#
#
# Convention : Reuss Voigt Hill
#
# Bulk Modulus (GPa) = 57.41168 58.71215 58.06191
# Shear Modulus (GPa) = -2.33813 24.88706 11.27447
#
# Velocity S-wave (km/s) = -1.06603 3.47793 2.34089
# Velocity P-wave (km/s) = 5.13701 6.68312 5.96041
#
# Compressibility (1/GPa) = 0.01741806
#
# Stress axis : x y z
#
# Youngs Moduli (GPa) = 77.48083 84.57165 87.47418
#
# Poissons Ratio (x) = 0.42857 0.15405
# Poissons Ratio (y) = 0.39264 0.22250
# Poissons Ratio (z) = 0.13645 0.21512
#
# Static dielectric constant tensor:
#      x y z
#    x 1.774440 0.000000 0.022170 
#    y 0.000000 1.728930 -0.000010 
#    z 0.022170 -0.000010 1.766320 
# 
# From -- ./inp_files/207009.got.cif
#   From: 2010.05.17/outbox.cif.g08.bks.cpg/sg15_104_cif.got.tgz:207009.got - 2010.06.03 18:47:42.
