data_PCOD9302402
_publ_section_title
;
Structure prediction by ZEFSAII (Michael W. Deem and Ramdas Pophale) SiO2 
 PCOD9302402
Probable space group: C 2/C
;
_chemical_formula_sum "Si O2"
_cell_formula_units_Z 64
_cell_length_a 7.414086
_cell_length_b 32.867361
_cell_length_c 13.397119
_cell_angle_alpha 90.000000
_cell_angle_beta 56.710955
_cell_angle_gamma 90.000000
_cell_volume 2728.943821
_symmetry_space_group_name_H-M "C 2/C"
_symmetry_group_IT_number 15
_symmetry_cell_setting 'monoclinic'
loop_
_space_group_symop_operation_xyz
x,y,z
-x,y,1/2-z
-x,-y,-z
x,-y,1/2+z
1/2+x,1/2+y,z
1/2-x,1/2+y,1/2-z
1/2-x,1/2-y,-z
1/2+x,1/2-y,1/2+z
loop_
_atom_site_type_symbol
_atom_site_label
_atom_site_fract_x
_atom_site_fract_y
_atom_site_fract_z
Si Si1 0.292579 0.279248 0.236904
Si Si2 0.734299 0.384860 0.633534
Si Si3 0.655625 0.412296 0.296293
Si Si4 0.730147 0.811277 0.728669
Si Si5 0.924510 0.528913 0.114302
Si Si6 0.072873 0.840428 0.032433
Si Si7 0.941403 0.652242 0.591119
Si Si8 0.700759 0.501536 0.863308
O O1 0.500000 0.278896 0.250000
O O2 0.220312 0.233063 0.241964
O O3 0.401168 0.306284 0.118474
O O4 0.094595 0.305191 0.341760
O O5 0.500000 0.396758 0.750000
O O6 0.784402 0.347022 0.689023
O O7 0.880567 0.425131 0.595546
O O8 0.819997 0.364114 0.504946
O O9 0.500000 0.424929 0.250000
O O10 0.521594 0.384680 0.414032
O O11 0.827737 0.382379 0.192970
O O12 0.744440 0.451029 0.327733
O O13 0.500000 0.805788 0.750000
O O14 0.873323 0.828718 0.595936
O O15 0.718581 0.515796 0.244914
O O16 0.123135 0.523554 0.128801
O O17 0.000000 0.500000 0.000000
O O18 0.287633 0.840893 0.039164
O O19 0.500000 0.500000 0.000000
#
# Coordination Sequence:
#
# PCOD9302402 Si02
#       8
#     8   8   8   8   8   8   8   8
#     4   8  18  33  59 101 130 173 221 276 336 395
#     4  12  28  43  65  95 135 180 229 274 352 410
#     4   9  20  38  68  99 133 176 222 282 353 422
#     4  11  22  34  65  96 137 173 219 295 338 397
#     4  11  29  50  68  99 139 182 227 297 355 420
#     4   9  18  33  62 100 133 170 226 277 336 412
#     4   9  18  39  64  91 135 178 222 270 329 413
#     4  11  27  42  74 104 131 173 234 283 351 435
#
# _framework density 23.452297999999999
#
# number of rings (size 3 to 8) (size 9 to 14) (size 15 to 20)
#    0.000    2.000    1.250    2.250   12.250    1.500 
#    0.000    0.625    0.000    1.500    0.000    0.000 
#    0.000    0.000    0.000    0.000    0.000    0.000 
#
# Total GULP energy -178429.748899 kJ/mol
# GULP energy per Si atom -5575.929653 kJ/mol
# Density = 2.339892 g / cm^3
# Si number density = 23.452298 Si / 1000 Ang^3
#
#
#
# Elastic Constant Matrix: (Units=GPa)
#
#
# Indices 1 2 3 4 5 6 
#
# 1 66.9271 28.8982 19.4425 0.0000 -21.8608 0.0000
# 2 28.8982 181.7853 54.8388 0.0000 -6.9233 0.0000
# 3 19.4425 54.8388 139.6823 0.0000 -19.0296 0.0000
# 4 0.0000 0.0000 0.0000 14.1339 0.0000 -7.9965
# 5 -21.8608 -6.9233 -19.0296 0.0000 27.2170 0.0000
# 6 0.0000 0.0000 0.0000 -7.9965 0.0000 12.3900
#
#
#
# Elastic Compliance Matrix: (Units=1/GPa)
#
#
# Indices 1 2 3 4 5 6 
#
# 1 0.021601 -0.002924 0.000446 0.000000 0.016918 0.000000
# 2 -0.002924 0.006636 -0.002529 0.000000 -0.002429 0.000000
# 3 0.000446 -0.002529 0.008899 0.000000 0.005937 0.000000
# 4 0.000000 0.000000 0.000000 0.111446 0.000000 0.071928
# 5 0.016918 -0.002429 0.005937 0.000000 0.053863 0.000000
# 6 0.000000 0.000000 0.000000 0.071928 0.000000 0.127132
#
#
# Mechanical properties :
#
#
# Convention : Reuss Voigt Hill
#
# Bulk Modulus (GPa) = 36.87142 66.08375 51.47759
# Shear Modulus (GPa) = 14.34175 29.76254 22.05214
#
# Velocity S-wave (km/s) = 2.47559 3.56626 3.06975
# Velocity P-wave (km/s) = 4.89157 6.72285 5.87895
#
# Compressibility (1/GPa) = 0.02712128
#
# Stress axis : x y z
#
# Youngs Moduli (GPa) = 46.29502 150.68541 112.37472
#
# Poissons Ratio (x) = 0.44062 -0.05014
# Poissons Ratio (y) = 0.13537 0.28423
# Poissons Ratio (z) = -0.02066 0.38113
#
# Static dielectric constant tensor:
#      x y z
#    x 2.047370 0.000000 0.045200 
#    y 0.000000 1.870590 0.000000 
#    z 0.045200 0.000000 1.992250 
# 
# From -- ./inp_files/139786.got.cif
#   From: 2010.05.17/outbox.cif.g08.bks.cpg/sg15_70_cif.got.tgz:139786.got - 2010.06.03 18:47:42.
