data_PCOD9302863
_publ_section_title
;
Structure prediction by ZEFSAII (Michael W. Deem and Ramdas Pophale) SiO2 
 PCOD9302863
Probable space group: C 2/C
;
_chemical_formula_sum "Si O2"
_cell_formula_units_Z 40
_cell_length_a 12.240989
_cell_length_b 26.472138
_cell_length_c 9.751250
_cell_angle_alpha 90.000000
_cell_angle_beta 38.560415
_cell_angle_gamma 90.000000
_cell_volume 1969.656384
_symmetry_space_group_name_H-M "C 2/C"
_symmetry_group_IT_number 15
_symmetry_cell_setting 'monoclinic'
loop_
_space_group_symop_operation_xyz
x,y,z
-x,y,1/2-z
-x,-y,-z
x,-y,1/2+z
1/2+x,1/2+y,z
1/2-x,1/2+y,1/2-z
1/2-x,1/2-y,-z
1/2+x,1/2-y,1/2+z
loop_
_atom_site_type_symbol
_atom_site_label
_atom_site_fract_x
_atom_site_fract_y
_atom_site_fract_z
Si Si1 0.326697 0.975680 0.598153
Si Si2 0.500000 0.888798 0.250000
Si Si3 0.500000 0.863763 0.750000
Si Si4 0.310052 0.442579 0.486130
Si Si5 0.857050 0.786651 0.792873
Si Si6 0.502348 0.187778 0.528593
O O1 0.383464 0.926085 0.457166
O O2 0.500000 0.000000 0.500000
O O3 0.249876 0.014370 0.562760
O O4 0.197683 0.963245 0.850682
O O5 0.587405 0.849893 0.272675
O O6 0.664244 0.899301 0.621981
O O7 0.541345 0.830211 0.578350
O O8 0.500000 0.425094 0.250000
O O9 0.710592 0.817460 0.856071
O O10 0.000000 0.813452 0.750000
O O11 0.952602 0.745947 0.601644
O O12 0.750000 0.750000 0.000000
#
# Coordination Sequence:
#
# PCOD9302863 Si02
#       6
#     8   4   4   8   8   8
#     4  12  21  42  68  91 136 184 215 271 335 385
#     4  12  19  36  70  92 122 182 230 256 329 392
#     4  12  25  44  66  98 144 172 216 282 331 404
#     4  12  25  44  66  98 137 177 223 274 329 390
#     4   9  18  39  63  88 122 165 212 273 325 389
#     4  11  22  40  67  96 128 177 219 271 342 396
#
# _framework density 20.308112000000001
#
# number of rings (size 3 to 8) (size 9 to 14) (size 15 to 20)
#    0.000    0.800    9.000    0.600    0.000    0.800 
#    7.200    1.000    0.000    0.000    0.000    0.000 
#    0.000    0.000    0.000    0.000    0.000    0.000 
#
# Total GULP energy -111640.982516 kJ/mol
# GULP energy per Si atom -5582.049126 kJ/mol
# Density = 2.026189 g / cm^3
# Si number density = 20.308112 Si / 1000 Ang^3
#
#
#
# Elastic Constant Matrix: (Units=GPa)
#
#
# Indices 1 2 3 4 5 6 
#
# 1 57.5450 22.5408 23.2790 0.0000 23.7256 0.0000
# 2 22.5408 66.2489 14.6385 0.0000 8.6791 0.0000
# 3 23.2790 14.6385 102.2605 0.0000 19.1046 0.0000
# 4 0.0000 0.0000 0.0000 20.0840 0.0000 12.6193
# 5 23.7256 8.6791 19.1046 0.0000 51.1485 0.0000
# 6 0.0000 0.0000 0.0000 12.6193 0.0000 5.4161
#
#
#
# Elastic Compliance Matrix: (Units=1/GPa)
#
#
# Indices 1 2 3 4 5 6 
#
# 1 0.025056 -0.006633 -0.003003 0.000000 -0.009375 0.000000
# 2 -0.006633 0.017526 -0.001094 0.000000 0.000512 0.000000
# 3 -0.003003 -0.001094 0.011099 0.000000 -0.002567 0.000000
# 4 0.000000 0.000000 0.000000 -0.107315 0.000000 0.250039
# 5 -0.009375 0.000512 -0.002567 0.000000 0.024772 0.000000
# 6 0.000000 0.000000 0.000000 0.250039 0.000000 -0.397945
#
#
# Mechanical properties :
#
#
# Convention : Reuss Voigt Hill
#
# Bulk Modulus (GPa) = 31.03672 38.55233 34.79452
# Shear Modulus (GPa) = -12.67090 26.36947 6.84928
#
# Velocity S-wave (km/s) = -2.50058 3.60734 1.83848
# Velocity P-wave (km/s) = 2.64177 6.03120 4.65588
#
# Compressibility (1/GPa) = 0.03221990
#
# Stress axis : x y z
#
# Youngs Moduli (GPa) = 39.91022 57.05691 90.10024
#
# Poissons Ratio (x) = 0.37849 0.27055
# Poissons Ratio (y) = 0.26474 0.09861
# Poissons Ratio (z) = 0.11984 0.06244
#
# Static dielectric constant tensor:
#      x y z
#    x 1.746100 0.000000 -0.034190 
#    y 0.000000 1.728780 0.000000 
#    z -0.034190 0.000000 1.777770 
# 
# From -- ./inp_files/35027.got.cif
#   From: 2010.05.17/outbox.cif.g08.bks.cpg/sg15_18_cif.got.tgz:35027.got - 2010.06.03 18:47:42.
