data_PCOD9302259
_publ_section_title
;
Structure prediction by ZEFSAII (Michael W. Deem and Ramdas Pophale) SiO2 
 PCOD9302259
Probable space group: C 2/C
;
_chemical_formula_sum "Si O2"
_cell_formula_units_Z 40
_cell_length_a 10.529275
_cell_length_b 10.015700
_cell_length_c 22.031629
_cell_angle_alpha 90.000000
_cell_angle_beta 136.088638
_cell_angle_gamma 90.000000
_cell_volume 1611.390671
_symmetry_space_group_name_H-M "C 2/C"
_symmetry_group_IT_number 15
_symmetry_cell_setting 'monoclinic'
loop_
_space_group_symop_operation_xyz
x,y,z
-x,y,1/2-z
-x,-y,-z
x,-y,1/2+z
1/2+x,1/2+y,z
1/2-x,1/2+y,1/2-z
1/2-x,1/2-y,-z
1/2+x,1/2-y,1/2+z
loop_
_atom_site_type_symbol
_atom_site_label
_atom_site_fract_x
_atom_site_fract_y
_atom_site_fract_z
Si Si1 0.352553 0.352339 0.099733
Si Si2 0.208940 0.720522 0.172530
Si Si3 0.807824 0.941973 0.957247
Si Si4 0.091452 0.448842 0.093769
Si Si5 0.082560 0.682732 0.861575
O O1 0.555561 0.313426 0.149959
O O2 0.229308 0.216272 0.059252
O O3 0.297913 0.409372 0.145399
O O4 0.299139 0.454997 0.027443
O O5 0.127380 0.573426 0.150363
O O6 0.254014 0.738422 0.116058
O O7 0.398201 0.758439 0.269421
O O8 0.653977 0.031854 0.872055
O O9 0.000000 0.000000 0.000000
O O10 0.976016 0.333775 0.088181
O O11 0.000000 0.500000 0.000000
#
# Coordination Sequence:
#
# PCOD9302259 Si02
#       5
#     8   8   8   8   8
#     4  11  23  43  74 105 144 189 246 304 364 439
#     4  11  26  47  68 106 157 192 245 309 371 450
#     4  11  21  43  76 109 144 192 245 303 369 446
#     4  12  25  47  75 111 143 187 255 312 367 450
#     4  11  25  46  72 105 153 192 244 308 377 439
#
# _framework density 24.823278999999999
#
# number of rings (size 3 to 8) (size 9 to 14) (size 15 to 20)
#    0.000    0.800    6.000    1.200    0.000    6.400 
#    7.200    0.000    0.000    0.000    0.000    0.000 
#    0.000    0.000    0.000    0.000    0.000    0.000 
#
# Total GULP energy -111436.456430 kJ/mol
# GULP energy per Si atom -5571.822821 kJ/mol
# Density = 2.476678 g / cm^3
# Si number density = 24.823279 Si / 1000 Ang^3
#
#
#
# Elastic Constant Matrix: (Units=GPa)
#
#
# Indices 1 2 3 4 5 6 
#
# 1 200.2566 29.5537 21.4659 0.0000 13.9122 0.0000
# 2 29.5537 53.9207 14.8344 0.0000 9.1427 0.0000
# 3 21.4659 14.8344 57.7059 0.0000 16.6559 0.0000
# 4 0.0000 0.0000 0.0000 28.7437 0.0000 5.7874
# 5 13.9122 9.1427 16.6559 0.0000 38.0545 0.0000
# 6 0.0000 0.0000 0.0000 5.7874 0.0000 56.1771
#
#
#
# Elastic Compliance Matrix: (Units=1/GPa)
#
#
# Indices 1 2 3 4 5 6 
#
# 1 0.005560 -0.002578 -0.001142 0.000000 -0.000913 0.000000
# 2 -0.002578 0.021440 -0.003820 0.000000 -0.002536 0.000000
# 3 -0.001142 -0.003820 0.021004 0.000000 -0.007858 0.000000
# 4 0.000000 0.000000 0.000000 0.035527 0.000000 -0.003660
# 5 -0.000913 -0.002536 -0.007858 0.000000 0.030661 0.000000
# 6 0.000000 0.000000 0.000000 -0.003660 0.000000 0.018178
#
#
# Mechanical properties :
#
#
# Convention : Reuss Voigt Hill
#
# Bulk Modulus (GPa) = 30.37380 49.28790 39.83085
# Shear Modulus (GPa) = 31.56062 40.99702 36.27882
#
# Velocity S-wave (km/s) = 3.56956 4.06834 3.82708
# Velocity P-wave (km/s) = 5.40847 6.47821 5.96736
#
# Compressibility (1/GPa) = 0.03292311
#
# Stress axis : x y z
#
# Youngs Moduli (GPa) = 179.85745 46.64165 47.60968
#
# Poissons Ratio (x) = 0.12026 0.05436
# Poissons Ratio (y) = 0.46374 0.18189
# Poissons Ratio (z) = 0.20535 0.17819
#
# Static dielectric constant tensor:
#      x y z
#    x 1.964030 0.000000 -0.042250 
#    y 0.000000 1.955840 0.000000 
#    z -0.042250 0.000000 2.026940 
# 
# From -- ./inp_files/291341.got.cif
#   From: 2010.05.17/outbox.cif.g08.bks.cpg/sg15_146_cif.got.tgz:291341.got - 2010.06.03 18:47:42.
