data_PCOD9302158
_publ_section_title
;
Structure prediction by ZEFSAII (Michael W. Deem and Ramdas Pophale) SiO2 
 PCOD9302158
Probable space group: C 2/C
;
_chemical_formula_sum "Si O2"
_cell_formula_units_Z 44
_cell_length_a 16.487224
_cell_length_b 11.462382
_cell_length_c 13.896765
_cell_angle_alpha 90.000000
_cell_angle_beta 59.044694
_cell_angle_gamma 90.000000
_cell_volume 2252.190392
_symmetry_space_group_name_H-M "C 2/C"
_symmetry_group_IT_number 15
_symmetry_cell_setting 'monoclinic'
loop_
_space_group_symop_operation_xyz
x,y,z
-x,y,1/2-z
-x,-y,-z
x,-y,1/2+z
1/2+x,1/2+y,z
1/2-x,1/2+y,1/2-z
1/2-x,1/2-y,-z
1/2+x,1/2-y,1/2+z
loop_
_atom_site_type_symbol
_atom_site_label
_atom_site_fract_x
_atom_site_fract_y
_atom_site_fract_z
Si Si1 0.598935 0.292340 0.839065
Si Si2 0.179504 0.323085 0.761341
Si Si3 0.000000 0.948955 0.750000
Si Si4 0.006006 0.156290 0.899366
Si Si5 0.603435 0.957926 0.411283
Si Si6 0.656289 0.172327 0.063107
O O1 0.708693 0.304176 0.800750
O O2 0.574984 0.359677 0.754574
O O3 0.588745 0.151847 0.848532
O O4 0.531933 0.343874 0.966679
O O5 0.156287 0.428704 0.844292
O O6 0.154119 0.372635 0.671833
O O7 0.112719 0.209521 0.823984
O O8 0.986695 0.039988 0.847956
O O9 0.937204 0.251564 0.894345
O O10 0.656080 0.914327 0.474690
O O11 0.500000 0.000000 0.500000
O O12 0.750000 0.250000 0.000000
#
# Coordination Sequence:
#
# PCOD9302158 Si02
#       6
#     8   8   4   8   8   8
#     4  11  27  44  67 105 135 175 233 282 344 411
#     4  12  23  42  76  96 134 183 231 279 340 403
#     4  12  26  44  70  94 150 178 216 286 356 398
#     4  11  23  45  69  99 131 185 229 270 340 419
#     4  11  24  44  69 101 141 174 235 295 328 403
#     4  11  21  42  70 100 130 181 238 264 339 419
#
# _framework density 19.536536000000002
#
# number of rings (size 3 to 8) (size 9 to 14) (size 15 to 20)
#    0.000    0.727    9.091    0.545    5.091    1.455 
#    0.000    0.909    0.000    0.000    0.000    0.000 
#    0.000    0.000    0.000    0.000    0.000    0.000 
#
# Total GULP energy -122528.444121 kJ/mol
# GULP energy per Si atom -5569.474733 kJ/mol
# Density = 1.949207 g / cm^3
# Si number density = 19.536536 Si / 1000 Ang^3
#
#
#
# Elastic Constant Matrix: (Units=GPa)
#
#
# Indices 1 2 3 4 5 6 
#
# 1 102.5785 33.5153 34.6378 0.0000 19.5911 0.0000
# 2 33.5153 85.8751 31.6965 0.0000 6.9423 0.0000
# 3 34.6378 31.6965 69.3619 0.0000 -2.6711 0.0000
# 4 0.0000 0.0000 0.0000 39.8980 0.0000 12.5418
# 5 19.5911 6.9423 -2.6711 0.0000 15.7689 0.0000
# 6 0.0000 0.0000 0.0000 12.5418 0.0000 37.3498
#
#
#
# Elastic Compliance Matrix: (Units=1/GPa)
#
#
# Indices 1 2 3 4 5 6 
#
# 1 0.017653 -0.001784 -0.008873 0.000000 -0.022650 0.000000
# 2 -0.001784 0.015075 -0.006209 0.000000 -0.005473 0.000000
# 3 -0.008873 -0.006209 0.022361 0.000000 0.017545 0.000000
# 4 0.000000 0.000000 0.000000 0.028022 0.000000 -0.009409
# 5 -0.022650 -0.005473 0.017545 0.000000 0.096937 0.000000
# 6 0.000000 0.000000 0.000000 -0.009409 0.000000 0.029933
#
#
# Mechanical properties :
#
#
# Convention : Reuss Voigt Hill
#
# Bulk Modulus (GPa) = 46.81969 50.83495 48.82732
# Shear Modulus (GPa) = 19.93361 29.13441 24.53401
#
# Velocity S-wave (km/s) = 3.19772 3.86590 3.54757
# Velocity P-wave (km/s) = 6.13605 6.78261 6.46741
#
# Compressibility (1/GPa) = 0.02135853
#
# Stress axis : x y z
#
# Youngs Moduli (GPa) = 56.64632 66.33469 44.72071
#
# Poissons Ratio (x) = 0.11832 0.39680
# Poissons Ratio (y) = 0.10104 0.27767
# Poissons Ratio (z) = 0.50262 0.41187
#
# Static dielectric constant tensor:
#      x y z
#    x 1.636080 0.000000 0.028660 
#    y 0.000000 1.502940 0.000000 
#    z 0.028660 0.000000 1.807420 
# 
# From -- ./inp_files/151765.got.cif
#   From: 2010.05.17/outbox.cif.g08.bks.cpg/sg15_76_cif.got.tgz:151765.got - 2010.06.03 18:47:42.
