data_PCOD9302973
_publ_section_title
;
Structure prediction by ZEFSAII (Michael W. Deem and Ramdas Pophale) SiO2 
 PCOD9302973
Probable space group: C 2/C
;
_chemical_formula_sum "Si O2"
_cell_formula_units_Z 44
_cell_length_a 11.991308
_cell_length_b 24.119026
_cell_length_c 11.135542
_cell_angle_alpha 90.000000
_cell_angle_beta 140.793353
_cell_angle_gamma 90.000000
_cell_volume 2035.807297
_symmetry_space_group_name_H-M "C 2/C"
_symmetry_group_IT_number 15
_symmetry_cell_setting 'monoclinic'
loop_
_space_group_symop_operation_xyz
x,y,z
-x,y,1/2-z
-x,-y,-z
x,-y,1/2+z
1/2+x,1/2+y,z
1/2-x,1/2+y,1/2-z
1/2-x,1/2-y,-z
1/2+x,1/2-y,1/2+z
loop_
_atom_site_type_symbol
_atom_site_label
_atom_site_fract_x
_atom_site_fract_y
_atom_site_fract_z
Si Si1 0.121254 0.349701 0.733237
Si Si2 0.650168 0.726557 0.796870
Si Si3 0.957446 0.874382 0.418285
Si Si4 0.794311 0.058527 0.982686
Si Si5 0.468239 0.939909 0.031401
Si Si6 0.000000 0.042750 0.750000
O O1 0.104931 0.283883 0.691851
O O2 0.037176 0.391278 0.568926
O O3 0.000000 0.356877 0.750000
O O4 0.331057 0.362425 0.918205
O O5 0.500000 0.697047 0.750000
O O6 0.668363 0.679186 0.711833
O O7 0.750000 0.750000 0.000000
O O8 0.926429 0.899959 0.524915
O O9 0.908396 0.918996 0.273757
O O10 0.713927 0.067449 0.047338
O O11 0.627479 0.063016 0.756989
O O12 0.877851 0.997646 0.067969
O O13 0.500000 0.000000 0.000000
#
# Coordination Sequence:
#
# PCOD9302973 Si02
#       6
#     8   8   8   8   8   4
#     4  11  26  42  71 101 136 182 234 293 350 408
#     4  11  22  41  66 103 134 176 235 288 341 405
#     4  12  24  42  69 100 137 181 233 291 345 417
#     4  11  26  41  66  98 137 184 227 285 347 421
#     4  11  25  44  66  99 140 180 232 282 348 419
#     4  12  22  42  64  98 138 180 230 274 344 416
#
# _framework density 21.613049
#
# number of rings (size 3 to 8) (size 9 to 14) (size 15 to 20)
#    0.000    0.727    2.727    3.818   12.727    0.000 
#    0.000    0.909    0.000    2.182    0.000    0.000 
#    0.000    0.000    0.000    0.000    0.000    0.000 
#
# Total GULP energy -122491.384412 kJ/mol
# GULP energy per Si atom -5567.790201 kJ/mol
# Density = 2.156386 g / cm^3
# Si number density = 21.613049 Si / 1000 Ang^3
#
#
#
# Elastic Constant Matrix: (Units=GPa)
#
#
# Indices 1 2 3 4 5 6 
#
# 1 146.6545 77.1019 25.2797 0.0000 -1.7869 0.0000
# 2 77.1019 189.9452 65.4980 0.0000 -24.9402 0.0000
# 3 25.2797 65.4980 107.2355 0.0000 -0.0054 0.0000
# 4 0.0000 0.0000 0.0000 48.1963 0.0000 -13.2738
# 5 -1.7869 -24.9402 -0.0054 0.0000 29.6824 0.0000
# 6 0.0000 0.0000 0.0000 -13.2738 0.0000 20.8043
#
#
#
# Elastic Compliance Matrix: (Units=1/GPa)
#
#
# Indices 1 2 3 4 5 6 
#
# 1 0.008887 -0.004145 0.000436 0.000000 -0.002948 0.000000
# 2 -0.004145 0.009686 -0.004938 0.000000 0.007888 0.000000
# 3 0.000436 -0.004938 0.012238 0.000000 -0.004121 0.000000
# 4 0.000000 0.000000 0.000000 0.025172 0.000000 0.016060
# 5 -0.002948 0.007888 -0.004121 0.000000 0.040140 0.000000
# 6 0.000000 0.000000 0.000000 0.016060 0.000000 0.058314
#
#
# Mechanical properties :
#
#
# Convention : Reuss Voigt Hill
#
# Bulk Modulus (GPa) = 73.97850 86.62162 80.30006
# Shear Modulus (GPa) = 28.37119 38.13362 33.25240
#
# Velocity S-wave (km/s) = 3.62703 4.20501 3.92667
# Velocity P-wave (km/s) = 7.20024 7.98383 7.60214
#
# Compressibility (1/GPa) = 0.01351744
#
# Stress axis : x y z
#
# Youngs Moduli (GPa) = 112.52821 103.24513 81.70950
#
# Poissons Ratio (x) = 0.42793 -0.03566
# Poissons Ratio (y) = 0.46640 0.40351
# Poissons Ratio (z) = -0.04912 0.50987
#
# Static dielectric constant tensor:
#      x y z
#    x 1.929420 0.000000 0.065040 
#    y 0.000000 1.800380 0.000000 
#    z 0.065040 0.000000 1.937400 
# 
# From -- ./inp_files/91400.got.cif
#   From: 2010.05.17/outbox.cif.g08.bks.cpg/sg15_46_cif.got.tgz:91400.got - 2010.06.03 18:47:42.
