data_PCOD9302987
_publ_section_title
;
Structure prediction by ZEFSAII (Michael W. Deem and Ramdas Pophale) SiO2 
 PCOD9302987
Probable space group: C 2/C
;
_chemical_formula_sum "Si O2"
_cell_formula_units_Z 60
_cell_length_a 11.102499
_cell_length_b 14.156149
_cell_length_c 16.869226
_cell_angle_alpha 90.000000
_cell_angle_beta 87.231891
_cell_angle_gamma 90.000000
_cell_volume 2648.219517
_symmetry_space_group_name_H-M "C 2/C"
_symmetry_group_IT_number 15
_symmetry_cell_setting 'monoclinic'
loop_
_space_group_symop_operation_xyz
x,y,z
-x,y,1/2-z
-x,-y,-z
x,-y,1/2+z
1/2+x,1/2+y,z
1/2-x,1/2+y,1/2-z
1/2-x,1/2-y,-z
1/2+x,1/2-y,1/2+z
loop_
_atom_site_type_symbol
_atom_site_label
_atom_site_fract_x
_atom_site_fract_y
_atom_site_fract_z
Si Si1 0.908034 0.750228 0.812283
Si Si2 0.335698 0.102907 0.944837
Si Si3 0.852267 0.277426 0.731562
Si Si4 0.962502 0.053268 0.153243
Si Si5 0.497994 0.791554 0.563148
Si Si6 0.952889 0.920667 0.038584
Si Si7 0.177741 0.411045 0.635186
Si Si8 0.000000 0.101787 0.750000
O O1 0.856279 0.687669 0.883673
O O2 0.789826 0.778150 0.769219
O O3 0.000000 0.698844 0.750000
O O4 0.972847 0.844528 0.839392
O O5 0.193277 0.089246 0.967990
O O6 0.372894 0.007920 0.898307
O O7 0.420757 0.134302 0.013850
O O8 0.919009 0.283941 0.645984
O O9 0.877813 0.369382 0.783078
O O10 0.890483 0.175808 0.767238
O O11 0.818772 0.072001 0.147209
O O12 0.000000 0.017895 0.250000
O O13 0.003508 0.035111 0.055333
O O14 0.505450 0.685495 0.529779
O O15 0.631651 0.831978 0.574712
O O16 0.965755 0.928032 0.147304
#
# Coordination Sequence:
#
# PCOD9302987 Si02
#       8
#     8   8   8   8   8   8   8   4
#     4  12  24  42  71 100 141 186 231 298 367 419
#     4  11  26  45  66 103 146 186 241 291 359 438
#     4  12  22  40  73 103 135 182 242 301 350 422
#     4  11  22  41  66  97 137 178 231 298 347 425
#     4  12  23  44  72 102 142 186 238 303 353 421
#     4  11  23  42  70 101 135 186 242 285 348 426
#     4  11  23  45  66 100 142 183 238 297 356 422
#     4  12  20  44  70  98 136 174 238 300 344 420
#
# _framework density 22.656731000000001
#
# number of rings (size 3 to 8) (size 9 to 14) (size 15 to 20)
#    0.000    0.533    6.000    2.400    1.867    1.067 
#    0.000    7.333    0.000    0.000    0.000    0.000 
#    0.000    0.000    0.000    0.000    0.000    0.000 
#
# Total GULP energy -167091.166685 kJ/mol
# GULP energy per Si atom -5569.705556 kJ/mol
# Density = 2.260516 g / cm^3
# Si number density = 22.656731 Si / 1000 Ang^3
#
#
#
# Elastic Constant Matrix: (Units=GPa)
#
#
# Indices 1 2 3 4 5 6 
#
# 1 146.1705 62.0559 54.8461 0.0000 18.6255 0.0000
# 2 62.0559 199.8308 71.7663 0.0000 11.1324 0.0000
# 3 54.8461 71.7663 124.6828 0.0000 0.8189 0.0000
# 4 0.0000 0.0000 0.0000 78.3942 0.0000 14.1688
# 5 18.6255 11.1324 0.8189 0.0000 37.0994 0.0000
# 6 0.0000 0.0000 0.0000 14.1688 0.0000 37.2228
#
#
#
# Elastic Compliance Matrix: (Units=1/GPa)
#
#
# Indices 1 2 3 4 5 6 
#
# 1 0.009178 -0.001490 -0.003153 0.000000 -0.004091 0.000000
# 2 -0.001490 0.006674 -0.003179 0.000000 -0.001185 0.000000
# 3 -0.003153 -0.003179 0.011222 0.000000 0.002289 0.000000
# 4 0.000000 0.000000 0.000000 0.013698 0.000000 -0.005214
# 5 -0.004091 -0.001185 0.002289 0.000000 0.029313 0.000000
# 6 0.000000 0.000000 0.000000 -0.005214 0.000000 0.028850
#
#
# Mechanical properties :
#
#
# Convention : Reuss Voigt Hill
#
# Bulk Modulus (GPa) = 87.47669 94.22451 90.85060
# Shear Modulus (GPa) = 42.23334 49.34434 45.78884
#
# Velocity S-wave (km/s) = 4.32215 4.67187 4.50041
# Velocity P-wave (km/s) = 7.97505 8.41308 8.19699
#
# Compressibility (1/GPa) = 0.01143162
#
# Stress axis : x y z
#
# Youngs Moduli (GPa) = 108.95347 149.82480 89.11261
#
# Poissons Ratio (x) = 0.22324 0.28096
# Poissons Ratio (y) = 0.16234 0.28325
# Poissons Ratio (z) = 0.34352 0.47623
#
# Static dielectric constant tensor:
#      x y z
#    x 1.821070 0.000000 0.127780 
#    y 0.000000 1.822400 0.000000 
#    z 0.127780 0.000000 2.382640 
# 
# From -- ./inp_files/145675.got.cif
#   From: 2010.05.17/outbox.cif.g08.bks.cpg/sg15_73_cif.got.tgz:145675.got - 2010.06.03 18:47:42.
