data_PCOD9302631
_publ_section_title
;
Structure prediction by ZEFSAII (Michael W. Deem and Ramdas Pophale) SiO2 
 PCOD9302631
Probable space group: C 2/C
;
_chemical_formula_sum "Si O2"
_cell_formula_units_Z 48
_cell_length_a 16.216525
_cell_length_b 8.459822
_cell_length_c 26.628840
_cell_angle_alpha 90.000000
_cell_angle_beta 143.232975
_cell_angle_gamma 90.000000
_cell_volume 2186.658138
_symmetry_space_group_name_H-M "C 2/C"
_symmetry_group_IT_number 15
_symmetry_cell_setting 'monoclinic'
loop_
_space_group_symop_operation_xyz
x,y,z
-x,y,1/2-z
-x,-y,-z
x,-y,1/2+z
1/2+x,1/2+y,z
1/2-x,1/2+y,1/2-z
1/2-x,1/2-y,-z
1/2+x,1/2-y,1/2+z
loop_
_atom_site_type_symbol
_atom_site_label
_atom_site_fract_x
_atom_site_fract_y
_atom_site_fract_z
Si Si1 0.405198 0.434170 0.654975
Si Si2 0.344512 0.954991 0.291866
Si Si3 0.381314 0.395750 0.465823
Si Si4 0.351363 0.943348 0.910588
Si Si5 0.425465 0.391444 0.850384
Si Si6 0.587491 0.940271 0.343858
O O1 0.500000 0.442188 0.750000
O O2 0.261374 0.503149 0.603793
O O3 0.491274 0.495564 0.649735
O O4 0.388293 0.247472 0.633777
O O5 0.358249 0.766411 0.294550
O O6 0.489025 0.013068 0.338445
O O7 0.326381 0.001338 0.341429
O O8 0.208971 0.014594 0.196721
O O9 0.500000 0.500000 0.500000
O O10 0.345314 0.246382 0.413503
O O11 0.459863 0.335997 0.554146
O O12 0.244128 0.494230 0.412418
O O13 0.500000 0.000000 0.000000
O O14 0.500000 0.952786 0.250000
#
# Coordination Sequence:
#
# PCOD9302631 Si02
#       6
#     8   8   8   8   8   8
#     4   9  18  35  60  87 116 161 202 248 295 371
#     4  11  23  39  65  92 124 164 206 262 312 369
#     4  11  24  40  64  89 124 166 209 254 310 381
#     4  11  22  39  61  90 123 155 206 260 308 359
#     4  11  23  39  64  93 123 164 212 254 313 371
#     4   9  20  38  62  87 122 164 207 249 307 375
#
# _framework density 21.951305000000001
#
# number of rings (size 3 to 8) (size 9 to 14) (size 15 to 20)
#    0.000    1.667    3.333    1.000    7.000    2.000 
#    0.000    2.500    3.667    0.000    0.000    0.000 
#    0.000    0.000    0.000    0.000    0.000    0.000 
#
# Total GULP energy -133865.497639 kJ/mol
# GULP energy per Si atom -5577.729068 kJ/mol
# Density = 2.190134 g / cm^3
# Si number density = 21.951305 Si / 1000 Ang^3
#
#
#
# Elastic Constant Matrix: (Units=GPa)
#
#
# Indices 1 2 3 4 5 6 
#
# 1 153.0746 24.7413 40.0185 0.0000 48.4314 0.0000
# 2 24.7413 18.6526 6.9044 0.0000 9.9749 0.0000
# 3 40.0185 6.9044 94.4575 0.0000 33.9705 0.0000
# 4 0.0000 0.0000 0.0000 27.9695 0.0000 4.2384
# 5 48.4314 9.9749 33.9705 0.0000 50.7098 0.0000
# 6 0.0000 0.0000 0.0000 4.2384 0.0000 22.8353
#
#
#
# Elastic Compliance Matrix: (Units=1/GPa)
#
#
# Indices 1 2 3 4 5 6 
#
# 1 0.010847 -0.009873 -0.001115 0.000000 -0.007670 0.000000
# 2 -0.009873 0.068903 0.000829 0.000000 -0.004680 0.000000
# 3 -0.001115 0.000829 0.014062 0.000000 -0.008518 0.000000
# 4 0.000000 0.000000 0.000000 0.036788 0.000000 -0.006828
# 5 -0.007670 -0.004680 -0.008518 0.000000 0.033673 0.000000
# 6 0.000000 0.000000 0.000000 -0.006828 0.000000 0.045059
#
#
# Mechanical properties :
#
#
# Convention : Reuss Voigt Hill
#
# Bulk Modulus (GPa) = 13.60644 45.50147 29.55396
# Shear Modulus (GPa) = 19.67360 33.27095 26.47228
#
# Velocity S-wave (km/s) = 2.99697 3.89739 3.47645
# Velocity P-wave (km/s) = 4.26471 6.40517 5.44123
#
# Compressibility (1/GPa) = 0.07349459
#
# Stress axis : x y z
#
# Youngs Moduli (GPa) = 92.19210 14.51316 71.11305
#
# Poissons Ratio (x) = 0.14329 0.07931
# Poissons Ratio (y) = 0.91020 -0.05898
# Poissons Ratio (z) = 0.10282 -0.01204
#
# Static dielectric constant tensor:
#      x y z
#    x 1.937730 0.000000 0.011190 
#    y 0.000000 1.816730 0.000000 
#    z 0.011190 0.000000 1.843090 
# 
# From -- ./inp_files/295466.got.cif
#   From: 2010.05.17/outbox.cif.g08.bks.cpg/sg15_148_cif.got.tgz:295466.got - 2010.06.03 18:47:42.
