data_PCOD9302573
_publ_section_title
;
Structure prediction by ZEFSAII (Michael W. Deem and Ramdas Pophale) SiO2 
 PCOD9302573
Probable space group: C 2/C
;
_chemical_formula_sum "Si O2"
_cell_formula_units_Z 40
_cell_length_a 35.095786
_cell_length_b 9.249000
_cell_length_c 9.726335
_cell_angle_alpha 90.000000
_cell_angle_beta 146.240457
_cell_angle_gamma 90.000000
_cell_volume 1754.470951
_symmetry_space_group_name_H-M "C 2/C"
_symmetry_group_IT_number 15
_symmetry_cell_setting 'monoclinic'
loop_
_space_group_symop_operation_xyz
x,y,z
-x,y,1/2-z
-x,-y,-z
x,-y,1/2+z
1/2+x,1/2+y,z
1/2-x,1/2+y,1/2-z
1/2-x,1/2-y,-z
1/2+x,1/2-y,1/2+z
loop_
_atom_site_type_symbol
_atom_site_label
_atom_site_fract_x
_atom_site_fract_y
_atom_site_fract_z
Si Si1 0.156213 0.106035 0.158567
Si Si2 0.573343 0.476567 0.147832
Si Si3 0.807374 0.572063 0.676643
Si Si4 0.111463 0.424169 0.356983
Si Si5 0.521632 0.171565 0.958689
O O1 0.176100 0.274846 0.200264
O O2 0.227153 0.039087 0.426488
O O3 0.098411 0.080456 0.101328
O O4 0.129329 0.038184 0.936694
O O5 0.500000 0.500000 0.000000
O O6 0.562346 0.316750 0.050025
O O7 0.836464 0.594011 0.611149
O O8 0.847794 0.449782 0.880755
O O9 0.052129 0.304336 0.190402
O O10 0.067617 0.567802 0.188818
O O11 0.500000 0.097808 0.750000
#
# Coordination Sequence:
#
# PCOD9302573 Si02
#       5
#     8   8   8   8   8
#     4  11  25  43  66  95 129 174 215 263 323 391
#     4  12  24  43  65  93 132 168 214 266 322 379
#     4  11  23  44  66  94 131 169 218 263 324 388
#     4  11  22  40  66  93 130 166 208 271 321 376
#     4  11  22  38  64  96 126 161 216 263 322 383
#
# _framework density 22.798894000000001
#
# number of rings (size 3 to 8) (size 9 to 14) (size 15 to 20)
#    0.000    0.800    4.000    4.200    0.000    0.000 
#    0.000    1.000    0.000    0.000    0.000    0.000 
#    0.000    0.000    0.000    0.000    0.000    0.000 
#
# Total GULP energy -111809.266525 kJ/mol
# GULP energy per Si atom -5590.463326 kJ/mol
# Density = 2.274700 g / cm^3
# Si number density = 22.798894 Si / 1000 Ang^3
#
#
#
# Elastic Constant Matrix: (Units=GPa)
#
#
# Indices 1 2 3 4 5 6 
#
# 1 80.6131 -22.1900 11.9716 0.0000 0.1955 0.0000
# 2 -22.1900 26.1827 15.1422 0.0000 0.7935 0.0000
# 3 11.9716 15.1422 128.5806 0.0000 -0.4795 0.0000
# 4 0.0000 0.0000 0.0000 31.9028 0.0000 0.2367
# 5 0.1955 0.7935 -0.4795 0.0000 40.0754 0.0000
# 6 0.0000 0.0000 0.0000 0.2367 0.0000 28.1016
#
#
#
# Elastic Compliance Matrix: (Units=1/GPa)
#
#
# Indices 1 2 3 4 5 6 
#
# 1 0.017654 0.017092 -0.003658 0.000000 -0.000468 0.000000
# 2 0.017092 0.057562 -0.008375 0.000000 -0.001323 0.000000
# 3 -0.003658 -0.008375 0.009105 0.000000 0.000293 0.000000
# 4 0.000000 0.000000 0.000000 0.031347 0.000000 -0.000264
# 5 -0.000468 -0.001323 0.000293 0.000000 0.024985 0.000000
# 6 0.000000 0.000000 0.000000 -0.000264 0.000000 0.035587
#
#
# Mechanical properties :
#
#
# Convention : Reuss Voigt Hill
#
# Bulk Modulus (GPa) = 10.58889 27.24711 18.91800
# Shear Modulus (GPa) = 25.30319 35.37946 30.34132
#
# Velocity S-wave (km/s) = 3.33504 3.94357 3.65200
# Velocity P-wave (km/s) = 4.41413 5.71950 5.10868
#
# Compressibility (1/GPa) = 0.09443860
#
# Stress axis : x y z
#
# Youngs Moduli (GPa) = 56.64398 17.37251 109.82730
#
# Poissons Ratio (x) = -0.29693 0.40178
# Poissons Ratio (y) = -0.96815 0.91981
# Poissons Ratio (z) = 0.20722 0.14550
#
# Static dielectric constant tensor:
#      x y z
#    x 1.863720 0.000000 0.010280 
#    y 0.000000 1.888110 0.000000 
#    z 0.010280 0.000000 1.842300 
# 
# From -- ./inp_files/54050.got.cif
#   From: 2010.05.17/outbox.cif.g08.bks.cpg/sg15_28_cif.got.tgz:54050.got - 2010.06.03 18:47:42.
