data_PCOD9302423
_publ_section_title
;
Structure prediction by ZEFSAII (Michael W. Deem and Ramdas Pophale) SiO2 
 PCOD9302423
Probable space group: C 2/C
;
_chemical_formula_sum "Si O2"
_cell_formula_units_Z 64
_cell_length_a 26.902569
_cell_length_b 18.292082
_cell_length_c 17.533837
_cell_angle_alpha 90.000000
_cell_angle_beta 159.295341
_cell_angle_gamma 90.000000
_cell_volume 3050.603861
_symmetry_space_group_name_H-M "C 2/C"
_symmetry_group_IT_number 15
_symmetry_cell_setting 'monoclinic'
loop_
_space_group_symop_operation_xyz
x,y,z
-x,y,1/2-z
-x,-y,-z
x,-y,1/2+z
1/2+x,1/2+y,z
1/2-x,1/2+y,1/2-z
1/2-x,1/2-y,-z
1/2+x,1/2-y,1/2+z
loop_
_atom_site_type_symbol
_atom_site_label
_atom_site_fract_x
_atom_site_fract_y
_atom_site_fract_z
Si Si1 0.166323 0.195974 0.479448
Si Si2 0.877816 0.387514 0.013535
Si Si3 0.113890 0.546986 0.480475
Si Si4 0.036642 0.185619 0.891029
Si Si5 0.634147 0.350224 0.208629
Si Si6 0.165579 0.307797 0.692690
Si Si7 0.345994 0.656165 0.203500
Si Si8 0.590814 0.167385 0.566979
O O1 0.264913 0.266833 0.603472
O O2 0.169624 0.145632 0.408551
O O3 0.252223 0.162170 0.673170
O O4 0.000000 0.210295 0.250000
O O5 0.886173 0.465469 0.984926
O O6 0.000000 0.378407 0.250000
O O7 0.876102 0.317462 0.955804
O O8 0.739652 0.397548 0.866151
O O9 0.257884 0.584771 0.655612
O O10 0.062686 0.602008 0.470621
O O11 0.000000 0.545107 0.250000
O O12 0.000000 0.200630 0.750000
O O13 0.924167 0.147889 0.787311
O O14 0.188702 0.147144 0.099836
O O15 0.070770 0.257895 0.990418
O O16 0.699850 0.270143 0.282522
O O17 0.502045 0.346866 0.960712
O O18 0.027920 0.333882 0.538933
#
# Coordination Sequence:
#
# PCOD9302423 Si02
#       8
#     8   8   8   8   8   8   8   8
#     4  11  22  35  64  98 130 161 205 273 327 383
#     4  11  24  43  65  94 133 175 217 261 328 398
#     4  11  26  44  65  92 131 183 217 262 323 395
#     4  11  23  38  64  99 125 167 214 273 331 365
#     4  11  23  41  67  97 130 166 222 270 330 383
#     4  11  22  40  65  95 131 163 219 280 317 378
#     4  11  22  37  62 100 124 168 206 267 337 374
#     4  11  22  39  60  93 129 169 215 264 324 380
#
# _framework density 20.979452999999999
#
# number of rings (size 3 to 8) (size 9 to 14) (size 15 to 20)
#    0.000    1.000    5.000    2.250    5.250    2.000 
#    0.000    0.000    0.000    0.000    0.000    0.000 
#    0.000    0.000    0.000    0.000    0.000    0.000 
#
# Total GULP energy -178285.935106 kJ/mol
# GULP energy per Si atom -5571.435472 kJ/mol
# Density = 2.093170 g / cm^3
# Si number density = 20.979453 Si / 1000 Ang^3
#
#
#
# Elastic Constant Matrix: (Units=GPa)
#
#
# Indices 1 2 3 4 5 6 
#
# 1 113.3791 4.1966 44.1201 0.0000 -2.4656 0.0000
# 2 4.1966 30.6193 -0.1861 0.0000 -2.7143 0.0000
# 3 44.1201 -0.1861 93.2984 0.0000 4.1899 0.0000
# 4 0.0000 0.0000 0.0000 32.0581 0.0000 -2.8208
# 5 -2.4656 -2.7143 4.1899 0.0000 45.0268 0.0000
# 6 0.0000 0.0000 0.0000 -2.8208 0.0000 8.2899
#
#
#
# Elastic Compliance Matrix: (Units=1/GPa)
#
#
# Indices 1 2 3 4 5 6 
#
# 1 0.010924 -0.001441 -0.005213 0.000000 0.000996 0.000000
# 2 -0.001441 0.033025 0.000664 0.000000 0.001850 0.000000
# 3 -0.005213 0.000664 0.013251 0.000000 -0.001479 0.000000
# 4 0.000000 0.000000 0.000000 0.032156 0.000000 0.010942
# 5 0.000996 0.001850 -0.001479 0.000000 0.022513 0.000000
# 6 0.000000 0.000000 0.000000 0.010942 0.000000 0.124351
#
#
# Mechanical properties :
#
#
# Convention : Reuss Voigt Hill
#
# Bulk Modulus (GPa) = 22.11412 37.06198 29.58805
# Shear Modulus (GPa) = 18.99171 29.68604 24.33887
#
# Velocity S-wave (km/s) = 3.01201 3.76574 3.40976
# Velocity P-wave (km/s) = 4.76025 6.05078 5.44389
#
# Compressibility (1/GPa) = 0.04521998
#
# Stress axis : x y z
#
# Youngs Moduli (GPa) = 91.54434 30.28042 75.46384
#
# Poissons Ratio (x) = 0.04362 0.39342
# Poissons Ratio (y) = 0.13187 -0.05011
# Poissons Ratio (z) = 0.47725 -0.02011
#
# Static dielectric constant tensor:
#      x y z
#    x 1.779300 0.000000 -0.169890 
#    y 0.000000 1.784480 0.000000 
#    z -0.169890 0.000000 0.851340 
# 
# From -- ./inp_files/223162.got.cif
#   From: 2010.05.17/outbox.cif.g08.bks.cpg/sg15_112_cif.got.tgz:223162.got - 2010.06.03 18:47:42.
