data_PCOD9302056
_publ_section_title
;
Structure prediction by ZEFSAII (Michael W. Deem and Ramdas Pophale) SiO2 
 PCOD9302056
Probable space group: C 2/C
;
_chemical_formula_sum "Si O2"
_cell_formula_units_Z 60
_cell_length_a 21.927043
_cell_length_b 8.274561
_cell_length_c 17.147587
_cell_angle_alpha 90.000000
_cell_angle_beta 103.631473
_cell_angle_gamma 90.000000
_cell_volume 3023.563551
_symmetry_space_group_name_H-M "C 2/C"
_symmetry_group_IT_number 15
_symmetry_cell_setting 'monoclinic'
loop_
_space_group_symop_operation_xyz
x,y,z
-x,y,1/2-z
-x,-y,-z
x,-y,1/2+z
1/2+x,1/2+y,z
1/2-x,1/2+y,1/2-z
1/2-x,1/2-y,-z
1/2+x,1/2-y,1/2+z
loop_
_atom_site_type_symbol
_atom_site_label
_atom_site_fract_x
_atom_site_fract_y
_atom_site_fract_z
Si Si1 0.500000 0.864178 0.750000
Si Si2 0.012664 0.677430 0.540455
Si Si3 0.427967 0.694460 0.588503
Si Si4 0.302691 0.859413 0.165607
Si Si5 0.389200 0.328890 0.572397
Si Si6 0.681634 0.177525 0.087355
Si Si7 0.606063 0.029279 0.679102
Si Si8 0.699880 0.890526 0.970775
O O1 0.465712 0.758177 0.674206
O O2 0.553182 0.969926 0.723457
O O3 0.027479 0.795161 0.473528
O O4 0.072871 0.660399 0.614123
O O5 0.000000 0.500000 0.500000
O O6 0.953021 0.734375 0.571386
O O7 0.403049 0.514593 0.592392
O O8 0.369495 0.813516 0.554254
O O9 0.353748 0.755873 0.132733
O O10 0.239852 0.754432 0.149861
O O11 0.333795 0.907784 0.256126
O O12 0.289599 0.015328 0.107297
O O13 0.345568 0.304790 0.483132
O O14 0.628663 0.116236 0.130404
O O15 0.701947 0.023919 0.040296
O O16 0.750000 0.750000 0.000000
#
# Coordination Sequence:
#
# PCOD9302056 Si02
#       8
#     4   8   8   8   8   8   8   8
#     4  12  24  42  66  98 134 174 216 280 330 398
#     4  12  21  42  69  95 128 173 216 265 329 395
#     4  12  23  40  67  99 130 170 223 270 334 388
#     4  11  24  43  63  96 132 175 215 274 335 386
#     4  11  23  43  67  99 131 169 219 275 325 397
#     4  11  23  44  65  94 133 173 224 270 326 394
#     4  12  24  42  68  96 134 176 221 270 338 392
#     4  11  21  41  69  94 127 176 225 266 328 399
#
# _framework density 19.844134
#
# number of rings (size 3 to 8) (size 9 to 14) (size 15 to 20)
#    0.000    0.533    5.333    5.200    0.000    2.133 
#    4.800    0.000    0.000    0.000    0.000    0.000 
#    0.000    0.000    0.000    0.000    0.000    0.000 
#
# Total GULP energy -167866.813601 kJ/mol
# GULP energy per Si atom -5595.560453 kJ/mol
# Density = 1.979897 g / cm^3
# Si number density = 19.844134 Si / 1000 Ang^3
#
#
#
# Elastic Constant Matrix: (Units=GPa)
#
#
# Indices 1 2 3 4 5 6 
#
# 1 64.1503 1.0255 8.5789 0.0000 11.8190 0.0000
# 2 1.0255 66.5799 20.9582 0.0000 19.8060 0.0000
# 3 8.5789 20.9582 97.7993 0.0000 20.4178 0.0000
# 4 0.0000 0.0000 0.0000 15.4956 0.0000 15.9574
# 5 11.8190 19.8060 20.4178 0.0000 37.4661 0.0000
# 6 0.0000 0.0000 0.0000 15.9574 0.0000 43.2021
#
#
#
# Elastic Compliance Matrix: (Units=1/GPa)
#
#
# Indices 1 2 3 4 5 6 
#
# 1 0.016716 0.001666 -0.000608 0.000000 -0.005823 0.000000
# 2 0.001666 0.018375 -0.002196 0.000000 -0.009043 0.000000
# 3 -0.000608 -0.002196 0.011810 0.000000 -0.005084 0.000000
# 4 0.000000 0.000000 0.000000 0.104150 0.000000 -0.038470
# 5 -0.005823 -0.009043 -0.005084 0.000000 0.036078 0.000000
# 6 0.000000 0.000000 0.000000 -0.038470 0.000000 0.037356
#
#
# Mechanical properties :
#
#
# Convention : Reuss Voigt Hill
#
# Bulk Modulus (GPa) = 22.40873 32.18387 27.29630
# Shear Modulus (GPa) = 20.69220 32.43056 26.56138
#
# Velocity S-wave (km/s) = 3.23265 4.04699 3.66252
# Velocity P-wave (km/s) = 5.02496 6.17179 5.62767
#
# Compressibility (1/GPa) = 0.04462547
#
# Stress axis : x y z
#
# Youngs Moduli (GPa) = 59.82370 54.42145 84.67225
#
# Poissons Ratio (x) = -0.09066 0.05146
# Poissons Ratio (y) = -0.09966 0.18594
# Poissons Ratio (z) = 0.03636 0.11951
#
# Static dielectric constant tensor:
#      x y z
#    x 1.700350 0.000000 0.006420 
#    y 0.000000 1.677890 0.000000 
#    z 0.006420 0.000000 1.692320 
# 
# From -- ./inp_files/213967.got.cif
#   From: 2010.05.17/outbox.cif.g08.bks.cpg/sg15_107_cif.got.tgz:213967.got - 2010.06.03 18:47:42.
