data_PCOD9302611
_publ_section_title
;
Structure prediction by ZEFSAII (Michael W. Deem and Ramdas Pophale) SiO2 
 PCOD9302611
Probable space group: C 2/C
;
_chemical_formula_sum "Si O2"
_cell_formula_units_Z 56
_cell_length_a 20.801568
_cell_length_b 20.388560
_cell_length_c 11.627271
_cell_angle_alpha 90.000000
_cell_angle_beta 150.048393
_cell_angle_gamma 90.000000
_cell_volume 2462.036388
_symmetry_space_group_name_H-M "C 2/C"
_symmetry_group_IT_number 15
_symmetry_cell_setting 'monoclinic'
loop_
_space_group_symop_operation_xyz
x,y,z
-x,y,1/2-z
-x,-y,-z
x,-y,1/2+z
1/2+x,1/2+y,z
1/2-x,1/2+y,1/2-z
1/2-x,1/2-y,-z
1/2+x,1/2-y,1/2+z
loop_
_atom_site_type_symbol
_atom_site_label
_atom_site_fract_x
_atom_site_fract_y
_atom_site_fract_z
Si Si1 0.358806 0.904542 0.563202
Si Si2 0.851372 0.557343 0.514197
Si Si3 0.288491 0.411475 0.936628
Si Si4 0.379189 0.356730 0.445182
Si Si5 0.235402 0.342125 0.458245
Si Si6 0.500000 0.700365 0.750000
Si Si7 0.931907 0.760492 0.893887
Si Si8 0.000000 0.976334 0.750000
O O1 0.500000 0.880490 0.750000
O O2 0.322528 0.907086 0.640540
O O3 0.247274 0.865624 0.326558
O O4 0.349723 0.979284 0.505469
O O5 0.775482 0.583665 0.286906
O O6 0.785635 0.585569 0.526762
O O7 0.000000 0.578700 0.750000
O O8 0.379642 0.348012 0.087124
O O9 0.382571 0.474674 0.099007
O O10 0.330950 0.339823 0.498196
O O11 0.463020 0.300957 0.515067
O O12 0.453960 0.426438 0.577227
O O13 0.102005 0.310176 0.209883
O O14 0.299438 0.300247 0.660441
O O15 0.468692 0.738533 0.584199
#
# Coordination Sequence:
#
# PCOD9302611 Si02
#       8
#     8   8   8   8   8   4   8   4
#     4  11  26  42  68 105 151 191 230 289 364 435
#     4  11  25  41  67 100 143 188 232 286 353 435
#     4  11  23  41  69 106 145 185 232 300 361 428
#     4  12  23  45  71 104 140 187 238 300 353 426
#     4  11  25  44  68 100 141 187 242 288 356 429
#     4  11  22  44  70 108 136 178 241 302 366 406
#     4  11  24  45  71  99 140 186 240 299 348 421
#     4  11  22  38  72 106 142 178 237 294 364 422
#
# _framework density 22.745398000000002
#
# number of rings (size 3 to 8) (size 9 to 14) (size 15 to 20)
#    0.000    0.857    5.714    0.857    2.000    4.000 
#    1.286    0.714    0.000    0.000    0.000    0.000 
#    0.000    0.000    0.000    0.000    0.000    0.000 
#
# Total GULP energy -156687.809375 kJ/mol
# GULP energy per Si atom -5595.993192 kJ/mol
# Density = 2.269363 g / cm^3
# Si number density = 22.745398 Si / 1000 Ang^3
#
#
#
# Elastic Constant Matrix: (Units=GPa)
#
#
# Indices 1 2 3 4 5 6 
#
# 1 142.6224 36.7204 66.7241 0.0000 -3.8930 0.0000
# 2 36.7204 57.0289 55.7385 0.0000 -0.9602 0.0000
# 3 66.7241 55.7385 153.7796 0.0000 -7.0750 0.0000
# 4 0.0000 0.0000 0.0000 24.3400 0.0000 -11.4425
# 5 -3.8930 -0.9602 -7.0750 0.0000 39.6527 0.0000
# 6 0.0000 0.0000 0.0000 -11.4425 0.0000 9.9662
#
#
#
# Elastic Compliance Matrix: (Units=1/GPa)
#
#
# Indices 1 2 3 4 5 6 
#
# 1 0.009144 -0.003127 -0.002820 0.000000 0.000319 0.000000
# 2 -0.003127 0.028272 -0.008947 0.000000 -0.001219 0.000000
# 3 -0.002820 -0.008947 0.011037 0.000000 0.001476 0.000000
# 4 0.000000 0.000000 0.000000 0.089265 0.000000 0.102488
# 5 0.000319 -0.001219 0.001476 0.000000 0.025484 0.000000
# 6 0.000000 0.000000 0.000000 0.102488 0.000000 0.218009
#
#
# Mechanical properties :
#
#
# Convention : Reuss Voigt Hill
#
# Bulk Modulus (GPa) = 53.57054 74.64411 64.10732
# Shear Modulus (GPa) = 11.98407 27.74164 19.86285
#
# Velocity S-wave (km/s) = 2.29787 3.49615 2.95832
# Velocity P-wave (km/s) = 5.53567 7.01327 6.31782
#
# Compressibility (1/GPa) = 0.01866698
#
# Stress axis : x y z
#
# Youngs Moduli (GPa) = 109.35621 35.37059 90.60411
#
# Poissons Ratio (x) = 0.11059 0.25548
# Poissons Ratio (y) = 0.34192 0.81062
# Poissons Ratio (z) = 0.30836 0.31645
#
# Static dielectric constant tensor:
#      x y z
#    x 1.821270 0.000000 0.019810 
#    y 0.000000 1.851430 0.000000 
#    z 0.019810 0.000000 1.844960 
# 
# From -- ./inp_files/114780.got.cif
#   From: 2010.05.17/outbox.cif.g08.bks.cpg/sg15_58_cif.got.tgz:114780.got - 2010.06.03 18:47:42.
