data_PCOD9302068
_publ_section_title
;
Structure prediction by ZEFSAII (Michael W. Deem and Ramdas Pophale) SiO2 
 PCOD9302068
Probable space group: C 2/C
;
_chemical_formula_sum "Si O2"
_cell_formula_units_Z 52
_cell_length_a 8.326800
_cell_length_b 22.383847
_cell_length_c 14.903230
_cell_angle_alpha 90.000000
_cell_angle_beta 101.811294
_cell_angle_gamma 90.000000
_cell_volume 2718.937553
_symmetry_space_group_name_H-M "C 2/C"
_symmetry_group_IT_number 15
_symmetry_cell_setting 'monoclinic'
loop_
_space_group_symop_operation_xyz
x,y,z
-x,y,1/2-z
-x,-y,-z
x,-y,1/2+z
1/2+x,1/2+y,z
1/2-x,1/2+y,1/2-z
1/2-x,1/2-y,-z
1/2+x,1/2-y,1/2+z
loop_
_atom_site_type_symbol
_atom_site_label
_atom_site_fract_x
_atom_site_fract_y
_atom_site_fract_z
Si Si1 0.863872 0.384401 0.397848
Si Si2 0.723306 0.248922 0.104213
Si Si3 0.848723 0.956181 0.461480
Si Si4 0.998708 0.144284 0.857852
Si Si5 0.500000 0.812455 0.250000
Si Si6 0.003264 0.495086 0.856156
Si Si7 0.144376 0.381316 0.572659
O O1 0.685719 0.365634 0.410280
O O2 0.897578 0.353830 0.305960
O O3 0.885344 0.455389 0.387846
O O4 0.009547 0.365915 0.481028
O O5 0.577942 0.294197 0.114760
O O6 0.691561 0.180147 0.124739
O O7 0.879787 0.273357 0.175585
O O8 0.750000 0.250000 0.000000
O O9 0.794658 0.914047 0.538698
O O10 0.895188 0.910538 0.386967
O O11 0.685255 0.992173 0.414574
O O12 0.000000 0.000000 0.500000
O O13 0.000000 0.143366 0.750000
O O14 0.000000 0.504295 0.750000
O O15 0.939324 0.430053 0.873748
#
# Coordination Sequence:
#
# PCOD9302068 Si02
#       7
#     8   8   8   8   4   8   8
#     4  11  21  41  70  97 125 168 223 267 325 389
#     4  12  24  46  65  91 137 172 218 273 333 388
#     4  11  22  41  66  96 133 168 219 272 330 396
#     4  12  23  38  68 103 123 168 231 273 309 398
#     4  12  22  44  70  92 124 178 218 268 324 388
#     4  11  22  41  65  96 134 171 211 269 336 392
#     4  11  24  43  65  92 136 177 207 271 341 387
#
# _framework density 19.125115999999998
#
# number of rings (size 3 to 8) (size 9 to 14) (size 15 to 20)
#    0.000    0.615    5.385    5.538    0.000    1.231 
#    2.769    0.000    0.000    0.000    0.000    0.000 
#    0.000    0.000    0.000    0.000    0.000    0.000 
#
# Total GULP energy -145379.323532 kJ/mol
# GULP energy per Si atom -5591.512444 kJ/mol
# Density = 1.908159 g / cm^3
# Si number density = 19.125116 Si / 1000 Ang^3
#
#
#
# Elastic Constant Matrix: (Units=GPa)
#
#
# Indices 1 2 3 4 5 6 
#
# 1 125.0162 73.1788 24.5156 0.0000 1.2279 0.0000
# 2 73.1788 158.6071 29.5379 0.0000 2.4091 0.0000
# 3 24.5156 29.5379 62.3520 0.0000 2.2289 0.0000
# 4 0.0000 0.0000 0.0000 35.0930 0.0000 -1.0636
# 5 1.2279 2.4091 2.2289 0.0000 29.6461 0.0000
# 6 0.0000 0.0000 0.0000 -1.0636 0.0000 27.3187
#
#
#
# Elastic Compliance Matrix: (Units=1/GPa)
#
#
# Indices 1 2 3 4 5 6 
#
# 1 0.011215 -0.004775 -0.002150 0.000000 0.000085 0.000000
# 2 -0.004775 0.008951 -0.002350 0.000000 -0.000353 0.000000
# 3 -0.002150 -0.002350 0.018035 0.000000 -0.001076 0.000000
# 4 0.000000 0.000000 0.000000 0.028529 0.000000 0.001111
# 5 0.000085 -0.000353 -0.001076 0.000000 0.033837 0.000000
# 6 0.000000 0.000000 0.000000 0.001111 0.000000 0.036648
#
#
# Mechanical properties :
#
#
# Convention : Reuss Voigt Hill
#
# Bulk Modulus (GPa) = 50.89144 66.71554 58.80349
# Shear Modulus (GPa) = 30.80372 32.99445 31.89908
#
# Velocity S-wave (km/s) = 4.01763 4.15805 4.08844
# Velocity P-wave (km/s) = 6.94186 7.61656 7.28702
#
# Compressibility (1/GPa) = 0.01964967
#
# Stress axis : x y z
#
# Youngs Moduli (GPa) = 89.16596 111.71720 55.44678
#
# Poissons Ratio (x) = 0.53348 0.11923
# Poissons Ratio (y) = 0.42579 0.13031
# Poissons Ratio (z) = 0.19174 0.26256
#
# Static dielectric constant tensor:
#      x y z
#    x 1.675510 0.000000 -0.009250 
#    y 0.000000 1.666860 0.000000 
#    z -0.009250 0.000000 1.663630 
# 
# From -- ./inp_files/136107.got.cif
#   From: 2010.05.17/outbox.cif.g08.bks.cpg/sg15_69_cif.got.tgz:136107.got - 2010.06.03 18:47:42.
