data_PCOD9302407
_publ_section_title
;
Structure prediction by ZEFSAII (Michael W. Deem and Ramdas Pophale) SiO2 
 PCOD9302407
Probable space group: C 2/C
;
_chemical_formula_sum "Si O2"
_cell_formula_units_Z 40
_cell_length_a 24.009882
_cell_length_b 11.954899
_cell_length_c 8.270468
_cell_angle_alpha 90.000000
_cell_angle_beta 39.549885
_cell_angle_gamma 90.000000
_cell_volume 1511.592887
_symmetry_space_group_name_H-M "C 2/C"
_symmetry_group_IT_number 15
_symmetry_cell_setting 'monoclinic'
loop_
_space_group_symop_operation_xyz
x,y,z
-x,y,1/2-z
-x,-y,-z
x,-y,1/2+z
1/2+x,1/2+y,z
1/2-x,1/2+y,1/2-z
1/2-x,1/2-y,-z
1/2+x,1/2-y,1/2+z
loop_
_atom_site_type_symbol
_atom_site_label
_atom_site_fract_x
_atom_site_fract_y
_atom_site_fract_z
Si Si1 0.295306 0.413140 0.604417
Si Si2 0.121499 0.333511 0.870749
Si Si3 0.915634 0.116754 0.355477
Si Si4 0.626476 0.028972 0.667461
Si Si5 0.852866 0.259151 0.210438
O O1 0.225125 0.361205 0.640508
O O2 0.355389 0.516469 0.429778
O O3 0.350657 0.310267 0.551630
O O4 0.228960 0.467465 0.886223
O O5 0.110302 0.204586 0.942335
O O6 0.087939 0.399887 0.106235
O O7 0.089621 0.407507 0.791584
O O8 0.915181 0.195944 0.198844
O O9 0.000000 0.063751 0.250000
O O10 0.624552 0.110330 0.829307
O O11 0.750000 0.250000 0.500000
#
# Coordination Sequence:
#
# PCOD9302407 Si02
#       5
#     8   8   8   8   8
#     4   9  18  30  60  77 108 151 196 216 275 348
#     4   9  19  34  56  86 113 150 190 238 272 343
#     4  11  22  35  54  88 121 144 182 246 294 323
#     4   8  17  31  57  80 105 145 201 228 267 326
#     4   9  16  35  54  74 108 157 181 220 284 341
#
# _framework density 26.462153000000001
#
# number of rings (size 3 to 8) (size 9 to 14) (size 15 to 20)
#    1.200    1.600    2.000    2.400    0.000    1.600 
#    0.000    6.000    0.000    1.200    0.000    0.000 
#    0.000    0.000    0.000    0.000    0.000    0.000 
#
# Total GULP energy -111471.914614 kJ/mol
# GULP energy per Si atom -5573.595731 kJ/mol
# Density = 2.640192 g / cm^3
# Si number density = 26.462153 Si / 1000 Ang^3
#
#
#
# Elastic Constant Matrix: (Units=GPa)
#
#
# Indices 1 2 3 4 5 6 
#
# 1 50.0484 -16.6746 15.7138 0.0000 -20.3292 0.0000
# 2 -16.6746 113.5341 15.4219 0.0000 6.6072 0.0000
# 3 15.7138 15.4219 20.4402 0.0000 -9.5530 0.0000
# 4 0.0000 0.0000 0.0000 4.8821 0.0000 14.5104
# 5 -20.3292 6.6072 -9.5530 0.0000 35.6122 0.0000
# 6 0.0000 0.0000 0.0000 14.5104 0.0000 44.5495
#
#
#
# Elastic Compliance Matrix: (Units=1/GPa)
#
#
# Indices 1 2 3 4 5 6 
#
# 1 0.036845 0.008761 -0.029572 0.000000 0.011475 0.000000
# 2 0.008761 0.012525 -0.017074 0.000000 -0.001903 0.000000
# 3 -0.029572 -0.017074 0.089330 0.000000 0.010249 0.000000
# 4 0.000000 0.000000 0.000000 6.415852 0.000000 -2.089732
# 5 0.011475 -0.001903 0.010249 0.000000 0.037733 0.000000
# 6 0.000000 0.000000 0.000000 -2.089732 0.000000 0.703102
#
#
# Mechanical properties :
#
#
# Convention : Reuss Voigt Hill
#
# Bulk Modulus (GPa) = 15.89106 23.66054 19.77580
# Shear Modulus (GPa) = 0.67639 28.31287 14.49463
#
# Velocity S-wave (km/s) = 0.50613 3.27454 2.34294
# Velocity P-wave (km/s) = 2.52186 4.82260 3.84820
#
# Compressibility (1/GPa) = 0.06292847
#
# Stress axis : x y z
#
# Youngs Moduli (GPa) = 27.14055 79.84323 11.19448
#
# Poissons Ratio (x) = -0.69947 0.33105
# Poissons Ratio (y) = -0.23777 0.19113
# Poissons Ratio (z) = 0.80261 1.36323
#
# Static dielectric constant tensor:
#      x y z
#    x 2.157320 0.000000 0.035700 
#    y 0.000000 2.059630 0.000000 
#    z 0.035700 0.000000 2.194510 
# 
# From -- ./inp_files/123071.got.cif
#   From: 2010.05.17/outbox.cif.g08.bks.cpg/sg15_62_cif.got.tgz:123071.got - 2010.06.03 18:47:42.
