data_PCOD9302642
_publ_section_title
;
Structure prediction by ZEFSAII (Michael W. Deem and Ramdas Pophale) SiO2 
 PCOD9302642
Probable space group: C 2/C
;
_chemical_formula_sum "Si O2"
_cell_formula_units_Z 48
_cell_length_a 10.235435
_cell_length_b 11.659341
_cell_length_c 17.442028
_cell_angle_alpha 90.000000
_cell_angle_beta 78.062127
_cell_angle_gamma 90.000000
_cell_volume 2036.486387
_symmetry_space_group_name_H-M "C 2/C"
_symmetry_group_IT_number 15
_symmetry_cell_setting 'monoclinic'
loop_
_space_group_symop_operation_xyz
x,y,z
-x,y,1/2-z
-x,-y,-z
x,-y,1/2+z
1/2+x,1/2+y,z
1/2-x,1/2+y,1/2-z
1/2-x,1/2-y,-z
1/2+x,1/2-y,1/2+z
loop_
_atom_site_type_symbol
_atom_site_label
_atom_site_fract_x
_atom_site_fract_y
_atom_site_fract_z
Si Si1 0.179248 0.704943 0.889514
Si Si2 0.543086 0.586828 0.333494
Si Si3 0.151601 0.875373 0.264111
Si Si4 0.158879 0.909664 0.515156
Si Si5 0.636915 0.895652 0.552608
Si Si6 0.369078 0.213098 0.097633
O O1 0.077336 0.788436 0.859995
O O2 0.251438 0.627037 0.819012
O O3 0.286048 0.791685 0.914936
O O4 0.119091 0.631987 0.964814
O O5 0.500000 0.599839 0.250000
O O6 0.660435 0.494147 0.308951
O O7 0.448637 0.535575 0.412882
O O8 0.175911 0.769742 0.317556
O O9 0.000000 0.865319 0.250000
O O10 0.249173 0.841146 0.565082
O O11 0.091425 0.821224 0.462978
O O12 0.262119 0.996455 0.460901
O O13 0.485250 0.879826 0.599567
#
# Coordination Sequence:
#
# PCOD9302642 Si02
#       6
#     8   8   8   8   8   8
#     4  11  23  39  65  96 126 165 216 272 325 385
#     4  11  23  40  65  94 130 170 215 268 328 401
#     4  11  22  39  62  91 125 166 212 265 329 386
#     4  11  24  41  66  96 129 173 220 264 340 394
#     4  11  22  40  66  96 129 168 220 274 321 399
#     4  11  23  42  65  94 133 170 215 277 323 398
#
# _framework density 23.570005999999999
#
# number of rings (size 3 to 8) (size 9 to 14) (size 15 to 20)
#    0.000    1.000    3.333    4.500    2.333    1.333 
#    0.000    0.000    0.000    0.000    0.000    0.000 
#    0.000    0.000    0.000    0.000    0.000    0.000 
#
# Total GULP energy -134059.428589 kJ/mol
# GULP energy per Si atom -5585.809525 kJ/mol
# Density = 2.351636 g / cm^3
# Si number density = 23.570006 Si / 1000 Ang^3
#
#
#
# Elastic Constant Matrix: (Units=GPa)
#
#
# Indices 1 2 3 4 5 6 
#
# 1 28.7961 3.1288 -13.5386 0.0000 4.5212 0.0000
# 2 3.1288 65.5232 8.0407 0.0000 -0.1746 0.0000
# 3 -13.5386 8.0407 80.9923 0.0000 0.2066 0.0000
# 4 0.0000 0.0000 0.0000 37.0580 0.0000 5.7463
# 5 4.5212 -0.1746 0.2066 0.0000 32.2297 0.0000
# 6 0.0000 0.0000 0.0000 5.7463 0.0000 36.4200
#
#
#
# Elastic Compliance Matrix: (Units=1/GPa)
#
#
# Indices 1 2 3 4 5 6 
#
# 1 0.039099 -0.002719 0.006820 0.000000 -0.005543 0.000000
# 2 -0.002719 0.015639 -0.002008 0.000000 0.000479 0.000000
# 3 0.006820 -0.002008 0.013689 0.000000 -0.001055 0.000000
# 4 0.000000 0.000000 0.000000 0.027662 0.000000 -0.004364
# 5 -0.005543 0.000479 -0.001055 0.000000 0.031814 0.000000
# 6 0.000000 0.000000 0.000000 -0.004364 0.000000 0.028146
#
#
# Mechanical properties :
#
#
# Convention : Reuss Voigt Hill
#
# Bulk Modulus (GPa) = 13.77167 18.95259 16.36213
# Shear Modulus (GPa) = 28.39818 32.98692 30.69255
#
# Velocity S-wave (km/s) = 3.47485 3.74509 3.61250
# Velocity P-wave (km/s) = 4.68562 5.17294 4.93530
#
# Compressibility (1/GPa) = 0.07261284
#
# Stress axis : x y z
#
# Youngs Moduli (GPa) = 25.57612 63.94140 73.05188
#
# Poissons Ratio (x) = 0.17384 -0.49820
# Poissons Ratio (y) = 0.06953 0.14671
# Poissons Ratio (z) = -0.17442 0.12841
#
# Static dielectric constant tensor:
#      x y z
#    x 1.963850 0.000000 -0.027480 
#    y 0.000000 1.934850 0.000000 
#    z -0.027480 0.000000 1.878660 
# 
# From -- ./inp_files/196495.got.cif
#   From: 2010.05.17/outbox.cif.g08.bks.cpg/sg15_99_cif.got.tgz:196495.got - 2010.06.03 18:47:42.
