data_PCOD9302462
_publ_section_title
;
Structure prediction by ZEFSAII (Michael W. Deem and Ramdas Pophale) SiO2 
 PCOD9302462
Probable space group: C 2/C
;
_chemical_formula_sum "Si O2"
_cell_formula_units_Z 56
_cell_length_a 19.178038
_cell_length_b 15.388632
_cell_length_c 10.038865
_cell_angle_alpha 90.000000
_cell_angle_beta 52.639832
_cell_angle_gamma 90.000000
_cell_volume 2354.868723
_symmetry_space_group_name_H-M "C 2/C"
_symmetry_group_IT_number 15
_symmetry_cell_setting 'monoclinic'
loop_
_space_group_symop_operation_xyz
x,y,z
-x,y,1/2-z
-x,-y,-z
x,-y,1/2+z
1/2+x,1/2+y,z
1/2-x,1/2+y,1/2-z
1/2-x,1/2-y,-z
1/2+x,1/2-y,1/2+z
loop_
_atom_site_type_symbol
_atom_site_label
_atom_site_fract_x
_atom_site_fract_y
_atom_site_fract_z
Si Si1 0.970848 0.197140 0.978053
Si Si2 0.856779 0.869051 0.866457
Si Si3 0.574435 0.483509 0.027570
Si Si4 0.000000 0.346302 0.750000
Si Si5 0.414635 0.005840 0.189430
Si Si6 0.760548 0.572808 0.208372
Si Si7 0.500000 0.135322 0.750000
Si Si8 0.132766 0.739605 0.416134
O O1 0.943489 0.116673 0.918042
O O2 0.914458 0.177255 0.180317
O O3 0.076294 0.199911 0.882484
O O4 0.955982 0.285740 0.913883
O O5 0.768108 0.909281 0.909545
O O6 0.832431 0.799692 0.006550
O O7 0.913222 0.944955 0.872041
O O8 0.672119 0.474005 0.857645
O O9 0.500000 0.500000 0.000000
O O10 0.071580 0.408428 0.736517
O O11 0.335939 0.012412 0.178327
O O12 0.424743 0.924139 0.273343
O O13 0.500000 0.000000 0.000000
O O14 0.795083 0.669611 0.213771
O O15 0.550787 0.187912 0.578368
#
# Coordination Sequence:
#
# PCOD9302462 Si02
#       8
#     8   8   8   4   8   8   4   8
#     4  11  23  45  78 108 147 202 259 321 393 457
#     4  11  25  46  75 109 150 207 263 325 387 472
#     4  11  26  48  74 105 154 210 266 322 390 465
#     4  11  24  42  75 110 156 200 255 318 392 469
#     4  11  23  44  70 107 155 205 243 310 392 470
#     4  11  26  43  71 112 147 197 264 316 389 463
#     4  11  22  36  77 102 146 204 243 302 390 469
#     4  12  21  45  74 111 150 192 259 324 390 469
#
# _framework density 23.780517
#
# number of rings (size 3 to 8) (size 9 to 14) (size 15 to 20)
#    0.000    0.857    5.714    0.429    4.000    2.286 
#    0.000    2.857    0.000    0.000    0.000    0.000 
#    0.000    0.000    0.000    0.000    0.000    0.000 
#
# Total GULP energy -156203.530103 kJ/mol
# GULP energy per Si atom -5578.697504 kJ/mol
# Density = 2.372639 g / cm^3
# Si number density = 23.780517 Si / 1000 Ang^3
#
#
#
# Elastic Constant Matrix: (Units=GPa)
#
#
# Indices 1 2 3 4 5 6 
#
# 1 210.4862 42.6893 36.9380 0.0000 -18.0281 0.0000
# 2 42.6893 88.4976 14.9660 0.0000 6.4303 0.0000
# 3 36.9380 14.9660 72.1664 0.0000 -2.3902 0.0000
# 4 0.0000 0.0000 0.0000 65.4845 0.0000 42.6340
# 5 -18.0281 6.4303 -2.3902 0.0000 38.6329 0.0000
# 6 0.0000 0.0000 0.0000 42.6340 0.0000 87.0831
#
#
#
# Elastic Compliance Matrix: (Units=1/GPa)
#
#
# Indices 1 2 3 4 5 6 
#
# 1 0.005986 -0.002707 -0.002400 0.000000 0.003095 0.000000
# 2 -0.002707 0.013107 -0.001450 0.000000 -0.003534 0.000000
# 3 -0.002400 -0.001450 0.015388 0.000000 0.000073 0.000000
# 4 0.000000 0.000000 0.000000 0.022416 0.000000 -0.010974
# 5 0.003095 -0.003534 0.000073 0.000000 0.027922 0.000000
# 6 0.000000 0.000000 0.000000 -0.010974 0.000000 0.016856
#
#
# Mechanical properties :
#
#
# Convention : Reuss Voigt Hill
#
# Bulk Modulus (GPa) = 46.79761 62.25967 54.52864
# Shear Modulus (GPa) = 41.01320 56.67721 48.84520
#
# Velocity S-wave (km/s) = 4.15740 4.88725 4.53703
# Velocity P-wave (km/s) = 6.53965 7.62133 7.10112
#
# Compressibility (1/GPa) = 0.02136861
#
# Stress axis : x y z
#
# Youngs Moduli (GPa) = 167.05171 76.29299 64.98362
#
# Poissons Ratio (x) = 0.20650 0.15597
# Poissons Ratio (y) = 0.45215 0.09422
# Poissons Ratio (z) = 0.40095 0.11062
#
# Static dielectric constant tensor:
#      x y z
#    x 1.913670 0.000000 0.078210 
#    y 0.000000 1.993650 0.000000 
#    z 0.078210 0.000000 2.115180 
# 
# From -- ./inp_files/106368.got.cif
#   From: 2010.05.17/outbox.cif.g08.bks.cpg/sg15_54_cif.got.tgz:106368.got - 2010.06.03 18:47:42.
