data_PCOD9302890
_publ_section_title
;
Structure prediction by ZEFSAII (Michael W. Deem and Ramdas Pophale) SiO2 
 PCOD9302890
Probable space group: C 2/C
;
_chemical_formula_sum "Si O2"
_cell_formula_units_Z 64
_cell_length_a 12.725139
_cell_length_b 29.314949
_cell_length_c 18.484553
_cell_angle_alpha 90.000000
_cell_angle_beta 151.246540
_cell_angle_gamma 90.000000
_cell_volume 3316.983929
_symmetry_space_group_name_H-M "C 2/C"
_symmetry_group_IT_number 15
_symmetry_cell_setting 'monoclinic'
loop_
_space_group_symop_operation_xyz
x,y,z
-x,y,1/2-z
-x,-y,-z
x,-y,1/2+z
1/2+x,1/2+y,z
1/2-x,1/2+y,1/2-z
1/2-x,1/2-y,-z
1/2+x,1/2-y,1/2+z
loop_
_atom_site_type_symbol
_atom_site_label
_atom_site_fract_x
_atom_site_fract_y
_atom_site_fract_z
Si Si1 0.583804 0.969309 0.616404
Si Si2 0.007492 0.211874 0.983696
Si Si3 0.855396 0.073519 0.594336
Si Si4 0.623816 0.464434 0.124006
Si Si5 0.347803 0.317726 0.089044
Si Si6 0.912415 0.887398 0.778475
Si Si7 0.341282 0.798390 0.817852
Si Si8 0.244623 0.124557 0.607577
O O1 0.390024 0.940991 0.536439
O O2 0.770217 0.933151 0.705802
O O3 0.500000 0.000000 0.500000
O O4 0.674488 0.007047 0.724943
O O5 0.092282 0.203682 0.952602
O O6 0.859791 0.257060 0.886384
O O7 0.864409 0.168650 0.921378
O O8 0.199436 0.214820 0.160420
O O9 0.875335 0.127850 0.598381
O O10 0.000000 0.059144 0.750000
O O11 0.958952 0.049897 0.587761
O O12 0.701626 0.419139 0.131408
O O13 0.500000 0.500000 0.000000
O O14 0.500000 0.303134 0.250000
O O15 0.093315 0.308522 0.950405
O O16 0.765765 0.843402 0.711474
O O17 0.000000 0.885325 0.750000
O O18 0.117222 0.885497 0.956334
O O19 0.500000 0.131643 0.750000
#
# Coordination Sequence:
#
# PCOD9302890 Si02
#       8
#     8   8   8   8   8   8   8   8
#     4  12  26  42  70  98 135 180 222 274 324 389
#     4  11  24  45  69  99 134 171 219 270 331 400
#     4  11  24  43  66 100 136 176 222 270 325 389
#     4  12  26  44  66 100 136 172 228 270 328 387
#     4  11  22  40  69 101 136 174 218 268 330 389
#     4  11  27  47  68  98 134 173 224 272 331 396
#     4  11  24  45  69  99 133 173 218 271 333 394
#     4  11  27  47  68  98 134 174 219 278 330 390
#
# _framework density 19.294635
#
# number of rings (size 3 to 8) (size 9 to 14) (size 15 to 20)
#    0.000    0.750    5.000    1.500    5.250    2.500 
#    2.250    2.500    0.000    0.000    0.000    0.000 
#    0.000    0.000    0.000    0.000    0.000    0.000 
#
# Total GULP energy -178863.712291 kJ/mol
# GULP energy per Si atom -5589.491009 kJ/mol
# Density = 1.925072 g / cm^3
# Si number density = 19.294635 Si / 1000 Ang^3
#
#
#
# Elastic Constant Matrix: (Units=GPa)
#
#
# Indices 1 2 3 4 5 6 
#
# 1 109.6348 38.1445 57.5666 0.0005 -3.1203 0.0007
# 2 38.1445 112.2547 55.3989 0.0007 -10.3793 0.0021
# 3 57.5666 55.3989 153.7838 -0.0032 -4.3408 -0.0167
# 4 0.0005 0.0007 -0.0032 40.6905 -0.0014 5.5975
# 5 -3.1203 -10.3793 -4.3408 -0.0014 33.8996 -0.0078
# 6 0.0007 0.0021 -0.0167 5.5975 -0.0078 72.6907
#
#
#
# Elastic Compliance Matrix: (Units=1/GPa)
#
#
# Indices 1 2 3 4 5 6 
#
# 1 0.011792 -0.002230 -0.003613 0.000000 -0.000060 -0.000001
# 2 -0.002230 0.011533 -0.003238 0.000000 0.002911 -0.000001
# 3 -0.003613 -0.003238 0.009017 0.000001 -0.000169 0.000002
# 4 0.000000 0.000000 0.000001 0.024839 0.000001 -0.001913
# 5 -0.000060 0.002911 -0.000169 0.000001 0.030363 0.000003
# 6 -0.000001 -0.000001 0.000002 -0.001913 0.000003 0.013904
#
#
# Mechanical properties :
#
#
# Convention : Reuss Voigt Hill
#
# Bulk Modulus (GPa) = 70.51463 75.32149 72.91806
# Shear Modulus (GPa) = 40.21376 44.42705 42.32040
#
# Velocity S-wave (km/s) = 4.57025 4.80371 4.68843
# Velocity P-wave (km/s) = 8.02964 8.36001 8.19649
#
# Compressibility (1/GPa) = 0.01418145
#
# Stress axis : x y z
#
# Youngs Moduli (GPa) = 84.80201 86.70727 110.90644
#
# Poissons Ratio (x) = 0.19333 0.40067
# Poissons Ratio (y) = 0.18908 0.35910
# Poissons Ratio (z) = 0.30636 0.28074
#
# Static dielectric constant tensor:
#      x y z
#    x 1.887710 -0.000010 -0.224680 
#    y -0.000010 1.667560 0.000010 
#    z -0.224680 0.000010 1.843510 
# 
# From -- ./inp_files/201485.got.cif
#   From: 2010.05.17/outbox.cif.g08.bks.cpg/sg15_101_cif.got.tgz:201485.got - 2010.06.03 18:47:42.
