data_PCOD9302461
_publ_section_title
;
Structure prediction by ZEFSAII (Michael W. Deem and Ramdas Pophale) SiO2 
 PCOD9302461
Probable space group: C 2/C
;
_chemical_formula_sum "Si O2"
_cell_formula_units_Z 56
_cell_length_a 18.214589
_cell_length_b 9.007070
_cell_length_c 13.937755
_cell_angle_alpha 90.000000
_cell_angle_beta 67.805842
_cell_angle_gamma 90.000000
_cell_volume 2117.210773
_symmetry_space_group_name_H-M "C 2/C"
_symmetry_group_IT_number 15
_symmetry_cell_setting 'monoclinic'
loop_
_space_group_symop_operation_xyz
x,y,z
-x,y,1/2-z
-x,-y,-z
x,-y,1/2+z
1/2+x,1/2+y,z
1/2-x,1/2+y,1/2-z
1/2-x,1/2-y,-z
1/2+x,1/2-y,1/2+z
loop_
_atom_site_type_symbol
_atom_site_label
_atom_site_fract_x
_atom_site_fract_y
_atom_site_fract_z
Si Si1 0.412072 0.582891 0.320963
Si Si2 0.601123 0.277347 0.271916
Si Si3 0.696888 0.223318 0.932506
Si Si4 0.677891 0.819346 0.241080
Si Si5 0.981854 0.502991 0.620867
Si Si6 0.904619 0.026297 0.538937
Si Si7 0.645875 0.982303 0.607470
O O1 0.500000 0.636177 0.250000
O O2 0.412894 0.409255 0.295806
O O3 0.348092 0.660643 0.284995
O O4 0.393046 0.602337 0.441496
O O5 0.530156 0.168981 0.342556
O O6 0.620786 0.366782 0.360956
O O7 0.644081 0.153800 0.183791
O O8 0.730344 0.187847 0.810255
O O9 0.750000 0.250000 0.000000
O O10 0.639817 0.365726 0.943855
O O11 0.659731 0.072239 0.993196
O O12 0.597352 0.902522 0.318241
O O13 0.704926 0.907230 0.132867
O O14 0.000000 0.500000 0.500000
O O15 0.059229 0.555976 0.640579
O O16 0.000000 0.000000 0.500000
#
# Coordination Sequence:
#
# PCOD9302461 Si02
#       7
#     8   8   8   8   8   8   8
#     4  12  21  35  63 103 137 166 222 283 348 404
#     4  11  22  37  62  95 134 174 218 276 349 402
#     4  12  26  48  68  97 141 186 226 284 353 422
#     4  11  24  40  64 101 129 177 230 277 341 417
#     4  11  22  36  66  97 141 173 221 281 351 400
#     4  12  24  38  69 101 135 174 228 293 346 410
#     4  11  23  43  65  95 136 179 221 281 344 410
#
# _framework density 26.449895000000001
#
# number of rings (size 3 to 8) (size 9 to 14) (size 15 to 20)
#    0.000    0.571    5.714    4.286    4.000    0.000 
#    5.143    0.000    0.000    4.286    0.000    0.000 
#    0.000    0.000    0.000    0.000    0.000    0.000 
#
# Total GULP energy -156492.662007 kJ/mol
# GULP energy per Si atom -5589.023643 kJ/mol
# Density = 2.638969 g / cm^3
# Si number density = 26.449895 Si / 1000 Ang^3
#
#
#
# Elastic Constant Matrix: (Units=GPa)
#
#
# Indices 1 2 3 4 5 6 
#
# 1 57.0345 11.2292 23.0593 0.0000 27.6574 0.0000
# 2 11.2292 116.1988 21.6142 0.0000 6.3980 0.0000
# 3 23.0593 21.6142 195.5639 0.0000 22.4439 0.0000
# 4 0.0000 0.0000 0.0000 53.8428 0.0000 13.4139
# 5 27.6574 6.3980 22.4439 0.0000 48.9926 0.0000
# 6 0.0000 0.0000 0.0000 13.4139 0.0000 29.1672
#
#
#
# Elastic Compliance Matrix: (Units=1/GPa)
#
#
# Indices 1 2 3 4 5 6 
#
# 1 0.024717 -0.001431 -0.001242 0.000000 -0.013197 0.000000
# 2 -0.001431 0.008895 -0.000817 0.000000 0.000020 0.000000
# 3 -0.001242 -0.000817 0.005549 0.000000 -0.001735 0.000000
# 4 0.000000 0.000000 0.000000 0.020976 0.000000 -0.009647
# 5 -0.013197 0.000020 -0.001735 0.000000 0.028653 0.000000
# 6 0.000000 0.000000 0.000000 -0.009647 0.000000 0.038722
#
#
# Mechanical properties :
#
#
# Convention : Reuss Voigt Hill
#
# Bulk Modulus (GPa) = 31.07298 53.40030 42.23664
# Shear Modulus (GPa) = 34.43102 47.26014 40.84558
#
# Velocity S-wave (km/s) = 3.61188 4.23162 3.93397
# Velocity P-wave (km/s) = 5.40071 6.64142 6.05294
#
# Compressibility (1/GPa) = 0.03218230
#
# Stress axis : x y z
#
# Youngs Moduli (GPa) = 40.45841 112.42242 180.20777
#
# Poissons Ratio (x) = 0.16087 0.22375
# Poissons Ratio (y) = 0.05789 0.14718
# Poissons Ratio (z) = 0.05023 0.09182
#
# Static dielectric constant tensor:
#      x y z
#    x 2.069230 0.000000 -0.011570 
#    y 0.000000 2.295000 0.000000 
#    z -0.011570 0.000000 2.042140 
# 
# From -- ./inp_files/166686.got.cif
#   From: 2010.05.17/outbox.cif.g08.bks.cpg/sg15_84_cif.got.tgz:166686.got - 2010.06.03 18:47:42.
