data_PCOD9302011
_publ_section_title
;
Structure prediction by ZEFSAII (Michael W. Deem and Ramdas Pophale) SiO2 
 PCOD9302011
Probable space group: C 2/C
;
_chemical_formula_sum "Si O2"
_cell_formula_units_Z 36
_cell_length_a 7.420089
_cell_length_b 16.672278
_cell_length_c 17.606233
_cell_angle_alpha 90.000000
_cell_angle_beta 56.042672
_cell_angle_gamma 90.000000
_cell_volume 1806.602927
_symmetry_space_group_name_H-M "C 2/C"
_symmetry_group_IT_number 15
_symmetry_cell_setting 'monoclinic'
loop_
_space_group_symop_operation_xyz
x,y,z
-x,y,1/2-z
-x,-y,-z
x,-y,1/2+z
1/2+x,1/2+y,z
1/2-x,1/2+y,1/2-z
1/2-x,1/2-y,-z
1/2+x,1/2-y,1/2+z
loop_
_atom_site_type_symbol
_atom_site_label
_atom_site_fract_x
_atom_site_fract_y
_atom_site_fract_z
Si Si1 0.835318 0.388628 0.855408
Si Si2 0.138436 0.442581 0.913537
Si Si3 0.869440 0.833840 0.981428
Si Si4 0.000000 0.951337 0.250000
Si Si5 0.253998 0.075251 0.834890
O O1 0.629009 0.331949 0.912984
O O2 0.751509 0.479743 0.856022
O O3 0.000000 0.365043 0.750000
O O4 0.973089 0.394384 0.899737
O O5 0.283705 0.388232 0.932912
O O6 0.296161 0.494437 0.823080
O O7 0.000000 0.500000 0.000000
O O8 0.750000 0.750000 0.000000
O O9 0.807483 0.875901 0.075572
O O10 0.087709 0.907593 0.304860
O O11 0.500000 0.092895 0.750000
#
# Coordination Sequence:
#
# PCOD9302011 Si02
#       5
#     8   8   8   4   8
#     4  11  21  41  70  95 124 171 232 269 313 389
#     4  12  21  37  69  95 126 170 225 268 316 385
#     4  12  26  43  65  99 141 174 208 271 343 396
#     4  12  20  36  72 102 120 170 232 280 318 368
#     4  11  21  41  66 103 127 169 229 278 315 385
#
# _framework density 19.926901999999998
#
# number of rings (size 3 to 8) (size 9 to 14) (size 15 to 20)
#    0.000    0.444    8.889    2.000    0.000    0.889 
#    6.000    0.000    2.444    0.000    0.000    0.000 
#    0.000    0.000    0.000    0.000    0.000    0.000 
#
# Total GULP energy -100678.491256 kJ/mol
# GULP energy per Si atom -5593.249514 kJ/mol
# Density = 1.988155 g / cm^3
# Si number density = 19.926902 Si / 1000 Ang^3
#
#
#
# Elastic Constant Matrix: (Units=GPa)
#
#
# Indices 1 2 3 4 5 6 
#
# 1 175.9147 21.7083 56.5082 0.0000 12.6243 0.0000
# 2 21.7083 29.0183 46.1788 0.0000 -10.8465 0.0000
# 3 56.5082 46.1788 134.1999 0.0000 -8.1865 0.0000
# 4 0.0000 0.0000 0.0000 -4.9625 0.0000 -0.8905
# 5 12.6243 -10.8465 -8.1865 0.0000 55.1709 0.0000
# 6 0.0000 0.0000 0.0000 -0.8905 0.0000 21.2140
#
#
#
# Elastic Compliance Matrix: (Units=1/GPa)
#
#
# Indices 1 2 3 4 5 6 
#
# 1 0.006868 -0.002658 -0.002124 0.000000 -0.002409 0.000000
# 2 -0.002658 0.084720 -0.027227 0.000000 0.013224 0.000000
# 3 -0.002124 -0.027227 0.017577 0.000000 -0.002258 0.000000
# 4 0.000000 0.000000 0.000000 -0.200005 0.000000 -0.008395
# 5 -0.002409 0.013224 -0.002258 0.000000 0.020941 0.000000
# 6 0.000000 0.000000 0.000000 -0.008395 0.000000 0.046786
#
#
# Mechanical properties :
#
#
# Convention : Reuss Voigt Hill
#
# Bulk Modulus (GPa) = 22.14965 65.32481 43.73723
# Shear Modulus (GPa) = 89.35888 28.60034 58.97961
#
# Velocity S-wave (km/s) = 6.70378 3.79260 5.44630
# Velocity P-wave (km/s) = 8.42974 7.21330 7.84513
#
# Compressibility (1/GPa) = 0.04514745
#
# Stress axis : x y z
#
# Youngs Moduli (GPa) = 145.60671 11.80358 56.89206
#
# Poissons Ratio (x) = 0.03137 0.12086
# Poissons Ratio (y) = 0.38698 1.54899
# Poissons Ratio (z) = 0.30931 0.32137
#
# Static dielectric constant tensor:
#      x y z
#    x 1.715580 0.000000 0.005970 
#    y 0.000000 1.703580 0.000000 
#    z 0.005970 0.000000 1.689050 
# 
# From -- ./inp_files/188666.got.cif
#   From: 2010.05.17/outbox.cif.g08.bks.cpg/sg15_95_cif.got.tgz:188666.got - 2010.06.03 18:47:42.
