data_PCOD9302294
_publ_section_title
;
Structure prediction by ZEFSAII (Michael W. Deem and Ramdas Pophale) SiO2 
 PCOD9302294
Probable space group: C 2/C
;
_chemical_formula_sum "Si O2"
_cell_formula_units_Z 48
_cell_length_a 12.581121
_cell_length_b 9.376432
_cell_length_c 17.181259
_cell_angle_alpha 90.000000
_cell_angle_beta 64.844601
_cell_angle_gamma 90.000000
_cell_volume 1834.579058
_symmetry_space_group_name_H-M "C 2/C"
_symmetry_group_IT_number 15
_symmetry_cell_setting 'monoclinic'
loop_
_space_group_symop_operation_xyz
x,y,z
-x,y,1/2-z
-x,-y,-z
x,-y,1/2+z
1/2+x,1/2+y,z
1/2-x,1/2+y,1/2-z
1/2-x,1/2-y,-z
1/2+x,1/2-y,1/2+z
loop_
_atom_site_type_symbol
_atom_site_label
_atom_site_fract_x
_atom_site_fract_y
_atom_site_fract_z
Si Si1 0.597870 0.468859 0.612648
Si Si2 0.273277 0.637938 0.580873
Si Si3 0.861379 0.858616 0.645457
Si Si4 0.521317 0.019111 0.654450
Si Si5 0.789213 0.589442 0.171504
Si Si6 0.111726 0.743073 0.028216
O O1 0.674844 0.395411 0.520158
O O2 0.478060 0.383439 0.659318
O O3 0.680698 0.484630 0.661170
O O4 0.561123 0.622066 0.589966
O O5 0.316819 0.505065 0.619054
O O6 0.130301 0.630379 0.625381
O O7 0.323963 0.783811 0.601147
O O8 0.757612 0.826719 0.737822
O O9 0.900907 0.764517 0.559646
O O10 0.500000 0.971459 0.750000
O O11 0.387347 0.025318 0.664651
O O12 0.569816 0.900661 0.580268
O O13 0.250000 0.750000 0.000000
#
# Coordination Sequence:
#
# PCOD9302294 Si02
#       6
#     8   8   8   8   8   8
#     4  11  24  44  70 103 137 188 243 290 365 435
#     4  11  24  48  69 102 149 184 238 307 356 433
#     4  11  23  45  68 101 141 185 244 298 353 437
#     4  12  24  47  70 104 147 185 241 305 359 433
#     4  12  26  44  71 107 144 192 235 296 377 430
#     4  11  21  44  73  99 133 187 240 290 358 435
#
# _framework density 26.164038999999999
#
# number of rings (size 3 to 8) (size 9 to 14) (size 15 to 20)
#    0.000    0.667    5.000    5.000    0.000    6.000 
#    3.000    0.000    0.000    0.000    0.000    0.000 
#    0.000    0.000    0.000    0.000    0.000    0.000 
#
# Total GULP energy -134376.395463 kJ/mol
# GULP energy per Si atom -5599.016478 kJ/mol
# Density = 2.610449 g / cm^3
# Si number density = 26.164039 Si / 1000 Ang^3
#
#
#
# Elastic Constant Matrix: (Units=GPa)
#
#
# Indices 1 2 3 4 5 6 
#
# 1 189.6196 11.2735 36.1773 0.0000 11.0423 0.0000
# 2 11.2735 50.3072 5.9838 0.0000 14.5461 0.0000
# 3 36.1773 5.9838 83.6023 0.0000 7.7636 0.0000
# 4 0.0000 0.0000 0.0000 34.8166 0.0000 4.6930
# 5 11.0423 14.5461 7.7636 0.0000 45.5812 0.0000
# 6 0.0000 0.0000 0.0000 4.6930 0.0000 29.8887
#
#
#
# Elastic Compliance Matrix: (Units=1/GPa)
#
#
# Indices 1 2 3 4 5 6 
#
# 1 0.005821 -0.000804 -0.002392 0.000000 -0.000746 0.000000
# 2 -0.000804 0.022081 -0.000606 0.000000 -0.006749 0.000000
# 3 -0.002392 -0.000606 0.013177 0.000000 -0.001471 0.000000
# 4 0.000000 0.000000 0.000000 0.029343 0.000000 -0.004607
# 5 -0.000746 -0.006749 -0.001471 0.000000 0.024524 0.000000
# 6 0.000000 0.000000 0.000000 -0.004607 0.000000 0.034181
#
#
# Mechanical properties :
#
#
# Convention : Reuss Voigt Hill
#
# Bulk Modulus (GPa) = 29.87303 47.82204 38.84753
# Shear Modulus (GPa) = 33.80891 40.06361 36.93626
#
# Velocity S-wave (km/s) = 3.59860 3.91736 3.76136
# Velocity P-wave (km/s) = 5.35808 6.22723 5.80893
#
# Compressibility (1/GPa) = 0.03347502
#
# Stress axis : x y z
#
# Youngs Moduli (GPa) = 171.78006 45.28681 75.89212
#
# Poissons Ratio (x) = 0.03642 0.18155
# Poissons Ratio (y) = 0.13815 0.04597
# Poissons Ratio (z) = 0.41094 0.02743
#
# Static dielectric constant tensor:
#      x y z
#    x 2.082950 0.000000 -0.045800 
#    y 0.000000 2.111280 0.000000 
#    z -0.045800 0.000000 2.058680 
# 
# From -- ./inp_files/196466.got.cif
#   From: 2010.05.17/outbox.cif.g08.bks.cpg/sg15_99_cif.got.tgz:196466.got - 2010.06.03 18:47:42.
