data_PCOD9302430
_publ_section_title
;
Structure prediction by ZEFSAII (Michael W. Deem and Ramdas Pophale) SiO2 
 PCOD9302430
Probable space group: C 2/C
;
_chemical_formula_sum "Si O2"
_cell_formula_units_Z 32
_cell_length_a 18.387084
_cell_length_b 4.887828
_cell_length_c 13.439191
_cell_angle_alpha 90.000000
_cell_angle_beta 100.699940
_cell_angle_gamma 90.000000
_cell_volume 1186.818761
_symmetry_space_group_name_H-M "C 2/C"
_symmetry_group_IT_number 15
_symmetry_cell_setting 'monoclinic'
loop_
_space_group_symop_operation_xyz
x,y,z
-x,y,1/2-z
-x,-y,-z
x,-y,1/2+z
1/2+x,1/2+y,z
1/2-x,1/2+y,1/2-z
1/2-x,1/2-y,-z
1/2+x,1/2-y,1/2+z
loop_
_atom_site_type_symbol
_atom_site_label
_atom_site_fract_x
_atom_site_fract_y
_atom_site_fract_z
Si Si1 0.810992 0.487439 0.412778
Si Si2 0.275115 0.992562 0.141325
Si Si3 0.561965 0.312164 0.465714
Si Si4 0.428743 0.201713 0.669300
O O1 0.794395 0.787700 0.369534
O O2 0.793309 0.498674 0.526891
O O3 0.888465 0.331079 0.437432
O O4 0.752140 0.294812 0.343485
O O5 0.354487 0.904844 0.205183
O O6 0.500000 0.500000 0.500000
O O7 0.457385 0.944822 0.609827
O O8 0.599047 0.540904 0.403902
O O9 0.500000 0.293016 0.750000
#
# Coordination Sequence:
#
# PCOD9302430 Si02
#       4
#     8   8   8   8
#     4   9  16  29  51  78 104 135 183 232 264 306
#     4   9  16  29  51  78 104 135 183 232 264 306
#     4  11  22  36  56  83 114 147 184 231 284 337
#     4  11  22  36  56  83 114 147 184 231 285 339
#
# _framework density 26.962838000000001
#
# number of rings (size 3 to 8) (size 9 to 14) (size 15 to 20)
#    0.000    2.000    0.000    9.000    0.000    0.000 
#    0.000    0.000    0.000    6.000    0.000    0.000 
#    0.000    0.000    0.000    0.000    0.000    0.000 
#
# Total GULP energy -89483.704102 kJ/mol
# GULP energy per Si atom -5592.731506 kJ/mol
# Density = 2.690147 g / cm^3
# Si number density = 26.962838 Si / 1000 Ang^3
#
#
#
# Elastic Constant Matrix: (Units=GPa)
#
#
# Indices 1 2 3 4 5 6 
#
# 1 148.8882 36.2937 23.7810 0.0000 15.2859 0.0000
# 2 36.2937 154.8538 5.6750 0.0000 2.4189 0.0000
# 3 23.7810 5.6750 99.6607 0.0000 20.7326 0.0000
# 4 0.0000 0.0000 0.0000 11.4364 0.0000 0.3339
# 5 15.2859 2.4189 20.7326 0.0000 37.6917 0.0000
# 6 0.0000 0.0000 0.0000 0.3339 0.0000 68.3882
#
#
#
# Elastic Compliance Matrix: (Units=1/GPa)
#
#
# Indices 1 2 3 4 5 6 
#
# 1 0.007560 -0.001691 -0.001234 0.000000 -0.002279 0.000000
# 2 -0.001691 0.006851 -0.000043 0.000000 0.000270 0.000000
# 3 -0.001234 -0.000043 0.011548 0.000000 -0.005849 0.000000
# 4 0.000000 0.000000 0.000000 0.087453 0.000000 -0.000427
# 5 -0.002279 0.000270 -0.005849 0.000000 0.030655 0.000000
# 6 0.000000 0.000000 0.000000 -0.000427 0.000000 0.014624
#
#
# Mechanical properties :
#
#
# Convention : Reuss Voigt Hill
#
# Bulk Modulus (GPa) = 49.93979 59.43357 54.68668
# Shear Modulus (GPa) = 29.18853 46.01346 37.60100
#
# Velocity S-wave (km/s) = 3.29378 4.13552 3.73842
# Velocity P-wave (km/s) = 5.74693 6.70030 6.24184
#
# Compressibility (1/GPa) = 0.02002411
#
# Stress axis : x y z
#
# Youngs Moduli (GPa) = 132.28161 145.95605 86.59839
#
# Poissons Ratio (x) = 0.24681 0.10682
# Poissons Ratio (y) = 0.22369 0.00370
# Poissons Ratio (z) = 0.16317 0.00624
#
# Static dielectric constant tensor:
#      x y z
#    x 2.255500 0.000000 -0.043420 
#    y 0.000000 2.013830 0.000000 
#    z -0.043420 0.000000 2.284340 
# 
# From -- ./inp_files/158045.got.cif
#   From: 2010.05.17/outbox.cif.g08.bks.cpg/sg15_80_cif.got.tgz:158045.got - 2010.06.03 18:47:42.
