data_PCOD9302964
_publ_section_title
;
Structure prediction by ZEFSAII (Michael W. Deem and Ramdas Pophale) SiO2 
 PCOD9302964
Probable space group: C 2/C
;
_chemical_formula_sum "Si O2"
_cell_formula_units_Z 40
_cell_length_a 16.389844
_cell_length_b 13.881016
_cell_length_c 15.352511
_cell_angle_alpha 90.000000
_cell_angle_beta 150.880737
_cell_angle_gamma 90.000000
_cell_volume 1699.705123
_symmetry_space_group_name_H-M "C 2/C"
_symmetry_group_IT_number 15
_symmetry_cell_setting 'monoclinic'
loop_
_space_group_symop_operation_xyz
x,y,z
-x,y,1/2-z
-x,-y,-z
x,-y,1/2+z
1/2+x,1/2+y,z
1/2-x,1/2+y,1/2-z
1/2-x,1/2-y,-z
1/2+x,1/2-y,1/2+z
loop_
_atom_site_type_symbol
_atom_site_label
_atom_site_fract_x
_atom_site_fract_y
_atom_site_fract_z
Si Si1 0.198793 0.557288 0.425515
Si Si2 0.296425 0.362565 0.556064
Si Si3 0.314951 0.301727 0.890693
Si Si4 0.833126 0.890860 0.237493
Si Si5 0.343351 0.934676 0.890376
O O1 0.253785 0.449082 0.447660
O O2 0.225806 0.648660 0.389406
O O3 0.310787 0.581201 0.615272
O O4 0.000000 0.552392 0.250000
O O5 0.500000 0.365166 0.750000
O O6 0.250000 0.250000 0.500000
O O7 0.182484 0.399768 0.533065
O O8 0.312075 0.187478 0.884887
O O9 0.208358 0.342168 0.711631
O O10 0.500687 0.340649 0.075645
O O11 0.805643 0.988838 0.262224
O O12 0.500000 0.000000 0.000000
#
# Coordination Sequence:
#
# PCOD9302964 Si02
#       5
#     8   8   8   8   8
#     4  11  22  41  65  94 131 176 227 285 347 420
#     4  11  25  45  69 102 142 191 238 287 355 438
#     4  12  23  40  66  93 130 176 223 287 347 414
#     4  11  24  41  61  94 129 172 224 279 351 423
#     4  11  25  45  68 101 139 181 236 298 355 417
#
# _framework density 23.533494999999998
#
# number of rings (size 3 to 8) (size 9 to 14) (size 15 to 20)
#    0.000    0.800    0.000    9.600    0.000    4.800 
#    0.000    0.000    0.000    0.000    0.000    0.000 
#    0.000    0.000    0.000    0.000    0.000    0.000 
#
# Total GULP energy -111444.882716 kJ/mol
# GULP energy per Si atom -5572.244136 kJ/mol
# Density = 2.347993 g / cm^3
# Si number density = 23.533495 Si / 1000 Ang^3
#
#
#
# Elastic Constant Matrix: (Units=GPa)
#
#
# Indices 1 2 3 4 5 6 
#
# 1 56.8131 7.2332 14.0312 -0.0001 0.5015 -0.0003
# 2 7.2332 138.7796 -5.2076 -0.0005 5.8417 -0.0002
# 3 14.0312 -5.2076 76.6005 -0.0005 30.8967 -0.0004
# 4 -0.0001 -0.0005 -0.0005 -1.2284 -0.0002 27.0296
# 5 0.5015 5.8417 30.8967 -0.0002 37.2005 -0.0003
# 6 -0.0003 -0.0002 -0.0004 27.0296 -0.0003 12.4468
#
#
#
# Elastic Compliance Matrix: (Units=1/GPa)
#
#
# Indices 1 2 3 4 5 6 
#
# 1 0.019064 -0.001381 -0.005368 0.000000 0.004418 0.000000
# 2 -0.001381 0.007460 0.001842 0.000000 -0.002683 0.000000
# 3 -0.005368 0.001842 0.021430 0.000000 -0.018015 0.000000
# 4 0.000000 0.000000 0.000000 -0.016687 0.000000 0.036238
# 5 0.004418 -0.002683 -0.018015 0.000000 0.042206 0.000000
# 6 0.000000 0.000000 0.000000 0.036238 0.000000 0.001647
#
#
# Mechanical properties :
#
#
# Convention : Reuss Voigt Hill
#
# Bulk Modulus (GPa) = 26.21930 33.81187 30.01559
# Shear Modulus (GPa) = 51.20549 26.75953 38.98251
#
# Velocity S-wave (km/s) = 4.66967 3.37572 4.07439
# Velocity P-wave (km/s) = 6.34349 5.43992 5.90900
#
# Compressibility (1/GPa) = 0.03813985
#
# Stress axis : x y z
#
# Youngs Moduli (GPa) = 52.45443 134.05352 46.66427
#
# Poissons Ratio (x) = 0.18513 0.25050
# Poissons Ratio (y) = 0.07244 -0.08597
# Poissons Ratio (z) = 0.28158 -0.24696
#
# Static dielectric constant tensor:
#      x y z
#    x 2.130460 0.000000 0.004080 
#    y 0.000000 1.844570 0.000000 
#    z 0.004080 0.000000 1.871580 
# 
# From -- ./inp_files/210828.got.cif
#   From: 2010.05.17/outbox.cif.g08.bks.cpg/sg15_106_cif.got.tgz:210828.got - 2010.06.03 18:47:42.
