data_PCOD9302785
_publ_section_title
;
Structure prediction by ZEFSAII (Michael W. Deem and Ramdas Pophale) SiO2 
 PCOD9302785
Probable space group: C 2/C
;
_chemical_formula_sum "Si O2"
_cell_formula_units_Z 52
_cell_length_a 16.751909
_cell_length_b 17.405770
_cell_length_c 8.473474
_cell_angle_alpha 90.000000
_cell_angle_beta 65.219017
_cell_angle_gamma 90.000000
_cell_volume 2243.184662
_symmetry_space_group_name_H-M "C 2/C"
_symmetry_group_IT_number 15
_symmetry_cell_setting 'monoclinic'
loop_
_space_group_symop_operation_xyz
x,y,z
-x,y,1/2-z
-x,-y,-z
x,-y,1/2+z
1/2+x,1/2+y,z
1/2-x,1/2+y,1/2-z
1/2-x,1/2-y,-z
1/2+x,1/2-y,1/2+z
loop_
_atom_site_type_symbol
_atom_site_label
_atom_site_fract_x
_atom_site_fract_y
_atom_site_fract_z
Si Si1 0.500000 0.356843 0.750000
Si Si2 0.960806 0.848302 0.117628
Si Si3 0.642529 0.069491 0.826077
Si Si4 0.674722 0.096050 0.428009
Si Si5 0.816839 0.790162 0.825753
Si Si6 0.488853 0.828178 0.574838
Si Si7 0.743670 0.314750 0.137338
O O1 0.513955 0.394025 0.563995
O O2 0.411807 0.306782 0.812239
O O3 0.004314 0.763575 0.058485
O O4 0.856433 0.831852 0.227605
O O5 0.000000 0.879820 0.250000
O O6 0.669444 0.083159 0.621148
O O7 0.709712 0.102972 0.904131
O O8 0.644599 0.979592 0.861128
O O9 0.550665 0.112859 0.929590
O O10 0.771524 0.129757 0.311797
O O11 0.607668 0.159906 0.417834
O O12 0.811881 0.726283 0.698654
O O13 0.750000 0.750000 0.000000
O O14 0.500000 0.849203 0.750000
O O15 0.750000 0.250000 0.000000
#
# Coordination Sequence:
#
# PCOD9302785 Si02
#       7
#     4   8   8   8   8   8   8
#     4  12  22  40  68  96 132 170 234 284 348 394
#     4  11  23  39  65 102 135 173 226 286 339 409
#     4  12  26  40  66  95 135 182 217 282 339 414
#     4  12  25  43  63  95 139 176 228 270 349 409
#     4  12  23  44  70  97 129 178 228 287 333 412
#     4  11  22  40  62  94 135 176 220 272 339 413
#     4  12  24  43  68 100 136 174 230 284 347 401
#
# _framework density 23.181328000000001
#
# number of rings (size 3 to 8) (size 9 to 14) (size 15 to 20)
#    0.000    0.308    4.615    5.538    4.308    0.000 
#    0.000    0.000    1.692    1.846    0.000    0.000 
#    0.000    0.000    0.000    0.000    0.000    0.000 
#
# Total GULP energy -145074.418800 kJ/mol
# GULP energy per Si atom -5579.785338 kJ/mol
# Density = 2.312857 g / cm^3
# Si number density = 23.181328 Si / 1000 Ang^3
#
#
#
# Elastic Constant Matrix: (Units=GPa)
#
#
# Indices 1 2 3 4 5 6 
#
# 1 136.4402 -12.1892 18.6507 0.0000 -11.8221 0.0000
# 2 -12.1892 22.7041 -2.1505 0.0000 6.6919 0.0000
# 3 18.6507 -2.1505 74.7158 0.0000 14.4163 0.0000
# 4 0.0000 0.0000 0.0000 18.4742 0.0000 5.2447
# 5 -11.8221 6.6919 14.4163 0.0000 43.5911 0.0000
# 6 0.0000 0.0000 0.0000 5.2447 0.0000 24.3627
#
#
#
# Elastic Compliance Matrix: (Units=1/GPa)
#
#
# Indices 1 2 3 4 5 6 
#
# 1 0.008183 0.003428 -0.002425 0.000000 0.002495 0.000000
# 2 0.003428 0.048155 0.001898 0.000000 -0.007091 0.000000
# 3 -0.002425 0.001898 0.015197 0.000000 -0.005975 0.000000
# 4 0.000000 0.000000 0.000000 0.057653 0.000000 -0.012411
# 5 0.002495 -0.007091 -0.005975 0.000000 0.026682 0.000000
# 6 0.000000 0.000000 0.000000 -0.012411 0.000000 0.043718
#
#
# Mechanical properties :
#
#
# Convention : Reuss Voigt Hill
#
# Bulk Modulus (GPa) = 12.93032 26.94247 19.93640
# Shear Modulus (GPa) = 22.77224 32.58888 27.68056
#
# Velocity S-wave (km/s) = 3.13765 3.75350 3.45931
# Velocity P-wave (km/s) = 4.32626 5.51659 4.95728
#
# Compressibility (1/GPa) = 0.07733758
#
# Stress axis : x y z
#
# Youngs Moduli (GPa) = 122.20106 20.76620 65.80231
#
# Poissons Ratio (x) = -0.07119 0.15960
# Poissons Ratio (y) = -0.41892 -0.12492
# Poissons Ratio (z) = 0.29640 -0.03942
#
# Static dielectric constant tensor:
#      x y z
#    x 1.595830 0.000000 0.123650 
#    y 0.000000 1.850050 0.000000 
#    z 0.123650 0.000000 1.811860 
# 
# From -- ./inp_files/48448.got.cif
#   From: 2010.05.17/outbox.cif.g08.bks.cpg/sg15_25_cif.got.tgz:48448.got - 2010.06.03 18:47:42.
