data_PCOD9302648
_publ_section_title
;
Structure prediction by ZEFSAII (Michael W. Deem and Ramdas Pophale) SiO2 
 PCOD9302648
Probable space group: C 2/C
;
_chemical_formula_sum "Si O2"
_cell_formula_units_Z 64
_cell_length_a 18.865626
_cell_length_b 9.978622
_cell_length_c 14.886719
_cell_angle_alpha 90.000000
_cell_angle_beta 79.788238
_cell_angle_gamma 90.000000
_cell_volume 2758.075526
_symmetry_space_group_name_H-M "C 2/C"
_symmetry_group_IT_number 15
_symmetry_cell_setting 'monoclinic'
loop_
_space_group_symop_operation_xyz
x,y,z
-x,y,1/2-z
-x,-y,-z
x,-y,1/2+z
1/2+x,1/2+y,z
1/2-x,1/2+y,1/2-z
1/2-x,1/2-y,-z
1/2+x,1/2-y,1/2+z
loop_
_atom_site_type_symbol
_atom_site_label
_atom_site_fract_x
_atom_site_fract_y
_atom_site_fract_z
Si Si1 0.185059 0.066316 0.906060
Si Si2 0.652025 0.514348 0.215448
Si Si3 0.429246 0.447856 0.426020
Si Si4 0.661762 0.045107 0.166307
Si Si5 0.506011 0.710331 0.440834
Si Si6 0.918193 0.705065 0.736193
Si Si7 0.192224 0.369107 0.849920
Si Si8 0.421075 0.960948 0.483514
O O1 0.259745 0.984771 0.892393
O O2 0.201398 0.225095 0.896670
O O3 0.151154 0.034493 0.816946
O O4 0.130487 0.013702 0.993875
O O5 0.611108 0.417556 0.156465
O O6 0.611717 0.656513 0.219724
O O7 0.733851 0.547143 0.169215
O O8 0.487324 0.566577 0.402272
O O9 0.469405 0.325486 0.464597
O O10 0.634402 0.912090 0.224178
O O11 0.608317 0.049824 0.092528
O O12 0.669246 0.146123 0.249464
O O13 0.571881 0.774617 0.372352
O O14 0.437652 0.807589 0.448719
O O15 0.000000 0.677955 0.750000
O O16 0.134156 0.447622 0.922528
O O17 0.500000 0.000000 0.500000
#
# Coordination Sequence:
#
# PCOD9302648 Si02
#       8
#     8   8   8   8   8   8   8   8
#     4  11  23  42  67  91 128 166 211 268 317 377
#     4  11  23  40  65  95 125 169 210 261 324 373
#     4  11  22  39  62  94 129 157 208 267 317 370
#     4  11  25  42  65  93 124 167 215 261 311 381
#     4  11  23  37  61  94 125 162 206 259 313 378
#     4  12  20  38  65  89 122 167 211 257 309 377
#     4  11  25  43  64  96 128 167 217 260 319 385
#     4  12  25  43  66  94 129 172 212 258 322 384
#
# _framework density 23.204585999999999
#
# number of rings (size 3 to 8) (size 9 to 14) (size 15 to 20)
#    0.000    0.750    6.250    1.500    0.000    2.000 
#    0.000    0.000    0.000    6.000    0.000    0.000 
#    0.000    0.000    0.000    0.000    0.000    0.000 
#
# Total GULP energy -178916.216261 kJ/mol
# GULP energy per Si atom -5591.131758 kJ/mol
# Density = 2.315177 g / cm^3
# Si number density = 23.204586 Si / 1000 Ang^3
#
#
#
# Elastic Constant Matrix: (Units=GPa)
#
#
# Indices 1 2 3 4 5 6 
#
# 1 87.2452 -6.4811 32.7178 0.0000 -1.2513 0.0000
# 2 -6.4811 24.6083 -7.7145 0.0000 0.6723 0.0000
# 3 32.7178 -7.7145 70.6446 0.0000 12.1559 0.0000
# 4 0.0000 0.0000 0.0000 26.7874 0.0000 2.0184
# 5 -1.2513 0.6723 12.1559 0.0000 60.5779 0.0000
# 6 0.0000 0.0000 0.0000 2.0184 0.0000 25.9318
#
#
#
# Elastic Compliance Matrix: (Units=1/GPa)
#
#
# Indices 1 2 3 4 5 6 
#
# 1 0.014088 0.001589 -0.006627 0.000000 0.001603 0.000000
# 2 0.001589 0.042378 0.004109 0.000000 -0.001262 0.000000
# 3 -0.006627 0.004109 0.018338 0.000000 -0.003862 0.000000
# 4 0.000000 0.000000 0.000000 0.037551 0.000000 -0.002923
# 5 0.001603 -0.001262 -0.003862 0.000000 0.017330 0.000000
# 6 0.000000 0.000000 0.000000 -0.002923 0.000000 0.038790
#
#
# Mechanical properties :
#
#
# Convention : Reuss Voigt Hill
#
# Bulk Modulus (GPa) = 13.70881 24.39364 19.05123
# Shear Modulus (GPa) = 25.68734 33.59114 29.63924
#
# Velocity S-wave (km/s) = 3.33076 3.80887 3.57781
# Velocity P-wave (km/s) = 4.55111 5.46613 5.02947
#
# Compressibility (1/GPa) = 0.07294577
#
# Stress axis : x y z
#
# Youngs Moduli (GPa) = 70.98146 23.59724 54.53208
#
# Poissons Ratio (x) = -0.03750 0.36139
# Poissons Ratio (y) = -0.11280 -0.22407
# Poissons Ratio (z) = 0.47040 -0.09696
#
# Static dielectric constant tensor:
#      x y z
#    x 1.847790 0.000000 0.031520 
#    y 0.000000 1.927660 0.000000 
#    z 0.031520 0.000000 1.949720 
# 
# From -- ./inp_files/161342.got.cif
#   From: 2010.05.17/outbox.cif.g08.bks.cpg/sg15_81_cif.got.tgz:161342.got - 2010.06.03 18:47:42.
