data_PCOD9302867
_publ_section_title
;
Structure prediction by ZEFSAII (Michael W. Deem and Ramdas Pophale) SiO2 
 PCOD9302867
Probable space group: C 2/C
;
_chemical_formula_sum "Si O2"
_cell_formula_units_Z 40
_cell_length_a 9.213612
_cell_length_b 20.623421
_cell_length_c 17.029359
_cell_angle_alpha 90.000000
_cell_angle_beta 35.293099
_cell_angle_gamma 90.000000
_cell_volume 1869.544849
_symmetry_space_group_name_H-M "C 2/C"
_symmetry_group_IT_number 15
_symmetry_cell_setting 'monoclinic'
loop_
_space_group_symop_operation_xyz
x,y,z
-x,y,1/2-z
-x,-y,-z
x,-y,1/2+z
1/2+x,1/2+y,z
1/2-x,1/2+y,1/2-z
1/2-x,1/2-y,-z
1/2+x,1/2-y,1/2+z
loop_
_atom_site_type_symbol
_atom_site_label
_atom_site_fract_x
_atom_site_fract_y
_atom_site_fract_z
Si Si1 0.829847 0.138163 0.933353
Si Si2 0.000000 0.032080 0.750000
Si Si3 0.415840 0.055201 0.134735
Si Si4 0.756207 0.539378 0.914902
Si Si5 0.362346 0.634829 0.107330
Si Si6 0.000000 0.251892 0.750000
O O1 0.902558 0.205539 0.862484
O O2 0.552629 0.114408 0.031023
O O3 0.829563 0.134582 0.027184
O O4 0.006573 0.082246 0.819710
O O5 0.227494 0.983845 0.664462
O O6 0.287177 0.084813 0.270034
O O7 0.628003 0.005028 0.068754
O O8 0.000000 0.546960 0.750000
O O9 0.500000 0.500000 0.000000
O O10 0.647482 0.609144 0.989820
O O11 0.225861 0.703329 0.183980
#
# Coordination Sequence:
#
# PCOD9302867 Si02
#       6
#     8   4   8   8   8   4
#     4  11  22  40  67  98 136 184 231 283 342 427
#     4  11  26  40  64 106 146 173 222 294 368 419
#     4  12  22  41  70 106 137 180 225 289 367 414
#     4  12  20  37  67 106 137 166 227 283 351 415
#     4  12  22  39  69 101 128 183 232 286 330 419
#     4  11  24  42  66 102 134 187 246 278 346 409
#
# _framework density 21.395582000000001
#
# number of rings (size 3 to 8) (size 9 to 14) (size 15 to 20)
#    0.000    0.400    6.000    3.600    0.000    0.000 
#    0.000    0.000    2.200   12.000    0.000    0.000 
#    0.000    0.000    0.000    0.000    0.000    0.000 
#
# Total GULP energy -111444.987437 kJ/mol
# GULP energy per Si atom -5572.249372 kJ/mol
# Density = 2.134688 g / cm^3
# Si number density = 21.395582 Si / 1000 Ang^3
#
#
#
# Elastic Constant Matrix: (Units=GPa)
#
#
# Indices 1 2 3 4 5 6 
#
# 1 83.4662 42.8627 32.5144 0.0015 -17.7260 -0.0004
# 2 42.8627 146.2213 74.8183 0.0021 -8.2812 -0.0018
# 3 32.5144 74.8183 138.4743 0.0020 -8.2765 -0.0028
# 4 0.0015 0.0021 0.0020 63.8822 -0.0002 -5.7381
# 5 -17.7260 -8.2812 -8.2765 -0.0002 38.0713 0.0002
# 6 -0.0004 -0.0018 -0.0028 -5.7381 0.0002 19.4712
#
#
#
# Elastic Compliance Matrix: (Units=1/GPa)
#
#
# Indices 1 2 3 4 5 6 
#
# 1 0.015655 -0.003519 -0.001403 0.000000 0.006219 0.000000
# 2 -0.003519 0.010278 -0.004753 0.000000 -0.000436 0.000000
# 3 -0.001403 -0.004753 0.010150 0.000000 0.000520 0.000001
# 4 0.000000 0.000000 0.000000 0.016079 0.000000 0.004739
# 5 0.006219 -0.000436 0.000520 0.000000 0.029180 0.000000
# 6 0.000000 0.000000 0.000001 0.004739 0.000000 0.052754
#
#
# Mechanical properties :
#
#
# Convention : Reuss Voigt Hill
#
# Bulk Modulus (GPa) = 59.76100 74.28365 67.02232
# Shear Modulus (GPa) = 31.44172 38.81602 35.12887
#
# Velocity S-wave (km/s) = 3.83762 4.26397 4.05640
# Velocity P-wave (km/s) = 6.90134 7.68352 7.30291
#
# Compressibility (1/GPa) = 0.01673332
#
# Stress axis : x y z
#
# Youngs Moduli (GPa) = 63.87635 97.29720 98.52200
#
# Poissons Ratio (x) = 0.34240 0.13821
# Poissons Ratio (y) = 0.22479 0.46827
# Poissons Ratio (z) = 0.08961 0.46244
#
# Static dielectric constant tensor:
#      x y z
#    x 1.776670 0.000000 0.019820 
#    y 0.000000 1.814140 0.000000 
#    z 0.019820 0.000000 1.932480 
# 
# From -- ./inp_files/87623.got.cif
#   From: 2010.05.17/outbox.cif.g08.bks.cpg/sg15_44_cif.got.tgz:87623.got - 2010.06.03 18:47:42.
