data_PCOD9302060
_publ_section_title
;
Structure prediction by ZEFSAII (Michael W. Deem and Ramdas Pophale) SiO2 
 PCOD9302060
Probable space group: C 2/C
;
_chemical_formula_sum "Si O2"
_cell_formula_units_Z 48
_cell_length_a 8.851734
_cell_length_b 15.690866
_cell_length_c 25.733495
_cell_angle_alpha 90.000000
_cell_angle_beta 41.795354
_cell_angle_gamma 90.000000
_cell_volume 2382.077917
_symmetry_space_group_name_H-M "C 2/C"
_symmetry_group_IT_number 15
_symmetry_cell_setting 'monoclinic'
loop_
_space_group_symop_operation_xyz
x,y,z
-x,y,1/2-z
-x,-y,-z
x,-y,1/2+z
1/2+x,1/2+y,z
1/2-x,1/2+y,1/2-z
1/2-x,1/2-y,-z
1/2+x,1/2-y,1/2+z
loop_
_atom_site_type_symbol
_atom_site_label
_atom_site_fract_x
_atom_site_fract_y
_atom_site_fract_z
Si Si1 0.997741 0.362710 0.312538
Si Si2 0.599496 0.498822 0.781129
Si Si3 0.461919 0.550381 0.562166
Si Si4 0.491622 0.226363 0.579492
Si Si5 0.818513 0.576862 0.549993
Si Si6 0.263766 0.389194 0.673032
O O1 0.733764 0.380665 0.391726
O O2 0.057083 0.306354 0.348581
O O3 0.000000 0.336607 0.250000
O O4 0.168272 0.444985 0.273871
O O5 0.500000 0.490678 0.750000
O O6 0.399461 0.549278 0.861063
O O7 0.628446 0.404427 0.797836
O O8 0.500000 0.500000 0.500000
O O9 0.697299 0.586075 0.524943
O O10 0.341384 0.478303 0.628430
O O11 0.750000 0.250000 0.500000
O O12 0.419951 0.157035 0.554656
O O13 0.352845 0.313993 0.614541
O O14 0.000000 0.500000 0.500000
O O15 0.000000 0.381500 0.750000
#
# Coordination Sequence:
#
# PCOD9302060 Si02
#       6
#     8   8   8   8   8   8
#     4  12  22  43  70  98 132 185 238 285 345 426
#     4  11  21  41  69  99 126 179 235 278 336 431
#     4  11  22  42  69  97 131 184 233 282 343 429
#     4  12  27  45  65 103 148 182 227 302 360 410
#     4  11  23  41  69  97 131 184 231 275 344 427
#     4  11  23  41  64  98 138 168 225 289 351 395
#
# _framework density 20.150475
#
# number of rings (size 3 to 8) (size 9 to 14) (size 15 to 20)
#    0.000    0.667    6.667    4.000    2.333    0.667 
#    0.000    5.000    0.000    0.000    0.000    0.000 
#    0.000    0.000    0.000    0.000    0.000    0.000 
#
# Total GULP energy -133638.131079 kJ/mol
# GULP energy per Si atom -5568.255462 kJ/mol
# Density = 2.010461 g / cm^3
# Si number density = 20.150475 Si / 1000 Ang^3
#
#
#
# Elastic Constant Matrix: (Units=GPa)
#
#
# Indices 1 2 3 4 5 6 
#
# 1 109.6351 17.3338 23.3928 0.0002 -9.1301 -0.0001
# 2 17.3338 65.3781 2.5359 -0.0011 -17.7161 -0.0003
# 3 23.3928 2.5359 78.6840 -0.0018 -14.2458 -0.0060
# 4 0.0002 -0.0011 -0.0018 36.1787 -0.0012 12.9103
# 5 -9.1301 -17.7161 -14.2458 -0.0012 45.5080 0.0009
# 6 -0.0001 -0.0003 -0.0060 12.9103 0.0009 16.5099
#
#
#
# Elastic Compliance Matrix: (Units=1/GPa)
#
#
# Indices 1 2 3 4 5 6 
#
# 1 0.010156 -0.002543 -0.002913 0.000000 0.000136 -0.000001
# 2 -0.002543 0.017772 0.001424 0.000001 0.006854 0.000000
# 3 -0.002913 0.001424 0.014336 -0.000001 0.004458 0.000006
# 4 0.000000 0.000001 -0.000001 0.038339 0.000002 -0.029980
# 5 0.000136 0.006854 0.004458 0.000002 0.026065 -0.000001
# 6 -0.000001 0.000000 0.000006 -0.029980 -0.000001 0.084013
#
#
# Mechanical properties :
#
#
# Convention : Reuss Voigt Hill
#
# Bulk Modulus (GPa) = 29.23880 37.80247 33.52064
# Shear Modulus (GPa) = 23.79313 33.66830 28.73071
#
# Velocity S-wave (km/s) = 3.43997 4.09203 3.78008
# Velocity P-wave (km/s) = 5.50632 6.41304 5.97690
#
# Compressibility (1/GPa) = 0.03420113
#
# Stress axis : x y z
#
# Youngs Moduli (GPa) = 98.46356 56.26836 69.75325
#
# Poissons Ratio (x) = 0.14309 0.20318
# Poissons Ratio (y) = 0.25038 -0.09934
# Poissons Ratio (z) = 0.28681 -0.08014
#
# Static dielectric constant tensor:
#      x y z
#    x 1.928750 0.000010 0.114200 
#    y 0.000010 1.656060 0.000000 
#    z 0.114200 0.000000 1.744890 
# 
# From -- ./inp_files/289017.got.cif
#   From: 2010.05.17/outbox.cif.g08.bks.cpg/sg15_145_cif.got.tgz:289017.got - 2010.06.03 18:47:42.
