data_PCOD9302988
_publ_section_title
;
Structure prediction by ZEFSAII (Michael W. Deem and Ramdas Pophale) SiO2 
 PCOD9302988
Probable space group: C 2/C
;
_chemical_formula_sum "Si O2"
_cell_formula_units_Z 40
_cell_length_a 13.582634
_cell_length_b 14.384479
_cell_length_c 12.242944
_cell_angle_alpha 90.000000
_cell_angle_beta 55.772062
_cell_angle_gamma 90.000000
_cell_volume 1977.733758
_symmetry_space_group_name_H-M "C 2/C"
_symmetry_group_IT_number 15
_symmetry_cell_setting 'monoclinic'
loop_
_space_group_symop_operation_xyz
x,y,z
-x,y,1/2-z
-x,-y,-z
x,-y,1/2+z
1/2+x,1/2+y,z
1/2-x,1/2+y,1/2-z
1/2-x,1/2-y,-z
1/2+x,1/2-y,1/2+z
loop_
_atom_site_type_symbol
_atom_site_label
_atom_site_fract_x
_atom_site_fract_y
_atom_site_fract_z
Si Si1 0.500000 0.248103 0.750000
Si Si2 0.500000 0.447526 0.250000
Si Si3 0.943850 0.586226 0.397229
Si Si4 0.800171 0.149204 0.009561
Si Si5 0.669120 0.397391 0.752719
Si Si6 0.427486 0.114359 0.980929
O O1 0.595867 0.311675 0.749840
O O2 0.569033 0.186684 0.618358
O O3 0.420654 0.381821 0.376095
O O4 0.412580 0.513351 0.230467
O O5 0.803968 0.582811 0.469741
O O6 0.982822 0.480896 0.398107
O O7 0.000000 0.620741 0.250000
O O8 0.987428 0.645525 0.472594
O O9 0.811807 0.126438 0.131131
O O10 0.750000 0.250000 0.000000
O O11 0.798303 0.402542 0.614442
#
# Coordination Sequence:
#
# PCOD9302988 Si02
#       6
#     4   4   8   8   8   8
#     4  11  24  40  63 100 134 178 225 276 334 405
#     4  11  26  48  69 100 138 186 225 278 350 417
#     4  11  22  41  69  95 131 168 224 279 340 400
#     4  12  26  44  69 102 134 177 228 286 338 406
#     4  11  24  45  67  96 140 180 227 275 343 411
#     4  11  22  41  66  98 129 176 223 277 336 405
#
# _framework density 20.225169999999999
#
# number of rings (size 3 to 8) (size 9 to 14) (size 15 to 20)
#    0.000    0.800    5.000    2.400    1.400    1.600 
#    3.600    0.000    0.000    0.000    0.000    0.000 
#    0.000    0.000    0.000    0.000    0.000    0.000 
#
# Total GULP energy -111631.573529 kJ/mol
# GULP energy per Si atom -5581.578676 kJ/mol
# Density = 2.017914 g / cm^3
# Si number density = 20.225170 Si / 1000 Ang^3
#
#
#
# Elastic Constant Matrix: (Units=GPa)
#
#
# Indices 1 2 3 4 5 6 
#
# 1 140.5432 31.2863 65.8996 0.0000 15.2866 0.0000
# 2 31.2863 81.5501 50.1274 0.0000 22.5718 0.0000
# 3 65.8996 50.1274 162.8994 0.0000 6.6141 0.0000
# 4 0.0000 0.0000 0.0000 21.2444 0.0000 -5.6850
# 5 15.2866 22.5718 6.6141 0.0000 35.6711 0.0000
# 6 0.0000 0.0000 0.0000 -5.6850 0.0000 16.0562
#
#
#
# Elastic Compliance Matrix: (Units=1/GPa)
#
#
# Indices 1 2 3 4 5 6 
#
# 1 0.009163 -0.000624 -0.003397 0.000000 -0.002902 0.000000
# 2 -0.000624 0.018489 -0.005010 0.000000 -0.010503 0.000000
# 3 -0.003397 -0.005010 0.008934 0.000000 0.002970 0.000000
# 4 0.000000 0.000000 0.000000 0.051998 0.000000 0.018411
# 5 -0.002902 -0.010503 0.002970 0.000000 0.035373 0.000000
# 6 0.000000 0.000000 0.000000 0.018411 0.000000 0.068800
#
#
# Mechanical properties :
#
#
# Convention : Reuss Voigt Hill
#
# Bulk Modulus (GPa) = 53.98763 75.51326 64.75044
# Shear Modulus (GPa) = 23.04226 30.43962 26.74094
#
# Velocity S-wave (km/s) = 3.37899 3.88369 3.64010
# Velocity P-wave (km/s) = 6.47879 7.58472 7.05347
#
# Compressibility (1/GPa) = 0.01852276
#
# Stress axis : x y z
#
# Youngs Moduli (GPa) = 109.14038 54.08740 111.93038
#
# Poissons Ratio (x) = 0.03375 0.38020
# Poissons Ratio (y) = 0.06811 0.56082
# Poissons Ratio (z) = 0.37072 0.27100
#
# Static dielectric constant tensor:
#      x y z
#    x 1.746300 0.000000 0.021520 
#    y 0.000000 1.740710 0.000000 
#    z 0.021520 0.000000 1.705350 
# 
# From -- ./inp_files/86033.got.cif
#   From: 2010.05.17/outbox.cif.g08.bks.cpg/sg15_44_cif.got.tgz:86033.got - 2010.06.03 18:47:42.
