data_PCOD9302378
_publ_section_title
;
Structure prediction by ZEFSAII (Michael W. Deem and Ramdas Pophale) SiO2 
 PCOD9302378
Probable space group: C 2/C
;
_chemical_formula_sum "Si O2"
_cell_formula_units_Z 40
_cell_length_a 10.437688
_cell_length_b 23.941934
_cell_length_c 7.040391
_cell_angle_alpha 90.000000
_cell_angle_beta 125.681954
_cell_angle_gamma 90.000000
_cell_volume 1429.089007
_symmetry_space_group_name_H-M "C 2/C"
_symmetry_group_IT_number 15
_symmetry_cell_setting 'monoclinic'
loop_
_space_group_symop_operation_xyz
x,y,z
-x,y,1/2-z
-x,-y,-z
x,-y,1/2+z
1/2+x,1/2+y,z
1/2-x,1/2+y,1/2-z
1/2-x,1/2-y,-z
1/2+x,1/2-y,1/2+z
loop_
_atom_site_type_symbol
_atom_site_label
_atom_site_fract_x
_atom_site_fract_y
_atom_site_fract_z
Si Si1 0.706519 0.373307 0.654155
Si Si2 0.389978 0.172112 0.960740
Si Si3 0.947412 0.214810 0.985446
Si Si4 0.802617 0.418441 0.128386
Si Si5 0.173091 0.021278 0.877993
O O1 0.839684 0.351044 0.623773
O O2 0.561772 0.331979 0.499722
O O3 0.735362 0.378810 0.904493
O O4 0.674933 0.434988 0.551196
O O5 0.508231 0.223725 0.047927
O O6 0.425728 0.117937 0.858771
O O7 0.229275 0.198568 0.726880
O O8 0.000000 0.216861 0.250000
O O9 0.692952 0.441346 0.206695
O O10 0.816456 0.477536 0.029256
O O11 0.000000 0.993814 0.750000
#
# Coordination Sequence:
#
# PCOD9302378 Si02
#       5
#     8   8   8   8   8
#     4  11  23  39  63  93 138 176 218 273 335 400
#     4  11  26  44  65  98 138 176 226 272 332 393
#     4  12  24  44  67  95 137 179 222 278 328 394
#     4  11  22  37  59  95 135 178 215 272 336 404
#     4  11  22  32  56  95 136 174 215 266 342 410
#
# _framework density 27.989861000000001
#
# number of rings (size 3 to 8) (size 9 to 14) (size 15 to 20)
#    0.000    0.800    4.000    4.800    2.800    0.000 
#    0.000    0.000    0.000    0.000    0.000   12.600 
#    0.000    0.000    0.000    0.000    0.000    0.000 
#
# Total GULP energy -111977.036530 kJ/mol
# GULP energy per Si atom -5598.851826 kJ/mol
# Density = 2.792615 g / cm^3
# Si number density = 27.989861 Si / 1000 Ang^3
#
#
#
# Elastic Constant Matrix: (Units=GPa)
#
#
# Indices 1 2 3 4 5 6 
#
# 1 89.6961 22.5412 43.4226 0.0000 -17.3436 0.0000
# 2 22.5412 186.2836 51.2115 0.0000 1.7744 0.0000
# 3 43.4226 51.2115 132.8006 0.0000 -50.1785 0.0000
# 4 0.0000 0.0000 0.0000 47.3697 0.0000 -29.2449
# 5 -17.3436 1.7744 -50.1785 0.0000 68.8173 0.0000
# 6 0.0000 0.0000 0.0000 -29.2449 0.0000 27.7415
#
#
#
# Elastic Compliance Matrix: (Units=1/GPa)
#
#
# Indices 1 2 3 4 5 6 
#
# 1 0.013291 -0.000522 -0.003967 0.000000 0.000471 0.000000
# 2 -0.000522 0.006366 -0.003307 0.000000 -0.002707 0.000000
# 3 -0.003967 -0.003307 0.013467 0.000000 0.008905 0.000000
# 4 0.000000 0.000000 0.000000 0.060460 0.000000 0.063736
# 5 0.000471 -0.002707 0.008905 0.000000 0.021213 0.000000
# 6 0.000000 0.000000 0.000000 0.063736 0.000000 0.103237
#
#
# Mechanical properties :
#
#
# Convention : Reuss Voigt Hill
#
# Bulk Modulus (GPa) = 57.03605 71.45900 64.24753
# Shear Modulus (GPa) = 20.87931 48.22605 34.55268
#
# Velocity S-wave (km/s) = 2.73419 4.15539 3.51732
# Velocity P-wave (km/s) = 5.51265 6.97200 6.28483
#
# Compressibility (1/GPa) = 0.01753277
#
# Stress axis : x y z
#
# Youngs Moduli (GPa) = 75.23703 157.07634 74.25418
#
# Poissons Ratio (x) = 0.08205 0.29453
# Poissons Ratio (y) = 0.03930 0.24557
# Poissons Ratio (z) = 0.29843 0.51948
#
# Static dielectric constant tensor:
#      x y z
#    x 2.181090 0.000000 0.004640 
#    y 0.000000 2.097830 0.000000 
#    z 0.004640 0.000000 2.313980 
# 
# From -- ./inp_files/33892.got.cif
#   From: 2010.05.17/outbox.cif.g08.bks.cpg/sg15_17_cif.got.tgz:33892.got - 2010.06.03 18:47:42.
