data_PCOD9302789
_publ_section_title
;
Structure prediction by ZEFSAII (Michael W. Deem and Ramdas Pophale) SiO2 
 PCOD9302789
Probable space group: C 2/C
;
_chemical_formula_sum "Si O2"
_cell_formula_units_Z 64
_cell_length_a 23.870146
_cell_length_b 17.638007
_cell_length_c 20.435935
_cell_angle_alpha 90.000000
_cell_angle_beta 21.628131
_cell_angle_gamma 90.000000
_cell_volume 3171.261483
_symmetry_space_group_name_H-M "C 2/C"
_symmetry_group_IT_number 15
_symmetry_cell_setting 'monoclinic'
loop_
_space_group_symop_operation_xyz
x,y,z
-x,y,1/2-z
-x,-y,-z
x,-y,1/2+z
1/2+x,1/2+y,z
1/2-x,1/2+y,1/2-z
1/2-x,1/2-y,-z
1/2+x,1/2-y,1/2+z
loop_
_atom_site_type_symbol
_atom_site_label
_atom_site_fract_x
_atom_site_fract_y
_atom_site_fract_z
Si Si1 0.442310 0.569378 0.518459
Si Si2 0.870212 0.837674 0.478914
Si Si3 0.837906 0.662827 0.665652
Si Si4 0.689096 0.333020 0.802867
Si Si5 0.888618 0.474155 0.928905
Si Si6 0.033939 0.442018 0.022386
Si Si7 0.983452 0.680068 0.162911
Si Si8 0.469643 0.502681 0.711444
O O1 0.500000 0.500000 0.500000
O O2 0.286656 0.600483 0.718242
O O3 0.551515 0.641611 0.406655
O O4 0.446945 0.540384 0.439007
O O5 0.856473 0.841189 0.572310
O O6 0.698194 0.832266 0.637875
O O7 0.966330 0.761272 0.363744
O O8 0.955959 0.913663 0.366032
O O9 0.768486 0.745508 0.753150
O O10 0.909942 0.624561 0.651303
O O11 0.961156 0.673911 0.473666
O O12 0.813660 0.396114 0.655494
O O13 0.948436 0.513935 0.929743
O O14 0.000000 0.499705 0.750000
O O15 0.921814 0.385038 0.903606
O O16 0.710861 0.490512 0.108314
O O17 0.000000 0.500000 0.000000
O O18 0.500000 0.467521 0.750000
#
# Coordination Sequence:
#
# PCOD9302789 Si02
#       8
#     8   8   8   8   8   8   8   8
#     4  12  23  40  68  98 131 172 221 275 329 386
#     4  11  23  39  65  96 139 171 216 261 328 401
#     4  11  24  36  68  99 136 170 213 273 332 390
#     4  11  22  40  63 101 135 169 216 269 335 389
#     4  12  26  44  67  93 131 173 222 273 331 393
#     4  12  22  41  68 100 132 169 222 273 328 386
#     4  11  23  40  63  99 135 175 213 264 326 401
#     4  12  27  44  65  94 131 176 221 273 331 391
#
# _framework density 20.181242999999998
#
# number of rings (size 3 to 8) (size 9 to 14) (size 15 to 20)
#    0.000    0.500    5.000    3.750    8.750    0.500 
#    0.000    2.500    0.000    4.500    0.000    0.000 
#    0.000    0.000    0.000    0.000    0.000    0.000 
#
# Total GULP energy -178845.490143 kJ/mol
# GULP energy per Si atom -5588.921567 kJ/mol
# Density = 2.013531 g / cm^3
# Si number density = 20.181243 Si / 1000 Ang^3
#
#
#
# Elastic Constant Matrix: (Units=GPa)
#
#
# Indices 1 2 3 4 5 6 
#
# 1 84.6470 7.2777 14.1643 0.0070 7.8173 -0.0037
# 2 7.2777 46.7434 17.0776 0.0101 5.6073 -0.0046
# 3 14.1643 17.0776 79.8794 0.0085 -10.9314 -0.0037
# 4 0.0070 0.0101 0.0085 41.5247 -0.0002 -10.4836
# 5 7.8173 5.6073 -10.9314 -0.0002 32.3211 -0.0001
# 6 -0.0037 -0.0046 -0.0037 -10.4836 -0.0001 21.3244
#
#
#
# Elastic Compliance Matrix: (Units=1/GPa)
#
#
# Indices 1 2 3 4 5 6 
#
# 1 0.012662 -0.000535 -0.002660 -0.000001 -0.003869 0.000001
# 2 -0.000535 0.024386 -0.005956 -0.000004 -0.006115 0.000002
# 3 -0.002660 -0.005956 0.015197 -0.000001 0.006816 0.000000
# 4 -0.000001 -0.000004 -0.000001 0.027495 0.000001 0.013517
# 5 -0.003869 -0.006115 0.006816 0.000001 0.035242 0.000000
# 6 0.000001 0.000002 0.000000 0.013517 0.000000 0.053540
#
#
# Mechanical properties :
#
#
# Convention : Reuss Voigt Hill
#
# Bulk Modulus (GPa) = 29.46144 32.03434 30.74789
# Shear Modulus (GPa) = 25.23489 30.55071 27.89280
#
# Velocity S-wave (km/s) = 3.53995 3.89500 3.72171
# Velocity P-wave (km/s) = 5.59808 6.01131 5.80837
#
# Compressibility (1/GPa) = 0.03394268
#
# Stress axis : x y z
#
# Youngs Moduli (GPa) = 78.97444 41.00686 65.80385
#
# Poissons Ratio (x) = 0.02195 0.17506
# Poissons Ratio (y) = 0.04228 0.39190
# Poissons Ratio (z) = 0.21010 0.24422
#
# Static dielectric constant tensor:
#      x y z
#    x 1.714310 -0.000060 -0.093830 
#    y -0.000060 1.747270 0.000090 
#    z -0.093830 0.000090 1.931720 
# 
# From -- ./inp_files/255992.got.cif
#   From: 2010.05.17/outbox.cif.g08.bks.cpg/sg15_128_cif.got.tgz:255992.got - 2010.06.03 18:47:42.
