data_PCOD9302926
_publ_section_title
;
Structure prediction by ZEFSAII (Michael W. Deem and Ramdas Pophale) SiO2 
 PCOD9302926
Probable space group: C 2/C
;
_chemical_formula_sum "Si O2"
_cell_formula_units_Z 56
_cell_length_a 14.647263
_cell_length_b 15.484506
_cell_length_c 22.336526
_cell_angle_alpha 90.000000
_cell_angle_beta 154.821304
_cell_angle_gamma 90.000000
_cell_volume 2155.314577
_symmetry_space_group_name_H-M "C 2/C"
_symmetry_group_IT_number 15
_symmetry_cell_setting 'monoclinic'
loop_
_space_group_symop_operation_xyz
x,y,z
-x,y,1/2-z
-x,-y,-z
x,-y,1/2+z
1/2+x,1/2+y,z
1/2-x,1/2+y,1/2-z
1/2-x,1/2-y,-z
1/2+x,1/2-y,1/2+z
loop_
_atom_site_type_symbol
_atom_site_label
_atom_site_fract_x
_atom_site_fract_y
_atom_site_fract_z
Si Si1 0.778460 0.742794 0.225041
Si Si2 0.500000 0.937402 0.750000
Si Si3 0.000000 0.295542 0.250000
Si Si4 0.160684 0.568166 0.169659
Si Si5 0.273781 0.073031 0.696388
Si Si6 0.639505 0.677175 0.017296
Si Si7 0.164972 0.315203 0.500048
Si Si8 0.768667 0.993563 0.602363
O O1 0.749910 0.650914 0.242797
O O2 0.742516 0.732182 0.132910
O O3 0.003553 0.778835 0.383783
O O4 0.583816 0.804069 0.131380
O O5 0.657771 0.879474 0.883979
O O6 0.332335 0.995501 0.686158
O O7 0.045826 0.358999 0.220896
O O8 0.202239 0.231871 0.367638
O O9 0.223361 0.479209 0.239875
O O10 0.218483 0.555014 0.135001
O O11 0.903103 0.564928 0.015948
O O12 0.046183 0.120216 0.559608
O O13 0.250000 0.250000 0.500000
O O14 0.249671 0.413236 0.544997
O O15 0.000000 0.031738 0.750000
#
# Coordination Sequence:
#
# PCOD9302926 Si02
#       8
#     8   4   4   8   8   8   8   8
#     4  12  26  45  74 105 156 195 249 303 372 445
#     4  11  26  46  78 107 148 196 260 303 368 454
#     4  11  22  40  74 109 148 176 250 305 380 448
#     4  11  25  44  68 104 149 200 243 299 372 446
#     4  11  24  47  73 109 142 190 247 313 376 430
#     4  12  26  50  76 110 148 201 250 316 374 451
#     4  12  23  41  73 113 148 193 242 313 385 454
#     4  11  24  45  70 106 151 192 245 303 378 450
#
# _framework density 25.982285000000001
#
# number of rings (size 3 to 8) (size 9 to 14) (size 15 to 20)
#    0.000    0.571    3.571    4.714    0.000    2.857 
#    1.286    0.000    0.000    0.000    0.000    0.000 
#    0.000    0.000    0.000    0.000    0.000    0.000 
#
# Total GULP energy -156539.187817 kJ/mol
# GULP energy per Si atom -5590.685279 kJ/mol
# Density = 2.592315 g / cm^3
# Si number density = 25.982285 Si / 1000 Ang^3
#
#
#
# Elastic Constant Matrix: (Units=GPa)
#
#
# Indices 1 2 3 4 5 6 
#
# 1 54.9369 3.3599 3.4730 0.0061 -13.2165 0.0022
# 2 3.3599 71.2662 28.2299 0.0171 -1.3647 0.0062
# 3 3.4730 28.2299 144.7694 0.0292 0.0537 0.0126
# 4 0.0061 0.0171 0.0292 -88.0493 0.0051 -8.0287
# 5 -13.2165 -1.3647 0.0537 0.0051 37.8203 0.0019
# 6 0.0022 0.0062 0.0126 -8.0287 0.0019 38.6533
#
#
#
# Elastic Compliance Matrix: (Units=1/GPa)
#
#
# Indices 1 2 3 4 5 6 
#
# 1 0.019936 -0.000668 -0.000351 0.000002 0.006943 -0.000001
# 2 -0.000668 0.015240 -0.002956 0.000002 0.000321 -0.000001
# 3 -0.000351 -0.002956 0.007492 0.000002 -0.000240 -0.000002
# 4 0.000002 0.000002 0.000002 -0.011146 0.000002 -0.002315
# 5 0.006943 0.000321 -0.000240 0.000002 0.028879 -0.000001
# 6 -0.000001 -0.000001 -0.000002 -0.002315 -0.000001 0.025390
#
#
# Mechanical properties :
#
#
# Convention : Reuss Voigt Hill
#
# Bulk Modulus (GPa) = 28.80207 37.89979 33.35093
# Shear Modulus (GPa) = 47.47689 13.41219 30.44454
#
# Velocity S-wave (km/s) = 4.27931 2.27448 3.42679
# Velocity P-wave (km/s) = 5.96037 4.63855 5.34051
#
# Compressibility (1/GPa) = 0.03471973
#
# Stress axis : x y z
#
# Youngs Moduli (GPa) = 50.16034 65.61491 133.46782
#
# Poissons Ratio (x) = 0.04384 0.04679
# Poissons Ratio (y) = 0.03351 0.39453
# Poissons Ratio (z) = 0.01758 0.19396
#
# Static dielectric constant tensor:
#      x y z
#    x 2.159660 0.000000 -0.190890 
#    y 0.000000 2.043310 0.000000 
#    z -0.190890 0.000000 2.231730 
# 
# From -- ./inp_files/299382.got.cif
#   From: 2010.05.17/outbox.cif.g08.bks.cpg/sg15_150_cif.got.tgz:299382.got - 2010.06.03 18:47:42.
