data_PCOD9302243
_publ_section_title
;
Structure prediction by ZEFSAII (Michael W. Deem and Ramdas Pophale) SiO2 
 PCOD9302243
Probable space group: C 2/C
;
_chemical_formula_sum "Si O2"
_cell_formula_units_Z 48
_cell_length_a 8.242387
_cell_length_b 30.151751
_cell_length_c 16.081154
_cell_angle_alpha 90.000000
_cell_angle_beta 35.150972
_cell_angle_gamma 90.000000
_cell_volume 2300.931974
_symmetry_space_group_name_H-M "C 2/C"
_symmetry_group_IT_number 15
_symmetry_cell_setting 'monoclinic'
loop_
_space_group_symop_operation_xyz
x,y,z
-x,y,1/2-z
-x,-y,-z
x,-y,1/2+z
1/2+x,1/2+y,z
1/2-x,1/2+y,1/2-z
1/2-x,1/2-y,-z
1/2+x,1/2-y,1/2+z
loop_
_atom_site_type_symbol
_atom_site_label
_atom_site_fract_x
_atom_site_fract_y
_atom_site_fract_z
Si Si1 0.210075 0.505852 0.335367
Si Si2 0.818539 0.345098 0.624162
Si Si3 0.275694 0.168401 0.693878
Si Si4 0.103484 0.583535 0.118394
Si Si5 0.453319 0.240528 0.170726
Si Si6 0.266008 0.576548 0.695043
O O1 0.500000 0.524863 0.250000
O O2 0.275981 0.458862 0.265299
O O3 0.000000 0.500000 0.500000
O O4 0.065052 0.538589 0.330802
O O5 0.500000 0.361578 0.750000
O O6 0.954101 0.332583 0.479018
O O7 0.017694 0.381933 0.582664
O O8 0.821982 0.301962 0.681464
O O9 0.276426 0.126022 0.752522
O O10 0.000000 0.164888 0.750000
O O11 0.235749 0.215216 0.756485
O O12 0.000000 0.601451 0.250000
O O13 0.436260 0.575067 0.976909
O O14 0.500000 0.232806 0.250000
O O15 0.750000 0.250000 0.000000
O O16 0.000000 0.564924 0.750000
#
# Coordination Sequence:
#
# PCOD9302243 Si02
#       6
#     8   8   8   8   8   8
#     4  12  25  45  73  98 132 181 225 277 342 409
#     4  12  26  44  69 104 139 182 233 286 344 412
#     4  11  22  46  71  94 139 187 227 279 349 409
#     4  12  27  46  68 101 141 178 227 285 343 407
#     4  11  21  43  72  98 134 185 232 284 343 406
#     4  12  27  45  70 101 138 181 229 282 346 413
#
# _framework density 20.861113
#
# number of rings (size 3 to 8) (size 9 to 14) (size 15 to 20)
#    0.000    0.333    6.667    3.000    4.667    2.667 
#    0.000    0.000    0.000    0.000    0.000    0.000 
#    0.000    0.000    0.000    0.000    0.000    0.000 
#
# Total GULP energy -134338.569921 kJ/mol
# GULP energy per Si atom -5597.440413 kJ/mol
# Density = 2.081363 g / cm^3
# Si number density = 20.861113 Si / 1000 Ang^3
#
#
#
# Elastic Constant Matrix: (Units=GPa)
#
#
# Indices 1 2 3 4 5 6 
#
# 1 59.6500 1.0858 32.0215 0.0000 -18.9607 0.0000
# 2 1.0858 88.0904 7.9082 0.0000 -3.5554 0.0000
# 3 32.0215 7.9082 164.4844 0.0000 -9.6228 0.0000
# 4 0.0000 0.0000 0.0000 9.6047 0.0000 -5.2951
# 5 -18.9607 -3.5554 -9.6228 0.0000 38.6323 0.0000
# 6 0.0000 0.0000 0.0000 -5.2951 0.0000 14.3878
#
#
#
# Elastic Compliance Matrix: (Units=1/GPa)
#
#
# Indices 1 2 3 4 5 6 
#
# 1 0.021878 0.000461 -0.003705 0.000000 0.009857 0.000000
# 2 0.000461 0.011444 -0.000573 0.000000 0.001137 0.000000
# 3 -0.003705 -0.000573 0.006818 0.000000 -0.000173 0.000000
# 4 0.000000 0.000000 0.000000 0.130618 0.000000 0.048072
# 5 0.009857 0.001137 -0.000173 0.000000 0.030785 0.000000
# 6 0.000000 0.000000 0.000000 0.048072 0.000000 0.087195
#
#
# Mechanical properties :
#
#
# Convention : Reuss Voigt Hill
#
# Bulk Modulus (GPa) = 30.76403 43.80620 37.28511
# Shear Modulus (GPa) = 16.27561 30.60557 23.44059
#
# Velocity S-wave (km/s) = 2.79622 3.83444 3.35573
# Velocity P-wave (km/s) = 5.02038 6.37562 5.73815
#
# Compressibility (1/GPa) = 0.03250549
#
# Stress axis : x y z
#
# Youngs Moduli (GPa) = 45.70767 87.38477 146.66448
#
# Poissons Ratio (x) = -0.04026 0.54334
# Poissons Ratio (y) = -0.02106 0.08410
# Poissons Ratio (z) = 0.16933 0.05011
#
# Static dielectric constant tensor:
#      x y z
#    x 1.991360 0.000000 0.114830 
#    y 0.000000 1.750670 0.000000 
#    z 0.114830 0.000000 1.770280 
# 
# From -- ./inp_files/194145.got.cif
#   From: 2010.05.17/outbox.cif.g08.bks.cpg/sg15_98_cif.got.tgz:194145.got - 2010.06.03 18:47:42.
