data_PCOD9302996
_publ_section_title
;
Structure prediction by ZEFSAII (Michael W. Deem and Ramdas Pophale) SiO2 
 PCOD9302996
Probable space group: C 2/C
;
_chemical_formula_sum "Si O2"
_cell_formula_units_Z 48
_cell_length_a 14.999770
_cell_length_b 11.750438
_cell_length_c 22.154928
_cell_angle_alpha 90.000000
_cell_angle_beta 137.612717
_cell_angle_gamma 90.000000
_cell_volume 2632.437737
_symmetry_space_group_name_H-M "C 2/C"
_symmetry_group_IT_number 15
_symmetry_cell_setting 'monoclinic'
loop_
_space_group_symop_operation_xyz
x,y,z
-x,y,1/2-z
-x,-y,-z
x,-y,1/2+z
1/2+x,1/2+y,z
1/2-x,1/2+y,1/2-z
1/2-x,1/2-y,-z
1/2+x,1/2-y,1/2+z
loop_
_atom_site_type_symbol
_atom_site_label
_atom_site_fract_x
_atom_site_fract_y
_atom_site_fract_z
Si Si1 0.428627 0.110272 0.434466
Si Si2 0.905926 0.760205 0.077096
Si Si3 0.529685 0.496387 0.945612
Si Si4 0.855545 0.044483 0.250174
Si Si5 0.724924 0.291461 0.054828
Si Si6 0.500000 0.346384 0.250000
Si Si7 0.500000 0.739002 0.250000
O O1 0.522459 0.170584 0.431622
O O2 0.297670 0.066692 0.335230
O O3 0.368745 0.203462 0.453125
O O4 0.500000 0.000000 0.500000
O O5 0.953185 0.769625 0.170414
O O6 0.932234 0.882679 0.061438
O O7 0.750000 0.750000 0.000000
O O8 0.401607 0.466689 0.841784
O O9 0.500000 0.500000 0.000000
O O10 0.648247 0.407394 0.003317
O O11 0.940223 0.152356 0.269422
O O12 0.896003 0.935226 0.229079
O O13 0.869047 0.302184 0.159380
O O14 0.750000 0.250000 0.000000
#
# Coordination Sequence:
#
# PCOD9302996 Si02
#       7
#     8   8   8   8   8   4   4
#     4  11  24  42  64  96 125 168 213 261 316 380
#     4  11  24  41  65  91 129 168 210 257 319 377
#     4  11  22  42  61  95 127 167 208 263 320 371
#     4   9  19  38  63  85 123 165 215 252 313 379
#     4  11  22  41  67  92 127 165 212 263 316 378
#     4   9  20  40  63  86 120 174 205 259 314 378
#     4   9  18  36  63  90 116 166 209 251 308 376
#
# _framework density 18.23405
#
# number of rings (size 3 to 8) (size 9 to 14) (size 15 to 20)
#    0.000    1.667    3.333    1.000    4.667    1.333 
#    9.000    0.833    0.000    0.000    0.000    0.000 
#    0.000    0.000    0.000    0.000    0.000    0.000 
#
# Total GULP energy -133666.702387 kJ/mol
# GULP energy per Si atom -5569.445933 kJ/mol
# Density = 1.819255 g / cm^3
# Si number density = 18.234050 Si / 1000 Ang^3
#
#
#
# Elastic Constant Matrix: (Units=GPa)
#
#
# Indices 1 2 3 4 5 6 
#
# 1 128.8379 39.7882 86.4508 0.0000 -9.6735 0.0000
# 2 39.7882 81.2827 70.9245 0.0000 -0.0964 0.0000
# 3 86.4508 70.9245 164.7913 0.0000 -5.2414 0.0000
# 4 0.0000 0.0000 0.0000 33.4521 0.0000 4.1432
# 5 -9.6735 -0.0964 -5.2414 0.0000 43.5465 0.0000
# 6 0.0000 0.0000 0.0000 4.1432 0.0000 28.0095
#
#
#
# Elastic Compliance Matrix: (Units=1/GPa)
#
#
# Indices 1 2 3 4 5 6 
#
# 1 0.012164 -0.000703 -0.006016 0.000000 0.001976 0.000000
# 2 -0.000703 0.019784 -0.008181 0.000000 -0.001097 0.000000
# 3 -0.006016 -0.008181 0.012751 0.000000 0.000180 0.000000
# 4 0.000000 0.000000 0.000000 0.030451 0.000000 -0.004504
# 5 0.001976 -0.001097 0.000180 0.000000 0.023422 0.000000
# 6 0.000000 0.000000 0.000000 -0.004504 0.000000 0.036368
#
#
# Mechanical properties :
#
#
# Convention : Reuss Voigt Hill
#
# Bulk Modulus (GPa) = 67.11625 85.47099 76.29362
# Shear Modulus (GPa) = 29.46257 32.85151 31.15704
#
# Velocity S-wave (km/s) = 4.02406 4.24920 4.13816
# Velocity P-wave (km/s) = 7.64715 8.42914 8.04765
#
# Compressibility (1/GPa) = 0.01489952
#
# Stress axis : x y z
#
# Youngs Moduli (GPa) = 82.21105 50.54612 78.42433
#
# Poissons Ratio (x) = 0.03551 0.47180
# Poissons Ratio (y) = 0.05776 0.64160
# Poissons Ratio (z) = 0.49458 0.41352
#
# Static dielectric constant tensor:
#      x y z
#    x 1.600590 0.000000 -0.043640 
#    y 0.000000 1.168130 0.000000 
#    z -0.043640 0.000000 1.672530 
# 
# From -- ./inp_files/151972.got.cif
#   From: 2010.05.17/outbox.cif.g08.bks.cpg/sg15_76_cif.got.tgz:151972.got - 2010.06.03 18:47:42.
