data_PCOD9302117
_publ_section_title
;
Structure prediction by ZEFSAII (Michael W. Deem and Ramdas Pophale) SiO2 
 PCOD9302117
Probable space group: C 2/C
;
_chemical_formula_sum "Si O2"
_cell_formula_units_Z 60
_cell_length_a 17.299421
_cell_length_b 14.158136
_cell_length_c 12.459433
_cell_angle_alpha 90.000000
_cell_angle_beta 70.993441
_cell_angle_gamma 90.000000
_cell_volume 2885.286011
_symmetry_space_group_name_H-M "C 2/C"
_symmetry_group_IT_number 15
_symmetry_cell_setting 'monoclinic'
loop_
_space_group_symop_operation_xyz
x,y,z
-x,y,1/2-z
-x,-y,-z
x,-y,1/2+z
1/2+x,1/2+y,z
1/2-x,1/2+y,1/2-z
1/2-x,1/2-y,-z
1/2+x,1/2-y,1/2+z
loop_
_atom_site_type_symbol
_atom_site_label
_atom_site_fract_x
_atom_site_fract_y
_atom_site_fract_z
Si Si1 0.323756 0.039336 0.954296
Si Si2 0.867452 0.653588 0.344204
Si Si3 0.689116 0.331564 0.847866
Si Si4 0.000000 0.953382 0.250000
Si Si5 0.248390 0.661241 0.704136
Si Si6 0.682132 0.497378 0.682363
Si Si7 0.388489 0.807307 0.586645
Si Si8 0.039220 0.192509 0.555483
O O1 0.240429 0.009204 0.053213
O O2 0.370899 0.107912 0.014267
O O3 0.296314 0.096668 0.861914
O O4 0.375275 0.947960 0.896165
O O5 0.769990 0.671871 0.384072
O O6 0.894864 0.657004 0.207384
O O7 0.913378 0.734909 0.387824
O O8 0.685398 0.229025 0.794612
O O9 0.703471 0.411491 0.752329
O O10 0.607537 0.352574 0.949270
O O11 0.003679 0.885891 0.352128
O O12 0.914314 0.007468 0.297683
O O13 0.295912 0.594414 0.766324
O O14 0.313275 0.732920 0.620750
O O15 0.470660 0.750670 0.523907
#
# Coordination Sequence:
#
# PCOD9302117 Si02
#       8
#     8   8   8   4   8   8   8   8
#     4  12  23  41  71  95 129 179 223 271 328 384
#     4  11  21  42  66  96 127 170 228 267 319 397
#     4  11  24  42  66  98 133 173 226 266 325 398
#     4  12  24  40  68  98 136 170 208 272 346 386
#     4  11  22  46  66  93 137 175 220 273 322 397
#     4  12  24  42  66 104 129 170 224 269 326 407
#     4  11  23  42  66  95 130 175 220 268 335 387
#     4  12  23  43  66  96 134 176 213 280 331 383
#
# _framework density 20.795166999999999
#
# number of rings (size 3 to 8) (size 9 to 14) (size 15 to 20)
#    0.000    0.533    6.667    3.200    0.000    2.133 
#    0.000    1.333    0.000    0.000    0.000    0.000 
#    0.000    0.000    0.000    0.000    0.000    0.000 
#
# Total GULP energy -167865.124273 kJ/mol
# GULP energy per Si atom -5595.504142 kJ/mol
# Density = 2.074784 g / cm^3
# Si number density = 20.795167 Si / 1000 Ang^3
#
#
#
# Elastic Constant Matrix: (Units=GPa)
#
#
# Indices 1 2 3 4 5 6 
#
# 1 45.2542 -10.7519 -14.8013 0.0000 -8.9174 0.0000
# 2 -10.7519 48.7481 -6.3370 0.0000 9.5213 0.0000
# 3 -14.8013 -6.3370 24.9518 0.0000 -1.8976 0.0000
# 4 0.0000 0.0000 0.0000 29.8582 0.0000 1.5611
# 5 -8.9174 9.5213 -1.8976 0.0000 25.6378 0.0000
# 6 0.0000 0.0000 0.0000 1.5611 0.0000 20.5332
#
#
#
# Elastic Compliance Matrix: (Units=1/GPa)
#
#
# Indices 1 2 3 4 5 6 
#
# 1 0.033570 0.008367 0.022819 0.000000 0.010258 0.000000
# 2 0.008367 0.024847 0.010854 0.000000 -0.005514 0.000000
# 3 0.022819 0.010854 0.056988 0.000000 0.008124 0.000000
# 4 0.000000 0.000000 0.000000 0.033625 0.000000 -0.002556
# 5 0.010258 -0.005514 0.008124 0.000000 0.045222 0.000000
# 6 0.000000 0.000000 0.000000 -0.002556 0.000000 0.048896
#
#
# Mechanical properties :
#
#
# Convention : Reuss Voigt Hill
#
# Bulk Modulus (GPa) = 5.01292 6.13040 5.57166
# Shear Modulus (GPa) = 22.16680 25.26214 23.71447
#
# Velocity S-wave (km/s) = 3.26844 3.48919 3.38062
# Velocity P-wave (km/s) = 4.08160 4.38030 4.23359
#
# Compressibility (1/GPa) = 0.19948460
#
# Stress axis : x y z
#
# Youngs Moduli (GPa) = 29.78856 40.24624 17.54766
#
# Poissons Ratio (x) = -0.33674 -0.40041
# Poissons Ratio (y) = -0.24924 -0.19047
# Poissons Ratio (z) = -0.67973 -0.43685
#
# Static dielectric constant tensor:
#      x y z
#    x 1.732320 0.000000 -0.002910 
#    y 0.000000 1.732210 0.000000 
#    z -0.002910 0.000000 1.735540 
# 
# From -- ./inp_files/105332.got.cif
#   From: 2010.05.17/outbox.cif.g08.bks.cpg/sg15_53_cif.got.tgz:105332.got - 2010.06.03 18:47:42.
