data_PCOD9302291
_publ_section_title
;
Structure prediction by ZEFSAII (Michael W. Deem and Ramdas Pophale) SiO2 
 PCOD9302291
Probable space group: C 2/C
;
_chemical_formula_sum "Si O2"
_cell_formula_units_Z 40
_cell_length_a 21.171169
_cell_length_b 7.385620
_cell_length_c 14.050413
_cell_angle_alpha 90.000000
_cell_angle_beta 39.675627
_cell_angle_gamma 90.000000
_cell_volume 1402.624090
_symmetry_space_group_name_H-M "C 2/C"
_symmetry_group_IT_number 15
_symmetry_cell_setting 'monoclinic'
loop_
_space_group_symop_operation_xyz
x,y,z
-x,y,1/2-z
-x,-y,-z
x,-y,1/2+z
1/2+x,1/2+y,z
1/2-x,1/2+y,1/2-z
1/2-x,1/2-y,-z
1/2+x,1/2-y,1/2+z
loop_
_atom_site_type_symbol
_atom_site_label
_atom_site_fract_x
_atom_site_fract_y
_atom_site_fract_z
Si Si1 0.653791 0.822434 0.398381
Si Si2 0.049906 0.383429 0.791873
Si Si3 0.984074 0.798250 0.661521
Si Si4 0.184854 0.954619 0.152417
Si Si5 0.689839 0.422138 0.431773
O O1 0.537022 0.856150 0.530156
O O2 0.714475 0.945627 0.404711
O O3 0.666120 0.621133 0.421743
O O4 0.712698 0.856303 0.233907
O O5 0.060240 0.599125 0.774176
O O6 0.000000 0.325873 0.750000
O O7 0.143121 0.251635 0.695013
O O8 0.000000 0.878083 0.750000
O O9 0.098490 0.799962 0.498663
O O10 0.909079 0.934078 0.697360
O O11 0.201938 0.052849 0.031176
#
# Coordination Sequence:
#
# PCOD9302291 Si02
#       5
#     8   8   8   8   8
#     4  12  25  44  77 107 149 196 245 306 376 431
#     4  11  21  44  73 104 144 194 245 303 362 441
#     4   9  20  42  69 101 145 188 238 303 359 429
#     4  11  23  48  78 101 148 203 240 298 383 435
#     4  11  23  46  67 109 154 182 244 316 348 440
#
# _framework density 28.517977999999999
#
# number of rings (size 3 to 8) (size 9 to 14) (size 15 to 20)
#    0.000    1.200    4.000    2.400    0.000    0.800 
#    7.200    8.000    4.400    0.000    0.000    0.000 
#    0.000    0.000    0.000    0.000    0.000    0.000 
#
# Total GULP energy -112279.920299 kJ/mol
# GULP energy per Si atom -5613.996015 kJ/mol
# Density = 2.845307 g / cm^3
# Si number density = 28.517978 Si / 1000 Ang^3
#
#
#
# Elastic Constant Matrix: (Units=GPa)
#
#
# Indices 1 2 3 4 5 6 
#
# 1 143.7310 40.5788 48.7578 0.0004 -10.2556 -0.0006
# 2 40.5788 157.2115 17.3228 0.0020 -21.1698 -0.0012
# 3 48.7578 17.3228 148.2550 0.0006 -0.1480 0.0001
# 4 0.0004 0.0020 0.0006 57.9273 -0.0002 -16.2562
# 5 -10.2556 -21.1698 -0.1480 -0.0002 31.4325 0.0003
# 6 -0.0006 -0.0012 0.0001 -16.2562 0.0003 36.4599
#
#
#
# Elastic Compliance Matrix: (Units=1/GPa)
#
#
# Indices 1 2 3 4 5 6 
#
# 1 0.008417 -0.001673 -0.002571 0.000000 0.001607 0.000000
# 2 -0.001673 0.007427 -0.000313 0.000000 0.004455 0.000000
# 3 -0.002571 -0.000313 0.007626 0.000000 -0.001014 0.000000
# 4 0.000000 0.000000 0.000000 0.019732 0.000000 0.008798
# 5 0.001607 0.004455 -0.001014 0.000000 0.035334 0.000000
# 6 0.000000 0.000000 0.000000 0.008798 0.000000 0.031350
#
#
# Mechanical properties :
#
#
# Convention : Reuss Voigt Hill
#
# Bulk Modulus (GPa) = 69.65737 73.61290 71.63514
# Shear Modulus (GPa) = 40.39257 47.99981 44.19619
#
# Velocity S-wave (km/s) = 3.76758 4.10706 3.94098
# Velocity P-wave (km/s) = 6.58825 6.95410 6.77364
#
# Compressibility (1/GPa) = 0.01435598
#
# Stress axis : x y z
#
# Youngs Moduli (GPa) = 118.81387 134.64376 131.12593
#
# Poissons Ratio (x) = 0.22522 0.33712
# Poissons Ratio (y) = 0.19874 0.04107
# Poissons Ratio (z) = 0.30547 0.04218
#
# Static dielectric constant tensor:
#      x y z
#    x 2.284630 0.000000 0.041170 
#    y 0.000000 2.167550 0.000000 
#    z 0.041170 0.000000 2.354320 
# 
# From -- ./inp_files/221785.got.cif
#   From: 2010.05.17/outbox.cif.g08.bks.cpg/sg15_111_cif.got.tgz:221785.got - 2010.06.03 18:47:42.
