data_PCOD9302663
_publ_section_title
;
Structure prediction by ZEFSAII (Michael W. Deem and Ramdas Pophale) SiO2 
 PCOD9302663
Probable space group: C 2/C
;
_chemical_formula_sum "Si O2"
_cell_formula_units_Z 56
_cell_length_a 18.820878
_cell_length_b 14.283403
_cell_length_c 19.756775
_cell_angle_alpha 90.000000
_cell_angle_beta 24.880878
_cell_angle_gamma 90.000000
_cell_volume 2234.571595
_symmetry_space_group_name_H-M "C 2/C"
_symmetry_group_IT_number 15
_symmetry_cell_setting 'monoclinic'
loop_
_space_group_symop_operation_xyz
x,y,z
-x,y,1/2-z
-x,-y,-z
x,-y,1/2+z
1/2+x,1/2+y,z
1/2-x,1/2+y,1/2-z
1/2-x,1/2-y,-z
1/2+x,1/2-y,1/2+z
loop_
_atom_site_type_symbol
_atom_site_label
_atom_site_fract_x
_atom_site_fract_y
_atom_site_fract_z
Si Si1 0.500000 0.679621 0.750000
Si Si2 0.965680 0.396004 0.150939
Si Si3 0.249514 0.854799 0.778466
Si Si4 0.500000 0.383205 0.750000
Si Si5 0.213659 0.228440 0.164492
Si Si6 0.273846 0.024925 0.538911
Si Si7 0.004448 0.226175 0.593927
Si Si8 0.759896 0.948491 0.272560
O O1 0.675097 0.619406 0.605251
O O2 0.515934 0.729573 0.664470
O O3 0.811884 0.339768 0.318330
O O4 0.904882 0.421867 0.128284
O O5 0.119453 0.322056 0.008353
O O6 0.035242 0.486165 0.131555
O O7 0.197937 0.797822 0.756544
O O8 0.446214 0.827899 0.618176
O O9 0.189651 0.959780 0.815508
O O10 0.171980 0.807731 0.911997
O O11 0.440147 0.318763 0.741618
O O12 0.657468 0.450394 0.600026
O O13 0.250922 0.016419 0.640638
O O14 0.877126 0.143395 0.678319
#
# Coordination Sequence:
#
# PCOD9302663 Si02
#       8
#     4   8   8   4   8   8   8   8
#     4   9  22  46  66  95 132 178 228 271 344 401
#     4  11  22  39  63  99 131 176 221 280 332 394
#     4  12  24  42  66 104 132 174 228 279 332 401
#     4   9  18  38  58  89 124 172 208 267 328 389
#     4  11  23  38  64  95 136 168 222 269 335 399
#     4   9  19  36  64  90 124 174 220 264 330 399
#     4  11  26  44  71  99 134 177 223 284 336 399
#     4  11  22  40  68  99 131 174 224 279 330 390
#
# _framework density 25.060731000000001
#
# number of rings (size 3 to 8) (size 9 to 14) (size 15 to 20)
#    0.000    1.429    4.286    1.714    0.000    4.000 
#    0.000    1.429    0.000    0.000    0.000    0.000 
#    0.000    0.000    0.000    0.000    0.000    0.000 
#
# Total GULP energy -156312.330861 kJ/mol
# GULP energy per Si atom -5582.583245 kJ/mol
# Density = 2.500369 g / cm^3
# Si number density = 25.060731 Si / 1000 Ang^3
#
#
#
# Elastic Constant Matrix: (Units=GPa)
#
#
# Indices 1 2 3 4 5 6 
#
# 1 138.0068 21.4589 22.7412 -0.0034 -15.4466 -0.0012
# 2 21.4589 90.7512 22.8710 0.0070 -4.0986 0.0012
# 3 22.7412 22.8710 45.1574 0.0085 -9.8155 0.0016
# 4 -0.0034 0.0070 0.0085 39.4760 -0.0002 -7.0813
# 5 -15.4466 -4.0986 -9.8155 -0.0002 30.9176 -0.0011
# 6 -0.0012 0.0012 0.0016 -7.0813 -0.0011 18.5537
#
#
#
# Elastic Compliance Matrix: (Units=1/GPa)
#
#
# Indices 1 2 3 4 5 6 
#
# 1 0.008238 -0.001068 -0.002947 0.000002 0.003038 0.000002
# 2 -0.001068 0.012774 -0.006101 -0.000001 -0.000777 -0.000001
# 3 -0.002947 -0.006101 0.028167 -0.000006 0.006661 -0.000004
# 4 0.000002 -0.000001 -0.000006 0.027194 -0.000001 0.010379
# 5 0.003038 -0.000777 0.006661 -0.000001 0.035874 0.000002
# 6 0.000002 -0.000001 -0.000004 0.010379 0.000002 0.057859
#
#
# Mechanical properties :
#
#
# Convention : Reuss Voigt Hill
#
# Bulk Modulus (GPa) = 34.54629 45.33973 39.94301
# Shear Modulus (GPa) = 25.00177 31.57906 28.29042
#
# Velocity S-wave (km/s) = 3.16198 3.55364 3.36352
# Velocity P-wave (km/s) = 5.21016 5.91346 5.57292
#
# Compressibility (1/GPa) = 0.02894667
#
# Stress axis : x y z
#
# Youngs Moduli (GPa) = 121.39155 78.28346 35.50287
#
# Poissons Ratio (x) = 0.08360 0.10464
# Poissons Ratio (y) = 0.12964 0.21660
# Poissons Ratio (z) = 0.35777 0.47759
#
# Static dielectric constant tensor:
#      x y z
#    x 1.893380 0.000000 -0.055470 
#    y 0.000000 2.031480 0.000000 
#    z -0.055470 0.000000 2.134860 
# 
# From -- ./inp_files/249266.got.cif
#   From: 2010.05.17/outbox.cif.g08.bks.cpg/sg15_125_cif.got.tgz:249266.got - 2010.06.03 18:47:42.
