data_PCOD9302229
_publ_section_title
;
Structure prediction by ZEFSAII (Michael W. Deem and Ramdas Pophale) SiO2 
 PCOD9302229
Probable space group: C 2/C
;
_chemical_formula_sum "Si O2"
_cell_formula_units_Z 48
_cell_length_a 13.256124
_cell_length_b 13.748597
_cell_length_c 19.019397
_cell_angle_alpha 90.000000
_cell_angle_beta 143.703229
_cell_angle_gamma 90.000000
_cell_volume 2051.964000
_symmetry_space_group_name_H-M "C 2/C"
_symmetry_group_IT_number 15
_symmetry_cell_setting 'monoclinic'
loop_
_space_group_symop_operation_xyz
x,y,z
-x,y,1/2-z
-x,-y,-z
x,-y,1/2+z
1/2+x,1/2+y,z
1/2-x,1/2+y,1/2-z
1/2-x,1/2-y,-z
1/2+x,1/2-y,1/2+z
loop_
_atom_site_type_symbol
_atom_site_label
_atom_site_fract_x
_atom_site_fract_y
_atom_site_fract_z
Si Si1 0.961977 0.458294 0.807264
Si Si2 0.942545 0.324096 0.932972
Si Si3 0.259759 0.853019 0.219153
Si Si4 0.563150 0.272339 0.864330
Si Si5 0.670309 0.346637 0.323109
Si Si6 0.259752 0.453371 0.564246
O O1 0.920604 0.377178 0.843925
O O2 0.819268 0.543446 0.723980
O O3 0.000000 0.423807 0.750000
O O4 0.127812 0.516612 0.929437
O O5 0.851386 0.220348 0.889229
O O6 0.851551 0.396297 0.938196
O O7 0.143122 0.305786 0.054880
O O8 0.424420 0.785531 0.330375
O O9 0.161758 0.868065 0.236223
O O10 0.500000 0.242420 0.750000
O O11 0.581102 0.388284 0.871038
O O12 0.750000 0.250000 0.000000
O O13 0.500000 0.291857 0.250000
O O14 0.676043 0.447471 0.367606
#
# Coordination Sequence:
#
# PCOD9302229 Si02
#       6
#     8   8   8   8   8   8
#     4  11  23  41  69 105 142 177 224 300 360 409
#     4  11  23  44  70 101 138 184 237 292 352 431
#     4  12  24  40  71 103 138 179 236 296 346 417
#     4  12  23  37  68 110 138 173 231 298 358 421
#     4  11  24  44  69  94 135 195 238 281 352 436
#     4  11  21  43  71 100 140 183 237 287 357 435
#
# _framework density 23.392223000000001
#
# number of rings (size 3 to 8) (size 9 to 14) (size 15 to 20)
#    0.000    0.667    6.667    2.000    0.000    1.333 
#    0.000    1.667    0.000    6.000    0.000    0.000 
#    0.000    0.000    0.000    0.000    0.000    0.000 
#
# Total GULP energy -134039.668071 kJ/mol
# GULP energy per Si atom -5584.986170 kJ/mol
# Density = 2.333898 g / cm^3
# Si number density = 23.392223 Si / 1000 Ang^3
#
#
#
# Elastic Constant Matrix: (Units=GPa)
#
#
# Indices 1 2 3 4 5 6 
#
# 1 111.9086 25.6868 31.1213 0.0003 -5.6150 0.0001
# 2 25.6868 77.5214 20.5270 0.0005 -2.6692 0.0002
# 3 31.1213 20.5270 99.7969 0.0011 3.3008 0.0007
# 4 0.0003 0.0005 0.0011 0.6573 0.0005 -5.5423
# 5 -5.6150 -2.6692 3.3008 0.0005 56.1091 0.0003
# 6 0.0001 0.0002 0.0007 -5.5423 0.0003 5.2388
#
#
#
# Elastic Compliance Matrix: (Units=1/GPa)
#
#
# Indices 1 2 3 4 5 6 
#
# 1 0.010359 -0.002677 -0.002715 0.000000 0.001069 0.000000
# 2 -0.002677 0.014372 -0.002139 0.000001 0.000542 0.000001
# 3 -0.002715 -0.002139 0.011342 0.000003 -0.001041 0.000002
# 4 0.000000 0.000001 0.000003 -0.192083 0.000003 -0.203212
# 5 0.001069 0.000542 -0.001041 0.000003 0.018016 0.000002
# 6 0.000000 0.000001 0.000002 -0.203212 0.000002 -0.024102
#
#
# Mechanical properties :
#
#
# Convention : Reuss Voigt Hill
#
# Bulk Modulus (GPa) = 47.59671 49.32189 48.45930
# Shear Modulus (GPa) = -35.70662 26.52717 -4.58972
#
# Velocity S-wave (km/s) = -3.91120 3.37117 -1.40226
# Velocity P-wave (km/s) = 0.07205 6.02358 4.25901
#
# Compressibility (1/GPa) = 0.02100986
#
# Stress axis : x y z
#
# Youngs Moduli (GPa) = 96.53459 69.58119 88.17157
#
# Poissons Ratio (x) = 0.18625 0.23940
# Poissons Ratio (y) = 0.25839 0.18862
# Poissons Ratio (z) = 0.26211 0.14885
#
# Static dielectric constant tensor:
#      x y z
#    x 1.936370 0.000000 0.028860 
#    y 0.000000 1.902330 0.000000 
#    z 0.028860 0.000000 1.973800 
# 
# From -- ./inp_files/205536.got.cif
#   From: 2010.05.17/outbox.cif.g08.bks.cpg/sg15_103_cif.got.tgz:205536.got - 2010.06.03 18:47:42.
