data_PCOD9302257
_publ_section_title
;
Structure prediction by ZEFSAII (Michael W. Deem and Ramdas Pophale) SiO2 
 PCOD9302257
Probable space group: C 2/C
;
_chemical_formula_sum "Si O2"
_cell_formula_units_Z 32
_cell_length_a 20.994109
_cell_length_b 5.265144
_cell_length_c 14.866885
_cell_angle_alpha 90.000000
_cell_angle_beta 134.757589
_cell_angle_gamma 90.000000
_cell_volume 1166.923475
_symmetry_space_group_name_H-M "C 2/C"
_symmetry_group_IT_number 15
_symmetry_cell_setting 'monoclinic'
loop_
_space_group_symop_operation_xyz
x,y,z
-x,y,1/2-z
-x,-y,-z
x,-y,1/2+z
1/2+x,1/2+y,z
1/2-x,1/2+y,1/2-z
1/2-x,1/2-y,-z
1/2+x,1/2-y,1/2+z
loop_
_atom_site_type_symbol
_atom_site_label
_atom_site_fract_x
_atom_site_fract_y
_atom_site_fract_z
Si Si1 0.673846 0.500280 0.828520
Si Si2 0.981037 0.315533 0.369428
Si Si3 0.142993 0.399639 0.946535
Si Si4 0.116401 0.897802 0.580301
O O1 0.596881 0.290680 0.773850
O O2 0.646022 0.749527 0.856520
O O3 0.664156 0.534800 0.711149
O O4 0.773407 0.415825 0.953856
O O5 0.046765 0.509782 0.386651
O O6 0.041746 0.076473 0.460931
O O7 0.924301 0.348879 0.405865
O O8 0.172674 0.191009 0.052215
#
# Coordination Sequence:
#
# PCOD9302257 Si02
#       4
#     8   8   8   8
#     4   9  23  41  68 118 140 182 257 293 361 457
#     4   9  21  44  67 105 145 192 239 297 369 433
#     4  11  21  43  76 103 151 194 230 315 372 414
#     4   9  21  41  69 107 143 181 251 288 368 443
#
# _framework density 27.422536000000001
#
# number of rings (size 3 to 8) (size 9 to 14) (size 15 to 20)
#    1.500    1.000    0.000    0.750    3.500    1.000 
#    0.000   15.000    0.000    1.500    0.000    0.000 
#    0.000    0.000    0.000    0.000    0.000    0.000 
#
# Total GULP energy -89345.298309 kJ/mol
# GULP energy per Si atom -5584.081144 kJ/mol
# Density = 2.736012 g / cm^3
# Si number density = 27.422536 Si / 1000 Ang^3
#
#
#
# Elastic Constant Matrix: (Units=GPa)
#
#
# Indices 1 2 3 4 5 6 
#
# 1 104.7336 32.6894 48.0283 0.0000 -14.4859 0.0000
# 2 32.6894 56.2933 22.8711 0.0004 -5.7246 0.0002
# 3 48.0283 22.8711 153.3371 -0.0001 4.3130 0.0000
# 4 0.0000 0.0004 -0.0001 29.6179 0.0000 1.3404
# 5 -14.4859 -5.7246 4.3130 0.0000 49.4871 0.0000
# 6 0.0000 0.0002 0.0000 1.3404 0.0000 55.8742
#
#
#
# Elastic Compliance Matrix: (Units=1/GPa)
#
#
# Indices 1 2 3 4 5 6 
#
# 1 0.013510 -0.006094 -0.003423 0.000000 0.003548 0.000000
# 2 -0.006094 0.021957 -0.001391 0.000000 0.000877 0.000000
# 3 -0.003423 -0.001391 0.007853 0.000000 -0.001847 0.000000
# 4 0.000000 0.000000 0.000000 0.033800 0.000000 -0.000811
# 5 0.003548 0.000877 -0.001847 0.000000 0.021508 0.000000
# 6 0.000000 0.000000 0.000000 -0.000811 0.000000 0.017917
#
#
# Mechanical properties :
#
#
# Convention : Reuss Voigt Hill
#
# Bulk Modulus (GPa) = 46.49975 57.94904 52.22439
# Shear Modulus (GPa) = 34.35730 41.04753 37.70242
#
# Velocity S-wave (km/s) = 3.54345 3.87312 3.71195
# Velocity P-wave (km/s) = 5.80818 6.41710 6.12022
#
# Compressibility (1/GPa) = 0.02150549
#
# Stress axis : x y z
#
# Youngs Moduli (GPa) = 74.01726 45.54301 127.33959
#
# Poissons Ratio (x) = 0.27754 0.43583
# Poissons Ratio (y) = 0.45107 0.17712
# Poissons Ratio (z) = 0.25333 0.06335
#
# Static dielectric constant tensor:
#      x y z
#    x 2.189950 0.000000 0.057250 
#    y 0.000000 2.218650 0.000000 
#    z 0.057250 0.000000 2.285490 
# 
# From -- ./inp_files/212781.got.cif
#   From: 2010.05.17/outbox.cif.g08.bks.cpg/sg15_107_cif.got.tgz:212781.got - 2010.06.03 18:47:42.
