data_PCOD9302733
_publ_section_title
;
Structure prediction by ZEFSAII (Michael W. Deem and Ramdas Pophale) SiO2 
 PCOD9302733
Probable space group: C 2/C
;
_chemical_formula_sum "Si O2"
_cell_formula_units_Z 56
_cell_length_a 11.242304
_cell_length_b 16.620269
_cell_length_c 14.814768
_cell_angle_alpha 90.000000
_cell_angle_beta 107.264720
_cell_angle_gamma 90.000000
_cell_volume 2643.419009
_symmetry_space_group_name_H-M "C 2/C"
_symmetry_group_IT_number 15
_symmetry_cell_setting 'monoclinic'
loop_
_space_group_symop_operation_xyz
x,y,z
-x,y,1/2-z
-x,-y,-z
x,-y,1/2+z
1/2+x,1/2+y,z
1/2-x,1/2+y,1/2-z
1/2-x,1/2-y,-z
1/2+x,1/2-y,1/2+z
loop_
_atom_site_type_symbol
_atom_site_label
_atom_site_fract_x
_atom_site_fract_y
_atom_site_fract_z
Si Si1 0.122713 0.699026 0.466560
Si Si2 0.642986 0.253859 0.050937
Si Si3 0.000000 0.255237 0.750000
Si Si4 0.874083 0.886911 0.320580
Si Si5 0.761062 0.400439 0.829560
Si Si6 0.000000 0.976127 0.750000
Si Si7 0.640532 0.015851 0.498233
Si Si8 0.361002 0.015824 0.711614
O O1 0.250000 0.750000 0.500000
O O2 0.065291 0.701575 0.350708
O O3 0.159480 0.610763 0.507896
O O4 0.001224 0.727462 0.497400
O O5 0.630326 0.345257 0.083049
O O6 0.696579 0.188393 0.134805
O O7 0.750000 0.250000 0.000000
O O8 0.900674 0.190175 0.765136
O O9 0.741081 0.925139 0.270478
O O10 0.973291 0.958612 0.324770
O O11 0.618195 0.417712 0.775237
O O12 0.844900 0.434833 0.766621
O O13 0.782060 0.458360 0.920028
O O14 0.500000 0.000000 0.500000
O O15 0.663244 0.995625 0.399126
O O16 0.500000 0.047075 0.750000
#
# Coordination Sequence:
#
# PCOD9302733 Si02
#       8
#     8   8   4   8   8   4   8   8
#     4  11  26  42  70 102 132 183 236 280 350 422
#     4  11  23  44  65  95 142 177 221 295 355 402
#     4   9  22  44  66  90 135 174 224 285 336 408
#     4   9  21  39  66  89 129 174 222 275 341 409
#     4  11  24  45  68  98 141 177 231 290 349 419
#     4   9  22  46  70  96 133 190 234 277 350 426
#     4  12  24  40  68  98 137 174 231 288 342 415
#     4  11  22  39  67  98 127 178 222 274 349 405
#
# _framework density 21.184685999999999
#
# number of rings (size 3 to 8) (size 9 to 14) (size 15 to 20)
#    0.000    1.429    2.857    0.857   13.000    0.000 
#    7.714    3.571    0.000    0.000    0.000    0.000 
#    0.000    0.000    0.000    0.000    0.000    0.000 
#
# Total GULP energy -156112.288262 kJ/mol
# GULP energy per Si atom -5575.438867 kJ/mol
# Density = 2.113647 g / cm^3
# Si number density = 21.184686 Si / 1000 Ang^3
#
#
#
# Elastic Constant Matrix: (Units=GPa)
#
#
# Indices 1 2 3 4 5 6 
#
# 1 108.4214 41.4745 17.4747 0.0000 -12.9263 0.0000
# 2 41.4745 99.7172 8.9957 0.0000 1.5982 0.0000
# 3 17.4747 8.9957 68.5625 0.0000 -18.3966 0.0000
# 4 0.0000 0.0000 0.0000 25.5184 0.0000 4.8728
# 5 -12.9263 1.5982 -18.3966 0.0000 33.9630 0.0000
# 6 0.0000 0.0000 0.0000 4.8728 0.0000 27.1914
#
#
#
# Elastic Compliance Matrix: (Units=1/GPa)
#
#
# Indices 1 2 3 4 5 6 
#
# 1 0.011759 -0.004839 -0.001287 0.000000 0.004006 0.000000
# 2 -0.004839 0.012197 -0.001188 0.000000 -0.003059 0.000000
# 3 -0.001287 -0.001188 0.017496 0.000000 0.009043 0.000000
# 4 0.000000 0.000000 0.000000 0.040576 0.000000 -0.007271
# 5 0.004006 -0.003059 0.009043 0.000000 0.036010 0.000000
# 6 0.000000 0.000000 0.000000 -0.007271 0.000000 0.038079
#
#
# Mechanical properties :
#
#
# Convention : Reuss Voigt Hill
#
# Bulk Modulus (GPa) = 37.28044 45.84342 41.56193
# Shear Modulus (GPa) = 27.82607 31.25165 29.53886
#
# Velocity S-wave (km/s) = 3.62815 3.84500 3.73815
# Velocity P-wave (km/s) = 5.93189 6.43420 6.18814
#
# Compressibility (1/GPa) = 0.02682372
#
# Stress axis : x y z
#
# Youngs Moduli (GPa) = 85.03791 81.98586 57.15755
#
# Poissons Ratio (x) = 0.39674 0.07358
# Poissons Ratio (y) = 0.41151 0.06789
# Poissons Ratio (z) = 0.10947 0.09738
#
# Static dielectric constant tensor:
#      x y z
#    x 1.832730 0.000000 -0.047900 
#    y 0.000000 1.763570 0.000000 
#    z -0.047900 0.000000 1.826060 
# 
# From -- ./inp_files/145776.got.cif
#   From: 2010.05.17/outbox.cif.g08.bks.cpg/sg15_73_cif.got.tgz:145776.got - 2010.06.03 18:47:42.
