data_PCOD9302073
_publ_section_title
;
Structure prediction by ZEFSAII (Michael W. Deem and Ramdas Pophale) SiO2 
 PCOD9302073
Probable space group: C 2/C
;
_chemical_formula_sum "Si O2"
_cell_formula_units_Z 40
_cell_length_a 12.584664
_cell_length_b 22.311710
_cell_length_c 9.963160
_cell_angle_alpha 90.000000
_cell_angle_beta 38.168829
_cell_angle_gamma 90.000000
_cell_volume 1728.807136
_symmetry_space_group_name_H-M "C 2/C"
_symmetry_group_IT_number 15
_symmetry_cell_setting 'monoclinic'
loop_
_space_group_symop_operation_xyz
x,y,z
-x,y,1/2-z
-x,-y,-z
x,-y,1/2+z
1/2+x,1/2+y,z
1/2-x,1/2+y,1/2-z
1/2-x,1/2-y,-z
1/2+x,1/2-y,1/2+z
loop_
_atom_site_type_symbol
_atom_site_label
_atom_site_fract_x
_atom_site_fract_y
_atom_site_fract_z
Si Si1 0.793391 0.886620 0.672347
Si Si2 0.616542 0.724084 0.243300
Si Si3 0.845182 0.061383 0.608944
Si Si4 0.543394 0.144088 0.861826
Si Si5 0.206744 0.532441 0.033461
O O1 0.828992 0.819907 0.692894
O O2 0.773648 0.905818 0.537330
O O3 0.955305 0.923497 0.569172
O O4 0.599415 0.895016 0.920071
O O5 0.500000 0.689070 0.250000
O O6 0.536540 0.784128 0.387649
O O7 0.750000 0.750000 0.000000
O O8 0.732686 0.121542 0.706080
O O9 0.795123 0.019711 0.533638
O O10 0.770002 0.032082 0.819062
O O11 0.500000 0.134452 0.750000
O O12 0.000000 0.527637 0.250000
#
# Coordination Sequence:
#
# PCOD9302073 Si02
#       5
#     8   8   8   8   8
#     4  12  26  44  75 106 151 190 245 305 366 434
#     4  11  21  41  71 110 149 187 248 299 357 434
#     4  12  28  48  76 109 147 195 249 304 373 441
#     4  11  24  44  72 111 149 193 244 303 367 428
#     4  12  27  52  76 107 150 196 245 310 373 443
#
# _framework density 23.137340999999999
#
# number of rings (size 3 to 8) (size 9 to 14) (size 15 to 20)
#    0.000    0.400    6.000    3.600    2.800    0.000 
#    0.000    1.000    4.400    0.000    0.000    0.000 
#    0.000    0.000    0.000    0.000    0.000    0.000 
#
# Total GULP energy -111738.343129 kJ/mol
# GULP energy per Si atom -5586.917156 kJ/mol
# Density = 2.308468 g / cm^3
# Si number density = 23.137341 Si / 1000 Ang^3
#
#
#
# Elastic Constant Matrix: (Units=GPa)
#
#
# Indices 1 2 3 4 5 6 
#
# 1 94.4144 41.3163 22.1375 0.0000 -20.1405 0.0000
# 2 41.3163 90.7463 40.1164 0.0000 -4.7468 0.0000
# 3 22.1375 40.1164 91.9752 0.0000 -15.0616 0.0000
# 4 0.0000 0.0000 0.0000 32.6222 0.0000 -0.7863
# 5 -20.1405 -4.7468 -15.0616 0.0000 44.5274 0.0000
# 6 0.0000 0.0000 0.0000 -0.7863 0.0000 49.7233
#
#
#
# Elastic Compliance Matrix: (Units=1/GPa)
#
#
# Indices 1 2 3 4 5 6 
#
# 1 0.014647 -0.006481 0.000289 0.000000 0.006032 0.000000
# 2 -0.006481 0.016534 -0.006186 0.000000 -0.003261 0.000000
# 3 0.000289 -0.006186 0.014201 0.000000 0.004275 0.000000
# 4 0.000000 0.000000 0.000000 0.030666 0.000000 0.000485
# 5 0.006032 -0.003261 0.004275 0.000000 0.026285 0.000000
# 6 0.000000 0.000000 0.000000 0.000485 0.000000 0.020119
#
#
# Mechanical properties :
#
#
# Convention : Reuss Voigt Hill
#
# Bulk Modulus (GPa) = 48.48038 53.80850 51.14444
# Shear Modulus (GPa) = 32.45022 36.94562 34.69792
#
# Velocity S-wave (km/s) = 3.74907 4.00033 3.87673
# Velocity P-wave (km/s) = 6.30392 6.68158 6.49549
#
# Compressibility (1/GPa) = 0.02062690
#
# Stress axis : x y z
#
# Youngs Moduli (GPa) = 68.27549 60.47979 70.41742
#
# Poissons Ratio (x) = 0.39196 -0.02036
# Poissons Ratio (y) = 0.44248 0.43560
# Poissons Ratio (z) = -0.01974 0.37412
#
# Static dielectric constant tensor:
#      x y z
#    x 1.893100 0.000000 -0.089320 
#    y 0.000000 1.924090 0.000000 
#    z -0.089320 0.000000 1.967830 
# 
# From -- ./inp_files/98996.got.cif
#   From: 2010.05.17/outbox.cif.g08.bks.cpg/sg15_50_cif.got.tgz:98996.got - 2010.06.03 18:47:42.
