data_PCOD9302554
_publ_section_title
;
Structure prediction by ZEFSAII (Michael W. Deem and Ramdas Pophale) SiO2 
 PCOD9302554
Probable space group: C 2/C
;
_chemical_formula_sum "Si O2"
_cell_formula_units_Z 48
_cell_length_a 21.914759
_cell_length_b 12.460393
_cell_length_c 16.028074
_cell_angle_alpha 90.000000
_cell_angle_beta 144.686165
_cell_angle_gamma 90.000000
_cell_volume 2529.989377
_symmetry_space_group_name_H-M "C 2/C"
_symmetry_group_IT_number 15
_symmetry_cell_setting 'monoclinic'
loop_
_space_group_symop_operation_xyz
x,y,z
-x,y,1/2-z
-x,-y,-z
x,-y,1/2+z
1/2+x,1/2+y,z
1/2-x,1/2+y,1/2-z
1/2-x,1/2-y,-z
1/2+x,1/2-y,1/2+z
loop_
_atom_site_type_symbol
_atom_site_label
_atom_site_fract_x
_atom_site_fract_y
_atom_site_fract_z
Si Si1 0.792784 0.394557 0.990990
Si Si2 0.624470 0.871356 0.894988
Si Si3 0.650072 0.405637 0.671600
Si Si4 0.236203 0.299273 0.851302
Si Si5 0.912897 0.148270 0.921546
Si Si6 0.886573 0.166325 0.088667
O O1 0.726979 0.374619 0.832856
O O2 0.706754 0.396911 0.969182
O O3 0.853443 0.506501 0.053042
O O4 0.866664 0.291696 0.087627
O O5 0.500000 0.850780 0.750000
O O6 0.679726 0.853517 0.867018
O O7 0.680910 0.787896 0.020327
O O8 0.704555 0.380306 0.644435
O O9 0.622267 0.531001 0.649517
O O10 0.539060 0.343462 0.553243
O O11 0.148987 0.236593 0.699844
O O12 0.885211 0.154097 0.988120
O O13 0.000000 0.131392 0.250000
#
# Coordination Sequence:
#
# PCOD9302554 Si02
#       6
#     8   8   8   8   8   8
#     4  11  22  39  61  88 128 158 196 252 294 351
#     4  11  24  44  62  88 120 157 202 244 304 353
#     4  11  22  39  61  93 120 155 203 245 296 349
#     4  11  23  42  65  87 118 159 199 250 293 356
#     4  11  22  39  63  88 123 157 200 248 293 352
#     4  11  22  38  62  91 123 164 199 241 300 354
#
# _framework density 18.972411999999998
#
# number of rings (size 3 to 8) (size 9 to 14) (size 15 to 20)
#    0.000    1.000    5.000    2.500    0.000    0.000 
#    0.000    1.667    0.000    0.000    0.000    0.000 
#    0.000    0.000    0.000    0.000    0.000    0.000 
#
# Total GULP energy -134154.329894 kJ/mol
# GULP energy per Si atom -5589.763746 kJ/mol
# Density = 1.892923 g / cm^3
# Si number density = 18.972412 Si / 1000 Ang^3
#
#
#
# Elastic Constant Matrix: (Units=GPa)
#
#
# Indices 1 2 3 4 5 6 
#
# 1 73.2947 -12.5555 13.2126 0.0000 -0.2116 0.0000
# 2 -12.5555 33.7966 -0.2682 0.0000 10.1956 0.0000
# 3 13.2126 -0.2682 78.3675 0.0000 1.7361 0.0000
# 4 0.0000 0.0000 0.0000 11.8966 0.0000 -4.1750
# 5 -0.2116 10.1956 1.7361 0.0000 33.8614 0.0000
# 6 0.0000 0.0000 0.0000 -4.1750 0.0000 20.4923
#
#
#
# Elastic Compliance Matrix: (Units=1/GPa)
#
#
# Indices 1 2 3 4 5 6 
#
# 1 0.015131 0.006087 -0.002495 0.000000 -0.001610 0.000000
# 2 0.006087 0.035002 -0.000675 0.000000 -0.010467 0.000000
# 3 -0.002495 -0.000675 0.013189 0.000000 -0.000489 0.000000
# 4 0.000000 0.000000 0.000000 0.090530 0.000000 0.018444
# 5 -0.001610 -0.010467 -0.000489 0.000000 0.032699 0.000000
# 6 0.000000 0.000000 0.000000 0.018444 0.000000 0.052557
#
#
# Mechanical properties :
#
#
# Convention : Reuss Voigt Hill
#
# Bulk Modulus (GPa) = 14.45935 20.69297 17.57616
# Shear Modulus (GPa) = 19.50644 25.58806 22.54725
#
# Velocity S-wave (km/s) = 3.20995 3.67645 3.45109
# Velocity P-wave (km/s) = 4.62344 5.38073 5.01639
#
# Compressibility (1/GPa) = 0.06915942
#
# Stress axis : x y z
#
# Youngs Moduli (GPa) = 66.08790 28.56949 75.81794
#
# Poissons Ratio (x) = -0.17391 0.18914
# Poissons Ratio (y) = -0.40230 0.05115
# Poissons Ratio (z) = 0.16486 0.01927
#
# Static dielectric constant tensor:
#      x y z
#    x 1.636350 0.000000 0.004370 
#    y 0.000000 1.632990 0.000000 
#    z 0.004370 0.000000 1.625810 
# 
# From -- ./inp_files/104192.got.cif
#   From: 2010.05.17/outbox.cif.g08.bks.cpg/sg15_53_cif.got.tgz:104192.got - 2010.06.03 18:47:42.
