data_PCOD9302104
_publ_section_title
;
Structure prediction by ZEFSAII (Michael W. Deem and Ramdas Pophale) SiO2 
 PCOD9302104
Probable space group: C 2/C
;
_chemical_formula_sum "Si O2"
_cell_formula_units_Z 32
_cell_length_a 9.977908
_cell_length_b 10.179015
_cell_length_c 12.496860
_cell_angle_alpha 90.000000
_cell_angle_beta 110.038186
_cell_angle_gamma 90.000000
_cell_volume 1192.412478
_symmetry_space_group_name_H-M "C 2/C"
_symmetry_group_IT_number 15
_symmetry_cell_setting 'monoclinic'
loop_
_space_group_symop_operation_xyz
x,y,z
-x,y,1/2-z
-x,-y,-z
x,-y,1/2+z
1/2+x,1/2+y,z
1/2-x,1/2+y,1/2-z
1/2-x,1/2-y,-z
1/2+x,1/2-y,1/2+z
loop_
_atom_site_type_symbol
_atom_site_label
_atom_site_fract_x
_atom_site_fract_y
_atom_site_fract_z
Si Si1 0.010755 0.082181 0.383040
Si Si2 0.663994 0.088194 0.011143
Si Si3 0.406302 0.700898 0.828581
Si Si4 0.878127 0.340974 0.367175
O O1 0.171213 0.120440 0.461150
O O2 0.000000 0.094645 0.250000
O O3 0.895134 0.186315 0.392369
O O4 0.980596 0.929934 0.395429
O O5 0.885682 0.324458 0.900251
O O6 0.542189 0.114698 0.889555
O O7 0.661775 0.936477 0.046273
O O8 0.500000 0.738062 0.750000
O O9 0.250776 0.649145 0.750055
#
# Coordination Sequence:
#
# PCOD9302104 Si02
#       4
#     8   8   8   8
#     4  11  21  42  64  85 124 159 196 251 299 348
#     4  11  24  42  62  90 123 156 202 251 294 356
#     4  11  22  42  63  87 126 160 195 250 300 351
#     4  11  22  41  64  90 120 160 202 244 300 357
#
# _framework density 26.836352999999999
#
# number of rings (size 3 to 8) (size 9 to 14) (size 15 to 20)
#    0.000    1.000    7.500    0.750    0.000    3.000 
#    4.500    0.000    0.000    0.000    0.000    0.000 
#    0.000    0.000    0.000    0.000    0.000    0.000 
#
# Total GULP energy -89622.540284 kJ/mol
# GULP energy per Si atom -5601.408768 kJ/mol
# Density = 2.677527 g / cm^3
# Si number density = 26.836353 Si / 1000 Ang^3
#
#
#
# Elastic Constant Matrix: (Units=GPa)
#
#
# Indices 1 2 3 4 5 6 
#
# 1 155.0481 36.6993 55.4780 0.0000 15.3571 0.0000
# 2 36.6993 130.9936 29.7716 0.0000 -23.9711 0.0000
# 3 55.4780 29.7716 112.1190 0.0000 35.8218 0.0000
# 4 0.0000 0.0000 0.0000 36.1805 0.0000 7.6088
# 5 15.3571 -23.9711 35.8218 0.0000 72.4694 0.0000
# 6 0.0000 0.0000 0.0000 7.6088 0.0000 55.7541
#
#
#
# Elastic Compliance Matrix: (Units=1/GPa)
#
#
# Indices 1 2 3 4 5 6 
#
# 1 0.008102 -0.001599 -0.003404 0.000000 -0.000563 0.000000
# 2 -0.001599 0.009865 -0.003538 0.000000 0.005351 0.000000
# 3 -0.003404 -0.003538 0.013878 0.000000 -0.007309 0.000000
# 4 0.000000 0.000000 0.000000 0.028456 0.000000 -0.003883
# 5 -0.000563 0.005351 -0.007309 0.000000 0.019301 0.000000
# 6 0.000000 0.000000 0.000000 -0.003883 0.000000 0.018466
#
#
# Mechanical properties :
#
#
# Convention : Reuss Voigt Hill
#
# Bulk Modulus (GPa) = 67.73903 71.33985 69.53944
# Shear Modulus (GPa) = 41.64165 51.29492 46.46828
#
# Velocity S-wave (km/s) = 3.94342 4.37670 4.16569
# Velocity P-wave (km/s) = 6.78457 7.22368 7.00757
#
# Compressibility (1/GPa) = 0.01476254
#
# Stress axis : x y z
#
# Youngs Moduli (GPa) = 123.42539 101.36615 72.05508
#
# Poissons Ratio (x) = 0.16210 0.24531
# Poissons Ratio (y) = 0.19738 0.25492
# Poissons Ratio (z) = 0.42020 0.35862
#
# Static dielectric constant tensor:
#      x y z
#    x 2.090920 0.000000 -0.052320 
#    y 0.000000 2.062660 0.000000 
#    z -0.052320 0.000000 2.181380 
# 
# From -- ./inp_files/132059.got.cif
#   From: 2010.05.17/outbox.cif.g08.bks.cpg/sg15_67_cif.got.tgz:132059.got - 2010.06.03 18:47:42.
