data_PCOD9302958
_publ_section_title
;
Structure prediction by ZEFSAII (Michael W. Deem and Ramdas Pophale) SiO2 
 PCOD9302958
Probable space group: C 2/C
;
_chemical_formula_sum "Si O2"
_cell_formula_units_Z 56
_cell_length_a 10.603076
_cell_length_b 20.329593
_cell_length_c 9.769525
_cell_angle_alpha 90.000000
_cell_angle_beta 92.451191
_cell_angle_gamma 90.000000
_cell_volume 2103.955031
_symmetry_space_group_name_H-M "C 2/C"
_symmetry_group_IT_number 15
_symmetry_cell_setting 'monoclinic'
loop_
_space_group_symop_operation_xyz
x,y,z
-x,y,1/2-z
-x,-y,-z
x,-y,1/2+z
1/2+x,1/2+y,z
1/2-x,1/2+y,1/2-z
1/2-x,1/2-y,-z
1/2+x,1/2-y,1/2+z
loop_
_atom_site_type_symbol
_atom_site_label
_atom_site_fract_x
_atom_site_fract_y
_atom_site_fract_z
Si Si1 0.982714 0.403257 0.594952
Si Si2 0.238133 0.093046 0.407556
Si Si3 0.048705 0.264801 0.960144
Si Si4 0.693665 0.699088 0.193713
Si Si5 0.140134 0.927260 0.314446
Si Si6 0.294042 0.694553 0.857640
Si Si7 0.717141 0.523755 0.088191
O O1 0.976158 0.340340 0.496258
O O2 0.862297 0.450362 0.586768
O O3 0.000000 0.374959 0.750000
O O4 0.119170 0.434820 0.583675
O O5 0.197672 0.126013 0.260384
O O6 0.237336 0.156200 0.506356
O O7 0.168076 0.039755 0.496556
O O8 0.174730 0.280065 0.874814
O O9 0.928126 0.231978 0.881969
O O10 0.086600 0.215041 0.081263
O O11 0.688536 0.753186 0.312269
O O12 0.202597 0.861403 0.258782
O O13 0.198195 0.992696 0.240111
O O14 0.000000 0.926296 0.250000
O O15 0.150265 0.925068 0.479641
#
# Coordination Sequence:
#
# PCOD9302958 Si02
#       7
#     8   8   8   8   8   8   8
#     4  12  22  43  72 101 145 190 239 304 357 433
#     4  11  24  43  66  99 147 184 233 304 356 434
#     4  11  23  39  70 100 133 187 235 297 365 433
#     4  11  22  41  65 101 136 180 240 289 368 431
#     4  11  24  47  72 102 146 191 245 306 356 437
#     4  11  23  44  66 100 144 181 237 303 363 427
#     4  11  26  45  71 106 141 197 247 296 369 431
#
# _framework density 26.616539
#
# number of rings (size 3 to 8) (size 9 to 14) (size 15 to 20)
#    0.000    0.857    2.857    4.286    0.000    1.714 
#    5.143    5.000    0.000    0.000    0.000    0.000 
#    0.000    0.000    0.000    0.000    0.000    0.000 
#
# Total GULP energy -156340.569222 kJ/mol
# GULP energy per Si atom -5583.591758 kJ/mol
# Density = 2.655596 g / cm^3
# Si number density = 26.616539 Si / 1000 Ang^3
#
#
#
# Elastic Constant Matrix: (Units=GPa)
#
#
# Indices 1 2 3 4 5 6 
#
# 1 69.0108 -8.1663 16.5766 0.0000 16.4185 0.0000
# 2 -8.1663 79.8932 -9.0102 0.0000 18.3370 0.0000
# 3 16.5766 -9.0102 98.7554 0.0000 31.3003 0.0000
# 4 0.0000 0.0000 0.0000 40.2020 0.0000 -5.4299
# 5 16.4185 18.3370 31.3003 0.0000 36.5608 0.0000
# 6 0.0000 0.0000 0.0000 -5.4299 0.0000 44.0198
#
#
#
# Elastic Compliance Matrix: (Units=1/GPa)
#
#
# Indices 1 2 3 4 5 6 
#
# 1 0.017340 0.004330 0.000879 0.000000 -0.010712 0.000000
# 2 0.004330 0.017155 0.005739 0.000000 -0.015462 0.000000
# 3 0.000879 0.005739 0.015837 0.000000 -0.016831 0.000000
# 4 0.000000 0.000000 0.000000 0.025296 0.000000 0.003120
# 5 -0.010712 -0.015462 -0.016831 0.000000 0.054327 0.000000
# 6 0.000000 0.000000 0.000000 0.003120 0.000000 0.023102
#
#
# Mechanical properties :
#
#
# Convention : Reuss Voigt Hill
#
# Bulk Modulus (GPa) = 13.84476 27.38441 20.61458
# Shear Modulus (GPa) = 32.20907 40.70712 36.45810
#
# Velocity S-wave (km/s) = 3.48244 3.91499 3.70503
# Velocity P-wave (km/s) = 4.62415 5.54500 5.10538
#
# Compressibility (1/GPa) = 0.07222952
#
# Stress axis : x y z
#
# Youngs Moduli (GPa) = 57.66993 58.29068 63.14453
#
# Poissons Ratio (x) = -0.25241 -0.05554
# Poissons Ratio (y) = -0.24972 -0.36239
# Poissons Ratio (z) = -0.05072 -0.33453
#
# Static dielectric constant tensor:
#      x y z
#    x 2.192440 0.000000 -0.130540 
#    y 0.000000 2.151830 0.000000 
#    z -0.130540 0.000000 2.246730 
# 
# From -- ./inp_files/89042.got.cif
#   From: 2010.05.17/outbox.cif.g08.bks.cpg/sg15_45_cif.got.tgz:89042.got - 2010.06.03 18:47:42.
