data_PCOD9302194
_publ_section_title
;
Structure prediction by ZEFSAII (Michael W. Deem and Ramdas Pophale) SiO2 
 PCOD9302194
Probable space group: C 2/C
;
_chemical_formula_sum "Si O2"
_cell_formula_units_Z 56
_cell_length_a 19.038790
_cell_length_b 16.626316
_cell_length_c 9.671178
_cell_angle_alpha 90.000000
_cell_angle_beta 56.868289
_cell_angle_gamma 90.000000
_cell_volume 2563.634943
_symmetry_space_group_name_H-M "C 2/C"
_symmetry_group_IT_number 15
_symmetry_cell_setting 'monoclinic'
loop_
_space_group_symop_operation_xyz
x,y,z
-x,y,1/2-z
-x,-y,-z
x,-y,1/2+z
1/2+x,1/2+y,z
1/2-x,1/2+y,1/2-z
1/2-x,1/2-y,-z
1/2+x,1/2-y,1/2+z
loop_
_atom_site_type_symbol
_atom_site_label
_atom_site_fract_x
_atom_site_fract_y
_atom_site_fract_z
Si Si1 0.455352 0.555011 0.159658
Si Si2 0.168626 0.661819 0.871879
Si Si3 0.836670 0.501885 0.787246
Si Si4 0.675531 0.753592 0.891770
Si Si5 0.742152 0.574409 0.151251
Si Si6 0.584911 0.840905 0.742883
Si Si7 0.932110 0.765934 0.730304
O O1 0.500000 0.527462 0.250000
O O2 0.354379 0.553132 0.272798
O O3 0.471918 0.651128 0.133720
O O4 0.500000 0.500000 0.000000
O O5 0.143026 0.577101 0.832448
O O6 0.263478 0.685705 0.733916
O O7 0.108363 0.722437 0.854754
O O8 0.155934 0.666987 0.048560
O O9 0.763364 0.457790 0.780954
O O10 0.909375 0.435136 0.721360
O O11 0.801623 0.534129 0.970749
O O12 0.731343 0.832060 0.869956
O O13 0.609001 0.785827 0.848393
O O14 0.636108 0.720887 0.075526
O O15 0.500000 0.823068 0.750000
O O16 0.000000 0.717588 0.750000
#
# Coordination Sequence:
#
# PCOD9302194 Si02
#       7
#     8   8   8   8   8   8   8
#     4  11  24  43  65  97 137 180 230 286 345 399
#     4  12  22  43  70  99 131 180 232 282 340 414
#     4  11  23  39  68 101 130 178 227 277 349 412
#     4  11  23  43  72  96 134 183 235 285 339 416
#     4  11  21  43  65  99 133 178 234 277 339 419
#     4  11  26  45  64 101 142 176 224 287 359 414
#     4  11  23  41  67 101 136 174 225 283 348 406
#
# _framework density 21.843985
#
# number of rings (size 3 to 8) (size 9 to 14) (size 15 to 20)
#    0.000    0.857    4.286    3.429    0.000    2.286 
#    0.000    3.571    0.000    0.000    0.000    0.000 
#    0.000    0.000    0.000    0.000    0.000    0.000 
#
# Total GULP energy -156387.953149 kJ/mol
# GULP energy per Si atom -5585.284041 kJ/mol
# Density = 2.179427 g / cm^3
# Si number density = 21.843985 Si / 1000 Ang^3
#
#
#
# Elastic Constant Matrix: (Units=GPa)
#
#
# Indices 1 2 3 4 5 6 
#
# 1 117.6732 19.6239 14.0583 0.0000 21.3814 0.0000
# 2 19.6239 82.6971 40.9898 0.0000 15.6222 0.0000
# 3 14.0583 40.9898 88.5596 0.0000 18.3219 0.0000
# 4 0.0000 0.0000 0.0000 34.7146 0.0000 7.1353
# 5 21.3814 15.6222 18.3219 0.0000 35.0905 0.0000
# 6 0.0000 0.0000 0.0000 7.1353 0.0000 20.1039
#
#
#
# Elastic Compliance Matrix: (Units=1/GPa)
#
#
# Indices 1 2 3 4 5 6 
#
# 1 0.009684 -0.001388 0.000222 0.000000 -0.005399 0.000000
# 2 -0.001388 0.016303 -0.006725 0.000000 -0.002901 0.000000
# 3 0.000222 -0.006725 0.015447 0.000000 -0.005206 0.000000
# 4 0.000000 0.000000 0.000000 0.031073 0.000000 -0.011028
# 5 -0.005399 -0.002901 -0.005206 0.000000 0.035797 0.000000
# 6 0.000000 0.000000 0.000000 -0.011028 0.000000 0.053656
#
#
# Mechanical properties :
#
#
# Convention : Reuss Voigt Hill
#
# Bulk Modulus (GPa) = 38.98513 48.69708 43.84111
# Shear Modulus (GPa) = 26.83938 32.26565 29.55251
#
# Velocity S-wave (km/s) = 3.50906 3.84747 3.68216
# Velocity P-wave (km/s) = 5.85695 6.48682 6.17992
#
# Compressibility (1/GPa) = 0.02565080
#
# Stress axis : x y z
#
# Youngs Moduli (GPa) = 103.26280 61.33731 64.73925
#
# Poissons Ratio (x) = 0.08515 -0.01439
# Poissons Ratio (y) = 0.14336 0.43540
# Poissons Ratio (z) = -0.02295 0.41252
#
# Static dielectric constant tensor:
#      x y z
#    x 1.838670 0.000000 -0.083560 
#    y 0.000000 1.823760 0.000000 
#    z -0.083560 0.000000 1.662310 
# 
# From -- ./inp_files/56469.got.cif
#   From: 2010.05.17/outbox.cif.g08.bks.cpg/sg15_29_cif.got.tgz:56469.got - 2010.06.03 18:47:42.
