data_PCOD9302000
_publ_section_title
;
Structure prediction by ZEFSAII (Michael W. Deem and Ramdas Pophale) SiO2 
 PCOD9302000
Probable space group: C 2/C
;
_chemical_formula_sum "Si O2"
_cell_formula_units_Z 64
_cell_length_a 5.317322
_cell_length_b 24.110653
_cell_length_c 22.500391
_cell_angle_alpha 90.000000
_cell_angle_beta 72.543025
_cell_angle_gamma 90.000000
_cell_volume 2751.783054
_symmetry_space_group_name_H-M "C 2/C"
_symmetry_group_IT_number 15
_symmetry_cell_setting 'monoclinic'
loop_
_space_group_symop_operation_xyz
x,y,z
-x,y,1/2-z
-x,-y,-z
x,-y,1/2+z
1/2+x,1/2+y,z
1/2-x,1/2+y,1/2-z
1/2-x,1/2-y,-z
1/2+x,1/2-y,1/2+z
loop_
_atom_site_type_symbol
_atom_site_label
_atom_site_fract_x
_atom_site_fract_y
_atom_site_fract_z
Si Si1 0.074918 0.135606 0.900000
Si Si2 0.445087 0.839546 0.184235
Si Si3 0.393078 0.442043 0.320464
Si Si4 0.309630 0.959792 0.589352
Si Si5 0.745901 0.031377 0.539865
Si Si6 0.420854 0.343135 0.912369
Si Si7 0.788887 0.225318 0.210690
Si Si8 0.321337 0.814695 0.989609
O O1 0.304831 0.179379 0.873497
O O2 0.174872 0.088621 0.937172
O O3 0.074214 0.104222 0.837317
O O4 0.794450 0.156958 0.942251
O O5 0.500000 0.840121 0.250000
O O6 0.356440 0.901639 0.172869
O O7 0.242617 0.788694 0.191462
O O8 0.500000 0.462830 0.250000
O O9 0.364508 0.489877 0.371731
O O10 0.384833 0.952766 0.514107
O O11 0.160389 0.902648 0.610783
O O12 0.587155 0.986811 0.590897
O O13 0.000000 0.000000 0.500000
O O14 0.567780 0.307954 0.851675
O O15 0.635633 0.342119 0.951040
O O16 0.133180 0.321307 0.955285
O O17 0.500000 0.203262 0.250000
O O18 0.000000 0.224890 0.250000
O O19 0.250000 0.750000 0.000000
#
# Coordination Sequence:
#
# PCOD9302000 Si02
#       8
#     8   8   8   8   8   8   8   8
#     4  12  24  40  70 101 150 193 239 312 379 445
#     4  11  24  43  68 104 140 188 244 312 372 444
#     4  12  25  41  66 104 140 185 249 301 374 433
#     4  11  25  40  68  99 144 191 239 298 353 455
#     4  11  21  41  64  97 135 193 240 284 364 438
#     4  12  27  49  73 111 148 192 255 301 373 452
#     4  11  26  49  78 103 139 196 250 309 378 448
#     4  12  28  46  72 111 152 195 245 312 378 448
#
# _framework density 23.257648
#
# number of rings (size 3 to 8) (size 9 to 14) (size 15 to 20)
#    0.000    0.500    5.000    3.000    7.000    0.500 
#    0.000    0.000    0.000    0.000    0.000    0.000 
#    0.000    0.000    0.000    0.000    0.000    0.000 
#
# Total GULP energy -178332.091631 kJ/mol
# GULP energy per Si atom -5572.877863 kJ/mol
# Density = 2.320471 g / cm^3
# Si number density = 23.257648 Si / 1000 Ang^3
#
#
#
# Elastic Constant Matrix: (Units=GPa)
#
#
# Indices 1 2 3 4 5 6 
#
# 1 99.9570 6.9228 32.4271 0.0000 -28.5582 0.0000
# 2 6.9228 112.5647 26.1216 0.0000 -18.3468 0.0000
# 3 32.4271 26.1216 98.0402 0.0000 -24.1652 0.0000
# 4 0.0000 0.0000 0.0000 11.2986 0.0000 -0.2832
# 5 -28.5582 -18.3468 -24.1652 0.0000 50.1769 0.0000
# 6 0.0000 0.0000 0.0000 -0.2832 0.0000 21.8817
#
#
#
# Elastic Compliance Matrix: (Units=1/GPa)
#
#
# Indices 1 2 3 4 5 6 
#
# 1 0.012634 0.000895 -0.002910 0.000000 0.006117 0.000000
# 2 0.000895 0.009829 -0.002160 0.000000 0.003063 0.000000
# 3 -0.002910 -0.002160 0.012635 0.000000 0.003639 0.000000
# 4 0.000000 0.000000 0.000000 0.088535 0.000000 0.001146
# 5 0.006117 0.003063 0.003639 0.000000 0.026283 0.000000
# 6 0.000000 0.000000 0.000000 0.001146 0.000000 0.045715
#
#
# Mechanical properties :
#
#
# Convention : Reuss Voigt Hill
#
# Bulk Modulus (GPa) = 37.38452 49.05611 43.22032
# Shear Modulus (GPa) = 23.48564 33.01080 28.24822
#
# Velocity S-wave (km/s) = 3.18119 3.77152 3.48886
# Velocity P-wave (km/s) = 5.44079 6.33278 5.90365
#
# Compressibility (1/GPa) = 0.02674904
#
# Stress axis : x y z
#
# Youngs Moduli (GPa) = 79.15332 101.73733 79.14712
#
# Poissons Ratio (x) = -0.09107 0.23028
# Poissons Ratio (y) = -0.07085 0.17095
# Poissons Ratio (z) = 0.23030 0.21974
#
# Static dielectric constant tensor:
#      x y z
#    x 2.127100 0.000000 -0.035840 
#    y 0.000000 1.959950 0.000000 
#    z -0.035840 0.000000 1.546350 
# 
# From -- ./inp_files/261803.got.cif
#   From: 2010.05.17/outbox.cif.g08.bks.cpg/sg15_131_cif.got.tgz:261803.got - 2010.06.03 18:47:42.
