data_PCOD9302894
_publ_section_title
;
Structure prediction by ZEFSAII (Michael W. Deem and Ramdas Pophale) SiO2 
 PCOD9302894
Probable space group: C 2/C
;
_chemical_formula_sum "Si O2"
_cell_formula_units_Z 52
_cell_length_a 25.296745
_cell_length_b 5.725852
_cell_length_c 15.220326
_cell_angle_alpha 90.000000
_cell_angle_beta 66.439310
_cell_angle_gamma 90.000000
_cell_volume 2020.813288
_symmetry_space_group_name_H-M "C 2/C"
_symmetry_group_IT_number 15
_symmetry_cell_setting 'monoclinic'
loop_
_space_group_symop_operation_xyz
x,y,z
-x,y,1/2-z
-x,-y,-z
x,-y,1/2+z
1/2+x,1/2+y,z
1/2-x,1/2+y,1/2-z
1/2-x,1/2-y,-z
1/2+x,1/2-y,1/2+z
loop_
_atom_site_type_symbol
_atom_site_label
_atom_site_fract_x
_atom_site_fract_y
_atom_site_fract_z
Si Si1 0.637219 0.484141 0.206328
Si Si2 0.760876 0.743638 0.633089
Si Si3 0.069462 0.752409 0.543388
Si Si4 0.562599 0.214807 0.356237
Si Si5 0.500000 0.903213 0.250000
Si Si6 0.172826 0.411187 0.242383
Si Si7 0.371975 0.251275 0.464282
O O1 0.705063 0.423189 0.178263
O O2 0.585936 0.467085 0.311050
O O3 0.642202 0.757975 0.188676
O O4 0.619388 0.305290 0.143592
O O5 0.803918 0.716453 0.686564
O O6 0.803625 0.723974 0.524092
O O7 0.729879 0.989441 0.660671
O O8 0.037061 0.732766 0.470569
O O9 0.100843 0.496756 0.527139
O O10 0.035347 0.761277 0.658294
O O11 0.105719 0.997560 0.511335
O O12 0.526270 0.079054 0.307290
O O13 0.625745 0.089073 0.311940
#
# Coordination Sequence:
#
# PCOD9302894 Si02
#       7
#     8   8   8   8   4   8   8
#     4  11  24  43  69 110 152 207 245 312 365 458
#     4  11  23  38  68 105 151 203 243 301 371 452
#     4  12  28  51  79 112 147 202 254 321 388 453
#     4  11  25  48  78 110 153 195 260 313 386 450
#     4  12  26  56  80 110 146 198 258 332 390 446
#     4  11  22  40  69 108 150 199 251 298 370 457
#     4  12  27  48  74 110 156 196 256 309 379 458
#
# _framework density 25.732215
#
# number of rings (size 3 to 8) (size 9 to 14) (size 15 to 20)
#    0.000    0.615    4.615    2.769    6.462    1.231 
#    2.769    1.538    0.000    0.000    0.000    0.000 
#    0.000    0.000    0.000    0.000    0.000    0.000 
#
# Total GULP energy -144956.029657 kJ/mol
# GULP energy per Si atom -5575.231910 kJ/mol
# Density = 2.567365 g / cm^3
# Si number density = 25.732215 Si / 1000 Ang^3
#
#
#
# Elastic Constant Matrix: (Units=GPa)
#
#
# Indices 1 2 3 4 5 6 
#
# 1 86.0532 21.0707 29.1421 0.0000 10.2906 0.0000
# 2 21.0707 100.1221 4.6795 0.0000 -3.3339 -0.0001
# 3 29.1421 4.6795 146.9808 0.0000 8.3762 0.0000
# 4 0.0000 0.0000 0.0000 14.1583 0.0000 2.2599
# 5 10.2906 -3.3339 8.3762 0.0000 35.7377 0.0000
# 6 0.0000 -0.0001 0.0000 2.2599 0.0000 36.0900
#
#
#
# Elastic Compliance Matrix: (Units=1/GPa)
#
#
# Indices 1 2 3 4 5 6 
#
# 1 0.013564 -0.002863 -0.002392 0.000000 -0.003612 0.000000
# 2 -0.002863 0.010644 0.000127 0.000000 0.001788 0.000000
# 3 -0.002392 0.000127 0.007332 0.000000 -0.001018 0.000000
# 4 0.000000 0.000000 0.000000 0.071343 0.000000 -0.004467
# 5 -0.003612 0.001788 -0.001018 0.000000 0.029427 0.000000
# 6 0.000000 0.000000 0.000000 -0.004467 0.000000 0.027988
#
#
# Mechanical properties :
#
#
# Convention : Reuss Voigt Hill
#
# Bulk Modulus (GPa) = 46.98621 49.21565 48.10093
# Shear Modulus (GPa) = 28.14534 35.74810 31.94672
#
# Velocity S-wave (km/s) = 3.31082 3.73129 3.52732
# Velocity P-wave (km/s) = 5.73713 6.14255 5.94330
#
# Compressibility (1/GPa) = 0.02128284
#
# Stress axis : x y z
#
# Youngs Moduli (GPa) = 73.72538 93.95042 136.39033
#
# Poissons Ratio (x) = 0.26898 0.32629
# Poissons Ratio (y) = 0.21107 -0.01731
# Poissons Ratio (z) = 0.17638 -0.01192
#
# Static dielectric constant tensor:
#      x y z
#    x 2.080190 0.000000 0.109100 
#    y 0.000000 2.150130 0.000000 
#    z 0.109100 0.000000 2.101770 
# 
# From -- ./inp_files/221156.got.cif
#   From: 2010.05.17/outbox.cif.g08.bks.cpg/sg15_111_cif.got.tgz:221156.got - 2010.06.03 18:47:42.
