data_PCOD9302826
_publ_section_title
;
Structure prediction by ZEFSAII (Michael W. Deem and Ramdas Pophale) SiO2 
 PCOD9302826
Probable space group: C 2/C
;
_chemical_formula_sum "Si O2"
_cell_formula_units_Z 60
_cell_length_a 17.354411
_cell_length_b 15.240285
_cell_length_c 13.231258
_cell_angle_alpha 90.000000
_cell_angle_beta 120.712477
_cell_angle_gamma 90.000000
_cell_volume 3008.650772
_symmetry_space_group_name_H-M "C 2/C"
_symmetry_group_IT_number 15
_symmetry_cell_setting 'monoclinic'
loop_
_space_group_symop_operation_xyz
x,y,z
-x,y,1/2-z
-x,-y,-z
x,-y,1/2+z
1/2+x,1/2+y,z
1/2-x,1/2+y,1/2-z
1/2-x,1/2-y,-z
1/2+x,1/2-y,1/2+z
loop_
_atom_site_type_symbol
_atom_site_label
_atom_site_fract_x
_atom_site_fract_y
_atom_site_fract_z
Si Si1 0.810991 0.288168 0.767263
Si Si2 0.500000 0.657088 0.250000
Si Si3 0.239769 0.096233 0.736051
Si Si4 0.573932 0.204100 0.951583
Si Si5 0.330383 0.575679 0.231073
Si Si6 0.067617 0.416429 0.053797
Si Si7 0.215506 0.427073 0.452604
Si Si8 0.100279 0.401586 0.847520
O O1 0.777357 0.189603 0.723275
O O2 0.728934 0.351991 0.747320
O O3 0.863013 0.330281 0.706961
O O4 0.878853 0.281495 0.908348
O O5 0.442408 0.715591 0.133565
O O6 0.430178 0.605182 0.272516
O O7 0.337522 0.059250 0.833992
O O8 0.239728 0.112239 0.616586
O O9 0.172650 0.018178 0.716817
O O10 0.480106 0.156177 0.910461
O O11 0.636872 0.136234 0.935673
O O12 0.281470 0.563443 0.090482
O O13 0.088488 0.377547 0.957237
O O14 0.000000 0.500000 0.000000
O O15 0.170441 0.519055 0.393962
O O16 0.000000 0.430974 0.750000
#
# Coordination Sequence:
#
# PCOD9302826 Si02
#       8
#     8   4   8   8   8   8   8   8
#     4  11  24  43  66  96 136 169 214 273 330 397
#     4  12  26  44  66  92 128 176 234 272 308 382
#     4  12  24  41  67  94 129 179 217 260 341 390
#     4  11  22  40  65  99 130 167 218 273 329 384
#     4  11  24  46  64  94 130 171 225 277 313 390
#     4  12  21  38  64  99 129 163 214 271 333 395
#     4  11  22  40  70  95 130 170 213 276 339 381
#     4  12  22  38  66 102 137 165 203 270 339 390
#
# _framework density 19.942494
#
# number of rings (size 3 to 8) (size 9 to 14) (size 15 to 20)
#    0.000    0.533    5.333    4.800    0.933    2.667 
#    1.200    2.667    0.000    0.000    0.000    0.000 
#    0.000    0.000    0.000    0.000    0.000    0.000 
#
# Total GULP energy -167740.600899 kJ/mol
# GULP energy per Si atom -5591.353363 kJ/mol
# Density = 1.989710 g / cm^3
# Si number density = 19.942494 Si / 1000 Ang^3
#
#
#
# Elastic Constant Matrix: (Units=GPa)
#
#
# Indices 1 2 3 4 5 6 
#
# 1 63.7137 23.6475 17.0857 0.0000 -20.7327 0.0000
# 2 23.6475 89.2267 9.7344 0.0000 -9.5346 0.0000
# 3 17.0857 9.7344 66.3337 0.0000 -27.4687 0.0000
# 4 0.0000 0.0000 0.0000 134.8459 0.0000 -176.9226
# 5 -20.7327 -9.5346 -27.4687 0.0000 31.2578 0.0000
# 6 0.0000 0.0000 0.0000 -176.9226 0.0000 280.7901
#
#
#
# Elastic Compliance Matrix: (Units=1/GPa)
#
#
# Indices 1 2 3 4 5 6 
#
# 1 0.021534 -0.004333 0.000718 0.000000 0.013592 0.000000
# 2 -0.004333 0.012463 -0.000517 0.000000 0.000473 0.000000
# 3 0.000718 -0.000517 0.023735 0.000000 0.021177 0.000000
# 4 0.000000 0.000000 0.000000 0.042792 0.000000 0.026963
# 5 0.013592 0.000473 0.021177 0.000000 0.059761 0.000000
# 6 0.000000 0.000000 0.000000 0.026963 0.000000 0.020550
#
#
# Mechanical properties :
#
#
# Convention : Reuss Voigt Hill
#
# Bulk Modulus (GPa) = 20.21503 35.57880 27.89691
# Shear Modulus (GPa) = 24.32042 100.63254 62.47648
#
# Velocity S-wave (km/s) = 3.49596 7.11132 5.60324
# Velocity P-wave (km/s) = 5.14338 9.23620 7.47535
#
# Compressibility (1/GPa) = 0.04946815
#
# Stress axis : x y z
#
# Youngs Moduli (GPa) = 46.43853 80.23933 42.13102
#
# Poissons Ratio (x) = 0.34767 -0.03024
# Poissons Ratio (y) = 0.20122 0.02177
# Poissons Ratio (z) = -0.03333 0.04147
#
# Static dielectric constant tensor:
#      x y z
#    x 1.700380 0.000000 0.003170 
#    y 0.000000 1.731400 0.000000 
#    z 0.003170 0.000000 1.733090 
# 
# From -- ./inp_files/105764.got.cif
#   From: 2010.05.17/outbox.cif.g08.bks.cpg/sg15_53_cif.got.tgz:105764.got - 2010.06.03 18:47:42.
