data_PCOD9302392
_publ_section_title
;
Structure prediction by ZEFSAII (Michael W. Deem and Ramdas Pophale) SiO2 
 PCOD9302392
Probable space group: C 2/C
;
_chemical_formula_sum "Si O2"
_cell_formula_units_Z 48
_cell_length_a 6.932370
_cell_length_b 16.978428
_cell_length_c 18.008921
_cell_angle_alpha 90.000000
_cell_angle_beta 70.672788
_cell_angle_gamma 90.000000
_cell_volume 2000.207392
_symmetry_space_group_name_H-M "C 2/C"
_symmetry_group_IT_number 15
_symmetry_cell_setting 'monoclinic'
loop_
_space_group_symop_operation_xyz
x,y,z
-x,y,1/2-z
-x,-y,-z
x,-y,1/2+z
1/2+x,1/2+y,z
1/2-x,1/2+y,1/2-z
1/2-x,1/2-y,-z
1/2+x,1/2-y,1/2+z
loop_
_atom_site_type_symbol
_atom_site_label
_atom_site_fract_x
_atom_site_fract_y
_atom_site_fract_z
Si Si1 0.000000 0.485853 0.250000
Si Si2 0.501742 0.648580 0.604182
Si Si3 0.500000 0.749237 0.750000
Si Si4 0.516015 0.730320 0.041964
Si Si5 0.232197 0.885561 0.852685
Si Si6 0.770221 0.025432 0.001607
Si Si7 0.450686 0.107567 0.898057
O O1 0.803252 0.540985 0.294108
O O2 0.055471 0.435696 0.315559
O O3 0.467447 0.693393 0.684406
O O4 0.564357 0.707519 0.529191
O O5 0.661633 0.575278 0.579269
O O6 0.274189 0.623296 0.608753
O O7 0.330997 0.810698 0.800297
O O8 0.485419 0.652718 0.097197
O O9 0.445118 0.811167 0.089821
O O10 0.750000 0.750000 0.000000
O O11 0.310393 0.914777 0.923865
O O12 0.618350 0.950829 0.026053
O O13 0.000000 0.000000 0.000000
#
# Coordination Sequence:
#
# PCOD9302392 Si02
#       7
#     4   8   4   8   8   8   8
#     4   9  18  32  56  90 115 158 192 229 302 356
#     4   9  19  34  55  83 114 153 195 237 291 340
#     4  11  22  34  54  82 117 152 194 237 292 354
#     4   9  18  34  57  85 112 149 197 244 285 343
#     4   9  19  34  54  80 116 156 186 227 300 357
#     4   8  15  32  56  76 103 150 190 226 282 345
#     4   9  17  31  59  86 112 148 198 240 286 343
#
# _framework density 23.997512
#
# number of rings (size 3 to 8) (size 9 to 14) (size 15 to 20)
#    0.000    3.000    0.000    1.000    2.333    2.667 
#    0.000    0.000   14.667    6.000    0.000    0.000 
#    0.000    0.000    0.000    0.000    0.000    0.000 
#
# Total GULP energy -133667.686766 kJ/mol
# GULP energy per Si atom -5569.486949 kJ/mol
# Density = 2.394289 g / cm^3
# Si number density = 23.997512 Si / 1000 Ang^3
#
#
#
# Elastic Constant Matrix: (Units=GPa)
#
#
# Indices 1 2 3 4 5 6 
#
# 1 22.2057 21.0976 28.7457 0.0000 -6.8052 0.0000
# 2 21.0976 146.1500 81.9340 0.0000 11.2069 0.0000
# 3 28.7457 81.9340 147.7510 0.0000 3.6441 0.0000
# 4 0.0000 0.0000 0.0000 82.9971 0.0000 -14.9532
# 5 -6.8052 11.2069 3.6441 0.0000 29.7857 0.0000
# 6 0.0000 0.0000 0.0000 -14.9532 0.0000 49.5154
#
#
#
# Elastic Compliance Matrix: (Units=1/GPa)
#
#
# Indices 1 2 3 4 5 6 
#
# 1 0.070722 -0.005406 -0.011244 0.000000 0.019568 0.000000
# 2 -0.005406 0.010631 -0.004728 0.000000 -0.004656 0.000000
# 3 -0.011244 -0.004728 0.011632 0.000000 -0.002213 0.000000
# 4 0.000000 0.000000 0.000000 0.012742 0.000000 0.003848
# 5 0.019568 -0.004656 -0.002213 0.000000 0.040067 0.000000
# 6 0.000000 0.000000 0.000000 0.003848 0.000000 0.021358
#
#
# Mechanical properties :
#
#
# Convention : Reuss Voigt Hill
#
# Bulk Modulus (GPa) = 19.90920 64.40681 42.15800
# Shear Modulus (GPa) = 22.06032 44.74826 33.40429
#
# Velocity S-wave (km/s) = 3.03524 4.32291 3.73499
# Velocity P-wave (km/s) = 4.53850 7.19819 6.01714
#
# Compressibility (1/GPa) = 0.05022805
#
# Stress axis : x y z
#
# Youngs Moduli (GPa) = 14.13984 94.06812 85.96627
#
# Poissons Ratio (x) = 0.50853 0.96662
# Poissons Ratio (y) = 0.07644 0.40649
# Poissons Ratio (z) = 0.15899 0.44480
#
# Static dielectric constant tensor:
#      x y z
#    x 0.656490 0.000000 0.486160 
#    y 0.000000 2.054830 0.000000 
#    z 0.486160 0.000000 1.769760 
# 
# From -- ./inp_files/189904.got.cif
#   From: 2010.05.17/outbox.cif.g08.bks.cpg/sg15_95_cif.got.tgz:189904.got - 2010.06.03 18:47:42.
