data_PCOD9302634
_publ_section_title
;
Structure prediction by ZEFSAII (Michael W. Deem and Ramdas Pophale) SiO2 
 PCOD9302634
Probable space group: C 2/C
;
_chemical_formula_sum "Si O2"
_cell_formula_units_Z 40
_cell_length_a 14.854479
_cell_length_b 13.499028
_cell_length_c 14.692764
_cell_angle_alpha 90.000000
_cell_angle_beta 40.619943
_cell_angle_gamma 90.000000
_cell_volume 1918.094805
_symmetry_space_group_name_H-M "C 2/C"
_symmetry_group_IT_number 15
_symmetry_cell_setting 'monoclinic'
loop_
_space_group_symop_operation_xyz
x,y,z
-x,y,1/2-z
-x,-y,-z
x,-y,1/2+z
1/2+x,1/2+y,z
1/2-x,1/2+y,1/2-z
1/2-x,1/2-y,-z
1/2+x,1/2-y,1/2+z
loop_
_atom_site_type_symbol
_atom_site_label
_atom_site_fract_x
_atom_site_fract_y
_atom_site_fract_z
Si Si1 0.643935 0.142874 0.858708
Si Si2 0.836810 0.690771 0.857193
Si Si3 0.346569 0.682464 0.863639
Si Si4 0.059300 0.574806 0.355541
Si Si5 0.795710 0.537008 0.426327
O O1 0.668216 0.205212 0.748408
O O2 0.772897 0.164381 0.824629
O O3 0.622541 0.025114 0.852124
O O4 0.499646 0.154854 0.027353
O O5 0.791253 0.577023 0.904654
O O6 0.000000 0.699593 0.750000
O O7 0.750000 0.750000 0.000000
O O8 0.500000 0.721797 0.750000
O O9 0.250000 0.750000 0.000000
O O10 0.339842 0.577454 0.921666
O O11 0.168171 0.599138 0.192702
O O12 0.921962 0.547072 0.401834
#
# Coordination Sequence:
#
# PCOD9302634 Si02
#       5
#     8   8   8   8   8
#     4   9  18  36  61  90 121 157 211 250 311 375
#     4  11  22  39  61  92 123 160 211 260 319 377
#     4  11  26  40  59  92 130 164 210 259 314 378
#     4   8  14  32  68  90 106 156 207 255 306 380
#     4   9  17  38  63  88 122 158 209 259 315 369
#
# _framework density 20.854028
#
# number of rings (size 3 to 8) (size 9 to 14) (size 15 to 20)
#    0.000    2.400    4.000    0.000    5.600    2.400 
#    0.000    4.000    0.000    0.000    0.000    0.000 
#    0.000    0.000    0.000    0.000    0.000    0.000 
#
# Total GULP energy -111363.866967 kJ/mol
# GULP energy per Si atom -5568.193348 kJ/mol
# Density = 2.080656 g / cm^3
# Si number density = 20.854028 Si / 1000 Ang^3
#
#
#
# Elastic Constant Matrix: (Units=GPa)
#
#
# Indices 1 2 3 4 5 6 
#
# 1 107.6878 24.0015 64.6983 0.0000 20.6516 0.0000
# 2 24.0015 48.6675 50.8861 0.0000 3.9278 0.0000
# 3 64.6983 50.8861 154.4961 0.0000 20.9176 0.0000
# 4 0.0000 0.0000 0.0000 44.0823 0.0000 3.8476
# 5 20.6516 3.9278 20.9176 0.0000 40.3902 0.0000
# 6 0.0000 0.0000 0.0000 3.8476 0.0000 18.8774
#
#
#
# Elastic Compliance Matrix: (Units=1/GPa)
#
#
# Indices 1 2 3 4 5 6 
#
# 1 0.013087 -0.001500 -0.004409 0.000000 -0.004262 0.000000
# 2 -0.001500 0.031744 -0.010231 0.000000 0.002978 0.000000
# 3 -0.004409 -0.010231 0.012097 0.000000 -0.003016 0.000000
# 4 0.000000 0.000000 0.000000 0.023096 0.000000 -0.004707
# 5 -0.004262 0.002978 -0.003016 0.000000 0.028210 0.000000
# 6 0.000000 0.000000 0.000000 -0.004707 0.000000 0.053933
#
#
# Mechanical properties :
#
#
# Convention : Reuss Voigt Hill
#
# Bulk Modulus (GPa) = 40.57064 65.55814 53.06439
# Shear Modulus (GPa) = 24.67171 32.08769 28.37970
#
# Velocity S-wave (km/s) = 3.44331 3.92686 3.69300
# Velocity P-wave (km/s) = 5.94183 7.21562 6.60948
#
# Compressibility (1/GPa) = 0.02464837
#
# Stress axis : x y z
#
# Youngs Moduli (GPa) = 76.41282 31.50221 82.66465
#
# Poissons Ratio (x) = 0.04724 0.36450
# Poissons Ratio (y) = 0.11460 0.84571
# Poissons Ratio (z) = 0.33693 0.32229
#
# Static dielectric constant tensor:
#      x y z
#    x 1.755060 0.000000 0.074750 
#    y 0.000000 1.861750 0.000000 
#    z 0.074750 0.000000 1.878340 
# 
# From -- ./inp_files/153736.got.cif
#   From: 2010.05.17/outbox.cif.g08.bks.cpg/sg15_77_cif.got.tgz:153736.got - 2010.06.03 18:47:42.
