data_PCOD9302143
_publ_section_title
;
Structure prediction by ZEFSAII (Michael W. Deem and Ramdas Pophale) SiO2 
 PCOD9302143
Probable space group: C 2/C
;
_chemical_formula_sum "Si O2"
_cell_formula_units_Z 60
_cell_length_a 25.657429
_cell_length_b 7.991418
_cell_length_c 22.218699
_cell_angle_alpha 90.000000
_cell_angle_beta 32.570916
_cell_angle_gamma 90.000000
_cell_volume 2452.532331
_symmetry_space_group_name_H-M "C 2/C"
_symmetry_group_IT_number 15
_symmetry_cell_setting 'monoclinic'
loop_
_space_group_symop_operation_xyz
x,y,z
-x,y,1/2-z
-x,-y,-z
x,-y,1/2+z
1/2+x,1/2+y,z
1/2-x,1/2+y,1/2-z
1/2-x,1/2-y,-z
1/2+x,1/2-y,1/2+z
loop_
_atom_site_type_symbol
_atom_site_label
_atom_site_fract_x
_atom_site_fract_y
_atom_site_fract_z
Si Si1 0.983487 0.829513 0.150259
Si Si2 0.880198 0.617786 0.041383
Si Si3 0.209572 0.441175 0.043548
Si Si4 0.757464 0.138022 0.210996
Si Si5 0.471829 0.700165 0.025743
Si Si6 0.326283 0.553868 0.543796
Si Si7 0.226675 0.889806 0.135643
Si Si8 0.500000 0.914640 0.750000
O O1 0.993095 0.744377 0.074984
O O2 0.886340 0.944763 0.245364
O O3 0.983314 0.703193 0.207109
O O4 0.080208 0.941185 0.059453
O O5 0.818023 0.621825 0.163273
O O6 0.982500 0.682496 0.967413
O O7 0.855025 0.754229 0.014960
O O8 0.830530 0.459788 0.058312
O O9 0.245093 0.490678 0.075304
O O10 0.095210 0.471445 0.150465
O O11 0.250000 0.250000 0.000000
O O12 0.259288 0.570584 0.948352
O O13 0.721962 0.234999 0.186490
O O14 0.792251 0.967169 0.145914
O O15 0.856722 0.211556 0.140666
O O16 0.500000 0.500000 0.000000
#
# Coordination Sequence:
#
# PCOD9302143 Si02
#       8
#     8   8   8   8   8   8   8   4
#     4  11  23  45  76 107 137 192 245 304 356 431
#     4  12  23  41  67 106 143 192 232 299 366 429
#     4  12  27  50  68 106 147 186 237 303 372 434
#     4  11  23  40  70 102 138 186 248 293 356 436
#     4  11  21  42  68  99 142 188 243 294 360 432
#     4  11  24  46  73 101 145 194 239 302 361 435
#     4  12  25  44  70 107 147 185 238 302 363 429
#     4  12  28  50  80 108 140 188 254 300 356 442
#
# _framework density 24.464510000000001
#
# number of rings (size 3 to 8) (size 9 to 14) (size 15 to 20)
#    0.000    0.533    5.333    4.800    0.000    3.200 
#    2.400    0.000    0.000    0.000    0.000    0.000 
#    0.000    0.000    0.000    0.000    0.000    0.000 
#
# Total GULP energy -167269.253007 kJ/mol
# GULP energy per Si atom -5575.641767 kJ/mol
# Density = 2.440883 g / cm^3
# Si number density = 24.464510 Si / 1000 Ang^3
#
#
#
# Elastic Constant Matrix: (Units=GPa)
#
#
# Indices 1 2 3 4 5 6 
#
# 1 121.3177 -6.7875 22.3047 0.0009 0.7137 0.0000
# 2 -6.7875 36.0150 10.7088 -0.0039 -0.9902 0.0023
# 3 22.3047 10.7088 85.3238 -0.0016 -17.1080 0.0007
# 4 0.0009 -0.0039 -0.0016 15.1865 0.0020 0.6391
# 5 0.7137 -0.9902 -17.1080 0.0020 44.9341 -0.0007
# 6 0.0000 0.0023 0.0007 0.6391 -0.0007 27.6414
#
#
#
# Elastic Compliance Matrix: (Units=1/GPa)
#
#
# Indices 1 2 3 4 5 6 
#
# 1 0.008920 0.002506 -0.002884 0.000000 -0.001184 0.000000
# 2 0.002506 0.029573 -0.004595 0.000007 -0.001138 -0.000003
# 3 -0.002884 -0.004595 0.014117 0.000000 0.005319 0.000000
# 4 0.000000 0.000007 0.000000 0.065912 -0.000003 -0.001524
# 5 -0.001184 -0.001138 0.005319 -0.000003 0.024274 0.000001
# 6 0.000000 -0.000003 0.000000 -0.001524 0.000001 0.036213
#
#
# Mechanical properties :
#
#
# Convention : Reuss Voigt Hill
#
# Bulk Modulus (GPa) = 23.43813 32.78982 28.11397
# Shear Modulus (GPa) = 24.60910 31.98112 28.29511
#
# Velocity S-wave (km/s) = 3.17505 3.61951 3.40454
# Velocity P-wave (km/s) = 4.80026 5.55877 5.19338
#
# Compressibility (1/GPa) = 0.04266552
#
# Stress axis : x y z
#
# Youngs Moduli (GPa) = 112.10500 33.81407 70.83540
#
# Poissons Ratio (x) = -0.08474 0.20428
# Poissons Ratio (y) = -0.28094 0.32548
# Poissons Ratio (z) = 0.32330 0.15537
#
# Static dielectric constant tensor:
#      x y z
#    x 1.966890 0.000000 -0.025950 
#    y 0.000000 2.227560 0.000010 
#    z -0.025950 0.000010 1.938110 
# 
# From -- ./inp_files/283377.got.cif
#   From: 2010.05.17/outbox.cif.g08.bks.cpg/sg15_142_cif.got.tgz:283377.got - 2010.06.03 18:47:42.
