data_PCOD9302124
_publ_section_title
;
Structure prediction by ZEFSAII (Michael W. Deem and Ramdas Pophale) SiO2 
 PCOD9302124
Probable space group: C 2/C
;
_chemical_formula_sum "Si O2"
_cell_formula_units_Z 48
_cell_length_a 15.534428
_cell_length_b 29.055441
_cell_length_c 8.967248
_cell_angle_alpha 90.000000
_cell_angle_beta 36.183036
_cell_angle_gamma 90.000000
_cell_volume 2389.482123
_symmetry_space_group_name_H-M "C 2/C"
_symmetry_group_IT_number 15
_symmetry_cell_setting 'monoclinic'
loop_
_space_group_symop_operation_xyz
x,y,z
-x,y,1/2-z
-x,-y,-z
x,-y,1/2+z
1/2+x,1/2+y,z
1/2-x,1/2+y,1/2-z
1/2-x,1/2-y,-z
1/2+x,1/2-y,1/2+z
loop_
_atom_site_type_symbol
_atom_site_label
_atom_site_fract_x
_atom_site_fract_y
_atom_site_fract_z
Si Si1 0.664350 0.920775 0.460724
Si Si2 0.387700 0.843236 0.178506
Si Si3 0.663635 0.409040 0.996004
Si Si4 0.108922 0.479214 0.970887
Si Si5 0.337930 0.758695 0.028968
Si Si6 0.713663 0.828361 0.846908
O O1 0.500000 0.915957 0.750000
O O2 0.659701 0.893426 0.313219
O O3 0.771016 0.899059 0.432283
O O4 0.692081 0.975349 0.413581
O O5 0.346290 0.807547 0.104002
O O6 0.311859 0.834419 0.442373
O O7 0.560645 0.838339 0.973507
O O8 0.776715 0.444153 0.759032
O O9 0.670442 0.363739 0.884847
O O10 0.500000 0.426402 0.250000
O O11 0.000000 0.459511 0.250000
O O12 0.000000 0.500000 0.000000
O O13 0.268977 0.722662 0.239639
O O14 0.500000 0.747462 0.750000
O O15 0.250000 0.750000 0.000000
#
# Coordination Sequence:
#
# PCOD9302124 Si02
#       6
#     8   8   8   8   8   8
#     4  11  21  42  67  94 129 174 223 265 323 401
#     4  11  23  41  69  97 126 172 228 268 315 403
#     4  12  26  43  66 101 138 170 217 281 338 381
#     4  11  22  41  71  98 126 177 227 267 316 398
#     4  12  23  42  65  93 130 170 213 268 332 391
#     4  11  24  41  66  98 131 170 220 273 328 388
#
# _framework density 20.088035000000001
#
# number of rings (size 3 to 8) (size 9 to 14) (size 15 to 20)
#    0.000    0.667    6.667    2.500    4.667    0.667 
#    0.000    2.500    0.000    0.000    0.000    0.000 
#    0.000    0.000    0.000    0.000    0.000    0.000 
#
# Total GULP energy -134057.900810 kJ/mol
# GULP energy per Si atom -5585.745867 kJ/mol
# Density = 2.004231 g / cm^3
# Si number density = 20.088035 Si / 1000 Ang^3
#
#
#
# Elastic Constant Matrix: (Units=GPa)
#
#
# Indices 1 2 3 4 5 6 
#
# 1 101.7627 14.2402 40.3452 0.0000 6.4457 0.0000
# 2 14.2402 64.2993 28.4908 0.0000 5.2127 0.0000
# 3 40.3452 28.4908 92.1495 0.0000 2.7647 0.0000
# 4 0.0000 0.0000 0.0000 28.4377 0.0000 6.9948
# 5 6.4457 5.2127 2.7647 0.0000 32.8007 0.0000
# 6 0.0000 0.0000 0.0000 6.9948 0.0000 31.3298
#
#
#
# Elastic Compliance Matrix: (Units=1/GPa)
#
#
# Indices 1 2 3 4 5 6 
#
# 1 0.012013 -0.000234 -0.005131 0.000000 -0.001891 0.000000
# 2 -0.000234 0.018216 -0.005458 0.000000 -0.002389 0.000000
# 3 -0.005131 -0.005458 0.014767 0.000000 0.000631 0.000000
# 4 0.000000 0.000000 0.000000 0.037208 0.000000 -0.008307
# 5 -0.001891 -0.002389 0.000631 0.000000 0.031185 0.000000
# 6 0.000000 0.000000 0.000000 -0.008307 0.000000 0.033773
#
#
# Mechanical properties :
#
#
# Convention : Reuss Voigt Hill
#
# Bulk Modulus (GPa) = 42.82425 47.15156 44.98790
# Shear Modulus (GPa) = 28.31389 30.18932 29.25160
#
# Velocity S-wave (km/s) = 3.75839 3.88087 3.82012
# Velocity P-wave (km/s) = 6.34023 6.60340 6.47316
#
# Compressibility (1/GPa) = 0.02335126
#
# Stress axis : x y z
#
# Youngs Moduli (GPa) = 83.24014 54.89632 67.71914
#
# Poissons Ratio (x) = 0.01284 0.34745
# Poissons Ratio (y) = 0.01947 0.36961
# Poissons Ratio (z) = 0.42708 0.29963
#
# Static dielectric constant tensor:
#      x y z
#    x 1.745430 0.000000 0.027010 
#    y 0.000000 1.767110 0.000000 
#    z 0.027010 0.000000 1.689100 
# 
# From -- ./inp_files/43803.got.cif
#   From: 2010.05.17/outbox.cif.g08.bks.cpg/sg15_22_cif.got.tgz:43803.got - 2010.06.03 18:47:42.
