data_PCOD9302598
_publ_section_title
;
Structure prediction by ZEFSAII (Michael W. Deem and Ramdas Pophale) SiO2 
 PCOD9302598
Probable space group: C 2/C
;
_chemical_formula_sum "Si O2"
_cell_formula_units_Z 52
_cell_length_a 16.018198
_cell_length_b 13.913362
_cell_length_c 11.578547
_cell_angle_alpha 90.000000
_cell_angle_beta 77.285226
_cell_angle_gamma 90.000000
_cell_volume 2517.197002
_symmetry_space_group_name_H-M "C 2/C"
_symmetry_group_IT_number 15
_symmetry_cell_setting 'monoclinic'
loop_
_space_group_symop_operation_xyz
x,y,z
-x,y,1/2-z
-x,-y,-z
x,-y,1/2+z
1/2+x,1/2+y,z
1/2-x,1/2+y,1/2-z
1/2-x,1/2-y,-z
1/2+x,1/2-y,1/2+z
loop_
_atom_site_type_symbol
_atom_site_label
_atom_site_fract_x
_atom_site_fract_y
_atom_site_fract_z
Si Si1 0.500000 0.180997 0.250000
Si Si2 0.169929 0.179510 0.390299
Si Si3 0.706920 0.482407 0.309605
Si Si4 0.881767 0.547377 0.132447
Si Si5 0.165943 0.193301 0.658070
Si Si6 0.081424 0.655980 0.806377
Si Si7 0.710237 0.851490 0.052396
O O1 0.453782 0.111762 0.171431
O O2 0.422924 0.249882 0.312789
O O3 0.152320 0.078517 0.335906
O O4 0.182375 0.162842 0.521950
O O5 0.258308 0.233411 0.327792
O O6 0.094895 0.253257 0.383738
O O7 0.798076 0.525901 0.237735
O O8 0.671885 0.400639 0.235615
O O9 0.719666 0.429886 0.428936
O O10 0.916771 0.438626 0.114013
O O11 0.848108 0.600187 0.028443
O O12 0.156712 0.660470 0.686997
O O13 0.000000 0.655680 0.750000
O O14 0.750000 0.750000 0.000000
#
# Coordination Sequence:
#
# PCOD9302598 Si02
#       7
#     4   8   8   8   8   8   8
#     4  12  24  42  66 104 138 172 226 286 334 398
#     4  11  23  43  69  93 134 182 223 276 340 414
#     4  11  22  45  66  98 128 181 227 272 335 411
#     4  11  22  38  67  99 130 175 214 282 337 391
#     4  11  24  42  69  99 135 178 225 276 346 399
#     4  11  25  42  61 101 136 168 225 282 335 397
#     4  11  23  40  67  96 128 175 223 272 334 404
#
# _framework density 20.657897999999999
#
# number of rings (size 3 to 8) (size 9 to 14) (size 15 to 20)
#    0.000    0.923    5.385    2.769    4.308    0.615 
#    1.385    0.769    0.000    0.000    0.000    0.000 
#    0.000    0.000    0.000    0.000    0.000    0.000 
#
# Total GULP energy -145148.582973 kJ/mol
# GULP energy per Si atom -5582.637807 kJ/mol
# Density = 2.061088 g / cm^3
# Si number density = 20.657898 Si / 1000 Ang^3
#
#
#
# Elastic Constant Matrix: (Units=GPa)
#
#
# Indices 1 2 3 4 5 6 
#
# 1 63.6889 55.1632 33.6944 0.0000 20.5075 0.0000
# 2 55.1632 200.1372 70.2520 0.0000 29.6852 0.0000
# 3 33.6944 70.2520 83.2456 0.0000 32.2070 0.0000
# 4 0.0000 0.0000 0.0000 22.4962 0.0000 10.6123
# 5 20.5075 29.6852 32.2070 0.0000 37.2299 0.0000
# 6 0.0000 0.0000 0.0000 10.6123 0.0000 32.5985
#
#
#
# Elastic Compliance Matrix: (Units=1/GPa)
#
#
# Indices 1 2 3 4 5 6 
#
# 1 0.023256 -0.004296 -0.003242 0.000000 -0.006580 0.000000
# 2 -0.004296 0.007906 -0.005125 0.000000 0.000496 0.000000
# 3 -0.003242 -0.005125 0.023114 0.000000 -0.014124 0.000000
# 4 0.000000 0.000000 0.000000 0.052517 0.000000 -0.017097
# 5 -0.006580 0.000496 -0.014124 0.000000 0.042307 0.000000
# 6 0.000000 0.000000 0.000000 -0.017097 0.000000 0.036242
#
#
# Mechanical properties :
#
#
# Convention : Reuss Voigt Hill
#
# Bulk Modulus (GPa) = 34.54157 73.92120 54.23138
# Shear Modulus (GPa) = 22.69436 30.99574 26.84505
#
# Velocity S-wave (km/s) = 3.31808 3.87774 3.60878
# Velocity P-wave (km/s) = 5.60683 7.47732 6.60859
#
# Compressibility (1/GPa) = 0.02895062
#
# Stress axis : x y z
#
# Youngs Moduli (GPa) = 42.99926 126.48414 43.26339
#
# Poissons Ratio (x) = 0.54339 0.14025
# Poissons Ratio (y) = 0.18473 0.22173
# Poissons Ratio (z) = 0.13939 0.64825
#
# Static dielectric constant tensor:
#      x y z
#    x 1.791510 0.000000 -0.034780 
#    y 0.000000 1.756280 0.000000 
#    z -0.034780 0.000000 1.748860 
# 
# From -- ./inp_files/104898.got.cif
#   From: 2010.05.17/outbox.cif.g08.bks.cpg/sg15_53_cif.got.tgz:104898.got - 2010.06.03 18:47:42.
