data_PCOD9302252
_publ_section_title
;
Structure prediction by ZEFSAII (Michael W. Deem and Ramdas Pophale) SiO2 
 PCOD9302252
Probable space group: C 2/C
;
_chemical_formula_sum "Si O2"
_cell_formula_units_Z 44
_cell_length_a 26.647576
_cell_length_b 13.792485
_cell_length_c 12.053181
_cell_angle_alpha 90.000000
_cell_angle_beta 154.010762
_cell_angle_gamma 90.000000
_cell_volume 1941.228135
_symmetry_space_group_name_H-M "C 2/C"
_symmetry_group_IT_number 15
_symmetry_cell_setting 'monoclinic'
loop_
_space_group_symop_operation_xyz
x,y,z
-x,y,1/2-z
-x,-y,-z
x,-y,1/2+z
1/2+x,1/2+y,z
1/2-x,1/2+y,1/2-z
1/2-x,1/2-y,-z
1/2+x,1/2-y,1/2+z
loop_
_atom_site_type_symbol
_atom_site_label
_atom_site_fract_x
_atom_site_fract_y
_atom_site_fract_z
Si Si1 0.000000 0.165523 0.250000
Si Si2 0.025327 0.861393 0.050157
Si Si3 0.587687 0.814093 0.823478
Si Si4 0.201846 0.684781 0.176354
Si Si5 0.281739 0.058057 0.086733
Si Si6 0.769549 0.860794 0.578749
O O1 0.002531 0.116735 0.374802
O O2 0.110137 0.232942 0.472972
O O3 0.037925 0.750574 0.121432
O O4 0.147366 0.910108 0.317369
O O5 0.903355 0.887135 0.860361
O O6 0.500000 0.836818 0.750000
O O7 0.681519 0.741545 0.063154
O O8 0.654414 0.902208 0.896321
O O9 0.168346 0.615490 0.209980
O O10 0.215029 0.627097 0.090143
O O11 0.285905 0.942653 0.108512
O O12 0.750000 0.750000 0.500000
#
# Coordination Sequence:
#
# PCOD9302252 Si02
#       6
#     4   8   8   8   8   8
#     4  12  20  40  72 100 140 182 224 282 356 400
#     4  11  22  42  71 102 136 183 226 290 342 408
#     4  11  21  43  74 101 138 180 228 283 353 413
#     4  11  23  43  71  99 145 182 222 292 350 412
#     4  11  25  45  68 106 137 182 239 274 352 414
#     4  12  26  43  67 103 142 180 234 291 338 405
#
# _framework density 22.666063999999999
#
# number of rings (size 3 to 8) (size 9 to 14) (size 15 to 20)
#    0.000    0.727    7.273    1.636    0.000    2.909 
#    1.636    1.818    0.000    0.000    0.000    0.000 
#    0.000    0.000    0.000    0.000    0.000    0.000 
#
# Total GULP energy -122788.254202 kJ/mol
# GULP energy per Si atom -5581.284282 kJ/mol
# Density = 2.261448 g / cm^3
# Si number density = 22.666064 Si / 1000 Ang^3
#
#
#
# Elastic Constant Matrix: (Units=GPa)
#
#
# Indices 1 2 3 4 5 6 
#
# 1 112.2632 30.0750 -1.1332 0.0000 8.4668 0.0000
# 2 30.0750 136.0824 -11.9397 0.0000 -0.3336 0.0000
# 3 -1.1332 -11.9397 42.6627 0.0000 -2.9411 0.0000
# 4 0.0000 0.0000 0.0000 14.2160 0.0000 -5.2758
# 5 8.4668 -0.3336 -2.9411 0.0000 38.6513 0.0000
# 6 0.0000 0.0000 0.0000 -5.2758 0.0000 9.4939
#
#
#
# Elastic Compliance Matrix: (Units=1/GPa)
#
#
# Indices 1 2 3 4 5 6 
#
# 1 0.009651 -0.002182 -0.000504 0.000000 -0.002171 0.000000
# 2 -0.002182 0.008029 0.002239 0.000000 0.000718 0.000000
# 3 -0.000504 0.002239 0.024189 0.000000 0.001970 0.000000
# 4 0.000000 0.000000 0.000000 0.088620 0.000000 0.049246
# 5 -0.002171 0.000718 0.001970 0.000000 0.026504 0.000000
# 6 0.000000 0.000000 0.000000 0.049246 0.000000 0.132697
#
#
# Mechanical properties :
#
#
# Convention : Reuss Voigt Hill
#
# Bulk Modulus (GPa) = 24.40664 36.11247 30.25956
# Shear Modulus (GPa) = 16.43425 30.73932 23.58679
#
# Velocity S-wave (km/s) = 2.69561 3.68663 3.22937
# Velocity P-wave (km/s) = 4.52546 5.83855 5.22343
#
# Compressibility (1/GPa) = 0.04097246
#
# Stress axis : x y z
#
# Youngs Moduli (GPa) = 103.61637 124.54861 41.34175
#
# Poissons Ratio (x) = 0.27182 0.02084
# Poissons Ratio (y) = 0.22614 -0.09254
# Poissons Ratio (z) = 0.05224 -0.27881
#
# Static dielectric constant tensor:
#      x y z
#    x 1.927100 0.000000 0.065260 
#    y 0.000000 1.876510 0.000000 
#    z 0.065260 0.000000 1.861900 
# 
# From -- ./inp_files/123389.got.cif
#   From: 2010.05.17/outbox.cif.g08.bks.cpg/sg15_62_cif.got.tgz:123389.got - 2010.06.03 18:47:42.
