data_PCOD9302612
_publ_section_title
;
Structure prediction by ZEFSAII (Michael W. Deem and Ramdas Pophale) SiO2 
 PCOD9302612
Probable space group: C 2/C
;
_chemical_formula_sum "Si O2"
_cell_formula_units_Z 48
_cell_length_a 13.581452
_cell_length_b 21.641734
_cell_length_c 14.116477
_cell_angle_alpha 90.000000
_cell_angle_beta 140.354891
_cell_angle_gamma 90.000000
_cell_volume 2647.317110
_symmetry_space_group_name_H-M "C 2/C"
_symmetry_group_IT_number 15
_symmetry_cell_setting 'monoclinic'
loop_
_space_group_symop_operation_xyz
x,y,z
-x,y,1/2-z
-x,-y,-z
x,-y,1/2+z
1/2+x,1/2+y,z
1/2-x,1/2+y,1/2-z
1/2-x,1/2-y,-z
1/2+x,1/2-y,1/2+z
loop_
_atom_site_type_symbol
_atom_site_label
_atom_site_fract_x
_atom_site_fract_y
_atom_site_fract_z
Si Si1 0.641790 0.702168 0.281687
Si Si2 0.418415 0.424560 0.856225
Si Si3 0.329530 0.534667 0.654075
Si Si4 0.029109 0.319961 0.383641
Si Si5 0.724319 0.505299 0.585788
Si Si6 0.082160 0.557475 0.611963
O O1 0.500000 0.692795 0.250000
O O2 0.633251 0.644142 0.204657
O O3 0.800959 0.703688 0.459053
O O4 0.597265 0.765698 0.195614
O O5 0.354990 0.469658 0.726905
O O6 0.356745 0.452721 0.909137
O O7 0.600993 0.438517 0.987212
O O8 0.500000 0.557643 0.750000
O O9 0.242300 0.521233 0.492165
O O10 0.230697 0.572813 0.655997
O O11 0.000000 0.334923 0.250000
O O12 0.006917 0.380402 0.431121
O O13 0.864696 0.530689 0.748504
O O14 0.000000 0.500000 0.500000
#
# Coordination Sequence:
#
# PCOD9302612 Si02
#       6
#     8   8   8   8   8   8
#     4  11  22  39  57  83 119 155 195 238 287 360
#     4   9  18  31  57  86 115 142 198 235 288 352
#     4   9  18  36  54  86 113 146 191 246 287 352
#     4  11  25  38  58  87 119 157 194 236 300 350
#     4   9  18  32  56  84 110 156 184 240 299 332
#     4  11  24  35  55  87 121 151 196 241 298 349
#
# _framework density 18.131564999999998
#
# number of rings (size 3 to 8) (size 9 to 14) (size 15 to 20)
#    0.000    2.000    0.000    6.500    9.333    0.000 
#    0.000    0.000    0.000    1.000    0.000    0.000 
#    0.000    0.000    0.000    0.000    0.000    0.000 
#
# Total GULP energy -133814.810712 kJ/mol
# GULP energy per Si atom -5575.617113 kJ/mol
# Density = 1.809030 g / cm^3
# Si number density = 18.131565 Si / 1000 Ang^3
#
#
#
# Elastic Constant Matrix: (Units=GPa)
#
#
# Indices 1 2 3 4 5 6 
#
# 1 57.3869 19.0425 30.4232 0.0000 -1.3149 0.0000
# 2 19.0425 94.1343 46.9251 0.0000 6.7914 0.0000
# 3 30.4232 46.9251 124.4431 0.0000 -1.2089 0.0000
# 4 0.0000 0.0000 0.0000 25.8940 0.0000 -0.4478
# 5 -1.3149 6.7914 -1.2089 0.0000 32.6726 0.0000
# 6 0.0000 0.0000 0.0000 -0.4478 0.0000 21.8700
#
#
#
# Elastic Compliance Matrix: (Units=1/GPa)
#
#
# Indices 1 2 3 4 5 6 
#
# 1 0.020365 -0.002122 -0.004168 0.000000 0.001106 0.000000
# 2 -0.002122 0.013584 -0.004634 0.000000 -0.003081 0.000000
# 3 -0.004168 -0.004634 0.010814 0.000000 0.001196 0.000000
# 4 0.000000 0.000000 0.000000 0.038633 0.000000 0.000791
# 5 0.001106 -0.003081 0.001196 0.000000 0.031336 0.000000
# 6 0.000000 0.000000 0.000000 0.000791 0.000000 0.045741
#
#
# Mechanical properties :
#
#
# Convention : Reuss Voigt Hill
#
# Bulk Modulus (GPa) = 43.63733 52.08285 47.86009
# Shear Modulus (GPa) = 26.32176 28.05889 27.19033
#
# Velocity S-wave (km/s) = 3.81426 3.93812 3.87668
# Velocity P-wave (km/s) = 6.59678 7.03318 6.81847
#
# Compressibility (1/GPa) = 0.02291616
#
# Stress axis : x y z
#
# Youngs Moduli (GPa) = 49.10502 73.61385 92.47625
#
# Poissons Ratio (x) = 0.15619 0.38542
# Poissons Ratio (y) = 0.10419 0.42850
# Poissons Ratio (z) = 0.20466 0.34110
#
# Static dielectric constant tensor:
#      x y z
#    x 1.679260 0.000000 0.053930 
#    y 0.000000 1.634580 0.000000 
#    z 0.053930 0.000000 1.681470 
# 
# From -- ./inp_files/156017.got.cif
#   From: 2010.05.17/outbox.cif.g08.bks.cpg/sg15_79_cif.got.tgz:156017.got - 2010.06.03 18:47:42.
