data_PCOD9302937
_publ_section_title
;
Structure prediction by ZEFSAII (Michael W. Deem and Ramdas Pophale) SiO2 
 PCOD9302937
Probable space group: C 2/C
;
_chemical_formula_sum "Si O2"
_cell_formula_units_Z 60
_cell_length_a 28.313484
_cell_length_b 5.404971
_cell_length_c 17.877437
_cell_angle_alpha 90.000000
_cell_angle_beta 85.371061
_cell_angle_gamma 90.000000
_cell_volume 2726.924159
_symmetry_space_group_name_H-M "C 2/C"
_symmetry_group_IT_number 15
_symmetry_cell_setting 'monoclinic'
loop_
_space_group_symop_operation_xyz
x,y,z
-x,y,1/2-z
-x,-y,-z
x,-y,1/2+z
1/2+x,1/2+y,z
1/2-x,1/2+y,1/2-z
1/2-x,1/2-y,-z
1/2+x,1/2-y,1/2+z
loop_
_atom_site_type_symbol
_atom_site_label
_atom_site_fract_x
_atom_site_fract_y
_atom_site_fract_z
Si Si1 0.303931 0.825201 0.979622
Si Si2 0.582246 0.475226 0.488836
Si Si3 0.847570 0.195231 0.414033
Si Si4 0.448370 0.267052 0.356384
Si Si5 0.027342 0.598756 0.426089
Si Si6 0.629639 0.851762 0.391325
Si Si7 0.602646 0.111788 0.734097
Si Si8 0.500000 0.667676 0.250000
O O1 0.327021 0.575093 0.939623
O O2 0.312446 0.071713 0.928697
O O3 0.250000 0.750000 0.000000
O O4 0.328126 0.903224 0.056081
O O5 0.609152 0.265004 0.532917
O O6 0.570767 0.661785 0.558770
O O7 0.538053 0.381531 0.447564
O O8 0.617078 0.575076 0.420398
O O9 0.872301 0.212842 0.330291
O O10 0.489991 0.067280 0.364651
O O11 0.478055 0.488830 0.316823
O O12 0.409369 0.145318 0.307504
O O13 0.079094 0.486448 0.410532
O O14 0.000000 0.500000 0.500000
O O15 0.636037 0.894499 0.302638
O O16 0.550297 0.205019 0.765026
#
# Coordination Sequence:
#
# PCOD9302937 Si02
#       8
#     8   8   8   8   8   8   8   4
#     4  11  25  51  80 105 129 175 238 303 373 441
#     4  11  22  41  62  94 134 187 246 289 342 405
#     4  11  23  46  75 102 139 180 227 297 366 433
#     4  12  24  38  58  89 141 199 244 289 332 419
#     4  12  22  34  60  91 130 179 246 286 334 401
#     4  11  24  41  64  97 136 180 232 299 356 421
#     4  12  25  42  60 100 146 191 233 285 356 425
#     4  12  24  36  58  88 142 196 238 272 328 410
#
# _framework density 22.002811999999999
#
# number of rings (size 3 to 8) (size 9 to 14) (size 15 to 20)
#    0.000    0.533    4.000    6.000    1.867    0.000 
#    0.000    1.333    0.000    0.000    0.000    0.000 
#    0.000    0.000    0.000    0.000    0.000    0.000 
#
# Total GULP energy -167203.225949 kJ/mol
# GULP energy per Si atom -5573.440865 kJ/mol
# Density = 2.195273 g / cm^3
# Si number density = 22.002812 Si / 1000 Ang^3
#
#
#
# Elastic Constant Matrix: (Units=GPa)
#
#
# Indices 1 2 3 4 5 6 
#
# 1 106.4674 23.6716 46.1507 0.0000 -4.4510 0.0000
# 2 23.6716 75.0916 34.0880 0.0000 -8.4176 0.0000
# 3 46.1507 34.0880 122.5471 0.0000 7.8414 0.0000
# 4 0.0000 0.0000 0.0000 32.5231 0.0000 -7.6058
# 5 -4.4510 -8.4176 7.8414 0.0000 29.9643 0.0000
# 6 0.0000 0.0000 0.0000 -7.6058 0.0000 35.9799
#
#
#
# Elastic Compliance Matrix: (Units=1/GPa)
#
#
# Indices 1 2 3 4 5 6 
#
# 1 0.011608 -0.001535 -0.004096 0.000000 0.002365 0.000000
# 2 -0.001535 0.016385 -0.004332 0.000000 0.005509 0.000000
# 3 -0.004096 -0.004332 0.011212 0.000000 -0.004760 0.000000
# 4 0.000000 0.000000 0.000000 0.032346 0.000000 0.006838
# 5 0.002365 0.005509 -0.004760 0.000000 0.036517 0.000000
# 6 0.000000 0.000000 0.000000 0.006838 0.000000 0.029239
#
#
# Mechanical properties :
#
#
# Convention : Reuss Voigt Hill
#
# Bulk Modulus (GPa) = 51.86862 56.88074 54.37468
# Shear Modulus (GPa) = 30.55108 33.03985 31.79547
#
# Velocity S-wave (km/s) = 3.73031 3.87928 3.80552
# Velocity P-wave (km/s) = 6.49449 6.78032 6.63895
#
# Compressibility (1/GPa) = 0.01927948
#
# Stress axis : x y z
#
# Youngs Moduli (GPa) = 86.14630 61.03147 89.18818
#
# Poissons Ratio (x) = 0.09367 0.36531
# Poissons Ratio (y) = 0.13222 0.38638
# Poissons Ratio (z) = 0.35285 0.26440
#
# Static dielectric constant tensor:
#      x y z
#    x 1.782100 0.000000 -0.027990 
#    y 0.000000 2.016950 0.000000 
#    z -0.027990 0.000000 1.774220 
# 
# From -- ./inp_files/223626.got.cif
#   From: 2010.05.17/outbox.cif.g08.bks.cpg/sg15_112_cif.got.tgz:223626.got - 2010.06.03 18:47:42.
