data_PCOD9302677
_publ_section_title
;
Structure prediction by ZEFSAII (Michael W. Deem and Ramdas Pophale) SiO2 
 PCOD9302677
Probable space group: C 2/C
;
_chemical_formula_sum "Si O2"
_cell_formula_units_Z 40
_cell_length_a 8.066168
_cell_length_b 18.517213
_cell_length_c 12.931645
_cell_angle_alpha 90.000000
_cell_angle_beta 132.127626
_cell_angle_gamma 90.000000
_cell_volume 1432.508222
_symmetry_space_group_name_H-M "C 2/C"
_symmetry_group_IT_number 15
_symmetry_cell_setting 'monoclinic'
loop_
_space_group_symop_operation_xyz
x,y,z
-x,y,1/2-z
-x,-y,-z
x,-y,1/2+z
1/2+x,1/2+y,z
1/2-x,1/2+y,1/2-z
1/2-x,1/2-y,-z
1/2+x,1/2-y,1/2+z
loop_
_atom_site_type_symbol
_atom_site_label
_atom_site_fract_x
_atom_site_fract_y
_atom_site_fract_z
Si Si1 0.935125 0.381056 0.843981
Si Si2 0.515385 0.960220 0.130070
Si Si3 0.570480 0.625257 0.415638
Si Si4 0.500000 0.242698 0.750000
Si Si5 0.384826 0.360419 0.329048
Si Si6 0.750000 0.750000 0.000000
O O1 0.032228 0.457302 0.921631
O O2 0.667782 0.394681 0.734599
O O3 0.000000 0.372285 0.750000
O O4 0.031560 0.306247 0.927594
O O5 0.500000 0.961082 0.250000
O O6 0.763209 0.925896 0.218858
O O7 0.308776 0.912668 0.003332
O O8 0.588628 0.705818 0.378467
O O9 0.526613 0.616506 0.519688
O O10 0.320824 0.191797 0.728782
O O11 0.589922 0.311016 0.380871
#
# Coordination Sequence:
#
# PCOD9302677 Si02
#       6
#     8   8   8   4   8   4
#     4  11  23  39  65  94 128 169 207 272 326 381
#     4   9  22  39  66  93 123 170 218 267 314 384
#     4  11  22  40  63  90 128 166 222 262 314 392
#     4  12  22  38  64  92 120 174 218 258 324 374
#     4  11  22  39  64  98 126 165 212 270 318 384
#     4  12  24  38  62 102 132 154 208 270 338 366
#
# _framework density 27.923048999999999
#
# number of rings (size 3 to 8) (size 9 to 14) (size 15 to 20)
#    0.000    1.200    7.000    0.600    2.800    2.400 
#    0.000    1.000    2.200    0.000    0.000    0.000 
#    0.000    0.000    0.000    0.000    0.000    0.000 
#
# Total GULP energy -111394.089046 kJ/mol
# GULP energy per Si atom -5569.704452 kJ/mol
# Density = 2.785949 g / cm^3
# Si number density = 27.923049 Si / 1000 Ang^3
#
#
#
# Elastic Constant Matrix: (Units=GPa)
#
#
# Indices 1 2 3 4 5 6 
#
# 1 49.6505 -10.0147 28.6324 0.0000 18.5931 0.0000
# 2 -10.0147 144.5591 63.8058 0.0000 18.2948 0.0000
# 3 28.6324 63.8058 197.6716 0.0000 18.4517 0.0000
# 4 0.0000 0.0000 0.0000 82.1134 0.0000 11.4600
# 5 18.5931 18.2948 18.4517 0.0000 46.6662 0.0000
# 6 0.0000 0.0000 0.0000 11.4600 0.0000 36.7974
#
#
#
# Elastic Compliance Matrix: (Units=1/GPa)
#
#
# Indices 1 2 3 4 5 6 
#
# 1 0.028382 0.005562 -0.004825 0.000000 -0.011581 0.000000
# 2 0.005562 0.009383 -0.003410 0.000000 -0.004546 0.000000
# 3 -0.004825 -0.003410 0.006805 0.000000 0.000569 0.000000
# 4 0.000000 0.000000 0.000000 0.012732 0.000000 -0.003965
# 5 -0.011581 -0.004546 0.000569 0.000000 0.027600 0.000000
# 6 0.000000 0.000000 0.000000 -0.003965 0.000000 0.028411
#
#
# Mechanical properties :
#
#
# Convention : Reuss Voigt Hill
#
# Bulk Modulus (GPa) = 25.49511 61.85870 43.67690
# Shear Modulus (GPa) = 37.95494 53.74592 45.85043
#
# Velocity S-wave (km/s) = 3.69083 4.39200 4.05659
# Velocity P-wave (km/s) = 5.22621 6.92249 6.13328
#
# Compressibility (1/GPa) = 0.03922321
#
# Stress axis : x y z
#
# Youngs Moduli (GPa) = 35.23378 106.57167 146.94038
#
# Poissons Ratio (x) = -0.59271 0.70903
# Poissons Ratio (y) = -0.19596 0.50107
# Poissons Ratio (z) = 0.17001 0.36341
#
# Static dielectric constant tensor:
#      x y z
#    x 2.469860 0.000000 -0.128500 
#    y 0.000000 2.151040 0.000000 
#    z -0.128500 0.000000 2.155820 
# 
# From -- ./inp_files/113593.got.cif
#   From: 2010.05.17/outbox.cif.g08.bks.cpg/sg15_57_cif.got.tgz:113593.got - 2010.06.03 18:47:42.
