data_PCOD9302763
_publ_section_title
;
Structure prediction by ZEFSAII (Michael W. Deem and Ramdas Pophale) SiO2 
 PCOD9302763
Probable space group: C 2/C
;
_chemical_formula_sum "Si O2"
_cell_formula_units_Z 52
_cell_length_a 11.342452
_cell_length_b 20.647654
_cell_length_c 11.065128
_cell_angle_alpha 90.000000
_cell_angle_beta 73.314758
_cell_angle_gamma 90.000000
_cell_volume 2482.290948
_symmetry_space_group_name_H-M "C 2/C"
_symmetry_group_IT_number 15
_symmetry_cell_setting 'monoclinic'
loop_
_space_group_symop_operation_xyz
x,y,z
-x,y,1/2-z
-x,-y,-z
x,-y,1/2+z
1/2+x,1/2+y,z
1/2-x,1/2+y,1/2-z
1/2-x,1/2-y,-z
1/2+x,1/2-y,1/2+z
loop_
_atom_site_type_symbol
_atom_site_label
_atom_site_fract_x
_atom_site_fract_y
_atom_site_fract_z
Si Si1 0.103031 0.811644 0.825520
Si Si2 0.139875 0.659289 0.843115
Si Si3 0.272425 0.421865 0.827260
Si Si4 0.155400 0.107632 0.538063
Si Si5 0.610421 0.905339 0.090888
Si Si6 0.500000 0.513647 0.750000
Si Si7 0.380860 0.954468 0.822520
O O1 0.125345 0.736307 0.839451
O O2 0.217647 0.851586 0.737026
O O3 0.000000 0.819068 0.750000
O O4 0.086514 0.846139 0.961220
O O5 0.262843 0.642183 0.881614
O O6 0.141914 0.630252 0.707083
O O7 0.010396 0.628895 0.931118
O O8 0.391860 0.462631 0.758364
O O9 0.171385 0.466990 0.795666
O O10 0.232283 0.408365 0.974126
O O11 0.265780 0.072041 0.432147
O O12 0.056837 0.059255 0.628435
O O13 0.579535 0.979669 0.126374
O O14 0.500000 0.912355 0.750000
#
# Coordination Sequence:
#
# PCOD9302763 Si02
#       7
#     8   8   8   8   8   4   8
#     4  11  24  47  66  94 135 181 230 284 335 411
#     4  11  23  46  68  99 132 179 237 280 337 397
#     4  11  25  41  66 101 139 180 223 280 345 411
#     4  11  26  43  71  97 141 181 225 286 341 415
#     4  11  22  39  71  99 134 176 223 289 335 402
#     4  12  24  44  66 104 146 182 222 270 358 426
#     4  11  22  40  68 104 134 172 228 288 348 395
#
# _framework density 20.948391000000001
#
# number of rings (size 3 to 8) (size 9 to 14) (size 15 to 20)
#    0.000    0.923    5.385    2.308    0.000    6.769 
#    2.769    0.000    3.385    0.000    0.000    0.000 
#    0.000    0.000    0.000    0.000    0.000    0.000 
#
# Total GULP energy -144787.472346 kJ/mol
# GULP energy per Si atom -5568.748936 kJ/mol
# Density = 2.090071 g / cm^3
# Si number density = 20.948391 Si / 1000 Ang^3
#
#
#
# Elastic Constant Matrix: (Units=GPa)
#
#
# Indices 1 2 3 4 5 6 
#
# 1 112.8109 42.7585 39.3388 0.0000 2.7051 0.0000
# 2 42.7585 123.9091 45.9473 0.0000 -9.6446 0.0000
# 3 39.3388 45.9473 104.4784 0.0000 -15.3487 0.0000
# 4 0.0000 0.0000 0.0000 12.2412 0.0000 -7.5251
# 5 2.7051 -9.6446 -15.3487 0.0000 34.8642 0.0000
# 6 0.0000 0.0000 0.0000 -7.5251 0.0000 15.4085
#
#
#
# Elastic Compliance Matrix: (Units=1/GPa)
#
#
# Indices 1 2 3 4 5 6 
#
# 1 0.011217 -0.002842 -0.003439 0.000000 -0.003171 0.000000
# 2 -0.002842 0.010387 -0.003254 0.000000 0.001662 0.000000
# 3 -0.003439 -0.003254 0.013048 0.000000 0.005111 0.000000
# 4 0.000000 0.000000 0.000000 0.116738 0.000000 0.057012
# 5 -0.003171 0.001662 0.005111 0.000000 0.031639 0.000000
# 6 0.000000 0.000000 0.000000 0.057012 0.000000 0.092742
#
#
# Mechanical properties :
#
#
# Convention : Reuss Voigt Hill
#
# Bulk Modulus (GPa) = 64.17816 66.36529 65.27173
# Shear Modulus (GPa) = 16.66469 26.71302 21.68886
#
# Velocity S-wave (km/s) = 2.82354 3.57484 3.22117
# Velocity P-wave (km/s) = 6.42905 6.98488 6.71272
#
# Compressibility (1/GPa) = 0.01558162
#
# Stress axis : x y z
#
# Youngs Moduli (GPa) = 89.14992 96.27332 76.63905
#
# Poissons Ratio (x) = 0.27363 0.26359
# Poissons Ratio (y) = 0.25338 0.24937
# Poissons Ratio (z) = 0.30662 0.31325
#
# Static dielectric constant tensor:
#      x y z
#    x 0.061620 0.000000 0.684070 
#    y 0.000000 1.738020 0.000000 
#    z 0.684070 0.000000 1.571660 
# 
# From -- ./inp_files/88825.got.cif
#   From: 2010.05.17/outbox.cif.g08.bks.cpg/sg15_45_cif.got.tgz:88825.got - 2010.06.03 18:47:42.
