data_PCOD9302331
_publ_section_title
;
Structure prediction by ZEFSAII (Michael W. Deem and Ramdas Pophale) SiO2 
 PCOD9302331
Probable space group: C 2/C
;
_chemical_formula_sum "Si O2"
_cell_formula_units_Z 48
_cell_length_a 15.368922
_cell_length_b 9.555346
_cell_length_c 24.703223
_cell_angle_alpha 90.000000
_cell_angle_beta 144.610812
_cell_angle_gamma 90.000000
_cell_volume 2100.958691
_symmetry_space_group_name_H-M "C 2/C"
_symmetry_group_IT_number 15
_symmetry_cell_setting 'monoclinic'
loop_
_space_group_symop_operation_xyz
x,y,z
-x,y,1/2-z
-x,-y,-z
x,-y,1/2+z
1/2+x,1/2+y,z
1/2-x,1/2+y,1/2-z
1/2-x,1/2-y,-z
1/2+x,1/2-y,1/2+z
loop_
_atom_site_type_symbol
_atom_site_label
_atom_site_fract_x
_atom_site_fract_y
_atom_site_fract_z
Si Si1 0.341474 0.808079 0.151178
Si Si2 0.969456 0.844747 0.462047
Si Si3 0.414844 0.537130 0.125228
Si Si4 0.114806 0.497652 0.921023
Si Si5 0.439025 0.725430 0.823666
Si Si6 0.583358 0.757767 0.130770
O O1 0.500000 0.866436 0.250000
O O2 0.209012 0.818300 0.125741
O O3 0.370061 0.650841 0.147064
O O4 0.302845 0.903462 0.080769
O O5 0.002334 0.814891 0.416151
O O6 0.047886 0.753347 0.548715
O O7 0.000000 0.000000 0.500000
O O8 0.526400 0.410960 0.194394
O O9 0.498403 0.634216 0.121661
O O10 0.255505 0.464652 0.030347
O O11 0.031437 0.363530 0.855166
O O12 0.990834 0.597855 0.885933
O O13 0.260701 0.751968 0.731851
#
# Coordination Sequence:
#
# PCOD9302331 Si02
#       6
#     8   8   8   8   8   8
#     4  11  23  42  70  92 127 176 225 258 325 407
#     4  12  23  43  70  99 127 176 226 270 319 400
#     4  11  21  46  64  92 132 175 213 266 335 394
#     4  11  22  43  67  93 131 175 213 271 337 386
#     4  12  26  40  69 101 134 164 222 284 329 381
#     4  11  22  42  68  96 131 175 219 269 330 394
#
# _framework density 22.846712
#
# number of rings (size 3 to 8) (size 9 to 14) (size 15 to 20)
#    0.000    0.667    5.000    4.500    2.333    0.667 
#    3.000    0.833    0.000    0.000    0.000    0.000 
#    0.000    0.000    0.000    0.000    0.000    0.000 
#
# Total GULP energy -134087.949901 kJ/mol
# GULP energy per Si atom -5586.997913 kJ/mol
# Density = 2.279471 g / cm^3
# Si number density = 22.846712 Si / 1000 Ang^3
#
#
#
# Elastic Constant Matrix: (Units=GPa)
#
#
# Indices 1 2 3 4 5 6 
#
# 1 40.2071 29.3184 -4.7324 0.0000 10.2409 0.0000
# 2 29.3184 108.6085 16.4577 0.0000 25.4945 0.0000
# 3 -4.7324 16.4577 98.0619 0.0000 33.8867 0.0000
# 4 0.0000 0.0000 0.0000 25.8715 0.0000 10.9868
# 5 10.2409 25.4945 33.8867 0.0000 37.8101 0.0000
# 6 0.0000 0.0000 0.0000 10.9868 0.0000 1.1725
#
#
#
# Elastic Compliance Matrix: (Units=1/GPa)
#
#
# Indices 1 2 3 4 5 6 
#
# 1 0.033701 -0.007830 0.006186 0.000000 -0.009393 0.000000
# 2 -0.007830 0.012831 -0.000398 0.000000 -0.006174 0.000000
# 3 0.006186 -0.000398 0.016007 0.000000 -0.015753 0.000000
# 4 0.000000 0.000000 0.000000 -0.012974 0.000000 0.121569
# 5 -0.009393 -0.006174 -0.015753 0.000000 0.047274 0.000000
# 6 0.000000 0.000000 0.000000 0.121569 0.000000 -0.286268
#
#
# Mechanical properties :
#
#
# Convention : Reuss Voigt Hill
#
# Bulk Modulus (GPa) = 17.10692 36.55164 26.82928
# Shear Modulus (GPa) = -30.14558 26.69309 -1.72625
#
# Velocity S-wave (km/s) = -3.63639 3.42183 -0.87018
# Velocity P-wave (km/s) = 3.18233 5.62541 3.28010
#
# Compressibility (1/GPa) = 0.05845588
#
# Stress axis : x y z
#
# Youngs Moduli (GPa) = 29.67238 77.93825 62.47396
#
# Poissons Ratio (x) = 0.61027 -0.38649
# Poissons Ratio (y) = 0.23234 0.02484
# Poissons Ratio (z) = -0.18356 0.03099
#
# Static dielectric constant tensor:
#      x y z
#    x 1.904950 0.000000 -0.077750 
#    y 0.000000 1.839380 0.000000 
#    z -0.077750 0.000000 1.445370 
# 
# From -- ./inp_files/224694.got.cif
#   From: 2010.05.17/outbox.cif.g08.bks.cpg/sg15_113_cif.got.tgz:224694.got - 2010.06.03 18:47:42.
