data_PCOD9302396
_publ_section_title
;
Structure prediction by ZEFSAII (Michael W. Deem and Ramdas Pophale) SiO2 
 PCOD9302396
Probable space group: C 2/C
;
_chemical_formula_sum "Si O2"
_cell_formula_units_Z 40
_cell_length_a 18.898255
_cell_length_b 7.023100
_cell_length_c 11.998525
_cell_angle_alpha 90.000000
_cell_angle_beta 90.294776
_cell_angle_gamma 90.000000
_cell_volume 1592.475172
_symmetry_space_group_name_H-M "C 2/C"
_symmetry_group_IT_number 15
_symmetry_cell_setting 'monoclinic'
loop_
_space_group_symop_operation_xyz
x,y,z
-x,y,1/2-z
-x,-y,-z
x,-y,1/2+z
1/2+x,1/2+y,z
1/2-x,1/2+y,1/2-z
1/2-x,1/2-y,-z
1/2+x,1/2-y,1/2+z
loop_
_atom_site_type_symbol
_atom_site_label
_atom_site_fract_x
_atom_site_fract_y
_atom_site_fract_z
Si Si1 0.810936 0.819183 0.825273
Si Si2 0.425757 0.743795 0.993901
Si Si3 0.413266 0.281393 0.008195
Si Si4 0.788197 0.374489 0.096490
Si Si5 0.082661 0.849627 0.246423
O O1 0.779121 0.707566 0.721386
O O2 0.750890 0.925516 0.895287
O O3 0.864784 0.974500 0.771916
O O4 0.858203 0.710011 0.916556
O O5 0.412812 0.515098 0.004786
O O6 0.370403 0.855054 0.067598
O O7 0.507311 0.778842 0.022148
O O8 0.412587 0.779779 0.862993
O O9 0.401103 0.246194 0.138335
O O10 0.750000 0.250000 0.000000
O O11 0.000000 0.915240 0.250000
#
# Coordination Sequence:
#
# PCOD9302396 Si02
#       5
#     8   8   8   8   8
#     4  11  22  34  59  86 124 163 198 252 310 364
#     4   9  17  28  56  83 119 145 189 256 306 341
#     4   9  16  30  52  92 112 141 204 256 291 344
#     4  12  22  39  56  88 129 165 199 250 317 368
#     4   9  15  28  52  86 117 137 190 254 296 332
#
# _framework density 25.118131999999999
#
# number of rings (size 3 to 8) (size 9 to 14) (size 15 to 20)
#    0.000    2.000    6.000    1.200    0.000    0.000 
#    0.000    4.000    0.000    0.000    5.200    8.400 
#    0.000    0.000    0.000    0.000    0.000    0.000 
#
# Total GULP energy -112032.693476 kJ/mol
# GULP energy per Si atom -5601.634674 kJ/mol
# Density = 2.506096 g / cm^3
# Si number density = 25.118132 Si / 1000 Ang^3
#
#
#
# Elastic Constant Matrix: (Units=GPa)
#
#
# Indices 1 2 3 4 5 6 
#
# 1 129.0721 37.6525 57.6399 0.0000 -4.7359 0.0000
# 2 37.6525 77.3540 30.8013 0.0000 2.9308 0.0000
# 3 57.6399 30.8013 174.5421 0.0000 21.7991 0.0000
# 4 0.0000 0.0000 0.0000 24.2413 0.0000 -0.7773
# 5 -4.7359 2.9308 21.7991 0.0000 56.8114 0.0000
# 6 0.0000 0.0000 0.0000 -0.7773 0.0000 11.6648
#
#
#
# Elastic Compliance Matrix: (Units=1/GPa)
#
#
# Indices 1 2 3 4 5 6 
#
# 1 0.010303 -0.003909 -0.002988 0.000000 0.002207 0.000000
# 2 -0.003909 0.015391 -0.001350 0.000000 -0.000602 0.000000
# 3 -0.002988 -0.001350 0.007328 0.000000 -0.002991 0.000000
# 4 0.000000 0.000000 0.000000 0.041340 0.000000 0.002755
# 5 0.002207 -0.000602 -0.002991 0.000000 0.018965 0.000000
# 6 0.000000 0.000000 0.000000 0.002755 0.000000 0.085912
#
#
# Mechanical properties :
#
#
# Convention : Reuss Voigt Hill
#
# Bulk Modulus (GPa) = 60.50547 70.35064 65.42805
# Shear Modulus (GPa) = 24.84560 35.53512 30.19036
#
# Velocity S-wave (km/s) = 3.14849 3.76536 3.47065
# Velocity P-wave (km/s) = 6.11212 6.85366 6.49348
#
# Compressibility (1/GPa) = 0.01652743
#
# Stress axis : x y z
#
# Youngs Moduli (GPa) = 97.05498 64.97472 136.46345
#
# Poissons Ratio (x) = 0.25398 0.40781
# Poissons Ratio (y) = 0.37938 0.18422
# Poissons Ratio (z) = 0.29004 0.08771
#
# Static dielectric constant tensor:
#      x y z
#    x 1.991090 0.000000 0.004410 
#    y 0.000000 2.009880 0.000000 
#    z 0.004410 0.000000 1.972850 
# 
# From -- ./inp_files/102764.got.cif
#   From: 2010.05.17/outbox.cif.g08.bks.cpg/sg15_52_cif.got.tgz:102764.got - 2010.06.03 18:47:42.
