data_PCOD9302487
_publ_section_title
;
Structure prediction by ZEFSAII (Michael W. Deem and Ramdas Pophale) SiO2 
 PCOD9302487
Probable space group: C 2/C
;
_chemical_formula_sum "Si O2"
_cell_formula_units_Z 56
_cell_length_a 12.261678
_cell_length_b 27.830708
_cell_length_c 11.506158
_cell_angle_alpha 90.000000
_cell_angle_beta 34.727979
_cell_angle_gamma 90.000000
_cell_volume 2236.846470
_symmetry_space_group_name_H-M "C 2/C"
_symmetry_group_IT_number 15
_symmetry_cell_setting 'monoclinic'
loop_
_space_group_symop_operation_xyz
x,y,z
-x,y,1/2-z
-x,-y,-z
x,-y,1/2+z
1/2+x,1/2+y,z
1/2-x,1/2+y,1/2-z
1/2-x,1/2-y,-z
1/2+x,1/2-y,1/2+z
loop_
_atom_site_type_symbol
_atom_site_label
_atom_site_fract_x
_atom_site_fract_y
_atom_site_fract_z
Si Si1 0.675568 0.190640 0.835791
Si Si2 0.750738 0.002409 0.400499
Si Si3 0.047659 0.133384 0.588436
Si Si4 0.150894 0.287335 0.715637
Si Si5 0.697288 0.026870 0.696328
Si Si6 0.338526 0.608760 0.252115
Si Si7 0.734722 0.135272 0.575290
O O1 0.749812 0.243652 0.804168
O O2 0.658455 0.179955 0.714761
O O3 0.841776 0.153904 0.730098
O O4 0.480810 0.183798 0.077957
O O5 0.794598 0.998016 0.501652
O O6 0.518154 0.006371 0.606012
O O7 0.836373 0.054204 0.294121
O O8 0.788077 0.973286 0.247043
O O9 0.187883 0.179356 0.483670
O O10 0.164111 0.107351 0.384498
O O11 0.000000 0.106863 0.750000
O O12 0.000000 0.271136 0.750000
O O13 0.679831 0.082639 0.673518
O O14 0.200619 0.633547 0.467151
O O15 0.537905 0.635069 0.101951
#
# Coordination Sequence:
#
# PCOD9302487 Si02
#       7
#     8   8   8   8   8   8   8
#     4  11  22  37  61  89 116 155 200 245 302 358
#     4   9  18  35  58  86 116 161 192 242 296 355
#     4  11  22  39  59  88 120 154 203 250 299 355
#     4  12  22  37  61  88 118 163 197 248 308 361
#     4   9  18  35  58  85 121 153 199 240 294 357
#     4   9  20  39  61  81 120 157 192 243 301 351
#     4   9  20  39  61  84 116 156 196 244 296 359
#
# _framework density 25.035243999999999
#
# number of rings (size 3 to 8) (size 9 to 14) (size 15 to 20)
#    0.000    2.000    2.857    0.857    2.000    0.571 
#    5.143    0.714    3.143    0.000    0.000    0.000 
#    0.000    0.000    0.000    0.000    0.000    0.000 
#
# Total GULP energy -156163.163464 kJ/mol
# GULP energy per Si atom -5577.255838 kJ/mol
# Density = 2.497826 g / cm^3
# Si number density = 25.035244 Si / 1000 Ang^3
#
#
#
# Elastic Constant Matrix: (Units=GPa)
#
#
# Indices 1 2 3 4 5 6 
#
# 1 106.3231 30.2686 66.3454 0.0000 47.1821 0.0000
# 2 30.2686 39.8405 46.3479 0.0000 28.1126 0.0000
# 3 66.3454 46.3479 160.3730 0.0000 63.5797 0.0000
# 4 0.0000 0.0000 0.0000 45.0168 0.0000 17.7186
# 5 47.1821 28.1126 63.5797 0.0000 61.0687 0.0000
# 6 0.0000 0.0000 0.0000 17.7186 0.0000 30.7271
#
#
#
# Elastic Compliance Matrix: (Units=1/GPa)
#
#
# Indices 1 2 3 4 5 6 
#
# 1 0.015271 -0.003481 -0.002162 0.000000 -0.007946 0.000000
# 2 -0.003481 0.042807 -0.007127 0.000000 -0.009597 0.000000
# 3 -0.002162 -0.007127 0.012306 0.000000 -0.007861 0.000000
# 4 0.000000 0.000000 0.000000 0.028736 0.000000 -0.016570
# 5 -0.007946 -0.009597 -0.007861 0.000000 0.035116 0.000000
# 6 0.000000 0.000000 0.000000 -0.016570 0.000000 0.042100
#
#
# Mechanical properties :
#
#
# Convention : Reuss Voigt Hill
#
# Bulk Modulus (GPa) = 22.29830 65.82894 44.06362
# Shear Modulus (GPa) = 23.06033 38.26750 30.66391
#
# Velocity S-wave (km/s) = 3.03828 3.91390 3.50355
# Velocity P-wave (km/s) = 4.60807 6.83933 5.83141
#
# Compressibility (1/GPa) = 0.04484647
#
# Stress axis : x y z
#
# Youngs Moduli (GPa) = 65.48353 23.36054 81.26274
#
# Poissons Ratio (x) = 0.08131 0.17565
# Poissons Ratio (y) = 0.22793 0.57912
# Poissons Ratio (z) = 0.14154 0.16648
#
# Static dielectric constant tensor:
#      x y z
#    x 2.097710 0.000000 0.064280 
#    y 0.000000 1.937200 0.000000 
#    z 0.064280 0.000000 2.048110 
# 
# From -- ./inp_files/101748.got.cif
#   From: 2010.05.17/outbox.cif.g08.bks.cpg/sg15_51_cif.got.tgz:101748.got - 2010.06.03 18:47:42.
