data_PCOD9302596
_publ_section_title
;
Structure prediction by ZEFSAII (Michael W. Deem and Ramdas Pophale) SiO2 
 PCOD9302596
Probable space group: C 2/C
;
_chemical_formula_sum "Si O2"
_cell_formula_units_Z 28
_cell_length_a 11.846837
_cell_length_b 18.848873
_cell_length_c 9.854006
_cell_angle_alpha 90.000000
_cell_angle_beta 35.519372
_cell_angle_gamma 90.000000
_cell_volume 1278.381405
_symmetry_space_group_name_H-M "C 2/C"
_symmetry_group_IT_number 15
_symmetry_cell_setting 'monoclinic'
loop_
_space_group_symop_operation_xyz
x,y,z
-x,y,1/2-z
-x,-y,-z
x,-y,1/2+z
1/2+x,1/2+y,z
1/2-x,1/2+y,1/2-z
1/2-x,1/2-y,-z
1/2+x,1/2-y,1/2+z
loop_
_atom_site_type_symbol
_atom_site_label
_atom_site_fract_x
_atom_site_fract_y
_atom_site_fract_z
Si Si1 0.283332 0.481978 0.668508
Si Si2 0.005641 0.382742 0.403886
Si Si3 0.675175 0.183716 0.983333
Si Si4 0.500000 0.406043 0.250000
O O1 0.500000 0.500000 0.500000
O O2 0.152803 0.551489 0.787548
O O3 0.324249 0.451841 0.479431
O O4 0.192563 0.419087 0.847617
O O5 0.074725 0.318326 0.433627
O O6 0.000000 0.366298 0.250000
O O7 0.880736 0.142964 0.763812
O O8 0.500000 0.153008 0.250000
O O9 0.750000 0.250000 0.000000
#
# Coordination Sequence:
#
# PCOD9302596 Si02
#       4
#     8   8   8   4
#     4  11  22  38  67 102 142 180 213 278 366 424
#     4  11  25  41  64 106 144 173 227 293 351 410
#     4  12  25  45  70  94 131 191 244 279 330 419
#     4  12  22  40  68 100 134 182 230 270 342 426
#
# _framework density 21.902698000000001
#
# number of rings (size 3 to 8) (size 9 to 14) (size 15 to 20)
#    0.000    0.571    7.143    1.714    4.000    0.000 
#    0.000    1.429    0.000    0.000    0.000    0.000 
#    0.000    0.000    0.000    0.000    0.000    0.000 
#
# Total GULP energy -77939.621601 kJ/mol
# GULP energy per Si atom -5567.115829 kJ/mol
# Density = 2.185285 g / cm^3
# Si number density = 21.902698 Si / 1000 Ang^3
#
#
#
# Elastic Constant Matrix: (Units=GPa)
#
#
# Indices 1 2 3 4 5 6 
#
# 1 141.4336 35.1166 33.9093 -0.0023 14.2993 0.0010
# 2 35.1166 61.7442 18.5590 -0.0008 4.8385 0.0000
# 3 33.9093 18.5590 102.0981 -0.0016 -2.1486 0.0010
# 4 -0.0023 -0.0008 -0.0016 23.2860 0.0018 3.7920
# 5 14.2993 4.8385 -2.1486 0.0018 57.0923 -0.0010
# 6 0.0010 0.0000 0.0010 3.7920 -0.0010 20.5266
#
#
#
# Elastic Compliance Matrix: (Units=1/GPa)
#
#
# Indices 1 2 3 4 5 6 
#
# 1 0.008843 -0.004212 -0.002212 0.000001 -0.001941 -0.000001
# 2 -0.004212 0.019280 -0.002120 0.000000 -0.000659 0.000000
# 3 -0.002212 -0.002120 0.010939 0.000000 0.001145 0.000000
# 4 0.000001 0.000000 0.000000 0.044276 -0.000002 -0.008179
# 5 -0.001941 -0.000659 0.001145 -0.000002 0.018101 0.000001
# 6 -0.000001 0.000000 0.000000 -0.008179 0.000001 0.050228
#
#
# Mechanical properties :
#
#
# Convention : Reuss Voigt Hill
#
# Bulk Modulus (GPa) = 45.50863 53.38286 49.44574
# Shear Modulus (GPa) = 28.39626 34.69371 31.54498
#
# Velocity S-wave (km/s) = 3.60456 3.98426 3.79916
# Velocity P-wave (km/s) = 6.17629 6.75214 6.47062
#
# Compressibility (1/GPa) = 0.02197385
#
# Stress axis : x y z
#
# Youngs Moduli (GPa) = 113.08450 51.86636 91.41947
#
# Poissons Ratio (x) = 0.21848 0.20223
# Poissons Ratio (y) = 0.47635 0.19377
# Poissons Ratio (z) = 0.25016 0.10993
#
# Static dielectric constant tensor:
#      x y z
#    x 2.013480 0.000000 0.128080 
#    y 0.000000 2.046440 0.000000 
#    z 0.128080 0.000000 1.892270 
# 
# From -- ./inp_files/3452.got.cif
#   From: 2010.05.17/outbox.cif.g08.bks.cpg/sg15_2_cif.got.tgz:3452.got - 2010.06.03 18:47:42.
