data_PCOD9302310
_publ_section_title
;
Structure prediction by ZEFSAII (Michael W. Deem and Ramdas Pophale) SiO2 
 PCOD9302310
Probable space group: C 2/C
;
_chemical_formula_sum "Si O2"
_cell_formula_units_Z 48
_cell_length_a 15.796255
_cell_length_b 10.718357
_cell_length_c 30.823002
_cell_angle_alpha 90.000000
_cell_angle_beta 25.513906
_cell_angle_gamma 90.000000
_cell_volume 2247.825312
_symmetry_space_group_name_H-M "C 2/C"
_symmetry_group_IT_number 15
_symmetry_cell_setting 'monoclinic'
loop_
_space_group_symop_operation_xyz
x,y,z
-x,y,1/2-z
-x,-y,-z
x,-y,1/2+z
1/2+x,1/2+y,z
1/2-x,1/2+y,1/2-z
1/2-x,1/2-y,-z
1/2+x,1/2-y,1/2+z
loop_
_atom_site_type_symbol
_atom_site_label
_atom_site_fract_x
_atom_site_fract_y
_atom_site_fract_z
Si Si1 0.408331 0.940866 0.746461
Si Si2 0.072167 0.225865 0.613775
Si Si3 0.643258 0.285836 0.644533
Si Si4 0.627934 0.818362 0.297648
Si Si5 0.056151 0.244652 0.427190
Si Si6 0.807060 0.930532 0.367351
O O1 0.500000 0.977462 0.750000
O O2 0.545430 0.835370 0.661354
O O3 0.200362 0.872256 0.852073
O O4 0.395399 0.053560 0.718310
O O5 0.250000 0.250000 0.500000
O O6 0.132528 0.103504 0.612126
O O7 0.858812 0.214178 0.690751
O O8 0.500000 0.248125 0.750000
O O9 0.503170 0.282588 0.667294
O O10 0.726359 0.422208 0.618421
O O11 0.837489 0.207442 0.543158
O O12 0.558579 0.818578 0.379867
O O13 0.147425 0.337930 0.420894
O O14 0.000000 0.905233 0.250000
#
# Coordination Sequence:
#
# PCOD9302310 Si02
#       6
#     8   8   8   8   8   8
#     4  11  23  46  70  95 142 180 221 272 344 404
#     4  11  25  41  69  99 132 176 233 274 336 401
#     4  11  27  42  70 101 138 170 232 279 341 389
#     4  11  26  43  68 103 135 176 224 281 335 399
#     4  11  23  46  70 100 135 184 223 277 336 401
#     4  11  21  45  69  97 131 179 223 280 333 401
#
# _framework density 21.353971999999999
#
# number of rings (size 3 to 8) (size 9 to 14) (size 15 to 20)
#    0.000    1.000    5.000    1.500    9.333    1.333 
#    0.000    2.500    0.000    0.000    0.000    0.000 
#    0.000    0.000    0.000    0.000    0.000    0.000 
#
# Total GULP energy -134073.955476 kJ/mol
# GULP energy per Si atom -5586.414811 kJ/mol
# Density = 2.130537 g / cm^3
# Si number density = 21.353972 Si / 1000 Ang^3
#
#
#
# Elastic Constant Matrix: (Units=GPa)
#
#
# Indices 1 2 3 4 5 6 
#
# 1 72.8030 16.0027 -5.5264 0.0012 -32.3121 -0.0019
# 2 16.0027 77.0767 9.8623 0.0002 5.2807 -0.0007
# 3 -5.5264 9.8623 119.9792 0.0037 -36.4710 -0.0033
# 4 0.0012 0.0002 0.0037 15.4962 0.0001 -5.5001
# 5 -32.3121 5.2807 -36.4710 0.0001 3.5290 -0.0006
# 6 -0.0019 -0.0007 -0.0033 -5.5001 -0.0006 49.2309
#
#
#
# Elastic Compliance Matrix: (Units=1/GPa)
#
#
# Indices 1 2 3 4 5 6 
#
# 1 0.004538 0.001105 -0.005718 0.000001 -0.019199 0.000000
# 2 0.001105 0.011988 0.001547 -0.000001 0.008162 0.000000
# 3 -0.005718 0.001547 0.004050 -0.000001 -0.012810 0.000000
# 4 0.000001 -0.000001 -0.000001 0.067196 0.000004 0.007507
# 5 -0.019199 0.008162 -0.012810 0.000004 -0.037025 -0.000001
# 6 0.000000 0.000000 0.000000 0.007507 -0.000001 0.021151
#
#
# Mechanical properties :
#
#
# Convention : Reuss Voigt Hill
#
# Bulk Modulus (GPa) = 69.23989 34.50402 51.87196
# Shear Modulus (GPa) = 60.35358 30.28592 45.31975
#
# Velocity S-wave (km/s) = 5.32210 3.77009 4.61185
# Velocity P-wave (km/s) = 8.38222 5.92829 7.25969
#
# Compressibility (1/GPa) = 0.01444254
#
# Stress axis : x y z
#
# Youngs Moduli (GPa) = 220.38016 83.41946 246.89533
#
# Poissons Ratio (x) = -0.09217 1.41174
# Poissons Ratio (y) = -0.24350 -0.38184
# Poissons Ratio (z) = 1.26012 -0.12901
#
# Static dielectric constant tensor:
#      x y z
#    x 1.780310 0.000000 -0.005480 
#    y 0.000000 1.794360 0.000000 
#    z -0.005480 0.000000 1.740150 
# 
# From -- ./inp_files/296055.got.cif
#   From: 2010.05.17/outbox.cif.g08.bks.cpg/sg15_149_cif.got.tgz:296055.got - 2010.06.03 18:47:42.
