data_PCOD9302224
_publ_section_title
;
Structure prediction by ZEFSAII (Michael W. Deem and Ramdas Pophale) SiO2 
 PCOD9302224
Probable space group: C 2/C
;
_chemical_formula_sum "Si O2"
_cell_formula_units_Z 52
_cell_length_a 16.635788
_cell_length_b 9.072339
_cell_length_c 17.577021
_cell_angle_alpha 90.000000
_cell_angle_beta 127.151493
_cell_angle_gamma 90.000000
_cell_volume 2114.408266
_symmetry_space_group_name_H-M "C 2/C"
_symmetry_group_IT_number 15
_symmetry_cell_setting 'monoclinic'
loop_
_space_group_symop_operation_xyz
x,y,z
-x,y,1/2-z
-x,-y,-z
x,-y,1/2+z
1/2+x,1/2+y,z
1/2-x,1/2+y,1/2-z
1/2-x,1/2-y,-z
1/2+x,1/2-y,1/2+z
loop_
_atom_site_type_symbol
_atom_site_label
_atom_site_fract_x
_atom_site_fract_y
_atom_site_fract_z
Si Si1 0.793647 0.581814 0.680725
Si Si2 0.000000 0.509077 0.750000
Si Si3 0.711135 0.855287 0.694846
Si Si4 0.204534 0.057147 0.892373
Si Si5 0.148537 0.834489 0.968358
Si Si6 0.393005 0.815350 0.578867
Si Si7 0.983153 0.821200 0.481937
O O1 0.787742 0.719988 0.733706
O O2 0.791857 0.433158 0.726827
O O3 0.698662 0.584109 0.570257
O O4 0.897900 0.598409 0.696765
O O5 0.017196 0.408276 0.833601
O O6 0.607777 0.770331 0.613290
O O7 0.751681 0.979730 0.658176
O O8 0.148240 0.211912 0.875725
O O9 0.302867 0.078139 0.001701
O O10 0.127862 0.942753 0.887707
O O11 0.047083 0.770224 0.948653
O O12 0.250000 0.750000 0.000000
O O13 0.425114 0.731041 0.520018
O O14 0.000000 0.000000 0.500000
#
# Coordination Sequence:
#
# PCOD9302224 Si02
#       7
#     8   4   8   8   8   8   8
#     4  11  25  45  68  99 143 184 229 298 363 418
#     4  12  24  44  66 102 142 178 236 296 364 428
#     4  11  26  45  68 100 141 185 232 297 357 434
#     4  11  23  43  70  99 136 183 240 283 360 426
#     4  11  21  43  70  93 131 183 231 283 341 424
#     4  11  25  40  70 105 135 187 230 303 354 425
#     4  11  22  40  66 101 135 173 239 295 347 420
#
# _framework density 24.593170000000001
#
# number of rings (size 3 to 8) (size 9 to 14) (size 15 to 20)
#    0.000    0.923    7.692    0.000    2.154    0.615 
#    2.769    3.846    0.000    0.000    0.000    0.000 
#    0.000    0.000    0.000    0.000    0.000    0.000 
#
# Total GULP energy -144773.548755 kJ/mol
# GULP energy per Si atom -5568.213414 kJ/mol
# Density = 2.453719 g / cm^3
# Si number density = 24.593170 Si / 1000 Ang^3
#
#
#
# Elastic Constant Matrix: (Units=GPa)
#
#
# Indices 1 2 3 4 5 6 
#
# 1 126.1706 48.7500 10.9744 0.0000 -10.1924 0.0000
# 2 48.7500 78.9248 15.0060 0.0000 -20.8939 0.0000
# 3 10.9744 15.0060 25.3929 0.0000 -0.0840 0.0000
# 4 0.0000 0.0000 0.0000 32.7192 0.0000 -18.9421
# 5 -10.1924 -20.8939 -0.0840 0.0000 27.1111 0.0000
# 6 0.0000 0.0000 0.0000 -18.9421 0.0000 44.8462
#
#
#
# Elastic Compliance Matrix: (Units=1/GPa)
#
#
# Indices 1 2 3 4 5 6 
#
# 1 0.010455 -0.006667 -0.000582 0.000000 -0.001210 0.000000
# 2 -0.006667 0.022760 -0.010519 0.000000 0.015001 0.000000
# 3 -0.000582 -0.010519 0.045822 0.000000 -0.008184 0.000000
# 4 0.000000 0.000000 0.000000 0.040456 0.000000 0.017088
# 5 -0.001210 0.015001 -0.008184 0.000000 0.047966 0.000000
# 6 0.000000 0.000000 0.000000 0.017088 0.000000 0.029516
#
#
# Mechanical properties :
#
#
# Convention : Reuss Voigt Hill
#
# Bulk Modulus (GPa) = 22.98874 42.21656 32.60265
# Shear Modulus (GPa) = 20.24205 31.31918 25.78062
#
# Velocity S-wave (km/s) = 2.87204 3.57247 3.24123
# Velocity P-wave (km/s) = 4.51288 5.84978 5.22427
#
# Compressibility (1/GPa) = 0.04349956
#
# Stress axis : x y z
#
# Youngs Moduli (GPa) = 95.64992 43.93734 21.82364
#
# Poissons Ratio (x) = 0.29294 0.01271
# Poissons Ratio (y) = 0.63771 0.22956
# Poissons Ratio (z) = 0.05571 0.46217
#
# Static dielectric constant tensor:
#      x y z
#    x 2.102180 0.000000 -0.047330 
#    y 0.000000 2.044940 0.000000 
#    z -0.047330 0.000000 1.936360 
# 
# From -- ./inp_files/209709.got.cif
#   From: 2010.05.17/outbox.cif.g08.bks.cpg/sg15_105_cif.got.tgz:209709.got - 2010.06.03 18:47:42.
