data_PCOD9302989
_publ_section_title
;
Structure prediction by ZEFSAII (Michael W. Deem and Ramdas Pophale) SiO2 
 PCOD9302989
Probable space group: C 2/C
;
_chemical_formula_sum "Si O2"
_cell_formula_units_Z 36
_cell_length_a 20.800561
_cell_length_b 16.840851
_cell_length_c 9.580052
_cell_angle_alpha 90.000000
_cell_angle_beta 31.955486
_cell_angle_gamma 90.000000
_cell_volume 1776.136010
_symmetry_space_group_name_H-M "C 2/C"
_symmetry_group_IT_number 15
_symmetry_cell_setting 'monoclinic'
loop_
_space_group_symop_operation_xyz
x,y,z
-x,y,1/2-z
-x,-y,-z
x,-y,1/2+z
1/2+x,1/2+y,z
1/2-x,1/2+y,1/2-z
1/2-x,1/2-y,-z
1/2+x,1/2-y,1/2+z
loop_
_atom_site_type_symbol
_atom_site_label
_atom_site_fract_x
_atom_site_fract_y
_atom_site_fract_z
Si Si1 0.146006 0.421226 0.520416
Si Si2 0.364013 0.099091 0.954724
Si Si3 0.830417 0.304689 0.250135
Si Si4 0.256363 0.333714 0.569223
Si Si5 0.000000 0.805356 0.250000
O O1 0.190873 0.511577 0.422865
O O2 0.216361 0.358271 0.292339
O O3 0.180432 0.394144 0.613166
O O4 0.000000 0.416183 0.750000
O O5 0.500000 0.090142 0.750000
O O6 0.370083 0.127436 0.785361
O O7 0.304916 0.163894 0.165639
O O8 0.750000 0.250000 0.500000
O O9 0.931792 0.250153 0.989318
O O10 0.250000 0.250000 0.500000
O O11 0.396773 0.350888 0.351651
#
# Coordination Sequence:
#
# PCOD9302989 Si02
#       5
#     8   8   8   8   4
#     4  11  22  41  66  99 134 164 215 279 325 370
#     4  11  23  38  67 100 128 166 219 272 332 377
#     4  12  22  41  65  94 131 171 215 265 318 391
#     4  12  22  41  65  92 132 172 208 269 321 386
#     4  12  24  42  66  96 134 166 226 262 322 386
#
# _framework density 20.268719000000001
#
# number of rings (size 3 to 8) (size 9 to 14) (size 15 to 20)
#    0.000    0.444    5.556    4.000    0.000    3.556 
#    0.000    1.111    0.000    0.000    0.000    0.000 
#    0.000    0.000    0.000    0.000    0.000    0.000 
#
# Total GULP energy -100254.396073 kJ/mol
# GULP energy per Si atom -5569.688671 kJ/mol
# Density = 2.022259 g / cm^3
# Si number density = 20.268719 Si / 1000 Ang^3
#
#
#
# Elastic Constant Matrix: (Units=GPa)
#
#
# Indices 1 2 3 4 5 6 
#
# 1 126.9886 14.5601 24.8539 0.0000 7.1118 0.0000
# 2 14.5601 72.5744 30.8065 0.0000 2.8602 0.0000
# 3 24.8539 30.8065 103.3620 0.0000 24.8761 0.0000
# 4 0.0000 0.0000 0.0000 -41.2020 0.0000 -67.0107
# 5 7.1118 2.8602 24.8761 0.0000 42.4469 0.0000
# 6 0.0000 0.0000 0.0000 -67.0107 0.0000 -65.4678
#
#
#
# Elastic Compliance Matrix: (Units=1/GPa)
#
#
# Indices 1 2 3 4 5 6 
#
# 1 0.008324 -0.000966 -0.001622 0.000000 -0.000379 0.000000
# 2 -0.000966 0.016030 -0.005034 0.000000 0.002032 0.000000
# 3 -0.001622 -0.005034 0.013293 0.000000 -0.007179 0.000000
# 4 0.000000 0.000000 0.000000 0.036512 0.000000 -0.037373
# 5 -0.000379 0.002032 -0.007179 0.000000 0.027693 0.000000
# 6 0.000000 0.000000 0.000000 -0.037373 0.000000 0.022979
#
#
# Mechanical properties :
#
#
# Convention : Reuss Voigt Hill
#
# Bulk Modulus (GPa) = 44.64096 49.26286 46.95191
# Shear Modulus (GPa) = 33.88805 2.66906 18.27855
#
# Velocity S-wave (km/s) = 4.09337 1.14878 3.00627
# Velocity P-wave (km/s) = 6.66433 5.11050 5.93846
#
# Compressibility (1/GPa) = 0.02240095
#
# Stress axis : x y z
#
# Youngs Moduli (GPa) = 120.13050 62.38412 75.22659
#
# Poissons Ratio (x) = 0.06029 0.12205
# Poissons Ratio (y) = 0.11610 0.37871
# Poissons Ratio (z) = 0.19490 0.31406
#
# Static dielectric constant tensor:
#      x y z
#    x 1.630210 0.000000 -0.145040 
#    y 0.000000 1.867880 0.000000 
#    z -0.145040 0.000000 1.593660 
# 
# From -- ./inp_files/22525.got.cif
#   From: 2010.05.17/outbox.cif.g08.bks.cpg/sg15_12_cif.got.tgz:22525.got - 2010.06.03 18:47:42.
