data_PCOD9302337
_publ_section_title
;
Structure prediction by ZEFSAII (Michael W. Deem and Ramdas Pophale) SiO2 
 PCOD9302337
Probable space group: C 2/C
;
_chemical_formula_sum "Si O2"
_cell_formula_units_Z 52
_cell_length_a 11.055495
_cell_length_b 16.611809
_cell_length_c 13.277876
_cell_angle_alpha 90.000000
_cell_angle_beta 73.452371
_cell_angle_gamma 90.000000
_cell_volume 2337.510614
_symmetry_space_group_name_H-M "C 2/C"
_symmetry_group_IT_number 15
_symmetry_cell_setting 'monoclinic'
loop_
_space_group_symop_operation_xyz
x,y,z
-x,y,1/2-z
-x,-y,-z
x,-y,1/2+z
1/2+x,1/2+y,z
1/2-x,1/2+y,1/2-z
1/2-x,1/2-y,-z
1/2+x,1/2-y,1/2+z
loop_
_atom_site_type_symbol
_atom_site_label
_atom_site_fract_x
_atom_site_fract_y
_atom_site_fract_z
Si Si1 0.500000 0.661237 0.750000
Si Si2 0.652422 0.782552 0.603924
Si Si3 0.660510 0.121778 0.612717
Si Si4 0.586425 0.545516 0.898913
Si Si5 0.000000 0.761429 0.750000
Si Si6 0.311955 0.617940 0.210159
Si Si7 0.584559 0.123571 0.404759
Si Si8 0.000000 0.505208 0.250000
O O1 0.619734 0.718398 0.698997
O O2 0.512047 0.605109 0.843677
O O3 0.750000 0.750000 0.500000
O O4 0.719294 0.858280 0.640607
O O5 0.517222 0.805434 0.588320
O O6 0.808734 0.102815 0.573478
O O7 0.603533 0.204539 0.670422
O O8 0.597021 0.106963 0.519404
O O9 0.614266 0.053864 0.700641
O O10 0.641934 0.472631 0.817267
O O11 0.500000 0.500000 0.000000
O O12 0.927484 0.819870 0.689681
O O13 0.225926 0.633559 0.328756
O O14 0.530168 0.056070 0.342142
#
# Coordination Sequence:
#
# PCOD9302337 Si02
#       8
#     4   8   8   8   4   8   8   4
#     4  12  26  48  74 106 150 186 244 302 354 438
#     4  12  24  47  76 104 140 195 246 297 366 439
#     4  11  26  43  72 106 141 183 241 297 355 425
#     4  12  28  46  72 109 145 193 241 294 368 434
#     4  11  27  46  69 107 144 188 238 297 361 430
#     4  12  24  48  71 100 151 187 237 296 362 431
#     4  12  23  44  74 104 143 187 238 302 360 425
#     4  11  21  46  67 103 138 182 238 287 353 430
#
# _framework density 22.245888000000001
#
# number of rings (size 3 to 8) (size 9 to 14) (size 15 to 20)
#    0.000    0.308    4.615    3.692    4.308    1.846 
#    0.000    0.000    0.000    0.000    0.000    0.000 
#    0.000    0.000    0.000    0.000    0.000    0.000 
#
# Total GULP energy -145305.643090 kJ/mol
# GULP energy per Si atom -5588.678580 kJ/mol
# Density = 2.219526 g / cm^3
# Si number density = 22.245888 Si / 1000 Ang^3
#
#
#
# Elastic Constant Matrix: (Units=GPa)
#
#
# Indices 1 2 3 4 5 6 
#
# 1 88.1436 29.7270 10.6808 0.0000 -0.9143 0.0000
# 2 29.7270 85.1680 6.9071 0.0000 -5.5979 0.0000
# 3 10.6808 6.9071 69.6836 0.0000 -12.3903 0.0000
# 4 0.0000 0.0000 0.0000 11.7526 0.0000 34.0821
# 5 -0.9143 -5.5979 -12.3903 0.0000 44.8489 0.0000
# 6 0.0000 0.0000 0.0000 34.0821 0.0000 0.8578
#
#
#
# Elastic Compliance Matrix: (Units=1/GPa)
#
#
# Indices 1 2 3 4 5 6 
#
# 1 0.013049 -0.004467 -0.001692 0.000000 -0.000759 0.000000
# 2 -0.004467 0.013429 -0.000383 0.000000 0.001479 0.000000
# 3 -0.001692 -0.000383 0.015389 0.000000 0.004169 0.000000
# 4 0.000000 0.000000 0.000000 -0.000745 0.000000 0.029598
# 5 -0.000759 0.001479 0.004169 0.000000 0.023618 0.000000
# 6 0.000000 0.000000 0.000000 0.029598 0.000000 -0.010206
#
#
# Mechanical properties :
#
#
# Convention : Reuss Voigt Hill
#
# Bulk Modulus (GPa) = 34.74454 37.51390 36.12922
# Shear Modulus (GPa) = 64.75532 24.53719 44.64626
#
# Velocity S-wave (km/s) = 5.40112 3.32475 4.48475
# Velocity P-wave (km/s) = 7.38569 5.62481 6.56456
#
# Compressibility (1/GPa) = 0.02878150
#
# Stress axis : x y z
#
# Youngs Moduli (GPa) = 76.63474 74.46536 64.98035
#
# Poissons Ratio (x) = 0.33265 0.10996
# Poissons Ratio (y) = 0.34235 0.02491
# Poissons Ratio (z) = 0.12968 0.02855
#
# Static dielectric constant tensor:
#      x y z
#    x 1.860220 0.000000 -0.051070 
#    y 0.000000 1.815700 0.000000 
#    z -0.051070 0.000000 1.813020 
# 
# From -- ./inp_files/144203.got.cif
#   From: 2010.05.17/outbox.cif.g08.bks.cpg/sg15_73_cif.got.tgz:144203.got - 2010.06.03 18:47:42.
