data_PCOD9302287
_publ_section_title
;
Structure prediction by ZEFSAII (Michael W. Deem and Ramdas Pophale) SiO2 
 PCOD9302287
Probable space group: C 2/C
;
_chemical_formula_sum "Si O2"
_cell_formula_units_Z 52
_cell_length_a 20.793706
_cell_length_b 17.936993
_cell_length_c 10.693999
_cell_angle_alpha 90.000000
_cell_angle_beta 141.680129
_cell_angle_gamma 90.000000
_cell_volume 2473.142870
_symmetry_space_group_name_H-M "C 2/C"
_symmetry_group_IT_number 15
_symmetry_cell_setting 'monoclinic'
loop_
_space_group_symop_operation_xyz
x,y,z
-x,y,1/2-z
-x,-y,-z
x,-y,1/2+z
1/2+x,1/2+y,z
1/2-x,1/2+y,1/2-z
1/2-x,1/2-y,-z
1/2+x,1/2-y,1/2+z
loop_
_atom_site_type_symbol
_atom_site_label
_atom_site_fract_x
_atom_site_fract_y
_atom_site_fract_z
Si Si1 0.143449 0.726394 0.137096
Si Si2 0.519413 0.442355 0.139847
Si Si3 0.611838 0.971437 0.218122
Si Si4 0.526981 0.282936 0.435941
Si Si5 0.000000 0.621675 0.750000
Si Si6 0.800960 0.662509 0.811739
Si Si7 0.246048 0.383437 0.979417
O O1 0.194130 0.791722 0.131117
O O2 0.228901 0.678086 0.344481
O O3 0.072095 0.763970 0.132428
O O4 0.069062 0.672381 0.946228
O O5 0.500000 0.473048 0.250000
O O6 0.446759 0.369878 0.007309
O O7 0.500000 0.500000 0.000000
O O8 0.363662 0.410142 0.179202
O O9 0.581403 0.928536 0.298111
O O10 0.671154 0.913255 0.217943
O O11 0.681185 0.043739 0.343696
O O12 0.500000 0.000000 0.000000
O O13 0.500000 0.274045 0.250000
O O14 0.613199 0.222405 0.597264
O O15 0.799513 0.646377 0.958498
#
# Coordination Sequence:
#
# PCOD9302287 Si02
#       7
#     8   8   8   8   4   8   8
#     4  12  24  45  70 106 140 185 244 298 361 435
#     4  11  27  47  72 109 148 196 246 305 366 439
#     4  12  26  46  71 105 142 187 238 301 370 429
#     4  11  21  44  73 101 139 185 242 298 351 434
#     4  12  26  46  68 104 150 180 238 312 368 424
#     4  12  25  44  75 103 136 188 238 292 365 432
#     4  12  25  45  76 101 144 187 247 292 361 446
#
# _framework density 21.025877999999999
#
# number of rings (size 3 to 8) (size 9 to 14) (size 15 to 20)
#    0.000    0.308    6.154    3.231    2.154    1.846 
#    4.154    0.000    0.000    0.000    0.000    0.000 
#    0.000    0.000    0.000    0.000    0.000    0.000 
#
# Total GULP energy -145386.410876 kJ/mol
# GULP energy per Si atom -5591.785034 kJ/mol
# Density = 2.097802 g / cm^3
# Si number density = 21.025878 Si / 1000 Ang^3
#
#
#
# Elastic Constant Matrix: (Units=GPa)
#
#
# Indices 1 2 3 4 5 6 
#
# 1 115.1363 45.3991 25.3372 0.0000 4.0471 0.0000
# 2 45.3991 103.7037 33.1907 0.0000 -9.9309 0.0000
# 3 25.3372 33.1907 55.8437 0.0000 -4.4148 0.0000
# 4 0.0000 0.0000 0.0000 39.9106 0.0000 -6.7879
# 5 4.0471 -9.9309 -4.4148 0.0000 29.6788 0.0000
# 6 0.0000 0.0000 0.0000 -6.7879 0.0000 51.8079
#
#
#
# Elastic Compliance Matrix: (Units=1/GPa)
#
#
# Indices 1 2 3 4 5 6 
#
# 1 0.011105 -0.004305 -0.002746 0.000000 -0.003363 0.000000
# 2 -0.004305 0.013841 -0.005930 0.000000 0.004336 0.000000
# 3 -0.002746 -0.005930 0.022819 0.000000 0.001784 0.000000
# 4 0.000000 0.000000 0.000000 0.025627 0.000000 0.003358
# 5 -0.003363 0.004336 0.001784 0.000000 0.035869 0.000000
# 6 0.000000 0.000000 0.000000 0.003358 0.000000 0.019742
#
#
# Mechanical properties :
#
#
# Convention : Reuss Voigt Hill
#
# Bulk Modulus (GPa) = 45.86609 53.61532 49.74070
# Shear Modulus (GPa) = 30.82000 35.66326 33.24163
#
# Velocity S-wave (km/s) = 3.83275 4.12291 3.98048
# Velocity P-wave (km/s) = 6.43802 6.94403 6.69581
#
# Compressibility (1/GPa) = 0.02180260
#
# Stress axis : x y z
#
# Youngs Moduli (GPa) = 90.04710 72.25090 43.82375
#
# Poissons Ratio (x) = 0.31103 0.12034
# Poissons Ratio (y) = 0.38764 0.25988
# Poissons Ratio (z) = 0.24726 0.42846
#
# Static dielectric constant tensor:
#      x y z
#    x 1.892590 0.000000 0.055350 
#    y 0.000000 1.798400 0.000000 
#    z 0.055350 0.000000 1.787070 
# 
# From -- ./inp_files/50722.got.cif
#   From: 2010.05.17/outbox.cif.g08.bks.cpg/sg15_26_cif.got.tgz:50722.got - 2010.06.03 18:47:42.
