data_PCOD9302930
_publ_section_title
;
Structure prediction by ZEFSAII (Michael W. Deem and Ramdas Pophale) SiO2 
 PCOD9302930
Probable space group: C 2/C
;
_chemical_formula_sum "Si O2"
_cell_formula_units_Z 48
_cell_length_a 8.825982
_cell_length_b 13.503676
_cell_length_c 28.882807
_cell_angle_alpha 90.000000
_cell_angle_beta 137.753251
_cell_angle_gamma 90.000000
_cell_volume 2314.374204
_symmetry_space_group_name_H-M "C 2/C"
_symmetry_group_IT_number 15
_symmetry_cell_setting 'monoclinic'
loop_
_space_group_symop_operation_xyz
x,y,z
-x,y,1/2-z
-x,-y,-z
x,-y,1/2+z
1/2+x,1/2+y,z
1/2-x,1/2+y,1/2-z
1/2-x,1/2-y,-z
1/2+x,1/2-y,1/2+z
loop_
_atom_site_type_symbol
_atom_site_label
_atom_site_fract_x
_atom_site_fract_y
_atom_site_fract_z
Si Si1 0.903016 0.467308 0.928687
Si Si2 0.239930 0.955637 0.068352
Si Si3 0.786982 0.740760 0.281513
Si Si4 0.036851 0.455577 0.707902
Si Si5 0.528716 0.426399 0.203754
Si Si6 0.291913 0.248025 0.630334
O O1 0.663925 0.521287 0.868240
O O2 0.841695 0.349909 0.911433
O O3 0.074224 0.509492 0.927774
O O4 0.000000 0.500000 0.000000
O O5 0.243105 0.838407 0.081880
O O6 0.315706 0.004232 0.133933
O O7 0.000000 0.000000 0.000000
O O8 0.858877 0.627645 0.300946
O O9 0.975992 0.808723 0.301337
O O10 0.767674 0.779284 0.329833
O O11 0.562087 0.739275 0.198903
O O12 0.220279 0.542180 0.754079
O O13 0.000000 0.412298 0.750000
O O14 0.500000 0.457856 0.250000
#
# Coordination Sequence:
#
# PCOD9302930 Si02
#       6
#     8   8   8   8   8   8
#     4  12  28  47  72 104 148 194 236 304 368 436
#     4  12  28  46  70 106 149 193 242 298 369 444
#     4  11  22  40  77 108 136 182 243 305 362 425
#     4  12  24  42  71 108 141 185 242 299 358 434
#     4  12  22  44  71 102 141 182 243 298 358 428
#     4  11  23  46  73 104 143 188 239 301 367 429
#
# _framework density 20.739947000000001
#
# number of rings (size 3 to 8) (size 9 to 14) (size 15 to 20)
#    0.000    0.333    6.667    1.500    4.667    2.667 
#    0.000    0.000    0.000    0.000    0.000    0.000 
#    0.000    0.000    0.000    0.000    0.000    0.000 
#
# Total GULP energy -133975.825115 kJ/mol
# GULP energy per Si atom -5582.326046 kJ/mol
# Density = 2.069274 g / cm^3
# Si number density = 20.739947 Si / 1000 Ang^3
#
#
#
# Elastic Constant Matrix: (Units=GPa)
#
#
# Indices 1 2 3 4 5 6 
#
# 1 56.4890 35.2273 38.6129 0.0000 -6.6186 0.0000
# 2 35.2273 154.4948 67.2669 0.0000 -0.3130 0.0000
# 3 38.6129 67.2669 174.0168 0.0000 1.8019 0.0000
# 4 0.0000 0.0000 0.0000 37.1286 0.0000 -3.1635
# 5 -6.6186 -0.3130 1.8019 0.0000 33.6081 0.0000
# 6 0.0000 0.0000 0.0000 -3.1635 0.0000 35.2765
#
#
#
# Elastic Compliance Matrix: (Units=1/GPa)
#
#
# Indices 1 2 3 4 5 6 
#
# 1 0.023088 -0.003611 -0.003776 0.000000 0.004716 0.000000
# 2 -0.003611 0.008349 -0.002421 0.000000 -0.000504 0.000000
# 3 -0.003776 -0.002421 0.007532 0.000000 -0.001170 0.000000
# 4 0.000000 0.000000 0.000000 0.027141 0.000000 0.002434
# 5 0.004716 -0.000504 -0.001170 0.000000 0.030741 0.000000
# 6 0.000000 0.000000 0.000000 0.002434 0.000000 0.028566
#
#
# Mechanical properties :
#
#
# Convention : Reuss Voigt Hill
#
# Bulk Modulus (GPa) = 51.66946 74.13496 62.90221
# Shear Modulus (GPa) = 33.00672 37.46221 35.23447
#
# Velocity S-wave (km/s) = 3.99363 4.25465 4.12621
# Velocity P-wave (km/s) = 6.79945 7.74330 7.28667
#
# Compressibility (1/GPa) = 0.01935379
#
# Stress axis : x y z
#
# Youngs Moduli (GPa) = 43.31267 119.77366 132.75973
#
# Poissons Ratio (x) = 0.43247 0.50131
# Poissons Ratio (y) = 0.15639 0.32141
# Poissons Ratio (z) = 0.16355 0.28997
#
# Static dielectric constant tensor:
#      x y z
#    x 1.857520 0.000000 0.014360 
#    y 0.000000 1.756260 0.000000 
#    z 0.014360 0.000000 1.687710 
# 
# From -- ./inp_files/289125.got.cif
#   From: 2010.05.17/outbox.cif.g08.bks.cpg/sg15_145_cif.got.tgz:289125.got - 2010.06.03 18:47:42.
