data_PCOD9302098
_publ_section_title
;
Structure prediction by ZEFSAII (Michael W. Deem and Ramdas Pophale) SiO2 
 PCOD9302098
Probable space group: C 2/C
;
_chemical_formula_sum "Si O2"
_cell_formula_units_Z 44
_cell_length_a 23.370989
_cell_length_b 5.185826
_cell_length_c 17.982222
_cell_angle_alpha 90.000000
_cell_angle_beta 110.397621
_cell_angle_gamma 90.000000
_cell_volume 2042.750683
_symmetry_space_group_name_H-M "C 2/C"
_symmetry_group_IT_number 15
_symmetry_cell_setting 'monoclinic'
loop_
_space_group_symop_operation_xyz
x,y,z
-x,y,1/2-z
-x,-y,-z
x,-y,1/2+z
1/2+x,1/2+y,z
1/2-x,1/2+y,1/2-z
1/2-x,1/2-y,-z
1/2+x,1/2-y,1/2+z
loop_
_atom_site_type_symbol
_atom_site_label
_atom_site_fract_x
_atom_site_fract_y
_atom_site_fract_z
Si Si1 0.711251 0.122817 0.226404
Si Si2 0.446308 0.608611 0.393696
Si Si3 0.890112 0.596011 0.439156
Si Si4 0.074677 0.218326 0.393251
Si Si5 0.500000 0.084492 0.250000
Si Si6 0.888820 0.067563 0.731481
O O1 0.759817 0.353265 0.234074
O O2 0.673068 0.066789 0.134123
O O3 0.666836 0.257321 0.267045
O O4 0.419871 0.351934 0.417872
O O5 0.517661 0.578730 0.407904
O O6 0.405300 0.650566 0.300130
O O7 0.432520 0.852764 0.439208
O O8 0.886262 0.644497 0.525370
O O9 0.037430 0.417948 0.325473
O O10 0.112033 0.043656 0.352106
O O11 0.550191 0.261986 0.234929
#
# Coordination Sequence:
#
# PCOD9302098 Si02
#       6
#     8   8   8   8   4   8
#     4  11  25  48  70  89 128 181 239 277 323 387
#     4  11  21  42  62 101 140 177 208 261 338 413
#     4  11  26  40  68  98 133 176 227 270 325 391
#     4  12  23  38  64 103 141 170 213 272 334 406
#     4  12  22  40  68 100 148 166 210 262 358 402
#     4  11  24  40  69 100 132 183 219 268 338 405
#
# _framework density 21.539584999999999
#
# number of rings (size 3 to 8) (size 9 to 14) (size 15 to 20)
#    0.000    0.727    3.636    5.455    5.091    0.000 
#    0.000    1.818    0.000    0.000    0.000    0.000 
#    0.000    0.000    0.000    0.000    0.000    0.000 
#
# Total GULP energy -123043.989658 kJ/mol
# GULP energy per Si atom -5592.908621 kJ/mol
# Density = 2.149056 g / cm^3
# Si number density = 21.539585 Si / 1000 Ang^3
#
#
#
# Elastic Constant Matrix: (Units=GPa)
#
#
# Indices 1 2 3 4 5 6 
#
# 1 60.5530 0.2222 22.0424 0.0000 3.8414 0.0000
# 2 0.2222 77.1348 19.7566 -0.0002 0.6852 -0.0004
# 3 22.0424 19.7566 130.0011 -0.0001 -1.3901 -0.0001
# 4 0.0000 -0.0002 -0.0001 11.0981 0.0000 2.8431
# 5 3.8414 0.6852 -1.3901 0.0000 20.5970 0.0000
# 6 0.0000 -0.0004 -0.0001 2.8431 0.0000 20.6979
#
#
#
# Elastic Compliance Matrix: (Units=1/GPa)
#
#
# Indices 1 2 3 4 5 6 
#
# 1 0.017902 0.000799 -0.003195 0.000000 -0.003581 0.000000
# 2 0.000799 0.013532 -0.002200 0.000000 -0.000748 0.000000
# 3 -0.003195 -0.002200 0.008582 0.000000 0.001248 0.000000
# 4 0.000000 0.000000 0.000000 0.093392 0.000000 -0.012829
# 5 -0.003581 -0.000748 0.001248 0.000000 0.049328 0.000000
# 6 0.000000 0.000000 0.000000 -0.012829 0.000000 0.050076
#
#
# Mechanical properties :
#
#
# Convention : Reuss Voigt Hill
#
# Bulk Modulus (GPa) = 32.44345 39.08125 35.76235
# Shear Modulus (GPa) = 19.81939 25.52311 22.67125
#
# Velocity S-wave (km/s) = 3.03667 3.44603 3.24781
# Velocity P-wave (km/s) = 5.23355 5.83239 5.54107
#
# Compressibility (1/GPa) = 0.03082286
#
# Stress axis : x y z
#
# Youngs Moduli (GPa) = 55.86054 73.89822 116.52783
#
# Poissons Ratio (x) = -0.05901 0.37231
# Poissons Ratio (y) = -0.04461 0.25635
# Poissons Ratio (z) = 0.17847 0.16257
#
# Static dielectric constant tensor:
#      x y z
#    x 1.800570 0.000000 -0.040210 
#    y 0.000000 1.818850 0.000000 
#    z -0.040210 0.000000 1.891940 
# 
# From -- ./inp_files/217616.got.cif
#   From: 2010.05.17/outbox.cif.g08.bks.cpg/sg15_109_cif.got.tgz:217616.got - 2010.06.03 18:47:42.
