data_PCOD9302112
_publ_section_title
;
Structure prediction by ZEFSAII (Michael W. Deem and Ramdas Pophale) SiO2 
 PCOD9302112
Probable space group: C 2/C
;
_chemical_formula_sum "Si O2"
_cell_formula_units_Z 64
_cell_length_a 22.400463
_cell_length_b 17.076777
_cell_length_c 20.448299
_cell_angle_alpha 90.000000
_cell_angle_beta 155.218351
_cell_angle_gamma 90.000000
_cell_volume 3278.696984
_symmetry_space_group_name_H-M "C 2/C"
_symmetry_group_IT_number 15
_symmetry_cell_setting 'monoclinic'
loop_
_space_group_symop_operation_xyz
x,y,z
-x,y,1/2-z
-x,-y,-z
x,-y,1/2+z
1/2+x,1/2+y,z
1/2-x,1/2+y,1/2-z
1/2-x,1/2-y,-z
1/2+x,1/2-y,1/2+z
loop_
_atom_site_type_symbol
_atom_site_label
_atom_site_fract_x
_atom_site_fract_y
_atom_site_fract_z
Si Si1 0.526101 0.652422 0.533881
Si Si2 0.843862 0.484085 0.004526
Si Si3 0.420517 0.172385 0.410327
Si Si4 0.311806 0.067334 0.835404
Si Si5 0.357793 0.796027 0.152268
Si Si6 0.685279 0.664254 0.288232
Si Si7 0.285218 0.567595 0.360000
Si Si8 0.822247 0.527856 0.631876
O O1 0.508000 0.744119 0.530599
O O2 0.689659 0.630108 0.699425
O O3 0.448040 0.635383 0.387456
O O4 0.441454 0.598218 0.500186
O O5 0.808058 0.504171 0.044046
O O6 0.014915 0.474460 0.179419
O O7 0.816706 0.541917 0.916501
O O8 0.755937 0.404372 0.901794
O O9 0.540151 0.106153 0.539838
O O10 0.312787 0.183203 0.364097
O O11 0.322057 0.140952 0.253501
O O12 0.268398 0.991410 0.750242
O O13 0.500000 0.808269 0.250000
O O14 0.369979 0.739792 0.227150
O O15 0.291821 0.879871 0.103167
O O16 0.250000 0.750000 0.000000
O O17 0.272438 0.522049 0.414044
#
# Coordination Sequence:
#
# PCOD9302112 Si02
#       8
#     8   8   8   8   8   8   8   8
#     4  11  26  40  62  96 137 164 213 286 343 381
#     4  11  21  42  65  92 128 172 225 263 321 399
#     4  11  23  42  66  93 127 175 222 270 328 394
#     4  12  22  41  69  93 128 171 219 280 324 395
#     4  12  25  42  62  94 141 184 215 256 319 410
#     4  11  24  40  61  98 135 174 219 260 330 397
#     4  11  23  40  65  97 127 170 224 274 332 385
#     4  11  23  40  67  94 131 176 223 266 315 402
#
# _framework density 19.519950000000001
#
# number of rings (size 3 to 8) (size 9 to 14) (size 15 to 20)
#    0.000    0.750    6.250    3.000    7.000    0.000 
#    0.000    0.625    0.000    4.500    0.000    0.000 
#    0.000    0.000    0.000    0.000    0.000    0.000 
#
# Total GULP energy -178802.083653 kJ/mol
# GULP energy per Si atom -5587.565114 kJ/mol
# Density = 1.947552 g / cm^3
# Si number density = 19.519950 Si / 1000 Ang^3
#
#
#
# Elastic Constant Matrix: (Units=GPa)
#
#
# Indices 1 2 3 4 5 6 
#
# 1 93.6498 33.5492 20.8383 -0.0006 -18.7051 0.0001
# 2 33.5492 65.8111 7.1618 -0.0019 -8.4786 0.0000
# 3 20.8383 7.1618 48.9906 -0.0022 -10.6986 -0.0002
# 4 -0.0006 -0.0019 -0.0022 37.1314 -0.0009 2.3156
# 5 -18.7051 -8.4786 -10.6986 -0.0009 31.9546 0.0002
# 6 0.0001 0.0000 -0.0002 2.3156 0.0002 23.8383
#
#
#
# Elastic Compliance Matrix: (Units=1/GPa)
#
#
# Indices 1 2 3 4 5 6 
#
# 1 0.015081 -0.006495 -0.004223 0.000000 0.005691 0.000000
# 2 -0.006495 0.018633 0.000311 0.000001 0.001246 0.000000
# 3 -0.004223 0.000311 0.023348 0.000001 0.005428 0.000000
# 4 0.000000 0.000001 0.000001 0.027096 0.000001 -0.002632
# 5 0.005691 0.001246 0.005428 0.000001 0.036773 0.000000
# 6 0.000000 0.000000 0.000000 -0.002632 0.000000 0.042205
#
#
# Mechanical properties :
#
#
# Convention : Reuss Voigt Hill
#
# Bulk Modulus (GPa) = 27.58752 36.83890 32.21321
# Shear Modulus (GPa) = 25.50596 28.37836 26.94216
#
# Velocity S-wave (km/s) = 3.61870 3.81703 3.71918
# Velocity P-wave (km/s) = 5.62349 6.19190 5.91453
#
# Compressibility (1/GPa) = 0.03624828
#
# Stress axis : x y z
#
# Youngs Moduli (GPa) = 66.30750 53.66852 42.83019
#
# Poissons Ratio (x) = 0.34860 0.18085
# Poissons Ratio (y) = 0.43070 -0.01332
# Poissons Ratio (z) = 0.27999 -0.01669
#
# Static dielectric constant tensor:
#      x y z
#    x 1.696060 0.000000 -0.010130 
#    y 0.000000 1.710650 0.000000 
#    z -0.010130 0.000000 1.687300 
# 
# From -- ./inp_files/216188.got.cif
#   From: 2010.05.17/outbox.cif.g08.bks.cpg/sg15_109_cif.got.tgz:216188.got - 2010.06.03 18:47:42.
