data_PCOD9302370
_publ_section_title
;
Structure prediction by ZEFSAII (Michael W. Deem and Ramdas Pophale) SiO2 
 PCOD9302370
Probable space group: C 2/C
;
_chemical_formula_sum "Si O2"
_cell_formula_units_Z 28
_cell_length_a 7.064387
_cell_length_b 14.068569
_cell_length_c 11.636899
_cell_angle_alpha 90.000000
_cell_angle_beta 121.529755
_cell_angle_gamma 90.000000
_cell_volume 985.800804
_symmetry_space_group_name_H-M "C 2/C"
_symmetry_group_IT_number 15
_symmetry_cell_setting 'monoclinic'
loop_
_space_group_symop_operation_xyz
x,y,z
-x,y,1/2-z
-x,-y,-z
x,-y,1/2+z
1/2+x,1/2+y,z
1/2-x,1/2+y,1/2-z
1/2-x,1/2-y,-z
1/2+x,1/2-y,1/2+z
loop_
_atom_site_type_symbol
_atom_site_label
_atom_site_fract_x
_atom_site_fract_y
_atom_site_fract_z
Si Si1 0.250000 0.250000 0.000000
Si Si2 0.080891 0.891582 0.009028
Si Si3 0.087024 0.369761 0.588896
Si Si4 0.242710 0.572345 0.704340
O O1 0.136283 0.170650 0.050411
O O2 0.511476 0.222457 0.129674
O O3 0.206824 0.867012 0.931723
O O4 0.000000 0.000000 0.000000
O O5 0.256825 0.886092 0.168956
O O6 0.113056 0.471656 0.655947
O O7 0.363557 0.134286 0.932984
O O8 0.500000 0.557463 0.750000
#
# Coordination Sequence:
#
# PCOD9302370 Si02
#       4
#     4   8   8   8
#     4  12  26  46  70 114 152 194 262 306 376 470
#     4  12  24  47  77 106 149 198 251 312 386 458
#     4  11  24  45  73 108 149 196 247 312 379 456
#     4  11  21  47  75 104 144 196 250 308 383 454
#
# _framework density 28.403303999999999
#
# number of rings (size 3 to 8) (size 9 to 14) (size 15 to 20)
#    0.000    0.571    5.714    3.429    0.000    0.000 
#   10.286    0.000    0.000    0.000    0.000    0.000 
#    0.000    0.000    0.000    0.000    0.000    0.000 
#
# Total GULP energy -78073.325087 kJ/mol
# GULP energy per Si atom -5576.666078 kJ/mol
# Density = 2.833866 g / cm^3
# Si number density = 28.403304 Si / 1000 Ang^3
#
#
#
# Elastic Constant Matrix: (Units=GPa)
#
#
# Indices 1 2 3 4 5 6 
#
# 1 205.2937 39.5530 12.9024 0.0000 27.8785 0.0000
# 2 39.5530 156.0180 30.9076 0.0000 33.0746 0.0000
# 3 12.9024 30.9076 101.5025 0.0000 7.2775 0.0000
# 4 0.0000 0.0000 0.0000 30.7286 0.0000 34.2653
# 5 27.8785 33.0746 7.2775 0.0000 60.1172 0.0000
# 6 0.0000 0.0000 0.0000 34.2653 0.0000 27.5200
#
#
#
# Elastic Compliance Matrix: (Units=1/GPa)
#
#
# Indices 1 2 3 4 5 6 
#
# 1 0.005323 -0.000883 -0.000268 0.000000 -0.001950 0.000000
# 2 -0.000883 0.007802 -0.002002 0.000000 -0.003640 0.000000
# 3 -0.000268 -0.002002 0.010499 0.000000 -0.000045 0.000000
# 4 0.000000 0.000000 0.000000 -0.083784 0.000000 0.104320
# 5 -0.001950 -0.003640 -0.000045 0.000000 0.019547 0.000000
# 6 0.000000 0.000000 0.000000 0.104320 0.000000 -0.093553
#
#
# Mechanical properties :
#
#
# Convention : Reuss Voigt Hill
#
# Bulk Modulus (GPa) = 57.74637 69.94892 63.84765
# Shear Modulus (GPa) = -40.95434 48.96990 4.00778
#
# Velocity S-wave (km/s) = -3.80134 4.15672 1.18915
# Velocity P-wave (km/s) = 1.05267 6.90784 4.94097
#
# Compressibility (1/GPa) = 0.01731711
#
# Stress axis : x y z
#
# Youngs Moduli (GPa) = 187.86922 128.17584 95.24717
#
# Poissons Ratio (x) = 0.11317 0.02552
# Poissons Ratio (y) = 0.16587 0.19072
# Poissons Ratio (z) = 0.05034 0.25666
#
# Static dielectric constant tensor:
#      x y z
#    x 1.445660 0.000000 0.081620 
#    y 0.000000 0.262900 0.000000 
#    z 0.081620 0.000000 2.275310 
# 
# From -- ./inp_files/237319.got.cif
#   From: 2010.05.17/outbox.cif.g08.bks.cpg/sg15_119_cif.got.tgz:237319.got - 2010.06.03 18:47:42.
