data_PCOD9302255
_publ_section_title
;
Structure prediction by ZEFSAII (Michael W. Deem and Ramdas Pophale) SiO2 
 PCOD9302255
Probable space group: C 2/C
;
_chemical_formula_sum "Si O2"
_cell_formula_units_Z 64
_cell_length_a 19.750766
_cell_length_b 14.084811
_cell_length_c 17.969375
_cell_angle_alpha 90.000000
_cell_angle_beta 142.354862
_cell_angle_gamma 90.000000
_cell_volume 3053.128118
_symmetry_space_group_name_H-M "C 2/C"
_symmetry_group_IT_number 15
_symmetry_cell_setting 'monoclinic'
loop_
_space_group_symop_operation_xyz
x,y,z
-x,y,1/2-z
-x,-y,-z
x,-y,1/2+z
1/2+x,1/2+y,z
1/2-x,1/2+y,1/2-z
1/2-x,1/2-y,-z
1/2+x,1/2-y,1/2+z
loop_
_atom_site_type_symbol
_atom_site_label
_atom_site_fract_x
_atom_site_fract_y
_atom_site_fract_z
Si Si1 0.201733 0.990440 0.264744
Si Si2 0.259885 0.592437 0.935374
Si Si3 0.022742 0.611145 0.352378
Si Si4 0.079437 0.703422 0.682277
Si Si5 0.639073 0.914759 0.476797
Si Si6 0.320718 0.794761 0.392946
Si Si7 0.488616 0.403822 0.827277
Si Si8 0.275851 0.086258 0.177669
O O1 0.288431 0.050011 0.390953
O O2 0.079806 0.016387 0.188170
O O3 0.222877 0.028703 0.200341
O O4 0.233076 0.880144 0.302301
O O5 0.174252 0.640344 0.803880
O O6 0.219162 0.621944 0.981674
O O7 0.250762 0.478585 0.916929
O O8 0.388132 0.614861 0.034854
O O9 0.078552 0.508274 0.392524
O O10 0.103324 0.674501 0.471995
O O11 0.000000 0.649968 0.250000
O O12 0.908454 0.593962 0.296838
O O13 0.107663 0.711475 0.620141
O O14 0.077386 0.806014 0.718603
O O15 0.959242 0.656360 0.588602
O O16 0.268717 0.692555 0.362600
O O17 0.500000 0.427560 0.750000
#
# Coordination Sequence:
#
# PCOD9302255 Si02
#       8
#     8   8   8   8   8   8   8   8
#     4  11  24  47  70  99 145 182 229 289 352 413
#     4  12  25  43  71 101 140 183 232 289 354 413
#     4  11  22  43  71 100 134 187 238 298 343 400
#     4  12  24  43  71 106 138 180 234 290 349 425
#     4  11  21  43  74  99 135 176 236 296 343 410
#     4  11  26  44  70 109 139 185 239 285 354 422
#     4  12  27  44  70 105 145 186 228 287 362 420
#     4  12  24  46  71 101 141 185 236 286 354 417
#
# _framework density 20.962108000000001
#
# number of rings (size 3 to 8) (size 9 to 14) (size 15 to 20)
#    0.000    0.500    6.250    1.875    1.750    6.000 
#    0.000    1.250    0.000    0.000    0.000    0.000 
#    0.000    0.000    0.000    0.000    0.000    0.000 
#
# Total GULP energy -179038.577549 kJ/mol
# GULP energy per Si atom -5594.955548 kJ/mol
# Density = 2.091440 g / cm^3
# Si number density = 20.962108 Si / 1000 Ang^3
#
#
#
# Elastic Constant Matrix: (Units=GPa)
#
#
# Indices 1 2 3 4 5 6 
#
# 1 124.7366 34.3143 15.5456 0.0000 21.1495 0.0000
# 2 34.3143 105.0130 17.5049 0.0000 21.0083 0.0000
# 3 15.5456 17.5049 43.2989 0.0000 26.2026 0.0000
# 4 0.0000 0.0000 0.0000 16.2808 0.0000 8.3656
# 5 21.1495 21.0083 26.2026 0.0000 28.3307 0.0000
# 6 0.0000 0.0000 0.0000 8.3656 0.0000 30.4977
#
#
#
# Elastic Compliance Matrix: (Units=1/GPa)
#
#
# Indices 1 2 3 4 5 6 
#
# 1 0.009580 -0.001957 0.001820 0.000000 -0.007384 0.000000
# 2 -0.001957 0.011605 0.000760 0.000000 -0.007848 0.000000
# 3 0.001820 0.000760 0.052914 0.000000 -0.050861 0.000000
# 4 0.000000 0.000000 0.000000 0.071499 0.000000 -0.019612
# 5 -0.007384 -0.007848 -0.050861 0.000000 0.093670 0.000000
# 6 0.000000 0.000000 0.000000 -0.019612 0.000000 0.038169
#
#
# Mechanical properties :
#
#
# Convention : Reuss Voigt Hill
#
# Bulk Modulus (GPa) = 13.27206 45.30868 29.29037
# Shear Modulus (GPa) = 16.59439 28.73408 22.66424
#
# Velocity S-wave (km/s) = 2.81666 3.70640 3.29173
# Velocity P-wave (km/s) = 4.11379 6.32282 5.33391
#
# Compressibility (1/GPa) = 0.07534623
#
# Stress axis : x y z
#
# Youngs Moduli (GPa) = 104.38011 86.16729 18.89876
#
# Poissons Ratio (x) = 0.16860 -0.03440
# Poissons Ratio (y) = 0.20423 -0.01436
# Poissons Ratio (z) = -0.18999 -0.06548
#
# Static dielectric constant tensor:
#      x y z
#    x 1.736210 0.000000 0.002880 
#    y 0.000000 1.733990 0.000000 
#    z 0.002880 0.000000 1.760350 
# 
# From -- ./inp_files/211427.got.cif
#   From: 2010.05.17/outbox.cif.g08.bks.cpg/sg15_106_cif.got.tgz:211427.got - 2010.06.03 18:47:42.
