data_PCOD9302436
_publ_section_title
;
Structure prediction by ZEFSAII (Michael W. Deem and Ramdas Pophale) SiO2 
 PCOD9302436
Probable space group: C 2/C
;
_chemical_formula_sum "Si O2"
_cell_formula_units_Z 64
_cell_length_a 19.869314
_cell_length_b 21.252801
_cell_length_c 8.474292
_cell_angle_alpha 90.000000
_cell_angle_beta 115.292855
_cell_angle_gamma 90.000000
_cell_volume 3235.460904
_symmetry_space_group_name_H-M "C 2/C"
_symmetry_group_IT_number 15
_symmetry_cell_setting 'monoclinic'
loop_
_space_group_symop_operation_xyz
x,y,z
-x,y,1/2-z
-x,-y,-z
x,-y,1/2+z
1/2+x,1/2+y,z
1/2-x,1/2+y,1/2-z
1/2-x,1/2-y,-z
1/2+x,1/2-y,1/2+z
loop_
_atom_site_type_symbol
_atom_site_label
_atom_site_fract_x
_atom_site_fract_y
_atom_site_fract_z
Si Si1 0.799066 0.305643 0.125485
Si Si2 0.807461 0.636483 0.307790
Si Si3 0.180148 0.092139 0.573476
Si Si4 0.039968 0.939450 0.457630
Si Si5 0.572443 0.779735 0.732149
Si Si6 0.531610 0.674985 0.451271
Si Si7 0.686340 0.728474 0.062795
Si Si8 0.301790 0.465885 0.757530
O O1 0.744496 0.356906 0.143151
O O2 0.836989 0.274240 0.315253
O O3 0.750000 0.250000 0.000000
O O4 0.833959 0.340417 0.008527
O O5 0.869665 0.664700 0.253490
O O6 0.728571 0.671015 0.188428
O O7 0.778036 0.564865 0.276601
O O8 0.104681 0.131096 0.514252
O O9 0.181459 0.058989 0.402218
O O10 0.195915 0.040907 0.723317
O O11 0.128418 0.948574 0.559340
O O12 0.000000 0.936820 0.250000
O O13 0.025542 0.872696 0.524794
O O14 0.000000 0.000000 0.500000
O O15 0.500000 0.803490 0.750000
O O16 0.549121 0.739050 0.558285
O O17 0.613983 0.727311 0.882204
O O18 0.500000 0.690635 0.250000
O O19 0.750000 0.750000 0.000000
#
# Coordination Sequence:
#
# PCOD9302436 Si02
#       8
#     8   8   8   8   8   8   8   8
#     4   9  18  36  60  82 118 160 202 255 320 373
#     4   9  21  39  57  79 119 159 203 259 315 374
#     4  11  22  36  57  91 119 167 214 247 301 377
#     4  12  23  37  53  80 124 170 209 251 302 372
#     4  11  25  39  59  90 114 157 211 267 325 374
#     4  12  24  38  56  83 128 167 211 252 313 381
#     4   9  18  35  56  83 114 149 197 253 309 361
#     4  11  23  36  56  84 123 166 208 249 302 371
#
# _framework density 19.780798000000001
#
# number of rings (size 3 to 8) (size 9 to 14) (size 15 to 20)
#    0.000    1.500    2.500    3.750    3.500    4.000 
#    0.000    0.000    0.000    0.000    0.000    7.875 
#    0.000    1.000    0.000    0.250    0.000    0.125 
#
# Total GULP energy -178428.160732 kJ/mol
# GULP energy per Si atom -5575.880023 kJ/mol
# Density = 1.973578 g / cm^3
# Si number density = 19.780798 Si / 1000 Ang^3
#
#
#
# Elastic Constant Matrix: (Units=GPa)
#
#
# Indices 1 2 3 4 5 6 
#
# 1 89.4186 30.8186 1.8745 0.0000 4.9461 0.0000
# 2 30.8186 43.8976 10.2502 0.0000 0.0148 0.0000
# 3 1.8745 10.2502 91.1671 0.0000 -10.9583 0.0000
# 4 0.0000 0.0000 0.0000 21.5946 0.0000 -10.3822
# 5 4.9461 0.0148 -10.9583 0.0000 14.3043 0.0000
# 6 0.0000 0.0000 0.0000 -10.3822 0.0000 23.9257
#
#
#
# Elastic Compliance Matrix: (Units=1/GPa)
#
#
# Indices 1 2 3 4 5 6 
#
# 1 0.015140 -0.010695 0.000290 0.000000 -0.005002 0.000000
# 2 -0.010695 0.031016 -0.003113 0.000000 0.001281 0.000000
# 3 0.000290 -0.003113 0.012447 0.000000 0.009439 0.000000
# 4 0.000000 0.000000 0.000000 0.058516 0.000000 0.025392
# 5 -0.005002 0.001281 0.009439 0.000000 0.078868 0.000000
# 6 0.000000 0.000000 0.000000 0.025392 0.000000 0.052814
#
#
# Mechanical properties :
#
#
# Convention : Reuss Voigt Hill
#
# Bulk Modulus (GPa) = 31.67964 34.48553 33.08259
# Shear Modulus (GPa) = 17.46053 24.06760 20.76406
#
# Velocity S-wave (km/s) = 2.97425 3.49193 3.24343
# Velocity P-wave (km/s) = 5.27684 5.80773 5.54864
#
# Compressibility (1/GPa) = 0.03156601
#
# Stress axis : x y z
#
# Youngs Moduli (GPa) = 66.04964 32.24194 80.33750
#
# Poissons Ratio (x) = 0.34484 -0.02329
# Poissons Ratio (y) = 0.70642 0.25011
# Poissons Ratio (z) = -0.01915 0.10038
#
# Static dielectric constant tensor:
#      x y z
#    x 1.615610 0.000000 -0.112850 
#    y 0.000000 1.709660 0.000000 
#    z -0.112850 0.000000 1.666390 
# 
# From -- ./inp_files/57890.got.cif
#   From: 2010.05.17/outbox.cif.g08.bks.cpg/sg15_29_cif.got.tgz:57890.got - 2010.06.03 18:47:42.
