data_PCOD9302975
_publ_section_title
;
Structure prediction by ZEFSAII (Michael W. Deem and Ramdas Pophale) SiO2 
 PCOD9302975
Probable space group: C 2/C
;
_chemical_formula_sum "Si O2"
_cell_formula_units_Z 64
_cell_length_a 22.991246
_cell_length_b 17.720119
_cell_length_c 13.185504
_cell_angle_alpha 90.000000
_cell_angle_beta 30.349551
_cell_angle_gamma 90.000000
_cell_volume 2714.269301
_symmetry_space_group_name_H-M "C 2/C"
_symmetry_group_IT_number 15
_symmetry_cell_setting 'monoclinic'
loop_
_space_group_symop_operation_xyz
x,y,z
-x,y,1/2-z
-x,-y,-z
x,-y,1/2+z
1/2+x,1/2+y,z
1/2-x,1/2+y,1/2-z
1/2-x,1/2-y,-z
1/2+x,1/2-y,1/2+z
loop_
_atom_site_type_symbol
_atom_site_label
_atom_site_fract_x
_atom_site_fract_y
_atom_site_fract_z
Si Si1 0.209170 0.334404 0.584431
Si Si2 0.615568 0.490820 0.892859
Si Si3 0.374039 0.940245 0.495775
Si Si4 0.895835 0.153881 0.972202
Si Si5 0.391834 0.649696 0.484188
Si Si6 0.451090 0.200383 0.007137
Si Si7 0.376208 0.898253 0.985120
Si Si8 0.173731 0.279865 0.267021
O O1 0.250000 0.250000 0.500000
O O2 0.294490 0.359228 0.544354
O O3 0.203714 0.387859 0.495294
O O4 0.087167 0.323276 0.822754
O O5 0.738493 0.454309 0.663612
O O6 0.500000 0.500000 0.000000
O O7 0.573870 0.428373 0.035042
O O8 0.639292 0.571167 0.912959
O O9 0.500000 0.942069 0.250000
O O10 0.389446 0.860983 0.528901
O O11 0.382462 0.022441 0.535623
O O12 0.000000 0.189540 0.750000
O O13 0.859035 0.201882 0.127162
O O14 0.500000 0.634164 0.250000
O O15 0.415594 0.714910 0.532181
O O16 0.301908 0.694872 0.547156
O O17 0.588345 0.199761 0.804688
O O18 0.500000 0.885409 0.750000
O O19 0.342822 0.834756 0.112349
#
# Coordination Sequence:
#
# PCOD9302975 Si02
#       8
#     8   8   8   8   8   8   8   8
#     4  12  22  39  71 104 143 184 233 300 365 423
#     4  12  27  49  73 105 151 197 248 303 369 449
#     4  11  26  49  73 108 149 190 248 309 371 435
#     4  12  25  43  71 110 144 186 244 298 375 443
#     4  12  27  49  71 100 149 195 249 300 365 454
#     4  12  25  46  76 104 143 196 244 308 369 439
#     4  11  22  41  66 106 141 177 228 305 368 431
#     4  12  23  44  74 106 143 183 251 304 370 437
#
# _framework density 23.579090999999998
#
# number of rings (size 3 to 8) (size 9 to 14) (size 15 to 20)
#    0.000    0.250    6.250    2.625    1.750    2.000 
#    4.500    0.000    0.000    0.000    0.000    0.000 
#    0.000    0.000    0.000    0.000    0.000    0.000 
#
# Total GULP energy -178168.753986 kJ/mol
# GULP energy per Si atom -5567.773562 kJ/mol
# Density = 2.352542 g / cm^3
# Si number density = 23.579091 Si / 1000 Ang^3
#
#
#
# Elastic Constant Matrix: (Units=GPa)
#
#
# Indices 1 2 3 4 5 6 
#
# 1 92.7538 44.4569 24.4380 0.0000 -40.7064 0.0000
# 2 44.4569 162.9173 16.5606 0.0000 6.1007 0.0000
# 3 24.4380 16.5606 130.7455 0.0000 -23.3921 0.0000
# 4 0.0000 0.0000 0.0000 30.9495 0.0000 -3.1170
# 5 -40.7064 6.1007 -23.3921 0.0000 40.7117 0.0000
# 6 0.0000 0.0000 0.0000 -3.1170 0.0000 13.1162
#
#
#
# Elastic Compliance Matrix: (Units=1/GPa)
#
#
# Indices 1 2 3 4 5 6 
#
# 1 0.027748 -0.008815 0.001260 0.000000 0.029789 0.000000
# 2 -0.008815 0.009107 -0.001479 0.000000 -0.011029 0.000000
# 3 0.001260 -0.001479 0.008767 0.000000 0.006518 0.000000
# 4 0.000000 0.000000 0.000000 0.033103 0.000000 0.007867
# 5 0.029789 -0.011029 0.006518 0.000000 0.059746 0.000000
# 6 0.000000 0.000000 0.000000 0.007867 0.000000 0.078111
#
#
# Mechanical properties :
#
#
# Convention : Reuss Voigt Hill
#
# Bulk Modulus (GPa) = 36.29463 61.92529 49.10996
# Shear Modulus (GPa) = 20.50565 37.01955 28.76260
#
# Velocity S-wave (km/s) = 2.95219 3.96664 3.49640
# Velocity P-wave (km/s) = 5.20064 6.87741 6.09695
#
# Compressibility (1/GPa) = 0.02755229
#
# Stress axis : x y z
#
# Youngs Moduli (GPa) = 36.03858 109.80588 114.07030
#
# Poissons Ratio (x) = 0.96799 -0.14371
# Poissons Ratio (y) = 0.31770 0.16871
# Poissons Ratio (z) = -0.04540 0.16240
#
# Static dielectric constant tensor:
#      x y z
#    x 1.874430 0.000000 -0.072840 
#    y 0.000000 1.857750 0.000000 
#    z -0.072840 0.000000 2.114970 
# 
# From -- ./inp_files/174206.got.cif
#   From: 2010.05.17/outbox.cif.g08.bks.cpg/sg15_88_cif.got.tgz:174206.got - 2010.06.03 18:47:42.
