data_PCOD9302618
_publ_section_title
;
Structure prediction by ZEFSAII (Michael W. Deem and Ramdas Pophale) SiO2 
 PCOD9302618
Probable space group: C 2/C
;
_chemical_formula_sum "Si O2"
_cell_formula_units_Z 48
_cell_length_a 17.914183
_cell_length_b 9.167633
_cell_length_c 24.589284
_cell_angle_alpha 90.000000
_cell_angle_beta 33.896306
_cell_angle_gamma 90.000000
_cell_volume 2252.133900
_symmetry_space_group_name_H-M "C 2/C"
_symmetry_group_IT_number 15
_symmetry_cell_setting 'monoclinic'
loop_
_space_group_symop_operation_xyz
x,y,z
-x,y,1/2-z
-x,-y,-z
x,-y,1/2+z
1/2+x,1/2+y,z
1/2-x,1/2+y,1/2-z
1/2-x,1/2-y,-z
1/2+x,1/2-y,1/2+z
loop_
_atom_site_type_symbol
_atom_site_label
_atom_site_fract_x
_atom_site_fract_y
_atom_site_fract_z
Si Si1 0.309851 0.563100 0.493049
Si Si2 0.223665 0.395802 0.245457
Si Si3 0.117170 0.095607 0.276957
Si Si4 0.722317 0.340014 0.598750
Si Si5 0.141448 0.920228 0.926585
Si Si6 0.983225 0.637982 0.547080
O O1 0.465855 0.615041 0.389918
O O2 0.270300 0.540631 0.453884
O O3 0.203794 0.684490 0.579500
O O4 0.320193 0.440783 0.533499
O O5 0.216613 0.224152 0.237178
O O6 0.327918 0.448543 0.228531
O O7 0.254470 0.492204 0.174193
O O8 0.079021 0.418055 0.359170
O O9 0.129533 0.109673 0.204456
O O10 0.867738 0.306028 0.535458
O O11 0.113615 0.757736 0.921686
O O12 0.000000 0.000000 0.000000
O O13 0.000000 0.500000 0.500000
#
# Coordination Sequence:
#
# PCOD9302618 Si02
#       6
#     8   8   8   8   8   8
#     4  11  23  38  62  90 129 167 212 260 333 376
#     4  12  21  35  61  95 123 157 208 265 315 373
#     4  12  22  37  62  93 125 161 214 265 321 382
#     4  11  22  39  59  93 127 166 209 269 316 386
#     4  12  21  40  61  91 127 165 209 262 322 377
#     4  12  24  40  65  95 125 162 216 266 317 382
#
# _framework density 21.313120999999999
#
# number of rings (size 3 to 8) (size 9 to 14) (size 15 to 20)
#    0.000    0.333   10.000    0.500    0.000    0.000 
#    0.000    1.667    0.000    0.000    0.000    0.000 
#    0.000    0.000    0.000    0.000    0.000    0.000 
#
# Total GULP energy -133755.563791 kJ/mol
# GULP energy per Si atom -5573.148491 kJ/mol
# Density = 2.126461 g / cm^3
# Si number density = 21.313121 Si / 1000 Ang^3
#
#
#
# Elastic Constant Matrix: (Units=GPa)
#
#
# Indices 1 2 3 4 5 6 
#
# 1 92.6527 32.3776 25.5844 -0.0001 30.8855 0.0002
# 2 32.3776 73.7945 27.6837 -0.0002 12.7220 0.0004
# 3 25.5844 27.6837 123.8175 0.0001 36.7228 0.0000
# 4 -0.0001 -0.0002 0.0001 26.2047 0.0000 4.8537
# 5 30.8855 12.7220 36.7228 0.0000 45.5921 -0.0001
# 6 0.0002 0.0004 0.0000 4.8537 -0.0001 28.4213
#
#
#
# Elastic Compliance Matrix: (Units=1/GPa)
#
#
# Indices 1 2 3 4 5 6 
#
# 1 0.015774 -0.005562 0.000911 0.000000 -0.009868 0.000000
# 2 -0.005562 0.016882 -0.003082 0.000000 0.001539 0.000000
# 3 0.000911 -0.003082 0.011175 0.000000 -0.008758 0.000000
# 4 0.000000 0.000000 0.000000 0.039408 0.000000 -0.006730
# 5 -0.009868 0.001539 -0.008758 0.000000 0.035243 0.000000
# 6 0.000000 0.000000 0.000000 -0.006730 0.000000 0.036334
#
#
# Mechanical properties :
#
#
# Convention : Reuss Voigt Hill
#
# Bulk Modulus (GPa) = 35.25389 51.28405 43.26897
# Shear Modulus (GPa) = 27.81845 33.68488 30.75167
#
# Velocity S-wave (km/s) = 3.61671 3.97983 3.80261
# Velocity P-wave (km/s) = 5.83246 6.72556 6.29487
#
# Compressibility (1/GPa) = 0.02836567
#
# Stress axis : x y z
#
# Youngs Moduli (GPa) = 63.39391 59.23432 89.48740
#
# Poissons Ratio (x) = 0.32943 -0.08149
# Poissons Ratio (y) = 0.35257 0.27579
# Poissons Ratio (z) = -0.05773 0.18255
#
# Static dielectric constant tensor:
#      x y z
#    x 1.718470 0.000000 -0.016610 
#    y 0.000000 1.851640 0.000000 
#    z -0.016610 0.000000 1.784630 
# 
# From -- ./inp_files/300451.got.cif
#   From: 2010.05.17/outbox.cif.g08.bks.cpg/sg15_151_cif.got.tgz:300451.got - 2010.06.03 18:47:42.
