data_PCOD9302740
_publ_section_title
;
Structure prediction by ZEFSAII (Michael W. Deem and Ramdas Pophale) SiO2 
 PCOD9302740
Probable space group: C 2/C
;
_chemical_formula_sum "Si O2"
_cell_formula_units_Z 64
_cell_length_a 29.617923
_cell_length_b 16.612937
_cell_length_c 9.234764
_cell_angle_alpha 90.000000
_cell_angle_beta 37.494359
_cell_angle_gamma 90.000000
_cell_volume 2765.783732
_symmetry_space_group_name_H-M "C 2/C"
_symmetry_group_IT_number 15
_symmetry_cell_setting 'monoclinic'
loop_
_space_group_symop_operation_xyz
x,y,z
-x,y,1/2-z
-x,-y,-z
x,-y,1/2+z
1/2+x,1/2+y,z
1/2-x,1/2+y,1/2-z
1/2-x,1/2-y,-z
1/2+x,1/2-y,1/2+z
loop_
_atom_site_type_symbol
_atom_site_label
_atom_site_fract_x
_atom_site_fract_y
_atom_site_fract_z
Si Si1 0.268145 0.100380 0.780452
Si Si2 0.569090 0.062865 0.479456
Si Si3 0.841545 0.167673 0.836621
Si Si4 0.172700 0.689004 0.344304
Si Si5 0.704549 0.497748 0.195556
Si Si6 0.415946 0.630319 0.928878
Si Si7 0.069765 0.605696 0.140939
Si Si8 0.327627 0.268409 0.881901
O O1 0.259727 0.035246 0.676594
O O2 0.347981 0.142312 0.571686
O O3 0.200604 0.162177 0.935482
O O4 0.250905 0.054861 0.972148
O O5 0.641454 0.109918 0.348013
O O6 0.557361 0.076569 0.338113
O O7 0.576034 0.971361 0.517244
O O8 0.500000 0.096122 0.750000
O O9 0.854438 0.237565 0.687360
O O10 0.830383 0.079451 0.795830
O O11 0.904103 0.166379 0.799733
O O12 0.761982 0.187045 0.113528
O O13 0.147176 0.697972 0.575563
O O14 0.638523 0.552938 0.425382
O O15 0.500000 0.609064 0.750000
O O16 0.385448 0.692648 0.126344
O O17 0.000000 0.652660 0.250000
O O18 0.250000 0.250000 0.000000
#
# Coordination Sequence:
#
# PCOD9302740 Si02
#       8
#     8   8   8   8   8   8   8   8
#     4  11  22  39  68  99 122 173 226 270 331 392
#     4  11  25  41  62  96 133 173 218 269 340 396
#     4  11  22  43  67  96 134 174 217 273 334 393
#     4  11  24  42  70  95 131 173 226 274 326 408
#     4  11  22  41  68  98 129 170 225 278 327 399
#     4  11  26  45  68 102 135 176 229 284 340 397
#     4  11  23  41  64  96 133 170 217 280 331 394
#     4  11  24  43  67  96 133 174 225 273 333 404
#
# _framework density 23.139914999999998
#
# number of rings (size 3 to 8) (size 9 to 14) (size 15 to 20)
#    0.000    1.000    3.750    3.750    1.750    3.500 
#    0.000    1.875    0.000    0.750    0.000    0.000 
#    0.000    0.000    0.000    0.000    0.000    0.000 
#
# Total GULP energy -179110.041452 kJ/mol
# GULP energy per Si atom -5597.188795 kJ/mol
# Density = 2.308725 g / cm^3
# Si number density = 23.139915 Si / 1000 Ang^3
#
#
#
# Elastic Constant Matrix: (Units=GPa)
#
#
# Indices 1 2 3 4 5 6 
#
# 1 126.2695 9.9892 31.7246 0.0000 -1.1322 0.0000
# 2 9.9892 57.4982 5.7861 0.0000 3.0835 0.0000
# 3 31.7246 5.7861 68.7420 0.0000 -4.3194 0.0000
# 4 0.0000 0.0000 0.0000 24.6785 0.0000 5.5122
# 5 -1.1322 3.0835 -4.3194 0.0000 37.4697 0.0000
# 6 0.0000 0.0000 0.0000 5.5122 0.0000 25.5571
#
#
#
# Elastic Compliance Matrix: (Units=1/GPa)
#
#
# Indices 1 2 3 4 5 6 
#
# 1 0.009035 -0.001154 -0.004079 0.000000 -0.000102 0.000000
# 2 -0.001154 0.017787 -0.001067 0.000000 -0.001622 0.000000
# 3 -0.004079 -0.001067 0.016638 0.000000 0.001882 0.000000
# 4 0.000000 0.000000 0.000000 0.042572 0.000000 -0.009182
# 5 -0.000102 -0.001622 0.001882 0.000000 0.027036 0.000000
# 6 0.000000 0.000000 0.000000 -0.009182 0.000000 0.041108
#
#
# Mechanical properties :
#
#
# Convention : Reuss Voigt Hill
#
# Bulk Modulus (GPa) = 32.40373 38.61218 35.50795
# Shear Modulus (GPa) = 28.23899 31.20837 29.72368
#
# Velocity S-wave (km/s) = 3.49715 3.67642 3.58791
# Velocity P-wave (km/s) = 5.50823 5.89441 5.70459
#
# Compressibility (1/GPa) = 0.03086065
#
# Stress axis : x y z
#
# Youngs Moduli (GPa) = 110.68417 56.22219 60.10475
#
# Poissons Ratio (x) = 0.06486 0.24516
# Poissons Ratio (y) = 0.12769 0.06411
# Poissons Ratio (z) = 0.45147 0.05997
#
# Static dielectric constant tensor:
#      x y z
#    x 1.868930 0.000000 0.001160 
#    y 0.000000 1.955530 0.000000 
#    z 0.001160 0.000000 1.893810 
# 
# From -- ./inp_files/70568.got.cif
#   From: 2010.05.17/outbox.cif.g08.bks.cpg/sg15_36_cif.got.tgz:70568.got - 2010.06.03 18:47:42.
