data_PCOD9302700
_publ_section_title
;
Structure prediction by ZEFSAII (Michael W. Deem and Ramdas Pophale) SiO2 
 PCOD9302700
Probable space group: C 2/C
;
_chemical_formula_sum "Si O2"
_cell_formula_units_Z 48
_cell_length_a 14.685427
_cell_length_b 18.727134
_cell_length_c 11.434726
_cell_angle_alpha 90.000000
_cell_angle_beta 38.456873
_cell_angle_gamma 90.000000
_cell_volume 1955.788746
_symmetry_space_group_name_H-M "C 2/C"
_symmetry_group_IT_number 15
_symmetry_cell_setting 'monoclinic'
loop_
_space_group_symop_operation_xyz
x,y,z
-x,y,1/2-z
-x,-y,-z
x,-y,1/2+z
1/2+x,1/2+y,z
1/2-x,1/2+y,1/2-z
1/2-x,1/2-y,-z
1/2+x,1/2-y,1/2+z
loop_
_atom_site_type_symbol
_atom_site_label
_atom_site_fract_x
_atom_site_fract_y
_atom_site_fract_z
Si Si1 0.044474 0.873471 0.015189
Si Si2 0.172787 0.656599 0.702305
Si Si3 0.413558 0.232754 0.059189
Si Si4 0.657308 0.566856 0.156893
Si Si5 0.782040 0.572771 0.619266
Si Si6 0.711215 0.829031 0.585742
O O1 0.112199 0.904034 0.828981
O O2 0.148421 0.876935 0.021502
O O3 0.015200 0.790141 0.023080
O O4 0.889893 0.909691 0.190645
O O5 0.283319 0.718752 0.638308
O O6 0.255609 0.624738 0.507588
O O7 0.159789 0.591547 0.810140
O O8 0.013338 0.692548 0.864973
O O9 0.360646 0.181397 0.215717
O O10 0.500000 0.550037 0.250000
O O11 0.772840 0.503959 0.068865
O O12 0.854692 0.628932 0.457115
O O13 0.750000 0.750000 0.500000
#
# Coordination Sequence:
#
# PCOD9302700 Si02
#       6
#     8   8   8   8   8   8
#     4  11  22  39  66 101 129 176 227 290 339 393
#     4  11  25  45  68 104 133 184 225 289 344 411
#     4  11  22  43  68  99 136 168 235 279 350 399
#     4  12  24  43  67  99 140 184 230 278 342 419
#     4  11  24  39  70  99 135 172 229 285 339 410
#     4  12  22  39  67 101 132 174 225 291 344 395
#
# _framework density 24.542528999999998
#
# number of rings (size 3 to 8) (size 9 to 14) (size 15 to 20)
#    0.000    0.667    8.333    2.000    2.333    2.667 
#    3.000    0.833    3.667    0.000    0.000    0.000 
#    0.000    0.000    0.000    0.000    0.000    0.000 
#
# Total GULP energy -134226.231405 kJ/mol
# GULP energy per Si atom -5592.759642 kJ/mol
# Density = 2.448667 g / cm^3
# Si number density = 24.542529 Si / 1000 Ang^3
#
#
#
# Elastic Constant Matrix: (Units=GPa)
#
#
# Indices 1 2 3 4 5 6 
#
# 1 60.1220 7.2685 16.2339 0.0024 11.4035 -0.0003
# 2 7.2685 42.4177 39.2295 0.0017 -2.6182 0.0001
# 3 16.2339 39.2295 154.2562 0.0022 22.7389 -0.0001
# 4 0.0024 0.0017 0.0022 -34.2696 -0.0009 -35.3396
# 5 11.4035 -2.6182 22.7389 -0.0009 32.4713 0.0003
# 6 -0.0003 0.0001 -0.0001 -35.3396 0.0003 -32.4577
#
#
#
# Elastic Compliance Matrix: (Units=1/GPa)
#
#
# Indices 1 2 3 4 5 6 
#
# 1 0.018339 -0.003507 -0.000053 -0.000012 -0.006686 0.000013
# 2 -0.003507 0.033985 -0.009879 -0.000002 0.010890 0.000002
# 3 -0.000053 -0.009879 0.010165 -0.000004 -0.007896 0.000004
# 4 -0.000012 -0.000002 -0.000004 0.237651 0.000016 -0.258752
# 5 -0.006686 0.010890 -0.007896 0.000016 0.039552 -0.000017
# 6 0.000013 0.000002 0.000004 -0.258752 -0.000017 0.250917
#
#
# Mechanical properties :
#
#
# Convention : Reuss Voigt Hill
#
# Bulk Modulus (GPa) = 28.08038 42.47327 35.27683
# Shear Modulus (GPa) = 7.94463 6.08640 7.01552
#
# Velocity S-wave (km/s) = 1.80114 1.57649 1.69255
# Velocity P-wave (km/s) = 3.97390 4.54503 4.26903
#
# Compressibility (1/GPa) = 0.03561205
#
# Stress axis : x y z
#
# Youngs Moduli (GPa) = 54.52797 29.42513 98.38090
#
# Poissons Ratio (x) = 0.10318 0.00517
# Poissons Ratio (y) = 0.19121 0.97190
# Poissons Ratio (z) = 0.00287 0.29069
#
# Static dielectric constant tensor:
#      x y z
#    x 2.132240 0.000000 -0.094350 
#    y 0.000000 1.973660 0.000000 
#    z -0.094350 0.000000 1.992750 
# 
# From -- ./inp_files/107251.got.cif
#   From: 2010.05.17/outbox.cif.g08.bks.cpg/sg15_54_cif.got.tgz:107251.got - 2010.06.03 18:47:42.
