data_PCOD9303581
_publ_section_title
;
Structure prediction by ZEFSAII (Michael W. Deem and Ramdas Pophale) SiO2 
 PCOD9303581
Probable space group: C 2/C
;
_chemical_formula_sum "Si O2"
_cell_formula_units_Z 32
_cell_length_a 25.216431
_cell_length_b 10.346963
_cell_length_c 15.863809
_cell_angle_alpha 90.000000
_cell_angle_beta 15.831931
_cell_angle_gamma 90.000000
_cell_volume 1129.209545
_symmetry_space_group_name_H-M "C 2/C"
_symmetry_group_IT_number 15
_symmetry_cell_setting 'monoclinic'
loop_
_space_group_symop_operation_xyz
x,y,z
-x,y,1/2-z
-x,-y,-z
x,-y,1/2+z
1/2+x,1/2+y,z
1/2-x,1/2+y,1/2-z
1/2-x,1/2-y,-z
1/2+x,1/2-y,1/2+z
loop_
_atom_site_type_symbol
_atom_site_label
_atom_site_fract_x
_atom_site_fract_y
_atom_site_fract_z
Si Si1 0.773297 0.053109 0.623695
Si Si2 0.779073 0.900439 0.936668
Si Si3 0.142268 0.802467 0.920546
Si Si4 0.676929 0.628023 0.724616
O O1 0.688677 0.035619 0.659729
O O2 0.725447 0.195224 0.729700
O O3 0.000000 0.050060 0.250000
O O4 0.749209 0.937744 0.726495
O O5 0.004173 0.895863 0.557305
O O6 0.750000 0.750000 0.000000
O O7 0.186579 0.733974 0.942437
O O8 0.293409 0.997899 0.524120
O O9 0.936490 0.833056 0.188997
#
# Coordination Sequence:
#
# PCOD9303581 Si02
#       4
#     8   8   8   8
#     4  12  24  47  74 105 151 196 238 307 371 426
#     4  11  22  45  77 103 145 203 243 299 368 436
#     4  12  26  46  75 110 149 192 250 303 359 450
#     4  11  24  44  75 108 147 189 248 301 360 441
#
# _framework density 28.33841
#
# number of rings (size 3 to 8) (size 9 to 14) (size 15 to 20)
#    0.000    0.500    7.500    1.500    0.000    2.000 
#    0.000    1.250    5.500    0.000    0.000    0.000 
#    0.000    0.000    0.000    0.000    0.000    0.000 
#
# Total GULP energy -89228.894888 kJ/mol
# GULP energy per Si atom -5576.805931 kJ/mol
# Density = 2.827391 g / cm^3
# Si number density = 28.338410 Si / 1000 Ang^3
#
#
#
# Elastic Constant Matrix: (Units=GPa)
#
#
# Indices 1 2 3 4 5 6 
#
# 1 247.6777 114.4726 55.1040 -0.0002 -7.1257 0.0000
# 2 114.4726 204.7664 31.6539 0.0001 11.7871 0.0001
# 3 55.1040 31.6539 93.3529 0.0002 -20.8861 0.0002
# 4 -0.0002 0.0001 0.0002 20.9664 0.0002 2.7220
# 5 -7.1257 11.7871 -20.8861 0.0002 34.9772 0.0000
# 6 0.0000 0.0001 0.0002 2.7220 0.0000 87.5421
#
#
#
# Elastic Compliance Matrix: (Units=1/GPa)
#
#
# Indices 1 2 3 4 5 6 
#
# 1 0.005978 -0.003035 -0.002306 0.000000 0.000864 0.000000
# 2 -0.003035 0.007027 -0.001453 0.000000 -0.003854 0.000000
# 3 -0.002306 -0.001453 0.014509 0.000000 0.008684 0.000000
# 4 0.000000 0.000000 0.000000 0.047889 0.000000 -0.001489
# 5 0.000864 -0.003854 0.008684 0.000000 0.035250 0.000000
# 6 0.000000 0.000000 0.000000 -0.001489 0.000000 0.011469
#
#
# Mechanical properties :
#
#
# Convention : Reuss Voigt Hill
#
# Bulk Modulus (GPa) = 71.81722 105.36200 88.58961
# Shear Modulus (GPa) = 35.62410 51.66826 43.64618
#
# Velocity S-wave (km/s) = 3.54940 4.27460 3.92877
# Velocity P-wave (km/s) = 6.49580 7.85007 7.20482
#
# Compressibility (1/GPa) = 0.01392424
#
# Stress axis : x y z
#
# Youngs Moduli (GPa) = 167.26957 142.30814 68.92196
#
# Poissons Ratio (x) = 0.43195 0.15897
# Poissons Ratio (y) = 0.50771 0.10017
# Poissons Ratio (z) = 0.38581 0.20682
#
# Static dielectric constant tensor:
#      x y z
#    x 2.423170 0.000000 -0.201850 
#    y 0.000000 2.358650 0.000000 
#    z -0.201850 0.000000 2.504670 
# 
# From -- ./inp_files/257093.got.cif
#   From: 2010.05.17/outbox.cif.g08.bks.cpg/sg15_129_cif.got.tgz:257093.got - 2010.06.03 18:47:42.
