data_PCOD9303657
_publ_section_title
;
Structure prediction by ZEFSAII (Michael W. Deem and Ramdas Pophale) SiO2 
 PCOD9303657
Probable space group: C 2/C
;
_chemical_formula_sum "Si O2"
_cell_formula_units_Z 40
_cell_length_a 9.347200
_cell_length_b 17.501757
_cell_length_c 13.867631
_cell_angle_alpha 90.000000
_cell_angle_beta 41.800877
_cell_angle_gamma 90.000000
_cell_volume 1512.147681
_symmetry_space_group_name_H-M "C 2/C"
_symmetry_group_IT_number 15
_symmetry_cell_setting 'monoclinic'
loop_
_space_group_symop_operation_xyz
x,y,z
-x,y,1/2-z
-x,-y,-z
x,-y,1/2+z
1/2+x,1/2+y,z
1/2-x,1/2+y,1/2-z
1/2-x,1/2-y,-z
1/2+x,1/2-y,1/2+z
loop_
_atom_site_type_symbol
_atom_site_label
_atom_site_fract_x
_atom_site_fract_y
_atom_site_fract_z
Si Si1 0.001406 0.853152 0.916221
Si Si2 0.827938 0.626105 0.412361
Si Si3 0.084601 0.451171 0.099388
Si Si4 0.231343 0.252106 0.177631
Si Si5 0.267791 0.362024 0.338402
O O1 0.810773 0.907105 0.976394
O O2 0.895602 0.774243 0.010602
O O3 0.118525 0.885957 0.951371
O O4 0.175527 0.831700 0.747326
O O5 0.891219 0.541921 0.416515
O O6 0.806908 0.672732 0.521544
O O7 0.000000 0.657348 0.250000
O O8 0.000000 0.436422 0.250000
O O9 0.906758 0.419933 0.115967
O O10 0.293707 0.301274 0.239797
O O11 0.000000 0.275086 0.250000
O O12 0.500000 0.396541 0.250000
#
# Coordination Sequence:
#
# PCOD9303657 Si02
#       5
#     8   8   8   8   8
#     4  12  25  47  74 102 146 188 239 296 355 420
#     4  11  27  44  70 109 143 183 241 294 357 424
#     4  11  22  47  75 105 144 187 236 297 357 425
#     4  12  26  45  76 102 144 191 241 290 356 424
#     4  12  23  46  73 104 145 192 232 291 362 418
#
# _framework density 26.452442999999999
#
# number of rings (size 3 to 8) (size 9 to 14) (size 15 to 20)
#    0.000    0.400    6.000    1.800    2.800    3.200 
#    0.000    1.000    0.000    0.000    0.000    0.000 
#    0.000    0.000    0.000    0.000    0.000    0.000 
#
# Total GULP energy -112052.819435 kJ/mol
# GULP energy per Si atom -5602.640972 kJ/mol
# Density = 2.639224 g / cm^3
# Si number density = 26.452443 Si / 1000 Ang^3
#
#
#
# Elastic Constant Matrix: (Units=GPa)
#
#
# Indices 1 2 3 4 5 6 
#
# 1 239.8881 34.5618 37.8773 0.0011 -5.0347 -0.0002
# 2 34.5618 57.1054 -5.8269 0.0008 1.8427 -0.0006
# 3 37.8773 -5.8269 104.6947 0.0017 14.3858 -0.0012
# 4 0.0011 0.0008 0.0017 17.7160 -0.0005 6.7138
# 5 -5.0347 1.8427 14.3858 -0.0005 60.3431 0.0002
# 6 -0.0002 -0.0006 -0.0012 6.7138 0.0002 43.0679
#
#
#
# Elastic Compliance Matrix: (Units=1/GPa)
#
#
# Indices 1 2 3 4 5 6 
#
# 1 0.004999 -0.003276 -0.002132 0.000000 0.001025 0.000000
# 2 -0.003276 0.019796 0.002489 -0.000001 -0.001471 0.000001
# 3 -0.002132 0.002489 0.010852 -0.000001 -0.002841 0.000001
# 4 0.000000 -0.000001 -0.000001 0.059990 0.000001 -0.009352
# 5 0.001025 -0.001471 -0.002841 0.000001 0.017380 0.000000
# 6 0.000000 0.000001 0.000001 -0.009352 0.000000 0.024677
#
#
# Mechanical properties :
#
#
# Convention : Reuss Voigt Hill
#
# Bulk Modulus (GPa) = 33.54693 59.43472 46.49083
# Shear Modulus (GPa) = 32.58044 46.56378 39.57211
#
# Velocity S-wave (km/s) = 3.51331 4.20012 3.87198
# Velocity P-wave (km/s) = 5.40068 6.78518 6.13213
#
# Compressibility (1/GPa) = 0.02980898
#
# Stress axis : x y z
#
# Youngs Moduli (GPa) = 200.05229 50.51621 92.15149
#
# Poissons Ratio (x) = 0.16549 0.19644
# Poissons Ratio (y) = 0.65536 -0.22938
# Poissons Ratio (z) = 0.42645 -0.12574
#
# Static dielectric constant tensor:
#      x y z
#    x 2.033220 0.000000 -0.044160 
#    y 0.000000 2.071490 0.000000 
#    z -0.044160 0.000000 2.144690 
# 
# From -- ./inp_files/137108.got.cif
#   From: 2010.05.17/outbox.cif.g08.bks.cpg/sg15_69_cif.got.tgz:137108.got - 2010.06.03 18:47:42.
