data_PCOD9303973
_publ_section_title
;
Structure prediction by ZEFSAII (Michael W. Deem and Ramdas Pophale) SiO2 
 PCOD9303973
Probable space group: C 2/C
;
_chemical_formula_sum "Si O2"
_cell_formula_units_Z 56
_cell_length_a 11.726225
_cell_length_b 15.555279
_cell_length_c 28.858911
_cell_angle_alpha 90.000000
_cell_angle_beta 32.309193
_cell_angle_gamma 90.000000
_cell_volume 2813.545197
_symmetry_space_group_name_H-M "C 2/C"
_symmetry_group_IT_number 15
_symmetry_cell_setting 'monoclinic'
loop_
_space_group_symop_operation_xyz
x,y,z
-x,y,1/2-z
-x,-y,-z
x,-y,1/2+z
1/2+x,1/2+y,z
1/2-x,1/2+y,1/2-z
1/2-x,1/2-y,-z
1/2+x,1/2-y,1/2+z
loop_
_atom_site_type_symbol
_atom_site_label
_atom_site_fract_x
_atom_site_fract_y
_atom_site_fract_z
Si Si1 0.036666 0.223095 0.598311
Si Si2 0.903346 0.919542 0.716801
Si Si3 0.606943 0.027364 0.889315
Si Si4 0.859240 0.302529 0.752474
Si Si5 0.277998 0.556151 0.927238
Si Si6 0.349348 0.245563 0.836316
Si Si7 0.919369 0.695679 0.911979
O O1 0.250000 0.250000 0.500000
O O2 0.069895 0.123149 0.599312
O O3 0.990220 0.264597 0.664079
O O4 0.859686 0.253667 0.622485
O O5 0.733199 0.890471 0.736893
O O6 0.021872 0.833824 0.695704
O O7 0.779842 0.977096 0.798004
O O8 0.089425 0.970079 0.626925
O O9 0.714807 0.077988 0.895674
O O10 0.469536 0.098836 0.909951
O O11 0.439685 0.960715 0.969834
O O12 0.650090 0.243238 0.832849
O O13 0.000000 0.309213 0.750000
O O14 0.500000 0.192789 0.750000
O O15 0.324489 0.198607 0.893026
O O16 0.750000 0.750000 0.000000
#
# Coordination Sequence:
#
# PCOD9303973 Si02
#       7
#     8   8   8   8   8   8   8
#     4  12  26  43  69  99 135 175 229 276 342 405
#     4  11  23  43  69  94 134 175 223 280 340 396
#     4  11  23  41  67  97 131 176 227 283 336 397
#     4  11  24  43  66  97 132 176 226 278 335 410
#     4  11  25  39  66  98 132 166 229 283 333 394
#     4  11  23  44  69  93 135 181 225 270 341 410
#     4  11  24  42  70  97 133 179 226 275 344 405
#
# _framework density 19.903713
#
# number of rings (size 3 to 8) (size 9 to 14) (size 15 to 20)
#    0.000    0.857    2.857    5.571    8.000    0.000 
#    2.571    0.714    0.000    0.000    0.000    0.000 
#    0.000    0.000    0.000    0.000    0.000    0.000 
#
# Total GULP energy -156236.181207 kJ/mol
# GULP energy per Si atom -5579.863615 kJ/mol
# Density = 1.985841 g / cm^3
# Si number density = 19.903713 Si / 1000 Ang^3
#
#
#
# Elastic Constant Matrix: (Units=GPa)
#
#
# Indices 1 2 3 4 5 6 
#
# 1 187.0084 46.0162 56.6578 0.0000 4.6877 -0.0001
# 2 46.0162 53.4073 4.1114 -0.0011 2.2004 0.0002
# 3 56.6578 4.1114 113.5640 -0.0064 -3.5360 -0.0034
# 4 0.0000 -0.0011 -0.0064 24.1699 0.0008 -5.3734
# 5 4.6877 2.2004 -3.5360 0.0008 29.8827 -0.0001
# 6 -0.0001 0.0002 -0.0034 -5.3734 -0.0001 18.1123
#
#
#
# Elastic Compliance Matrix: (Units=1/GPa)
#
#
# Indices 1 2 3 4 5 6 
#
# 1 0.008213 -0.006725 -0.003893 -0.000001 -0.001254 -0.000001
# 2 -0.006725 0.024348 0.002460 0.000002 -0.000447 0.000001
# 3 -0.003893 0.002460 0.010712 0.000004 0.001697 0.000003
# 4 -0.000001 0.000002 0.000004 0.044295 -0.000001 0.013141
# 5 -0.001254 -0.000447 0.001697 -0.000001 0.033895 0.000000
# 6 -0.000001 0.000001 0.000003 0.013141 0.000000 0.059110
#
#
# Mechanical properties :
#
#
# Convention : Reuss Voigt Hill
#
# Bulk Modulus (GPa) = 37.09822 63.06116 50.07969
# Shear Modulus (GPa) = 24.28670 30.91260 27.59965
#
# Velocity S-wave (km/s) = 3.49694 3.94522 3.72783
# Velocity P-wave (km/s) = 5.91473 7.24603 6.61396
#
# Compressibility (1/GPa) = 0.02695547
#
# Stress axis : x y z
#
# Youngs Moduli (GPa) = 121.75671 41.07197 93.35580
#
# Poissons Ratio (x) = 0.27621 0.36345
# Poissons Ratio (y) = 0.81883 -0.22964
# Poissons Ratio (z) = 0.47402 -0.10103
#
# Static dielectric constant tensor:
#      x y z
#    x 0.883590 -0.000010 0.294260 
#    y -0.000010 1.747560 0.000000 
#    z 0.294260 0.000000 1.595830 
# 
# From -- ./inp_files/311328.got.cif
#   From: 2010.05.17/outbox.cif.g08.bks.cpg/sg15_156_cif.got.tgz:311328.got - 2010.06.03 18:47:42.
