data_PCOD9303192
_publ_section_title
;
Structure prediction by ZEFSAII (Michael W. Deem and Ramdas Pophale) SiO2 
 PCOD9303192
Probable space group: C 2/C
;
_chemical_formula_sum "Si O2"
_cell_formula_units_Z 32
_cell_length_a 11.153181
_cell_length_b 13.640608
_cell_length_c 9.407142
_cell_angle_alpha 90.000000
_cell_angle_beta 89.191689
_cell_angle_gamma 90.000000
_cell_volume 1431.024136
_symmetry_space_group_name_H-M "C 2/C"
_symmetry_group_IT_number 15
_symmetry_cell_setting 'monoclinic'
loop_
_space_group_symop_operation_xyz
x,y,z
-x,y,1/2-z
-x,-y,-z
x,-y,1/2+z
1/2+x,1/2+y,z
1/2-x,1/2+y,1/2-z
1/2-x,1/2-y,-z
1/2+x,1/2-y,1/2+z
loop_
_atom_site_type_symbol
_atom_site_label
_atom_site_fract_x
_atom_site_fract_y
_atom_site_fract_z
Si Si1 0.916537 0.534814 0.628543
Si Si2 0.143198 0.761181 0.888077
Si Si3 0.750403 0.630836 0.111314
Si Si4 0.435252 0.697276 0.599309
O O1 0.895829 0.650218 0.644629
O O2 0.790036 0.479997 0.633146
O O3 0.000000 0.497068 0.750000
O O4 0.000000 0.500000 0.500000
O O5 0.181119 0.820446 0.746317
O O6 0.250000 0.750000 0.000000
O O7 0.035544 0.809958 0.976572
O O8 0.873146 0.695068 0.102255
O O9 0.676835 0.636994 0.964687
O O10 0.500000 0.677300 0.750000
#
# Coordination Sequence:
#
# PCOD9303192 Si02
#       4
#     8   8   8   8
#     4  12  25  44  73 107 137 182 245 294 337 427
#     4  12  24  44  73 104 146 187 228 294 360 420
#     4  11  24  43  70 106 142 181 238 294 354 408
#     4  11  22  42  70 102 140 186 230 287 353 419
#
# _framework density 22.361606999999999
#
# number of rings (size 3 to 8) (size 9 to 14) (size 15 to 20)
#    0.000    0.500    5.000    4.500    3.500    0.000 
#    0.000    1.250    5.500    1.500    0.000    0.000 
#    0.000    0.000    0.000    0.000    0.000    0.000 
#
# Total GULP energy -89353.423475 kJ/mol
# GULP energy per Si atom -5584.588967 kJ/mol
# Density = 2.231071 g / cm^3
# Si number density = 22.361607 Si / 1000 Ang^3
#
#
#
# Elastic Constant Matrix: (Units=GPa)
#
#
# Indices 1 2 3 4 5 6 
#
# 1 92.0266 19.5924 60.7332 0.0000 22.1478 0.0000
# 2 19.5924 75.3337 37.1747 0.0000 2.1511 0.0000
# 3 60.7332 37.1747 161.6140 0.0000 20.6242 0.0000
# 4 0.0000 0.0000 0.0000 18.4238 0.0000 3.3253
# 5 22.1478 2.1511 20.6242 0.0000 70.1955 0.0000
# 6 0.0000 0.0000 0.0000 3.3253 0.0000 34.1793
#
#
#
# Elastic Compliance Matrix: (Units=1/GPa)
#
#
# Indices 1 2 3 4 5 6 
#
# 1 0.015252 -0.001412 -0.004985 0.000000 -0.003304 0.000000
# 2 -0.001412 0.015127 -0.003061 0.000000 0.000881 0.000000
# 3 -0.004985 -0.003061 0.008886 0.000000 -0.000944 0.000000
# 4 0.000000 0.000000 0.000000 0.055248 0.000000 -0.005375
# 5 -0.003304 0.000881 -0.000944 0.000000 0.015539 0.000000
# 6 0.000000 0.000000 0.000000 -0.005375 0.000000 0.029780
#
#
# Mechanical properties :
#
#
# Convention : Reuss Voigt Hill
#
# Bulk Modulus (GPa) = 49.14641 62.66388 55.90515
# Shear Modulus (GPa) = 30.20567 38.65800 34.43184
#
# Velocity S-wave (km/s) = 3.67929 4.16235 3.92825
# Velocity P-wave (km/s) = 6.33050 7.15430 6.75497
#
# Compressibility (1/GPa) = 0.02034736
#
# Stress axis : x y z
#
# Youngs Moduli (GPa) = 65.56384 66.10668 112.54196
#
# Poissons Ratio (x) = 0.09337 0.56104
# Poissons Ratio (y) = 0.09260 0.34452
# Poissons Ratio (z) = 0.32684 0.20237
#
# Static dielectric constant tensor:
#      x y z
#    x 1.864470 0.000000 0.016940 
#    y 0.000000 2.054870 0.000000 
#    z 0.016940 0.000000 1.818630 
# 
# From -- ./inp_files/27656.got.cif
#   From: 2010.05.17/outbox.cif.g08.bks.cpg/sg15_14_cif.got.tgz:27656.got - 2010.06.03 18:47:42.
