data_PCOD9303178
_publ_section_title
;
Structure prediction by ZEFSAII (Michael W. Deem and Ramdas Pophale) SiO2 
 PCOD9303178
Probable space group: C 2/C
;
_chemical_formula_sum "Si O2"
_cell_formula_units_Z 48
_cell_length_a 11.735143
_cell_length_b 13.787551
_cell_length_c 19.893651
_cell_angle_alpha 90.000000
_cell_angle_beta 48.097675
_cell_angle_gamma 90.000000
_cell_volume 2395.680819
_symmetry_space_group_name_H-M "C 2/C"
_symmetry_group_IT_number 15
_symmetry_cell_setting 'monoclinic'
loop_
_space_group_symop_operation_xyz
x,y,z
-x,y,1/2-z
-x,-y,-z
x,-y,1/2+z
1/2+x,1/2+y,z
1/2-x,1/2+y,1/2-z
1/2-x,1/2-y,-z
1/2+x,1/2-y,1/2+z
loop_
_atom_site_type_symbol
_atom_site_label
_atom_site_fract_x
_atom_site_fract_y
_atom_site_fract_z
Si Si1 0.374016 0.021662 0.151009
Si Si2 0.167880 0.386690 0.203183
Si Si3 0.777434 0.747881 0.388200
Si Si4 0.664304 0.469651 0.961329
Si Si5 0.622930 0.758266 0.803627
Si Si6 0.199851 0.545676 0.957330
O O1 0.356572 0.130425 0.183707
O O2 0.348690 0.951110 0.223145
O O3 0.269953 0.999036 0.127381
O O4 0.544299 0.008946 0.053399
O O5 0.219607 0.458794 0.123228
O O6 0.297875 0.308673 0.171346
O O7 0.000000 0.345743 0.250000
O O8 0.709329 0.641716 0.428324
O O9 0.798403 0.758859 0.299892
O O10 0.682432 0.838800 0.453041
O O11 0.943102 0.756686 0.358950
O O12 0.500000 0.500000 0.000000
O O13 0.672264 0.478337 0.038494
#
# Coordination Sequence:
#
# PCOD9303178 Si02
#       6
#     8   8   8   8   8   8
#     4  11  23  43  67  93 133 176 216 270 336 395
#     4  12  23  45  65  95 136 178 222 270 344 403
#     4  11  22  42  69  96 129 167 232 274 323 393
#     4  12  25  41  69 102 133 172 221 282 331 395
#     4  11  23  42  69  96 125 180 222 274 324 404
#     4  11  23  42  66  98 132 170 220 277 329 390
#
# _framework density 20.036059000000002
#
# number of rings (size 3 to 8) (size 9 to 14) (size 15 to 20)
#    0.000    0.667    6.667    1.500    2.333    0.000 
#    3.000    0.833    0.000    0.000    0.000    0.000 
#    0.000    0.000    0.000    0.000    0.000    0.000 
#
# Total GULP energy -134132.614083 kJ/mol
# GULP energy per Si atom -5588.858920 kJ/mol
# Density = 1.999046 g / cm^3
# Si number density = 20.036059 Si / 1000 Ang^3
#
#
#
# Elastic Constant Matrix: (Units=GPa)
#
#
# Indices 1 2 3 4 5 6 
#
# 1 118.8733 26.1453 18.8561 0.0000 22.7491 0.0000
# 2 26.1453 49.0083 -6.1073 0.0000 6.0728 0.0000
# 3 18.8561 -6.1073 43.1956 0.0000 16.8631 0.0000
# 4 0.0000 0.0000 0.0000 29.5155 0.0000 -2.1024
# 5 22.7491 6.0728 16.8631 0.0000 38.9130 0.0000
# 6 0.0000 0.0000 0.0000 -2.1024 0.0000 15.2835
#
#
#
# Elastic Compliance Matrix: (Units=1/GPa)
#
#
# Indices 1 2 3 4 5 6 
#
# 1 0.011118 -0.006000 -0.004248 0.000000 -0.003722 0.000000
# 2 -0.006000 0.025009 0.007594 0.000000 -0.003686 0.000000
# 3 -0.004248 0.007594 0.030779 0.000000 -0.012040 0.000000
# 4 0.000000 0.000000 0.000000 0.034216 0.000000 0.004707
# 5 -0.003722 -0.003686 -0.012040 0.000000 0.033667 0.000000
# 6 0.000000 0.000000 0.000000 0.004707 0.000000 0.066078
#
#
# Mechanical properties :
#
#
# Convention : Reuss Voigt Hill
#
# Bulk Modulus (GPa) = 16.23446 32.09617 24.16531
# Shear Modulus (GPa) = 22.05493 28.22126 25.13809
#
# Velocity S-wave (km/s) = 3.32137 3.75710 3.54594
# Velocity P-wave (km/s) = 4.77796 5.90551 5.37140
#
# Compressibility (1/GPa) = 0.06159738
#
# Stress axis : x y z
#
# Youngs Moduli (GPa) = 89.94286 39.98634 32.48983
#
# Poissons Ratio (x) = 0.23990 0.13803
# Poissons Ratio (y) = 0.53962 -0.24673
# Poissons Ratio (z) = 0.38212 -0.30365
#
# Static dielectric constant tensor:
#      x y z
#    x 1.765730 0.000000 -0.014440 
#    y 0.000000 1.689180 0.000000 
#    z -0.014440 0.000000 1.728550 
# 
# From -- ./inp_files/196098.got.cif
#   From: 2010.05.17/outbox.cif.g08.bks.cpg/sg15_99_cif.got.tgz:196098.got - 2010.06.03 18:47:42.
