data_PCOD9303799
_publ_section_title
;
Structure prediction by ZEFSAII (Michael W. Deem and Ramdas Pophale) SiO2 
 PCOD9303799
Probable space group: C 2/C
;
_chemical_formula_sum "Si O2"
_cell_formula_units_Z 64
_cell_length_a 14.602271
_cell_length_b 17.291490
_cell_length_c 23.455897
_cell_angle_alpha 90.000000
_cell_angle_beta 31.340962
_cell_angle_gamma 90.000000
_cell_volume 3080.467609
_symmetry_space_group_name_H-M "C 2/C"
_symmetry_group_IT_number 15
_symmetry_cell_setting 'monoclinic'
loop_
_space_group_symop_operation_xyz
x,y,z
-x,y,1/2-z
-x,-y,-z
x,-y,1/2+z
1/2+x,1/2+y,z
1/2-x,1/2+y,1/2-z
1/2-x,1/2-y,-z
1/2+x,1/2-y,1/2+z
loop_
_atom_site_type_symbol
_atom_site_label
_atom_site_fract_x
_atom_site_fract_y
_atom_site_fract_z
Si Si1 0.232341 0.333824 0.459305
Si Si2 0.396941 0.235558 0.746221
Si Si3 0.445186 0.114684 0.625053
Si Si4 0.003340 0.714380 0.182281
Si Si5 0.156895 0.990719 0.749948
Si Si6 0.136548 0.154487 0.333323
Si Si7 0.008471 0.249695 0.999108
Si Si8 0.255375 0.492762 0.923295
O O1 0.432429 0.303639 0.354672
O O2 0.203084 0.417217 0.448353
O O3 0.143320 0.330569 0.568504
O O4 0.136200 0.270077 0.471260
O O5 0.500000 0.237260 0.750000
O O6 0.425677 0.157086 0.695805
O O7 0.452522 0.304231 0.673715
O O8 0.194554 0.249111 0.869676
O O9 0.487252 0.182341 0.557106
O O10 0.608831 0.055676 0.534157
O O11 0.267493 0.067685 0.704751
O O12 0.815119 0.700236 0.254204
O O13 0.000000 0.690278 0.250000
O O14 0.183738 0.930404 0.786930
O O15 0.229233 0.962136 0.649782
O O16 0.947261 0.995904 0.850704
O O17 0.020804 0.169948 0.450822
#
# Coordination Sequence:
#
# PCOD9303799 Si02
#       8
#     8   8   8   8   8   8   8   8
#     4  11  23  40  71 104 134 172 235 287 357 412
#     4  11  27  44  70  95 139 182 235 280 343 413
#     4  11  25  45  69 101 139 182 227 289 350 412
#     4  11  23  39  67 102 138 174 221 287 352 410
#     4  11  25  42  70 102 141 176 232 289 349 415
#     4  11  24  41  69 101 138 176 232 285 350 405
#     4  11  23  42  72 100 136 179 233 290 344 411
#     4  11  25  41  72 100 139 179 233 288 351 410
#
# _framework density 20.776067999999999
#
# number of rings (size 3 to 8) (size 9 to 14) (size 15 to 20)
#    0.000    1.000    3.750    1.875   10.500    1.000 
#    0.000    3.125    0.000    0.000    0.000    0.000 
#    0.000    0.000    0.000    0.000    0.000    0.000 
#
# Total GULP energy -178826.515614 kJ/mol
# GULP energy per Si atom -5588.328613 kJ/mol
# Density = 2.072878 g / cm^3
# Si number density = 20.776068 Si / 1000 Ang^3
#
#
#
# Elastic Constant Matrix: (Units=GPa)
#
#
# Indices 1 2 3 4 5 6 
#
# 1 100.6589 11.5503 29.1589 0.0018 14.7226 -0.0001
# 2 11.5503 58.0916 16.6297 0.0044 10.7201 -0.0012
# 3 29.1589 16.6297 62.9252 0.0102 10.8978 -0.0020
# 4 0.0018 0.0044 0.0102 22.8809 -0.0016 -2.2233
# 5 14.7226 10.7201 10.8978 -0.0016 36.2927 0.0000
# 6 -0.0001 -0.0012 -0.0020 -2.2233 0.0000 25.4384
#
#
#
# Elastic Compliance Matrix: (Units=1/GPa)
#
#
# Indices 1 2 3 4 5 6 
#
# 1 0.011852 -0.000374 -0.004831 0.000001 -0.003247 0.000000
# 2 -0.000374 0.019276 -0.004178 -0.000002 -0.004287 0.000000
# 3 -0.004831 -0.004178 0.019706 -0.000008 -0.002724 0.000001
# 4 0.000001 -0.000002 -0.000008 0.044079 0.000004 0.003852
# 5 -0.003247 -0.004287 -0.002724 0.000004 0.030955 0.000000
# 6 0.000000 0.000000 0.000001 0.003852 0.000000 0.039647
#
#
# Mechanical properties :
#
#
# Convention : Reuss Voigt Hill
#
# Bulk Modulus (GPa) = 31.18458 37.37261 34.27859
# Shear Modulus (GPa) = 25.64486 27.87819 26.76152
#
# Velocity S-wave (km/s) = 3.51714 3.66709 3.59290
# Velocity P-wave (km/s) = 5.61570 5.99645 5.80920
#
# Compressibility (1/GPa) = 0.03206713
#
# Stress axis : x y z
#
# Youngs Moduli (GPa) = 84.37581 51.87834 50.74527
#
# Poissons Ratio (x) = 0.01943 0.24514
# Poissons Ratio (y) = 0.03160 0.21202
# Poissons Ratio (z) = 0.40760 0.21676
#
# Static dielectric constant tensor:
#      x y z
#    x 1.768540 0.000000 -0.028980 
#    y 0.000000 1.763870 0.000000 
#    z -0.028980 0.000000 1.766580 
# 
# From -- ./inp_files/274821.got.cif
#   From: 2010.05.17/outbox.cif.g08.bks.cpg/sg15_138_cif.got.tgz:274821.got - 2010.06.03 18:47:42.
