data_PCOD9303770
_publ_section_title
;
Structure prediction by ZEFSAII (Michael W. Deem and Ramdas Pophale) SiO2 
 PCOD9303770
Probable space group: C 2/C
;
_chemical_formula_sum "Si O2"
_cell_formula_units_Z 60
_cell_length_a 13.903392
_cell_length_b 25.686732
_cell_length_c 7.749661
_cell_angle_alpha 90.000000
_cell_angle_beta 77.336786
_cell_angle_gamma 90.000000
_cell_volume 2700.335486
_symmetry_space_group_name_H-M "C 2/C"
_symmetry_group_IT_number 15
_symmetry_cell_setting 'monoclinic'
loop_
_space_group_symop_operation_xyz
x,y,z
-x,y,1/2-z
-x,-y,-z
x,-y,1/2+z
1/2+x,1/2+y,z
1/2-x,1/2+y,1/2-z
1/2-x,1/2-y,-z
1/2+x,1/2-y,1/2+z
loop_
_atom_site_type_symbol
_atom_site_label
_atom_site_fract_x
_atom_site_fract_y
_atom_site_fract_z
Si Si1 0.939819 0.044950 0.617065
Si Si2 0.500000 0.131402 0.750000
Si Si3 0.969185 0.805128 0.456761
Si Si4 0.186079 0.575366 0.655686
Si Si5 0.149687 0.138190 0.020265
Si Si6 0.277517 0.631130 0.128122
Si Si7 0.245810 0.026043 0.566303
Si Si8 0.079329 0.685497 0.062843
O O1 0.154555 0.024200 0.737744
O O2 0.000000 0.069683 0.750000
O O3 0.917334 0.087171 0.480355
O O4 0.000000 0.000000 0.500000
O O5 0.585284 0.097684 0.629019
O O6 0.451135 0.161385 0.609335
O O7 0.881533 0.844466 0.531482
O O8 0.924899 0.747152 0.476600
O O9 0.000000 0.813987 0.250000
O O10 0.070978 0.815474 0.525028
O O11 0.264774 0.622866 0.651514
O O12 0.228596 0.530108 0.516939
O O13 0.168057 0.548471 0.846944
O O14 0.212139 0.137926 0.170016
O O15 0.272556 0.571009 0.068118
O O16 0.183925 0.662554 0.088203
O O17 0.000000 0.676317 0.250000
#
# Coordination Sequence:
#
# PCOD9303770 Si02
#       8
#     8   4   8   8   8   8   8   8
#     4  11  23  39  62 101 146 200 236 286 358 442
#     4  12  26  50  80  98 144 190 258 300 380 422
#     4  11  25  45  72 108 146 184 238 293 369 445
#     4  11  24  44  67 107 134 194 234 303 356 434
#     4  11  24  41  70 105 145 184 238 289 364 437
#     4  12  24  47  70 104 145 191 236 302 361 429
#     4  11  23  41  65  98 146 180 243 290 353 429
#     4  11  27  51  75 107 141 190 251 312 364 431
#
# _framework density 22.219459000000001
#
# number of rings (size 3 to 8) (size 9 to 14) (size 15 to 20)
#    0.000    0.800    1.333    6.800    1.867    5.867 
#    1.200    2.000    0.000    0.000    0.000    0.000 
#    0.000    0.000    0.000    0.000    0.000    0.000 
#
# Total GULP energy -167438.508667 kJ/mol
# GULP energy per Si atom -5581.283622 kJ/mol
# Density = 2.216889 g / cm^3
# Si number density = 22.219459 Si / 1000 Ang^3
#
#
#
# Elastic Constant Matrix: (Units=GPa)
#
#
# Indices 1 2 3 4 5 6 
#
# 1 121.8898 59.2605 28.6138 0.0000 15.3657 0.0000
# 2 59.2605 112.4945 34.4351 0.0000 4.1029 0.0000
# 3 28.6138 34.4351 88.4461 0.0000 26.0457 0.0000
# 4 0.0000 0.0000 0.0000 27.6451 0.0000 -2.7111
# 5 15.3657 4.1029 26.0457 0.0000 46.8560 0.0000
# 6 0.0000 0.0000 0.0000 -2.7111 0.0000 21.3353
#
#
#
# Elastic Compliance Matrix: (Units=1/GPa)
#
#
# Indices 1 2 3 4 5 6 
#
# 1 0.011527 -0.005776 -0.000617 0.000000 -0.002931 0.000000
# 2 -0.005776 0.013082 -0.004119 0.000000 0.003039 0.000000
# 3 -0.000617 -0.004119 0.015478 0.000000 -0.008040 0.000000
# 4 0.000000 0.000000 0.000000 0.036629 0.000000 0.004655
# 5 -0.002931 0.003039 -0.008040 0.000000 0.026507 0.000000
# 6 0.000000 0.000000 0.000000 0.004655 0.000000 0.047462
#
#
# Mechanical properties :
#
#
# Convention : Reuss Voigt Hill
#
# Bulk Modulus (GPa) = 52.46298 63.04994 57.75646
# Shear Modulus (GPa) = 28.07974 32.53534 30.30754
#
# Velocity S-wave (km/s) = 3.55878 3.83073 3.69726
# Velocity P-wave (km/s) = 6.36781 6.92846 6.65405
#
# Compressibility (1/GPa) = 0.01906106
#
# Stress axis : x y z
#
# Youngs Moduli (GPa) = 86.75371 76.43837 64.60987
#
# Poissons Ratio (x) = 0.44154 0.03986
# Poissons Ratio (y) = 0.50113 0.26616
# Poissons Ratio (z) = 0.05352 0.31489
#
# Static dielectric constant tensor:
#      x y z
#    x 1.924200 0.000000 -0.022710 
#    y 0.000000 1.824340 0.000000 
#    z -0.022710 0.000000 1.936730 
# 
# From -- ./inp_files/34300.got.cif
#   From: 2010.05.17/outbox.cif.g08.bks.cpg/sg15_18_cif.got.tgz:34300.got - 2010.06.03 18:47:42.
