data_PCOD9303388
_publ_section_title
;
Structure prediction by ZEFSAII (Michael W. Deem and Ramdas Pophale) SiO2 
 PCOD9303388
Probable space group: C 2/C
;
_chemical_formula_sum "Si O2"
_cell_formula_units_Z 64
_cell_length_a 8.381299
_cell_length_b 28.559199
_cell_length_c 14.757853
_cell_angle_alpha 90.000000
_cell_angle_beta 48.920536
_cell_angle_gamma 90.000000
_cell_volume 2662.784813
_symmetry_space_group_name_H-M "C 2/C"
_symmetry_group_IT_number 15
_symmetry_cell_setting 'monoclinic'
loop_
_space_group_symop_operation_xyz
x,y,z
-x,y,1/2-z
-x,-y,-z
x,-y,1/2+z
1/2+x,1/2+y,z
1/2-x,1/2+y,1/2-z
1/2-x,1/2-y,-z
1/2+x,1/2-y,1/2+z
loop_
_atom_site_type_symbol
_atom_site_label
_atom_site_fract_x
_atom_site_fract_y
_atom_site_fract_z
Si Si1 0.686781 0.850197 0.122116
Si Si2 0.062561 0.612668 0.950825
Si Si3 0.791184 0.021983 0.121253
Si Si4 0.775449 0.705904 0.360798
Si Si5 0.342547 0.618940 0.006193
Si Si6 0.153227 0.249805 0.937561
Si Si7 0.424888 0.986515 0.130732
Si Si8 0.269860 0.652022 0.304024
O O1 0.500000 0.870998 0.250000
O O2 0.575469 0.852081 0.063849
O O3 0.743606 0.797984 0.138837
O O4 0.912131 0.874802 0.055267
O O5 0.288167 0.612502 0.920196
O O6 0.095849 0.568504 0.874419
O O7 0.897669 0.613645 0.098144
O O8 0.615092 0.996539 0.127364
O O9 0.763043 0.011089 0.239487
O O10 0.768775 0.076155 0.097856
O O11 0.000000 0.000000 0.000000
O O12 0.785737 0.668048 0.435628
O O13 0.596643 0.742154 0.455005
O O14 0.711634 0.668626 0.306537
O O15 0.000000 0.727191 0.250000
O O16 0.216102 0.296423 0.864029
O O17 0.250000 0.250000 0.000000
O O18 0.500000 0.000000 0.000000
O O19 0.500000 0.636502 0.250000
#
# Coordination Sequence:
#
# PCOD9303388 Si02
#       8
#     8   8   8   8   8   8   8   8
#     4  11  26  46  73 104 150 191 243 311 379 454
#     4  12  25  46  74 108 149 191 253 306 379 457
#     4  11  26  48  77 105 151 197 248 314 389 464
#     4  11  24  41  70 105 141 187 246 313 368 446
#     4  11  25  48  75 108 142 195 251 316 375 449
#     4  11  22  44  66 103 144 193 248 295 376 448
#     4  11  26  47  72 111 146 194 245 313 383 456
#     4  12  23  41  75 104 142 198 249 304 375 457
#
# _framework density 24.034987000000001
#
# number of rings (size 3 to 8) (size 9 to 14) (size 15 to 20)
#    0.000    0.750    5.000    1.875    7.000    1.500 
#    0.000    0.000    0.000    0.000    0.000    0.000 
#    0.000    0.000    0.000    0.000    0.000    0.000 
#
# Total GULP energy -178173.368359 kJ/mol
# GULP energy per Si atom -5567.917761 kJ/mol
# Density = 2.398028 g / cm^3
# Si number density = 24.034987 Si / 1000 Ang^3
#
#
#
# Elastic Constant Matrix: (Units=GPa)
#
#
# Indices 1 2 3 4 5 6 
#
# 1 76.5473 18.1247 45.6558 0.0000 4.1683 0.0000
# 2 18.1247 89.4623 31.7147 0.0000 10.2239 0.0000
# 3 45.6558 31.7147 128.5232 0.0000 -4.7227 0.0000
# 4 0.0000 0.0000 0.0000 14.7583 0.0000 10.7975
# 5 4.1683 10.2239 -4.7227 0.0000 38.9316 0.0000
# 6 0.0000 0.0000 0.0000 10.7975 0.0000 30.0507
#
#
#
# Elastic Compliance Matrix: (Units=1/GPa)
#
#
# Indices 1 2 3 4 5 6 
#
# 1 0.016918 -0.001111 -0.005817 0.000000 -0.002225 0.000000
# 2 -0.001111 0.012846 -0.002908 0.000000 -0.003607 0.000000
# 3 -0.005817 -0.002908 0.010663 0.000000 0.002680 0.000000
# 4 0.000000 0.000000 0.000000 0.091923 0.000000 -0.033029
# 5 -0.002225 -0.003607 0.002680 0.000000 0.027197 0.000000
# 6 0.000000 0.000000 0.000000 -0.033029 0.000000 0.045145
#
#
# Mechanical properties :
#
#
# Convention : Reuss Voigt Hill
#
# Bulk Modulus (GPa) = 48.18162 53.94702 51.06432
# Shear Modulus (GPa) = 21.61858 30.01728 25.81793
#
# Velocity S-wave (km/s) = 3.00236 3.53781 3.28103
# Velocity P-wave (km/s) = 5.66647 6.25956 5.97038
#
# Compressibility (1/GPa) = 0.02075480
#
# Stress axis : x y z
#
# Youngs Moduli (GPa) = 59.10951 77.84493 93.77987
#
# Poissons Ratio (x) = 0.08647 0.54556
# Poissons Ratio (y) = 0.06566 0.27270
# Poissons Ratio (z) = 0.34386 0.22636
#
# Static dielectric constant tensor:
#      x y z
#    x 2.068080 0.000000 0.064540 
#    y 0.000000 1.981790 0.000000 
#    z 0.064540 0.000000 2.040770 
# 
# From -- ./inp_files/139795.got.cif
#   From: 2010.05.17/outbox.cif.g08.bks.cpg/sg15_70_cif.got.tgz:139795.got - 2010.06.03 18:47:42.
