data_PCOD9303059
_publ_section_title
;
Structure prediction by ZEFSAII (Michael W. Deem and Ramdas Pophale) SiO2 
 PCOD9303059
Probable space group: C 2/C
;
_chemical_formula_sum "Si O2"
_cell_formula_units_Z 56
_cell_length_a 17.806311
_cell_length_b 11.848411
_cell_length_c 11.743786
_cell_angle_alpha 90.000000
_cell_angle_beta 73.426913
_cell_angle_gamma 90.000000
_cell_volume 2374.732382
_symmetry_space_group_name_H-M "C 2/C"
_symmetry_group_IT_number 15
_symmetry_cell_setting 'monoclinic'
loop_
_space_group_symop_operation_xyz
x,y,z
-x,y,1/2-z
-x,-y,-z
x,-y,1/2+z
1/2+x,1/2+y,z
1/2-x,1/2+y,1/2-z
1/2-x,1/2-y,-z
1/2+x,1/2-y,1/2+z
loop_
_atom_site_type_symbol
_atom_site_label
_atom_site_fract_x
_atom_site_fract_y
_atom_site_fract_z
Si Si1 0.722210 0.623441 0.308872
Si Si2 0.101658 0.179919 0.952604
Si Si3 0.044246 0.180645 0.620372
Si Si4 0.340674 0.098150 0.049663
Si Si5 0.229021 0.389099 0.153747
Si Si6 0.408353 0.448013 0.809601
Si Si7 0.652839 0.164048 0.918394
O O1 0.780874 0.617518 0.177852
O O2 0.751732 0.520585 0.370466
O O3 0.640319 0.591099 0.280576
O O4 0.719341 0.736971 0.383449
O O5 0.027074 0.127193 0.922166
O O6 0.088207 0.315536 0.959504
O O7 0.184605 0.157670 0.854883
O O8 0.112491 0.126940 0.072043
O O9 0.088626 0.266615 0.518427
O O10 0.000000 0.232338 0.750000
O O11 0.098575 0.079106 0.646216
O O12 0.351181 0.964119 0.034406
O O13 0.303228 0.148488 0.952145
O O14 0.162954 0.363783 0.277287
O O15 0.500000 0.430452 0.750000
#
# Coordination Sequence:
#
# PCOD9303059 Si02
#       7
#     8   8   8   8   8   8   8
#     4  11  22  42  67 100 140 178 226 294 344 412
#     4  12  22  43  69  93 143 180 229 288 343 407
#     4  11  26  45  66 101 138 180 232 291 350 410
#     4  11  25  42  67 103 137 190 227 285 346 415
#     4  11  22  42  68 100 137 177 236 289 351 404
#     4  11  22  41  70 104 133 177 233 281 355 406
#     4  11  25  44  68 101 139 183 237 277 354 420
#
# _framework density 23.581606000000001
#
# number of rings (size 3 to 8) (size 9 to 14) (size 15 to 20)
#    0.000    0.857    2.857    5.143    0.000    3.429 
#    2.571    0.714    0.000    0.000    0.000    0.000 
#    0.000    0.000    0.000    0.000    0.000    0.000 
#
# Total GULP energy -156013.215535 kJ/mol
# GULP energy per Si atom -5571.900555 kJ/mol
# Density = 2.352793 g / cm^3
# Si number density = 23.581606 Si / 1000 Ang^3
#
#
#
# Elastic Constant Matrix: (Units=GPa)
#
#
# Indices 1 2 3 4 5 6 
#
# 1 42.5488 16.6483 34.1780 0.0000 2.4482 0.0000
# 2 16.6483 151.2698 30.7043 0.0000 -12.6336 0.0000
# 3 34.1780 30.7043 85.7244 0.0000 -16.6084 0.0000
# 4 0.0000 0.0000 0.0000 35.0201 0.0000 -16.9298
# 5 2.4482 -12.6336 -16.6084 0.0000 40.0018 0.0000
# 6 0.0000 0.0000 0.0000 -16.9298 0.0000 6.0734
#
#
#
# Elastic Compliance Matrix: (Units=1/GPa)
#
#
# Indices 1 2 3 4 5 6 
#
# 1 0.037847 -0.001648 -0.016365 0.000000 -0.009631 0.000000
# 2 -0.001648 0.007263 -0.001610 0.000000 0.001726 0.000000
# 3 -0.016365 -0.001610 0.020512 0.000000 0.009010 0.000000
# 4 0.000000 0.000000 0.000000 -0.082152 0.000000 -0.229003
# 5 -0.009631 0.001726 0.009010 0.000000 0.029874 0.000000
# 6 0.000000 0.000000 0.000000 -0.229003 0.000000 -0.473703
#
#
# Mechanical properties :
#
#
# Convention : Reuss Voigt Hill
#
# Bulk Modulus (GPa) = 37.91319 49.17823 43.54571
# Shear Modulus (GPa) = -12.12649 29.41987 8.64669
#
# Velocity S-wave (km/s) = -2.27014 3.53594 1.91694
# Velocity P-wave (km/s) = 3.03990 6.12946 4.83793
#
# Compressibility (1/GPa) = 0.02637604
#
# Stress axis : x y z
#
# Youngs Moduli (GPa) = 26.42215 137.68358 48.75147
#
# Poissons Ratio (x) = 0.22690 0.79783
# Poissons Ratio (y) = 0.04354 0.07849
# Poissons Ratio (z) = 0.43240 0.22166
#
# Static dielectric constant tensor:
#      x y z
#    x 1.875970 0.000000 -0.015910 
#    y 0.000000 2.104990 0.000000 
#    z -0.015910 0.000000 1.899760 
# 
# From -- ./inp_files/111588.got.cif
#   From: 2010.05.17/outbox.cif.g08.bks.cpg/sg15_56_cif.got.tgz:111588.got - 2010.06.03 18:47:42.
