data_PCOD9303182
_publ_section_title
;
Structure prediction by ZEFSAII (Michael W. Deem and Ramdas Pophale) SiO2 
 PCOD9303182
Probable space group: C 2/C
;
_chemical_formula_sum "Si O2"
_cell_formula_units_Z 40
_cell_length_a 12.592471
_cell_length_b 15.373811
_cell_length_c 9.733807
_cell_angle_alpha 90.000000
_cell_angle_beta 88.935141
_cell_angle_gamma 90.000000
_cell_volume 1884.083812
_symmetry_space_group_name_H-M "C 2/C"
_symmetry_group_IT_number 15
_symmetry_cell_setting 'monoclinic'
loop_
_space_group_symop_operation_xyz
x,y,z
-x,y,1/2-z
-x,-y,-z
x,-y,1/2+z
1/2+x,1/2+y,z
1/2-x,1/2+y,1/2-z
1/2-x,1/2-y,-z
1/2+x,1/2-y,1/2+z
loop_
_atom_site_type_symbol
_atom_site_label
_atom_site_fract_x
_atom_site_fract_y
_atom_site_fract_z
Si Si1 0.118023 0.700778 0.270276
Si Si2 0.260141 0.363424 0.199488
Si Si3 0.923110 0.022220 0.127701
Si Si4 0.890156 0.446972 0.504197
Si Si5 0.738315 0.119238 0.013893
O O1 0.188334 0.772397 0.346934
O O2 0.110339 0.615887 0.365719
O O3 0.163254 0.668540 0.122556
O O4 0.000000 0.737432 0.250000
O O5 0.346199 0.441209 0.173373
O O6 0.151318 0.392107 0.126744
O O7 0.245060 0.344242 0.361410
O O8 0.000000 0.044144 0.250000
O O9 0.849944 0.103021 0.085318
O O10 0.000000 0.000000 0.000000
O O11 0.803691 0.522407 0.516748
O O12 0.000000 0.500000 0.500000
#
# Coordination Sequence:
#
# PCOD9303182 Si02
#       5
#     8   8   8   8   8
#     4  12  25  44  68 100 142 182 231 294 359 410
#     4  11  25  43  68 100 140 176 233 293 350 407
#     4  11  22  42  69  97 131 178 230 284 346 423
#     4  11  23  45  70  99 136 188 235 282 343 423
#     4  11  24  42  71  98 135 181 238 287 345 425
#
# _framework density 21.230478000000002
#
# number of rings (size 3 to 8) (size 9 to 14) (size 15 to 20)
#    0.000    0.800    4.000    4.200    2.800    0.000 
#    0.000    0.000    0.000    0.000    0.000    0.000 
#    0.000    0.000    0.000    0.000    0.000    0.000 
#
# Total GULP energy -111693.532528 kJ/mol
# GULP energy per Si atom -5584.676626 kJ/mol
# Density = 2.118216 g / cm^3
# Si number density = 21.230478 Si / 1000 Ang^3
#
#
#
# Elastic Constant Matrix: (Units=GPa)
#
#
# Indices 1 2 3 4 5 6 
#
# 1 122.1622 23.7351 63.3881 0.0000 14.7570 0.0000
# 2 23.7351 83.2469 23.4108 0.0000 7.3520 0.0000
# 3 63.3881 23.4108 140.4328 0.0000 3.9286 0.0000
# 4 0.0000 0.0000 0.0000 11.6107 0.0000 11.4511
# 5 14.7570 7.3520 3.9286 0.0000 33.2154 0.0000
# 6 0.0000 0.0000 0.0000 11.4511 0.0000 29.1635
#
#
#
# Elastic Compliance Matrix: (Units=1/GPa)
#
#
# Indices 1 2 3 4 5 6 
#
# 1 0.011490 -0.001553 -0.004810 0.000000 -0.004192 0.000000
# 2 -0.001553 0.013032 -0.001415 0.000000 -0.002027 0.000000
# 3 -0.004810 -0.001415 0.009491 0.000000 0.001328 0.000000
# 4 0.000000 0.000000 0.000000 0.140559 0.000000 -0.055190
# 5 -0.004192 -0.002027 0.001328 0.000000 0.032261 0.000000
# 6 0.000000 0.000000 0.000000 -0.055190 0.000000 0.055960
#
#
# Mechanical properties :
#
#
# Convention : Reuss Voigt Hill
#
# Bulk Modulus (GPa) = 54.18030 62.99001 58.58515
# Shear Modulus (GPa) = 17.57467 30.48512 24.02989
#
# Velocity S-wave (km/s) = 2.88028 3.79346 3.36796
# Velocity P-wave (km/s) = 6.05283 6.99436 6.54056
#
# Compressibility (1/GPa) = 0.01845689
#
# Stress axis : x y z
#
# Youngs Moduli (GPa) = 87.03334 76.73315 105.36615
#
# Poissons Ratio (x) = 0.11917 0.50682
# Poissons Ratio (y) = 0.13517 0.14907
# Poissons Ratio (z) = 0.41864 0.10856
#
# Static dielectric constant tensor:
#      x y z
#    x 2.148860 0.000000 -0.055620 
#    y 0.000000 1.898400 0.000000 
#    z -0.055620 0.000000 1.764810 
# 
# From -- ./inp_files/29241.got.cif
#   From: 2010.05.17/outbox.cif.g08.bks.cpg/sg15_15_cif.got.tgz:29241.got - 2010.06.03 18:47:42.
