data_PCOD9303622
_publ_section_title
;
Structure prediction by ZEFSAII (Michael W. Deem and Ramdas Pophale) SiO2 
 PCOD9303622
Probable space group: C 2/C
;
_chemical_formula_sum "Si O2"
_cell_formula_units_Z 40
_cell_length_a 15.448938
_cell_length_b 8.867625
_cell_length_c 16.797723
_cell_angle_alpha 90.000000
_cell_angle_beta 49.186280
_cell_angle_gamma 90.000000
_cell_volume 1741.644927
_symmetry_space_group_name_H-M "C 2/C"
_symmetry_group_IT_number 15
_symmetry_cell_setting 'monoclinic'
loop_
_space_group_symop_operation_xyz
x,y,z
-x,y,1/2-z
-x,-y,-z
x,-y,1/2+z
1/2+x,1/2+y,z
1/2-x,1/2+y,1/2-z
1/2-x,1/2-y,-z
1/2+x,1/2-y,1/2+z
loop_
_atom_site_type_symbol
_atom_site_label
_atom_site_fract_x
_atom_site_fract_y
_atom_site_fract_z
Si Si1 0.319482 0.237428 0.618193
Si Si2 0.141947 0.011692 0.270978
Si Si3 0.123367 0.430445 0.710075
Si Si4 0.559230 0.233682 0.402210
Si Si5 0.225606 0.248476 0.108329
O O1 0.352514 0.360915 0.664818
O O2 0.226698 0.323407 0.618815
O O3 0.435497 0.188193 0.507491
O O4 0.249391 0.101705 0.698878
O O5 0.149920 0.106318 0.184388
O O6 0.048627 0.891475 0.358832
O O7 0.106771 0.387876 0.812084
O O8 0.158148 0.600369 0.671912
O O9 0.000000 0.394377 0.750000
O O10 0.653980 0.249434 0.415030
O O11 0.250000 0.250000 0.000000
#
# Coordination Sequence:
#
# PCOD9303622 Si02
#       5
#     8   8   8   8   8
#     4  11  23  45  79 103 145 191 251 289 382 423
#     4  11  22  46  72 109 143 193 237 308 350 446
#     4  11  26  50  72 107 151 189 249 307 358 445
#     4  11  24  49  80 102 147 201 244 301 372 434
#     4  12  26  46  72 111 150 195 248 303 369 432
#
# _framework density 22.966792999999999
#
# number of rings (size 3 to 8) (size 9 to 14) (size 15 to 20)
#    0.000    0.800    6.000    0.600    2.800    4.800 
#    3.600    1.000    0.000    0.000    0.000    0.000 
#    0.000    0.000    0.000    0.000    0.000    0.000 
#
# Total GULP energy -111758.016488 kJ/mol
# GULP energy per Si atom -5587.900824 kJ/mol
# Density = 2.291452 g / cm^3
# Si number density = 22.966793 Si / 1000 Ang^3
#
#
#
# Elastic Constant Matrix: (Units=GPa)
#
#
# Indices 1 2 3 4 5 6 
#
# 1 88.8776 -10.8574 25.1651 0.0000 8.7153 0.0000
# 2 -10.8574 94.7531 15.4030 0.0000 32.0084 0.0000
# 3 25.1651 15.4030 105.3827 0.0000 6.2658 0.0000
# 4 0.0000 0.0000 0.0000 22.3941 0.0000 2.4329
# 5 8.7153 32.0084 6.2658 0.0000 37.7119 0.0000
# 6 0.0000 0.0000 0.0000 2.4329 0.0000 13.6937
#
#
#
# Elastic Compliance Matrix: (Units=1/GPa)
#
#
# Indices 1 2 3 4 5 6 
#
# 1 0.013309 0.004105 -0.003422 0.000000 -0.005992 0.000000
# 2 0.004105 0.016279 -0.002507 0.000000 -0.014349 0.000000
# 3 -0.003422 -0.002507 0.010604 0.000000 0.001156 0.000000
# 4 0.000000 0.000000 0.000000 0.045534 0.000000 -0.008090
# 5 -0.005992 -0.014349 0.001156 0.000000 0.039888 0.000000
# 6 0.000000 0.000000 0.000000 -0.008090 0.000000 0.074464
#
#
# Mechanical properties :
#
#
# Convention : Reuss Voigt Hill
#
# Bulk Modulus (GPa) = 27.36278 38.71497 33.03887
# Shear Modulus (GPa) = 23.15819 32.04679 27.60249
#
# Velocity S-wave (km/s) = 3.17887 3.73950 3.47052
# Velocity P-wave (km/s) = 5.04119 5.96143 5.52052
#
# Compressibility (1/GPa) = 0.03654600
#
# Stress axis : x y z
#
# Youngs Moduli (GPa) = 75.13467 61.42921 94.30402
#
# Poissons Ratio (x) = -0.25219 0.32271
# Poissons Ratio (y) = -0.30846 0.23638
# Poissons Ratio (z) = 0.25711 0.15398
#
# Static dielectric constant tensor:
#      x y z
#    x 1.950390 0.000000 0.003550 
#    y 0.000000 1.871970 0.000000 
#    z 0.003550 0.000000 1.847520 
# 
# From -- ./inp_files/208885.got.cif
#   From: 2010.05.17/outbox.cif.g08.bks.cpg/sg15_105_cif.got.tgz:208885.got - 2010.06.03 18:47:42.
