data_PCOD9303047
_publ_section_title
;
Structure prediction by ZEFSAII (Michael W. Deem and Ramdas Pophale) SiO2 
 PCOD9303047
Probable space group: C 2/C
;
_chemical_formula_sum "Si O2"
_cell_formula_units_Z 40
_cell_length_a 23.677213
_cell_length_b 7.698601
_cell_length_c 8.566230
_cell_angle_alpha 90.000000
_cell_angle_beta 103.304759
_cell_angle_gamma 90.000000
_cell_volume 1519.554451
_symmetry_space_group_name_H-M "C 2/C"
_symmetry_group_IT_number 15
_symmetry_cell_setting 'monoclinic'
loop_
_space_group_symop_operation_xyz
x,y,z
-x,y,1/2-z
-x,-y,-z
x,-y,1/2+z
1/2+x,1/2+y,z
1/2-x,1/2+y,1/2-z
1/2-x,1/2-y,-z
1/2+x,1/2-y,1/2+z
loop_
_atom_site_type_symbol
_atom_site_label
_atom_site_fract_x
_atom_site_fract_y
_atom_site_fract_z
Si Si1 0.965024 0.354415 0.882058
Si Si2 0.211895 0.443292 0.029522
Si Si3 0.099975 0.093493 0.457844
Si Si4 0.830218 0.132897 0.686982
Si Si5 0.634729 0.126364 0.765899
O O1 0.952344 0.186241 0.980923
O O2 0.907128 0.462245 0.794651
O O3 0.000000 0.307739 0.750000
O O4 0.000000 0.500000 0.000000
O O5 0.276956 0.495671 0.111669
O O6 0.179575 0.356881 0.154609
O O7 0.203254 0.310417 0.878544
O O8 0.171577 0.596481 0.945759
O O9 0.148683 0.112313 0.624903
O O10 0.100307 0.203342 0.295179
O O11 0.115715 0.904849 0.395113
#
# Coordination Sequence:
#
# PCOD9303047 Si02
#       5
#     8   8   8   8   8
#     4  12  24  46  76 100 127 184 257 308 358 406
#     4  11  22  41  69 104 147 192 230 268 357 443
#     4  12  25  45  71 103 148 184 237 298 351 432
#     4  11  25  42  65 107 153 188 218 286 363 434
#     4  12  22  42  73 102 136 191 243 291 341 429
#
# _framework density 26.323505000000001
#
# number of rings (size 3 to 8) (size 9 to 14) (size 15 to 20)
#    0.000    0.400    6.000    2.400    0.000    6.400 
#    0.000    1.000    0.000    0.000    0.000    0.000 
#    0.000    0.000    0.000    0.000    0.000    0.000 
#
# Total GULP energy -111711.750609 kJ/mol
# GULP energy per Si atom -5585.587530 kJ/mol
# Density = 2.626359 g / cm^3
# Si number density = 26.323505 Si / 1000 Ang^3
#
#
#
# Elastic Constant Matrix: (Units=GPa)
#
#
# Indices 1 2 3 4 5 6 
#
# 1 116.9800 14.0484 40.2354 0.0000 -19.8940 0.0000
# 2 14.0484 72.9221 10.7369 0.0000 -9.5061 0.0000
# 3 40.2354 10.7369 118.3442 0.0000 -22.2156 0.0000
# 4 0.0000 0.0000 0.0000 43.1528 0.0000 -13.1335
# 5 -19.8940 -9.5061 -22.2156 0.0000 60.0834 0.0000
# 6 0.0000 0.0000 0.0000 -13.1335 0.0000 26.4626
#
#
#
# Elastic Compliance Matrix: (Units=1/GPa)
#
#
# Indices 1 2 3 4 5 6 
#
# 1 0.010050 -0.001239 -0.002919 0.000000 0.002052 0.000000
# 2 -0.001239 0.014248 -0.000565 0.000000 0.001635 0.000000
# 3 -0.002919 -0.000565 0.009989 0.000000 0.002637 0.000000
# 4 0.000000 0.000000 0.000000 0.027297 0.000000 0.013547
# 5 0.002052 0.001635 0.002637 0.000000 0.018557 0.000000
# 6 0.000000 0.000000 0.000000 0.013547 0.000000 0.044513
#
#
# Mechanical properties :
#
#
# Convention : Reuss Voigt Hill
#
# Bulk Modulus (GPa) = 40.25435 48.69864 44.47650
# Shear Modulus (GPa) = 35.11734 42.15481 38.63608
#
# Velocity S-wave (km/s) = 3.65645 4.00611 3.83527
# Velocity P-wave (km/s) = 5.75774 6.31971 6.04526
#
# Compressibility (1/GPa) = 0.02484203
#
# Stress axis : x y z
#
# Youngs Moduli (GPa) = 99.49878 70.18414 100.11250
#
# Poissons Ratio (x) = 0.08695 0.29226
# Poissons Ratio (y) = 0.12326 0.05651
# Poissons Ratio (z) = 0.29047 0.03962
#
# Static dielectric constant tensor:
#      x y z
#    x 2.148540 0.000000 0.038840 
#    y 0.000000 2.428490 0.000000 
#    z 0.038840 0.000000 1.981700 
# 
# From -- ./inp_files/60067.got.cif
#   From: 2010.05.17/outbox.cif.g08.bks.cpg/sg15_31_cif.got.tgz:60067.got - 2010.06.03 18:47:42.
