data_PCOD9303652
_publ_section_title
;
Structure prediction by ZEFSAII (Michael W. Deem and Ramdas Pophale) SiO2 
 PCOD9303652
Probable space group: C 2/C
;
_chemical_formula_sum "Si O2"
_cell_formula_units_Z 44
_cell_length_a 9.282380
_cell_length_b 21.771995
_cell_length_c 11.237543
_cell_angle_alpha 90.000000
_cell_angle_beta 109.213194
_cell_angle_gamma 90.000000
_cell_volume 2144.564972
_symmetry_space_group_name_H-M "C 2/C"
_symmetry_group_IT_number 15
_symmetry_cell_setting 'monoclinic'
loop_
_space_group_symop_operation_xyz
x,y,z
-x,y,1/2-z
-x,-y,-z
x,-y,1/2+z
1/2+x,1/2+y,z
1/2-x,1/2+y,1/2-z
1/2-x,1/2-y,-z
1/2+x,1/2-y,1/2+z
loop_
_atom_site_type_symbol
_atom_site_label
_atom_site_fract_x
_atom_site_fract_y
_atom_site_fract_z
Si Si1 0.637440 0.083193 0.865782
Si Si2 0.512547 0.901447 0.930028
Si Si3 0.260404 0.049367 0.176441
Si Si4 0.152084 0.188952 0.492043
Si Si5 0.000000 0.887370 0.750000
Si Si6 0.927892 0.258699 0.592693
O O1 0.500000 0.106859 0.750000
O O2 0.715052 0.023190 0.830922
O O3 0.551854 0.070212 0.966637
O O4 0.755450 0.136842 0.915715
O O5 0.679657 0.923783 0.933127
O O6 0.385557 0.923472 0.801341
O O7 0.522256 0.827631 0.932885
O O8 0.099564 0.071678 0.185281
O O9 0.250000 0.250000 0.500000
O O10 0.105921 0.157478 0.355734
O O11 0.011705 0.208902 0.534410
O O12 0.750000 0.250000 0.500000
O O13 0.000000 0.253028 0.750000
#
# Coordination Sequence:
#
# PCOD9303652 Si02
#       6
#     8   8   8   8   4   8
#     4  12  26  44  74 111 143 188 251 310 356 448
#     4  11  22  47  71 105 141 196 248 293 378 445
#     4  11  23  45  77  98 141 196 244 294 373 447
#     4  12  28  46  76 107 147 191 247 303 379 444
#     4  12  26  50  72 104 150 198 232 314 382 434
#     4  12  27  47  75 111 152 200 250 310 377 453
#
# _framework density 20.516981000000001
#
# number of rings (size 3 to 8) (size 9 to 14) (size 15 to 20)
#    0.000    0.364    7.273    1.636    6.364    0.727 
#    1.636    0.000    0.000    0.000    0.000    0.000 
#    0.000    0.000    0.000    0.000    0.000    0.000 
#
# Total GULP energy -122721.253489 kJ/mol
# GULP energy per Si atom -5578.238795 kJ/mol
# Density = 2.047028 g / cm^3
# Si number density = 20.516981 Si / 1000 Ang^3
#
#
#
# Elastic Constant Matrix: (Units=GPa)
#
#
# Indices 1 2 3 4 5 6 
#
# 1 155.1204 64.1257 38.0590 0.0000 -5.2948 0.0000
# 2 64.1257 147.0199 47.3258 0.0000 24.6614 0.0000
# 3 38.0590 47.3258 76.2608 0.0000 11.3668 0.0000
# 4 0.0000 0.0000 0.0000 49.3240 0.0000 26.4552
# 5 -5.2948 24.6614 11.3668 0.0000 25.4837 0.0000
# 6 0.0000 0.0000 0.0000 26.4552 0.0000 97.8216
#
#
#
# Elastic Compliance Matrix: (Units=1/GPa)
#
#
# Indices 1 2 3 4 5 6 
#
# 1 0.009219 -0.004285 -0.003048 0.000000 0.007422 0.000000
# 2 -0.004285 0.011550 -0.003461 0.000000 -0.010524 0.000000
# 3 -0.003048 -0.003461 0.017543 0.000000 -0.005109 0.000000
# 4 0.000000 0.000000 0.000000 0.023714 0.000000 -0.006413
# 5 0.007422 -0.010524 -0.005109 0.000000 0.053246 0.000000
# 6 0.000000 0.000000 0.000000 -0.006413 0.000000 0.011957
#
#
# Mechanical properties :
#
#
# Convention : Reuss Voigt Hill
#
# Bulk Modulus (GPa) = 59.78986 75.26910 67.52948
# Shear Modulus (GPa) = 32.38520 49.78524 41.08522
#
# Velocity S-wave (km/s) = 3.97729 4.93133 4.47978
# Velocity P-wave (km/s) = 7.09202 8.31805 7.72938
#
# Compressibility (1/GPa) = 0.01672524
#
# Stress axis : x y z
#
# Youngs Moduli (GPa) = 108.47056 86.57985 57.00210
#
# Poissons Ratio (x) = 0.37098 0.17374
# Poissons Ratio (y) = 0.46478 0.19727
# Poissons Ratio (z) = 0.33062 0.29963
#
# Static dielectric constant tensor:
#      x y z
#    x 1.773250 0.000000 -0.005230 
#    y 0.000000 1.699810 0.000000 
#    z -0.005230 0.000000 1.711070 
# 
# From -- ./inp_files/78359.got.cif
#   From: 2010.05.17/outbox.cif.g08.bks.cpg/sg15_40_cif.got.tgz:78359.got - 2010.06.03 18:47:42.
