data_PCOD9303295
_publ_section_title
;
Structure prediction by ZEFSAII (Michael W. Deem and Ramdas Pophale) SiO2 
 PCOD9303295
Probable space group: C 2/C
;
_chemical_formula_sum "Si O2"
_cell_formula_units_Z 64
_cell_length_a 11.691207
_cell_length_b 25.484012
_cell_length_c 15.347420
_cell_angle_alpha 90.000000
_cell_angle_beta 141.503042
_cell_angle_gamma 90.000000
_cell_volume 2846.315953
_symmetry_space_group_name_H-M "C 2/C"
_symmetry_group_IT_number 15
_symmetry_cell_setting 'monoclinic'
loop_
_space_group_symop_operation_xyz
x,y,z
-x,y,1/2-z
-x,-y,-z
x,-y,1/2+z
1/2+x,1/2+y,z
1/2-x,1/2+y,1/2-z
1/2-x,1/2-y,-z
1/2+x,1/2-y,1/2+z
loop_
_atom_site_type_symbol
_atom_site_label
_atom_site_fract_x
_atom_site_fract_y
_atom_site_fract_z
Si Si1 0.527056 0.938546 0.025258
Si Si2 0.944403 0.829132 0.579475
Si Si3 0.303820 0.271673 0.148737
Si Si4 0.782771 0.657451 0.394274
Si Si5 0.169177 0.110087 0.909088
Si Si6 0.925405 0.243160 0.909774
Si Si7 0.819478 0.474673 0.205852
Si Si8 0.582600 0.573755 0.054755
O O1 0.652879 0.918829 0.021655
O O2 0.627238 0.938093 0.179694
O O3 0.347876 0.901821 0.918088
O O4 0.500000 0.000000 0.000000
O O5 0.110105 0.814848 0.743106
O O6 0.049549 0.876343 0.594800
O O7 0.771767 0.841625 0.537261
O O8 0.879362 0.789197 0.467962
O O9 0.500000 0.244507 0.250000
O O10 0.311179 0.328774 0.107751
O O11 0.305556 0.273574 0.255807
O O12 0.140811 0.234879 0.019394
O O13 0.935163 0.696280 0.447224
O O14 0.000000 0.089659 0.750000
O O15 0.125233 0.094827 0.982390
O O16 0.749393 0.534729 0.181374
O O17 0.000000 0.474713 0.250000
O O18 0.620295 0.452905 0.055868
#
# Coordination Sequence:
#
# PCOD9303295 Si02
#       8
#     8   8   8   8   8   8   8   8
#     4  12  24  43  68  97 136 181 233 288 355 422
#     4  11  24  44  69  99 140 182 237 293 360 425
#     4  11  24  42  70 101 142 185 237 288 357 428
#     4  11  25  45  67 103 138 185 237 297 356 429
#     4  11  22  43  68  97 138 184 228 293 353 418
#     4  12  23  46  69 103 142 187 239 294 359 436
#     4  11  24  44  67 102 136 181 235 291 355 428
#     4  11  24  44  70 100 142 183 237 297 358 428
#
# _framework density 22.485205000000001
#
# number of rings (size 3 to 8) (size 9 to 14) (size 15 to 20)
#    0.000    0.750    3.750    4.500    0.000    1.000 
#    2.250    0.625    0.000    0.000    0.000    0.000 
#    0.000    0.000    0.000    0.000    0.000    0.000 
#
# Total GULP energy -178326.561669 kJ/mol
# GULP energy per Si atom -5572.705052 kJ/mol
# Density = 2.243403 g / cm^3
# Si number density = 22.485205 Si / 1000 Ang^3
#
#
#
# Elastic Constant Matrix: (Units=GPa)
#
#
# Indices 1 2 3 4 5 6 
#
# 1 125.9150 35.9181 9.6157 0.0001 -1.3782 0.0000
# 2 35.9181 89.3306 15.1377 0.0000 -13.1534 0.0000
# 3 9.6157 15.1377 70.7112 0.0001 -5.3839 0.0000
# 4 0.0001 0.0000 0.0001 13.8436 0.0001 -3.6846
# 5 -1.3782 -13.1534 -5.3839 0.0001 33.3575 0.0000
# 6 0.0000 0.0000 0.0000 -3.6846 0.0000 26.9720
#
#
#
# Elastic Compliance Matrix: (Units=1/GPa)
#
#
# Indices 1 2 3 4 5 6 
#
# 1 0.009029 -0.003715 -0.000522 0.000000 -0.001176 0.000000
# 2 -0.003715 0.013766 -0.002066 0.000000 0.004941 0.000000
# 3 -0.000522 -0.002066 0.014773 0.000000 0.001548 0.000000
# 4 0.000000 0.000000 0.000000 0.074961 0.000000 0.010240
# 5 -0.001176 0.004941 0.001548 0.000000 0.032128 0.000000
# 6 0.000000 0.000000 0.000000 0.010240 0.000000 0.038474
#
#
# Mechanical properties :
#
#
# Convention : Reuss Voigt Hill
#
# Bulk Modulus (GPa) = 40.06032 45.25554 42.65793
# Shear Modulus (GPa) = 24.50300 29.85364 27.17832
#
# Velocity S-wave (km/s) = 3.30470 3.64772 3.48044
# Velocity P-wave (km/s) = 5.69354 6.15724 5.92992
#
# Compressibility (1/GPa) = 0.02496236
#
# Stress axis : x y z
#
# Youngs Moduli (GPa) = 110.75960 72.64467 67.69063
#
# Poissons Ratio (x) = 0.26987 0.03534
# Poissons Ratio (y) = 0.41146 0.13982
# Poissons Ratio (z) = 0.05782 0.15005
#
# Static dielectric constant tensor:
#      x y z
#    x 1.974150 0.000000 0.026310 
#    y 0.000000 1.857420 0.000000 
#    z 0.026310 0.000000 2.077250 
# 
# From -- ./inp_files/148801.got.cif
#   From: 2010.05.17/outbox.cif.g08.bks.cpg/sg15_75_cif.got.tgz:148801.got - 2010.06.03 18:47:42.
