data_PCOD9303419
_publ_section_title
;
Structure prediction by ZEFSAII (Michael W. Deem and Ramdas Pophale) SiO2 
 PCOD9303419
Probable space group: C 2/C
;
_chemical_formula_sum "Si O2"
_cell_formula_units_Z 44
_cell_length_a 24.943775
_cell_length_b 8.656118
_cell_length_c 13.438540
_cell_angle_alpha 90.000000
_cell_angle_beta 130.273635
_cell_angle_gamma 90.000000
_cell_volume 2213.821239
_symmetry_space_group_name_H-M "C 2/C"
_symmetry_group_IT_number 15
_symmetry_cell_setting 'monoclinic'
loop_
_space_group_symop_operation_xyz
x,y,z
-x,y,1/2-z
-x,-y,-z
x,-y,1/2+z
1/2+x,1/2+y,z
1/2-x,1/2+y,1/2-z
1/2-x,1/2-y,-z
1/2+x,1/2-y,1/2+z
loop_
_atom_site_type_symbol
_atom_site_label
_atom_site_fract_x
_atom_site_fract_y
_atom_site_fract_z
Si Si1 0.317538 0.261569 0.292274
Si Si2 0.667295 0.390996 0.612550
Si Si3 0.951647 0.883037 0.877969
Si Si4 0.544630 0.091754 0.970856
Si Si5 0.885196 0.854267 0.174491
Si Si6 0.500000 0.876426 0.750000
O O1 0.326861 0.425881 0.358423
O O2 0.241863 0.188947 0.219844
O O3 0.379407 0.146457 0.400839
O O4 0.329643 0.298403 0.190030
O O5 0.608626 0.327106 0.618268
O O6 0.643364 0.364269 0.470901
O O7 0.999548 0.745964 0.896278
O O8 0.915255 0.982103 0.747934
O O9 0.000000 0.000000 0.000000
O O10 0.546433 0.983897 0.876653
O O11 0.500000 0.000000 0.000000
O O12 0.949612 0.733866 0.253044
#
# Coordination Sequence:
#
# PCOD9303419 Si02
#       6
#     8   8   8   8   8   4
#     4  11  26  45  65  98 135 178 218 275 333 400
#     4  11  25  43  70  92 135 180 220 270 337 395
#     4  11  22  44  69  96 133 174 224 275 329 400
#     4  12  24  44  65 103 134 170 228 279 330 392
#     4  11  23  45  67  99 130 180 222 270 341 394
#     4  12  26  36  74  98 134 176 216 292 326 390
#
# _framework density 19.875136000000001
#
# number of rings (size 3 to 8) (size 9 to 14) (size 15 to 20)
#    0.000    0.727    5.455    2.727    7.636    0.000 
#    0.000    3.636    0.000    0.000    0.000    0.000 
#    0.000    0.000    0.000    0.000    0.000    0.000 
#
# Total GULP energy -123100.153093 kJ/mol
# GULP energy per Si atom -5595.461504 kJ/mol
# Density = 1.982990 g / cm^3
# Si number density = 19.875136 Si / 1000 Ang^3
#
#
#
# Elastic Constant Matrix: (Units=GPa)
#
#
# Indices 1 2 3 4 5 6 
#
# 1 104.6633 24.0736 29.0400 0.0000 17.3074 0.0000
# 2 24.0736 56.6290 16.6244 0.0000 -2.4212 0.0000
# 3 29.0400 16.6244 91.4117 0.0000 2.3661 0.0000
# 4 0.0000 0.0000 0.0000 22.0745 0.0000 9.6274
# 5 17.3074 -2.4212 2.3661 0.0000 32.5168 0.0000
# 6 0.0000 0.0000 0.0000 9.6274 0.0000 38.5483
#
#
#
# Elastic Compliance Matrix: (Units=1/GPa)
#
#
# Indices 1 2 3 4 5 6 
#
# 1 0.012609 -0.004785 -0.002958 0.000000 -0.006852 0.000000
# 2 -0.004785 0.020558 -0.002329 0.000000 0.004247 0.000000
# 3 -0.002958 -0.002329 0.012290 0.000000 0.000507 0.000000
# 4 0.000000 0.000000 0.000000 0.050839 0.000000 -0.012697
# 5 -0.006852 0.004247 0.000507 0.000000 0.034680 0.000000
# 6 0.000000 0.000000 0.000000 -0.012697 0.000000 0.029113
#
#
# Mechanical properties :
#
#
# Convention : Reuss Voigt Hill
#
# Bulk Modulus (GPa) = 39.50450 43.57555 41.54003
# Shear Modulus (GPa) = 26.50152 30.82565 28.66359
#
# Velocity S-wave (km/s) = 3.65554 3.94250 3.80173
# Velocity P-wave (km/s) = 6.14303 6.53427 6.34167
#
# Compressibility (1/GPa) = 0.02531357
#
# Stress axis : x y z
#
# Youngs Moduli (GPa) = 79.30938 48.64276 81.36940
#
# Poissons Ratio (x) = 0.23274 0.24070
# Poissons Ratio (y) = 0.37947 0.18948
# Poissons Ratio (z) = 0.23460 0.11327
#
# Static dielectric constant tensor:
#      x y z
#    x 1.685820 0.000000 -0.012680 
#    y 0.000000 1.693280 0.000000 
#    z -0.012680 0.000000 1.683840 
# 
# From -- ./inp_files/109947.got.cif
#   From: 2010.05.17/outbox.cif.g08.bks.cpg/sg15_55_cif.got.tgz:109947.got - 2010.06.03 18:47:42.
