data_PCOD9303958
_publ_section_title
;
Structure prediction by ZEFSAII (Michael W. Deem and Ramdas Pophale) SiO2 
 PCOD9303958
Probable space group: C 2/C
;
_chemical_formula_sum "Si O2"
_cell_formula_units_Z 40
_cell_length_a 8.410527
_cell_length_b 27.977211
_cell_length_c 8.207514
_cell_angle_alpha 90.000000
_cell_angle_beta 92.634485
_cell_angle_gamma 90.000000
_cell_volume 1929.212224
_symmetry_space_group_name_H-M "C 2/C"
_symmetry_group_IT_number 15
_symmetry_cell_setting 'monoclinic'
loop_
_space_group_symop_operation_xyz
x,y,z
-x,y,1/2-z
-x,-y,-z
x,-y,1/2+z
1/2+x,1/2+y,z
1/2-x,1/2+y,1/2-z
1/2-x,1/2-y,-z
1/2+x,1/2-y,1/2+z
loop_
_atom_site_type_symbol
_atom_site_label
_atom_site_fract_x
_atom_site_fract_y
_atom_site_fract_z
Si Si1 0.936512 0.050303 0.562898
Si Si2 0.564857 0.650237 0.435599
Si Si3 0.058586 0.349738 0.566352
Si Si4 0.934687 0.449667 0.559598
Si Si5 0.068200 0.249210 0.064023
O O1 0.752163 0.051184 0.494838
O O2 0.000000 0.048976 0.750000
O O3 0.007715 0.100402 0.505641
O O4 0.000000 0.000000 0.500000
O O5 0.500000 0.649309 0.250000
O O6 0.753246 0.651324 0.436576
O O7 0.502811 0.699653 0.512040
O O8 0.000000 0.349494 0.750000
O O9 0.000522 0.399972 0.488274
O O10 0.995430 0.300712 0.490601
O O11 0.000000 0.448415 0.750000
O O12 0.000000 0.500000 0.500000
O O13 0.000000 0.246519 0.250000
O O14 0.250000 0.250000 0.000000
#
# Coordination Sequence:
#
# PCOD9303958 Si02
#       5
#     8   8   8   8   8
#     4  12  25  42  66  99 134 176 225 281 342 413
#     4  11  23  42  64  94 134 178 223 281 344 408
#     4  11  23  41  66  96 131 177 227 283 343 409
#     4  11  23  42  66  95 133 179 226 282 344 413
#     4  11  24  43  68 100 137 180 229 287 347 413
#
# _framework density 20.733854000000001
#
# number of rings (size 3 to 8) (size 9 to 14) (size 15 to 20)
#    0.000    0.800    0.000    9.600    0.000    4.800 
#    0.000    0.000    0.000    0.000    0.000    0.000 
#    0.000    0.000    0.000    0.000    0.000    0.000 
#
# Total GULP energy -111380.759157 kJ/mol
# GULP energy per Si atom -5569.037958 kJ/mol
# Density = 2.068666 g / cm^3
# Si number density = 20.733854 Si / 1000 Ang^3
#
#
#
# Elastic Constant Matrix: (Units=GPa)
#
#
# Indices 1 2 3 4 5 6 
#
# 1 260.2186 122.5743 51.4879 0.0000 5.5820 0.0000
# 2 122.5743 294.0555 74.3732 0.0000 -4.2889 0.0000
# 3 51.4879 74.3732 92.7925 0.0000 9.1048 0.0000
# 4 0.0000 0.0000 0.0000 22.9134 0.0000 7.2260
# 5 5.5820 -4.2889 9.1048 0.0000 31.8880 0.0000
# 6 0.0000 0.0000 0.0000 7.2260 0.0000 51.6175
#
#
#
# Elastic Compliance Matrix: (Units=1/GPa)
#
#
# Indices 1 2 3 4 5 6 
#
# 1 0.004932 -0.001747 -0.001264 0.000000 -0.000737 0.000000
# 2 -0.001747 0.004964 -0.003195 0.000000 0.001886 0.000000
# 3 -0.001264 -0.003195 0.014464 0.000000 -0.004338 0.000000
# 4 0.000000 0.000000 0.000000 0.045658 0.000000 -0.006392
# 5 -0.000737 0.001886 -0.004338 0.000000 0.032981 0.000000
# 6 0.000000 0.000000 0.000000 -0.006392 0.000000 0.020268
#
#
# Mechanical properties :
#
#
# Convention : Reuss Voigt Hill
#
# Bulk Modulus (GPa) = 83.68692 127.10416 105.39554
# Shear Modulus (GPa) = 35.80070 47.85920 41.82995
#
# Velocity S-wave (km/s) = 4.15984 4.80965 4.49650
# Velocity P-wave (km/s) = 7.97010 9.60622 8.82615
#
# Compressibility (1/GPa) = 0.01194930
#
# Stress axis : x y z
#
# Youngs Moduli (GPa) = 202.77186 201.43588 69.13533
#
# Poissons Ratio (x) = 0.35186 0.08739
# Poissons Ratio (y) = 0.35419 0.22087
# Poissons Ratio (z) = 0.25632 0.64353
#
# Static dielectric constant tensor:
#      x y z
#    x 1.719820 0.000000 -0.078180 
#    y 0.000000 0.399810 0.000000 
#    z -0.078180 0.000000 1.756740 
# 
# From -- ./inp_files/24528.got.cif
#   From: 2010.05.17/outbox.cif.g08.bks.cpg/sg15_13_cif.got.tgz:24528.got - 2010.06.03 18:47:42.
