data_PCOD9303809
_publ_section_title
;
Structure prediction by ZEFSAII (Michael W. Deem and Ramdas Pophale) SiO2 
 PCOD9303809
Probable space group: C 2/C
;
_chemical_formula_sum "Si O2"
_cell_formula_units_Z 52
_cell_length_a 5.282821
_cell_length_b 28.414229
_cell_length_c 19.022514
_cell_angle_alpha 90.000000
_cell_angle_beta 65.655742
_cell_angle_gamma 90.000000
_cell_volume 2601.528832
_symmetry_space_group_name_H-M "C 2/C"
_symmetry_group_IT_number 15
_symmetry_cell_setting 'monoclinic'
loop_
_space_group_symop_operation_xyz
x,y,z
-x,y,1/2-z
-x,-y,-z
x,-y,1/2+z
1/2+x,1/2+y,z
1/2-x,1/2+y,1/2-z
1/2-x,1/2-y,-z
1/2+x,1/2-y,1/2+z
loop_
_atom_site_type_symbol
_atom_site_label
_atom_site_fract_x
_atom_site_fract_y
_atom_site_fract_z
Si Si1 0.534901 0.457892 0.828813
Si Si2 0.500000 0.881245 0.750000
Si Si3 0.252206 0.314484 0.833300
Si Si4 0.989469 0.124061 0.951230
Si Si5 0.932887 0.764984 0.047040
Si Si6 0.332484 0.892641 0.548232
Si Si7 0.673704 0.438880 0.302687
O O1 0.500000 0.463615 0.750000
O O2 0.257194 0.437994 0.896122
O O3 0.628050 0.509264 0.842568
O O4 0.762110 0.416501 0.804779
O O5 0.548183 0.846528 0.809983
O O6 0.500000 0.308984 0.750000
O O7 0.165649 0.264555 0.873947
O O8 0.297433 0.347472 0.896176
O O9 0.064107 0.179283 0.942104
O O10 0.066622 0.099698 0.869384
O O11 0.661411 0.115921 0.003615
O O12 0.179241 0.102745 0.991429
O O13 0.750000 0.750000 0.000000
O O14 0.250000 0.750000 0.000000
O O15 0.500000 0.435595 0.250000
O O16 0.000000 0.433618 0.250000
#
# Coordination Sequence:
#
# PCOD9303809 Si02
#       7
#     8   4   8   8   8   8   8
#     4  11  23  39  69 101 139 185 229 284 355 406
#     4  12  20  40  66 102 136 170 230 292 344 394
#     4  12  25  39  69 105 131 178 233 288 341 412
#     4  12  26  46  70  99 140 187 227 285 355 418
#     4  12  26  46  69  97 138 185 224 282 354 409
#     4  12  23  42  71 101 142 177 224 289 351 416
#     4  11  26  47  72  99 138 188 239 287 341 423
#
# _framework density 19.988247999999999
#
# number of rings (size 3 to 8) (size 9 to 14) (size 15 to 20)
#    0.000    0.308    6.923    1.846    2.154    1.846 
#    1.385    0.000    0.000    0.000    0.000    0.000 
#    0.000    0.000    0.000    0.000    0.000    0.000 
#
# Total GULP energy -145232.593711 kJ/mol
# GULP energy per Si atom -5585.868989 kJ/mol
# Density = 1.994275 g / cm^3
# Si number density = 19.988248 Si / 1000 Ang^3
#
#
#
# Elastic Constant Matrix: (Units=GPa)
#
#
# Indices 1 2 3 4 5 6 
#
# 1 127.8455 51.6724 56.8752 0.0000 -6.5859 0.0000
# 2 51.6724 141.6690 75.4629 0.0000 -6.3434 0.0000
# 3 56.8752 75.4629 116.9995 0.0000 -8.1667 0.0000
# 4 0.0000 0.0000 0.0000 33.8457 0.0000 -7.8099
# 5 -6.5859 -6.3434 -8.1667 0.0000 42.4732 0.0000
# 6 0.0000 0.0000 0.0000 -7.8099 0.0000 18.2582
#
#
#
# Elastic Compliance Matrix: (Units=1/GPa)
#
#
# Indices 1 2 3 4 5 6 
#
# 1 0.010242 -0.001644 -0.003877 0.000000 0.000597 0.000000
# 2 -0.001644 0.011020 -0.006296 0.000000 0.000180 0.000000
# 3 -0.003877 -0.006296 0.014581 0.000000 0.001262 0.000000
# 4 0.000000 0.000000 0.000000 0.032781 0.000000 0.014022
# 5 0.000597 0.000180 0.001262 0.000000 0.023906 0.000000
# 6 0.000000 0.000000 0.000000 0.014022 0.000000 0.060768
#
#
# Mechanical properties :
#
#
# Convention : Reuss Voigt Hill
#
# Bulk Modulus (GPa) = 81.90634 83.83724 82.87179
# Shear Modulus (GPa) = 27.62411 32.41565 30.01988
#
# Velocity S-wave (km/s) = 3.72158 4.03145 3.87961
# Velocity P-wave (km/s) = 7.71577 7.98150 7.84976
#
# Compressibility (1/GPa) = 0.01220907
#
# Stress axis : x y z
#
# Youngs Moduli (GPa) = 97.63942 90.74314 68.58427
#
# Poissons Ratio (x) = 0.14916 0.26588
# Poissons Ratio (y) = 0.16050 0.43182
# Poissons Ratio (z) = 0.37852 0.57133
#
# Static dielectric constant tensor:
#      x y z
#    x 1.781950 0.000000 0.004580 
#    y 0.000000 1.792230 0.000000 
#    z 0.004580 0.000000 1.705910 
# 
# From -- ./inp_files/186037.got.cif
#   From: 2010.05.17/outbox.cif.g08.bks.cpg/sg15_94_cif.got.tgz:186037.got - 2010.06.03 18:47:42.
