data_PCOD9303898
_publ_section_title
;
Structure prediction by ZEFSAII (Michael W. Deem and Ramdas Pophale) SiO2 
 PCOD9303898
Probable space group: C 2/C
;
_chemical_formula_sum "Si O2"
_cell_formula_units_Z 40
_cell_length_a 11.200129
_cell_length_b 19.213687
_cell_length_c 7.670776
_cell_angle_alpha 90.000000
_cell_angle_beta 95.903537
_cell_angle_gamma 90.000000
_cell_volume 1641.963934
_symmetry_space_group_name_H-M "C 2/C"
_symmetry_group_IT_number 15
_symmetry_cell_setting 'monoclinic'
loop_
_space_group_symop_operation_xyz
x,y,z
-x,y,1/2-z
-x,-y,-z
x,-y,1/2+z
1/2+x,1/2+y,z
1/2-x,1/2+y,1/2-z
1/2-x,1/2-y,-z
1/2+x,1/2-y,1/2+z
loop_
_atom_site_type_symbol
_atom_site_label
_atom_site_fract_x
_atom_site_fract_y
_atom_site_fract_z
Si Si1 0.500000 0.751434 0.750000
Si Si2 0.000000 0.033024 0.250000
Si Si3 0.234156 0.691510 0.145639
Si Si4 0.228777 0.060517 0.893737
Si Si5 0.584846 0.343362 0.535316
Si Si6 0.638007 0.943929 0.722508
O O1 0.376807 0.793272 0.740231
O O2 0.503320 0.708466 0.571828
O O3 0.977152 0.085534 0.408227
O O4 0.883261 0.987106 0.186861
O O5 0.350434 0.687841 0.286685
O O6 0.195067 0.611201 0.090416
O O7 0.250000 0.750000 0.000000
O O8 0.343467 0.024541 0.825690
O O9 0.174610 0.137783 0.885805
O O10 0.273723 0.062317 0.099961
O O11 0.500000 0.931442 0.750000
#
# Coordination Sequence:
#
# PCOD9303898 Si02
#       6
#     4   4   8   8   8   8
#     4  12  25  42  74  94 144 183 236 292 344 412
#     4  12  21  42  64 106 144 173 226 288 360 416
#     4  11  24  46  69  96 140 187 239 285 344 418
#     4  11  23  40  70  98 140 175 228 289 354 408
#     4  11  25  41  69 104 136 178 236 290 351 411
#     4  11  24  45  69 100 139 185 230 288 347 425
#
# _framework density 24.361072
#
# number of rings (size 3 to 8) (size 9 to 14) (size 15 to 20)
#    0.000    0.800    5.000    3.600    2.800    0.000 
#    0.000    0.000    4.400    0.000    0.000    0.000 
#    0.000    0.000    0.000    0.000    0.000    0.000 
#
# Total GULP energy -111432.383117 kJ/mol
# GULP energy per Si atom -5571.619156 kJ/mol
# Density = 2.430563 g / cm^3
# Si number density = 24.361072 Si / 1000 Ang^3
#
#
#
# Elastic Constant Matrix: (Units=GPa)
#
#
# Indices 1 2 3 4 5 6 
#
# 1 119.1903 31.1976 30.9913 0.0000 10.0129 0.0000
# 2 31.1976 55.1331 32.6184 0.0000 6.3075 0.0000
# 3 30.9913 32.6184 58.8946 0.0000 15.4912 0.0000
# 4 0.0000 0.0000 0.0000 55.3832 0.0000 -13.1603
# 5 10.0129 6.3075 15.4912 0.0000 24.9256 0.0000
# 6 0.0000 0.0000 0.0000 -13.1603 0.0000 35.8983
#
#
#
# Elastic Compliance Matrix: (Units=1/GPa)
#
#
# Indices 1 2 3 4 5 6 
#
# 1 0.010287 -0.003977 -0.002855 0.000000 -0.001352 0.000000
# 2 -0.003977 0.028697 -0.014717 0.000000 0.003482 0.000000
# 3 -0.002855 -0.014717 0.030305 0.000000 -0.013964 0.000000
# 4 0.000000 0.000000 0.000000 0.019779 0.000000 0.007251
# 5 -0.001352 0.003482 -0.013964 0.000000 0.048460 0.000000
# 6 0.000000 0.000000 0.000000 0.007251 0.000000 0.030515
#
#
# Mechanical properties :
#
#
# Convention : Reuss Voigt Hill
#
# Bulk Modulus (GPa) = 38.18003 46.98140 42.58072
# Shear Modulus (GPa) = 22.74065 32.46880 27.60472
#
# Velocity S-wave (km/s) = 3.05861 3.65473 3.36988
# Velocity P-wave (km/s) = 5.30849 6.09399 5.71475
#
# Compressibility (1/GPa) = 0.02619170
#
# Stress axis : x y z
#
# Youngs Moduli (GPa) = 97.21184 34.84684 32.99743
#
# Poissons Ratio (x) = 0.13860 0.09420
# Poissons Ratio (y) = 0.38664 0.48561
# Poissons Ratio (z) = 0.27752 0.51283
#
# Static dielectric constant tensor:
#      x y z
#    x 2.017190 0.000000 -0.093030 
#    y 0.000000 2.090270 0.000000 
#    z -0.093030 0.000000 1.935850 
# 
# From -- ./inp_files/29396.got.cif
#   From: 2010.05.17/outbox.cif.g08.bks.cpg/sg15_15_cif.got.tgz:29396.got - 2010.06.03 18:47:42.
