data_PCOD9303311
_publ_section_title
;
Structure prediction by ZEFSAII (Michael W. Deem and Ramdas Pophale) SiO2 
 PCOD9303311
Probable space group: C 2/C
;
_chemical_formula_sum "Si O2"
_cell_formula_units_Z 32
_cell_length_a 15.486834
_cell_length_b 6.664664
_cell_length_c 26.126605
_cell_angle_alpha 90.000000
_cell_angle_beta 147.277625
_cell_angle_gamma 90.000000
_cell_volume 1457.722782
_symmetry_space_group_name_H-M "C 2/C"
_symmetry_group_IT_number 15
_symmetry_cell_setting 'monoclinic'
loop_
_space_group_symop_operation_xyz
x,y,z
-x,y,1/2-z
-x,-y,-z
x,-y,1/2+z
1/2+x,1/2+y,z
1/2-x,1/2+y,1/2-z
1/2-x,1/2-y,-z
1/2+x,1/2-y,1/2+z
loop_
_atom_site_type_symbol
_atom_site_label
_atom_site_fract_x
_atom_site_fract_y
_atom_site_fract_z
Si Si1 0.655092 0.136047 0.169586
Si Si2 0.189632 0.121353 0.844668
Si Si3 0.869337 0.914972 0.875630
Si Si4 0.360093 0.872714 0.016495
O O1 0.773459 0.154558 0.276520
O O2 0.610933 0.350338 0.123666
O O3 0.742823 0.012000 0.168678
O O4 0.495454 0.019452 0.107451
O O5 0.263294 0.340834 0.870389
O O6 0.000000 0.127408 0.750000
O O7 0.255838 0.012974 0.927843
O O8 0.034127 0.793069 0.960588
O O9 0.250000 0.750000 0.000000
#
# Coordination Sequence:
#
# PCOD9303311 Si02
#       4
#     8   8   8   8
#     4  11  22  43  72  95 138 180 225 287 345 406
#     4  11  25  43  66 101 140 178 232 281 340 411
#     4  11  22  43  69  98 135 181 225 282 348 403
#     4  11  25  43  68 102 139 178 230 283 341 414
#
# _framework density 21.952048000000001
#
# number of rings (size 3 to 8) (size 9 to 14) (size 15 to 20)
#    0.000    1.000    5.000    4.500    0.000    6.000 
#    0.000    0.000    0.000    0.000    0.000    0.000 
#    0.000    0.000    0.000    0.000    0.000    0.000 
#
# Total GULP energy -89495.250069 kJ/mol
# GULP energy per Si atom -5593.453129 kJ/mol
# Density = 2.190208 g / cm^3
# Si number density = 21.952048 Si / 1000 Ang^3
#
#
#
# Elastic Constant Matrix: (Units=GPa)
#
#
# Indices 1 2 3 4 5 6 
#
# 1 95.0642 34.2168 52.5612 0.0001 21.2721 0.0002
# 2 34.2168 144.2920 27.3994 0.0001 19.2357 0.0005
# 3 52.5612 27.3994 113.6372 0.0000 18.2828 0.0000
# 4 0.0001 0.0001 0.0000 4.8948 0.0000 -5.4630
# 5 21.2721 19.2357 18.2828 0.0000 47.4093 0.0000
# 6 0.0002 0.0005 0.0000 -5.4630 0.0000 37.0272
#
#
#
# Elastic Compliance Matrix: (Units=1/GPa)
#
#
# Indices 1 2 3 4 5 6 
#
# 1 0.015429 -0.002007 -0.006045 0.000000 -0.003777 0.000000
# 2 -0.002007 0.007795 -0.000626 0.000000 -0.002021 0.000000
# 3 -0.006045 -0.000626 0.012015 0.000000 -0.001667 0.000000
# 4 0.000000 0.000000 0.000000 0.244570 0.000000 0.036084
# 5 -0.003777 -0.002021 -0.001667 0.000000 0.024251 0.000000
# 6 0.000000 0.000000 0.000000 0.036084 0.000000 0.032331
#
#
# Mechanical properties :
#
#
# Convention : Reuss Voigt Hill
#
# Bulk Modulus (GPa) = 55.91978 64.59424 60.25701
# Shear Modulus (GPa) = 13.90019 33.78734 23.84376
#
# Velocity S-wave (km/s) = 2.51909 3.92745 3.29929
# Velocity P-wave (km/s) = 5.83009 7.07499 6.48250
#
# Compressibility (1/GPa) = 0.01788276
#
# Stress axis : x y z
#
# Youngs Moduli (GPa) = 64.81239 128.29381 83.22929
#
# Poissons Ratio (x) = 0.25754 0.50310
# Poissons Ratio (y) = 0.13010 0.05209
# Poissons Ratio (z) = 0.39178 0.08029
#
# Static dielectric constant tensor:
#      x y z
#    x 1.779920 0.000000 -0.020420 
#    y 0.000000 1.848790 0.000000 
#    z -0.020420 0.000000 1.796720 
# 
# From -- ./inp_files/315167.got.cif
#   From: 2010.05.17/outbox.cif.g08.bks.cpg/sg15_158_cif.got.tgz:315167.got - 2010.06.03 18:47:42.
