data_PCOD9303401
_publ_section_title
;
Structure prediction by ZEFSAII (Michael W. Deem and Ramdas Pophale) SiO2 
 PCOD9303401
Probable space group: C 2/C
;
_chemical_formula_sum "Si O2"
_cell_formula_units_Z 40
_cell_length_a 15.699757
_cell_length_b 12.580109
_cell_length_c 18.102269
_cell_angle_alpha 90.000000
_cell_angle_beta 30.541676
_cell_angle_gamma 90.000000
_cell_volume 1816.833241
_symmetry_space_group_name_H-M "C 2/C"
_symmetry_group_IT_number 15
_symmetry_cell_setting 'monoclinic'
loop_
_space_group_symop_operation_xyz
x,y,z
-x,y,1/2-z
-x,-y,-z
x,-y,1/2+z
1/2+x,1/2+y,z
1/2-x,1/2+y,1/2-z
1/2-x,1/2-y,-z
1/2+x,1/2-y,1/2+z
loop_
_atom_site_type_symbol
_atom_site_label
_atom_site_fract_x
_atom_site_fract_y
_atom_site_fract_z
Si Si1 0.822896 0.640406 0.920373
Si Si2 0.306291 0.944841 0.866471
Si Si3 0.498300 0.660749 0.834643
Si Si4 0.219734 0.511825 0.396628
Si Si5 0.403074 0.857852 0.641607
O O1 0.734991 0.564550 0.926359
O O2 0.000000 0.663690 0.750000
O O3 0.750000 0.750000 0.000000
O O4 0.814133 0.564450 0.998720
O O5 0.500000 0.945184 0.750000
O O6 0.309759 0.912468 0.779623
O O7 0.189477 0.869849 0.002363
O O8 0.500000 0.708319 0.750000
O O9 0.609743 0.553769 0.743317
O O10 0.564509 0.740305 0.849263
O O11 0.199572 0.609736 0.354518
O O12 0.078487 0.419322 0.495825
#
# Coordination Sequence:
#
# PCOD9303401 Si02
#       5
#     8   8   8   8   8
#     4  11  24  44  68  95 134 185 233 285 347 416
#     4  11  22  44  68 104 136 181 237 302 339 421
#     4  12  24  41  78 108 134 185 246 285 355 437
#     4  11  25  46  67 102 145 182 231 301 352 423
#     4  11  24  44  67  99 148 182 226 294 368 407
#
# _framework density 22.01633
#
# number of rings (size 3 to 8) (size 9 to 14) (size 15 to 20)
#    0.000    0.800    6.000    1.800    2.800    4.800 
#    3.600    0.000    0.000    0.000    0.000    0.000 
#    0.000    0.000    0.000    0.000    0.000    0.000 
#
# Total GULP energy -111568.407956 kJ/mol
# GULP energy per Si atom -5578.420398 kJ/mol
# Density = 2.196622 g / cm^3
# Si number density = 22.016330 Si / 1000 Ang^3
#
#
#
# Elastic Constant Matrix: (Units=GPa)
#
#
# Indices 1 2 3 4 5 6 
#
# 1 53.7103 31.5470 43.7597 0.0001 10.8543 -0.0001
# 2 31.5470 135.6099 59.6543 -0.0001 -3.7420 0.0000
# 3 43.7597 59.6543 165.1822 0.0001 12.8946 -0.0002
# 4 0.0001 -0.0001 0.0001 50.7657 -0.0006 6.8000
# 5 10.8543 -3.7420 12.8946 -0.0006 25.7937 0.0005
# 6 -0.0001 0.0000 -0.0002 6.8000 0.0005 25.1861
#
#
#
# Elastic Compliance Matrix: (Units=1/GPa)
#
#
# Indices 1 2 3 4 5 6 
#
# 1 0.027110 -0.004452 -0.004821 0.000000 -0.009644 0.000000
# 2 -0.004452 0.009722 -0.002693 0.000000 0.004630 0.000000
# 3 -0.004821 -0.002693 0.008508 0.000000 -0.002615 0.000000
# 4 0.000000 0.000000 0.000000 0.020437 0.000001 -0.005518
# 5 -0.009644 0.004630 -0.002615 0.000001 0.044807 -0.000001
# 6 0.000000 0.000000 0.000000 -0.005518 -0.000001 0.041194
#
#
# Mechanical properties :
#
#
# Convention : Reuss Voigt Hill
#
# Bulk Modulus (GPa) = 46.71237 69.38047 58.04642
# Shear Modulus (GPa) = 27.34518 34.98520 31.16519
#
# Velocity S-wave (km/s) = 3.52808 3.99062 3.76646
# Velocity P-wave (km/s) = 6.15302 7.26739 6.73330
#
# Compressibility (1/GPa) = 0.02140761
#
# Stress axis : x y z
#
# Youngs Moduli (GPa) = 36.88621 102.85714 117.53714
#
# Poissons Ratio (x) = 0.45791 0.56669
# Poissons Ratio (y) = 0.16421 0.31655
# Poissons Ratio (z) = 0.17784 0.27701
#
# Static dielectric constant tensor:
#      x y z
#    x 1.278410 0.000000 -0.013930 
#    y 0.000000 1.880380 0.000000 
#    z -0.013930 0.000000 1.814140 
# 
# From -- ./inp_files/210770.got.cif
#   From: 2010.05.17/outbox.cif.g08.bks.cpg/sg15_106_cif.got.tgz:210770.got - 2010.06.03 18:47:42.
