data_PCOD9303190
_publ_section_title
;
Structure prediction by ZEFSAII (Michael W. Deem and Ramdas Pophale) SiO2 
 PCOD9303190
Probable space group: C 2/C
;
_chemical_formula_sum "Si O2"
_cell_formula_units_Z 60
_cell_length_a 8.770236
_cell_length_b 12.774680
_cell_length_c 21.136711
_cell_angle_alpha 90.000000
_cell_angle_beta 105.403734
_cell_angle_gamma 90.000000
_cell_volume 2283.026408
_symmetry_space_group_name_H-M "C 2/C"
_symmetry_group_IT_number 15
_symmetry_cell_setting 'monoclinic'
loop_
_space_group_symop_operation_xyz
x,y,z
-x,y,1/2-z
-x,-y,-z
x,-y,1/2+z
1/2+x,1/2+y,z
1/2-x,1/2+y,1/2-z
1/2-x,1/2-y,-z
1/2+x,1/2-y,1/2+z
loop_
_atom_site_type_symbol
_atom_site_label
_atom_site_fract_x
_atom_site_fract_y
_atom_site_fract_z
Si Si1 0.599862 0.394854 0.116322
Si Si2 0.072880 0.684511 0.409325
Si Si3 0.698669 0.865795 0.702610
Si Si4 0.708795 0.737817 0.158788
Si Si5 0.168222 0.927971 0.264488
Si Si6 0.000000 0.500000 0.000000
Si Si7 0.142310 0.740020 0.895713
Si Si8 0.881444 0.951420 0.541360
O O1 0.482747 0.301666 0.081439
O O2 0.678958 0.385851 0.194546
O O3 0.752248 0.365977 0.088693
O O4 0.493364 0.498796 0.108730
O O5 0.251595 0.685471 0.404167
O O6 0.981227 0.661218 0.333151
O O7 0.018600 0.602655 0.455305
O O8 0.771245 0.834299 0.777749
O O9 0.790501 0.808744 0.655501
O O10 0.703313 0.989962 0.701516
O O11 0.827625 0.832590 0.186936
O O12 0.537198 0.789022 0.137399
O O13 0.000000 0.983433 0.250000
O O14 0.200865 0.507797 0.025218
O O15 0.131660 0.826078 0.950195
O O16 0.000000 0.000000 0.500000
#
# Coordination Sequence:
#
# PCOD9303190 Si02
#       8
#     8   8   8   8   8   4   8   8
#     4  11  24  47  72 104 146 189 247 309 384 469
#     4  11  24  46  68 104 145 188 257 311 369 459
#     4  11  22  42  70 101 152 188 236 308 379 462
#     4  12  22  42  70 108 147 191 235 306 386 466
#     4  12  22  38  71 108 142 194 234 296 391 470
#     4  12  26  50  76 100 142 204 254 316 376 436
#     4  11  24  47  69 107 153 187 241 315 384 458
#     4  12  27  51  75 105 144 198 262 315 377 442
#
# _framework density 26.280902999999999
#
# number of rings (size 3 to 8) (size 9 to 14) (size 15 to 20)
#    0.000    0.533    6.667    4.000    0.000    1.067 
#   12.000    0.000    0.000    0.000    0.000    0.000 
#    0.000    0.000    0.000    0.000    0.000    0.000 
#
# Total GULP energy -167068.568216 kJ/mol
# GULP energy per Si atom -5568.952274 kJ/mol
# Density = 2.622109 g / cm^3
# Si number density = 26.280903 Si / 1000 Ang^3
#
#
#
# Elastic Constant Matrix: (Units=GPa)
#
#
# Indices 1 2 3 4 5 6 
#
# 1 137.0520 26.7363 16.7209 0.0000 -0.7436 0.0000
# 2 26.7363 93.6413 0.0637 0.0000 5.2135 0.0000
# 3 16.7209 0.0637 41.1471 0.0000 -17.9005 0.0000
# 4 0.0000 0.0000 0.0000 28.3716 0.0000 0.6625
# 5 -0.7436 5.2135 -17.9005 0.0000 36.4851 0.0000
# 6 0.0000 0.0000 0.0000 0.6625 0.0000 35.9369
#
#
#
# Elastic Compliance Matrix: (Units=1/GPa)
#
#
# Indices 1 2 3 4 5 6 
#
# 1 0.008214 -0.002261 -0.003968 0.000000 -0.001456 0.000000
# 2 -0.002261 0.011412 0.000218 0.000000 -0.001570 0.000000
# 3 -0.003968 0.000218 0.032885 0.000000 0.016022 0.000000
# 4 0.000000 0.000000 0.000000 0.035262 0.000000 -0.000650
# 5 -0.001456 -0.001570 0.016022 0.000000 0.035464 0.000000
# 6 0.000000 0.000000 0.000000 -0.000650 0.000000 0.027839
#
#
# Mechanical properties :
#
#
# Convention : Reuss Voigt Hill
#
# Bulk Modulus (GPa) = 24.69768 39.87579 32.28674
# Shear Modulus (GPa) = 28.31360 35.38001 31.84681
#
# Velocity S-wave (km/s) = 3.28585 3.67307 3.48485
# Velocity P-wave (km/s) = 4.87993 5.76147 5.33893
#
# Compressibility (1/GPa) = 0.04048963
#
# Stress axis : x y z
#
# Youngs Moduli (GPa) = 121.74552 87.62736 30.40862
#
# Poissons Ratio (x) = 0.19816 0.12066
# Poissons Ratio (y) = 0.27532 -0.00664
# Poissons Ratio (z) = 0.48307 -0.01914
#
# Static dielectric constant tensor:
#      x y z
#    x 2.086020 0.000000 -0.076510 
#    y 0.000000 2.152950 0.000000 
#    z -0.076510 0.000000 2.303420 
# 
# From -- ./inp_files/264361.got.cif
#   From: 2010.05.17/outbox.cif.g08.bks.cpg/sg15_133_cif.got.tgz:264361.got - 2010.06.03 18:47:42.
