data_PCOD9303403
_publ_section_title
;
Structure prediction by ZEFSAII (Michael W. Deem and Ramdas Pophale) SiO2 
 PCOD9303403
Probable space group: C 2/C
;
_chemical_formula_sum "Si O2"
_cell_formula_units_Z 52
_cell_length_a 24.079252
_cell_length_b 6.785559
_cell_length_c 16.457710
_cell_angle_alpha 90.000000
_cell_angle_beta 59.932636
_cell_angle_gamma 90.000000
_cell_volume 2327.198662
_symmetry_space_group_name_H-M "C 2/C"
_symmetry_group_IT_number 15
_symmetry_cell_setting 'monoclinic'
loop_
_space_group_symop_operation_xyz
x,y,z
-x,y,1/2-z
-x,-y,-z
x,-y,1/2+z
1/2+x,1/2+y,z
1/2-x,1/2+y,1/2-z
1/2-x,1/2-y,-z
1/2+x,1/2-y,1/2+z
loop_
_atom_site_type_symbol
_atom_site_label
_atom_site_fract_x
_atom_site_fract_y
_atom_site_fract_z
Si Si1 0.067012 0.652887 0.594983
Si Si2 0.963681 0.186198 0.066749
Si Si3 0.500000 0.825848 0.750000
Si Si4 0.703380 0.711143 0.959423
Si Si5 0.584871 0.468954 0.725685
Si Si6 0.673420 0.667557 0.394929
Si Si7 0.779862 0.007148 0.307032
O O1 0.041276 0.465566 0.661968
O O2 0.140637 0.654875 0.515503
O O3 0.022463 0.673701 0.548328
O O4 0.065710 0.839394 0.660438
O O5 0.900726 0.237060 0.059715
O O6 0.934885 0.146638 0.178235
O O7 0.000000 0.000000 0.000000
O O8 0.548635 0.676237 0.757170
O O9 0.682251 0.486161 0.961746
O O10 0.743643 0.790587 0.853963
O O11 0.750000 0.750000 0.000000
O O12 0.660515 0.509667 0.675014
O O13 0.727399 0.836013 0.355697
O O14 0.688530 0.535357 0.304004
#
# Coordination Sequence:
#
# PCOD9303403 Si02
#       7
#     8   8   4   8   8   8   8
#     4  12  24  45  68 102 139 174 225 285 343 395
#     4  11  22  44  68  93 140 177 215 287 340 397
#     4  12  24  42  72 100 128 180 234 264 346 412
#     4  12  26  44  70 105 140 177 232 292 336 405
#     4  11  24  44  69  96 139 180 224 283 341 400
#     4  11  25  44  70  97 139 183 228 277 349 412
#     4  11  25  44  70 101 136 185 229 278 346 412
#
# _framework density 22.344460000000002
#
# number of rings (size 3 to 8) (size 9 to 14) (size 15 to 20)
#    0.000    0.615    7.692    0.000    2.154    4.308 
#    0.000    1.538    0.000    0.000    0.000    0.000 
#    0.000    0.000    0.000    0.000    0.000    0.000 
#
# Total GULP energy -145212.047820 kJ/mol
# GULP energy per Si atom -5585.078762 kJ/mol
# Density = 2.229360 g / cm^3
# Si number density = 22.344460 Si / 1000 Ang^3
#
#
#
# Elastic Constant Matrix: (Units=GPa)
#
#
# Indices 1 2 3 4 5 6 
#
# 1 204.4064 47.8873 16.6096 0.0001 -24.9813 0.0000
# 2 47.8873 60.3799 -14.1098 0.0003 2.4687 -0.0005
# 3 16.6096 -14.1098 54.1166 0.0000 -5.8876 0.0000
# 4 0.0001 0.0003 0.0000 35.6375 0.0000 -12.2243
# 5 -24.9813 2.4687 -5.8876 0.0000 41.2417 0.0002
# 6 0.0000 -0.0005 0.0000 -12.2243 0.0002 26.5435
#
#
#
# Elastic Compliance Matrix: (Units=1/GPa)
#
#
# Indices 1 2 3 4 5 6 
#
# 1 0.007300 -0.006794 -0.003542 0.000000 0.004323 0.000000
# 2 -0.006794 0.023966 0.007852 0.000000 -0.004429 0.000001
# 3 -0.003542 0.007852 0.021665 0.000000 0.000478 0.000000
# 4 0.000000 0.000000 0.000000 0.033325 0.000000 0.015347
# 5 0.004323 -0.004429 0.000478 0.000000 0.027199 0.000000
# 6 0.000000 0.000001 0.000000 0.015347 0.000000 0.044742
#
#
# Mechanical properties :
#
#
# Convention : Reuss Voigt Hill
#
# Bulk Modulus (GPa) = 20.84905 46.63078 33.73992
# Shear Modulus (GPa) = 27.90933 38.58562 33.24747
#
# Velocity S-wave (km/s) = 3.53802 4.16005 3.86158
# Velocity P-wave (km/s) = 5.10305 6.63243 5.91736
#
# Compressibility (1/GPa) = 0.04796382
#
# Stress axis : x y z
#
# Youngs Moduli (GPa) = 136.98688 41.72567 46.15777
#
# Poissons Ratio (x) = 0.28348 0.16347
# Poissons Ratio (y) = 0.93068 -0.36243
# Poissons Ratio (z) = 0.48515 -0.32763
#
# Static dielectric constant tensor:
#      x y z
#    x 1.866060 0.000000 0.000920 
#    y 0.000000 1.836120 0.000000 
#    z 0.000920 0.000000 1.853820 
# 
# From -- ./inp_files/221167.got.cif
#   From: 2010.05.17/outbox.cif.g08.bks.cpg/sg15_111_cif.got.tgz:221167.got - 2010.06.03 18:47:42.
