data_PCOD9303838
_publ_section_title
;
Structure prediction by ZEFSAII (Michael W. Deem and Ramdas Pophale) SiO2 
 PCOD9303838
Probable space group: C 2/C
;
_chemical_formula_sum "Si O2"
_cell_formula_units_Z 32
_cell_length_a 30.626521
_cell_length_b 4.960003
_cell_length_c 8.971967
_cell_angle_alpha 90.000000
_cell_angle_beta 111.932184
_cell_angle_gamma 90.000000
_cell_volume 1264.271837
_symmetry_space_group_name_H-M "C 2/C"
_symmetry_group_IT_number 15
_symmetry_cell_setting 'monoclinic'
loop_
_space_group_symop_operation_xyz
x,y,z
-x,y,1/2-z
-x,-y,-z
x,-y,1/2+z
1/2+x,1/2+y,z
1/2-x,1/2+y,1/2-z
1/2-x,1/2-y,-z
1/2+x,1/2-y,1/2+z
loop_
_atom_site_type_symbol
_atom_site_label
_atom_site_fract_x
_atom_site_fract_y
_atom_site_fract_z
Si Si1 0.049489 0.141467 0.023610
Si Si2 0.418589 0.128857 0.616444
Si Si3 0.183491 0.673874 0.067276
Si Si4 0.776796 0.040853 0.640109
O O1 0.069999 0.272342 0.201914
O O2 0.048864 0.389413 0.905304
O O3 0.076893 0.894570 0.980732
O O4 0.000000 0.000000 0.000000
O O5 0.364692 0.026664 0.529439
O O6 0.180020 0.875639 0.200808
O O7 0.230944 0.526692 0.181383
O O8 0.200888 0.818920 0.940075
O O9 0.750000 0.250000 0.500000
#
# Coordination Sequence:
#
# PCOD9303838 Si02
#       4
#     8   8   8   8
#     4  12  28  52  78 116 148 196 249 327 395 457
#     4  12  28  48  83 110 155 197 262 310 378 474
#     4  11  25  41  69 102 143 200 243 297 358 431
#     4  11  23  40  64 100 149 189 240 293 353 420
#
# _framework density 25.311011000000001
#
# number of rings (size 3 to 8) (size 9 to 14) (size 15 to 20)
#    0.000    0.500    2.500    4.500    7.000    2.000 
#    0.000    0.000    0.000    0.000    0.000    0.000 
#    0.000    0.000    0.000    0.000    0.000    0.000 
#
# Total GULP energy -89403.903980 kJ/mol
# GULP energy per Si atom -5587.743999 kJ/mol
# Density = 2.525340 g / cm^3
# Si number density = 25.311011 Si / 1000 Ang^3
#
#
#
# Elastic Constant Matrix: (Units=GPa)
#
#
# Indices 1 2 3 4 5 6 
#
# 1 56.7057 26.8654 50.5441 0.0000 8.5486 0.0000
# 2 26.8654 110.6419 23.3511 0.0000 -7.2456 0.0000
# 3 50.5441 23.3511 108.9528 0.0000 2.5257 0.0000
# 4 0.0000 0.0000 0.0000 40.5667 0.0000 -10.2964
# 5 8.5486 -7.2456 2.5257 0.0000 39.7821 0.0000
# 6 0.0000 0.0000 0.0000 -10.2964 0.0000 34.3902
#
#
#
# Elastic Compliance Matrix: (Units=1/GPa)
#
#
# Indices 1 2 3 4 5 6 
#
# 1 0.034538 -0.005798 -0.014605 0.000000 -0.007551 0.000000
# 2 -0.005798 0.010579 0.000350 0.000000 0.003151 0.000000
# 3 -0.014605 0.000350 0.015828 0.000000 0.002197 0.000000
# 4 0.000000 0.000000 0.000000 0.026678 0.000000 0.007987
# 5 -0.007551 0.003151 0.002197 0.000000 0.027194 0.000000
# 6 0.000000 0.000000 0.000000 0.007987 0.000000 0.031469
#
#
# Mechanical properties :
#
#
# Convention : Reuss Voigt Hill
#
# Bulk Modulus (GPa) = 47.99069 53.09128 50.54099
# Shear Modulus (GPa) = 25.86136 34.65046 30.25591
#
# Velocity S-wave (km/s) = 3.19994 3.70400 3.46116
# Velocity P-wave (km/s) = 5.71440 6.27008 5.99868
#
# Compressibility (1/GPa) = 0.02083738
#
# Stress axis : x y z
#
# Youngs Moduli (GPa) = 28.95350 94.53010 63.18053
#
# Poissons Ratio (x) = 0.54813 0.92273
# Poissons Ratio (y) = 0.16789 -0.02209
# Poissons Ratio (z) = 0.42286 -0.03306
#
# Static dielectric constant tensor:
#      x y z
#    x 1.997620 0.000000 -0.155050 
#    y 0.000000 2.826420 0.000000 
#    z -0.155050 0.000000 1.832460 
# 
# From -- ./inp_files/67990.got.cif
#   From: 2010.05.17/outbox.cif.g08.bks.cpg/sg15_34_cif.got.tgz:67990.got - 2010.06.03 18:47:42.
