data_PCOD9303460
_publ_section_title
;
Structure prediction by ZEFSAII (Michael W. Deem and Ramdas Pophale) SiO2 
 PCOD9303460
Probable space group: C 2/C
;
_chemical_formula_sum "Si O2"
_cell_formula_units_Z 60
_cell_length_a 11.812496
_cell_length_b 22.045491
_cell_length_c 16.221629
_cell_angle_alpha 90.000000
_cell_angle_beta 38.123313
_cell_angle_gamma 90.000000
_cell_volume 2607.904007
_symmetry_space_group_name_H-M "C 2/C"
_symmetry_group_IT_number 15
_symmetry_cell_setting 'monoclinic'
loop_
_space_group_symop_operation_xyz
x,y,z
-x,y,1/2-z
-x,-y,-z
x,-y,1/2+z
1/2+x,1/2+y,z
1/2-x,1/2+y,1/2-z
1/2-x,1/2-y,-z
1/2+x,1/2-y,1/2+z
loop_
_atom_site_type_symbol
_atom_site_label
_atom_site_fract_x
_atom_site_fract_y
_atom_site_fract_z
Si Si1 0.323504 0.889503 0.401204
Si Si2 0.671462 0.242576 0.283748
Si Si3 0.677473 0.481448 0.946568
Si Si4 0.873466 0.608384 0.215419
Si Si5 0.000000 0.168067 0.750000
Si Si6 0.393721 0.727260 0.489270
Si Si7 0.783808 0.070443 0.360510
Si Si8 0.745785 0.059566 0.931622
O O1 0.500000 0.864628 0.250000
O O2 0.154014 0.844609 0.480378
O O3 0.325895 0.899769 0.499278
O O4 0.294151 0.957245 0.384728
O O5 0.601338 0.179138 0.286082
O O6 0.555597 0.292133 0.297973
O O7 0.640317 0.247544 0.399498
O O8 0.893780 0.243373 0.148574
O O9 0.778283 0.426648 0.843901
O O10 0.500000 0.500000 0.000000
O O11 0.623258 0.463336 0.069897
O O12 0.752743 0.604138 0.202652
O O13 0.055580 0.573239 0.084806
O O14 0.827852 0.122258 0.854774
O O15 0.250000 0.750000 0.500000
O O16 0.000000 0.074434 0.250000
O O17 0.729568 0.999278 0.383682
#
# Coordination Sequence:
#
# PCOD9303460 Si02
#       8
#     8   8   8   8   4   8   8   8
#     4  11  24  43  70 106 142 179 234 304 374 439
#     4  12  29  47  74 107 146 202 246 305 372 441
#     4  11  24  42  69 104 139 184 239 303 369 432
#     4  12  25  43  72 101 143 186 243 299 366 440
#     4  12  30  48  72 104 158 204 258 294 364 468
#     4  12  26  50  76 109 144 192 252 312 375 443
#     4  11  22  44  72 108 141 183 234 305 377 432
#     4  11  25  45  68 102 143 193 244 297 367 442
#
# _framework density 23.006979999999999
#
# number of rings (size 3 to 8) (size 9 to 14) (size 15 to 20)
#    0.000    0.533    0.667    8.400    5.600    2.133 
#    0.000    0.000    0.000    0.000    0.000    0.000 
#    0.000    0.000    0.000    0.000    0.000    0.000 
#
# Total GULP energy -167761.037330 kJ/mol
# GULP energy per Si atom -5592.034578 kJ/mol
# Density = 2.295462 g / cm^3
# Si number density = 23.006980 Si / 1000 Ang^3
#
#
#
# Elastic Constant Matrix: (Units=GPa)
#
#
# Indices 1 2 3 4 5 6 
#
# 1 74.2077 5.1563 3.9389 0.0018 8.6365 -0.0002
# 2 5.1563 111.7863 1.0515 -0.0001 19.4354 -0.0001
# 3 3.9389 1.0515 97.1277 -0.0023 16.1013 -0.0027
# 4 0.0018 -0.0001 -0.0023 28.5260 -0.0006 10.1461
# 5 8.6365 19.4354 16.1013 -0.0006 18.0683 0.0011
# 6 -0.0002 -0.0001 -0.0027 10.1461 0.0011 18.2401
#
#
#
# Elastic Compliance Matrix: (Units=1/GPa)
#
#
# Indices 1 2 3 4 5 6 
#
# 1 0.014360 0.000798 0.000809 -0.000002 -0.008443 0.000002
# 2 0.000798 0.011449 0.002286 -0.000001 -0.014734 0.000002
# 3 0.000809 0.002286 0.012566 0.000000 -0.014044 0.000003
# 4 -0.000002 -0.000001 0.000000 0.043702 0.000005 -0.024309
# 5 -0.008443 -0.014734 -0.014044 0.000005 0.087745 -0.000010
# 6 0.000002 0.000002 0.000003 -0.024309 -0.000010 0.068346
#
#
# Mechanical properties :
#
#
# Convention : Reuss Voigt Hill
#
# Bulk Modulus (GPa) = 21.66339 33.71278 27.68809
# Shear Modulus (GPa) = 20.34422 31.16523 25.75473
#
# Velocity S-wave (km/s) = 2.97688 3.68448 3.34942
# Velocity P-wave (km/s) = 4.61001 5.72587 5.19797
#
# Compressibility (1/GPa) = 0.04616082
#
# Stress axis : x y z
#
# Youngs Moduli (GPa) = 69.63825 87.34362 79.57775
#
# Poissons Ratio (x) = -0.06969 -0.06435
# Poissons Ratio (y) = -0.05556 -0.18193
# Poissons Ratio (z) = -0.05631 -0.19969
#
# Static dielectric constant tensor:
#      x y z
#    x 1.906340 -0.000020 -0.030420 
#    y -0.000020 2.167560 0.000000 
#    z -0.030420 0.000000 1.865600 
# 
# From -- ./inp_files/200520.got.cif
#   From: 2010.05.17/outbox.cif.g08.bks.cpg/sg15_101_cif.got.tgz:200520.got - 2010.06.03 18:47:42.
