data_PCOD9303597
_publ_section_title
;
Structure prediction by ZEFSAII (Michael W. Deem and Ramdas Pophale) SiO2 
 PCOD9303597
Probable space group: C 2/C
;
_chemical_formula_sum "Si O2"
_cell_formula_units_Z 56
_cell_length_a 12.270376
_cell_length_b 8.207906
_cell_length_c 27.077889
_cell_angle_alpha 90.000000
_cell_angle_beta 63.545031
_cell_angle_gamma 90.000000
_cell_volume 2441.553500
_symmetry_space_group_name_H-M "C 2/C"
_symmetry_group_IT_number 15
_symmetry_cell_setting 'monoclinic'
loop_
_space_group_symop_operation_xyz
x,y,z
-x,y,1/2-z
-x,-y,-z
x,-y,1/2+z
1/2+x,1/2+y,z
1/2-x,1/2+y,1/2-z
1/2-x,1/2-y,-z
1/2+x,1/2-y,1/2+z
loop_
_atom_site_type_symbol
_atom_site_label
_atom_site_fract_x
_atom_site_fract_y
_atom_site_fract_z
Si Si1 0.231784 0.627897 0.647146
Si Si2 0.173823 0.179958 0.060723
Si Si3 0.661599 0.922796 0.311400
Si Si4 0.755008 0.145319 0.901136
Si Si5 0.956246 0.658115 0.311765
Si Si6 0.630889 0.633244 0.248054
Si Si7 0.068193 0.924416 0.939243
O O1 0.184241 0.701639 0.605242
O O2 0.148029 0.475606 0.679048
O O3 0.209991 0.764615 0.692179
O O4 0.364712 0.560016 0.607650
O O5 0.035575 0.161583 0.071594
O O6 0.228779 0.005358 0.065774
O O7 0.250000 0.250000 0.000000
O O8 0.562035 0.057684 0.317356
O O9 0.789028 0.973933 0.259538
O O10 0.690563 0.910129 0.363239
O O11 0.620830 0.749958 0.297213
O O12 0.888716 0.209172 0.858558
O O13 0.672352 0.296720 0.935519
O O14 0.000000 0.721295 0.250000
O O15 0.500000 0.606409 0.250000
O O16 0.000000 0.000000 0.000000
#
# Coordination Sequence:
#
# PCOD9303597 Si02
#       7
#     8   8   8   8   8   8   8
#     4  11  22  47  69 101 141 185 232 289 353 411
#     4  12  26  49  71 102 142 184 245 304 349 423
#     4  12  24  42  69 103 143 190 226 284 348 424
#     4  11  28  44  72 107 138 186 240 292 359 423
#     4  11  22  46  68 102 147 183 228 287 350 429
#     4  12  26  42  69 106 147 190 235 278 350 424
#     4  11  26  48  73 101 134 184 241 298 362 412
#
# _framework density 22.936218
#
# number of rings (size 3 to 8) (size 9 to 14) (size 15 to 20)
#    0.000    0.571    5.714    1.714    4.000    2.857 
#    0.000    0.000    0.000    0.000    0.000    0.000 
#    0.000    0.000    0.000    0.000    0.000    0.000 
#
# Total GULP energy -156922.473217 kJ/mol
# GULP energy per Si atom -5604.374043 kJ/mol
# Density = 2.288401 g / cm^3
# Si number density = 22.936218 Si / 1000 Ang^3
#
#
#
# Elastic Constant Matrix: (Units=GPa)
#
#
# Indices 1 2 3 4 5 6 
#
# 1 91.8190 21.9820 27.7403 0.0000 -26.1293 0.0000
# 2 21.9820 85.7664 48.0855 0.0000 -6.5651 0.0000
# 3 27.7403 48.0855 127.9248 0.0000 -16.4947 0.0000
# 4 0.0000 0.0000 0.0000 38.2471 0.0000 -6.3191
# 5 -26.1293 -6.5651 -16.4947 0.0000 34.6307 0.0000
# 6 0.0000 0.0000 0.0000 -6.3191 0.0000 44.6076
#
#
#
# Elastic Compliance Matrix: (Units=1/GPa)
#
#
# Indices 1 2 3 4 5 6 
#
# 1 0.014648 -0.002446 -0.000950 0.000000 0.010136 0.000000
# 2 -0.002446 0.015182 -0.005373 0.000000 -0.001526 0.000000
# 3 -0.000950 -0.005373 0.010462 0.000000 0.003247 0.000000
# 4 0.000000 0.000000 0.000000 0.026772 0.000000 0.003793
# 5 0.010136 -0.001526 0.003247 0.000000 0.037781 0.000000
# 6 0.000000 0.000000 0.000000 0.003793 0.000000 0.022955
#
#
# Mechanical properties :
#
#
# Convention : Reuss Voigt Hill
#
# Bulk Modulus (GPa) = 43.94944 55.68066 49.81505
# Shear Modulus (GPa) = 32.69623 37.34391 35.02007
#
# Velocity S-wave (km/s) = 3.77971 4.03943 3.91173
# Velocity P-wave (km/s) = 6.18478 6.78859 6.49371
#
# Compressibility (1/GPa) = 0.02275342
#
# Stress axis : x y z
#
# Youngs Moduli (GPa) = 68.26884 65.86689 95.58769
#
# Poissons Ratio (x) = 0.16109 0.09082
# Poissons Ratio (y) = 0.16697 0.51362
# Poissons Ratio (z) = 0.06487 0.35392
#
# Static dielectric constant tensor:
#      x y z
#    x 1.834720 0.000000 -0.017430 
#    y 0.000000 1.891170 0.000000 
#    z -0.017430 0.000000 1.852920 
# 
# From -- ./inp_files/310211.got.cif
#   From: 2010.05.17/outbox.cif.g08.bks.cpg/sg15_156_cif.got.tgz:310211.got - 2010.06.03 18:47:42.
