data_PCOD9303978
_publ_section_title
;
Structure prediction by ZEFSAII (Michael W. Deem and Ramdas Pophale) SiO2 
 PCOD9303978
Probable space group: C 2/C
;
_chemical_formula_sum "Si O2"
_cell_formula_units_Z 56
_cell_length_a 13.852777
_cell_length_b 23.466736
_cell_length_c 8.271104
_cell_angle_alpha 90.000000
_cell_angle_beta 70.122377
_cell_angle_gamma 90.000000
_cell_volume 2528.572013
_symmetry_space_group_name_H-M "C 2/C"
_symmetry_group_IT_number 15
_symmetry_cell_setting 'monoclinic'
loop_
_space_group_symop_operation_xyz
x,y,z
-x,y,1/2-z
-x,-y,-z
x,-y,1/2+z
1/2+x,1/2+y,z
1/2-x,1/2+y,1/2-z
1/2-x,1/2-y,-z
1/2+x,1/2-y,1/2+z
loop_
_atom_site_type_symbol
_atom_site_label
_atom_site_fract_x
_atom_site_fract_y
_atom_site_fract_z
Si Si1 0.718959 0.815983 0.002764
Si Si2 0.393937 0.615422 0.213061
Si Si3 0.194153 0.309784 0.382496
Si Si4 0.559751 0.898788 0.047070
Si Si5 0.776970 0.473123 0.689633
Si Si6 0.639834 0.073493 0.027704
Si Si7 0.906355 0.205877 0.925540
O O1 0.699792 0.833793 0.199007
O O2 0.613326 0.837609 0.978092
O O3 0.750000 0.750000 0.000000
O O4 0.813206 0.846546 0.861097
O O5 0.500000 0.610819 0.250000
O O6 0.335298 0.554771 0.230685
O O7 0.409155 0.649106 0.034957
O O8 0.169392 0.360559 0.518408
O O9 0.111191 0.259624 0.445378
O O10 0.306526 0.289769 0.368361
O O11 0.500000 0.896713 0.250000
O O12 0.657145 0.940768 0.986709
O O13 0.476030 0.923720 0.970694
O O14 0.788705 0.538920 0.639258
O O15 0.837126 0.455471 0.816218
O O16 0.000000 0.209273 0.750000
#
# Coordination Sequence:
#
# PCOD9303978 Si02
#       7
#     8   8   8   8   8   8   8
#     4  11  23  42  69 104 145 181 233 293 347 427
#     4  11  24  46  72 101 139 187 239 294 358 431
#     4  11  24  44  68 101 143 181 235 290 355 431
#     4  11  23  41  68 101 137 183 234 273 356 424
#     4  11  26  45  71  99 138 183 238 300 356 423
#     4  12  24  45  68  98 142 183 233 299 354 426
#     4  11  24  45  70 103 141 189 232 286 360 430
#
# _framework density 22.146888000000001
#
# number of rings (size 3 to 8) (size 9 to 14) (size 15 to 20)
#    0.000    0.857    4.286    2.571    2.000    4.000 
#    0.000    1.429    0.000    0.000    0.000    0.000 
#    0.000    0.000    0.000    0.000    0.000    0.000 
#
# Total GULP energy -156386.850512 kJ/mol
# GULP energy per Si atom -5585.244661 kJ/mol
# Density = 2.209648 g / cm^3
# Si number density = 22.146888 Si / 1000 Ang^3
#
#
#
# Elastic Constant Matrix: (Units=GPa)
#
#
# Indices 1 2 3 4 5 6 
#
# 1 130.7656 27.6553 46.1882 0.0000 -15.1274 0.0000
# 2 27.6553 85.1701 9.3170 0.0000 -7.4499 0.0000
# 3 46.1882 9.3170 110.2774 0.0000 -11.0076 0.0000
# 4 0.0000 0.0000 0.0000 17.7908 0.0000 2.5934
# 5 -15.1274 -7.4499 -11.0076 0.0000 30.6775 0.0000
# 6 0.0000 0.0000 0.0000 2.5934 0.0000 20.2696
#
#
#
# Elastic Compliance Matrix: (Units=1/GPa)
#
#
# Indices 1 2 3 4 5 6 
#
# 1 0.009790 -0.002530 -0.003595 0.000000 0.002923 0.000000
# 2 -0.002530 0.012710 0.000176 0.000000 0.001902 0.000000
# 3 -0.003595 0.000176 0.010772 0.000000 0.002135 0.000000
# 4 0.000000 0.000000 0.000000 0.057277 0.000000 -0.007328
# 5 0.002923 0.001902 0.002135 0.000000 0.035267 0.000000
# 6 0.000000 0.000000 0.000000 -0.007328 0.000000 0.050273
#
#
# Mechanical properties :
#
#
# Convention : Reuss Voigt Hill
#
# Bulk Modulus (GPa) = 46.78665 54.72602 50.75634
# Shear Modulus (GPa) = 25.62632 29.95107 27.78869
#
# Velocity S-wave (km/s) = 3.40532 3.68147 3.54608
# Velocity P-wave (km/s) = 6.05252 6.54485 6.30349
#
# Compressibility (1/GPa) = 0.02137362
#
# Stress axis : x y z
#
# Youngs Moduli (GPa) = 102.14174 78.67904 92.83292
#
# Poissons Ratio (x) = 0.19906 0.33373
# Poissons Ratio (y) = 0.25842 -0.01631
# Poissons Ratio (z) = 0.36720 -0.01382
#
# Static dielectric constant tensor:
#      x y z
#    x 1.862690 0.000000 0.044320 
#    y 0.000000 1.898200 0.000000 
#    z 0.044320 0.000000 1.846740 
# 
# From -- ./inp_files/42111.got.cif
#   From: 2010.05.17/outbox.cif.g08.bks.cpg/sg15_22_cif.got.tgz:42111.got - 2010.06.03 18:47:42.
