data_PCOD9303747
_publ_section_title
;
Structure prediction by ZEFSAII (Michael W. Deem and Ramdas Pophale) SiO2 
 PCOD9303747
Probable space group: C 2/C
;
_chemical_formula_sum "Si O2"
_cell_formula_units_Z 48
_cell_length_a 13.231735
_cell_length_b 13.462317
_cell_length_c 13.311333
_cell_angle_alpha 90.000000
_cell_angle_beta 68.723168
_cell_angle_gamma 90.000000
_cell_volume 2209.523313
_symmetry_space_group_name_H-M "C 2/C"
_symmetry_group_IT_number 15
_symmetry_cell_setting 'monoclinic'
loop_
_space_group_symop_operation_xyz
x,y,z
-x,y,1/2-z
-x,-y,-z
x,-y,1/2+z
1/2+x,1/2+y,z
1/2-x,1/2+y,1/2-z
1/2-x,1/2-y,-z
1/2+x,1/2-y,1/2+z
loop_
_atom_site_type_symbol
_atom_site_label
_atom_site_fract_x
_atom_site_fract_y
_atom_site_fract_z
Si Si1 0.887178 0.443774 0.258499
Si Si2 0.919079 0.082668 0.072942
Si Si3 0.304742 0.510983 0.303878
Si Si4 0.752311 0.365709 0.023113
Si Si5 0.201021 0.642398 0.503699
Si Si6 0.037418 0.317650 0.451491
O O1 0.804810 0.507271 0.222491
O O2 0.826131 0.403193 0.378213
O O3 0.924166 0.352559 0.173136
O O4 0.000000 0.494452 0.250000
O O5 0.895145 0.050690 0.196054
O O6 0.957557 0.197362 0.047172
O O7 0.807583 0.083389 0.048371
O O8 0.000000 0.000000 0.000000
O O9 0.312462 0.402390 0.353782
O O10 0.283458 0.580503 0.406448
O O11 0.879633 0.376681 0.004586
O O12 0.750000 0.250000 0.000000
O O13 0.250000 0.750000 0.500000
O O14 0.085377 0.649267 0.489866
#
# Coordination Sequence:
#
# PCOD9303747 Si02
#       6
#     8   8   8   8   8   8
#     4   9  20  39  62  92 127 168 214 267 327 395
#     4  11  24  41  64  95 132 171 221 277 331 394
#     4  11  23  38  66  96 129 171 219 272 327 398
#     4   9  21  44  64  89 133 177 212 271 333 397
#     4  11  23  38  65  97 131 172 221 271 329 396
#     4   9  21  42  64  90 132 174 215 268 336 392
#
# _framework density 21.724143000000002
#
# number of rings (size 3 to 8) (size 9 to 14) (size 15 to 20)
#    0.000    2.000    0.000    2.000    4.667    8.000 
#    0.000    0.000    0.000    0.000    0.000    0.000 
#    0.000    0.000    0.000    0.000    0.000    0.000 
#
# Total GULP energy -133911.741413 kJ/mol
# GULP energy per Si atom -5579.655892 kJ/mol
# Density = 2.167470 g / cm^3
# Si number density = 21.724143 Si / 1000 Ang^3
#
#
#
# Elastic Constant Matrix: (Units=GPa)
#
#
# Indices 1 2 3 4 5 6 
#
# 1 47.6883 22.8515 18.3637 0.0000 10.4487 0.0000
# 2 22.8515 91.9167 45.8414 0.0000 -11.0916 0.0000
# 3 18.3637 45.8414 137.6945 0.0000 -12.6681 0.0000
# 4 0.0000 0.0000 0.0000 26.2784 0.0000 1.9495
# 5 10.4487 -11.0916 -12.6681 0.0000 33.4756 0.0000
# 6 0.0000 0.0000 0.0000 1.9495 0.0000 36.2132
#
#
#
# Elastic Compliance Matrix: (Units=1/GPa)
#
#
# Indices 1 2 3 4 5 6 
#
# 1 0.027999 -0.007194 -0.002448 0.000000 -0.012049 0.000000
# 2 -0.007194 0.015148 -0.003538 0.000000 0.005925 0.000000
# 3 -0.002448 -0.003538 0.009044 0.000000 0.003014 0.000000
# 4 0.000000 0.000000 0.000000 0.038207 0.000000 -0.002057
# 5 -0.012049 0.005925 0.003014 0.000000 0.036737 0.000000
# 6 0.000000 0.000000 0.000000 -0.002057 0.000000 0.027725
#
#
# Mechanical properties :
#
#
# Convention : Reuss Voigt Hill
#
# Bulk Modulus (GPa) = 38.71337 50.15694 44.43516
# Shear Modulus (GPa) = 26.33918 31.87630 29.10774
#
# Velocity S-wave (km/s) = 3.48579 3.83472 3.66441
# Velocity P-wave (km/s) = 5.83610 6.53797 6.19698
#
# Compressibility (1/GPa) = 0.02583087
#
# Stress axis : x y z
#
# Youngs Moduli (GPa) = 35.71492 66.01658 110.56838
#
# Poissons Ratio (x) = 0.47494 0.27063
# Poissons Ratio (y) = 0.25694 0.39123
# Poissons Ratio (z) = 0.08742 0.23359
#
# Static dielectric constant tensor:
#      x y z
#    x 1.851100 0.000000 0.029300 
#    y 0.000000 1.868600 0.000000 
#    z 0.029300 0.000000 1.776310 
# 
# From -- ./inp_files/96197.got.cif
#   From: 2010.05.17/outbox.cif.g08.bks.cpg/sg15_49_cif.got.tgz:96197.got - 2010.06.03 18:47:42.
