data_PCOD9303899
_publ_section_title
;
Structure prediction by ZEFSAII (Michael W. Deem and Ramdas Pophale) SiO2 
 PCOD9303899
Probable space group: C 2/C
;
_chemical_formula_sum "Si O2"
_cell_formula_units_Z 44
_cell_length_a 15.244728
_cell_length_b 14.620190
_cell_length_c 11.879450
_cell_angle_alpha 90.000000
_cell_angle_beta 54.704004
_cell_angle_gamma 90.000000
_cell_volume 2160.995682
_symmetry_space_group_name_H-M "C 2/C"
_symmetry_group_IT_number 15
_symmetry_cell_setting 'monoclinic'
loop_
_space_group_symop_operation_xyz
x,y,z
-x,y,1/2-z
-x,-y,-z
x,-y,1/2+z
1/2+x,1/2+y,z
1/2-x,1/2+y,1/2-z
1/2-x,1/2-y,-z
1/2+x,1/2-y,1/2+z
loop_
_atom_site_type_symbol
_atom_site_label
_atom_site_fract_x
_atom_site_fract_y
_atom_site_fract_z
Si Si1 0.100603 0.066953 0.757686
Si Si2 0.000000 0.642160 0.250000
Si Si3 0.158521 0.894070 0.835923
Si Si4 0.712700 0.973768 0.552504
Si Si5 0.028591 0.769632 0.444715
Si Si6 0.188923 0.327019 0.975610
O O1 0.210367 0.061541 0.605503
O O2 0.102340 0.144862 0.851087
O O3 0.000000 0.086475 0.750000
O O4 0.085232 0.967078 0.823537
O O5 0.897089 0.581470 0.355769
O O6 0.976932 0.704187 0.158696
O O7 0.219993 0.952192 0.885087
O O8 0.243029 0.851712 0.686541
O O9 0.085633 0.815198 0.942862
O O10 0.685749 0.079503 0.548927
O O11 0.077352 0.714700 0.513452
O O12 0.250000 0.250000 0.000000
#
# Coordination Sequence:
#
# PCOD9303899 Si02
#       6
#     8   4   8   8   8   8
#     4  11  23  40  71 100 136 177 232 297 342 409
#     4  12  26  44  70  98 142 186 234 276 358 424
#     4  11  24  43  70  99 141 179 232 293 354 403
#     4  11  25  47  65 100 142 185 231 282 355 427
#     4  12  24  42  70 105 134 181 234 290 346 414
#     4  11  27  45  69 101 136 182 230 288 351 416
#
# _framework density 20.360986
#
# number of rings (size 3 to 8) (size 9 to 14) (size 15 to 20)
#    0.000    0.727    4.545    1.636    7.636    3.636 
#    0.000    0.000    0.000    0.000    0.000    0.000 
#    0.000    0.000    0.000    0.000    0.000    0.000 
#
# Total GULP energy -123050.457759 kJ/mol
# GULP energy per Si atom -5593.202625 kJ/mol
# Density = 2.031464 g / cm^3
# Si number density = 20.360986 Si / 1000 Ang^3
#
#
#
# Elastic Constant Matrix: (Units=GPa)
#
#
# Indices 1 2 3 4 5 6 
#
# 1 80.3171 31.3680 -0.5342 0.0000 -4.0257 0.0000
# 2 31.3680 107.2911 22.2353 0.0000 -14.8970 0.0000
# 3 -0.5342 22.2353 52.3244 0.0000 -13.9656 0.0000
# 4 0.0000 0.0000 0.0000 37.1843 0.0000 4.4414
# 5 -4.0257 -14.8970 -13.9656 0.0000 29.1918 0.0000
# 6 0.0000 0.0000 0.0000 4.4414 0.0000 34.4950
#
#
#
# Elastic Compliance Matrix: (Units=1/GPa)
#
#
# Indices 1 2 3 4 5 6 
#
# 1 0.014277 -0.004543 0.002273 0.000000 0.000738 0.000000
# 2 -0.004543 0.012006 -0.004219 0.000000 0.003482 0.000000
# 3 0.002273 -0.004219 0.023428 0.000000 0.009369 0.000000
# 4 0.000000 0.000000 0.000000 0.027313 0.000000 -0.003517
# 5 0.000738 0.003482 0.009369 0.000000 0.040617 0.000000
# 6 0.000000 0.000000 0.000000 -0.003517 0.000000 0.029443
#
#
# Mechanical properties :
#
#
# Convention : Reuss Voigt Hill
#
# Bulk Modulus (GPa) = 27.22248 38.45230 32.83739
# Shear Modulus (GPa) = 29.01815 32.63179 30.82497
#
# Velocity S-wave (km/s) = 3.77926 4.00767 3.89514
# Velocity P-wave (km/s) = 5.69584 6.35150 6.03258
#
# Compressibility (1/GPa) = 0.03673434
#
# Stress axis : x y z
#
# Youngs Moduli (GPa) = 70.04318 83.28892 42.68365
#
# Poissons Ratio (x) = 0.37835 -0.09703
# Poissons Ratio (y) = 0.31818 0.18009
# Poissons Ratio (z) = -0.15922 0.35141
#
# Static dielectric constant tensor:
#      x y z
#    x 1.728190 0.000000 0.020250 
#    y 0.000000 1.709640 0.000000 
#    z 0.020250 0.000000 1.711870 
# 
# From -- ./inp_files/96100.got.cif
#   From: 2010.05.17/outbox.cif.g08.bks.cpg/sg15_49_cif.got.tgz:96100.got - 2010.06.03 18:47:42.
