data_PCOD9303315
_publ_section_title
;
Structure prediction by ZEFSAII (Michael W. Deem and Ramdas Pophale) SiO2 
 PCOD9303315
Probable space group: C 2/C
;
_chemical_formula_sum "Si O2"
_cell_formula_units_Z 40
_cell_length_a 11.923159
_cell_length_b 20.666937
_cell_length_c 12.403105
_cell_angle_alpha 90.000000
_cell_angle_beta 146.013418
_cell_angle_gamma 90.000000
_cell_volume 1708.475275
_symmetry_space_group_name_H-M "C 2/C"
_symmetry_group_IT_number 15
_symmetry_cell_setting 'monoclinic'
loop_
_space_group_symop_operation_xyz
x,y,z
-x,y,1/2-z
-x,-y,-z
x,-y,1/2+z
1/2+x,1/2+y,z
1/2-x,1/2+y,1/2-z
1/2-x,1/2-y,-z
1/2+x,1/2-y,1/2+z
loop_
_atom_site_type_symbol
_atom_site_label
_atom_site_fract_x
_atom_site_fract_y
_atom_site_fract_z
Si Si1 0.430810 0.710287 0.589010
Si Si2 0.326699 0.164617 0.291827
Si Si3 0.654055 0.029217 0.210299
Si Si4 0.574311 0.450033 0.922356
Si Si5 0.704149 0.174069 0.976490
O O1 0.500000 0.671144 0.750000
O O2 0.250000 0.750000 0.500000
O O3 0.571622 0.767016 0.655596
O O4 0.371467 0.668436 0.439822
O O5 0.435043 0.100176 0.334847
O O6 0.314999 0.160866 0.411187
O O7 0.872001 0.044662 0.330711
O O8 0.730218 0.984308 0.368963
O O9 0.500000 0.000000 0.000000
O O10 0.500000 0.479698 0.750000
O O11 0.639211 0.376178 0.949633
O O12 0.500000 0.162069 0.750000
O O13 0.750000 0.250000 0.000000
#
# Coordination Sequence:
#
# PCOD9303315 Si02
#       5
#     8   8   8   8   8
#     4   9  21  43  64  97 137 178 237 299 359 452
#     4  11  22  43  70 101 137 189 241 299 383 445
#     4  11  26  48  72 101 148 202 251 309 376 466
#     4  11  25  48  70 106 150 191 257 314 376 463
#     4  12  25  42  73 113 156 196 245 322 396 467
#
# _framework density 23.412686999999998
#
# number of rings (size 3 to 8) (size 9 to 14) (size 15 to 20)
#    0.000    1.200    2.000    3.000    2.800    0.800 
#   21.600    0.000    0.000    0.000    0.000    0.000 
#    0.000    0.000    0.000    0.000    0.000    0.000 
#
# Total GULP energy -111570.116394 kJ/mol
# GULP energy per Si atom -5578.505820 kJ/mol
# Density = 2.335940 g / cm^3
# Si number density = 23.412687 Si / 1000 Ang^3
#
#
#
# Elastic Constant Matrix: (Units=GPa)
#
#
# Indices 1 2 3 4 5 6 
#
# 1 83.3245 13.0096 41.6805 -0.0001 -21.0132 0.0000
# 2 13.0096 133.1058 70.6803 0.0000 -24.6765 0.0000
# 3 41.6805 70.6803 217.8208 -0.0001 -37.4241 0.0000
# 4 -0.0001 0.0000 -0.0001 36.6278 0.0000 2.8370
# 5 -21.0132 -24.6765 -37.4241 0.0000 43.1793 0.0000
# 6 0.0000 0.0000 0.0000 2.8370 0.0000 25.2414
#
#
#
# Elastic Compliance Matrix: (Units=1/GPa)
#
#
# Indices 1 2 3 4 5 6 
#
# 1 0.014313 0.000708 -0.002000 0.000000 0.005636 0.000000
# 2 0.000708 0.009478 -0.002610 0.000000 0.003499 0.000000
# 3 -0.002000 -0.002610 0.006341 0.000000 0.003031 0.000000
# 4 0.000000 0.000000 0.000000 0.027541 0.000000 -0.003096
# 5 0.005636 0.003499 0.003031 0.000000 0.030529 0.000000
# 6 0.000000 0.000000 0.000000 -0.003096 0.000000 0.039965
#
#
# Mechanical properties :
#
#
# Convention : Reuss Voigt Hill
#
# Bulk Modulus (GPa) = 44.78599 76.11020 60.44809
# Shear Modulus (GPa) = 34.86396 41.60177 38.23286
#
# Velocity S-wave (km/s) = 3.86308 4.21989 4.04542
# Velocity P-wave (km/s) = 6.25046 7.50480 6.90617
#
# Compressibility (1/GPa) = 0.02232841
#
# Stress axis : x y z
#
# Youngs Moduli (GPa) = 69.86841 105.50533 157.69571
#
# Poissons Ratio (x) = -0.07471 0.31541
# Poissons Ratio (y) = -0.04947 0.41156
# Poissons Ratio (z) = 0.13975 0.27535
#
# Static dielectric constant tensor:
#      x y z
#    x 1.908820 0.000000 0.001340 
#    y 0.000000 1.913050 0.000000 
#    z 0.001340 0.000000 2.011380 
# 
# From -- ./inp_files/89863.got.cif
#   From: 2010.05.17/outbox.cif.g08.bks.cpg/sg15_45_cif.got.tgz:89863.got - 2010.06.03 18:47:42.
