data_PCOD9303995
_publ_section_title
;
Structure prediction by ZEFSAII (Michael W. Deem and Ramdas Pophale) SiO2 
 PCOD9303995
Probable space group: C 2/C
;
_chemical_formula_sum "Si O2"
_cell_formula_units_Z 24
_cell_length_a 8.310408
_cell_length_b 16.978661
_cell_length_c 14.008089
_cell_angle_alpha 90.000000
_cell_angle_beta 147.780299
_cell_angle_gamma 90.000000
_cell_volume 1053.824047
_symmetry_space_group_name_H-M "C 2/C"
_symmetry_group_IT_number 15
_symmetry_cell_setting 'monoclinic'
loop_
_space_group_symop_operation_xyz
x,y,z
-x,y,1/2-z
-x,-y,-z
x,-y,1/2+z
1/2+x,1/2+y,z
1/2-x,1/2+y,1/2-z
1/2-x,1/2-y,-z
1/2+x,1/2-y,1/2+z
loop_
_atom_site_type_symbol
_atom_site_label
_atom_site_fract_x
_atom_site_fract_y
_atom_site_fract_z
Si Si1 0.260403 0.160742 0.043403
Si Si2 0.189715 0.452000 0.251706
Si Si3 0.795564 0.407538 0.880862
O O1 0.500000 0.158658 0.250000
O O2 0.418628 0.118664 0.034811
O O3 0.250000 0.250000 0.000000
O O4 0.949451 0.112439 0.906616
O O5 0.319443 0.521025 0.246925
O O6 0.000000 0.478703 0.250000
O O7 0.934816 0.419002 0.054222
O O8 0.500000 0.355008 0.750000
#
# Coordination Sequence:
#
# PCOD9303995 Si02
#       3
#     8   8   8
#     4  12  26  45  68  97 135 174 217 271 331 390
#     4  11  23  42  68  99 132 172 221 270 324 387
#     4  11  23  41  68  99 132 171 220 271 323 388
#
# _framework density 22.7742
#
# number of rings (size 3 to 8) (size 9 to 14) (size 15 to 20)
#    0.000    0.667    0.000   10.000    0.000    5.333 
#    0.000    6.667    0.000    0.000    0.000    0.000 
#    0.000    0.000    0.000    0.000    0.000    0.000 
#
# Total GULP energy -66832.065935 kJ/mol
# GULP energy per Si atom -5569.338828 kJ/mol
# Density = 2.272236 g / cm^3
# Si number density = 22.774200 Si / 1000 Ang^3
#
#
#
# Elastic Constant Matrix: (Units=GPa)
#
#
# Indices 1 2 3 4 5 6 
#
# 1 127.5954 3.2085 55.8295 0.0006 -12.9970 -0.0002
# 2 3.2085 86.5768 50.6810 -0.0010 4.0470 -0.0004
# 3 55.8295 50.6810 172.2080 0.0037 -4.2766 0.0058
# 4 0.0006 -0.0010 0.0037 33.0038 0.0007 -1.0055
# 5 -12.9970 4.0470 -4.2766 0.0007 60.2813 0.0008
# 6 -0.0002 -0.0004 0.0058 -1.0055 0.0008 7.3032
#
#
#
# Elastic Compliance Matrix: (Units=1/GPa)
#
#
# Indices 1 2 3 4 5 6 
#
# 1 0.009509 0.001629 -0.003520 0.000000 0.001691 0.000003
# 2 0.001629 0.014325 -0.004768 0.000001 -0.000949 0.000005
# 3 -0.003520 -0.004768 0.008355 -0.000001 0.000154 -0.000007
# 4 0.000000 0.000001 -0.000001 0.030427 -0.000001 0.004189
# 5 0.001691 -0.000949 0.000154 -0.000001 0.017028 -0.000002
# 6 0.000003 0.000005 -0.000007 0.004189 -0.000002 0.137503
#
#
# Mechanical properties :
#
#
# Convention : Reuss Voigt Hill
#
# Bulk Modulus (GPa) = 52.98870 67.31315 60.15092
# Shear Modulus (GPa) = 21.11878 38.56174 29.84026
#
# Velocity S-wave (km/s) = 3.04848 4.11934 3.62369
# Velocity P-wave (km/s) = 5.97566 7.22815 6.63154
#
# Compressibility (1/GPa) = 0.01887195
#
# Stress axis : x y z
#
# Youngs Moduli (GPa) = 105.16522 69.80611 119.68640
#
# Poissons Ratio (x) = -0.11373 0.42133
# Poissons Ratio (y) = -0.17134 0.57063
# Poissons Ratio (z) = 0.37021 0.33282
#
# Static dielectric constant tensor:
#      x y z
#    x 1.941250 0.000010 -0.023890 
#    y 0.000010 2.022010 0.000000 
#    z -0.023890 0.000000 1.840100 
# 
# From -- ./inp_files/21445.got.cif
#   From: 2010.05.17/outbox.cif.g08.bks.cpg/sg15_11_cif.got.tgz:21445.got - 2010.06.03 18:47:42.
