data_PCOD9303499
_publ_section_title
;
Structure prediction by ZEFSAII (Michael W. Deem and Ramdas Pophale) SiO2 
 PCOD9303499
Probable space group: C 2/C
;
_chemical_formula_sum "Si O2"
_cell_formula_units_Z 60
_cell_length_a 14.531816
_cell_length_b 15.658155
_cell_length_c 10.114990
_cell_angle_alpha 90.000000
_cell_angle_beta 102.161871
_cell_angle_gamma 90.000000
_cell_volume 2249.923330
_symmetry_space_group_name_H-M "C 2/C"
_symmetry_group_IT_number 15
_symmetry_cell_setting 'monoclinic'
loop_
_space_group_symop_operation_xyz
x,y,z
-x,y,1/2-z
-x,-y,-z
x,-y,1/2+z
1/2+x,1/2+y,z
1/2-x,1/2+y,1/2-z
1/2-x,1/2-y,-z
1/2+x,1/2-y,1/2+z
loop_
_atom_site_type_symbol
_atom_site_label
_atom_site_fract_x
_atom_site_fract_y
_atom_site_fract_z
Si Si1 0.242605 0.127417 0.034238
Si Si2 0.394418 0.894564 0.221947
Si Si3 0.755806 0.768570 0.231875
Si Si4 0.500000 0.556610 0.750000
Si Si5 0.432279 0.314964 0.450515
Si Si6 0.125270 0.461236 0.571743
Si Si7 0.669443 0.453069 0.904758
Si Si8 0.035176 0.331549 0.901069
O O1 0.212218 0.186078 0.147336
O O2 0.356780 0.140287 0.075704
O O3 0.215293 0.172223 0.886499
O O4 0.202466 0.031458 0.013824
O O5 0.500000 0.863087 0.250000
O O6 0.320192 0.819345 0.205583
O O7 0.379614 0.951263 0.348256
O O8 0.382146 0.952394 0.088500
O O9 0.847472 0.764362 0.350944
O O10 0.517058 0.616010 0.628474
O O11 0.591912 0.498047 0.791298
O O12 0.380445 0.372204 0.544028
O O13 0.510175 0.241964 0.499218
O O14 0.231104 0.428998 0.631201
O O15 0.036363 0.408747 0.596207
O O16 0.000000 0.295420 0.750000
#
# Coordination Sequence:
#
# PCOD9303499 Si02
#       8
#     8   8   8   4   8   8   8   8
#     4  11  24  46  76 116 145 218 267 327 401 497
#     4  12  25  46  73 118 164 209 266 340 409 493
#     4  11  22  44  76 106 157 201 269 323 403 480
#     4  12  24  52  74 112 146 220 268 340 396 502
#     4  12  24  50  76 112 156 211 267 340 404 494
#     4  12  28  45  77 115 161 211 267 335 418 493
#     4  12  28  47  82 112 162 208 277 339 415 487
#     4  12  27  46  77 113 158 210 269 328 415 496
#
# _framework density 26.667577000000001
#
# number of rings (size 3 to 8) (size 9 to 14) (size 15 to 20)
#    0.000    0.267    6.000    2.000    5.600    0.533 
#    0.000    0.000    2.933    0.000    0.000    0.000 
#    0.000    0.000    0.000    0.000    0.000    0.000 
#
# Total GULP energy -168163.319445 kJ/mol
# GULP energy per Si atom -5605.443981 kJ/mol
# Density = 2.660688 g / cm^3
# Si number density = 26.667577 Si / 1000 Ang^3
#
#
#
# Elastic Constant Matrix: (Units=GPa)
#
#
# Indices 1 2 3 4 5 6 
#
# 1 166.0922 31.3986 20.2912 0.0000 7.3677 0.0000
# 2 31.3986 108.2501 18.9058 0.0000 -2.1268 0.0000
# 3 20.2912 18.9058 72.1475 0.0000 1.2294 0.0000
# 4 0.0000 0.0000 0.0000 46.7712 0.0000 -11.6543
# 5 7.3677 -2.1268 1.2294 0.0000 39.1941 0.0000
# 6 0.0000 0.0000 0.0000 -11.6543 0.0000 35.8553
#
#
#
# Elastic Compliance Matrix: (Units=1/GPa)
#
#
# Indices 1 2 3 4 5 6 
#
# 1 0.006566 -0.001688 -0.001382 0.000000 -0.001282 0.000000
# 2 -0.001688 0.010129 -0.002195 0.000000 0.000936 0.000000
# 3 -0.001382 -0.002195 0.014830 0.000000 -0.000324 0.000000
# 4 0.000000 0.000000 0.000000 0.023265 0.000000 0.007562
# 5 -0.001282 0.000936 -0.000324 0.000000 0.025816 0.000000
# 6 0.000000 0.000000 0.000000 0.007562 0.000000 0.030348
#
#
# Mechanical properties :
#
#
# Convention : Reuss Voigt Hill
#
# Bulk Modulus (GPa) = 47.63469 54.18681 50.91075
# Shear Modulus (GPa) = 38.91545 42.75707 40.83626
#
# Velocity S-wave (km/s) = 3.82420 4.00851 3.91744
# Velocity P-wave (km/s) = 6.11559 6.46434 6.29238
#
# Compressibility (1/GPa) = 0.02099311
#
# Stress axis : x y z
#
# Youngs Moduli (GPa) = 152.30765 98.72290 67.43039
#
# Poissons Ratio (x) = 0.16666 0.09321
# Poissons Ratio (y) = 0.25712 0.14804
# Poissons Ratio (z) = 0.21054 0.21675
#
# Static dielectric constant tensor:
#      x y z
#    x 2.058730 0.000000 -0.002460 
#    y 0.000000 2.165810 0.000000 
#    z -0.002460 0.000000 2.118370 
# 
# From -- ./inp_files/98350.got.cif
#   From: 2010.05.17/outbox.cif.g08.bks.cpg/sg15_50_cif.got.tgz:98350.got - 2010.06.03 18:47:42.
