data_PCOD9303430
_publ_section_title
;
Structure prediction by ZEFSAII (Michael W. Deem and Ramdas Pophale) SiO2 
 PCOD9303430
Probable space group: C 2/C
;
_chemical_formula_sum "Si O2"
_cell_formula_units_Z 56
_cell_length_a 15.895888
_cell_length_b 10.760759
_cell_length_c 17.686549
_cell_angle_alpha 90.000000
_cell_angle_beta 124.890927
_cell_angle_gamma 90.000000
_cell_volume 2481.492982
_symmetry_space_group_name_H-M "C 2/C"
_symmetry_group_IT_number 15
_symmetry_cell_setting 'monoclinic'
loop_
_space_group_symop_operation_xyz
x,y,z
-x,y,1/2-z
-x,-y,-z
x,-y,1/2+z
1/2+x,1/2+y,z
1/2-x,1/2+y,1/2-z
1/2-x,1/2-y,-z
1/2+x,1/2-y,1/2+z
loop_
_atom_site_type_symbol
_atom_site_label
_atom_site_fract_x
_atom_site_fract_y
_atom_site_fract_z
Si Si1 0.938211 0.624965 0.378302
Si Si2 0.682373 0.146459 0.921524
Si Si3 0.000000 0.793336 0.750000
Si Si4 0.644753 0.048355 0.537256
Si Si5 0.500000 0.843022 0.750000
Si Si6 0.164501 0.166461 0.911887
Si Si7 0.993046 0.043113 0.106758
Si Si8 0.136569 0.128890 0.590589
O O1 0.892655 0.517628 0.406496
O O2 0.949873 0.590571 0.296425
O O3 0.872445 0.747004 0.364081
O O4 0.055185 0.645147 0.468850
O O5 0.587223 0.210056 0.832025
O O6 0.755175 0.098387 0.891494
O O7 0.750000 0.250000 0.000000
O O8 0.651152 0.045518 0.968386
O O9 0.032523 0.885912 0.700040
O O10 0.759624 0.095476 0.605936
O O11 0.587045 0.755692 0.829665
O O12 0.093897 0.062549 0.918103
O O13 0.250000 0.250000 0.000000
O O14 0.939578 0.138017 0.021023
O O15 0.087781 0.979570 0.114423
#
# Coordination Sequence:
#
# PCOD9303430 Si02
#       8
#     8   8   4   8   4   8   8   8
#     4  11  24  44  71 103 145 180 244 299 358 438
#     4  12  23  46  74 102 146 186 242 302 360 427
#     4  12  25  45  74 106 140 196 251 301 348 438
#     4  11  23  46  76  99 141 203 229 295 382 421
#     4  12  25  45  70 106 146 180 243 309 344 438
#     4  12  23  46  76 105 145 192 239 304 365 427
#     4  11  23  41  76 103 143 194 242 294 366 432
#     4  11  22  44  70 103 145 187 235 298 360 439
#
# _framework density 22.567059
#
# number of rings (size 3 to 8) (size 9 to 14) (size 15 to 20)
#    0.000    0.571    7.143    0.429    0.000    0.571 
#    0.000   12.857    0.000    0.000    0.000    0.000 
#    0.000    0.000    0.000    0.000    0.000    0.000 
#
# Total GULP energy -156526.839581 kJ/mol
# GULP energy per Si atom -5590.244271 kJ/mol
# Density = 2.251570 g / cm^3
# Si number density = 22.567059 Si / 1000 Ang^3
#
#
#
# Elastic Constant Matrix: (Units=GPa)
#
#
# Indices 1 2 3 4 5 6 
#
# 1 170.1876 32.3211 55.2041 0.0000 -23.6940 0.0000
# 2 32.3211 34.4997 25.2931 0.0000 -0.6729 0.0000
# 3 55.2041 25.2931 97.2103 0.0000 -2.3552 0.0000
# 4 0.0000 0.0000 0.0000 24.2310 0.0000 -1.6187
# 5 -23.6940 -0.6729 -2.3552 0.0000 47.8035 0.0000
# 6 0.0000 0.0000 0.0000 -1.6187 0.0000 37.2742
#
#
#
# Elastic Compliance Matrix: (Units=1/GPa)
#
#
# Indices 1 2 3 4 5 6 
#
# 1 0.008558 -0.005496 -0.003333 0.000000 0.004000 0.000000
# 2 -0.005496 0.039348 -0.007178 0.000000 -0.002524 0.000000
# 3 -0.003333 -0.007178 0.014022 0.000000 -0.001062 0.000000
# 4 0.000000 0.000000 0.000000 0.041390 0.000000 0.001797
# 5 0.004000 -0.002524 -0.001062 0.000000 0.022814 0.000000
# 6 0.000000 0.000000 0.000000 0.001797 0.000000 0.026906
#
#
# Mechanical properties :
#
#
# Convention : Reuss Voigt Hill
#
# Bulk Modulus (GPa) = 33.42965 58.61491 46.02228
# Shear Modulus (GPa) = 25.63826 34.46701 30.05264
#
# Velocity S-wave (km/s) = 3.37425 3.91233 3.65321
# Velocity P-wave (km/s) = 5.47964 6.81458 6.18324
#
# Compressibility (1/GPa) = 0.02991356
#
# Stress axis : x y z
#
# Youngs Moduli (GPa) = 116.85567 25.41442 71.31862
#
# Poissons Ratio (x) = 0.13967 0.23770
# Poissons Ratio (y) = 0.64220 0.51193
# Poissons Ratio (z) = 0.38946 0.18243
#
# Static dielectric constant tensor:
#      x y z
#    x 1.867330 0.000000 -0.018490 
#    y 0.000000 1.881080 0.000000 
#    z -0.018490 0.000000 1.848290 
# 
# From -- ./inp_files/204586.got.cif
#   From: 2010.05.17/outbox.cif.g08.bks.cpg/sg15_103_cif.got.tgz:204586.got - 2010.06.03 18:47:42.
