data_PCOD9303145
_publ_section_title
;
Structure prediction by ZEFSAII (Michael W. Deem and Ramdas Pophale) SiO2 
 PCOD9303145
Probable space group: C 2/C
;
_chemical_formula_sum "Si O2"
_cell_formula_units_Z 40
_cell_length_a 11.929901
_cell_length_b 16.946019
_cell_length_c 17.462155
_cell_angle_alpha 90.000000
_cell_angle_beta 147.920162
_cell_angle_gamma 90.000000
_cell_volume 1874.904006
_symmetry_space_group_name_H-M "C 2/C"
_symmetry_group_IT_number 15
_symmetry_cell_setting 'monoclinic'
loop_
_space_group_symop_operation_xyz
x,y,z
-x,y,1/2-z
-x,-y,-z
x,-y,1/2+z
1/2+x,1/2+y,z
1/2-x,1/2+y,1/2-z
1/2-x,1/2-y,-z
1/2+x,1/2-y,1/2+z
loop_
_atom_site_type_symbol
_atom_site_label
_atom_site_fract_x
_atom_site_fract_y
_atom_site_fract_z
Si Si1 0.813831 0.215119 0.298292
Si Si2 0.014491 0.634853 0.849634
Si Si3 0.841600 0.714626 0.974512
Si Si4 0.798018 0.445337 0.360822
Si Si5 0.472251 0.580695 0.151718
O O1 0.768058 0.234881 0.359417
O O2 0.904022 0.128427 0.340726
O O3 0.988552 0.275770 0.366042
O O4 0.595465 0.220881 0.126020
O O5 0.000000 0.634968 0.750000
O O6 0.839889 0.592735 0.801700
O O7 0.227614 0.587753 0.992637
O O8 0.785277 0.624766 0.916555
O O9 0.750000 0.750000 0.000000
O O10 0.591351 0.498494 0.231852
O O11 0.000000 0.500000 0.500000
O O12 0.500000 0.623309 0.250000
#
# Coordination Sequence:
#
# PCOD9303145 Si02
#       5
#     8   8   8   8   8
#     4  11  22  42  68 102 138 170 245 288 346 430
#     4  11  24  42  66 102 136 177 235 294 351 412
#     4  11  24  44  70 100 138 187 231 295 357 426
#     4  11  23  46  65  98 142 183 239 282 356 437
#     4  12  22  41  71  94 134 192 225 289 360 422
#
# _framework density 21.334423999999999
#
# number of rings (size 3 to 8) (size 9 to 14) (size 15 to 20)
#    0.000    0.800    4.000    4.200    0.000    4.000 
#    3.600    0.000    0.000    0.000    0.000    0.000 
#    0.000    0.000    0.000    0.000    0.000    0.000 
#
# Total GULP energy -111694.022124 kJ/mol
# GULP energy per Si atom -5584.701106 kJ/mol
# Density = 2.128587 g / cm^3
# Si number density = 21.334424 Si / 1000 Ang^3
#
#
#
# Elastic Constant Matrix: (Units=GPa)
#
#
# Indices 1 2 3 4 5 6 
#
# 1 126.0189 77.0826 38.3079 -0.0008 -24.0560 -0.0001
# 2 77.0826 129.0343 37.3211 0.0012 -6.5985 0.0002
# 3 38.3079 37.3211 99.2882 0.0013 2.3933 0.0007
# 4 -0.0008 0.0012 0.0013 22.1498 -0.0005 -12.3699
# 5 -24.0560 -6.5985 2.3933 -0.0005 38.0506 0.0000
# 6 -0.0001 0.0002 0.0007 -12.3699 0.0000 21.6828
#
#
#
# Elastic Compliance Matrix: (Units=1/GPa)
#
#
# Indices 1 2 3 4 5 6 
#
# 1 0.015282 -0.007774 -0.003179 0.000002 0.008513 0.000001
# 2 -0.007774 0.012764 -0.001736 -0.000001 -0.002593 -0.000001
# 3 -0.003179 -0.001736 0.012025 -0.000001 -0.003067 -0.000001
# 4 0.000002 -0.000001 -0.000001 0.066257 0.000002 0.037799
# 5 0.008513 -0.002593 -0.003067 0.000002 0.031406 0.000001
# 6 0.000001 -0.000001 -0.000001 0.037799 0.000001 0.067684
#
#
# Mechanical properties :
#
#
# Convention : Reuss Voigt Hill
#
# Bulk Modulus (GPa) = 68.06411 73.30719 70.68565
# Shear Modulus (GPa) = 21.21395 29.81862 25.51628
#
# Velocity S-wave (km/s) = 3.15676 3.74261 3.46210
# Velocity P-wave (km/s) = 6.72752 7.28778 7.01325
#
# Compressibility (1/GPa) = 0.01469203
#
# Stress axis : x y z
#
# Youngs Moduli (GPa) = 65.43497 78.34769 83.16268
#
# Poissons Ratio (x) = 0.60911 0.26439
# Poissons Ratio (y) = 0.50872 0.14434
# Poissons Ratio (z) = 0.20803 0.13598
#
# Static dielectric constant tensor:
#      x y z
#    x 1.803350 0.000000 0.033830 
#    y 0.000000 1.816260 0.000000 
#    z 0.033830 0.000000 1.786460 
# 
# From -- ./inp_files/29214.got.cif
#   From: 2010.05.17/outbox.cif.g08.bks.cpg/sg15_15_cif.got.tgz:29214.got - 2010.06.03 18:47:42.
