data_PCOD9303681
_publ_section_title
;
Structure prediction by ZEFSAII (Michael W. Deem and Ramdas Pophale) SiO2 
 PCOD9303681
Probable space group: C 2/C
;
_chemical_formula_sum "Si O2"
_cell_formula_units_Z 40
_cell_length_a 17.877453
_cell_length_b 9.867152
_cell_length_c 22.621745
_cell_angle_alpha 90.000000
_cell_angle_beta 158.391932
_cell_angle_gamma 90.000000
_cell_volume 1469.510782
_symmetry_space_group_name_H-M "C 2/C"
_symmetry_group_IT_number 15
_symmetry_cell_setting 'monoclinic'
loop_
_space_group_symop_operation_xyz
x,y,z
-x,y,1/2-z
-x,-y,-z
x,-y,1/2+z
1/2+x,1/2+y,z
1/2-x,1/2+y,1/2-z
1/2-x,1/2-y,-z
1/2+x,1/2-y,1/2+z
loop_
_atom_site_type_symbol
_atom_site_label
_atom_site_fract_x
_atom_site_fract_y
_atom_site_fract_z
Si Si1 0.180239 0.394113 0.693787
Si Si2 0.756422 0.120889 0.649421
Si Si3 0.412741 0.307818 0.551324
Si Si4 0.944369 0.547727 0.783652
Si Si5 0.844908 0.941371 0.076831
O O1 0.210681 0.512058 0.667290
O O2 0.383358 0.307799 0.837949
O O3 0.169534 0.462190 0.750110
O O4 0.969729 0.317143 0.524042
O O5 0.801835 0.075048 0.614678
O O6 0.993497 0.164749 0.833231
O O7 0.218024 0.361598 0.371978
O O8 0.414167 0.160114 0.579903
O O9 0.439551 0.416270 0.623759
O O10 0.118024 0.449857 0.883808
#
# Coordination Sequence:
#
# PCOD9303681 Si02
#       5
#     8   8   8   8   8
#     4   9  19  36  52  74 118 152 196 228 280 342
#     4   8  16  30  58  74 104 149 190 228 270 338
#     4  11  23  34  54  83 122 154 188 235 287 346
#     4  11  23  34  54  83 122 154 188 235 287 346
#     4   9  18  32  51  83 114 142 179 228 292 341
#
# _framework density 27.219942
#
# number of rings (size 3 to 8) (size 9 to 14) (size 15 to 20)
#    0.000    2.400    0.000    1.800   16.800    0.000 
#    0.000    0.000    0.000    0.000    0.000   35.000 
#    0.000    0.000    0.000    0.000    0.000    0.000 
#
# Total GULP energy -111383.551754 kJ/mol
# GULP energy per Si atom -5569.177588 kJ/mol
# Density = 2.715799 g / cm^3
# Si number density = 27.219942 Si / 1000 Ang^3
#
#
#
# Elastic Constant Matrix: (Units=GPa)
#
#
# Indices 1 2 3 4 5 6 
#
# 1 77.2294 10.0808 57.1392 0.0012 12.6918 0.0000
# 2 10.0808 73.0739 25.1045 0.0002 2.9541 -0.0022
# 3 57.1392 25.1045 226.5245 0.0078 31.1332 -0.0035
# 4 0.0012 0.0002 0.0078 10.1274 0.0002 -18.6901
# 5 12.6918 2.9541 31.1332 0.0002 57.1103 0.0000
# 6 0.0000 -0.0022 -0.0035 -18.6901 0.0000 29.1551
#
#
#
# Elastic Compliance Matrix: (Units=1/GPa)
#
#
# Indices 1 2 3 4 5 6 
#
# 1 0.016085 -0.000868 -0.003758 -0.000001 -0.001481 -0.000001
# 2 -0.000868 0.014274 -0.001392 -0.000014 0.000214 -0.000008
# 3 -0.003758 -0.001392 0.005829 0.000016 -0.002270 0.000011
# 4 -0.000001 -0.000014 0.000016 -0.539374 -0.000006 -0.345770
# 5 -0.001481 0.000214 -0.002270 -0.000006 0.019066 -0.000004
# 6 -0.000001 -0.000008 0.000011 -0.345770 -0.000004 -0.187359
#
#
# Mechanical properties :
#
#
# Convention : Reuss Voigt Hill
#
# Bulk Modulus (GPa) = 41.40435 62.38632 51.89534
# Shear Modulus (GPa) = -7.67587 38.24545 15.28479
#
# Velocity S-wave (km/s) = -1.68109 3.75247 2.37223
# Velocity P-wave (km/s) = 3.38762 6.46094 5.15848
#
# Compressibility (1/GPa) = 0.02415205
#
# Stress axis : x y z
#
# Youngs Moduli (GPa) = 62.16852 70.05624 171.56493
#
# Poissons Ratio (x) = 0.06082 0.64467
# Poissons Ratio (y) = 0.05398 0.23887
# Poissons Ratio (z) = 0.23360 0.09754
#
# Static dielectric constant tensor:
#      x y z
#    x 2.227310 0.000000 -0.113230 
#    y 0.000000 2.141050 0.000000 
#    z -0.113230 0.000000 2.425760 
# 
# From -- ./inp_files/214962.got.cif
#   From: 2010.05.17/outbox.cif.g08.bks.cpg/sg15_108_cif.got.tgz:214962.got - 2010.06.03 18:47:42.
