data_PCOD9303788
_publ_section_title
;
Structure prediction by ZEFSAII (Michael W. Deem and Ramdas Pophale) SiO2 
 PCOD9303788
Probable space group: C 2/C
;
_chemical_formula_sum "Si O2"
_cell_formula_units_Z 56
_cell_length_a 16.369421
_cell_length_b 11.344166
_cell_length_c 13.778802
_cell_angle_alpha 90.000000
_cell_angle_beta 96.407278
_cell_angle_gamma 90.000000
_cell_volume 2542.705907
_symmetry_space_group_name_H-M "C 2/C"
_symmetry_group_IT_number 15
_symmetry_cell_setting 'monoclinic'
loop_
_space_group_symop_operation_xyz
x,y,z
-x,y,1/2-z
-x,-y,-z
x,-y,1/2+z
1/2+x,1/2+y,z
1/2-x,1/2+y,1/2-z
1/2-x,1/2-y,-z
1/2+x,1/2-y,1/2+z
loop_
_atom_site_type_symbol
_atom_site_label
_atom_site_fract_x
_atom_site_fract_y
_atom_site_fract_z
Si Si1 0.398359 0.132895 0.143095
Si Si2 0.702777 0.099151 0.872175
Si Si3 0.417326 0.890811 0.862845
Si Si4 0.841350 0.971614 0.520854
Si Si5 0.777630 0.411161 0.346409
Si Si6 0.562426 0.748632 0.437068
Si Si7 0.119241 0.782024 0.547478
O O1 0.487272 0.072466 0.135356
O O2 0.395699 0.167670 0.255926
O O3 0.331122 0.033182 0.116028
O O4 0.390776 0.236452 0.064740
O O5 0.737111 0.106838 0.768734
O O6 0.625146 0.185609 0.873655
O O7 0.774342 0.112307 0.959751
O O8 0.355490 0.999440 0.867631
O O9 0.416282 0.806437 0.955319
O O10 0.916197 0.888863 0.558487
O O11 0.796759 0.029001 0.607125
O O12 0.866810 0.078851 0.454352
O O13 0.804820 0.288351 0.397437
O O14 0.464673 0.757427 0.409940
#
# Coordination Sequence:
#
# PCOD9303788 Si02
#       7
#     8   8   8   8   8   8   8
#     4   9  18  35  62  93 122 158 206 258 310 364
#     4  11  23  39  64  93 125 162 208 262 313 363
#     4   9  18  35  62  93 122 158 206 258 310 364
#     4  12  25  42  59  96 128 168 202 254 313 372
#     4  11  23  39  64  93 125 162 208 262 313 363
#     4  11  23  42  65  90 125 166 209 253 304 371
#     4  11  23  42  65  90 125 166 209 253 304 371
#
# _framework density 22.023781
#
# number of rings (size 3 to 8) (size 9 to 14) (size 15 to 20)
#    0.000    1.429    2.857    2.143    0.000    6.286 
#    0.000    0.000    0.000    5.143    0.000    0.000 
#    0.000    0.000    0.000    0.000    0.000    0.000 
#
# Total GULP energy -156609.884650 kJ/mol
# GULP energy per Si atom -5593.210166 kJ/mol
# Density = 2.197365 g / cm^3
# Si number density = 22.023781 Si / 1000 Ang^3
#
#
#
# Elastic Constant Matrix: (Units=GPa)
#
#
# Indices 1 2 3 4 5 6 
#
# 1 51.6989 3.7741 6.1727 0.0000 -11.0639 0.0000
# 2 3.7741 71.2243 -6.8148 0.0000 -6.6487 0.0000
# 3 6.1727 -6.8148 59.9540 0.0000 -17.9655 0.0000
# 4 0.0000 0.0000 0.0000 -0.2610 0.0000 -4.6201
# 5 -11.0639 -6.6487 -17.9655 0.0000 19.7847 0.0000
# 6 0.0000 0.0000 0.0000 -4.6201 0.0000 39.3278
#
#
#
# Elastic Compliance Matrix: (Units=1/GPa)
#
#
# Indices 1 2 3 4 5 6 
#
# 1 0.022148 0.000368 0.002075 0.000000 0.014393 0.000000
# 2 0.000368 0.015342 0.004551 0.000000 0.009495 0.000000
# 3 0.002075 0.004551 0.024439 0.000000 0.024881 0.000000
# 4 0.000000 0.000000 0.000000 -1.244225 0.000000 -0.146166
# 5 0.014393 0.009495 0.024881 0.000000 0.084377 0.000000
# 6 0.000000 0.000000 0.000000 -0.146166 0.000000 0.008256
#
#
# Mechanical properties :
#
#
# Convention : Reuss Voigt Hill
#
# Bulk Modulus (GPa) = 13.17209 21.01569 17.09389
# Shear Modulus (GPa) = -4.63674 23.75332 9.55829
#
# Velocity S-wave (km/s) = -1.45255 3.28766 2.08552
# Velocity P-wave (km/s) = 1.78343 4.89639 3.68478
#
# Compressibility (1/GPa) = 0.07591810
#
# Stress axis : x y z
#
# Youngs Moduli (GPa) = 45.14987 65.17894 40.91819
#
# Poissons Ratio (x) = -0.02402 -0.08489
# Poissons Ratio (y) = -0.01664 -0.18622
# Poissons Ratio (z) = -0.09367 -0.29663
#
# Static dielectric constant tensor:
#      x y z
#    x 1.795650 0.000000 -0.009730 
#    y 0.000000 1.791970 0.000000 
#    z -0.009730 0.000000 1.800430 
# 
# From -- ./inp_files/152608.got.cif
#   From: 2010.05.17/outbox.cif.g08.bks.cpg/sg15_77_cif.got.tgz:152608.got - 2010.06.03 18:47:42.
