data_PCOD9303226
_publ_section_title
;
Structure prediction by ZEFSAII (Michael W. Deem and Ramdas Pophale) SiO2 
 PCOD9303226
Probable space group: C 2/C
;
_chemical_formula_sum "Si O2"
_cell_formula_units_Z 40
_cell_length_a 21.816734
_cell_length_b 9.685808
_cell_length_c 8.896820
_cell_angle_alpha 90.000000
_cell_angle_beta 119.651988
_cell_angle_gamma 90.000000
_cell_volume 1633.816791
_symmetry_space_group_name_H-M "C 2/C"
_symmetry_group_IT_number 15
_symmetry_cell_setting 'monoclinic'
loop_
_space_group_symop_operation_xyz
x,y,z
-x,y,1/2-z
-x,-y,-z
x,-y,1/2+z
1/2+x,1/2+y,z
1/2-x,1/2+y,1/2-z
1/2-x,1/2-y,-z
1/2+x,1/2-y,1/2+z
loop_
_atom_site_type_symbol
_atom_site_label
_atom_site_fract_x
_atom_site_fract_y
_atom_site_fract_z
Si Si1 0.501600 0.283365 0.431948
Si Si2 0.938821 0.542927 0.559928
Si Si3 0.840790 0.626426 0.708585
Si Si4 0.201875 0.068550 0.405459
Si Si5 0.611961 0.489552 0.070042
O O1 0.500000 0.280786 0.250000
O O2 0.478935 0.143712 0.491075
O O3 0.444339 0.386074 0.431593
O O4 0.576401 0.359604 0.550366
O O5 0.890076 0.626399 0.619295
O O6 0.885458 0.440268 0.401929
O O7 0.000000 0.492226 0.750000
O O8 0.803065 0.776544 0.668820
O O9 0.773969 0.533909 0.576390
O O10 0.185181 0.970739 0.246321
O O11 0.133669 0.042291 0.427525
#
# Coordination Sequence:
#
# PCOD9303226 Si02
#       5
#     8   8   8   8   8
#     4  11  24  42  72 107 144 188 244 298 364 432
#     4  12  26  47  71 104 149 190 241 301 361 434
#     4  11  26  46  72 107 147 194 241 297 371 431
#     4  11  23  46  74 105 147 191 244 301 360 445
#     4  11  22  42  72 105 144 189 241 301 364 420
#
# _framework density 24.48255
#
# number of rings (size 3 to 8) (size 9 to 14) (size 15 to 20)
#    0.000    0.800    4.000    3.000    0.000    4.000 
#    0.000    1.000    0.000    0.000    0.000    0.000 
#    0.000    0.000    0.000    0.000    0.000    0.000 
#
# Total GULP energy -111485.769789 kJ/mol
# GULP energy per Si atom -5574.288489 kJ/mol
# Density = 2.442683 g / cm^3
# Si number density = 24.482550 Si / 1000 Ang^3
#
#
#
# Elastic Constant Matrix: (Units=GPa)
#
#
# Indices 1 2 3 4 5 6 
#
# 1 74.6741 -7.6567 39.3052 0.0000 -2.6018 0.0000
# 2 -7.6567 72.4331 27.9267 0.0000 9.9498 0.0000
# 3 39.3052 27.9267 182.0084 0.0000 19.4908 0.0000
# 4 0.0000 0.0000 0.0000 -1.2943 0.0000 23.3725
# 5 -2.6018 9.9498 19.4908 0.0000 66.4216 0.0000
# 6 0.0000 0.0000 0.0000 23.3725 0.0000 -13.0105
#
#
#
# Elastic Compliance Matrix: (Units=1/GPa)
#
#
# Indices 1 2 3 4 5 6 
#
# 1 0.015879 0.003051 -0.004042 0.000000 0.001351 0.000000
# 2 0.003051 0.015424 -0.002881 0.000000 -0.001345 0.000000
# 3 -0.004042 -0.002881 0.007000 0.000000 -0.001781 0.000000
# 4 0.000000 0.000000 0.000000 0.024574 0.000000 0.044146
# 5 0.001351 -0.001345 -0.001781 0.000000 0.015832 0.000000
# 6 0.000000 0.000000 0.000000 0.044146 0.000000 0.002445
#
#
# Mechanical properties :
#
#
# Convention : Reuss Voigt Hill
#
# Bulk Modulus (GPa) = 32.72377 49.80734 41.26555
# Shear Modulus (GPa) = 50.46165 28.39271 39.42718
#
# Velocity S-wave (km/s) = 4.54489 3.40915 4.01736
# Velocity P-wave (km/s) = 6.39817 5.99037 6.19762
#
# Compressibility (1/GPa) = 0.03055883
#
# Stress axis : x y z
#
# Youngs Moduli (GPa) = 62.97633 64.83332 142.85826
#
# Poissons Ratio (x) = -0.19783 0.57743
# Poissons Ratio (y) = -0.19216 0.41164
# Poissons Ratio (z) = 0.25455 0.18682
#
# Static dielectric constant tensor:
#      x y z
#    x 1.946580 0.000000 0.056960 
#    y 0.000000 2.066180 0.000000 
#    z 0.056960 0.000000 1.981580 
# 
# From -- ./inp_files/60744.got.cif
#   From: 2010.05.17/outbox.cif.g08.bks.cpg/sg15_31_cif.got.tgz:60744.got - 2010.06.03 18:47:42.
