data_PCOD9303353
_publ_section_title
;
Structure prediction by ZEFSAII (Michael W. Deem and Ramdas Pophale) SiO2 
 PCOD9303353
Probable space group: C 2/C
;
_chemical_formula_sum "Si O2"
_cell_formula_units_Z 40
_cell_length_a 24.326741
_cell_length_b 16.404158
_cell_length_c 9.412509
_cell_angle_alpha 90.000000
_cell_angle_beta 28.406277
_cell_angle_gamma 90.000000
_cell_volume 1786.879289
_symmetry_space_group_name_H-M "C 2/C"
_symmetry_group_IT_number 15
_symmetry_cell_setting 'monoclinic'
loop_
_space_group_symop_operation_xyz
x,y,z
-x,y,1/2-z
-x,-y,-z
x,-y,1/2+z
1/2+x,1/2+y,z
1/2-x,1/2+y,1/2-z
1/2-x,1/2-y,-z
1/2+x,1/2-y,1/2+z
loop_
_atom_site_type_symbol
_atom_site_label
_atom_site_fract_x
_atom_site_fract_y
_atom_site_fract_z
Si Si1 0.151508 0.734516 0.100448
Si Si2 0.937538 0.333532 0.256529
Si Si3 0.708693 0.308468 0.464238
Si Si4 0.296788 0.409857 0.631358
Si Si5 0.373133 0.520987 0.233626
O O1 0.036064 0.690760 0.420083
O O2 0.250000 0.750000 0.000000
O O3 0.194463 0.678380 0.873228
O O4 0.139853 0.824316 0.052496
O O5 0.885224 0.244391 0.406993
O O6 0.821601 0.388159 0.514585
O O7 0.000000 0.369160 0.250000
O O8 0.750000 0.250000 0.500000
O O9 0.657068 0.389715 0.641419
O O10 0.287005 0.456401 0.503703
O O11 0.362919 0.470059 0.587951
O O12 0.500000 0.500000 0.000000
#
# Coordination Sequence:
#
# PCOD9303353 Si02
#       5
#     8   8   8   8   8
#     4  11  22  44  79 103 144 195 255 309 379 460
#     4  11  22  43  73 103 143 194 246 313 366 452
#     4  11  23  45  72 109 147 185 263 307 371 459
#     4  11  26  46  69 113 149 189 262 306 387 458
#     4  12  26  47  72 105 153 194 242 322 388 451
#
# _framework density 22.385397000000001
#
# number of rings (size 3 to 8) (size 9 to 14) (size 15 to 20)
#    0.000    0.800    8.000    1.800    2.800    2.400 
#    0.000    4.000    0.000    0.000    0.000    0.000 
#    0.000    0.000    0.000    0.000    0.000    0.000 
#
# Total GULP energy -111474.692838 kJ/mol
# GULP energy per Si atom -5573.734642 kJ/mol
# Density = 2.233445 g / cm^3
# Si number density = 22.385397 Si / 1000 Ang^3
#
#
#
# Elastic Constant Matrix: (Units=GPa)
#
#
# Indices 1 2 3 4 5 6 
#
# 1 89.6684 22.2614 46.1105 0.0000 7.0864 0.0000
# 2 22.2614 71.9863 25.5694 0.0000 -1.3368 0.0000
# 3 46.1105 25.5694 192.1242 0.0000 13.3680 0.0000
# 4 0.0000 0.0000 0.0000 43.6894 0.0000 8.3872
# 5 7.0864 -1.3368 13.3680 0.0000 36.1250 0.0000
# 6 0.0000 0.0000 0.0000 8.3872 0.0000 32.6415
#
#
#
# Elastic Compliance Matrix: (Units=1/GPa)
#
#
# Indices 1 2 3 4 5 6 
#
# 1 0.013476 -0.003249 -0.002679 0.000000 -0.001773 0.000000
# 2 -0.003249 0.015423 -0.001393 0.000000 0.001723 0.000000
# 3 -0.002679 -0.001393 0.006159 0.000000 -0.001805 0.000000
# 4 0.000000 0.000000 0.000000 0.024076 0.000000 -0.006186
# 5 -0.001773 0.001723 -0.001805 0.000000 0.028761 0.000000
# 6 0.000000 0.000000 0.000000 -0.006186 0.000000 0.032225
#
#
# Mechanical properties :
#
#
# Convention : Reuss Voigt Hill
#
# Bulk Modulus (GPa) = 48.97783 60.18460 54.58121
# Shear Modulus (GPa) = 35.31877 39.81366 37.56622
#
# Velocity S-wave (km/s) = 3.97641 4.22187 4.10098
# Velocity P-wave (km/s) = 6.55815 7.12106 6.84540
#
# Compressibility (1/GPa) = 0.02041740
#
# Stress axis : x y z
#
# Youngs Moduli (GPa) = 74.20416 64.83835 162.36895
#
# Poissons Ratio (x) = 0.21066 0.43493
# Poissons Ratio (y) = 0.24109 0.22614
# Poissons Ratio (z) = 0.19877 0.09030
#
# Static dielectric constant tensor:
#      x y z
#    x 32.504460 0.000000 -7.196830 
#    y 0.000000 1.824060 0.000000 
#    z -7.196830 0.000000 3.923160 
# 
# From -- ./inp_files/62857.got.cif
#   From: 2010.05.17/outbox.cif.g08.bks.cpg/sg15_32_cif.got.tgz:62857.got - 2010.06.03 18:47:42.
