data_PCOD9303264
_publ_section_title
;
Structure prediction by ZEFSAII (Michael W. Deem and Ramdas Pophale) SiO2 
 PCOD9303264
Probable space group: C 2/C
;
_chemical_formula_sum "Si O2"
_cell_formula_units_Z 64
_cell_length_a 17.532896
_cell_length_b 9.825724
_cell_length_c 28.059944
_cell_angle_alpha 90.000000
_cell_angle_beta 139.591445
_cell_angle_gamma 90.000000
_cell_volume 3133.549478
_symmetry_space_group_name_H-M "C 2/C"
_symmetry_group_IT_number 15
_symmetry_cell_setting 'monoclinic'
loop_
_space_group_symop_operation_xyz
x,y,z
-x,y,1/2-z
-x,-y,-z
x,-y,1/2+z
1/2+x,1/2+y,z
1/2-x,1/2+y,1/2-z
1/2-x,1/2-y,-z
1/2+x,1/2-y,1/2+z
loop_
_atom_site_type_symbol
_atom_site_label
_atom_site_fract_x
_atom_site_fract_y
_atom_site_fract_z
Si Si1 0.383191 0.366895 0.721724
Si Si2 0.812744 0.039227 0.461599
Si Si3 0.870766 0.609229 0.209541
Si Si4 0.272906 0.130467 0.833267
Si Si5 0.149034 0.513019 0.966420
Si Si6 0.073973 0.373820 0.189472
Si Si7 0.184543 0.267506 0.563065
Si Si8 0.552888 0.196167 0.495992
O O1 0.500000 0.412616 0.750000
O O2 0.302931 0.494484 0.696846
O O3 0.418395 0.273503 0.782865
O O4 0.305415 0.272868 0.649548
O O5 0.715141 0.072099 0.375004
O O6 0.915022 0.149009 0.502660
O O7 0.752730 0.051673 0.484690
O O8 0.847077 0.882330 0.470643
O O9 0.814755 0.740962 0.207911
O O10 0.880515 0.485784 0.251375
O O11 0.000000 0.637148 0.250000
O O12 0.349032 0.124921 0.821688
O O13 0.360755 0.150754 0.919909
O O14 0.058184 0.585313 0.887497
O O15 0.193727 0.626628 0.024308
O O16 0.080200 0.400548 0.964456
O O17 0.079041 0.313511 0.547637
#
# Coordination Sequence:
#
# PCOD9303264 Si02
#       8
#     8   8   8   8   8   8   8   8
#     4  12  25  44  67  99 134 171 218 278 332 387
#     4  11  24  41  66  98 134 172 224 274 330 389
#     4  11  22  43  65  92 133 176 218 275 333 391
#     4  11  24  43  66  98 133 173 220 273 331 392
#     4  12  23  43  70  96 131 181 219 267 330 401
#     4  12  23  43  68  97 129 176 227 263 331 401
#     4  12  23  45  68  95 136 175 215 276 335 385
#     4  11  24  44  67  98 135 175 218 272 330 399
#
# _framework density 20.424122000000001
#
# number of rings (size 3 to 8) (size 9 to 14) (size 15 to 20)
#    0.000    0.500    5.000    4.500    0.000    0.000 
#    0.000    2.500    0.000    0.000    0.000    0.000 
#    0.000    0.000    0.000    0.000    0.000    0.000 
#
# Total GULP energy -179155.855450 kJ/mol
# GULP energy per Si atom -5598.620483 kJ/mol
# Density = 2.037764 g / cm^3
# Si number density = 20.424122 Si / 1000 Ang^3
#
#
#
# Elastic Constant Matrix: (Units=GPa)
#
#
# Indices 1 2 3 4 5 6 
#
# 1 106.1640 6.5788 8.0275 0.0000 -1.2772 0.0000
# 2 6.5788 39.8479 -9.4847 0.0000 -3.0122 0.0000
# 3 8.0275 -9.4847 31.9977 0.0000 -7.6887 0.0000
# 4 0.0000 0.0000 0.0000 27.4614 0.0000 -3.0120
# 5 -1.2772 -3.0122 -7.6887 0.0000 24.8130 0.0000
# 6 0.0000 0.0000 0.0000 -3.0120 0.0000 34.7744
#
#
#
# Elastic Compliance Matrix: (Units=1/GPa)
#
#
# Indices 1 2 3 4 5 6 
#
# 1 0.009822 -0.002498 -0.003410 0.000000 -0.000854 0.000000
# 2 -0.002498 0.028555 0.010689 0.000000 0.006650 0.000000
# 3 -0.003410 0.010689 0.038405 0.000000 0.013023 0.000000
# 4 0.000000 0.000000 0.000000 0.036764 0.000000 0.003184
# 5 -0.000854 0.006650 0.013023 0.000000 0.045100 0.000000
# 6 0.000000 0.000000 0.000000 0.003184 0.000000 0.029033
#
#
# Mechanical properties :
#
#
# Convention : Reuss Voigt Hill
#
# Bulk Modulus (GPa) = 11.58158 20.91700 16.24929
# Shear Modulus (GPa) = 24.16662 28.93562 26.55112
#
# Velocity S-wave (km/s) = 3.44356 3.76804 3.60945
# Velocity P-wave (km/s) = 4.63612 5.40318 5.03428
#
# Compressibility (1/GPa) = 0.08634400
#
# Stress axis : x y z
#
# Youngs Moduli (GPa) = 101.81529 35.02060 26.03818
#
# Poissons Ratio (x) = 0.08747 0.08878
# Poissons Ratio (y) = 0.25430 -0.27831
# Poissons Ratio (z) = 0.34716 -0.37432
#
# Static dielectric constant tensor:
#      x y z
#    x 1.695030 0.000000 -0.008210 
#    y 0.000000 1.723290 0.000000 
#    z -0.008210 0.000000 1.700390 
# 
# From -- ./inp_files/315714.got.cif
#   From: 2010.05.17/outbox.cif.g08.bks.cpg/sg15_158_cif.got.tgz:315714.got - 2010.06.03 18:47:42.
