data_PCOD9303029
_publ_section_title
;
Structure prediction by ZEFSAII (Michael W. Deem and Ramdas Pophale) SiO2 
 PCOD9303029
Probable space group: C 2/C
;
_chemical_formula_sum "Si O2"
_cell_formula_units_Z 40
_cell_length_a 17.934516
_cell_length_b 17.421314
_cell_length_c 12.630238
_cell_angle_alpha 90.000000
_cell_angle_beta 26.730761
_cell_angle_gamma 90.000000
_cell_volume 1775.007416
_symmetry_space_group_name_H-M "C 2/C"
_symmetry_group_IT_number 15
_symmetry_cell_setting 'monoclinic'
loop_
_space_group_symop_operation_xyz
x,y,z
-x,y,1/2-z
-x,-y,-z
x,-y,1/2+z
1/2+x,1/2+y,z
1/2-x,1/2+y,1/2-z
1/2-x,1/2-y,-z
1/2+x,1/2-y,1/2+z
loop_
_atom_site_type_symbol
_atom_site_label
_atom_site_fract_x
_atom_site_fract_y
_atom_site_fract_z
Si Si1 0.888393 0.687453 0.787088
Si Si2 0.655135 0.403495 0.971221
Si Si3 0.642464 0.569113 0.992485
Si Si4 0.686986 0.167408 0.045092
Si Si5 0.479623 0.683009 0.518736
O O1 0.792635 0.614132 0.858791
O O2 0.000000 0.670842 0.750000
O O3 0.990777 0.731787 0.563958
O O4 0.750000 0.750000 0.000000
O O5 0.684404 0.487875 0.884385
O O6 0.799975 0.387880 0.870785
O O7 0.500000 0.389909 0.250000
O O8 0.622780 0.342740 0.918645
O O9 0.534930 0.630396 0.064892
O O10 0.500000 0.538305 0.250000
O O11 0.500000 0.171856 0.250000
O O12 0.750000 0.250000 0.000000
O O13 0.810373 0.155027 0.790954
#
# Coordination Sequence:
#
# PCOD9303029 Si02
#       5
#     8   8   8   8   8
#     4  12  23  40  64  99 131 172 215 267 321 392
#     4   9  22  42  67  96 130 173 216 270 328 387
#     4  11  22  42  67  99 135 169 216 266 330 394
#     4  11  25  43  65  93 128 170 222 273 320 379
#     4  11  22  41  68  94 130 174 218 263 327 392
#
# _framework density 22.535117
#
# number of rings (size 3 to 8) (size 9 to 14) (size 15 to 20)
#    0.000    1.200    4.000    2.400    5.600    0.800 
#    0.000    1.000    0.000    0.000    0.000    0.000 
#    0.000    0.000    0.000    0.000    0.000    0.000 
#
# Total GULP energy -111463.695825 kJ/mol
# GULP energy per Si atom -5573.184791 kJ/mol
# Density = 2.248383 g / cm^3
# Si number density = 22.535117 Si / 1000 Ang^3
#
#
#
# Elastic Constant Matrix: (Units=GPa)
#
#
# Indices 1 2 3 4 5 6 
#
# 1 128.6266 20.6076 29.2207 0.0004 -25.1279 -0.0006
# 2 20.6076 64.4334 1.9868 0.0003 -3.2479 0.0000
# 3 29.2207 1.9868 44.8253 0.0016 -17.7065 -0.0004
# 4 0.0004 0.0003 0.0016 5.1733 -0.0002 1.6408
# 5 -25.1279 -3.2479 -17.7065 -0.0002 30.3509 0.0003
# 6 -0.0006 0.0000 -0.0004 1.6408 0.0003 -22.9717
#
#
#
# Elastic Compliance Matrix: (Units=1/GPa)
#
#
# Indices 1 2 3 4 5 6 
#
# 1 0.010343 -0.002886 -0.004358 0.000001 0.005711 0.000000
# 2 -0.002886 0.016409 0.001174 -0.000001 0.000052 0.000000
# 3 -0.004358 0.001174 0.030826 -0.000008 0.014501 -0.000001
# 4 0.000001 -0.000001 -0.000008 0.189018 -0.000003 0.013501
# 5 0.005711 0.000052 0.014501 -0.000003 0.046142 0.000000
# 6 0.000000 0.000000 -0.000001 0.013501 0.000000 -0.042567
#
#
# Mechanical properties :
#
#
# Convention : Reuss Voigt Hill
#
# Bulk Modulus (GPa) = 22.00757 37.94615 29.97686
# Shear Modulus (GPa) = 18.02091 14.91518 16.46805
#
# Velocity S-wave (km/s) = 2.83093 2.57546 2.70621
# Velocity P-wave (km/s) = 4.52467 5.07141 4.80582
#
# Compressibility (1/GPa) = 0.04543891
#
# Stress axis : x y z
#
# Youngs Moduli (GPa) = 96.68786 60.94141 32.44029
#
# Poissons Ratio (x) = 0.17585 0.14138
# Poissons Ratio (y) = 0.27900 -0.03810
# Poissons Ratio (z) = 0.42138 -0.07156
#
# Static dielectric constant tensor:
#      x y z
#    x 1.050530 0.000040 -0.800260 
#    y 0.000040 1.810570 0.000040 
#    z -0.800260 0.000040 1.055160 
# 
# From -- ./inp_files/106831.got.cif
#   From: 2010.05.17/outbox.cif.g08.bks.cpg/sg15_54_cif.got.tgz:106831.got - 2010.06.03 18:47:42.
