data_PCOD9303587
_publ_section_title
;
Structure prediction by ZEFSAII (Michael W. Deem and Ramdas Pophale) SiO2 
 PCOD9303587
Probable space group: C 2/C
;
_chemical_formula_sum "Si O2"
_cell_formula_units_Z 48
_cell_length_a 29.137278
_cell_length_b 5.000314
_cell_length_c 13.500988
_cell_angle_alpha 90.000000
_cell_angle_beta 61.975876
_cell_angle_gamma 90.000000
_cell_volume 1736.398719
_symmetry_space_group_name_H-M "C 2/C"
_symmetry_group_IT_number 15
_symmetry_cell_setting 'monoclinic'
loop_
_space_group_symop_operation_xyz
x,y,z
-x,y,1/2-z
-x,-y,-z
x,-y,1/2+z
1/2+x,1/2+y,z
1/2-x,1/2+y,1/2-z
1/2-x,1/2-y,-z
1/2+x,1/2-y,1/2+z
loop_
_atom_site_type_symbol
_atom_site_label
_atom_site_fract_x
_atom_site_fract_y
_atom_site_fract_z
Si Si1 0.856507 0.856298 0.905274
Si Si2 0.049536 0.203607 0.629015
Si Si3 0.726080 0.399989 0.148407
Si Si4 0.631844 0.993208 0.781036
Si Si5 0.682853 0.376491 0.880988
Si Si6 0.454793 0.811196 0.500976
O O1 0.881997 0.642728 0.806045
O O2 0.899474 0.090683 0.867946
O O3 0.802339 0.916179 0.902795
O O4 0.839295 0.867296 0.038286
O O5 0.061830 0.494257 0.572267
O O6 0.000000 0.219927 0.750000
O O7 0.036251 0.978660 0.557311
O O8 0.724080 0.546644 0.255675
O O9 0.684910 0.161272 0.204723
O O10 0.784643 0.301760 0.073543
O O11 0.641577 0.211486 0.858553
O O12 0.587913 0.800380 0.869126
O O13 0.500000 0.000000 0.500000
#
# Coordination Sequence:
#
# PCOD9303587 Si02
#       6
#     8   8   8   8   8   8
#     4  11  26  42  69 104 137 187 244 295 361 432
#     4  12  27  48  75 109 148 187 241 305 363 436
#     4  11  24  41  70  96 143 186 244 291 363 429
#     4  11  25  43  71 101 142 191 235 298 359 437
#     4  11  22  46  63 102 141 188 237 296 360 422
#     4  12  27  48  78 106 148 193 238 303 368 433
#
# _framework density 27.643421
#
# number of rings (size 3 to 8) (size 9 to 14) (size 15 to 20)
#    0.000    0.667    3.333    3.500    7.000    2.000 
#    0.000    0.000    0.000    0.000    0.000    0.000 
#    0.000    0.000    0.000    0.000    0.000    0.000 
#
# Total GULP energy -134410.329210 kJ/mol
# GULP energy per Si atom -5600.430384 kJ/mol
# Density = 2.758050 g / cm^3
# Si number density = 27.643421 Si / 1000 Ang^3
#
#
#
# Elastic Constant Matrix: (Units=GPa)
#
#
# Indices 1 2 3 4 5 6 
#
# 1 104.7900 -10.8506 8.8530 0.0000 16.6200 0.0000
# 2 -10.8506 88.5668 9.3715 0.0000 9.7123 0.0000
# 3 8.8530 9.3715 117.3445 0.0000 2.3537 0.0000
# 4 0.0000 0.0000 0.0000 47.7825 0.0000 13.2558
# 5 16.6200 9.7123 2.3537 0.0000 43.1466 0.0000
# 6 0.0000 0.0000 0.0000 13.2558 0.0000 50.1021
#
#
#
# Elastic Compliance Matrix: (Units=1/GPa)
#
#
# Indices 1 2 3 4 5 6 
#
# 1 0.010509 0.001863 -0.000853 0.000000 -0.004421 0.000000
# 2 0.001863 0.011997 -0.001031 0.000000 -0.003362 0.000000
# 3 -0.000853 -0.001031 0.008667 0.000000 0.000088 0.000000
# 4 0.000000 0.000000 0.000000 0.022586 0.000000 -0.005976
# 5 -0.004421 -0.003362 0.000088 0.000000 0.025632 0.000000
# 6 0.000000 0.000000 0.000000 -0.005976 0.000000 0.021540
#
#
# Mechanical properties :
#
#
# Convention : Reuss Voigt Hill
#
# Bulk Modulus (GPa) = 32.12390 36.16102 34.14246
# Shear Modulus (GPa) = 44.90336 48.42804 46.66570
#
# Velocity S-wave (km/s) = 4.03473 4.19009 4.11314
# Velocity P-wave (km/s) = 5.77507 6.04308 5.91059
#
# Compressibility (1/GPa) = 0.03112947
#
# Stress axis : x y z
#
# Youngs Moduli (GPa) = 95.15695 83.35519 115.38206
#
# Poissons Ratio (x) = -0.15525 0.09841
# Poissons Ratio (y) = -0.17723 0.11898
# Poissons Ratio (z) = 0.08116 0.08596
#
# Static dielectric constant tensor:
#      x y z
#    x 2.230540 0.000000 0.060250 
#    y 0.000000 2.196700 0.000000 
#    z 0.060250 0.000000 2.109660 
# 
# From -- ./inp_files/180012.got.cif
#   From: 2010.05.17/outbox.cif.g08.bks.cpg/sg15_91_cif.got.tgz:180012.got - 2010.06.03 18:47:42.
