data_PCOD9303999
_publ_section_title
;
Structure prediction by ZEFSAII (Michael W. Deem and Ramdas Pophale) SiO2 
 PCOD9303999
Probable space group: C 2/C
;
_chemical_formula_sum "Si O2"
_cell_formula_units_Z 60
_cell_length_a 17.039804
_cell_length_b 26.923678
_cell_length_c 11.350435
_cell_angle_alpha 90.000000
_cell_angle_beta 32.332071
_cell_angle_gamma 90.000000
_cell_volume 2784.989169
_symmetry_space_group_name_H-M "C 2/C"
_symmetry_group_IT_number 15
_symmetry_cell_setting 'monoclinic'
loop_
_space_group_symop_operation_xyz
x,y,z
-x,y,1/2-z
-x,-y,-z
x,-y,1/2+z
1/2+x,1/2+y,z
1/2-x,1/2+y,1/2-z
1/2-x,1/2-y,-z
1/2+x,1/2-y,1/2+z
loop_
_atom_site_type_symbol
_atom_site_label
_atom_site_fract_x
_atom_site_fract_y
_atom_site_fract_z
Si Si1 0.481232 0.351355 0.143625
Si Si2 0.324300 0.580316 0.487255
Si Si3 0.843665 0.517951 0.247167
Si Si4 0.626562 0.791759 0.993108
Si Si5 0.806980 0.356130 0.138186
Si Si6 0.751161 0.898160 0.815884
Si Si7 0.500000 0.930251 0.750000
Si Si8 0.077922 0.250192 0.433153
O O1 0.500000 0.372373 0.250000
O O2 0.317539 0.352598 0.303609
O O3 0.583778 0.381390 0.924244
O O4 0.543721 0.295204 0.062773
O O5 0.500000 0.582637 0.250000
O O6 0.270327 0.527403 0.605585
O O7 0.266020 0.623127 0.649149
O O8 0.249587 0.586171 0.453880
O O9 0.792345 0.560424 0.222617
O O10 0.878161 0.537863 0.335089
O O11 0.000000 0.500000 0.000000
O O12 0.500000 0.788605 0.250000
O O13 0.565871 0.760314 0.960964
O O14 0.650948 0.849202 0.929103
O O15 0.786050 0.769325 0.819220
O O16 0.876715 0.302298 0.068898
O O17 0.925599 0.395453 0.942197
#
# Coordination Sequence:
#
# PCOD9303999 Si02
#       8
#     8   8   8   8   8   8   4   8
#     4  11  25  47  70 101 145 190 239 299 358 438
#     4  12  27  48  78 105 144 190 241 308 364 432
#     4  12  26  47  72 106 144 184 244 299 371 435
#     4  11  23  41  69 104 141 193 234 296 360 427
#     4  12  25  47  72 107 148 189 245 294 366 433
#     4  11  26  47  71 105 144 184 244 300 365 429
#     4  12  26  46  72 106 144 194 232 304 366 438
#     4  11  24  43  67 106 144 187 243 295 356 427
#
# _framework density 21.544069
#
# number of rings (size 3 to 8) (size 9 to 14) (size 15 to 20)
#    0.000    0.533    4.000    3.600    2.800    5.333 
#    0.000    0.000    0.000    0.000    0.000    0.000 
#    0.000    0.000    0.000    0.000    0.000    0.000 
#
# Total GULP energy -167874.752670 kJ/mol
# GULP energy per Si atom -5595.825089 kJ/mol
# Density = 2.149503 g / cm^3
# Si number density = 21.544069 Si / 1000 Ang^3
#
#
#
# Elastic Constant Matrix: (Units=GPa)
#
#
# Indices 1 2 3 4 5 6 
#
# 1 78.1000 18.0104 -4.4453 0.0000 6.4576 0.0000
# 2 18.0104 80.0384 -0.4690 0.0000 -4.6118 0.0000
# 3 -4.4453 -0.4690 58.8756 0.0003 -3.2024 -0.0001
# 4 0.0000 0.0000 0.0003 18.8117 -0.0001 -4.8019
# 5 6.4576 -4.6118 -3.2024 -0.0001 34.7868 0.0001
# 6 0.0000 0.0000 -0.0001 -4.8019 0.0001 29.3029
#
#
#
# Elastic Compliance Matrix: (Units=1/GPa)
#
#
# Indices 1 2 3 4 5 6 
#
# 1 0.013852 -0.003281 0.000861 0.000000 -0.002927 0.000000
# 2 -0.003281 0.013369 -0.000012 0.000000 0.002380 0.000000
# 3 0.000861 -0.000012 0.017127 0.000000 0.001415 0.000000
# 4 0.000000 0.000000 0.000000 0.055479 0.000000 0.009092
# 5 -0.002927 0.002380 0.001415 0.000000 0.029736 0.000000
# 6 0.000000 0.000000 0.000000 0.009092 0.000000 0.035616
#
#
# Mechanical properties :
#
#
# Convention : Reuss Voigt Hill
#
# Bulk Modulus (GPa) = 25.32657 27.02291 26.17474
# Shear Modulus (GPa) = 27.29203 30.17480 28.73342
#
# Velocity S-wave (km/s) = 3.56307 3.74653 3.65595
# Velocity P-wave (km/s) = 5.35804 5.59336 5.47696
#
# Compressibility (1/GPa) = 0.03948423
#
# Stress axis : x y z
#
# Youngs Moduli (GPa) = 72.19373 74.79835 58.38791
#
# Poissons Ratio (x) = 0.24538 -0.05024
# Poissons Ratio (y) = 0.23683 0.00068
# Poissons Ratio (z) = -0.06212 0.00088
#
# Static dielectric constant tensor:
#      x y z
#    x 1.789430 0.000000 0.000710 
#    y 0.000000 1.755890 0.000000 
#    z 0.000710 0.000000 1.772190 
# 
# From -- ./inp_files/108428.got.cif
#   From: 2010.05.17/outbox.cif.g08.bks.cpg/sg15_55_cif.got.tgz:108428.got - 2010.06.03 18:47:42.
