data_PCOD9303001
_publ_section_title
;
Structure prediction by ZEFSAII (Michael W. Deem and Ramdas Pophale) SiO2 
 PCOD9303001
Probable space group: C 2/C
;
_chemical_formula_sum "Si O2"
_cell_formula_units_Z 44
_cell_length_a 7.716184
_cell_length_b 24.527852
_cell_length_c 15.060881
_cell_angle_alpha 90.000000
_cell_angle_beta 44.209106
_cell_angle_gamma 90.000000
_cell_volume 1987.554633
_symmetry_space_group_name_H-M "C 2/C"
_symmetry_group_IT_number 15
_symmetry_cell_setting 'monoclinic'
loop_
_space_group_symop_operation_xyz
x,y,z
-x,y,1/2-z
-x,-y,-z
x,-y,1/2+z
1/2+x,1/2+y,z
1/2-x,1/2+y,1/2-z
1/2-x,1/2-y,-z
1/2+x,1/2-y,1/2+z
loop_
_atom_site_type_symbol
_atom_site_label
_atom_site_fract_x
_atom_site_fract_y
_atom_site_fract_z
Si Si1 0.660051 0.394048 0.777022
Si Si2 0.642486 0.220274 0.310127
Si Si3 0.937881 0.477399 0.925196
Si Si4 0.098014 0.765559 0.949972
Si Si5 0.490532 0.391944 0.471879
Si Si6 0.500000 0.064094 0.750000
O O1 0.500000 0.379375 0.750000
O O2 0.848556 0.343456 0.717851
O O3 0.817273 0.446329 0.696685
O O4 0.512049 0.405238 0.921351
O O5 0.875155 0.240693 0.166411
O O6 0.383107 0.246752 0.373514
O O7 0.609998 0.228983 0.426783
O O8 0.917530 0.526030 0.862135
O O9 0.712789 0.433132 0.997654
O O10 0.000000 0.500000 0.000000
O O11 0.059538 0.827098 0.001004
O O12 0.752160 0.400686 0.326612
#
# Coordination Sequence:
#
# PCOD9303001 Si02
#       6
#     8   8   8   8   8   4
#     4  11  22  41  67  94 129 176 220 262 332 401
#     4   9  18  37  63  95 121 170 213 266 325 392
#     4  12  25  42  68  94 126 172 221 275 330 388
#     4   9  18  38  66  89 127 167 214 266 328 390
#     4  11  23  46  64  93 132 172 217 269 332 392
#     4  12  26  42  64  92 134 168 218 276 318 392
#
# _framework density 22.137754999999999
#
# number of rings (size 3 to 8) (size 9 to 14) (size 15 to 20)
#    0.000    1.455    3.636    1.636    2.545    0.000 
#    8.182    3.636    0.000    0.000    0.000    0.000 
#    0.000    0.000    0.000    0.000    0.000    0.000 
#
# Total GULP energy -122552.622312 kJ/mol
# GULP energy per Si atom -5570.573741 kJ/mol
# Density = 2.208737 g / cm^3
# Si number density = 22.137755 Si / 1000 Ang^3
#
#
#
# Elastic Constant Matrix: (Units=GPa)
#
#
# Indices 1 2 3 4 5 6 
#
# 1 76.7220 2.0296 23.1622 0.0000 -1.8796 0.0000
# 2 2.0296 59.3269 68.2806 0.0000 0.8119 0.0000
# 3 23.1622 68.2806 150.4931 0.0000 1.1138 0.0000
# 4 0.0000 0.0000 0.0000 19.3338 0.0000 26.2493
# 5 -1.8796 0.8119 1.1138 0.0000 27.9429 0.0000
# 6 0.0000 0.0000 0.0000 26.2493 0.0000 -2.1913
#
#
#
# Elastic Compliance Matrix: (Units=1/GPa)
#
#
# Indices 1 2 3 4 5 6 
#
# 1 0.014188 0.004233 -0.004112 0.000000 0.000995 0.000000
# 2 0.004233 0.036544 -0.017231 0.000000 -0.000090 0.000000
# 3 -0.004112 -0.017231 0.015099 0.000000 -0.000378 0.000000
# 4 0.000000 0.000000 0.000000 0.002996 0.000000 0.035889
# 5 0.000995 -0.000090 -0.000378 0.000000 0.035872 0.000000
# 6 0.000000 0.000000 0.000000 0.035889 0.000000 -0.026434
#
#
# Mechanical properties :
#
#
# Convention : Reuss Voigt Hill
#
# Bulk Modulus (GPa) = 31.63481 52.60963 42.12222
# Shear Modulus (GPa) = 40.64355 21.88838 31.26596
#
# Velocity S-wave (km/s) = 4.28943 3.14783 3.76218
# Velocity P-wave (km/s) = 6.23324 6.08506 6.15960
#
# Compressibility (1/GPa) = 0.03161074
#
# Stress axis : x y z
#
# Youngs Moduli (GPa) = 70.48324 27.36420 66.23164
#
# Poissons Ratio (x) = -0.11584 0.27232
# Poissons Ratio (y) = -0.29837 1.14126
# Poissons Ratio (z) = 0.28980 0.47152
#
# Static dielectric constant tensor:
#      x y z
#    x 1.309300 0.000000 -0.289330 
#    y 0.000000 1.876200 0.000000 
#    z -0.289330 0.000000 1.687190 
# 
# From -- ./inp_files/79036.got.cif
#   From: 2010.05.17/outbox.cif.g08.bks.cpg/sg15_40_cif.got.tgz:79036.got - 2010.06.03 18:47:42.
