data_PCOD9303879
_publ_section_title
;
Structure prediction by ZEFSAII (Michael W. Deem and Ramdas Pophale) SiO2 
 PCOD9303879
Probable space group: C 2/C
;
_chemical_formula_sum "Si O2"
_cell_formula_units_Z 52
_cell_length_a 16.207664
_cell_length_b 11.568609
_cell_length_c 14.156950
_cell_angle_alpha 90.000000
_cell_angle_beta 61.576635
_cell_angle_gamma 90.000000
_cell_volume 2334.450460
_symmetry_space_group_name_H-M "C 2/C"
_symmetry_group_IT_number 15
_symmetry_cell_setting 'monoclinic'
loop_
_space_group_symop_operation_xyz
x,y,z
-x,y,1/2-z
-x,-y,-z
x,-y,1/2+z
1/2+x,1/2+y,z
1/2-x,1/2+y,1/2-z
1/2-x,1/2-y,-z
1/2+x,1/2-y,1/2+z
loop_
_atom_site_type_symbol
_atom_site_label
_atom_site_fract_x
_atom_site_fract_y
_atom_site_fract_z
Si Si1 0.110474 0.907699 0.664663
Si Si2 0.635773 0.152714 0.116916
Si Si3 0.661341 0.690869 0.435613
Si Si4 0.668858 0.817677 0.236573
Si Si5 0.360277 0.438731 0.073074
Si Si6 0.908377 0.140794 0.737182
Si Si7 0.000000 0.543206 0.750000
O O1 0.165909 0.797564 0.674297
O O2 0.119891 0.913866 0.546719
O O3 0.000000 0.891193 0.750000
O O4 0.147032 0.026901 0.694256
O O5 0.747771 0.138349 0.058109
O O6 0.622836 0.231556 0.216953
O O7 0.571703 0.040855 0.155548
O O8 0.610682 0.232725 0.041798
O O9 0.681684 0.774280 0.336601
O O10 0.616707 0.573511 0.422042
O O11 0.753557 0.900906 0.158000
O O12 0.568719 0.880220 0.276881
O O13 0.418489 0.370374 0.120376
O O14 0.000000 0.126787 0.750000
#
# Coordination Sequence:
#
# PCOD9303879 Si02
#       7
#     8   8   8   8   8   8   4
#     4  11  25  44  68 105 143 183 240 300 359 437
#     4  11  23  45  69 102 139 187 243 294 354 434
#     4  11  24  43  73  99 140 190 243 295 353 434
#     4  12  25  46  70 107 148 189 238 298 376 438
#     4  12  24  44  74 103 143 194 237 303 365 426
#     4  11  23  40  69 102 135 180 242 295 349 424
#     4  12  26  46  68 102 156 188 236 310 364 432
#
# _framework density 22.27505
#
# number of rings (size 3 to 8) (size 9 to 14) (size 15 to 20)
#    0.000    0.615    7.692    0.462    0.000    4.308 
#    0.000    1.538    0.000    0.000    0.000    0.000 
#    0.000    0.000    0.000    0.000    0.000    0.000 
#
# Total GULP energy -145225.649929 kJ/mol
# GULP energy per Si atom -5585.601920 kJ/mol
# Density = 2.222435 g / cm^3
# Si number density = 22.275050 Si / 1000 Ang^3
#
#
#
# Elastic Constant Matrix: (Units=GPa)
#
#
# Indices 1 2 3 4 5 6 
#
# 1 96.4775 15.3363 21.3489 0.0000 2.9253 0.0000
# 2 15.3363 87.1467 22.0034 0.0000 0.1119 0.0000
# 3 21.3489 22.0034 127.8490 0.0000 18.7732 0.0000
# 4 0.0000 0.0000 0.0000 25.8989 0.0000 3.2758
# 5 2.9253 0.1119 18.7732 0.0000 26.9387 0.0000
# 6 0.0000 0.0000 0.0000 3.2758 0.0000 25.5021
#
#
#
# Elastic Compliance Matrix: (Units=1/GPa)
#
#
# Indices 1 2 3 4 5 6 
#
# 1 0.010955 -0.001537 -0.001550 0.000000 -0.000103 0.000000
# 2 -0.001537 0.012270 -0.002086 0.000000 0.001569 0.000000
# 3 -0.001550 -0.002086 0.009373 0.000000 -0.006355 0.000000
# 4 0.000000 0.000000 0.000000 0.039249 0.000000 -0.005042
# 5 -0.000103 0.001569 -0.006355 0.000000 0.041554 0.000000
# 6 0.000000 0.000000 0.000000 -0.005042 0.000000 0.039860
#
#
# Mechanical properties :
#
#
# Convention : Reuss Voigt Hill
#
# Bulk Modulus (GPa) = 44.93548 47.65002 46.29275
# Shear Modulus (GPa) = 29.23572 32.52024 30.87798
#
# Velocity S-wave (km/s) = 3.62676 3.82506 3.72723
# Velocity P-wave (km/s) = 6.14448 6.39892 6.27299
#
# Compressibility (1/GPa) = 0.02225413
#
# Stress axis : x y z
#
# Youngs Moduli (GPa) = 91.27886 81.50047 106.69436
#
# Poissons Ratio (x) = 0.12523 0.16535
# Poissons Ratio (y) = 0.14025 0.22252
# Poissons Ratio (z) = 0.14146 0.16997
#
# Static dielectric constant tensor:
#      x y z
#    x 1.992610 0.000000 -0.073930 
#    y 0.000000 1.886190 0.000000 
#    z -0.073930 0.000000 1.817960 
# 
# From -- ./inp_files/152535.got.cif
#   From: 2010.05.17/outbox.cif.g08.bks.cpg/sg15_77_cif.got.tgz:152535.got - 2010.06.03 18:47:42.
