data_PCOD9303101
_publ_section_title
;
Structure prediction by ZEFSAII (Michael W. Deem and Ramdas Pophale) SiO2 
 PCOD9303101
Probable space group: C 2/C
;
_chemical_formula_sum "Si O2"
_cell_formula_units_Z 40
_cell_length_a 12.478125
_cell_length_b 9.353847
_cell_length_c 16.204607
_cell_angle_alpha 90.000000
_cell_angle_beta 127.083082
_cell_angle_gamma 90.000000
_cell_volume 1508.868686
_symmetry_space_group_name_H-M "C 2/C"
_symmetry_group_IT_number 15
_symmetry_cell_setting 'monoclinic'
loop_
_space_group_symop_operation_xyz
x,y,z
-x,y,1/2-z
-x,-y,-z
x,-y,1/2+z
1/2+x,1/2+y,z
1/2-x,1/2+y,1/2-z
1/2-x,1/2-y,-z
1/2+x,1/2-y,1/2+z
loop_
_atom_site_type_symbol
_atom_site_label
_atom_site_fract_x
_atom_site_fract_y
_atom_site_fract_z
Si Si1 0.808666 0.010789 0.660883
Si Si2 0.984074 0.166482 0.508458
Si Si3 0.417828 0.903684 0.842920
Si Si4 0.322429 0.833930 0.623306
Si Si5 0.521533 0.316180 0.844898
O O1 0.659974 0.002248 0.628493
O O2 0.832599 0.825397 0.971440
O O3 0.908083 0.938782 0.775118
O O4 0.837399 0.899074 0.599888
O O5 0.854933 0.168021 0.658631
O O6 0.000806 0.239172 0.426059
O O7 0.085194 0.245723 0.616685
O O8 0.000000 0.000000 0.500000
O O9 0.340202 0.908074 0.720544
O O10 0.574685 0.912932 0.890398
O O11 0.500000 0.224869 0.750000
#
# Coordination Sequence:
#
# PCOD9303101 Si02
#       5
#     8   8   8   8   8
#     4   9  19  40  65  87 125 176 209 260 345 377
#     4  12  23  39  65  97 128 174 226 260 329 413
#     4  11  23  38  70  96 123 180 217 271 333 386
#     4  11  22  42  63  93 138 165 215 284 327 380
#     4   8  18  39  61  86 131 170 199 269 332 378
#
# _framework density 26.509927999999999
#
# number of rings (size 3 to 8) (size 9 to 14) (size 15 to 20)
#    1.200    0.400    2.000    5.400    0.000    1.600 
#    0.000    2.000    4.400    0.000    0.000    0.000 
#    0.000    0.000    0.000    0.000    0.000    0.000 
#
# Total GULP energy -111690.363337 kJ/mol
# GULP energy per Si atom -5584.518167 kJ/mol
# Density = 2.644959 g / cm^3
# Si number density = 26.509928 Si / 1000 Ang^3
#
#
#
# Elastic Constant Matrix: (Units=GPa)
#
#
# Indices 1 2 3 4 5 6 
#
# 1 210.5651 37.4579 30.6884 0.0000 -19.2296 0.0000
# 2 37.4579 71.2410 5.2081 0.0000 2.8255 0.0000
# 3 30.6884 5.2081 81.5714 0.0000 -23.5309 0.0000
# 4 0.0000 0.0000 0.0000 11.4674 0.0000 -0.9245
# 5 -19.2296 2.8255 -23.5309 0.0000 43.6762 0.0000
# 6 0.0000 0.0000 0.0000 -0.9245 0.0000 35.1348
#
#
#
# Elastic Compliance Matrix: (Units=1/GPa)
#
#
# Indices 1 2 3 4 5 6 
#
# 1 0.005651 -0.002947 -0.001380 0.000000 0.001936 0.000000
# 2 -0.002947 0.015741 -0.000668 0.000000 -0.002676 0.000000
# 3 -0.001380 -0.000668 0.014987 0.000000 0.007510 0.000000
# 4 0.000000 0.000000 0.000000 0.087389 0.000000 0.002300
# 5 0.001936 -0.002676 0.007510 0.000000 0.027967 0.000000
# 6 0.000000 0.000000 0.000000 0.002300 0.000000 0.028522
#
#
# Mechanical properties :
#
#
# Convention : Reuss Voigt Hill
#
# Bulk Modulus (GPa) = 37.89302 56.67626 47.28464
# Shear Modulus (GPa) = 25.11988 37.39056 31.25522
#
# Velocity S-wave (km/s) = 3.08159 3.75965 3.43738
# Velocity P-wave (km/s) = 5.19486 6.34605 5.79909
#
# Compressibility (1/GPa) = 0.02639009
#
# Stress axis : x y z
#
# Youngs Moduli (GPa) = 176.95219 63.52639 66.72273
#
# Poissons Ratio (x) = 0.18723 0.09205
# Poissons Ratio (y) = 0.52153 0.04458
# Poissons Ratio (z) = 0.24412 0.04245
#
# Static dielectric constant tensor:
#      x y z
#    x 2.130610 0.000000 -0.047550 
#    y 0.000000 2.084170 0.000000 
#    z -0.047550 0.000000 2.137190 
# 
# From -- ./inp_files/144801.got.cif
#   From: 2010.05.17/outbox.cif.g08.bks.cpg/sg15_73_cif.got.tgz:144801.got - 2010.06.03 18:47:42.
