data_PCOD9303015
_publ_section_title
;
Structure prediction by ZEFSAII (Michael W. Deem and Ramdas Pophale) SiO2 
 PCOD9303015
Probable space group: C 2/C
;
_chemical_formula_sum "Si O2"
_cell_formula_units_Z 48
_cell_length_a 10.788215
_cell_length_b 24.101971
_cell_length_c 13.548419
_cell_angle_alpha 90.000000
_cell_angle_beta 141.914517
_cell_angle_gamma 90.000000
_cell_volume 2173.005447
_symmetry_space_group_name_H-M "C 2/C"
_symmetry_group_IT_number 15
_symmetry_cell_setting 'monoclinic'
loop_
_space_group_symop_operation_xyz
x,y,z
-x,y,1/2-z
-x,-y,-z
x,-y,1/2+z
1/2+x,1/2+y,z
1/2-x,1/2+y,1/2-z
1/2-x,1/2-y,-z
1/2+x,1/2-y,1/2+z
loop_
_atom_site_type_symbol
_atom_site_label
_atom_site_fract_x
_atom_site_fract_y
_atom_site_fract_z
Si Si1 0.367323 0.414928 0.762687
Si Si2 0.201109 0.377612 0.936625
Si Si3 0.932107 0.597856 0.928080
Si Si4 0.876839 0.297181 0.269799
Si Si5 0.085082 0.808929 0.571505
Si Si6 0.537097 0.531778 0.654984
O O1 0.500000 0.402158 0.750000
O O2 0.355245 0.359906 0.820058
O O3 0.463689 0.467858 0.878737
O O4 0.142737 0.430886 0.586279
O O5 0.293460 0.320685 0.952648
O O6 0.000000 0.389726 0.750000
O O7 0.154322 0.377563 0.023207
O O8 0.363866 0.425518 0.017097
O O9 0.972623 0.648271 0.878979
O O10 0.756082 0.558759 0.776346
O O11 0.871385 0.248016 0.345681
O O12 0.000000 0.279924 0.250000
O O13 0.650596 0.311504 0.097846
O O14 0.500000 0.526382 0.750000
#
# Coordination Sequence:
#
# PCOD9303015 Si02
#       6
#     8   8   8   8   8   8
#     4  11  22  41  67  99 136 181 226 271 339 403
#     4  11  23  45  67  99 138 178 227 278 340 392
#     4  11  22  44  69  98 139 177 221 282 336 401
#     4  12  26  46  70 100 138 177 226 284 338 401
#     4  12  25  44  67  99 137 180 228 280 336 404
#     4   9  21  41  68  99 135 177 223 280 333 399
#
# _framework density 22.089223
#
# number of rings (size 3 to 8) (size 9 to 14) (size 15 to 20)
#    0.000    1.000    3.333    3.500    0.000    1.333 
#    0.000    0.833    0.000    0.000    0.000    0.000 
#    0.000    0.000    0.000    0.000    0.000    0.000 
#
# Total GULP energy -134286.143057 kJ/mol
# GULP energy per Si atom -5595.255961 kJ/mol
# Density = 2.203895 g / cm^3
# Si number density = 22.089223 Si / 1000 Ang^3
#
#
#
# Elastic Constant Matrix: (Units=GPa)
#
#
# Indices 1 2 3 4 5 6 
#
# 1 88.3658 -8.5765 -7.6968 0.0000 7.3987 0.0000
# 2 -8.5765 75.4121 -2.4870 0.0000 0.5009 0.0000
# 3 -7.6968 -2.4870 90.9204 0.0000 28.2480 0.0000
# 4 0.0000 0.0000 0.0000 17.6775 0.0000 -5.8760
# 5 7.3987 0.5009 28.2480 0.0000 33.0347 0.0000
# 6 0.0000 0.0000 0.0000 -5.8760 0.0000 16.0675
#
#
#
# Elastic Compliance Matrix: (Units=1/GPa)
#
#
# Indices 1 2 3 4 5 6 
#
# 1 0.012104 0.001496 0.002608 0.000000 -0.004964 0.000000
# 2 0.001496 0.013469 0.000902 0.000000 -0.001311 0.000000
# 3 0.002608 0.000902 0.015565 0.000000 -0.013907 0.000000
# 4 0.000000 0.000000 0.000000 0.064397 0.000000 0.023551
# 5 -0.004964 -0.001311 -0.013907 0.000000 0.043295 0.000000
# 6 0.000000 0.000000 0.000000 0.023551 0.000000 0.070850
#
#
# Mechanical properties :
#
#
# Convention : Reuss Voigt Hill
#
# Bulk Modulus (GPa) = 19.55051 24.13087 21.84069
# Shear Modulus (GPa) = 22.05368 31.58651 26.82009
#
# Velocity S-wave (km/s) = 3.16316 3.78557 3.48828
# Velocity P-wave (km/s) = 4.71282 5.48228 5.11205
#
# Compressibility (1/GPa) = 0.05114957
#
# Stress axis : x y z
#
# Youngs Moduli (GPa) = 82.61405 74.24444 64.24706
#
# Poissons Ratio (x) = -0.11104 -0.16754
# Poissons Ratio (y) = -0.12356 -0.05797
# Poissons Ratio (z) = -0.21544 -0.06699
#
# Static dielectric constant tensor:
#      x y z
#    x 1.832730 0.000000 -0.036780 
#    y 0.000000 1.786780 0.000000 
#    z -0.036780 0.000000 1.808530 
# 
# From -- ./inp_files/148849.got.cif
#   From: 2010.05.17/outbox.cif.g08.bks.cpg/sg15_75_cif.got.tgz:148849.got - 2010.06.03 18:47:42.
