data_PCOD9303748
_publ_section_title
;
Structure prediction by ZEFSAII (Michael W. Deem and Ramdas Pophale) SiO2 
 PCOD9303748
Probable space group: C 2/C
;
_chemical_formula_sum "Si O2"
_cell_formula_units_Z 44
_cell_length_a 17.609605
_cell_length_b 11.794821
_cell_length_c 9.168072
_cell_angle_alpha 90.000000
_cell_angle_beta 94.968061
_cell_angle_gamma 90.000000
_cell_volume 1897.074221
_symmetry_space_group_name_H-M "C 2/C"
_symmetry_group_IT_number 15
_symmetry_cell_setting 'monoclinic'
loop_
_space_group_symop_operation_xyz
x,y,z
-x,y,1/2-z
-x,-y,-z
x,-y,1/2+z
1/2+x,1/2+y,z
1/2-x,1/2+y,1/2-z
1/2-x,1/2-y,-z
1/2+x,1/2-y,1/2+z
loop_
_atom_site_type_symbol
_atom_site_label
_atom_site_fract_x
_atom_site_fract_y
_atom_site_fract_z
Si Si1 0.132239 0.278874 0.713288
Si Si2 0.614362 0.942284 0.468413
Si Si3 0.000000 0.677223 0.750000
Si Si4 0.405226 0.208328 0.986951
Si Si5 0.295552 0.638309 0.314862
Si Si6 0.297186 0.413073 0.482209
O O1 0.088680 0.365862 0.601816
O O2 0.204737 0.348461 0.789092
O O3 0.167957 0.180033 0.620405
O O4 0.088693 0.240865 0.850562
O O5 0.568602 0.899289 0.321341
O O6 0.704348 0.915016 0.464646
O O7 0.596351 0.072621 0.496497
O O8 0.030381 0.745500 0.616730
O O9 0.328770 0.249368 0.893100
O O10 0.318788 0.535638 0.423794
O O11 0.320680 0.614574 0.152282
#
# Coordination Sequence:
#
# PCOD9303748 Si02
#       6
#     8   8   4   8   8   8
#     4  11  23  38  66  95 133 174 221 278 338 386
#     4  11  24  42  64  99 140 175 219 272 329 404
#     4  12  26  42  64  94 144 184 226 262 320 402
#     4  12  24  41  64  94 133 181 221 267 332 390
#     4  11  23  39  68  95 137 170 218 280 339 391
#     4  11  23  41  66 102 133 170 220 279 341 396
#
# _framework density 23.19361
#
# number of rings (size 3 to 8) (size 9 to 14) (size 15 to 20)
#    0.000    0.727    1.818    7.636    7.636    0.727 
#    0.000    0.000    0.000    9.818    0.000    1.273 
#    0.000    0.000    0.000    0.000    0.000    0.000 
#
# Total GULP energy -123146.731898 kJ/mol
# GULP energy per Si atom -5597.578723 kJ/mol
# Density = 2.314082 g / cm^3
# Si number density = 23.193610 Si / 1000 Ang^3
#
#
#
# Elastic Constant Matrix: (Units=GPa)
#
#
# Indices 1 2 3 4 5 6 
#
# 1 42.4902 -1.9382 42.1699 0.0000 -15.4476 0.0000
# 2 -1.9382 51.1902 20.0628 0.0000 -3.1584 0.0000
# 3 42.1699 20.0628 171.3448 0.0000 -32.5554 0.0000
# 4 0.0000 0.0000 0.0000 41.0450 0.0000 -5.8062
# 5 -15.4476 -3.1584 -32.5554 0.0000 54.9582 0.0000
# 6 0.0000 0.0000 0.0000 -5.8062 0.0000 5.6383
#
#
#
# Elastic Compliance Matrix: (Units=1/GPa)
#
#
# Indices 1 2 3 4 5 6 
#
# 1 0.033291 0.004620 -0.007782 0.000000 0.005013 0.000000
# 2 0.004620 0.021119 -0.003530 0.000000 0.000421 0.000000
# 3 -0.007782 -0.003530 0.008688 0.000000 0.002757 0.000000
# 4 0.000000 0.000000 0.000000 0.028518 0.000000 0.029367
# 5 0.005013 0.000421 0.002757 0.000000 0.021262 0.000000
# 6 0.000000 0.000000 0.000000 0.029367 0.000000 0.207598
#
#
# Mechanical properties :
#
#
# Convention : Reuss Voigt Hill
#
# Bulk Modulus (GPa) = 20.11451 42.84601 31.48026
# Shear Modulus (GPa) = 14.26809 33.97704 24.12256
#
# Velocity S-wave (km/s) = 2.48296 3.83159 3.22848
# Velocity P-wave (km/s) = 4.11234 6.17156 5.24402
#
# Compressibility (1/GPa) = 0.04971537
#
# Stress axis : x y z
#
# Youngs Moduli (GPa) = 30.03792 47.34998 115.09580
#
# Poissons Ratio (x) = -0.21874 0.89565
# Poissons Ratio (y) = -0.13877 0.40626
# Poissons Ratio (z) = 0.23375 0.16714
#
# Static dielectric constant tensor:
#      x y z
#    x 1.935330 0.000000 -0.068530 
#    y 0.000000 1.843080 0.000000 
#    z -0.068530 0.000000 1.895640 
# 
# From -- ./inp_files/54466.got.cif
#   From: 2010.05.17/outbox.cif.g08.bks.cpg/sg15_28_cif.got.tgz:54466.got - 2010.06.03 18:47:42.
