data_PCOD9303082
_publ_section_title
;
Structure prediction by ZEFSAII (Michael W. Deem and Ramdas Pophale) SiO2 
 PCOD9303082
Probable space group: C 2/C
;
_chemical_formula_sum "Si O2"
_cell_formula_units_Z 48
_cell_length_a 12.287297
_cell_length_b 13.554546
_cell_length_c 27.505582
_cell_angle_alpha 90.000000
_cell_angle_beta 29.999185
_cell_angle_gamma 90.000000
_cell_volume 2290.453476
_symmetry_space_group_name_H-M "C 2/C"
_symmetry_group_IT_number 15
_symmetry_cell_setting 'monoclinic'
loop_
_space_group_symop_operation_xyz
x,y,z
-x,y,1/2-z
-x,-y,-z
x,-y,1/2+z
1/2+x,1/2+y,z
1/2-x,1/2+y,1/2-z
1/2-x,1/2-y,-z
1/2+x,1/2-y,1/2+z
loop_
_atom_site_type_symbol
_atom_site_label
_atom_site_fract_x
_atom_site_fract_y
_atom_site_fract_z
Si Si1 0.627258 0.616190 0.251070
Si Si2 0.397281 0.365988 0.557164
Si Si3 0.000666 0.748979 0.890978
Si Si4 0.922500 0.709841 0.394476
Si Si5 0.260912 0.423752 0.146341
Si Si6 0.337219 0.607075 0.728729
O O1 0.500000 0.637907 0.250000
O O2 0.533981 0.677161 0.332856
O O3 0.610940 0.499031 0.268761
O O4 0.877822 0.654924 0.155767
O O5 0.381809 0.286541 0.605617
O O6 0.207917 0.362146 0.590549
O O7 0.625863 0.358246 0.439385
O O8 0.364058 0.469841 0.596169
O O9 0.102290 0.644123 0.837584
O O10 0.750000 0.750000 0.000000
O O11 0.750000 0.750000 0.500000
O O12 0.004896 0.798394 0.327070
O O13 0.334646 0.396855 0.171485
O O14 0.000000 0.423454 0.250000
#
# Coordination Sequence:
#
# PCOD9303082 Si02
#       6
#     8   8   8   8   8   8
#     4  11  27  47  68 102 140 183 228 282 352 428
#     4  11  24  42  69 105 135 178 241 288 339 415
#     4  11  26  43  70 103 141 178 235 290 346 411
#     4  11  25  45  71 100 138 180 228 284 346 412
#     4  11  22  41  72  98 137 182 227 291 345 402
#     4  11  24  44  68 100 137 185 226 277 356 408
#
# _framework density 20.95655
#
# number of rings (size 3 to 8) (size 9 to 14) (size 15 to 20)
#    0.000    1.000    3.333    2.000    7.000    5.333 
#    0.000    1.667    0.000    0.000    0.000    0.000 
#    0.000    0.000    0.000    0.000    0.000    0.000 
#
# Total GULP energy -134034.304479 kJ/mol
# GULP energy per Si atom -5584.762687 kJ/mol
# Density = 2.090885 g / cm^3
# Si number density = 20.956550 Si / 1000 Ang^3
#
#
#
# Elastic Constant Matrix: (Units=GPa)
#
#
# Indices 1 2 3 4 5 6 
#
# 1 101.8933 9.8079 40.4795 0.0002 14.5114 -0.0002
# 2 9.8079 57.5907 18.9791 0.0002 5.2564 -0.0003
# 3 40.4795 18.9791 139.7186 0.0025 2.5579 0.0000
# 4 0.0002 0.0002 0.0025 26.7181 -0.0016 6.5937
# 5 14.5114 5.2564 2.5579 -0.0016 32.4138 -0.0004
# 6 -0.0002 -0.0003 0.0000 6.5937 -0.0004 28.5604
#
#
#
# Elastic Compliance Matrix: (Units=1/GPa)
#
#
# Indices 1 2 3 4 5 6 
#
# 1 0.011874 -0.000486 -0.003283 0.000000 -0.004978 0.000000
# 2 -0.000486 0.018447 -0.002318 0.000000 -0.002591 0.000000
# 3 -0.003283 -0.002318 0.008402 -0.000001 0.001183 0.000000
# 4 0.000000 0.000000 -0.000001 0.039689 0.000002 -0.009163
# 5 -0.004978 -0.002591 0.001183 0.000002 0.033407 0.000000
# 6 0.000000 0.000000 0.000000 -0.009163 0.000000 0.037129
#
#
# Mechanical properties :
#
#
# Convention : Reuss Voigt Hill
#
# Bulk Modulus (GPa) = 37.66538 48.63730 43.15134
# Shear Modulus (GPa) = 29.41686 32.86751 31.14218
#
# Velocity S-wave (km/s) = 3.75067 3.96455 3.85910
# Velocity P-wave (km/s) = 6.06373 6.64951 6.36336
#
# Compressibility (1/GPa) = 0.02654958
#
# Stress axis : x y z
#
# Youngs Moduli (GPa) = 84.21610 54.20960 119.02516
#
# Poissons Ratio (x) = 0.02634 0.39077
# Poissons Ratio (y) = 0.04092 0.27585
# Poissons Ratio (z) = 0.27649 0.12563
#
# Static dielectric constant tensor:
#      x y z
#    x 1.757620 0.000000 -0.027040 
#    y 0.000000 1.927990 0.000000 
#    z -0.027040 0.000000 1.779980 
# 
# From -- ./inp_files/292988.got.cif
#   From: 2010.05.17/outbox.cif.g08.bks.cpg/sg15_147_cif.got.tgz:292988.got - 2010.06.03 18:47:42.
