data_PCOD9303967
_publ_section_title
;
Structure prediction by ZEFSAII (Michael W. Deem and Ramdas Pophale) SiO2 
 PCOD9303967
Probable space group: C 2/C
;
_chemical_formula_sum "Si O2"
_cell_formula_units_Z 52
_cell_length_a 11.525426
_cell_length_b 8.086939
_cell_length_c 29.431055
_cell_angle_alpha 90.000000
_cell_angle_beta 122.500153
_cell_angle_gamma 90.000000
_cell_volume 2313.531607
_symmetry_space_group_name_H-M "C 2/C"
_symmetry_group_IT_number 15
_symmetry_cell_setting 'monoclinic'
loop_
_space_group_symop_operation_xyz
x,y,z
-x,y,1/2-z
-x,-y,-z
x,-y,1/2+z
1/2+x,1/2+y,z
1/2-x,1/2+y,1/2-z
1/2-x,1/2-y,-z
1/2+x,1/2-y,1/2+z
loop_
_atom_site_type_symbol
_atom_site_label
_atom_site_fract_x
_atom_site_fract_y
_atom_site_fract_z
Si Si1 0.595300 0.146406 0.376972
Si Si2 0.484963 0.477228 0.843715
Si Si3 0.412773 0.848150 0.921409
Si Si4 0.879462 0.129581 0.487883
Si Si5 0.500000 0.687743 0.250000
Si Si6 0.289736 0.395492 0.544559
Si Si7 0.281097 0.080053 0.669027
O O1 0.541351 0.333156 0.357743
O O2 0.489870 0.078339 0.393608
O O3 0.754114 0.148846 0.427287
O O4 0.609974 0.027155 0.336801
O O5 0.504080 0.415148 0.796993
O O6 0.569000 0.367584 0.898058
O O7 0.327058 0.473144 0.825627
O O8 0.313750 0.935618 0.936186
O O9 0.316647 0.695005 0.883744
O O10 0.535183 0.786327 0.979107
O O11 0.813369 0.054252 0.519061
O O12 0.000000 0.000000 0.500000
O O13 0.635112 0.800650 0.280382
O O14 0.250000 0.250000 0.500000
#
# Coordination Sequence:
#
# PCOD9303967 Si02
#       7
#     8   8   8   8   4   8   8
#     4  11  24  45  70 105 150 187 229 295 363 423
#     4  11  27  49  73 106 147 182 241 303 356 428
#     4  11  23  41  67 106 148 181 235 285 350 433
#     4  12  21  42  67 102 152 184 223 283 343 431
#     4  12  28  50  76 104 134 186 254 302 356 432
#     4  12  22  40  72 104 144 193 226 282 361 423
#     4  11  24  49  74 100 137 188 239 299 363 414
#
# _framework density 22.476458000000001
#
# number of rings (size 3 to 8) (size 9 to 14) (size 15 to 20)
#    0.000    0.615    7.692    0.462    0.000    4.923 
#    2.769    0.000    0.000    0.000    0.000    0.000 
#    0.000    0.000    0.000    0.000    0.000    0.000 
#
# Total GULP energy -145281.322259 kJ/mol
# GULP energy per Si atom -5587.743164 kJ/mol
# Density = 2.242530 g / cm^3
# Si number density = 22.476458 Si / 1000 Ang^3
#
#
#
# Elastic Constant Matrix: (Units=GPa)
#
#
# Indices 1 2 3 4 5 6 
#
# 1 145.9897 33.2894 14.5048 0.0000 0.3048 0.0000
# 2 33.2894 39.3785 24.2854 0.0000 -5.2423 0.0000
# 3 14.5048 24.2854 100.3553 0.0000 -3.9556 0.0000
# 4 0.0000 0.0000 0.0000 32.6477 0.0000 1.1733
# 5 0.3048 -5.2423 -3.9556 0.0000 26.0564 0.0000
# 6 0.0000 0.0000 0.0000 1.1733 0.0000 47.7774
#
#
#
# Elastic Compliance Matrix: (Units=1/GPa)
#
#
# Indices 1 2 3 4 5 6 
#
# 1 0.008580 -0.007829 0.000592 0.000000 -0.001586 0.000000
# 2 -0.007829 0.037639 -0.007721 0.000000 0.006492 0.000000
# 3 0.000592 -0.007721 0.011756 0.000000 0.000224 0.000000
# 4 0.000000 0.000000 0.000000 0.030657 0.000000 -0.000753
# 5 -0.001586 0.006492 0.000224 0.000000 0.039737 0.000000
# 6 0.000000 0.000000 0.000000 -0.000753 0.000000 0.020949
#
#
# Mechanical properties :
#
#
# Convention : Reuss Voigt Hill
#
# Bulk Modulus (GPa) = 35.63941 47.76472 41.70207
# Shear Modulus (GPa) = 26.51302 35.53923 31.02613
#
# Velocity S-wave (km/s) = 3.43824 3.98071 3.71938
# Velocity P-wave (km/s) = 5.62608 6.51347 6.08597
#
# Compressibility (1/GPa) = 0.02805882
#
# Stress axis : x y z
#
# Youngs Moduli (GPa) = 116.55679 26.56826 85.06088
#
# Poissons Ratio (x) = 0.20800 -0.05036
# Poissons Ratio (y) = 0.91253 0.65675
# Poissons Ratio (z) = -0.06901 0.20513
#
# Static dielectric constant tensor:
#      x y z
#    x 1.845520 0.000000 -0.011500 
#    y 0.000000 1.877480 0.000000 
#    z -0.011500 0.000000 1.826450 
# 
# From -- ./inp_files/310079.got.cif
#   From: 2010.05.17/outbox.cif.g08.bks.cpg/sg15_156_cif.got.tgz:310079.got - 2010.06.03 18:47:42.
