data_PCOD9303590
_publ_section_title
;
Structure prediction by ZEFSAII (Michael W. Deem and Ramdas Pophale) SiO2 
 PCOD9303590
Probable space group: C 2/C
;
_chemical_formula_sum "Si O2"
_cell_formula_units_Z 48
_cell_length_a 16.819239
_cell_length_b 27.383399
_cell_length_c 9.029616
_cell_angle_alpha 90.000000
_cell_angle_beta 146.346214
_cell_angle_gamma 90.000000
_cell_volume 2304.668684
_symmetry_space_group_name_H-M "C 2/C"
_symmetry_group_IT_number 15
_symmetry_cell_setting 'monoclinic'
loop_
_space_group_symop_operation_xyz
x,y,z
-x,y,1/2-z
-x,-y,-z
x,-y,1/2+z
1/2+x,1/2+y,z
1/2-x,1/2+y,1/2-z
1/2-x,1/2-y,-z
1/2+x,1/2-y,1/2+z
loop_
_atom_site_type_symbol
_atom_site_label
_atom_site_fract_x
_atom_site_fract_y
_atom_site_fract_z
Si Si1 0.124615 0.196812 0.555404
Si Si2 0.334654 0.473843 0.025416
Si Si3 0.664323 0.196770 0.177501
Si Si4 0.835973 0.548566 0.538766
Si Si5 0.338678 0.838987 0.142356
Si Si6 0.378809 0.369381 0.186929
O O1 0.171066 0.245503 0.713622
O O2 0.248901 0.174637 0.646874
O O3 0.072079 0.155251 0.585600
O O4 0.000000 0.212385 0.250000
O O5 0.237547 0.514502 0.952183
O O6 0.261123 0.456360 0.758880
O O7 0.500000 0.489056 0.250000
O O8 0.339519 0.426151 0.138673
O O9 0.749113 0.163158 0.423040
O O10 0.719935 0.188015 0.095672
O O11 0.500631 0.178687 0.920153
O O12 0.837701 0.603906 0.600903
O O13 0.000000 0.535074 0.750000
O O14 0.500000 0.367131 0.250000
#
# Coordination Sequence:
#
# PCOD9303590 Si02
#       6
#     8   8   8   8   8   8
#     4  12  26  39  70 101 130 181 228 269 329 415
#     4  11  26  45  70 100 136 177 229 284 342 406
#     4  11  22  46  65  96 136 181 218 274 334 395
#     4  12  24  47  72 100 134 183 222 286 346 402
#     4  11  23  42  71  95 136 172 224 271 334 397
#     4  11  25  45  66  97 138 175 220 283 337 393
#
# _framework density 20.827286999999998
#
# number of rings (size 3 to 8) (size 9 to 14) (size 15 to 20)
#    0.000    0.667    5.000    3.000    7.000    1.333 
#    0.000    0.000    0.000    0.000    0.000    0.000 
#    0.000    0.000    0.000    0.000    0.000    0.000 
#
# Total GULP energy -134277.879758 kJ/mol
# GULP energy per Si atom -5594.911657 kJ/mol
# Density = 2.077988 g / cm^3
# Si number density = 20.827287 Si / 1000 Ang^3
#
#
#
# Elastic Constant Matrix: (Units=GPa)
#
#
# Indices 1 2 3 4 5 6 
#
# 1 80.8836 58.5809 16.0549 0.0000 21.5206 0.0000
# 2 58.5809 123.8429 14.1254 0.0000 7.0129 0.0000
# 3 16.0549 14.1254 74.5326 0.0000 18.1044 0.0000
# 4 0.0000 0.0000 0.0000 17.1110 0.0000 11.5143
# 5 21.5206 7.0129 18.1044 0.0000 26.7158 0.0000
# 6 0.0000 0.0000 0.0000 11.5143 0.0000 31.7257
#
#
#
# Elastic Compliance Matrix: (Units=1/GPa)
#
#
# Indices 1 2 3 4 5 6 
#
# 1 0.024708 -0.010800 0.001042 0.000000 -0.017774 0.000000
# 2 -0.010800 0.013013 -0.001704 0.000000 0.006438 0.000000
# 3 0.001042 -0.001704 0.016293 0.000000 -0.011433 0.000000
# 4 0.000000 0.000000 0.000000 0.077327 0.000000 -0.028065
# 5 -0.017774 0.006438 -0.011433 0.000000 0.057806 0.000000
# 6 0.000000 0.000000 0.000000 -0.028065 0.000000 0.041706
#
#
# Mechanical properties :
#
#
# Convention : Reuss Voigt Hill
#
# Bulk Modulus (GPa) = 32.16447 50.75348 41.45897
# Shear Modulus (GPa) = 18.92945 27.81037 23.36991
#
# Velocity S-wave (km/s) = 3.01803 3.65812 3.35338
# Velocity P-wave (km/s) = 5.25563 6.50108 5.91125
#
# Compressibility (1/GPa) = 0.03109021
#
# Stress axis : x y z
#
# Youngs Moduli (GPa) = 40.47345 76.84616 61.37779
#
# Poissons Ratio (x) = 0.82991 -0.06395
# Poissons Ratio (y) = 0.43710 0.10457
# Poissons Ratio (z) = -0.04217 0.13093
#
# Static dielectric constant tensor:
#      x y z
#    x 1.725140 0.000000 0.004180 
#    y 0.000000 1.737730 0.000000 
#    z 0.004180 0.000000 1.747430 
# 
# From -- ./inp_files/43919.got.cif
#   From: 2010.05.17/outbox.cif.g08.bks.cpg/sg15_22_cif.got.tgz:43919.got - 2010.06.03 18:47:42.
