data_PCOD9303484
_publ_section_title
;
Structure prediction by ZEFSAII (Michael W. Deem and Ramdas Pophale) SiO2 
 PCOD9303484
Probable space group: C 2/C
;
_chemical_formula_sum "Si O2"
_cell_formula_units_Z 40
_cell_length_a 28.934702
_cell_length_b 7.505374
_cell_length_c 13.627241
_cell_angle_alpha 90.000000
_cell_angle_beta 32.798802
_cell_angle_gamma 90.000000
_cell_volume 1603.063095
_symmetry_space_group_name_H-M "C 2/C"
_symmetry_group_IT_number 15
_symmetry_cell_setting 'monoclinic'
loop_
_space_group_symop_operation_xyz
x,y,z
-x,y,1/2-z
-x,-y,-z
x,-y,1/2+z
1/2+x,1/2+y,z
1/2-x,1/2+y,1/2-z
1/2-x,1/2-y,-z
1/2+x,1/2-y,1/2+z
loop_
_atom_site_type_symbol
_atom_site_label
_atom_site_fract_x
_atom_site_fract_y
_atom_site_fract_z
Si Si1 0.204517 0.469396 0.401467
Si Si2 0.119067 0.448051 0.238833
Si Si3 0.000000 0.956424 0.750000
Si Si4 0.565436 0.864609 0.009255
Si Si5 0.822632 0.933484 0.515915
Si Si6 0.750000 0.750000 0.000000
O O1 0.193911 0.584544 0.520848
O O2 0.121479 0.522625 0.485960
O O3 0.282978 0.506318 0.191554
O O4 0.204137 0.271535 0.443322
O O5 0.115014 0.615370 0.317689
O O6 0.151462 0.275258 0.237306
O O7 0.028652 0.440529 0.347178
O O8 0.046341 0.824858 0.590102
O O9 0.075241 0.064577 0.665095
O O10 0.787767 0.072447 0.499976
#
# Coordination Sequence:
#
# PCOD9303484 Si02
#       6
#     8   8   4   8   8   4
#     4  12  25  50  72 107 148 203 250 303 382 445
#     4  11  24  41  75 107 143 197 242 311 364 449
#     4  12  24  48  68 110 144 196 248 308 378 450
#     4  11  22  44  74 104 145 194 245 305 374 441
#     4  12  28  45  78 104 151 198 250 314 375 455
#     4  12  22  48  68 110 146 190 256 300 374 438
#
# _framework density 24.952231000000001
#
# number of rings (size 3 to 8) (size 9 to 14) (size 15 to 20)
#    0.000    0.400    6.000    2.400    2.800    0.800 
#    3.600    1.000    0.000    0.000    0.000    0.000 
#    0.000    0.000    0.000    0.000    0.000    0.000 
#
# Total GULP energy -111458.590902 kJ/mol
# GULP energy per Si atom -5572.929545 kJ/mol
# Density = 2.489544 g / cm^3
# Si number density = 24.952231 Si / 1000 Ang^3
#
#
#
# Elastic Constant Matrix: (Units=GPa)
#
#
# Indices 1 2 3 4 5 6 
#
# 1 142.0612 27.3193 51.7528 0.0000 -34.6674 0.0001
# 2 27.3193 132.0733 18.4207 0.0000 -17.9621 0.0001
# 3 51.7528 18.4207 117.8804 0.0000 -28.8142 0.0000
# 4 0.0000 0.0000 0.0000 33.7219 0.0000 15.2733
# 5 -34.6674 -17.9621 -28.8142 0.0000 39.9492 0.0000
# 6 0.0001 0.0001 0.0000 15.2733 0.0000 -91.2962
#
#
#
# Elastic Compliance Matrix: (Units=1/GPa)
#
#
# Indices 1 2 3 4 5 6 
#
# 1 0.009637 -0.000797 -0.002610 0.000000 0.006122 0.000000
# 2 -0.000797 0.008151 -0.000239 0.000000 0.002801 0.000000
# 3 -0.002610 -0.000239 0.011031 0.000000 0.005584 0.000000
# 4 0.000000 0.000000 0.000000 0.027566 0.000000 0.004612
# 5 0.006122 0.002801 0.005584 0.000000 0.035632 0.000000
# 6 0.000000 0.000000 0.000000 0.004612 0.000000 -0.010182
#
#
# Mechanical properties :
#
#
# Convention : Reuss Voigt Hill
#
# Bulk Modulus (GPa) = 46.45288 65.22228 55.83758
# Shear Modulus (GPa) = 51.91964 16.10977 34.01471
#
# Velocity S-wave (km/s) = 4.56649 2.54367 3.69615
# Velocity P-wave (km/s) = 6.81622 5.90107 6.37509
#
# Compressibility (1/GPa) = 0.02152719
#
# Stress axis : x y z
#
# Youngs Moduli (GPa) = 103.76327 122.68973 90.65037
#
# Poissons Ratio (x) = 0.09776 0.23660
# Poissons Ratio (y) = 0.08268 0.02169
# Poissons Ratio (z) = 0.27082 0.02935
#
# Static dielectric constant tensor:
#      x y z
#    x 2.049230 0.000000 0.032550 
#    y 0.000000 1.953960 0.000000 
#    z 0.032550 0.000000 2.084460 
# 
# From -- ./inp_files/181021.got.cif
#   From: 2010.05.17/outbox.cif.g08.bks.cpg/sg15_91_cif.got.tgz:181021.got - 2010.06.03 18:47:42.
