data_PCOD9303299
_publ_section_title
;
Structure prediction by ZEFSAII (Michael W. Deem and Ramdas Pophale) SiO2 
 PCOD9303299
Probable space group: C 2/C
;
_chemical_formula_sum "Si O2"
_cell_formula_units_Z 44
_cell_length_a 8.962428
_cell_length_b 13.544897
_cell_length_c 19.414273
_cell_angle_alpha 90.000000
_cell_angle_beta 123.698022
_cell_angle_gamma 90.000000
_cell_volume 1960.793667
_symmetry_space_group_name_H-M "C 2/C"
_symmetry_group_IT_number 15
_symmetry_cell_setting 'monoclinic'
loop_
_space_group_symop_operation_xyz
x,y,z
-x,y,1/2-z
-x,-y,-z
x,-y,1/2+z
1/2+x,1/2+y,z
1/2-x,1/2+y,1/2-z
1/2-x,1/2-y,-z
1/2+x,1/2-y,1/2+z
loop_
_atom_site_type_symbol
_atom_site_label
_atom_site_fract_x
_atom_site_fract_y
_atom_site_fract_z
Si Si1 0.000000 0.744358 0.250000
Si Si2 0.827565 0.560755 0.560891
Si Si3 0.897250 0.411944 0.836629
Si Si4 0.719328 0.440128 0.186963
Si Si5 0.125720 0.286187 0.183297
Si Si6 0.416687 0.417349 0.633480
O O1 0.962134 0.680814 0.309190
O O2 0.811196 0.797251 0.188610
O O3 0.726856 0.545213 0.607640
O O4 0.694392 0.584119 0.465497
O O5 0.943989 0.461869 0.578859
O O6 0.968635 0.649307 0.609696
O O7 0.849622 0.489893 0.764369
O O8 0.724808 0.403015 0.841304
O O9 0.803499 0.333629 0.226702
O O10 0.526283 0.479271 0.163481
O O11 0.057015 0.174034 0.169364
#
# Coordination Sequence:
#
# PCOD9303299 Si02
#       6
#     4   8   8   8   8   8
#     4  12  24  42  68  96 140 176 242 282 320 404
#     4  11  24  45  68 104 143 175 224 291 357 408
#     4  11  22  43  69 101 133 188 230 278 336 420
#     4  11  24  42  72  99 135 183 235 272 338 423
#     4  11  26  43  68 105 130 189 235 274 338 424
#     4  12  25  44  72 102 142 177 225 297 353 393
#
# _framework density 22.439895
#
# number of rings (size 3 to 8) (size 9 to 14) (size 15 to 20)
#    0.000    0.727    3.636    3.818   10.182    0.000 
#    0.000    0.909    0.000    0.000    0.000    0.000 
#    0.000    0.000    0.000    0.000    0.000    0.000 
#
# Total GULP energy -122917.891969 kJ/mol
# GULP energy per Si atom -5587.176908 kJ/mol
# Density = 2.238882 g / cm^3
# Si number density = 22.439895 Si / 1000 Ang^3
#
#
#
# Elastic Constant Matrix: (Units=GPa)
#
#
# Indices 1 2 3 4 5 6 
#
# 1 152.7134 25.4487 37.9130 0.0000 1.0882 0.0000
# 2 25.4487 53.9598 27.4631 0.0000 14.2016 0.0000
# 3 37.9130 27.4631 134.9598 0.0000 7.2817 0.0000
# 4 0.0000 0.0000 0.0000 25.9109 0.0000 9.5326
# 5 1.0882 14.2016 7.2817 0.0000 24.6639 0.0000
# 6 0.0000 0.0000 0.0000 9.5326 0.0000 45.7424
#
#
#
# Elastic Compliance Matrix: (Units=1/GPa)
#
#
# Indices 1 2 3 4 5 6 
#
# 1 0.007460 -0.003262 -0.001540 0.000000 0.002004 0.000000
# 2 -0.003262 0.025404 -0.003528 0.000000 -0.013442 0.000000
# 3 -0.001540 -0.003528 0.008584 0.000000 -0.000435 0.000000
# 4 0.000000 0.000000 0.000000 0.041798 0.000000 -0.008711
# 5 0.002004 -0.013442 -0.000435 0.000000 0.048325 0.000000
# 6 0.000000 0.000000 0.000000 -0.008711 0.000000 0.023677
#
#
# Mechanical properties :
#
#
# Convention : Reuss Voigt Hill
#
# Bulk Modulus (GPa) = 40.34195 58.14252 49.24223
# Shear Modulus (GPa) = 27.75157 35.98399 31.86778
#
# Velocity S-wave (km/s) = 3.52050 4.00881 3.77256
# Velocity P-wave (km/s) = 5.87725 6.88433 6.40062
#
# Compressibility (1/GPa) = 0.02478809
#
# Stress axis : x y z
#
# Youngs Moduli (GPa) = 134.05160 39.36380 116.50142
#
# Poissons Ratio (x) = 0.12840 0.17941
# Poissons Ratio (y) = 0.43725 0.41101
# Poissons Ratio (z) = 0.20644 0.13887
#
# Static dielectric constant tensor:
#      x y z
#    x 1.894320 0.000000 0.006590 
#    y 0.000000 1.900260 0.000000 
#    z 0.006590 0.000000 1.788910 
# 
# From -- ./inp_files/189162.got.cif
#   From: 2010.05.17/outbox.cif.g08.bks.cpg/sg15_95_cif.got.tgz:189162.got - 2010.06.03 18:47:42.
