data_PCOD9303154
_publ_section_title
;
Structure prediction by ZEFSAII (Michael W. Deem and Ramdas Pophale) SiO2 
 PCOD9303154
Probable space group: C 2/C
;
_chemical_formula_sum "Si O2"
_cell_formula_units_Z 40
_cell_length_a 11.720238
_cell_length_b 18.020706
_cell_length_c 9.654425
_cell_angle_alpha 90.000000
_cell_angle_beta 56.519313
_cell_angle_gamma 90.000000
_cell_volume 1700.740655
_symmetry_space_group_name_H-M "C 2/C"
_symmetry_group_IT_number 15
_symmetry_cell_setting 'monoclinic'
loop_
_space_group_symop_operation_xyz
x,y,z
-x,y,1/2-z
-x,-y,-z
x,-y,1/2+z
1/2+x,1/2+y,z
1/2-x,1/2+y,1/2-z
1/2-x,1/2-y,-z
1/2+x,1/2-y,1/2+z
loop_
_atom_site_type_symbol
_atom_site_label
_atom_site_fract_x
_atom_site_fract_y
_atom_site_fract_z
Si Si1 0.190580 0.374203 0.586236
Si Si2 0.519283 0.832557 0.971211
Si Si3 0.143791 0.039990 0.875282
Si Si4 0.503405 0.318174 0.095546
Si Si5 0.316357 0.963066 0.519783
O O1 0.113017 0.350599 0.776063
O O2 0.347505 0.355875 0.514942
O O3 0.147409 0.458329 0.575334
O O4 0.134727 0.333821 0.485708
O O5 0.534863 0.744869 0.991372
O O6 0.565981 0.900807 0.038475
O O7 0.103860 0.115278 0.826285
O O8 0.240595 0.989172 0.712721
O O9 0.208031 0.064076 0.978574
O O10 0.000000 0.000000 0.000000
O O11 0.500000 0.282512 0.250000
#
# Coordination Sequence:
#
# PCOD9303154 Si02
#       5
#     8   8   8   8   8
#     4  11  22  42  68  96 132 180 228 274 334 417
#     4  11  25  40  66 103 135 173 228 290 337 401
#     4  12  23  41  71  99 134 181 235 279 337 412
#     4  12  22  40  70  97 132 182 229 277 343 412
#     4  12  23  43  67 100 137 176 230 283 338 406
#
# _framework density 23.519165000000001
#
# number of rings (size 3 to 8) (size 9 to 14) (size 15 to 20)
#    0.000    0.400    8.000    1.800    0.000    0.800 
#    0.000    0.000    0.000    2.400    0.000    0.000 
#    0.000    0.000    0.000    0.000    0.000    0.000 
#
# Total GULP energy -111521.240111 kJ/mol
# GULP energy per Si atom -5576.062006 kJ/mol
# Density = 2.346563 g / cm^3
# Si number density = 23.519165 Si / 1000 Ang^3
#
#
#
# Elastic Constant Matrix: (Units=GPa)
#
#
# Indices 1 2 3 4 5 6 
#
# 1 98.6712 34.2279 24.9729 0.0000 3.4865 0.0000
# 2 34.2279 151.3023 10.8676 0.0000 0.0793 0.0000
# 3 24.9729 10.8676 77.9684 0.0000 -8.1259 0.0000
# 4 0.0000 0.0000 0.0000 7.3220 0.0000 -10.5559
# 5 3.4865 0.0793 -8.1259 0.0000 33.8597 0.0000
# 6 0.0000 0.0000 0.0000 -10.5559 0.0000 12.8063
#
#
#
# Elastic Compliance Matrix: (Units=1/GPa)
#
#
# Indices 1 2 3 4 5 6 
#
# 1 0.012001 -0.002446 -0.003724 0.000000 -0.002124 0.000000
# 2 -0.002446 0.007177 -0.000197 0.000000 0.000188 0.000000
# 3 -0.003724 -0.000197 0.014447 0.000000 0.003851 0.000000
# 4 0.000000 0.000000 0.000000 -0.725197 0.000000 -0.597761
# 5 -0.002124 0.000188 0.003851 0.000000 0.030676 0.000000
# 6 0.000000 0.000000 0.000000 -0.597761 0.000000 -0.414632
#
#
# Mechanical properties :
#
#
# Convention : Reuss Voigt Hill
#
# Bulk Modulus (GPa) = 47.87055 52.00873 49.93964
# Shear Modulus (GPa) = -4.73561 27.98917 11.62678
#
# Velocity S-wave (km/s) = -1.42052 3.45346 2.22582
# Velocity P-wave (km/s) = 4.20803 6.16954 5.28066
#
# Compressibility (1/GPa) = 0.02088967
#
# Stress axis : x y z
#
# Youngs Moduli (GPa) = 83.32753 139.33888 69.21658
#
# Poissons Ratio (x) = 0.34086 0.25777
# Poissons Ratio (y) = 0.20384 0.01365
# Poissons Ratio (z) = 0.31033 0.02748
#
# Static dielectric constant tensor:
#      x y z
#    x 1.994720 0.000000 -0.025230 
#    y 0.000000 2.028730 0.000000 
#    z -0.025230 0.000000 1.907640 
# 
# From -- ./inp_files/87072.got.cif
#   From: 2010.05.17/outbox.cif.g08.bks.cpg/sg15_44_cif.got.tgz:87072.got - 2010.06.03 18:47:42.
