data_PCOD9303727
_publ_section_title
;
Structure prediction by ZEFSAII (Michael W. Deem and Ramdas Pophale) SiO2 
 PCOD9303727
Probable space group: C 2/C
;
_chemical_formula_sum "Si O2"
_cell_formula_units_Z 40
_cell_length_a 14.265552
_cell_length_b 29.203672
_cell_length_c 8.481696
_cell_angle_alpha 90.000000
_cell_angle_beta 35.509540
_cell_angle_gamma 90.000000
_cell_volume 2052.410094
_symmetry_space_group_name_H-M "C 2/C"
_symmetry_group_IT_number 15
_symmetry_cell_setting 'monoclinic'
loop_
_space_group_symop_operation_xyz
x,y,z
-x,y,1/2-z
-x,-y,-z
x,-y,1/2+z
1/2+x,1/2+y,z
1/2-x,1/2+y,1/2-z
1/2-x,1/2-y,-z
1/2+x,1/2-y,1/2+z
loop_
_atom_site_type_symbol
_atom_site_label
_atom_site_fract_x
_atom_site_fract_y
_atom_site_fract_z
Si Si1 0.653328 0.294049 0.427699
Si Si2 0.327042 0.607887 0.477042
Si Si3 0.986928 0.449204 0.081020
Si Si4 0.981060 0.721760 0.090954
Si Si5 0.851243 0.362443 0.577871
O O1 0.500000 0.282424 0.750000
O O2 0.668144 0.348641 0.413683
O O3 0.833850 0.278080 0.227380
O O4 0.604662 0.269529 0.332420
O O5 0.500000 0.584755 0.250000
O O6 0.184900 0.573956 0.716950
O O7 0.293958 0.628948 0.346282
O O8 0.000000 0.454396 0.250000
O O9 0.000000 0.500000 0.000000
O O10 0.116663 0.408948 0.866335
O O11 0.000000 0.713141 0.250000
O O12 0.873512 0.682355 0.153688
O O13 0.000000 0.358378 0.250000
#
# Coordination Sequence:
#
# PCOD9303727 Si02
#       5
#     8   8   8   8   8
#     4  11  23  38  60  82 118 171 210 236 285 362
#     4   9  19  36  61  86 112 152 212 243 275 352
#     4   9  18  36  60  85 112 144 194 237 301 352
#     4  12  24  37  55  92 129 156 203 261 301 338
#     4   9  18  37  57  81 115 158 204 234 285 363
#
# _framework density 19.489281999999999
#
# number of rings (size 3 to 8) (size 9 to 14) (size 15 to 20)
#    0.000    2.400    4.000    1.800    5.600    0.800 
#    0.000    4.000    0.000    0.000    0.000    0.000 
#    0.000    0.000    0.000    0.000    0.000    0.000 
#
# Total GULP energy -111359.503673 kJ/mol
# GULP energy per Si atom -5567.975184 kJ/mol
# Density = 1.944492 g / cm^3
# Si number density = 19.489282 Si / 1000 Ang^3
#
#
#
# Elastic Constant Matrix: (Units=GPa)
#
#
# Indices 1 2 3 4 5 6 
#
# 1 76.2145 56.3800 25.9818 0.0000 -14.6229 0.0000
# 2 56.3800 130.6116 30.0752 0.0000 0.5956 0.0000
# 3 25.9818 30.0752 44.8758 0.0000 -18.9198 0.0000
# 4 0.0000 0.0000 0.0000 19.7879 0.0000 8.8233
# 5 -14.6229 0.5956 -18.9198 0.0000 34.9746 0.0000
# 6 0.0000 0.0000 0.0000 8.8233 0.0000 27.0431
#
#
#
# Elastic Compliance Matrix: (Units=1/GPa)
#
#
# Indices 1 2 3 4 5 6 
#
# 1 0.022382 -0.008781 -0.003971 0.000000 0.007359 0.000000
# 2 -0.008781 0.013067 -0.006885 0.000000 -0.007618 0.000000
# 3 -0.003971 -0.006885 0.036981 0.000000 0.018462 0.000000
# 4 0.000000 0.000000 0.000000 0.059140 0.000000 -0.019295
# 5 0.007359 -0.007618 0.018462 0.000000 0.041786 0.000000
# 6 0.000000 0.000000 0.000000 -0.019295 0.000000 0.043273
#
#
# Mechanical properties :
#
#
# Convention : Reuss Voigt Hill
#
# Bulk Modulus (GPa) = 30.16085 52.95287 41.55686
# Shear Modulus (GPa) = 18.72967 25.64545 22.18756
#
# Velocity S-wave (km/s) = 3.10340 3.63143 3.37775
# Velocity P-wave (km/s) = 5.32454 6.69420 6.04826
#
# Compressibility (1/GPa) = 0.03315556
#
# Stress axis : x y z
#
# Youngs Moduli (GPa) = 44.67834 76.53001 27.04072
#
# Poissons Ratio (x) = 0.67198 0.10739
# Poissons Ratio (y) = 0.39231 0.18619
# Poissons Ratio (z) = 0.17743 0.52694
#
# Static dielectric constant tensor:
#      x y z
#    x 1.731760 0.000000 -0.009070 
#    y 0.000000 1.729330 0.000000 
#    z -0.009070 0.000000 1.757730 
# 
# From -- ./inp_files/44728.got.cif
#   From: 2010.05.17/outbox.cif.g08.bks.cpg/sg15_23_cif.got.tgz:44728.got - 2010.06.03 18:47:42.
