data_PCOD9303336
_publ_section_title
;
Structure prediction by ZEFSAII (Michael W. Deem and Ramdas Pophale) SiO2 
 PCOD9303336
Probable space group: C 2/C
;
_chemical_formula_sum "Si O2"
_cell_formula_units_Z 32
_cell_length_a 18.916844
_cell_length_b 11.960189
_cell_length_c 13.201302
_cell_angle_alpha 90.000000
_cell_angle_beta 150.789742
_cell_angle_gamma 90.000000
_cell_volume 1457.597098
_symmetry_space_group_name_H-M "C 2/C"
_symmetry_group_IT_number 15
_symmetry_cell_setting 'monoclinic'
loop_
_space_group_symop_operation_xyz
x,y,z
-x,y,1/2-z
-x,-y,-z
x,-y,1/2+z
1/2+x,1/2+y,z
1/2-x,1/2+y,1/2-z
1/2-x,1/2-y,-z
1/2+x,1/2-y,1/2+z
loop_
_atom_site_type_symbol
_atom_site_label
_atom_site_fract_x
_atom_site_fract_y
_atom_site_fract_z
Si Si1 0.744944 0.215376 0.376950
Si Si2 0.204726 0.032984 0.541280
Si Si3 0.909677 0.313012 0.404981
Si Si4 0.441766 0.416030 0.840705
O O1 0.750000 0.250000 0.500000
O O2 0.820986 0.095117 0.460057
O O3 0.676347 0.537031 0.385909
O O4 0.177476 0.304522 0.098426
O O5 0.354653 0.084028 0.768463
O O6 0.083136 0.105013 0.447655
O O7 0.079646 0.306779 0.639244
O O8 0.120641 0.802765 0.691476
O O9 0.500000 0.500000 0.000000
#
# Coordination Sequence:
#
# PCOD9303336 Si02
#       4
#     8   8   8   8
#     4  12  26  43  71 103 141 183 234 289 352 416
#     4  11  25  42  70 102 137 186 231 291 348 413
#     4  12  24  46  67 102 142 178 238 287 349 419
#     4  11  22  43  71  99 137 185 230 279 354 423
#
# _framework density 21.953941
#
# number of rings (size 3 to 8) (size 9 to 14) (size 15 to 20)
#    0.000    0.500    5.000    3.750    3.500    0.000 
#    0.000    0.000    0.000    0.000    0.000    0.000 
#    0.000    0.000    0.000    0.000    0.000    0.000 
#
# Total GULP energy -89439.471022 kJ/mol
# GULP energy per Si atom -5589.966939 kJ/mol
# Density = 2.190397 g / cm^3
# Si number density = 21.953941 Si / 1000 Ang^3
#
#
#
# Elastic Constant Matrix: (Units=GPa)
#
#
# Indices 1 2 3 4 5 6 
#
# 1 107.7012 12.9514 19.7785 0.0000 -16.7029 0.0000
# 2 12.9514 54.3190 -25.2524 0.0000 -13.6066 0.0000
# 3 19.7785 -25.2524 70.6478 0.0000 -11.5411 0.0000
# 4 0.0000 0.0000 0.0000 34.3918 0.0000 -3.6380
# 5 -16.7029 -13.6066 -11.5411 0.0000 38.4514 0.0000
# 6 0.0000 0.0000 0.0000 -3.6380 0.0000 32.1982
#
#
#
# Elastic Compliance Matrix: (Units=1/GPa)
#
#
# Indices 1 2 3 4 5 6 
#
# 1 0.010841 -0.003985 -0.004123 0.000000 0.002062 0.000000
# 2 -0.003985 0.028717 0.013415 0.000000 0.012458 0.000000
# 3 -0.004123 0.013415 0.021649 0.000000 0.009454 0.000000
# 4 0.000000 0.000000 0.000000 0.029428 0.000000 0.003325
# 5 0.002062 0.012458 0.009454 0.000000 0.034148 0.000000
# 6 0.000000 0.000000 0.000000 0.003325 0.000000 0.031433
#
#
# Mechanical properties :
#
#
# Convention : Reuss Voigt Hill
#
# Bulk Modulus (GPa) = 13.92327 27.51365 20.71846
# Shear Modulus (GPa) = 29.49124 36.02098 32.75611
#
# Velocity S-wave (km/s) = 3.66911 4.05501 3.86688
# Velocity P-wave (km/s) = 4.93008 5.87229 5.42169
#
# Compressibility (1/GPa) = 0.07182219
#
# Stress axis : x y z
#
# Youngs Moduli (GPa) = 92.24260 34.82247 46.19252
#
# Poissons Ratio (x) = 0.13877 0.19043
# Poissons Ratio (y) = 0.36758 -0.61969
# Poissons Ratio (z) = 0.38028 -0.46716
#
# Static dielectric constant tensor:
#      x y z
#    x 1.847870 0.000000 0.004780 
#    y 0.000000 1.825610 0.000000 
#    z 0.004780 0.000000 1.836120 
# 
# From -- ./inp_files/281080.got.cif
#   From: 2010.05.17/outbox.cif.g08.bks.cpg/sg15_141_cif.got.tgz:281080.got - 2010.06.03 18:47:42.
