data_PCOD9303380
_publ_section_title
;
Structure prediction by ZEFSAII (Michael W. Deem and Ramdas Pophale) SiO2 
 PCOD9303380
Probable space group: C 2/C
;
_chemical_formula_sum "Si O2"
_cell_formula_units_Z 44
_cell_length_a 25.445941
_cell_length_b 6.444780
_cell_length_c 11.572560
_cell_angle_alpha 90.000000
_cell_angle_beta 74.085317
_cell_angle_gamma 90.000000
_cell_volume 1825.082941
_symmetry_space_group_name_H-M "C 2/C"
_symmetry_group_IT_number 15
_symmetry_cell_setting 'monoclinic'
loop_
_space_group_symop_operation_xyz
x,y,z
-x,y,1/2-z
-x,-y,-z
x,-y,1/2+z
1/2+x,1/2+y,z
1/2-x,1/2+y,1/2-z
1/2-x,1/2-y,-z
1/2+x,1/2-y,1/2+z
loop_
_atom_site_type_symbol
_atom_site_label
_atom_site_fract_x
_atom_site_fract_y
_atom_site_fract_z
Si Si1 0.820474 0.072846 0.736211
Si Si2 0.417210 0.833854 0.714378
Si Si3 0.500000 0.151343 0.750000
Si Si4 0.629818 0.814518 0.429381
Si Si5 0.990119 0.254392 0.003159
Si Si6 0.719649 0.100746 0.429043
O O1 0.838108 0.861891 0.660715
O O2 0.767729 0.034047 0.844632
O O3 0.870924 0.170670 0.777009
O O4 0.804337 0.239352 0.649548
O O5 0.449332 0.987705 0.781343
O O6 0.389469 0.006204 0.647973
O O7 0.461337 0.699712 0.613413
O O8 0.501283 0.286682 0.865526
O O9 0.670564 0.940811 0.490146
O O10 0.571569 0.714657 0.501141
O O11 0.000000 0.500000 0.000000
O O12 0.750000 0.250000 0.500000
#
# Coordination Sequence:
#
# PCOD9303380 Si02
#       6
#     8   8   4   8   8   8
#     4  11  22  44  62  90 129 158 209 271 304 373
#     4   9  20  38  61  90 123 163 201 256 316 374
#     4   8  14  34  60  86 130 160 198 254 300 376
#     4   9  19  40  63  87 126 163 194 265 313 360
#     4   8  16  35  58  89 120 161 198 247 321 363
#     4  11  24  44  64  92 124 169 216 255 319 373
#
# _framework density 24.108491999999998
#
# number of rings (size 3 to 8) (size 9 to 14) (size 15 to 20)
#    0.000    2.909    1.818    0.000    0.000    1.455 
#   36.000    3.636    0.000    0.000    0.000    0.000 
#    0.000    0.000    0.000    0.000    0.000    0.000 
#
# Total GULP energy -122675.733057 kJ/mol
# GULP energy per Si atom -5576.169684 kJ/mol
# Density = 2.405362 g / cm^3
# Si number density = 24.108492 Si / 1000 Ang^3
#
#
#
# Elastic Constant Matrix: (Units=GPa)
#
#
# Indices 1 2 3 4 5 6 
#
# 1 173.9156 64.1202 38.0393 0.0000 -4.4173 0.0000
# 2 64.1202 116.9838 27.4157 0.0000 -4.2237 0.0000
# 3 38.0393 27.4157 48.3797 0.0000 -2.8402 0.0000
# 4 0.0000 0.0000 0.0000 0.2672 0.0000 8.4457
# 5 -4.4173 -4.2237 -2.8402 0.0000 27.7046 0.0000
# 6 0.0000 0.0000 0.0000 8.4457 0.0000 42.2305
#
#
#
# Elastic Compliance Matrix: (Units=1/GPa)
#
#
# Indices 1 2 3 4 5 6 
#
# 1 0.007930 -0.003319 -0.004336 0.000000 0.000314 0.000000
# 2 -0.003319 0.011271 -0.003730 0.000000 0.000807 0.000000
# 3 -0.004336 -0.003730 0.026277 0.000000 0.001434 0.000000
# 4 0.000000 0.000000 0.000000 -0.703308 0.000000 0.140654
# 5 0.000314 0.000807 0.001434 0.000000 0.036415 0.000000
# 6 0.000000 0.000000 0.000000 0.140654 0.000000 -0.004450
#
#
# Mechanical properties :
#
#
# Convention : Reuss Voigt Hill
#
# Bulk Modulus (GPa) = 44.03736 66.49215 55.26476
# Shear Modulus (GPa) = -8.39592 28.02072 9.81240
#
# Velocity S-wave (km/s) = -1.86819 3.41292 2.01964
# Velocity P-wave (km/s) = 3.69493 6.57046 5.33026
#
# Compressibility (1/GPa) = 0.02270799
#
# Stress axis : x y z
#
# Youngs Moduli (GPa) = 126.10501 88.72637 38.05659
#
# Poissons Ratio (x) = 0.29449 0.16500
# Poissons Ratio (y) = 0.41855 0.14194
# Poissons Ratio (z) = 0.54676 0.33093
#
# Static dielectric constant tensor:
#      x y z
#    x 2.017440 0.000000 0.007960 
#    y 0.000000 1.923680 0.000000 
#    z 0.007960 0.000000 2.014070 
# 
# From -- ./inp_files/175402.got.cif
#   From: 2010.05.17/outbox.cif.g08.bks.cpg/sg15_88_cif.got.tgz:175402.got - 2010.06.03 18:47:42.
