data_PCOD9303847
_publ_section_title
;
Structure prediction by ZEFSAII (Michael W. Deem and Ramdas Pophale) SiO2 
 PCOD9303847
Probable space group: C 2/C
;
_chemical_formula_sum "Si O2"
_cell_formula_units_Z 32
_cell_length_a 15.496995
_cell_length_b 12.306426
_cell_length_c 10.077987
_cell_angle_alpha 90.000000
_cell_angle_beta 140.251133
_cell_angle_gamma 90.000000
_cell_volume 1228.972110
_symmetry_space_group_name_H-M "C 2/C"
_symmetry_group_IT_number 15
_symmetry_cell_setting 'monoclinic'
loop_
_space_group_symop_operation_xyz
x,y,z
-x,y,1/2-z
-x,-y,-z
x,-y,1/2+z
1/2+x,1/2+y,z
1/2-x,1/2+y,1/2-z
1/2-x,1/2-y,-z
1/2+x,1/2-y,1/2+z
loop_
_atom_site_type_symbol
_atom_site_label
_atom_site_fract_x
_atom_site_fract_y
_atom_site_fract_z
Si Si1 0.966529 0.623697 0.424339
Si Si2 0.292191 0.626303 0.075661
Si Si3 0.793165 0.401328 0.479761
Si Si4 0.936595 0.848672 0.479761
O O1 0.946035 0.717581 0.507131
O O2 0.000000 0.500000 0.500000
O O3 0.098229 0.652085 0.490791
O O4 0.834700 0.631942 0.175875
O O5 0.188904 0.532419 0.992870
O O6 0.145475 0.875000 0.250000
O O7 0.408825 0.618057 0.324124
O O8 0.357437 0.597915 0.009209
O O9 0.750000 0.750000 0.500000
#
# Coordination Sequence:
#
# PCOD9303847 Si02
#       4
#     8   8   8   8
#     4  11  23  40  65  94 129 171 217 268 327 393
#     4  11  23  40  65  94 129 171 217 268 327 393
#     4  11  23  41  63  94 129 170 216 269 328 392
#     4  11  23  41  63  94 129 170 216 269 328 392
#
# _framework density 26.038018999999998
#
# number of rings (size 3 to 8) (size 9 to 14) (size 15 to 20)
#    0.000    1.000    0.000    7.500    0.000    4.000 
#    0.000   15.000    0.000    0.000    0.000    0.000 
#    0.000    0.000    0.000    0.000    0.000    0.000 
#
# Total GULP energy -89479.134249 kJ/mol
# GULP energy per Si atom -5592.445891 kJ/mol
# Density = 2.597876 g / cm^3
# Si number density = 26.038019 Si / 1000 Ang^3
#
#
#
# Elastic Constant Matrix: (Units=GPa)
#
#
# Indices 1 2 3 4 5 6 
#
# 1 62.7966 20.9986 0.9034 0.0000 0.3494 0.0000
# 2 20.9986 129.1062 9.0378 0.0000 0.1518 0.0000
# 3 0.9034 9.0378 182.2714 0.0000 -1.8630 0.0000
# 4 0.0000 0.0000 0.0000 38.0915 0.0000 0.0774
# 5 0.3494 0.1518 -1.8630 0.0000 17.1889 0.0000
# 6 0.0000 0.0000 0.0000 0.0774 0.0000 44.1978
#
#
#
# Elastic Compliance Matrix: (Units=1/GPa)
#
#
# Indices 1 2 3 4 5 6 
#
# 1 0.016843 -0.002742 0.000049 0.000000 -0.000313 0.000000
# 2 -0.002742 0.008219 -0.000395 0.000000 -0.000060 0.000000
# 3 0.000049 -0.000395 0.005512 0.000000 0.000600 0.000000
# 4 0.000000 0.000000 0.000000 0.026253 0.000000 -0.000046
# 5 -0.000313 -0.000060 0.000600 0.000000 0.058249 0.000000
# 6 0.000000 0.000000 0.000000 -0.000046 0.000000 0.022626
#
#
# Mechanical properties :
#
#
# Convention : Reuss Voigt Hill
#
# Bulk Modulus (GPa) = 40.98668 48.45042 44.71855
# Shear Modulus (GPa) = 32.89279 42.77794 37.83537
#
# Velocity S-wave (km/s) = 3.55809 4.05767 3.81607
# Velocity P-wave (km/s) = 5.71448 6.37188 6.05211
#
# Compressibility (1/GPa) = 0.02439817
#
# Stress axis : x y z
#
# Youngs Moduli (GPa) = 59.37359 121.66491 181.42977
#
# Poissons Ratio (x) = 0.33366 -0.00895
# Poissons Ratio (y) = 0.16283 0.07159
# Poissons Ratio (z) = -0.00293 0.04800
#
# Static dielectric constant tensor:
#      x y z
#    x 2.056280 0.000000 -0.000010 
#    y 0.000000 2.113950 0.000000 
#    z -0.000010 0.000000 2.057030 
# 
# From -- ./inp_files/104679.got.cif
#   From: 2010.05.17/outbox.cif.g08.bks.cpg/sg15_53_cif.got.tgz:104679.got - 2010.06.03 18:47:42.
