data_PCOD9303383
_publ_section_title
;
Structure prediction by ZEFSAII (Michael W. Deem and Ramdas Pophale) SiO2 
 PCOD9303383
Probable space group: C 2/C
;
_chemical_formula_sum "Si O2"
_cell_formula_units_Z 36
_cell_length_a 13.746499
_cell_length_b 7.006551
_cell_length_c 24.737661
_cell_angle_alpha 90.000000
_cell_angle_beta 32.509412
_cell_angle_gamma 90.000000
_cell_volume 1280.511591
_symmetry_space_group_name_H-M "C 2/C"
_symmetry_group_IT_number 15
_symmetry_cell_setting 'monoclinic'
loop_
_space_group_symop_operation_xyz
x,y,z
-x,y,1/2-z
-x,-y,-z
x,-y,1/2+z
1/2+x,1/2+y,z
1/2-x,1/2+y,1/2-z
1/2-x,1/2-y,-z
1/2+x,1/2-y,1/2+z
loop_
_atom_site_type_symbol
_atom_site_label
_atom_site_fract_x
_atom_site_fract_y
_atom_site_fract_z
Si Si1 0.853923 0.529869 0.973337
Si Si2 0.984733 0.140464 0.602124
Si Si3 0.850989 0.095593 0.777083
Si Si4 0.500000 0.000000 0.500000
Si Si5 0.102135 0.642629 0.756392
O O1 0.949545 0.337912 0.957241
O O2 0.985570 0.597179 0.864686
O O3 0.665656 0.473760 0.033074
O O4 0.833468 0.626445 0.040860
O O5 0.807092 0.057882 0.657936
O O6 0.901168 0.202834 0.698824
O O7 0.874069 0.871436 0.752822
O O8 0.000000 0.151903 0.750000
O O9 0.653487 0.114761 0.892645
O O10 0.000000 0.587684 0.750000
#
# Coordination Sequence:
#
# PCOD9303383 Si02
#       5
#     8   8   8   4   8
#     4  11  25  41  69  96 128 168 220 260 323 382
#     4  11  22  44  64  94 129 168 215 265 313 386
#     4  11  23  41  68  93 129 170 214 262 323 382
#     4  12  20  42  68  98 120 170 214 264 316 392
#     4  11  24  44  61  95 134 167 214 265 319 382
#
# _framework density 28.113762000000001
#
# number of rings (size 3 to 8) (size 9 to 14) (size 15 to 20)
#    0.000    0.889    6.667    0.000    0.000    2.667 
#    0.000    0.000    0.000    0.000    0.000    0.000 
#    0.000    0.000    0.000    0.000    0.000    0.000 
#
# Total GULP energy -100502.123401 kJ/mol
# GULP energy per Si atom -5583.451300 kJ/mol
# Density = 2.804977 g / cm^3
# Si number density = 28.113762 Si / 1000 Ang^3
#
#
#
# Elastic Constant Matrix: (Units=GPa)
#
#
# Indices 1 2 3 4 5 6 
#
# 1 225.2616 18.6796 55.9335 -0.0001 -15.9910 0.0011
# 2 18.6796 93.2262 37.5912 0.0004 6.5796 0.0007
# 3 55.9335 37.5912 186.1251 0.0001 0.8362 -0.0003
# 4 -0.0001 0.0004 0.0001 41.0975 -0.0001 2.2313
# 5 -15.9910 6.5796 0.8362 -0.0001 76.5096 0.0000
# 6 0.0011 0.0007 -0.0003 2.2313 0.0000 17.1970
#
#
#
# Elastic Compliance Matrix: (Units=1/GPa)
#
#
# Indices 1 2 3 4 5 6 
#
# 1 0.004899 -0.000503 -0.001376 0.000000 0.001082 0.000000
# 2 -0.000503 0.011803 -0.002228 0.000000 -0.001096 0.000000
# 3 -0.001376 -0.002228 0.006237 0.000000 -0.000164 0.000000
# 4 0.000000 0.000000 0.000000 0.024505 0.000000 -0.003180
# 5 0.001082 -0.001096 -0.000164 0.000000 0.013393 0.000000
# 6 0.000000 0.000000 0.000000 -0.003180 0.000000 0.058562
#
#
# Mechanical properties :
#
#
# Convention : Reuss Voigt Hill
#
# Bulk Modulus (GPa) = 67.90691 81.00240 74.45465
# Shear Modulus (GPa) = 37.72993 53.12140 45.42566
#
# Velocity S-wave (km/s) = 3.66737 4.35157 4.02404
# Velocity P-wave (km/s) = 6.49150 7.35684 6.93768
#
# Compressibility (1/GPa) = 0.01472604
#
# Stress axis : x y z
#
# Youngs Moduli (GPa) = 204.10602 84.72387 160.34011
#
# Poissons Ratio (x) = 0.04265 0.22055
# Poissons Ratio (y) = 0.10275 0.35718
# Poissons Ratio (z) = 0.28076 0.18873
#
# Static dielectric constant tensor:
#      x y z
#    x 4.278720 0.000000 1.265620 
#    y 0.000000 2.935820 0.000000 
#    z 1.265620 0.000000 3.138750 
# 
# From -- ./inp_files/176803.got.cif
#   From: 2010.05.17/outbox.cif.g08.bks.cpg/sg15_89_cif.got.tgz:176803.got - 2010.06.03 18:47:42.
