data_PCOD9303672
_publ_section_title
;
Structure prediction by ZEFSAII (Michael W. Deem and Ramdas Pophale) SiO2 
 PCOD9303672
Probable space group: C 2/C
;
_chemical_formula_sum "Si O2"
_cell_formula_units_Z 56
_cell_length_a 9.439719
_cell_length_b 10.779686
_cell_length_c 27.072203
_cell_angle_alpha 90.000000
_cell_angle_beta 117.609961
_cell_angle_gamma 90.000000
_cell_volume 2441.084394
_symmetry_space_group_name_H-M "C 2/C"
_symmetry_group_IT_number 15
_symmetry_cell_setting 'monoclinic'
loop_
_space_group_symop_operation_xyz
x,y,z
-x,y,1/2-z
-x,-y,-z
x,-y,1/2+z
1/2+x,1/2+y,z
1/2-x,1/2+y,1/2-z
1/2-x,1/2-y,-z
1/2+x,1/2-y,1/2+z
loop_
_atom_site_type_symbol
_atom_site_label
_atom_site_fract_x
_atom_site_fract_y
_atom_site_fract_z
Si Si1 0.975371 0.639782 0.977429
Si Si2 0.097103 0.438542 0.393857
Si Si3 0.945917 0.191540 0.820355
Si Si4 0.105201 0.324998 0.218762
Si Si5 0.492422 0.591732 0.141464
Si Si6 0.244650 0.312937 0.891607
Si Si7 0.174398 0.269359 0.596288
O O1 0.805696 0.699342 0.935172
O O2 0.067679 0.631165 0.940315
O O3 0.000000 0.500000 0.000000
O O4 0.048337 0.724925 0.031950
O O5 0.164263 0.575963 0.409375
O O6 0.232990 0.359982 0.389111
O O7 0.943388 0.418071 0.333696
O O8 0.791651 0.180588 0.761035
O O9 0.893019 0.271801 0.859714
O O10 0.110633 0.259896 0.832337
O O11 0.985706 0.050789 0.841986
O O12 0.049917 0.187684 0.193113
O O13 0.000000 0.360349 0.250000
O O14 0.603897 0.630493 0.113189
O O15 0.305671 0.625184 0.105640
#
# Coordination Sequence:
#
# PCOD9303672 Si02
#       7
#     8   8   8   8   8   8   8
#     4  12  26  46  71 107 150 188 244 304 353 430
#     4  11  24  46  72 103 139 192 239 297 358 433
#     4  12  26  45  72 108 140 189 240 297 360 433
#     4  11  22  48  73  99 143 188 236 299 365 427
#     4  11  24  48  69 104 144 185 237 291 358 431
#     4  12  26  45  73 110 143 186 248 292 363 427
#     4  11  23  47  74  97 145 195 232 291 363 418
#
# _framework density 22.940622999999999
#
# number of rings (size 3 to 8) (size 9 to 14) (size 15 to 20)
#    0.000    0.571    7.143    2.143    2.000    4.571 
#    2.571    0.000    0.000    0.000    0.000    0.000 
#    0.000    0.000    0.000    0.000    0.000    0.000 
#
# Total GULP energy -156451.369821 kJ/mol
# GULP energy per Si atom -5587.548922 kJ/mol
# Density = 2.288841 g / cm^3
# Si number density = 22.940623 Si / 1000 Ang^3
#
#
#
# Elastic Constant Matrix: (Units=GPa)
#
#
# Indices 1 2 3 4 5 6 
#
# 1 59.3273 18.3984 23.0699 0.0000 -0.2891 0.0000
# 2 18.3984 82.6500 2.7135 0.0000 12.5291 0.0000
# 3 23.0699 2.7135 93.1288 0.0000 8.3490 0.0000
# 4 0.0000 0.0000 0.0000 24.9677 0.0000 2.8500
# 5 -0.2891 12.5291 8.3490 0.0000 36.0380 0.0000
# 6 0.0000 0.0000 0.0000 2.8500 0.0000 18.2100
#
#
#
# Elastic Compliance Matrix: (Units=1/GPa)
#
#
# Indices 1 2 3 4 5 6 
#
# 1 0.020383 -0.004828 -0.005181 0.000000 0.003043 0.000000
# 2 -0.004828 0.013916 0.001254 0.000000 -0.005167 0.000000
# 3 -0.005181 0.001254 0.012283 0.000000 -0.003323 0.000000
# 4 0.000000 0.000000 0.000000 0.040780 0.000000 -0.006382
# 5 0.003043 -0.005167 -0.003323 0.000000 0.030339 0.000000
# 6 0.000000 0.000000 0.000000 -0.006382 0.000000 0.055914
#
#
# Mechanical properties :
#
#
# Convention : Reuss Voigt Hill
#
# Bulk Modulus (GPa) = 34.39982 35.94108 35.17045
# Shear Modulus (GPa) = 24.89834 28.57142 26.73488
#
# Velocity S-wave (km/s) = 3.29802 3.53292 3.41749
# Velocity P-wave (km/s) = 5.43418 5.68710 5.56208
#
# Compressibility (1/GPa) = 0.02906992
#
# Stress axis : x y z
#
# Youngs Moduli (GPa) = 49.06137 71.85855 81.41530
#
# Poissons Ratio (x) = 0.34696 0.42184
# Poissons Ratio (y) = 0.23689 -0.10209
# Poissons Ratio (z) = 0.25420 -0.09010
#
# Static dielectric constant tensor:
#      x y z
#    x 1.971750 0.000000 -0.065070 
#    y 0.000000 1.847010 0.000000 
#    z -0.065070 0.000000 1.926180 
# 
# From -- ./inp_files/307542.got.cif
#   From: 2010.05.17/outbox.cif.g08.bks.cpg/sg15_154_cif.got.tgz:307542.got - 2010.06.03 18:47:42.
