data_PCOD9303204
_publ_section_title
;
Structure prediction by ZEFSAII (Michael W. Deem and Ramdas Pophale) SiO2 
 PCOD9303204
Probable space group: C 2/C
;
_chemical_formula_sum "Si O2"
_cell_formula_units_Z 48
_cell_length_a 25.735418
_cell_length_b 11.143736
_cell_length_c 13.455822
_cell_angle_alpha 90.000000
_cell_angle_beta 30.658072
_cell_angle_gamma 90.000000
_cell_volume 1967.745073
_symmetry_space_group_name_H-M "C 2/C"
_symmetry_group_IT_number 15
_symmetry_cell_setting 'monoclinic'
loop_
_space_group_symop_operation_xyz
x,y,z
-x,y,1/2-z
-x,-y,-z
x,-y,1/2+z
1/2+x,1/2+y,z
1/2-x,1/2+y,1/2-z
1/2-x,1/2-y,-z
1/2+x,1/2-y,1/2+z
loop_
_atom_site_type_symbol
_atom_site_label
_atom_site_fract_x
_atom_site_fract_y
_atom_site_fract_z
Si Si1 0.799023 0.562375 0.614833
Si Si2 0.376043 0.888651 0.350716
Si Si3 0.074015 0.409562 0.942702
Si Si4 0.093427 0.144513 0.858982
Si Si5 0.762163 0.693796 0.844809
Si Si6 0.929281 0.032923 0.272178
O O1 0.860303 0.524391 0.415769
O O2 0.837330 0.477296 0.643257
O O3 0.682512 0.574678 0.772167
O O4 0.812140 0.685890 0.654315
O O5 0.292828 0.820677 0.554015
O O6 0.341089 0.840284 0.300634
O O7 0.494846 0.864250 0.156658
O O8 0.108955 0.287782 0.832712
O O9 0.000000 0.500000 0.000000
O O10 0.094961 0.088273 0.747097
O O11 0.989735 0.111247 0.089075
O O12 0.668761 0.603563 0.025318
O O13 0.000000 0.012538 0.250000
#
# Coordination Sequence:
#
# PCOD9303204 Si02
#       6
#     8   8   8   8   8   8
#     4  12  24  41  72 107 139 187 247 304 365 431
#     4  11  24  45  73 100 145 193 245 304 367 439
#     4  12  26  49  74 109 148 197 248 303 372 451
#     4  11  25  45  72 110 145 191 249 309 364 445
#     4  11  22  42  71 107 140 192 248 301 367 443
#     4  11  22  42  74 105 146 193 248 304 370 432
#
# _framework density 24.393405000000001
#
# number of rings (size 3 to 8) (size 9 to 14) (size 15 to 20)
#    0.000    0.667    6.667    1.500    0.000    0.000 
#    6.000    6.667    0.000    0.000    0.000    0.000 
#    0.000    0.000    0.000    0.000    0.000    0.000 
#
# Total GULP energy -133816.633447 kJ/mol
# GULP energy per Si atom -5575.693060 kJ/mol
# Density = 2.433788 g / cm^3
# Si number density = 24.393405 Si / 1000 Ang^3
#
#
#
# Elastic Constant Matrix: (Units=GPa)
#
#
# Indices 1 2 3 4 5 6 
#
# 1 120.3399 55.9218 1.8760 0.0000 -4.1262 0.0000
# 2 55.9218 87.4427 20.7241 0.0000 -17.4439 0.0000
# 3 1.8760 20.7241 46.3024 0.0000 -10.6810 0.0000
# 4 0.0000 0.0000 0.0000 40.1944 0.0000 7.4284
# 5 -4.1262 -17.4439 -10.6810 0.0000 34.3733 0.0000
# 6 0.0000 0.0000 0.0000 7.4284 0.0000 29.6613
#
#
#
# Elastic Compliance Matrix: (Units=1/GPa)
#
#
# Indices 1 2 3 4 5 6 
#
# 1 0.012417 -0.009102 0.003069 0.000000 -0.002175 0.000000
# 2 -0.009102 0.020345 -0.007118 0.000000 0.007020 0.000000
# 3 0.003069 -0.007118 0.025757 0.000000 0.004760 0.000000
# 4 0.000000 0.000000 0.000000 0.026086 0.000000 -0.006533
# 5 -0.002175 0.007020 0.004760 0.000000 0.033873 0.000000
# 6 0.000000 0.000000 0.000000 -0.006533 0.000000 0.035350
#
#
# Mechanical properties :
#
#
# Convention : Reuss Voigt Hill
#
# Bulk Modulus (GPa) = 31.03982 45.68099 38.36041
# Shear Modulus (GPa) = 26.19602 32.55001 29.37302
#
# Velocity S-wave (km/s) = 3.28059 3.65688 3.47383
# Velocity P-wave (km/s) = 5.20596 6.04961 5.64357
#
# Compressibility (1/GPa) = 0.03221668
#
# Stress axis : x y z
#
# Youngs Moduli (GPa) = 80.53290 49.15292 38.82512
#
# Poissons Ratio (x) = 0.44741 -0.11916
# Poissons Ratio (y) = 0.73305 0.27634
# Poissons Ratio (z) = -0.24718 0.34985
#
# Static dielectric constant tensor:
#      x y z
#    x 2.035960 0.000000 0.056640 
#    y 0.000000 2.159610 0.000000 
#    z 0.056640 0.000000 1.962330 
# 
# From -- ./inp_files/177734.got.cif
#   From: 2010.05.17/outbox.cif.g08.bks.cpg/sg15_89_cif.got.tgz:177734.got - 2010.06.03 18:47:42.
