data_PCOD9303046
_publ_section_title
;
Structure prediction by ZEFSAII (Michael W. Deem and Ramdas Pophale) SiO2 
 PCOD9303046
Probable space group: C 2/C
;
_chemical_formula_sum "Si O2"
_cell_formula_units_Z 56
_cell_length_a 30.108716
_cell_length_b 11.830150
_cell_length_c 9.310444
_cell_angle_alpha 90.000000
_cell_angle_beta 126.900952
_cell_angle_gamma 90.000000
_cell_volume 2651.955456
_symmetry_space_group_name_H-M "C 2/C"
_symmetry_group_IT_number 15
_symmetry_cell_setting 'monoclinic'
loop_
_space_group_symop_operation_xyz
x,y,z
-x,y,1/2-z
-x,-y,-z
x,-y,1/2+z
1/2+x,1/2+y,z
1/2-x,1/2+y,1/2-z
1/2-x,1/2-y,-z
1/2+x,1/2-y,1/2+z
loop_
_atom_site_type_symbol
_atom_site_label
_atom_site_fract_x
_atom_site_fract_y
_atom_site_fract_z
Si Si1 0.300565 0.305295 0.680678
Si Si2 0.094513 0.359447 0.128098
Si Si3 0.131317 0.001427 0.319370
Si Si4 0.055050 0.042894 0.432086
Si Si5 0.484528 0.794109 0.064127
Si Si6 0.897417 0.414797 0.684299
Si Si7 0.695045 0.726601 0.984138
O O1 0.250000 0.250000 0.500000
O O2 0.354075 0.224754 0.778109
O O3 0.319577 0.420103 0.641894
O O4 0.287260 0.314439 0.822842
O O5 0.108764 0.459227 0.267427
O O6 0.041100 0.294033 0.083785
O O7 0.084303 0.406816 0.947054
O O8 0.153709 0.873441 0.352575
O O9 0.108099 0.033659 0.430110
O O10 0.076798 0.018068 0.115438
O O11 0.039565 0.170823 0.444745
O O12 0.000000 0.993139 0.250000
O O13 0.500000 0.847161 0.250000
O O14 0.441203 0.859460 0.880004
O O15 0.841209 0.340981 0.582219
O O16 0.750000 0.750000 0.000000
#
# Coordination Sequence:
#
# PCOD9303046 Si02
#       7
#     8   8   8   8   8   8   8
#     4  11  27  46  70 101 136 186 234 292 349 421
#     4  11  25  44  68 101 140 182 238 282 352 414
#     4  12  24  49  70 108 145 180 239 292 356 426
#     4  11  24  42  73 106 144 186 226 286 353 425
#     4  11  22  41  69 104 137 183 222 280 347 418
#     4  11  24  46  69 100 139 185 232 294 347 420
#     4  11  27  46  72 101 138 186 237 298 358 413
#
# _framework density 21.116493999999999
#
# number of rings (size 3 to 8) (size 9 to 14) (size 15 to 20)
#    0.000    0.857    2.857    3.857    4.000    2.286 
#    0.000    0.000    0.000    0.000    0.000    0.000 
#    0.000    0.000    0.000    0.000    0.000    0.000 
#
# Total GULP energy -156562.303371 kJ/mol
# GULP energy per Si atom -5591.510835 kJ/mol
# Density = 2.106843 g / cm^3
# Si number density = 21.116494 Si / 1000 Ang^3
#
#
#
# Elastic Constant Matrix: (Units=GPa)
#
#
# Indices 1 2 3 4 5 6 
#
# 1 141.8939 24.5234 12.7224 0.0000 -22.9739 0.0000
# 2 24.5234 69.2206 -16.7979 0.0000 -9.7183 0.0000
# 3 12.7224 -16.7979 82.7169 0.0000 -14.5202 0.0000
# 4 0.0000 0.0000 0.0000 27.1108 0.0000 4.5723
# 5 -22.9739 -9.7183 -14.5202 0.0000 35.0455 0.0000
# 6 0.0000 0.0000 0.0000 4.5723 0.0000 32.0258
#
#
#
# Elastic Compliance Matrix: (Units=1/GPa)
#
#
# Indices 1 2 3 4 5 6 
#
# 1 0.008281 -0.002588 -0.001049 0.000000 0.004277 0.000000
# 2 -0.002588 0.017237 0.004788 0.000000 0.005067 0.000000
# 3 -0.001049 0.004788 0.014381 0.000000 0.006599 0.000000
# 4 0.000000 0.000000 0.000000 0.037796 0.000000 -0.005396
# 5 0.004277 0.005067 0.006599 0.000000 0.035477 0.000000
# 6 0.000000 0.000000 0.000000 -0.005396 0.000000 0.031995
#
#
# Mechanical properties :
#
#
# Convention : Reuss Voigt Hill
#
# Bulk Modulus (GPa) = 23.69545 37.19192 30.44369
# Shear Modulus (GPa) = 31.86099 37.06198 34.46149
#
# Velocity S-wave (km/s) = 3.88857 4.19396 4.04415
# Velocity P-wave (km/s) = 5.60419 6.41119 6.02123
#
# Compressibility (1/GPa) = 0.04220220
#
# Stress axis : x y z
#
# Youngs Moduli (GPa) = 120.75520 58.01587 69.53442
#
# Poissons Ratio (x) = 0.15014 0.07291
# Poissons Ratio (y) = 0.31250 -0.33292
# Poissons Ratio (z) = 0.12661 -0.27777
#
# Static dielectric constant tensor:
#      x y z
#    x 1.749380 0.000000 -0.021020 
#    y 0.000000 1.804190 0.000000 
#    z -0.021020 0.000000 1.767630 
# 
# From -- ./inp_files/69448.got.cif
#   From: 2010.05.17/outbox.cif.g08.bks.cpg/sg15_35_cif.got.tgz:69448.got - 2010.06.03 18:47:42.
