data_PCOD9303109
_publ_section_title
;
Structure prediction by ZEFSAII (Michael W. Deem and Ramdas Pophale) SiO2 
 PCOD9303109
Probable space group: C 2/C
;
_chemical_formula_sum "Si O2"
_cell_formula_units_Z 48
_cell_length_a 25.109761
_cell_length_b 14.495892
_cell_length_c 21.848673
_cell_angle_alpha 90.000000
_cell_angle_beta 162.866175
_cell_angle_gamma 90.000000
_cell_volume 2342.890624
_symmetry_space_group_name_H-M "C 2/C"
_symmetry_group_IT_number 15
_symmetry_cell_setting 'monoclinic'
loop_
_space_group_symop_operation_xyz
x,y,z
-x,y,1/2-z
-x,-y,-z
x,-y,1/2+z
1/2+x,1/2+y,z
1/2-x,1/2+y,1/2-z
1/2-x,1/2-y,-z
1/2+x,1/2-y,1/2+z
loop_
_atom_site_type_symbol
_atom_site_label
_atom_site_fract_x
_atom_site_fract_y
_atom_site_fract_z
Si Si1 0.782503 0.373544 0.687505
Si Si2 0.236486 0.309856 0.707670
Si Si3 0.307387 0.144429 0.070439
Si Si4 0.088108 0.121570 0.527790
Si Si5 0.099269 0.033416 0.743330
Si Si6 0.356011 0.012857 0.910769
O O1 0.788890 0.295605 0.747115
O O2 0.811996 0.361342 0.648272
O O3 0.575750 0.406342 0.465443
O O4 0.950531 0.440935 0.886288
O O5 0.192133 0.215002 0.625238
O O6 0.123778 0.401917 0.567541
O O7 0.433596 0.343919 0.904555
O O8 0.500000 0.131004 0.250000
O O9 0.250000 0.250000 0.000000
O O10 0.175002 0.072013 0.890641
O O11 0.217114 0.051787 0.706913
O O12 0.985888 0.068897 0.360305
O O13 0.258569 0.039944 0.867811
#
# Coordination Sequence:
#
# PCOD9303109 Si02
#       6
#     8   8   8   8   8   8
#     4  12  23  40  70  92 135 175 217 271 329 392
#     4  11  23  37  63 102 128 174 213 265 340 384
#     4  12  27  45  66  97 130 178 223 267 323 396
#     4  11  23  40  65  98 142 170 214 279 324 404
#     4  11  23  44  61  95 132 176 218 267 328 388
#     4  11  22  42  64  96 136 168 218 275 327 398
#
# _framework density 20.487511000000001
#
# number of rings (size 3 to 8) (size 9 to 14) (size 15 to 20)
#    0.000    0.667    5.000    4.000    4.667    2.667 
#    0.000    0.000    0.000    1.000    4.333    0.000 
#    0.000    0.000    0.000    0.000    0.000    0.000 
#
# Total GULP energy -133849.010786 kJ/mol
# GULP energy per Si atom -5577.042116 kJ/mol
# Density = 2.044088 g / cm^3
# Si number density = 20.487511 Si / 1000 Ang^3
#
#
#
# Elastic Constant Matrix: (Units=GPa)
#
#
# Indices 1 2 3 4 5 6 
#
# 1 95.9240 21.2582 20.6278 0.0022 -7.4346 -0.0010
# 2 21.2582 101.6354 40.1879 0.0085 -18.3715 0.0043
# 3 20.6278 40.1879 85.6788 0.0131 -9.6599 0.0073
# 4 0.0022 0.0085 0.0131 33.2442 0.0049 1.4636
# 5 -7.4346 -18.3715 -9.6599 0.0049 30.8972 0.0017
# 6 -0.0010 0.0043 0.0073 1.4636 0.0017 21.4629
#
#
#
# Elastic Compliance Matrix: (Units=1/GPa)
#
#
# Indices 1 2 3 4 5 6 
#
# 1 0.011240 -0.001356 -0.001924 0.000000 0.001297 0.000001
# 2 -0.001356 0.013260 -0.005225 -0.000002 0.005924 -0.000001
# 3 -0.001924 -0.005225 0.014701 -0.000004 0.001027 -0.000004
# 4 0.000000 -0.000002 -0.000004 0.030171 -0.000007 -0.002057
# 5 0.001297 0.005924 0.001027 -0.000007 0.036521 -0.000004
# 6 0.000001 -0.000001 -0.000004 -0.002057 -0.000004 0.046732
#
#
# Mechanical properties :
#
#
# Convention : Reuss Voigt Hill
#
# Bulk Modulus (GPa) = 45.06323 49.70955 47.38639
# Shear Modulus (GPa) = 28.24360 30.53182 29.38771
#
# Velocity S-wave (km/s) = 3.71695 3.86458 3.79148
# Velocity P-wave (km/s) = 6.36114 6.65052 6.50744
#
# Compressibility (1/GPa) = 0.02219104
#
# Stress axis : x y z
#
# Youngs Moduli (GPa) = 88.97111 75.41696 68.02130
#
# Poissons Ratio (x) = 0.10225 0.13086
# Poissons Ratio (y) = 0.12062 0.35542
# Poissons Ratio (z) = 0.17117 0.39406
#
# Static dielectric constant tensor:
#      x y z
#    x 1.935430 -0.000010 -0.059140 
#    y -0.000010 1.811820 0.000000 
#    z -0.059140 0.000000 1.792510 
# 
# From -- ./inp_files/255680.got.cif
#   From: 2010.05.17/outbox.cif.g08.bks.cpg/sg15_128_cif.got.tgz:255680.got - 2010.06.03 18:47:42.
