data_PCOD9303127
_publ_section_title
;
Structure prediction by ZEFSAII (Michael W. Deem and Ramdas Pophale) SiO2 
 PCOD9303127
Probable space group: C 2/C
;
_chemical_formula_sum "Si O2"
_cell_formula_units_Z 44
_cell_length_a 19.032589
_cell_length_b 14.441590
_cell_length_c 11.511173
_cell_angle_alpha 90.000000
_cell_angle_beta 40.686371
_cell_angle_gamma 90.000000
_cell_volume 2062.649640
_symmetry_space_group_name_H-M "C 2/C"
_symmetry_group_IT_number 15
_symmetry_cell_setting 'monoclinic'
loop_
_space_group_symop_operation_xyz
x,y,z
-x,y,1/2-z
-x,-y,-z
x,-y,1/2+z
1/2+x,1/2+y,z
1/2-x,1/2+y,1/2-z
1/2-x,1/2-y,-z
1/2+x,1/2-y,1/2+z
loop_
_atom_site_type_symbol
_atom_site_label
_atom_site_fract_x
_atom_site_fract_y
_atom_site_fract_z
Si Si1 0.396415 0.342858 0.462140
Si Si2 0.500000 0.412560 0.750000
Si Si3 0.482243 0.721340 0.468887
Si Si4 0.241863 0.184121 0.677145
Si Si5 0.317753 0.830508 0.347086
Si Si6 0.707312 0.485473 0.048813
O O1 0.500000 0.353343 0.250000
O O2 0.440104 0.331053 0.537166
O O3 0.333060 0.249724 0.509277
O O4 0.313814 0.426775 0.543253
O O5 0.553540 0.347527 0.587815
O O6 0.409919 0.467636 0.793238
O O7 0.370741 0.741001 0.674045
O O8 0.556808 0.800161 0.318419
O O9 0.280710 0.165109 0.759508
O O10 0.227115 0.090477 0.622822
O O11 0.250000 0.750000 0.500000
O O12 0.291319 0.930542 0.435299
#
# Coordination Sequence:
#
# PCOD9303127 Si02
#       6
#     8   4   8   8   8   8
#     4  11  24  41  67  96 135 177 228 282 341 403
#     4  12  22  38  70  96 132 166 232 282 338 388
#     4  11  22  42  66  96 136 177 220 279 345 401
#     4  11  24  41  70  95 136 180 225 282 340 406
#     4  11  24  42  65  98 139 176 220 285 345 405
#     4  12  23  39  66 103 128 170 230 286 332 400
#
# _framework density 21.331785
#
# number of rings (size 3 to 8) (size 9 to 14) (size 15 to 20)
#    0.000    0.727    6.364    0.545    2.545    1.455 
#    0.000    0.909    6.000    0.000    0.000    0.000 
#    0.000    0.000    0.000    0.000    0.000    0.000 
#
# Total GULP energy -122793.741544 kJ/mol
# GULP energy per Si atom -5581.533707 kJ/mol
# Density = 2.128323 g / cm^3
# Si number density = 21.331785 Si / 1000 Ang^3
#
#
#
# Elastic Constant Matrix: (Units=GPa)
#
#
# Indices 1 2 3 4 5 6 
#
# 1 70.8550 36.1701 17.6054 0.0000 -0.3766 0.0000
# 2 36.1701 128.7321 64.5960 0.0000 -18.1072 0.0000
# 3 17.6054 64.5960 91.4414 0.0000 -13.4293 0.0000
# 4 0.0000 0.0000 0.0000 24.7102 0.0000 -11.2805
# 5 -0.3766 -18.1072 -13.4293 0.0000 29.0743 0.0000
# 6 0.0000 0.0000 0.0000 -11.2805 0.0000 3.5306
#
#
#
# Elastic Compliance Matrix: (Units=1/GPa)
#
#
# Indices 1 2 3 4 5 6 
#
# 1 0.016707 -0.005080 -0.000065 0.000000 -0.002978 0.000000
# 2 -0.005080 0.013989 -0.008190 0.000000 0.004864 0.000000
# 3 -0.000065 -0.008190 0.017148 0.000000 0.002819 0.000000
# 4 0.000000 0.000000 0.000000 -0.088244 0.000000 -0.281948
# 5 -0.002978 0.004864 0.002819 0.000000 0.038687 0.000000
# 6 0.000000 0.000000 0.000000 -0.281948 0.000000 -0.617613
#
#
# Mechanical properties :
#
#
# Convention : Reuss Voigt Hill
#
# Bulk Modulus (GPa) = 47.22839 58.64128 52.93484
# Shear Modulus (GPa) = -8.53831 22.97347 7.21758
#
# Velocity S-wave (km/s) = -2.00283 3.28527 1.84142
# Velocity P-wave (km/s) = 4.10360 6.47614 5.42125
#
# Compressibility (1/GPa) = 0.02117371
#
# Stress axis : x y z
#
# Youngs Moduli (GPa) = 59.85466 71.48381 58.31603
#
# Poissons Ratio (x) = 0.36317 0.00379
# Poissons Ratio (y) = 0.30409 0.47760
# Poissons Ratio (z) = 0.00389 0.58544
#
# Static dielectric constant tensor:
#      x y z
#    x 1.795210 0.000000 0.014840 
#    y 0.000000 1.801930 0.000000 
#    z 0.014840 0.000000 1.820580 
# 
# From -- ./inp_files/112629.got.cif
#   From: 2010.05.17/outbox.cif.g08.bks.cpg/sg15_57_cif.got.tgz:112629.got - 2010.06.03 18:47:42.
