data_PCOD9303649
_publ_section_title
;
Structure prediction by ZEFSAII (Michael W. Deem and Ramdas Pophale) SiO2 
 PCOD9303649
Probable space group: C 2/C
;
_chemical_formula_sum "Si O2"
_cell_formula_units_Z 52
_cell_length_a 12.937431
_cell_length_b 12.472511
_cell_length_c 13.751351
_cell_angle_alpha 90.000000
_cell_angle_beta 109.493541
_cell_angle_gamma 90.000000
_cell_volume 2091.756828
_symmetry_space_group_name_H-M "C 2/C"
_symmetry_group_IT_number 15
_symmetry_cell_setting 'monoclinic'
loop_
_space_group_symop_operation_xyz
x,y,z
-x,y,1/2-z
-x,-y,-z
x,-y,1/2+z
1/2+x,1/2+y,z
1/2-x,1/2+y,1/2-z
1/2-x,1/2-y,-z
1/2+x,1/2-y,1/2+z
loop_
_atom_site_type_symbol
_atom_site_label
_atom_site_fract_x
_atom_site_fract_y
_atom_site_fract_z
Si Si1 0.500000 0.399533 0.250000
Si Si2 0.315356 0.530819 0.147937
Si Si3 0.117135 0.386914 0.292690
Si Si4 0.377852 0.283300 0.549369
Si Si5 0.007627 0.731455 0.114372
Si Si6 0.243303 0.713376 0.275777
Si Si7 0.697236 0.081501 0.438540
O O1 0.395693 0.469233 0.244670
O O2 0.455259 0.338542 0.141133
O O3 0.385038 0.596455 0.089280
O O4 0.264022 0.622737 0.199650
O O5 0.237133 0.457362 0.057247
O O6 0.079216 0.294245 0.354361
O O7 0.186636 0.319391 0.233523
O O8 0.192404 0.474139 0.370432
O O9 0.000000 0.447646 0.250000
O O10 0.250000 0.250000 0.500000
O O11 0.440409 0.255907 0.472266
O O12 0.111662 0.723962 0.220754
O O13 0.922731 0.634878 0.085343
O O14 0.262446 0.667925 0.390813
#
# Coordination Sequence:
#
# PCOD9303649 Si02
#       7
#     4   8   8   8   8   8   8
#     4  12  30  48  68 104 152 180 242 302 364 422
#     4  11  27  47  72 106 140 199 238 289 370 436
#     4  11  24  43  72 107 144 192 244 296 359 426
#     4  11  22  47  70 102 146 186 239 297 354 426
#     4  12  24  48  71 103 149 182 235 315 352 421
#     4  11  24  45  72 105 153 187 239 303 355 431
#     4  12  25  46  76 109 140 194 245 292 369 422
#
# _framework density 24.859486
#
# number of rings (size 3 to 8) (size 9 to 14) (size 15 to 20)
#    0.000    0.615    6.154    0.923    8.615    6.154 
#    0.000    0.000    0.000    0.000    0.000    0.000 
#    0.000    0.000    0.000    0.000    0.000    0.000 
#
# Total GULP energy -145177.469687 kJ/mol
# GULP energy per Si atom -5583.748834 kJ/mol
# Density = 2.480290 g / cm^3
# Si number density = 24.859486 Si / 1000 Ang^3
#
#
#
# Elastic Constant Matrix: (Units=GPa)
#
#
# Indices 1 2 3 4 5 6 
#
# 1 98.3333 39.5528 33.1321 0.0000 -22.5014 0.0000
# 2 39.5528 94.5056 28.1928 0.0000 -4.8747 0.0000
# 3 33.1321 28.1928 89.9097 0.0000 -20.7524 0.0000
# 4 0.0000 0.0000 0.0000 30.2426 0.0000 3.3876
# 5 -22.5014 -4.8747 -20.7524 0.0000 43.8082 0.0000
# 6 0.0000 0.0000 0.0000 3.3876 0.0000 39.5511
#
#
#
# Elastic Compliance Matrix: (Units=1/GPa)
#
#
# Indices 1 2 3 4 5 6 
#
# 1 0.014264 -0.004964 -0.002399 0.000000 0.005638 0.000000
# 2 -0.004964 0.013410 -0.002941 0.000000 -0.002451 0.000000
# 3 -0.002399 -0.002941 0.014112 0.000000 0.005125 0.000000
# 4 0.000000 0.000000 0.000000 0.033386 0.000000 -0.002860
# 5 0.005638 -0.002451 0.005125 0.000000 0.027878 0.000000
# 6 0.000000 0.000000 0.000000 -0.002860 0.000000 0.025529
#
#
# Mechanical properties :
#
#
# Convention : Reuss Voigt Hill
#
# Bulk Modulus (GPa) = 47.21817 53.83378 50.52598
# Shear Modulus (GPa) = 32.00092 34.84512 33.42302
#
# Velocity S-wave (km/s) = 3.59175 3.74797 3.67069
# Velocity P-wave (km/s) = 6.01965 6.35861 6.19145
#
# Compressibility (1/GPa) = 0.02117829
#
# Stress axis : x y z
#
# Youngs Moduli (GPa) = 70.10476 74.57216 70.86388
#
# Poissons Ratio (x) = 0.37014 0.16998
# Poissons Ratio (y) = 0.34797 0.20844
# Poissons Ratio (z) = 0.16816 0.21935
#
# Static dielectric constant tensor:
#      x y z
#    x 2.061160 0.000000 0.116690 
#    y 0.000000 2.043510 0.000000 
#    z 0.116690 0.000000 2.070810 
# 
# From -- ./inp_files/152672.got.cif
#   From: 2010.05.17/outbox.cif.g08.bks.cpg/sg15_77_cif.got.tgz:152672.got - 2010.06.03 18:47:42.
