data_PCOD9303444
_publ_section_title
;
Structure prediction by ZEFSAII (Michael W. Deem and Ramdas Pophale) SiO2 
 PCOD9303444
Probable space group: C 2/C
;
_chemical_formula_sum "Si O2"
_cell_formula_units_Z 60
_cell_length_a 8.881691
_cell_length_b 21.580764
_cell_length_c 21.740662
_cell_angle_alpha 90.000000
_cell_angle_beta 138.559247
_cell_angle_gamma 90.000000
_cell_volume 2757.983631
_symmetry_space_group_name_H-M "C 2/C"
_symmetry_group_IT_number 15
_symmetry_cell_setting 'monoclinic'
loop_
_space_group_symop_operation_xyz
x,y,z
-x,y,1/2-z
-x,-y,-z
x,-y,1/2+z
1/2+x,1/2+y,z
1/2-x,1/2+y,1/2-z
1/2-x,1/2-y,-z
1/2+x,1/2-y,1/2+z
loop_
_atom_site_type_symbol
_atom_site_label
_atom_site_fract_x
_atom_site_fract_y
_atom_site_fract_z
Si Si1 0.158148 0.773279 0.857531
Si Si2 0.111887 0.537817 0.933959
Si Si3 0.511957 0.393857 0.632051
Si Si4 0.100336 0.302482 0.919268
Si Si5 0.500000 0.842676 0.750000
Si Si6 0.360971 0.511193 0.652366
Si Si7 0.638004 0.865720 0.354630
Si Si8 0.878596 0.074214 0.524668
O O1 0.056876 0.824222 0.871416
O O2 0.379790 0.801075 0.894050
O O3 0.187148 0.703964 0.893104
O O4 0.000000 0.766475 0.750000
O O5 0.999281 0.588659 0.855909
O O6 0.903991 0.508542 0.908961
O O7 0.309836 0.578641 0.027554
O O8 0.254767 0.480932 0.949428
O O9 0.771987 0.385012 0.688875
O O10 0.485924 0.444953 0.678015
O O11 0.039768 0.302849 0.826495
O O12 0.250000 0.250000 0.000000
O O13 0.226117 0.366375 0.968386
O O14 0.500000 0.541693 0.750000
O O15 0.376420 0.549091 0.593755
O O16 0.500000 0.860687 0.250000
O O17 0.871142 0.902818 0.414950
#
# Coordination Sequence:
#
# PCOD9303444 Si02
#       8
#     8   8   8   8   4   8   8   8
#     4  11  22  44  70  99 143 185 233 302 366 431
#     4  11  24  45  68 101 144 187 244 296 367 437
#     4  11  24  45  72 106 142 188 249 312 359 441
#     4  12  25  49  74 107 149 186 241 311 370 436
#     4  12  28  46  76 118 136 194 264 292 378 452
#     4  11  24  45  71 105 142 196 241 296 371 434
#     4  11  24  42  65  99 136 187 232 292 370 434
#     4  11  23  45  67 100 143 185 236 301 363 430
#
# _framework density 21.755023000000001
#
# number of rings (size 3 to 8) (size 9 to 14) (size 15 to 20)
#    0.000    0.800    2.667    5.600    1.867    1.600 
#    9.600    0.000    0.000    0.000    0.000    0.000 
#    0.000    0.000    0.000    0.000    0.000    0.000 
#
# Total GULP energy -167222.213821 kJ/mol
# GULP energy per Si atom -5574.073794 kJ/mol
# Density = 2.170551 g / cm^3
# Si number density = 21.755023 Si / 1000 Ang^3
#
#
#
# Elastic Constant Matrix: (Units=GPa)
#
#
# Indices 1 2 3 4 5 6 
#
# 1 104.5656 50.8057 31.4395 -0.0001 33.3275 -0.0001
# 2 50.8057 159.4077 34.4783 -0.0001 -2.2029 0.0000
# 3 31.4395 34.4783 86.4439 -0.0002 6.0097 0.0000
# 4 -0.0001 -0.0001 -0.0002 22.6666 -0.0001 -8.5378
# 5 33.3275 -2.2029 6.0097 -0.0001 48.6311 0.0000
# 6 -0.0001 0.0000 0.0000 -8.5378 0.0000 31.3998
#
#
#
# Elastic Compliance Matrix: (Units=1/GPa)
#
#
# Indices 1 2 3 4 5 6 
#
# 1 0.016312 -0.004632 -0.003322 0.000000 -0.010978 0.000000
# 2 -0.004632 0.008202 -0.001849 0.000000 0.003774 0.000000
# 3 -0.003322 -0.001849 0.013477 0.000000 0.000527 0.000000
# 4 0.000000 0.000000 0.000000 0.049152 0.000000 0.013365
# 5 -0.010978 0.003774 0.000527 0.000000 0.028192 0.000000
# 6 0.000000 0.000000 0.000000 0.013365 0.000000 0.035481
#
#
# Mechanical properties :
#
#
# Convention : Reuss Voigt Hill
#
# Bulk Modulus (GPa) = 54.39288 64.87380 59.63334
# Shear Modulus (GPa) = 28.32072 36.11910 32.21991
#
# Velocity S-wave (km/s) = 3.61196 4.07906 3.85259
# Velocity P-wave (km/s) = 6.51550 7.21594 6.87465
#
# Compressibility (1/GPa) = 0.01838476
#
# Stress axis : x y z
#
# Youngs Moduli (GPa) = 61.30610 121.92765 74.19971
#
# Poissons Ratio (x) = 0.56477 0.24648
# Poissons Ratio (y) = 0.28397 0.13719
# Poissons Ratio (z) = 0.20365 0.22544
#
# Static dielectric constant tensor:
#      x y z
#    x 1.785830 0.000000 -0.073040 
#    y 0.000000 1.810850 0.000000 
#    z -0.073040 0.000000 1.872170 
# 
# From -- ./inp_files/266250.got.cif
#   From: 2010.05.17/outbox.cif.g08.bks.cpg/sg15_134_cif.got.tgz:266250.got - 2010.06.03 18:47:42.
