data_PCOD9303231
_publ_section_title
;
Structure prediction by ZEFSAII (Michael W. Deem and Ramdas Pophale) SiO2 
 PCOD9303231
Probable space group: C 2/C
;
_chemical_formula_sum "Si O2"
_cell_formula_units_Z 64
_cell_length_a 8.453450
_cell_length_b 15.358711
_cell_length_c 29.172354
_cell_angle_alpha 90.000000
_cell_angle_beta 54.210771
_cell_angle_gamma 90.000000
_cell_volume 3072.374352
_symmetry_space_group_name_H-M "C 2/C"
_symmetry_group_IT_number 15
_symmetry_cell_setting 'monoclinic'
loop_
_space_group_symop_operation_xyz
x,y,z
-x,y,1/2-z
-x,-y,-z
x,-y,1/2+z
1/2+x,1/2+y,z
1/2-x,1/2+y,1/2-z
1/2-x,1/2-y,-z
1/2+x,1/2-y,1/2+z
loop_
_atom_site_type_symbol
_atom_site_label
_atom_site_fract_x
_atom_site_fract_y
_atom_site_fract_z
Si Si1 0.824280 0.488814 0.243255
Si Si2 0.902578 0.847517 0.681009
Si Si3 0.845877 0.305185 0.626940
Si Si4 0.545010 0.254167 0.008503
Si Si5 0.939794 0.483061 0.889196
Si Si6 0.221684 0.296066 0.233217
Si Si7 0.448870 0.399974 0.570091
Si Si8 0.597326 0.924159 0.012483
O O1 0.684713 0.568693 0.278606
O O2 0.723491 0.395219 0.266421
O O3 0.000000 0.494396 0.250000
O O4 0.922242 0.496101 0.176943
O O5 0.792125 0.763335 0.719468
O O6 0.890016 0.857445 0.628592
O O7 0.128102 0.839895 0.656734
O O8 0.852103 0.251860 0.673097
O O9 0.891791 0.243031 0.576228
O O10 0.988714 0.388487 0.604072
O O11 0.548819 0.332428 0.972244
O O12 0.486190 0.167709 0.990358
O O13 0.750000 0.250000 0.000000
O O14 0.715146 0.471867 0.912117
O O15 0.948309 0.555068 0.927059
O O16 0.000000 0.298187 0.250000
O O17 0.671329 0.430740 0.535635
O O18 0.500000 0.000000 0.000000
#
# Coordination Sequence:
#
# PCOD9303231 Si02
#       8
#     8   8   8   8   8   8   8   8
#     4  11  23  42  68 103 137 179 244 291 354 425
#     4  11  22  42  72  97 139 184 234 294 359 412
#     4  11  22  46  67  94 145 182 230 289 355 418
#     4  12  25  45  70 101 136 187 234 288 352 420
#     4  12  24  43  70 100 142 187 229 297 349 421
#     4   9  22  40  67  99 128 181 230 284 349 416
#     4  12  25  43  70 103 138 189 228 289 361 415
#     4  12  25  46  67 104 142 176 237 289 349 423
#
# _framework density 20.830794000000001
#
# number of rings (size 3 to 8) (size 9 to 14) (size 15 to 20)
#    0.000    0.750    6.250    0.750    1.750    2.000 
#    6.750    0.000    5.500    0.000    0.000    0.000 
#    0.000    0.000    0.000    0.000    0.000    0.000 
#
# Total GULP energy -178996.056259 kJ/mol
# GULP energy per Si atom -5593.626758 kJ/mol
# Density = 2.078338 g / cm^3
# Si number density = 20.830794 Si / 1000 Ang^3
#
#
#
# Elastic Constant Matrix: (Units=GPa)
#
#
# Indices 1 2 3 4 5 6 
#
# 1 89.7005 26.4792 40.7886 0.0001 -1.8299 -0.0001
# 2 26.4792 42.1100 28.7150 0.0000 -12.3891 0.0000
# 3 40.7886 28.7150 151.5349 0.0001 17.9691 -0.0001
# 4 0.0001 0.0000 0.0001 28.2782 -0.0001 10.4013
# 5 -1.8299 -12.3891 17.9691 -0.0001 36.1499 0.0001
# 6 -0.0001 0.0000 -0.0001 10.4013 0.0001 29.8296
#
#
#
# Elastic Compliance Matrix: (Units=1/GPa)
#
#
# Indices 1 2 3 4 5 6 
#
# 1 0.014480 -0.007727 -0.002344 0.000000 -0.000750 0.000000
# 2 -0.007727 0.038211 -0.007085 0.000000 0.016226 0.000000
# 3 -0.002344 -0.007085 0.009431 0.000000 -0.007234 0.000000
# 4 0.000000 0.000000 0.000000 0.040566 0.000000 -0.014145
# 5 -0.000750 0.016226 -0.007234 0.000000 0.036782 0.000000
# 6 0.000000 0.000000 0.000000 -0.014145 0.000000 0.038456
#
#
# Mechanical properties :
#
#
# Convention : Reuss Voigt Hill
#
# Bulk Modulus (GPa) = 35.95976 52.81232 44.38604
# Shear Modulus (GPa) = 22.57257 31.34241 26.95749
#
# Velocity S-wave (km/s) = 3.29540 3.88315 3.60129
# Velocity P-wave (km/s) = 5.63736 6.74635 6.21663
#
# Compressibility (1/GPa) = 0.02780886
#
# Stress axis : x y z
#
# Youngs Moduli (GPa) = 69.06099 26.17026 106.03756
#
# Poissons Ratio (x) = 0.20222 0.24859
# Poissons Ratio (y) = 0.53364 0.75128
# Poissons Ratio (z) = 0.16191 0.18542
#
# Static dielectric constant tensor:
#      x y z
#    x 1.774270 0.000000 -0.016140 
#    y 0.000000 1.734450 0.000000 
#    z -0.016140 0.000000 1.757890 
# 
# From -- ./inp_files/308255.got.cif
#   From: 2010.05.17/outbox.cif.g08.bks.cpg/sg15_155_cif.got.tgz:308255.got - 2010.06.03 18:47:42.
