data_PCOD9303912
_publ_section_title
;
Structure prediction by ZEFSAII (Michael W. Deem and Ramdas Pophale) SiO2 
 PCOD9303912
Probable space group: C 2/C
;
_chemical_formula_sum "Si O2"
_cell_formula_units_Z 40
_cell_length_a 9.397545
_cell_length_b 13.706562
_cell_length_c 31.748323
_cell_angle_alpha 90.000000
_cell_angle_beta 29.539892
_cell_angle_gamma 90.000000
_cell_volume 2016.213772
_symmetry_space_group_name_H-M "C 2/C"
_symmetry_group_IT_number 15
_symmetry_cell_setting 'monoclinic'
loop_
_space_group_symop_operation_xyz
x,y,z
-x,y,1/2-z
-x,-y,-z
x,-y,1/2+z
1/2+x,1/2+y,z
1/2-x,1/2+y,1/2-z
1/2-x,1/2-y,-z
1/2+x,1/2-y,1/2+z
loop_
_atom_site_type_symbol
_atom_site_label
_atom_site_fract_x
_atom_site_fract_y
_atom_site_fract_z
Si Si1 0.678861 0.162582 0.315609
Si Si2 0.599035 0.370149 0.099593
Si Si3 0.285757 0.847144 0.518227
Si Si4 0.293774 0.535907 0.015293
Si Si5 0.290982 0.560698 0.199307
O O1 0.573776 0.273785 0.343981
O O2 0.459158 0.100312 0.400247
O O3 0.689552 0.115362 0.266943
O O4 0.000000 0.156808 0.250000
O O5 0.481177 0.463042 0.156035
O O6 0.564624 0.401405 0.059352
O O7 0.934293 0.348800 0.023811
O O8 0.250000 0.750000 0.500000
O O9 0.996422 0.868215 0.619238
O O10 0.319404 0.938876 0.478402
O O11 0.500000 0.500000 0.000000
O O12 0.000000 0.532259 0.250000
#
# Coordination Sequence:
#
# PCOD9303912 Si02
#       5
#     8   8   8   8   8
#     4  12  24  39  63  95 124 158 205 263 313 362
#     4  11  23  43  63  88 127 169 205 252 313 383
#     4  11  23  42  65  89 123 170 211 251 310 384
#     4  11  23  41  65  92 123 165 210 254 311 383
#     4  11  23  41  61  90 124 160 206 262 314 366
#
# _framework density 19.839165999999999
#
# number of rings (size 3 to 8) (size 9 to 14) (size 15 to 20)
#    0.000    0.800    0.000   10.800    0.000    3.200 
#    0.000    4.000    0.000    0.000    0.000    0.000 
#    0.000    0.000    0.000    0.000    0.000    0.000 
#
# Total GULP energy -111847.207541 kJ/mol
# GULP energy per Si atom -5592.360377 kJ/mol
# Density = 1.979401 g / cm^3
# Si number density = 19.839166 Si / 1000 Ang^3
#
#
#
# Elastic Constant Matrix: (Units=GPa)
#
#
# Indices 1 2 3 4 5 6 
#
# 1 88.7818 16.2846 24.2698 -0.0092 -1.1416 0.0103
# 2 16.2846 130.3018 67.4342 -0.0016 37.0701 0.0113
# 3 24.2698 67.4342 93.8916 -0.0513 10.7432 -0.0150
# 4 -0.0092 -0.0016 -0.0513 38.0145 0.0191 -9.9832
# 5 -1.1416 37.0701 10.7432 0.0191 43.3451 -0.0039
# 6 0.0103 0.0113 -0.0150 -9.9832 -0.0039 21.4424
#
#
#
# Elastic Compliance Matrix: (Units=1/GPa)
#
#
# Indices 1 2 3 4 5 6 
#
# 1 0.012180 -0.000314 -0.003077 -0.000004 0.001352 -0.000010
# 2 -0.000314 0.016292 -0.010317 -0.000014 -0.011385 -0.000024
# 3 -0.003077 -0.010317 0.018377 0.000031 0.004188 0.000035
# 4 -0.000004 -0.000014 0.000031 0.029970 -0.000008 0.013954
# 5 0.001352 -0.011385 0.004188 -0.000008 0.031805 0.000010
# 6 -0.000010 -0.000024 0.000035 0.013954 0.000010 0.053133
#
#
# Mechanical properties :
#
#
# Convention : Reuss Voigt Hill
#
# Bulk Modulus (GPa) = 51.46442 58.77249 55.11845
# Shear Modulus (GPa) = 25.55558 34.22616 29.89087
#
# Velocity S-wave (km/s) = 3.59296 4.15804 3.88578
# Velocity P-wave (km/s) = 6.57340 7.26231 6.92643
#
# Compressibility (1/GPa) = 0.01943090
#
# Stress axis : x y z
#
# Youngs Moduli (GPa) = 82.10282 61.37961 54.41625
#
# Poissons Ratio (x) = 0.01929 0.16746
# Poissons Ratio (y) = 0.02581 0.56143
# Poissons Ratio (z) = 0.25266 0.63327
#
# Static dielectric constant tensor:
#      x y z
#    x 1.707830 -0.000010 0.007130 
#    y -0.000010 1.672220 0.000000 
#    z 0.007130 0.000000 1.669470 
# 
# From -- ./inp_files/133161.got.cif
#   From: 2010.05.17/outbox.cif.g08.bks.cpg/sg15_67_cif.got.tgz:133161.got - 2010.06.03 18:47:42.
