data_PCOD9303316
_publ_section_title
;
Structure prediction by ZEFSAII (Michael W. Deem and Ramdas Pophale) SiO2 
 PCOD9303316
Probable space group: C 2/C
;
_chemical_formula_sum "Si O2"
_cell_formula_units_Z 40
_cell_length_a 14.042927
_cell_length_b 12.545361
_cell_length_c 9.346111
_cell_angle_alpha 90.000000
_cell_angle_beta 71.917131
_cell_angle_gamma 90.000000
_cell_volume 1565.213068
_symmetry_space_group_name_H-M "C 2/C"
_symmetry_group_IT_number 15
_symmetry_cell_setting 'monoclinic'
loop_
_space_group_symop_operation_xyz
x,y,z
-x,y,1/2-z
-x,-y,-z
x,-y,1/2+z
1/2+x,1/2+y,z
1/2-x,1/2+y,1/2-z
1/2-x,1/2-y,-z
1/2+x,1/2-y,1/2+z
loop_
_atom_site_type_symbol
_atom_site_label
_atom_site_fract_x
_atom_site_fract_y
_atom_site_fract_z
Si Si1 0.297655 0.813630 0.611420
Si Si2 0.075830 0.054721 0.595641
Si Si3 0.139631 0.268915 0.613701
Si Si4 0.197259 0.998827 0.285795
Si Si5 0.605096 0.017966 0.628697
O O1 0.250000 0.750000 0.500000
O O2 0.352224 0.754751 0.716706
O O3 0.210469 0.877429 0.736748
O O4 0.371355 0.904774 0.514834
O O5 0.066017 0.180845 0.578964
O O6 0.106325 0.988778 0.442177
O O7 0.000000 0.010819 0.750000
O O8 0.177774 0.052713 0.642888
O O9 0.250000 0.250000 0.500000
O O10 0.106487 0.390674 0.599893
O O11 0.299618 0.962990 0.311186
O O12 0.500000 0.045586 0.750000
#
# Coordination Sequence:
#
# PCOD9303316 Si02
#       5
#     8   8   8   8   8
#     4  11  23  44  69  95 140 182 224 291 354 411
#     4  12  24  45  70 103 136 188 235 288 351 422
#     4  11  22  43  70 101 141 182 230 292 352 414
#     4  11  23  45  70 101 139 181 228 295 347 413
#     4  11  24  45  73 106 138 186 236 291 360 415
#
# _framework density 25.555624999999999
#
# number of rings (size 3 to 8) (size 9 to 14) (size 15 to 20)
#    0.000    0.800    6.000    2.400    0.000    4.800 
#    3.600    0.000    0.000    0.000    0.000    0.000 
#    0.000    0.000    0.000    0.000    0.000    0.000 
#
# Total GULP energy -111796.225140 kJ/mol
# GULP energy per Si atom -5589.811257 kJ/mol
# Density = 2.549746 g / cm^3
# Si number density = 25.555625 Si / 1000 Ang^3
#
#
#
# Elastic Constant Matrix: (Units=GPa)
#
#
# Indices 1 2 3 4 5 6 
#
# 1 43.4613 -13.3116 40.0863 0.0000 -20.1257 0.0000
# 2 -13.3116 60.8525 19.7115 0.0000 10.8916 0.0000
# 3 40.0863 19.7115 171.1305 0.0000 -11.0226 0.0000
# 4 0.0000 0.0000 0.0000 61.1562 0.0000 8.2067
# 5 -20.1257 10.8916 -11.0226 0.0000 57.6350 0.0000
# 6 0.0000 0.0000 0.0000 8.2067 0.0000 24.0949
#
#
#
# Elastic Compliance Matrix: (Units=1/GPa)
#
#
# Indices 1 2 3 4 5 6 
#
# 1 0.039884 0.010103 -0.009854 0.000000 0.010134 0.000000
# 2 0.010103 0.020421 -0.004799 0.000000 -0.001249 0.000000
# 3 -0.009854 -0.004799 0.008648 0.000000 -0.000880 0.000000
# 4 0.000000 0.000000 0.000000 0.017135 0.000000 -0.005836
# 5 0.010134 -0.001249 -0.000880 0.000000 0.020957 0.000000
# 6 0.000000 0.000000 0.000000 -0.005836 0.000000 0.043490
#
#
# Mechanical properties :
#
#
# Convention : Reuss Voigt Hill
#
# Bulk Modulus (GPa) = 16.70744 40.93521 28.82133
# Shear Modulus (GPa) = 27.84168 43.84109 35.84139
#
# Velocity S-wave (km/s) = 3.30427 4.14637 3.74904
# Velocity P-wave (km/s) = 4.59450 6.24308 5.48113
#
# Compressibility (1/GPa) = 0.05985356
#
# Stress axis : x y z
#
# Youngs Moduli (GPa) = 25.07241 48.96835 115.63667
#
# Poissons Ratio (x) = -0.49472 1.13945
# Poissons Ratio (y) = -0.25330 0.55497
# Poissons Ratio (z) = 0.24706 0.23501
#
# Static dielectric constant tensor:
#      x y z
#    x 2.226950 0.000000 0.037100 
#    y 0.000000 2.118290 0.000000 
#    z 0.037100 0.000000 2.008790 
# 
# From -- ./inp_files/37834.got.cif
#   From: 2010.05.17/outbox.cif.g08.bks.cpg/sg15_19_cif.got.tgz:37834.got - 2010.06.03 18:47:42.
