data_PCOD9303489
_publ_section_title
;
Structure prediction by ZEFSAII (Michael W. Deem and Ramdas Pophale) SiO2 
 PCOD9303489
Probable space group: C 2/C
;
_chemical_formula_sum "Si O2"
_cell_formula_units_Z 52
_cell_length_a 9.464413
_cell_length_b 17.879407
_cell_length_c 17.220777
_cell_angle_alpha 90.000000
_cell_angle_beta 123.387613
_cell_angle_gamma 90.000000
_cell_volume 2433.149379
_symmetry_space_group_name_H-M "C 2/C"
_symmetry_group_IT_number 15
_symmetry_cell_setting 'monoclinic'
loop_
_space_group_symop_operation_xyz
x,y,z
-x,y,1/2-z
-x,-y,-z
x,-y,1/2+z
1/2+x,1/2+y,z
1/2-x,1/2+y,1/2-z
1/2-x,1/2-y,-z
1/2+x,1/2-y,1/2+z
loop_
_atom_site_type_symbol
_atom_site_label
_atom_site_fract_x
_atom_site_fract_y
_atom_site_fract_z
Si Si1 0.123670 0.314422 0.485073
Si Si2 0.500000 0.958102 0.250000
Si Si3 0.101748 0.691546 0.437989
Si Si4 0.768656 0.049664 0.441725
Si Si5 0.500000 0.318360 0.750000
Si Si6 0.500000 0.737983 0.750000
Si Si7 0.825419 0.318163 0.273120
Si Si8 0.072100 0.916993 0.925802
O O1 0.250000 0.250000 0.500000
O O2 0.239812 0.385012 0.500753
O O3 0.052904 0.303590 0.549541
O O4 0.962347 0.310419 0.382069
O O5 0.368597 0.897918 0.248072
O O6 0.624700 0.007094 0.344624
O O7 0.250000 0.750000 0.500000
O O8 0.169700 0.608225 0.464013
O O9 0.056540 0.708607 0.336191
O O10 0.903431 0.094330 0.427129
O O11 0.885557 0.002364 0.537287
O O12 0.642972 0.256384 0.769858
O O13 0.534630 0.374431 0.832817
O O14 0.356167 0.686795 0.743634
#
# Coordination Sequence:
#
# PCOD9303489 Si02
#       8
#     8   4   8   8   4   4   8   8
#     4  12  23  46  73 102 144 185 242 293 354 423
#     4  11  25  48  72 103 151 190 238 289 353 430
#     4  12  26  46  74 104 144 185 238 305 349 421
#     4  11  26  48  70 103 148 191 236 297 362 415
#     4  11  22  44  74 107 144 186 248 287 354 424
#     4  12  25  44  72 112 143 180 246 294 361 410
#     4  11  24  44  73 109 140 190 234 296 352 423
#     4  11  24  44  74 103 143 193 234 293 358 428
#
# _framework density 21.371476999999999
#
# number of rings (size 3 to 8) (size 9 to 14) (size 15 to 20)
#    0.000    0.615    4.615    3.231    2.154    4.308 
#    2.769    0.769    0.000    0.000    0.000    0.000 
#    0.000    0.000    0.000    0.000    0.000    0.000 
#
# Total GULP energy -144848.375813 kJ/mol
# GULP energy per Si atom -5571.091377 kJ/mol
# Density = 2.132283 g / cm^3
# Si number density = 21.371477 Si / 1000 Ang^3
#
#
#
# Elastic Constant Matrix: (Units=GPa)
#
#
# Indices 1 2 3 4 5 6 
#
# 1 175.8698 48.5663 19.8556 0.0000 -1.2086 0.0000
# 2 48.5663 67.4353 26.2588 0.0000 -11.1350 0.0000
# 3 19.8556 26.2588 69.7028 0.0000 -4.6567 0.0000
# 4 0.0000 0.0000 0.0000 2.8346 0.0000 25.6145
# 5 -1.2086 -11.1350 -4.6567 0.0000 32.0779 0.0000
# 6 0.0000 0.0000 0.0000 25.6145 0.0000 8.9995
#
#
#
# Elastic Compliance Matrix: (Units=1/GPa)
#
#
# Indices 1 2 3 4 5 6 
#
# 1 0.007177 -0.005388 -0.000123 0.000000 -0.001618 0.000000
# 2 -0.005388 0.022302 -0.006426 0.000000 0.006606 0.000000
# 3 -0.000123 -0.006426 0.016816 0.000000 0.000206 0.000000
# 4 0.000000 0.000000 0.000000 -0.014271 0.000000 0.040620
# 5 -0.001618 0.006606 0.000206 0.000000 0.033436 0.000000
# 6 0.000000 0.000000 0.000000 0.040620 0.000000 -0.004495
#
#
# Mechanical properties :
#
#
# Convention : Reuss Voigt Hill
#
# Bulk Modulus (GPa) = 44.59825 55.81883 50.20854
# Shear Modulus (GPa) = 54.16481 23.33755 38.75118
#
# Velocity S-wave (km/s) = 5.03979 3.30812 4.26281
# Velocity P-wave (km/s) = 7.40131 6.38487 6.91180
#
# Compressibility (1/GPa) = 0.02242241
#
# Stress axis : x y z
#
# Youngs Moduli (GPa) = 139.34147 44.83859 59.46702
#
# Poissons Ratio (x) = 0.24159 0.00729
# Poissons Ratio (y) = 0.75076 0.38212
# Poissons Ratio (z) = 0.01709 0.28812
#
# Static dielectric constant tensor:
#      x y z
#    x 1.721300 0.000000 0.002330 
#    y 0.000000 1.623220 0.000000 
#    z 0.002330 0.000000 1.825810 
# 
# From -- ./inp_files/190883.got.cif
#   From: 2010.05.17/outbox.cif.g08.bks.cpg/sg15_96_cif.got.tgz:190883.got - 2010.06.03 18:47:42.
