data_PCOD9303251
_publ_section_title
;
Structure prediction by ZEFSAII (Michael W. Deem and Ramdas Pophale) SiO2 
 PCOD9303251
Probable space group: C 2/C
;
_chemical_formula_sum "Si O2"
_cell_formula_units_Z 56
_cell_length_a 20.527016
_cell_length_b 9.262016
_cell_length_c 14.230119
_cell_angle_alpha 90.000000
_cell_angle_beta 110.538388
_cell_angle_gamma 90.000000
_cell_volume 2533.486549
_symmetry_space_group_name_H-M "C 2/C"
_symmetry_group_IT_number 15
_symmetry_cell_setting 'monoclinic'
loop_
_space_group_symop_operation_xyz
x,y,z
-x,y,1/2-z
-x,-y,-z
x,-y,1/2+z
1/2+x,1/2+y,z
1/2-x,1/2+y,1/2-z
1/2-x,1/2-y,-z
1/2+x,1/2-y,1/2+z
loop_
_atom_site_type_symbol
_atom_site_label
_atom_site_fract_x
_atom_site_fract_y
_atom_site_fract_z
Si Si1 0.431990 0.099504 0.473297
Si Si2 0.081183 0.987864 0.779978
Si Si3 0.181260 0.475373 0.737753
Si Si4 0.417501 0.162838 0.680928
Si Si5 0.927507 0.073819 0.933975
Si Si6 0.157913 0.889377 0.474973
Si Si7 0.242204 0.304550 0.135069
O O1 0.411798 0.113655 0.571297
O O2 0.447608 0.260498 0.447437
O O3 0.500000 0.000000 0.500000
O O4 0.367258 0.058302 0.376043
O O5 0.096417 0.028443 0.681391
O O6 0.100985 0.112450 0.863752
O O7 0.000000 0.970022 0.750000
O O8 0.109034 0.828027 0.818342
O O9 0.130327 0.559398 0.781947
O O10 0.235606 0.587362 0.718859
O O11 0.215184 0.336627 0.806371
O O12 0.500000 0.154951 0.750000
O O13 0.867128 0.025383 0.975883
O O14 0.000000 0.000000 0.000000
O O15 0.170544 0.762283 0.556257
O O16 0.224638 0.885785 0.439137
#
# Coordination Sequence:
#
# PCOD9303251 Si02
#       7
#     8   8   8   8   8   8   8
#     4  12  27  46  74 116 149 184 244 311 388 424
#     4  11  22  42  75 110 140 188 245 302 374 432
#     4  12  29  50  73 107 149 197 253 296 370 443
#     4  11  23  47  73 109 148 184 236 314 373 428
#     4  12  24  44  78 109 148 190 242 305 371 442
#     4  11  25  48  70 107 145 189 255 290 362 435
#     4  11  30  49  72 102 152 204 243 303 352 448
#
# _framework density 22.103925
#
# number of rings (size 3 to 8) (size 9 to 14) (size 15 to 20)
#    0.000    0.571    4.286    2.571   12.000    0.000 
#    2.571    2.143    0.000    0.000    0.000    0.000 
#    0.000    0.000    0.000    0.000    0.000    0.000 
#
# Total GULP energy -156337.171778 kJ/mol
# GULP energy per Si atom -5583.470421 kJ/mol
# Density = 2.205362 g / cm^3
# Si number density = 22.103925 Si / 1000 Ang^3
#
#
#
# Elastic Constant Matrix: (Units=GPa)
#
#
# Indices 1 2 3 4 5 6 
#
# 1 68.1752 68.5827 44.2531 0.0000 -12.2279 0.0000
# 2 68.5827 130.8672 51.8011 0.0000 -7.9842 0.0000
# 3 44.2531 51.8011 176.4493 0.0000 -22.6315 0.0000
# 4 0.0000 0.0000 0.0000 29.7394 0.0000 4.3400
# 5 -12.2279 -7.9842 -22.6315 0.0000 41.1829 0.0000
# 6 0.0000 0.0000 0.0000 4.3400 0.0000 75.9760
#
#
#
# Elastic Compliance Matrix: (Units=1/GPa)
#
#
# Indices 1 2 3 4 5 6 
#
# 1 0.033962 -0.016263 -0.003071 0.000000 0.005243 0.000000
# 2 -0.016263 0.016437 -0.001030 0.000000 -0.002208 0.000000
# 3 -0.003071 -0.001030 0.007098 0.000000 0.002789 0.000000
# 4 0.000000 0.000000 0.000000 0.033908 0.000000 -0.001937
# 5 0.005243 -0.002208 0.002789 0.000000 0.026943 0.000000
# 6 0.000000 0.000000 0.000000 -0.001937 0.000000 0.013273
#
#
# Mechanical properties :
#
#
# Convention : Reuss Voigt Hill
#
# Bulk Modulus (GPa) = 59.63229 78.30729 68.96979
# Shear Modulus (GPa) = 28.09981 43.43665 35.76823
#
# Velocity S-wave (km/s) = 3.56934 4.43777 4.02703
# Velocity P-wave (km/s) = 6.63503 7.85889 7.27275
#
# Compressibility (1/GPa) = 0.01676944
#
# Stress axis : x y z
#
# Youngs Moduli (GPa) = 29.44496 60.83816 140.89317
#
# Poissons Ratio (x) = 0.98939 0.43263
# Poissons Ratio (y) = 0.47886 0.14513
# Poissons Ratio (z) = 0.09042 0.06267
#
# Static dielectric constant tensor:
#      x y z
#    x 1.916080 0.000000 -0.011130 
#    y 0.000000 1.863940 0.000000 
#    z -0.011130 0.000000 1.701080 
# 
# From -- ./inp_files/171985.got.cif
#   From: 2010.05.17/outbox.cif.g08.bks.cpg/sg15_86_cif.got.tgz:171985.got - 2010.06.03 18:47:42.
