data_PCOD9303424
_publ_section_title
;
Structure prediction by ZEFSAII (Michael W. Deem and Ramdas Pophale) SiO2 
 PCOD9303424
Probable space group: C 2/C
;
_chemical_formula_sum "Si O2"
_cell_formula_units_Z 40
_cell_length_a 10.671922
_cell_length_b 11.846804
_cell_length_c 22.530948
_cell_angle_alpha 90.000000
_cell_angle_beta 38.132986
_cell_angle_gamma 90.000000
_cell_volume 1758.945615
_symmetry_space_group_name_H-M "C 2/C"
_symmetry_group_IT_number 15
_symmetry_cell_setting 'monoclinic'
loop_
_space_group_symop_operation_xyz
x,y,z
-x,y,1/2-z
-x,-y,-z
x,-y,1/2+z
1/2+x,1/2+y,z
1/2-x,1/2+y,1/2-z
1/2-x,1/2-y,-z
1/2+x,1/2-y,1/2+z
loop_
_atom_site_type_symbol
_atom_site_label
_atom_site_fract_x
_atom_site_fract_y
_atom_site_fract_z
Si Si1 0.854909 0.596983 0.500168
Si Si2 0.404673 0.800383 0.392749
Si Si3 0.303451 0.591162 0.356413
Si Si4 0.768380 0.756264 0.341831
Si Si5 0.773486 0.959570 0.573887
O O1 0.760561 0.481824 0.562250
O O2 0.828500 0.681848 0.564875
O O3 0.744342 0.614890 0.479475
O O4 0.094900 0.588939 0.397357
O O5 0.250000 0.750000 0.500000
O O6 0.363820 0.715994 0.353974
O O7 0.627158 0.785774 0.338573
O O8 0.357757 0.928057 0.390231
O O9 0.500000 0.543857 0.250000
O O10 0.774052 0.622993 0.353986
O O11 0.000000 0.793147 0.250000
O O12 0.000000 0.000000 0.500000
#
# Coordination Sequence:
#
# PCOD9303424 Si02
#       5
#     8   8   8   8   8
#     4  11  22  44  69  99 142 183 229 294 361 418
#     4  12  22  48  69  99 147 184 232 305 356 420
#     4  11  23  40  73 102 132 187 238 285 356 432
#     4  12  27  46  69 108 145 185 240 297 355 437
#     4  12  24  45  75  97 136 193 238 293 368 422
#
# _framework density 22.740895999999999
#
# number of rings (size 3 to 8) (size 9 to 14) (size 15 to 20)
#    0.000    0.400    6.000    2.400    2.800    0.800 
#    3.600    0.000    0.000    0.000    0.000    0.000 
#    0.000    0.000    0.000    0.000    0.000    0.000 
#
# Total GULP energy -111818.805177 kJ/mol
# GULP energy per Si atom -5590.940259 kJ/mol
# Density = 2.268914 g / cm^3
# Si number density = 22.740896 Si / 1000 Ang^3
#
#
#
# Elastic Constant Matrix: (Units=GPa)
#
#
# Indices 1 2 3 4 5 6 
#
# 1 120.7821 30.7588 41.7584 0.0000 -35.4582 0.0000
# 2 30.7588 152.3696 19.8000 0.0000 -2.9927 0.0000
# 3 41.7584 19.8000 131.4729 0.0004 -45.2843 0.0004
# 4 0.0000 0.0000 0.0004 10.1606 0.0000 -12.0457
# 5 -35.4582 -2.9927 -45.2843 0.0000 31.7173 0.0000
# 6 0.0000 0.0000 0.0004 -12.0457 0.0000 16.6773
#
#
#
# Elastic Compliance Matrix: (Units=1/GPa)
#
#
# Indices 1 2 3 4 5 6 
#
# 1 0.013493 -0.002678 0.002413 -0.000002 0.018276 -0.000001
# 2 -0.002678 0.007267 -0.002044 0.000001 -0.005227 0.000001
# 3 0.002413 -0.002044 0.015761 -0.000008 0.025008 -0.000006
# 4 -0.000002 0.000001 -0.000008 0.684850 -0.000013 0.494655
# 5 0.018276 -0.005227 0.025008 -0.000013 0.087172 -0.000009
# 6 -0.000001 0.000001 -0.000006 0.494655 -0.000009 0.417242
#
#
# Mechanical properties :
#
#
# Convention : Reuss Voigt Hill
#
# Bulk Modulus (GPa) = 31.34648 65.47321 48.40984
# Shear Modulus (GPa) = 4.02889 32.53152 18.28020
#
# Velocity S-wave (km/s) = 1.33248 3.78634 2.83830
# Velocity P-wave (km/s) = 4.02262 6.92594 5.66348
#
# Compressibility (1/GPa) = 0.03190151
#
# Stress axis : x y z
#
# Youngs Moduli (GPa) = 74.11435 137.61554 63.44709
#
# Poissons Ratio (x) = 0.36858 -0.15309
# Poissons Ratio (y) = 0.19850 0.12969
# Poissons Ratio (z) = -0.17883 0.28129
#
# Static dielectric constant tensor:
#      x y z
#    x 1.826160 0.000000 -0.010950 
#    y 0.000000 1.926910 0.000000 
#    z -0.010950 0.000000 1.722540 
# 
# From -- ./inp_files/292371.got.cif
#   From: 2010.05.17/outbox.cif.g08.bks.cpg/sg15_147_cif.got.tgz:292371.got - 2010.06.03 18:47:42.
