data_PCOD9303629
_publ_section_title
;
Structure prediction by ZEFSAII (Michael W. Deem and Ramdas Pophale) SiO2 
 PCOD9303629
Probable space group: C 2/C
;
_chemical_formula_sum "Si O2"
_cell_formula_units_Z 40
_cell_length_a 13.827493
_cell_length_b 14.276060
_cell_length_c 13.550513
_cell_angle_alpha 90.000000
_cell_angle_beta 39.441929
_cell_angle_gamma 90.000000
_cell_volume 1699.352806
_symmetry_space_group_name_H-M "C 2/C"
_symmetry_group_IT_number 15
_symmetry_cell_setting 'monoclinic'
loop_
_space_group_symop_operation_xyz
x,y,z
-x,y,1/2-z
-x,-y,-z
x,-y,1/2+z
1/2+x,1/2+y,z
1/2-x,1/2+y,1/2-z
1/2-x,1/2-y,-z
1/2+x,1/2-y,1/2+z
loop_
_atom_site_type_symbol
_atom_site_label
_atom_site_fract_x
_atom_site_fract_y
_atom_site_fract_z
Si Si1 0.835391 0.046181 0.434524
Si Si2 0.315156 0.558766 0.680142
Si Si3 0.743424 0.857059 0.823365
Si Si4 0.909806 0.713578 0.576829
Si Si5 0.593108 0.649161 0.583523
O O1 0.831235 0.076270 0.551008
O O2 0.732459 0.108608 0.444729
O O3 0.000000 0.052120 0.250000
O O4 0.798053 0.934831 0.466085
O O5 0.279759 0.450784 0.732627
O O6 0.178059 0.619029 0.831563
O O7 0.467823 0.593820 0.614386
O O8 0.875465 0.782760 0.695432
O O9 0.585814 0.807575 0.919693
O O10 0.843720 0.769256 0.534438
O O11 0.500000 0.686396 0.750000
#
# Coordination Sequence:
#
# PCOD9303629 Si02
#       5
#     8   8   8   8   8
#     4  11  23  43  79 103 146 201 242 294 382 448
#     4  12  24  48  74 105 153 197 251 311 366 444
#     4  12  26  49  74 114 150 194 250 314 374 438
#     4  12  27  47  77 111 151 192 257 311 367 448
#     4  11  22  46  76 103 143 204 250 291 375 453
#
# _framework density 23.538373
#
# number of rings (size 3 to 8) (size 9 to 14) (size 15 to 20)
#    0.000    0.400    8.000    2.400    0.000    2.400 
#    7.200    0.000    0.000    0.000    0.000    0.000 
#    0.000    0.000    0.000    0.000    0.000    0.000 
#
# Total GULP energy -111992.793193 kJ/mol
# GULP energy per Si atom -5599.639660 kJ/mol
# Density = 2.348480 g / cm^3
# Si number density = 23.538373 Si / 1000 Ang^3
#
#
#
# Elastic Constant Matrix: (Units=GPa)
#
#
# Indices 1 2 3 4 5 6 
#
# 1 70.1839 21.4632 34.3903 0.0000 36.1303 0.0000
# 2 21.4632 113.3377 37.9928 0.0000 -9.4973 0.0000
# 3 34.3903 37.9928 109.5867 0.0000 16.4677 0.0000
# 4 0.0000 0.0000 0.0000 53.1045 0.0000 6.0742
# 5 36.1303 -9.4973 16.4677 0.0000 45.8184 0.0000
# 6 0.0000 0.0000 0.0000 6.0742 0.0000 28.0133
#
#
#
# Elastic Compliance Matrix: (Units=1/GPa)
#
#
# Indices 1 2 3 4 5 6 
#
# 1 0.030410 -0.006543 -0.003666 0.000000 -0.024019 0.000000
# 2 -0.006543 0.011953 -0.003423 0.000000 0.008867 0.000000
# 3 -0.003666 -0.003423 0.011770 0.000000 -0.002049 0.000000
# 4 0.000000 0.000000 0.000000 0.019310 0.000000 -0.004187
# 5 -0.024019 0.008867 -0.002049 0.000000 0.043340 0.000000
# 6 0.000000 0.000000 0.000000 -0.004187 0.000000 0.036605
#
#
# Mechanical properties :
#
#
# Convention : Reuss Voigt Hill
#
# Bulk Modulus (GPa) = 37.21626 53.42230 45.31928
# Shear Modulus (GPa) = 26.37029 38.67137 32.52083
#
# Velocity S-wave (km/s) = 3.35074 4.05768 3.72103
# Velocity P-wave (km/s) = 5.55114 6.68566 6.14464
#
# Compressibility (1/GPa) = 0.02686998
#
# Stress axis : x y z
#
# Youngs Moduli (GPa) = 32.88405 83.66267 84.95978
#
# Poissons Ratio (x) = 0.54738 0.31142
# Poissons Ratio (y) = 0.21515 0.29083
# Poissons Ratio (z) = 0.12054 0.28639
#
# Static dielectric constant tensor:
#      x y z
#    x 1.951140 0.000000 0.024750 
#    y 0.000000 1.921860 0.000000 
#    z 0.024750 0.000000 1.856220 
# 
# From -- ./inp_files/38076.got.cif
#   From: 2010.05.17/outbox.cif.g08.bks.cpg/sg15_20_cif.got.tgz:38076.got - 2010.06.03 18:47:42.
