data_PCOD9303205
_publ_section_title
;
Structure prediction by ZEFSAII (Michael W. Deem and Ramdas Pophale) SiO2 
 PCOD9303205
Probable space group: C 2/C
;
_chemical_formula_sum "Si O2"
_cell_formula_units_Z 48
_cell_length_a 12.302434
_cell_length_b 8.737166
_cell_length_c 23.121012
_cell_angle_alpha 90.000000
_cell_angle_beta 66.183660
_cell_angle_gamma 90.000000
_cell_volume 2273.608964
_symmetry_space_group_name_H-M "C 2/C"
_symmetry_group_IT_number 15
_symmetry_cell_setting 'monoclinic'
loop_
_space_group_symop_operation_xyz
x,y,z
-x,y,1/2-z
-x,-y,-z
x,-y,1/2+z
1/2+x,1/2+y,z
1/2-x,1/2+y,1/2-z
1/2-x,1/2-y,-z
1/2+x,1/2-y,1/2+z
loop_
_atom_site_type_symbol
_atom_site_label
_atom_site_fract_x
_atom_site_fract_y
_atom_site_fract_z
Si Si1 0.688064 0.132979 0.851730
Si Si2 0.008141 0.188749 0.180221
Si Si3 0.760662 0.318195 0.433646
Si Si4 0.305742 0.820655 0.930605
Si Si5 0.085384 0.309556 0.886128
Si Si6 0.593082 0.362070 0.274096
O O1 0.591876 0.224924 0.835121
O O2 0.745902 0.236824 0.888959
O O3 0.623674 0.983032 0.889917
O O4 0.795296 0.082248 0.786928
O O5 0.976695 0.008180 0.185209
O O6 0.000000 0.231887 0.250000
O O7 0.134821 0.232646 0.125007
O O8 0.750000 0.250000 0.500000
O O9 0.786717 0.497821 0.430648
O O10 0.638037 0.290623 0.426168
O O11 0.446143 0.794555 0.905461
O O12 0.250000 0.750000 0.000000
O O13 0.138323 0.248988 0.814236
O O14 0.500000 0.283350 0.250000
#
# Coordination Sequence:
#
# PCOD9303205 Si02
#       6
#     8   8   8   8   8   8
#     4  12  24  46  73 107 148 187 242 303 363 432
#     4  11  25  45  74 109 149 191 243 301 361 434
#     4  12  28  49  76 107 146 196 243 300 368 433
#     4  12  29  48  74 109 142 192 246 297 364 435
#     4  12  26  47  75 104 148 188 237 302 360 428
#     4  11  22  42  71 108 145 187 239 294 361 435
#
# _framework density 21.111810999999999
#
# number of rings (size 3 to 8) (size 9 to 14) (size 15 to 20)
#    0.000    0.333    3.333    6.000    4.667    4.000 
#    0.000    0.000    0.000    0.000    0.000    0.000 
#    0.000    0.000    0.000    0.000    0.000    0.000 
#
# Total GULP energy -134357.222473 kJ/mol
# GULP energy per Si atom -5598.217603 kJ/mol
# Density = 2.106376 g / cm^3
# Si number density = 21.111811 Si / 1000 Ang^3
#
#
#
# Elastic Constant Matrix: (Units=GPa)
#
#
# Indices 1 2 3 4 5 6 
#
# 1 142.2067 40.8742 43.1789 0.0000 24.6976 0.0000
# 2 40.8742 100.3963 50.3602 0.0000 4.8594 0.0000
# 3 43.1789 50.3602 113.3436 0.0000 8.8695 0.0000
# 4 0.0000 0.0000 0.0000 32.9609 0.0000 6.2614
# 5 24.6976 4.8594 8.8695 0.0000 35.1745 0.0000
# 6 0.0000 0.0000 0.0000 6.2614 0.0000 42.4955
#
#
#
# Elastic Compliance Matrix: (Units=1/GPa)
#
#
# Indices 1 2 3 4 5 6 
#
# 1 0.009358 -0.002534 -0.001992 0.000000 -0.005719 0.000000
# 2 -0.002534 0.013507 -0.005131 0.000000 0.001207 0.000000
# 3 -0.001992 -0.005131 0.011932 0.000000 -0.000901 0.000000
# 4 0.000000 0.000000 0.000000 0.031213 0.000000 -0.004599
# 5 -0.005719 0.001207 -0.000901 0.000000 0.032506 0.000000
# 6 0.000000 0.000000 0.000000 -0.004599 0.000000 0.024210
#
#
# Mechanical properties :
#
#
# Convention : Reuss Voigt Hill
#
# Bulk Modulus (GPa) = 64.58071 69.41924 66.99997
# Shear Modulus (GPa) = 33.96755 36.89506 35.43131
#
# Velocity S-wave (km/s) = 4.01551 4.18497 4.10111
# Velocity P-wave (km/s) = 7.22186 7.50367 7.36411
#
# Compressibility (1/GPa) = 0.01548450
#
# Stress axis : x y z
#
# Youngs Moduli (GPa) = 106.85682 74.03338 83.81124
#
# Poissons Ratio (x) = 0.18762 0.16692
# Poissons Ratio (y) = 0.27080 0.43000
# Poissons Ratio (z) = 0.21282 0.37983
#
# Static dielectric constant tensor:
#      x y z
#    x 1.756710 0.000000 0.002700 
#    y 0.000000 1.763330 0.000000 
#    z 0.002700 0.000000 1.655440 
# 
# From -- ./inp_files/268013.got.cif
#   From: 2010.05.17/outbox.cif.g08.bks.cpg/sg15_135_cif.got.tgz:268013.got - 2010.06.03 18:47:42.
