data_PCOD9303381
_publ_section_title
;
Structure prediction by ZEFSAII (Michael W. Deem and Ramdas Pophale) SiO2 
 PCOD9303381
Probable space group: C 2/C
;
_chemical_formula_sum "Si O2"
_cell_formula_units_Z 44
_cell_length_a 17.091919
_cell_length_b 14.825723
_cell_length_c 7.249558
_cell_angle_alpha 90.000000
_cell_angle_beta 66.697090
_cell_angle_gamma 90.000000
_cell_volume 1687.184371
_symmetry_space_group_name_H-M "C 2/C"
_symmetry_group_IT_number 15
_symmetry_cell_setting 'monoclinic'
loop_
_space_group_symop_operation_xyz
x,y,z
-x,y,1/2-z
-x,-y,-z
x,-y,1/2+z
1/2+x,1/2+y,z
1/2-x,1/2+y,1/2-z
1/2-x,1/2-y,-z
1/2+x,1/2-y,1/2+z
loop_
_atom_site_type_symbol
_atom_site_label
_atom_site_fract_x
_atom_site_fract_y
_atom_site_fract_z
Si Si1 0.932542 0.556524 0.175719
Si Si2 0.000000 0.862502 0.750000
Si Si3 0.806219 0.602256 0.736137
Si Si4 0.624778 0.714230 0.443771
Si Si5 0.693101 0.191682 0.381649
Si Si6 0.124013 0.882276 0.323429
O O1 0.860479 0.479592 0.272742
O O2 0.882820 0.628828 0.110424
O O3 0.000000 0.601043 0.250000
O O4 0.000000 0.500000 0.000000
O O5 0.939254 0.804932 0.667286
O O6 0.058455 0.916799 0.543792
O O7 0.855380 0.676179 0.558286
O O8 0.716560 0.567708 0.734139
O O9 0.789751 0.665842 0.925933
O O10 0.719984 0.678494 0.311557
O O11 0.903737 0.846962 0.354028
O O12 0.652813 0.287427 0.380715
#
# Coordination Sequence:
#
# PCOD9303381 Si02
#       6
#     8   4   8   8   8   8
#     4  12  28  39  63 103 139 178 217 266 341 410
#     4  12  22  40  64 102 120 168 226 282 328 364
#     4  11  22  44  62  92 139 185 214 273 341 398
#     4  11  24  40  68  95 134 179 225 276 326 396
#     4  11  22  44  62  91 139 184 218 269 336 402
#     4  11  24  40  69  93 134 176 229 276 328 394
#
# _framework density 26.078949000000001
#
# number of rings (size 3 to 8) (size 9 to 14) (size 15 to 20)
#    0.000    0.727    5.455    3.818    8.909    0.000 
#    0.000    0.000    0.000    1.091    0.000    0.000 
#    0.000    0.000    0.000    0.000    0.000    0.000 
#
# Total GULP energy -122661.895009 kJ/mol
# GULP energy per Si atom -5575.540682 kJ/mol
# Density = 2.601959 g / cm^3
# Si number density = 26.078949 Si / 1000 Ang^3
#
#
#
# Elastic Constant Matrix: (Units=GPa)
#
#
# Indices 1 2 3 4 5 6 
#
# 1 178.5145 23.0538 43.8650 0.0000 9.9451 0.0000
# 2 23.0538 36.0596 -21.9168 0.0000 -1.8539 0.0000
# 3 43.8650 -21.9168 135.2208 0.0000 -5.2501 0.0000
# 4 0.0000 0.0000 0.0000 8.0450 0.0000 -8.0265
# 5 9.9451 -1.8539 -5.2501 0.0000 55.0811 0.0000
# 6 0.0000 0.0000 0.0000 -8.0265 0.0000 43.4452
#
#
#
# Elastic Compliance Matrix: (Units=1/GPa)
#
#
# Indices 1 2 3 4 5 6 
#
# 1 0.007540 -0.007159 -0.003682 0.000000 -0.001953 0.000000
# 2 -0.007159 0.037686 0.008562 0.000000 0.003377 0.000000
# 3 -0.003682 0.008562 0.010052 0.000000 0.001911 0.000000
# 4 0.000000 0.000000 0.000000 0.152391 0.000000 0.028154
# 5 -0.001953 0.003377 0.001911 0.000000 0.018804 0.000000
# 6 0.000000 0.000000 0.000000 0.028154 0.000000 0.028219
#
#
# Mechanical properties :
#
#
# Convention : Reuss Voigt Hill
#
# Bulk Modulus (GPa) = 19.71651 48.86656 34.29154
# Shear Modulus (GPa) = 18.10573 41.63379 29.86976
#
# Velocity S-wave (km/s) = 2.63775 3.99990 3.38799
# Velocity P-wave (km/s) = 4.10533 6.33331 5.33688
#
# Compressibility (1/GPa) = 0.05071891
#
# Stress axis : x y z
#
# Youngs Moduli (GPa) = 132.62856 26.53514 99.48653
#
# Poissons Ratio (x) = 0.18996 0.36631
# Poissons Ratio (y) = 0.94945 -0.85176
# Poissons Ratio (z) = 0.48834 -0.22718
#
# Static dielectric constant tensor:
#      x y z
#    x 1.781900 0.000000 -0.109180 
#    y 0.000000 2.150650 0.000000 
#    z -0.109180 0.000000 2.236800 
# 
# From -- ./inp_files/39050.got.cif
#   From: 2010.05.17/outbox.cif.g08.bks.cpg/sg15_20_cif.got.tgz:39050.got - 2010.06.03 18:47:42.
