data_PCOD9303738
_publ_section_title
;
Structure prediction by ZEFSAII (Michael W. Deem and Ramdas Pophale) SiO2 
 PCOD9303738
Probable space group: C 2/C
;
_chemical_formula_sum "Si O2"
_cell_formula_units_Z 40
_cell_length_a 23.370246
_cell_length_b 15.016448
_cell_length_c 7.469862
_cell_angle_alpha 90.000000
_cell_angle_beta 131.410777
_cell_angle_gamma 90.000000
_cell_volume 1966.059342
_symmetry_space_group_name_H-M "C 2/C"
_symmetry_group_IT_number 15
_symmetry_cell_setting 'monoclinic'
loop_
_space_group_symop_operation_xyz
x,y,z
-x,y,1/2-z
-x,-y,-z
x,-y,1/2+z
1/2+x,1/2+y,z
1/2-x,1/2+y,1/2-z
1/2-x,1/2-y,-z
1/2+x,1/2-y,1/2+z
loop_
_atom_site_type_symbol
_atom_site_label
_atom_site_fract_x
_atom_site_fract_y
_atom_site_fract_z
Si Si1 0.784591 0.847747 0.546420
Si Si2 0.588649 0.690038 0.907408
Si Si3 0.917174 0.598513 0.153810
Si Si4 0.295390 0.658793 0.642887
Si Si5 0.320731 0.008852 0.192518
O O1 0.750000 0.750000 0.500000
O O2 0.801620 0.855790 0.368906
O O3 0.722039 0.920764 0.476922
O O4 0.859176 0.849577 0.826398
O O5 0.500000 0.668993 0.750000
O O6 0.595925 0.798356 0.917845
O O7 0.624116 0.660654 0.791838
O O8 0.899125 0.566380 0.315239
O O9 0.000000 0.576669 0.250000
O O10 0.849261 0.538841 0.932894
O O11 0.250000 0.750000 0.500000
O O12 0.245264 0.581364 0.450700
#
# Coordination Sequence:
#
# PCOD9303738 Si02
#       5
#     8   8   8   8   8
#     4  12  23  41  69  96 126 173 223 264 319 388
#     4  11  25  46  66  95 136 170 214 278 327 379
#     4  11  23  38  62  99 134 168 206 262 339 393
#     4  12  23  41  69  96 126 173 223 264 319 388
#     4  12  21  40  63  94 128 168 216 266 313 390
#
# _framework density 20.345267
#
# number of rings (size 3 to 8) (size 9 to 14) (size 15 to 20)
#    0.000    0.400    8.000    1.800    0.000    0.800 
#    0.000    1.000    0.000    0.000    0.000    0.000 
#    0.000    0.000    0.000    0.000    0.000    0.000 
#
# Total GULP energy -111378.162862 kJ/mol
# GULP energy per Si atom -5568.908143 kJ/mol
# Density = 2.029896 g / cm^3
# Si number density = 20.345267 Si / 1000 Ang^3
#
#
#
# Elastic Constant Matrix: (Units=GPa)
#
#
# Indices 1 2 3 4 5 6 
#
# 1 165.5081 21.4012 37.6927 0.0000 20.6695 0.0000
# 2 21.4012 95.7583 7.9655 0.0000 18.0484 0.0000
# 3 37.6927 7.9655 69.6198 0.0000 -0.8594 0.0000
# 4 0.0000 0.0000 0.0000 30.4836 0.0000 7.7754
# 5 20.6695 18.0484 -0.8594 0.0000 36.2129 0.0000
# 6 0.0000 0.0000 0.0000 7.7754 0.0000 37.3333
#
#
#
# Elastic Compliance Matrix: (Units=1/GPa)
#
#
# Indices 1 2 3 4 5 6 
#
# 1 0.007560 -0.000573 -0.004079 0.000000 -0.004127 0.000000
# 2 -0.000573 0.011705 -0.001098 0.000000 -0.005533 0.000000
# 3 -0.004079 -0.001098 0.016738 0.000000 0.003272 0.000000
# 4 0.000000 0.000000 0.000000 0.034645 0.000000 -0.007215
# 5 -0.004127 -0.005533 0.003272 0.000000 0.032805 0.000000
# 6 0.000000 0.000000 0.000000 -0.007215 0.000000 0.028289
#
#
# Mechanical properties :
#
#
# Convention : Reuss Voigt Hill
#
# Bulk Modulus (GPa) = 40.80671 51.66722 46.23697
# Shear Modulus (GPa) = 33.02340 38.39442 35.70891
#
# Velocity S-wave (km/s) = 4.03320 4.34884 4.19399
# Velocity P-wave (km/s) = 6.46449 7.11807 6.79913
#
# Compressibility (1/GPa) = 0.02450577
#
# Stress axis : x y z
#
# Youngs Moduli (GPa) = 132.27062 85.43301 59.74467
#
# Poissons Ratio (x) = 0.04892 0.24368
# Poissons Ratio (y) = 0.07574 0.06557
# Poissons Ratio (z) = 0.53948 0.09376
#
# Static dielectric constant tensor:
#      x y z
#    x 2.186890 0.000000 -0.240280 
#    y 0.000000 1.688980 0.000000 
#    z -0.240280 0.000000 1.852380 
# 
# From -- ./inp_files/61316.got.cif
#   From: 2010.05.17/outbox.cif.g08.bks.cpg/sg15_31_cif.got.tgz:61316.got - 2010.06.03 18:47:42.
