data_PCOD9303570
_publ_section_title
;
Structure prediction by ZEFSAII (Michael W. Deem and Ramdas Pophale) SiO2 
 PCOD9303570
Probable space group: C 2/C
;
_chemical_formula_sum "Si O2"
_cell_formula_units_Z 36
_cell_length_a 15.107679
_cell_length_b 12.886711
_cell_length_c 12.058581
_cell_angle_alpha 90.000000
_cell_angle_beta 40.623956
_cell_angle_gamma 90.000000
_cell_volume 1528.544717
_symmetry_space_group_name_H-M "C 2/C"
_symmetry_group_IT_number 15
_symmetry_cell_setting 'monoclinic'
loop_
_space_group_symop_operation_xyz
x,y,z
-x,y,1/2-z
-x,-y,-z
x,-y,1/2+z
1/2+x,1/2+y,z
1/2-x,1/2+y,1/2-z
1/2-x,1/2-y,-z
1/2+x,1/2-y,1/2+z
loop_
_atom_site_type_symbol
_atom_site_label
_atom_site_fract_x
_atom_site_fract_y
_atom_site_fract_z
Si Si1 0.738512 0.731486 0.878174
Si Si2 0.537618 0.725541 0.496365
Si Si3 0.717741 0.013165 0.575502
Si Si4 0.000000 0.914423 0.250000
Si Si5 0.972788 0.443147 0.914590
O O1 0.593721 0.743028 0.956488
O O2 0.774767 0.608172 0.846848
O O3 0.844340 0.798752 0.705209
O O4 0.750000 0.750000 0.000000
O O5 0.500465 0.650306 0.633935
O O6 0.589356 0.830993 0.506604
O O7 0.623032 0.923872 0.719713
O O8 0.619829 0.025909 0.563099
O O9 0.864315 0.981945 0.393367
O O10 0.000000 0.500000 0.000000
#
# Coordination Sequence:
#
# PCOD9303570 Si02
#       5
#     8   8   8   4   8
#     4  12  27  46  72 108 144 196 238 311 362 448
#     4  12  26  48  76 104 151 188 254 294 378 442
#     4  11  26  44  71 105 148 178 250 293 372 433
#     4  12  28  46  72 116 146 194 232 326 376 434
#     4  11  22  45  74 101 135 199 240 294 350 460
#
# _framework density 23.551815000000001
#
# number of rings (size 3 to 8) (size 9 to 14) (size 15 to 20)
#    0.000    0.444    2.222    6.000    6.222    3.556 
#    0.000    0.000    0.000    0.000    0.000    0.000 
#    0.000    0.000    0.000    0.000    0.000    0.000 
#
# Total GULP energy -100394.723275 kJ/mol
# GULP energy per Si atom -5577.484626 kJ/mol
# Density = 2.349821 g / cm^3
# Si number density = 23.551815 Si / 1000 Ang^3
#
#
#
# Elastic Constant Matrix: (Units=GPa)
#
#
# Indices 1 2 3 4 5 6 
#
# 1 137.3370 1.3146 58.6859 0.0000 -1.9779 0.0000
# 2 1.3146 39.4305 1.4962 0.0000 3.9482 0.0000
# 3 58.6859 1.4962 180.9434 0.0000 -3.4897 0.0000
# 4 0.0000 0.0000 0.0000 34.4497 0.0000 10.4270
# 5 -1.9779 3.9482 -3.4897 0.0000 49.7037 0.0000
# 6 0.0000 0.0000 0.0000 10.4270 0.0000 36.2126
#
#
#
# Elastic Compliance Matrix: (Units=1/GPa)
#
#
# Indices 1 2 3 4 5 6 
#
# 1 0.008455 -0.000194 -0.002738 0.000000 0.000160 0.000000
# 2 -0.000194 0.025580 -0.000188 0.000000 -0.002053 0.000000
# 3 -0.002738 -0.000188 0.006423 0.000000 0.000357 0.000000
# 4 0.000000 0.000000 0.000000 0.031799 0.000000 -0.009156
# 5 0.000160 -0.002053 0.000357 0.000000 0.020314 0.000000
# 6 0.000000 0.000000 0.000000 -0.009156 0.000000 0.030251
#
#
# Mechanical properties :
#
#
# Convention : Reuss Voigt Hill
#
# Bulk Modulus (GPa) = 29.22369 53.41157 41.31763
# Shear Modulus (GPa) = 35.59517 43.82083 39.70800
#
# Velocity S-wave (km/s) = 3.89183 4.31816 4.11053
# Velocity P-wave (km/s) = 5.71230 6.89852 6.33324
#
# Compressibility (1/GPa) = 0.03421881
#
# Stress axis : x y z
#
# Youngs Moduli (GPa) = 118.26821 39.09271 155.69178
#
# Poissons Ratio (x) = 0.00758 0.42623
# Poissons Ratio (y) = 0.02294 0.02930
# Poissons Ratio (z) = 0.32378 0.00736
#
# Static dielectric constant tensor:
#      x y z
#    x 1.907470 0.000000 0.113560 
#    y 0.000000 1.967050 0.000000 
#    z 0.113560 0.000000 2.075180 
# 
# From -- ./inp_files/96793.got.cif
#   From: 2010.05.17/outbox.cif.g08.bks.cpg/sg15_49_cif.got.tgz:96793.got - 2010.06.03 18:47:42.
