data_PCOD9303472
_publ_section_title
;
Structure prediction by ZEFSAII (Michael W. Deem and Ramdas Pophale) SiO2 
 PCOD9303472
Probable space group: C 2/C
;
_chemical_formula_sum "Si O2"
_cell_formula_units_Z 56
_cell_length_a 25.643326
_cell_length_b 14.551572
_cell_length_c 13.601908
_cell_angle_alpha 90.000000
_cell_angle_beta 28.938168
_cell_angle_gamma 90.000000
_cell_volume 2455.888992
_symmetry_space_group_name_H-M "C 2/C"
_symmetry_group_IT_number 15
_symmetry_cell_setting 'monoclinic'
loop_
_space_group_symop_operation_xyz
x,y,z
-x,y,1/2-z
-x,-y,-z
x,-y,1/2+z
1/2+x,1/2+y,z
1/2-x,1/2+y,1/2-z
1/2-x,1/2-y,-z
1/2+x,1/2-y,1/2+z
loop_
_atom_site_type_symbol
_atom_site_label
_atom_site_fract_x
_atom_site_fract_y
_atom_site_fract_z
Si Si1 0.605588 0.971700 0.264872
Si Si2 0.699348 0.717745 0.684564
Si Si3 0.536389 0.767686 0.407825
Si Si4 0.748767 0.477256 0.128854
Si Si5 0.811161 0.976375 0.556435
Si Si6 0.923753 0.936013 0.695241
Si Si7 0.607842 0.724885 0.511831
O O1 0.594587 0.860436 0.276229
O O2 0.500000 0.000000 0.500000
O O3 0.705089 0.012806 0.163738
O O4 0.631355 0.015431 0.114563
O O5 0.750000 0.750000 0.500000
O O6 0.593507 0.777281 0.877722
O O7 0.682687 0.609833 0.696235
O O8 0.788550 0.719343 0.622385
O O9 0.548059 0.670141 0.333837
O O10 0.578158 0.744856 0.448721
O O11 0.726744 0.477088 0.280042
O O12 0.688071 0.564166 0.181369
O O13 0.855039 0.877530 0.518233
O O14 0.902705 0.019652 0.335998
O O15 0.000000 0.000000 0.500000
O O16 0.500000 0.747489 0.750000
#
# Coordination Sequence:
#
# PCOD9303472 Si02
#       7
#     8   8   8   8   8   8   8
#     4  11  26  47  70 101 147 195 238 306 377 440
#     4  12  23  42  68 104 142 191 251 300 358 452
#     4  12  24  45  74 104 149 198 243 310 382 437
#     4  11  24  43  69  99 140 186 241 298 368 440
#     4  11  25  44  69 104 142 187 245 303 366 445
#     4  11  22  44  73 103 144 184 244 312 368 427
#     4  12  24  40  72 108 142 191 255 302 361 442
#
# _framework density 22.802332
#
# number of rings (size 3 to 8) (size 9 to 14) (size 15 to 20)
#    0.000    0.571    4.286    5.143    0.000    2.857 
#    2.571    0.000    0.000    0.000    0.000    0.000 
#    0.000    0.000    0.000    0.000    0.000    0.000 
#
# Total GULP energy -156246.259269 kJ/mol
# GULP energy per Si atom -5580.223545 kJ/mol
# Density = 2.275043 g / cm^3
# Si number density = 22.802332 Si / 1000 Ang^3
#
#
#
# Elastic Constant Matrix: (Units=GPa)
#
#
# Indices 1 2 3 4 5 6 
#
# 1 79.9523 14.4724 53.6071 0.0000 4.8135 0.0000
# 2 14.4724 116.6524 37.4989 0.0000 13.5496 0.0000
# 3 53.6071 37.4989 123.3979 0.0000 13.1098 0.0000
# 4 0.0000 0.0000 0.0000 38.0272 0.0000 0.4759
# 5 4.8135 13.5496 13.1098 0.0000 56.6888 0.0000
# 6 0.0000 0.0000 0.0000 0.4759 0.0000 18.5880
#
#
#
# Elastic Compliance Matrix: (Units=1/GPa)
#
#
# Indices 1 2 3 4 5 6 
#
# 1 0.017661 0.000284 -0.007783 0.000000 0.000232 0.000000
# 2 0.000284 0.009657 -0.002881 0.000000 -0.001666 0.000000
# 3 -0.007783 -0.002881 0.012525 0.000000 -0.001547 0.000000
# 4 0.000000 0.000000 0.000000 0.026305 0.000000 -0.000674
# 5 0.000232 -0.001666 -0.001547 0.000000 0.018376 0.000000
# 6 0.000000 0.000000 0.000000 -0.000674 0.000000 0.053815
#
#
# Mechanical properties :
#
#
# Convention : Reuss Voigt Hill
#
# Bulk Modulus (GPa) = 52.40546 59.01772 55.71159
# Shear Modulus (GPa) = 30.21867 36.95575 33.58721
#
# Velocity S-wave (km/s) = 3.64434 4.03016 3.84210
# Velocity P-wave (km/s) = 6.38284 6.89889 6.64588
#
# Compressibility (1/GPa) = 0.01908198
#
# Stress axis : x y z
#
# Youngs Moduli (GPa) = 56.62323 103.55327 79.84104
#
# Poissons Ratio (x) = -0.02940 0.62142
# Poissons Ratio (y) = -0.01608 0.23002
# Poissons Ratio (z) = 0.44071 0.29833
#
# Static dielectric constant tensor:
#      x y z
#    x 2.013500 0.000000 -0.140470 
#    y 0.000000 2.010430 0.000000 
#    z -0.140470 0.000000 2.124910 
# 
# From -- ./inp_files/178360.got.cif
#   From: 2010.05.17/outbox.cif.g08.bks.cpg/sg15_90_cif.got.tgz:178360.got - 2010.06.03 18:47:42.
