data_PCOD9303578
_publ_section_title
;
Structure prediction by ZEFSAII (Michael W. Deem and Ramdas Pophale) SiO2 
 PCOD9303578
Probable space group: C 2/C
;
_chemical_formula_sum "Si O2"
_cell_formula_units_Z 64
_cell_length_a 14.573448
_cell_length_b 14.255332
_cell_length_c 17.639199
_cell_angle_alpha 90.000000
_cell_angle_beta 50.291590
_cell_angle_gamma 90.000000
_cell_volume 2819.145631
_symmetry_space_group_name_H-M "C 2/C"
_symmetry_group_IT_number 15
_symmetry_cell_setting 'monoclinic'
loop_
_space_group_symop_operation_xyz
x,y,z
-x,y,1/2-z
-x,-y,-z
x,-y,1/2+z
1/2+x,1/2+y,z
1/2-x,1/2+y,1/2-z
1/2-x,1/2-y,-z
1/2+x,1/2-y,1/2+z
loop_
_atom_site_type_symbol
_atom_site_label
_atom_site_fract_x
_atom_site_fract_y
_atom_site_fract_z
Si Si1 0.737730 0.344751 0.738055
Si Si2 0.879606 0.996919 0.113045
Si Si3 0.463553 0.099324 0.055052
Si Si4 0.231088 0.459794 0.049404
Si Si5 0.986888 0.657342 0.881964
Si Si6 0.236065 0.854843 0.221051
Si Si7 0.392304 0.657649 0.348078
Si Si8 0.708582 0.846197 0.484274
O O1 0.645704 0.399333 0.840145
O O2 0.843858 0.416156 0.664222
O O3 0.792741 0.253329 0.746594
O O4 0.687367 0.316986 0.682478
O O5 0.778580 0.959782 0.108930
O O6 0.861346 0.924631 0.192093
O O7 0.000000 0.000000 0.000000
O O8 0.445104 0.165049 0.991548
O O9 0.565955 0.145059 0.050928
O O10 0.500000 0.000000 0.000000
O O11 0.095731 0.423560 0.110800
O O12 0.314154 0.396463 0.950884
O O13 0.246287 0.565765 0.014105
O O14 0.950988 0.751468 0.856499
O O15 0.128216 0.637695 0.815393
O O16 0.246223 0.863575 0.125246
O O17 0.500000 0.601388 0.250000
O O18 0.750000 0.750000 0.500000
#
# Coordination Sequence:
#
# PCOD9303578 Si02
#       8
#     8   8   8   8   8   8   8   8
#     4  12  24  45  68 104 143 192 245 301 381 447
#     4  12  29  47  68 106 153 199 246 309 384 454
#     4  11  22  45  76 102 142 191 247 307 371 447
#     4  12  25  43  73 103 146 192 248 307 371 439
#     4  11  23  41  73 111 139 182 244 312 372 437
#     4  11  26  46  76 105 149 191 248 308 383 453
#     4  12  23  41  68 110 147 183 243 304 371 450
#     4  11  25  49  75 109 149 195 253 313 374 455
#
# _framework density 22.701913999999999
#
# number of rings (size 3 to 8) (size 9 to 14) (size 15 to 20)
#    0.000    0.500    3.750    4.875    1.750    2.000 
#    0.000    3.125    0.000    0.000    0.000    0.000 
#    0.000    0.000    0.000    0.000    0.000    0.000 
#
# Total GULP energy -178942.424194 kJ/mol
# GULP energy per Si atom -5591.950756 kJ/mol
# Density = 2.265024 g / cm^3
# Si number density = 22.701914 Si / 1000 Ang^3
#
#
#
# Elastic Constant Matrix: (Units=GPa)
#
#
# Indices 1 2 3 4 5 6 
#
# 1 61.6031 12.2432 29.9489 0.0000 -0.5119 0.0000
# 2 12.2432 113.1369 37.4895 0.0000 -8.4403 0.0000
# 3 29.9489 37.4895 120.3571 0.0000 -5.4779 0.0000
# 4 0.0000 0.0000 0.0000 34.4841 0.0000 6.5145
# 5 -0.5119 -8.4403 -5.4779 0.0000 33.1784 0.0000
# 6 0.0000 0.0000 0.0000 6.5145 0.0000 31.8629
#
#
#
# Elastic Compliance Matrix: (Units=1/GPa)
#
#
# Indices 1 2 3 4 5 6 
#
# 1 0.018507 -0.000571 -0.004454 0.000000 -0.000595 0.000000
# 2 -0.000571 0.010009 -0.002882 0.000000 0.002062 0.000000
# 3 -0.004454 -0.002882 0.010356 0.000000 0.000908 0.000000
# 4 0.000000 0.000000 0.000000 0.030164 0.000000 -0.006167
# 5 -0.000595 0.002062 0.000908 0.000000 0.030805 0.000000
# 6 0.000000 0.000000 0.000000 -0.006167 0.000000 0.032645
#
#
# Mechanical properties :
#
#
# Convention : Reuss Voigt Hill
#
# Bulk Modulus (GPa) = 43.36934 50.49558 46.93246
# Shear Modulus (GPa) = 32.05383 34.26611 33.15997
#
# Velocity S-wave (km/s) = 3.76166 3.88931 3.82602
# Velocity P-wave (km/s) = 6.16539 6.51614 6.34319
#
# Compressibility (1/GPa) = 0.02305776
#
# Stress axis : x y z
#
# Youngs Moduli (GPa) = 54.03347 99.90605 96.56256
#
# Poissons Ratio (x) = 0.05706 0.43012
# Poissons Ratio (y) = 0.03086 0.27828
# Poissons Ratio (z) = 0.24068 0.28791
#
# Static dielectric constant tensor:
#      x y z
#    x 1.881240 0.000000 -0.019870 
#    y 0.000000 1.874870 0.000000 
#    z -0.019870 0.000000 1.898610 
# 
# From -- ./inp_files/205697.got.cif
#   From: 2010.05.17/outbox.cif.g08.bks.cpg/sg15_103_cif.got.tgz:205697.got - 2010.06.03 18:47:42.
