data_PCOD9303010
_publ_section_title
;
Structure prediction by ZEFSAII (Michael W. Deem and Ramdas Pophale) SiO2 
 PCOD9303010
Probable space group: C 2/C
;
_chemical_formula_sum "Si O2"
_cell_formula_units_Z 56
_cell_length_a 8.169986
_cell_length_b 12.173150
_cell_length_c 27.449927
_cell_angle_alpha 90.000000
_cell_angle_beta 58.199857
_cell_angle_gamma 90.000000
_cell_volume 2320.218595
_symmetry_space_group_name_H-M "C 2/C"
_symmetry_group_IT_number 15
_symmetry_cell_setting 'monoclinic'
loop_
_space_group_symop_operation_xyz
x,y,z
-x,y,1/2-z
-x,-y,-z
x,-y,1/2+z
1/2+x,1/2+y,z
1/2-x,1/2+y,1/2-z
1/2-x,1/2-y,-z
1/2+x,1/2-y,1/2+z
loop_
_atom_site_type_symbol
_atom_site_label
_atom_site_fract_x
_atom_site_fract_y
_atom_site_fract_z
Si Si1 0.696212 0.562169 0.975646
Si Si2 0.667543 0.354821 0.579845
Si Si3 0.569250 0.470498 0.166573
Si Si4 0.534436 0.236199 0.335803
Si Si5 0.895250 0.342393 0.957145
Si Si6 0.679226 0.019315 0.280405
Si Si7 0.372350 0.164864 0.850569
O O1 0.839179 0.468919 0.973786
O O2 0.768879 0.603934 0.912231
O O3 0.500000 0.500000 0.000000
O O4 0.648379 0.649117 0.025295
O O5 0.616951 0.476223 0.607396
O O6 0.547336 0.271983 0.633206
O O7 0.890148 0.328645 0.556289
O O8 0.579346 0.339598 0.166966
O O9 0.353309 0.500923 0.216163
O O10 0.719054 0.518124 0.182152
O O11 0.409636 0.178272 0.397205
O O12 0.591621 0.140455 0.290007
O O13 0.722236 0.289552 0.333789
O O14 0.750000 0.250000 0.000000
O O15 0.525944 0.920242 0.304649
#
# Coordination Sequence:
#
# PCOD9303010 Si02
#       7
#     8   8   8   8   8   8   8
#     4  12  23  38  64 104 140 177 231 282 338 430
#     4  11  23  43  67 100 141 186 231 286 355 416
#     4  11  24  44  72  97 135 181 234 285 356 412
#     4  11  24  47  69 100 140 179 228 289 348 411
#     4  11  22  41  67  97 141 184 228 278 351 416
#     4  11  25  46  68 101 132 183 234 290 347 416
#     4  11  23  44  68  99 137 180 228 284 347 411
#
# _framework density 24.135657999999999
#
# number of rings (size 3 to 8) (size 9 to 14) (size 15 to 20)
#    0.000    0.857    4.286    4.286    2.000    2.857 
#    2.571    0.000    0.000    0.000    0.000    0.000 
#    0.000    0.000    0.000    0.000    0.000    0.000 
#
# Total GULP energy -156717.415028 kJ/mol
# GULP energy per Si atom -5597.050537 kJ/mol
# Density = 2.408072 g / cm^3
# Si number density = 24.135658 Si / 1000 Ang^3
#
#
#
# Elastic Constant Matrix: (Units=GPa)
#
#
# Indices 1 2 3 4 5 6 
#
# 1 47.4796 17.7514 21.2144 0.0000 0.4064 0.0000
# 2 17.7514 128.3969 17.0279 0.0000 1.2523 0.0000
# 3 21.2144 17.0279 90.7125 -0.0001 -2.6505 0.0000
# 4 0.0000 0.0000 -0.0001 15.2064 0.0000 -2.1284
# 5 0.4064 1.2523 -2.6505 0.0000 21.3249 0.0000
# 6 0.0000 0.0000 0.0000 -2.1284 0.0000 42.1360
#
#
#
# Elastic Compliance Matrix: (Units=1/GPa)
#
#
# Indices 1 2 3 4 5 6 
#
# 1 0.024407 -0.002671 -0.005235 0.000000 -0.000959 0.000000
# 2 -0.002671 0.008289 -0.000947 0.000000 -0.000554 0.000000
# 3 -0.005235 -0.000947 0.012476 0.000000 0.001706 0.000000
# 4 0.000000 0.000000 0.000000 0.066230 0.000000 0.003345
# 5 -0.000959 -0.000554 0.001706 0.000000 0.047156 0.000000
# 6 0.000000 0.000000 0.000000 0.003345 0.000000 0.023902
#
#
# Mechanical properties :
#
#
# Convention : Reuss Voigt Hill
#
# Bulk Modulus (GPa) = 36.40892 42.06406 39.23649
# Shear Modulus (GPa) = 23.88678 29.77316 26.82997
#
# Velocity S-wave (km/s) = 3.14934 3.51604 3.33773
# Velocity P-wave (km/s) = 5.32375 5.82661 5.58085
#
# Compressibility (1/GPa) = 0.02746579
#
# Stress axis : x y z
#
# Youngs Moduli (GPa) = 40.97128 120.64684 80.15555
#
# Poissons Ratio (x) = 0.32223 0.41959
# Poissons Ratio (y) = 0.10943 0.07594
# Poissons Ratio (z) = 0.21447 0.11431
#
# Static dielectric constant tensor:
#      x y z
#    x 1.655940 0.000000 0.088230 
#    y 0.000000 1.712920 0.000000 
#    z 0.088230 0.000000 1.878720 
# 
# From -- ./inp_files/307249.got.cif
#   From: 2010.05.17/outbox.cif.g08.bks.cpg/sg15_154_cif.got.tgz:307249.got - 2010.06.03 18:47:42.
