data_PCOD9303106
_publ_section_title
;
Structure prediction by ZEFSAII (Michael W. Deem and Ramdas Pophale) SiO2 
 PCOD9303106
Probable space group: C 2/C
;
_chemical_formula_sum "Si O2"
_cell_formula_units_Z 48
_cell_length_a 8.247503
_cell_length_b 29.044079
_cell_length_c 16.044949
_cell_angle_alpha 90.000000
_cell_angle_beta 145.772730
_cell_angle_gamma 90.000000
_cell_volume 2161.838135
_symmetry_space_group_name_H-M "C 2/C"
_symmetry_group_IT_number 15
_symmetry_cell_setting 'monoclinic'
loop_
_space_group_symop_operation_xyz
x,y,z
-x,y,1/2-z
-x,-y,-z
x,-y,1/2+z
1/2+x,1/2+y,z
1/2-x,1/2+y,1/2-z
1/2-x,1/2-y,-z
1/2+x,1/2-y,1/2+z
loop_
_atom_site_type_symbol
_atom_site_label
_atom_site_fract_x
_atom_site_fract_y
_atom_site_fract_z
Si Si1 0.919185 0.701280 0.313669
Si Si2 0.963758 0.199443 0.834355
Si Si3 0.670839 0.059563 0.908324
Si Si4 0.866610 0.102251 0.778819
Si Si5 0.254843 0.102462 0.217126
Si Si6 0.389163 0.031955 0.030840
O O1 0.808052 0.752260 0.291304
O O2 0.738213 0.654247 0.246838
O O3 0.000000 0.701970 0.250000
O O4 0.216958 0.697014 0.490845
O O5 0.828299 0.151147 0.808232
O O6 0.000000 0.203799 0.750000
O O7 0.500000 0.068377 0.750000
O O8 0.437588 0.080359 0.872180
O O9 0.686899 0.005574 0.930824
O O10 0.967311 0.084818 0.050364
O O11 0.000000 0.118186 0.750000
O O12 0.097372 0.063066 0.902704
O O13 0.500000 0.102671 0.250000
O O14 0.358378 0.065831 0.330628
O O15 0.500000 0.000000 0.000000
#
# Coordination Sequence:
#
# PCOD9303106 Si02
#       6
#     8   8   8   8   8   8
#     4   9  18  35  62  96 123 166 218 266 333 395
#     4   9  18  35  64  94 126 164 214 272 330 395
#     4  12  27  41  62  95 131 174 219 272 326 390
#     4  11  22  42  64  94 128 169 217 270 329 390
#     4  11  24  43  66  93 132 173 222 273 331 397
#     4  12  24  43  64  93 129 177 222 268 327 395
#
# _framework density 22.203327000000002
#
# number of rings (size 3 to 8) (size 9 to 14) (size 15 to 20)
#    0.000    1.333    3.333    2.500    2.333    2.000 
#    0.000    0.833    0.000    0.000    4.333    0.000 
#    0.000    0.000    0.000    0.000    0.000    0.000 
#
# Total GULP energy -133701.114690 kJ/mol
# GULP energy per Si atom -5570.879779 kJ/mol
# Density = 2.215279 g / cm^3
# Si number density = 22.203327 Si / 1000 Ang^3
#
#
#
# Elastic Constant Matrix: (Units=GPa)
#
#
# Indices 1 2 3 4 5 6 
#
# 1 31.1255 16.4351 23.4267 0.0000 -0.5387 0.0000
# 2 16.4351 255.5690 80.8000 0.0000 9.9517 0.0000
# 3 23.4267 80.8000 152.3858 0.0000 1.2374 0.0000
# 4 0.0000 0.0000 0.0000 61.6980 0.0000 1.2150
# 5 -0.5387 9.9517 1.2374 0.0000 34.8120 0.0000
# 6 0.0000 0.0000 0.0000 1.2150 0.0000 8.1988
#
#
#
# Elastic Compliance Matrix: (Units=1/GPa)
#
#
# Indices 1 2 3 4 5 6 
#
# 1 0.036464 -0.000730 -0.005226 0.000000 0.000959 0.000000
# 2 -0.000730 0.004771 -0.002407 0.000000 -0.001290 0.000000
# 3 -0.005226 -0.002407 0.008640 0.000000 0.000300 0.000000
# 4 0.000000 0.000000 0.000000 0.016255 0.000000 -0.002409
# 5 0.000959 -0.001290 0.000300 0.000000 0.029099 0.000000
# 6 0.000000 0.000000 0.000000 -0.002409 0.000000 0.122326
#
#
# Mechanical properties :
#
#
# Convention : Reuss Voigt Hill
#
# Bulk Modulus (GPa) = 30.16812 75.60044 52.88428
# Shear Modulus (GPa) = 20.38065 42.16964 31.27515
#
# Velocity S-wave (km/s) = 3.03299 4.36277 3.75718
# Velocity P-wave (km/s) = 5.08744 7.71371 6.53389
#
# Compressibility (1/GPa) = 0.03314758
#
# Stress axis : x y z
#
# Youngs Moduli (GPa) = 27.42453 209.59955 115.74548
#
# Poissons Ratio (x) = 0.15298 0.60494
# Poissons Ratio (y) = 0.02002 0.27861
# Poissons Ratio (z) = 0.14333 0.50452
#
# Static dielectric constant tensor:
#      x y z
#    x 2.763280 0.000000 0.009450 
#    y 0.000000 1.941830 0.000000 
#    z 0.009450 0.000000 1.808870 
# 
# From -- ./inp_files/194324.got.cif
#   From: 2010.05.17/outbox.cif.g08.bks.cpg/sg15_98_cif.got.tgz:194324.got - 2010.06.03 18:47:42.
