data_PCOD9303540
_publ_section_title
;
Structure prediction by ZEFSAII (Michael W. Deem and Ramdas Pophale) SiO2 
 PCOD9303540
Probable space group: C 2/C
;
_chemical_formula_sum "Si O2"
_cell_formula_units_Z 44
_cell_length_a 11.598722
_cell_length_b 14.440886
_cell_length_c 11.531187
_cell_angle_alpha 90.000000
_cell_angle_beta 101.543159
_cell_angle_gamma 90.000000
_cell_volume 1892.361113
_symmetry_space_group_name_H-M "C 2/C"
_symmetry_group_IT_number 15
_symmetry_cell_setting 'monoclinic'
loop_
_space_group_symop_operation_xyz
x,y,z
-x,y,1/2-z
-x,-y,-z
x,-y,1/2+z
1/2+x,1/2+y,z
1/2-x,1/2+y,1/2-z
1/2-x,1/2-y,-z
1/2+x,1/2-y,1/2+z
loop_
_atom_site_type_symbol
_atom_site_label
_atom_site_fract_x
_atom_site_fract_y
_atom_site_fract_z
Si Si1 0.683339 0.842702 0.155425
Si Si2 0.865602 0.552932 0.337232
Si Si3 0.688257 0.349562 0.961039
Si Si4 0.075251 0.832401 0.172323
Si Si5 0.903031 0.652088 0.108951
Si Si6 0.500000 0.719298 0.250000
O O1 0.803627 0.808003 0.237027
O O2 0.574463 0.782484 0.177213
O O3 0.662621 0.947172 0.193370
O O4 0.684141 0.841039 0.016239
O O5 0.787865 0.585094 0.429968
O O6 0.846465 0.616340 0.218089
O O7 0.001289 0.571442 0.395176
O O8 0.592726 0.337866 0.841935
O O9 0.750000 0.250000 0.000000
O O10 0.619041 0.377451 0.062985
O O11 0.000000 0.890901 0.250000
O O12 0.988782 0.744027 0.129048
#
# Coordination Sequence:
#
# PCOD9303540 Si02
#       6
#     8   8   8   8   8   4
#     4  12  26  40  74 104 140 180 227 285 357 394
#     4  11  24  43  66 106 143 175 223 296 341 404
#     4  12  22  43  69  97 141 177 235 280 332 416
#     4  12  25  46  67 101 139 185 232 278 336 417
#     4  11  22  45  70 101 143 175 234 281 341 408
#     4  12  22  40  70 108 124 190 230 278 342 408
#
# _framework density 23.251376
#
# number of rings (size 3 to 8) (size 9 to 14) (size 15 to 20)
#    0.000    0.364    7.273    1.636    2.545    2.182 
#    1.636    0.909    0.000    0.000    0.000    0.000 
#    0.000    0.000    0.000    0.000    0.000    0.000 
#
# Total GULP energy -123014.053388 kJ/mol
# GULP energy per Si atom -5591.547881 kJ/mol
# Density = 2.319845 g / cm^3
# Si number density = 23.251376 Si / 1000 Ang^3
#
#
#
# Elastic Constant Matrix: (Units=GPa)
#
#
# Indices 1 2 3 4 5 6 
#
# 1 83.8419 26.5433 14.0453 0.0000 -27.4296 0.0000
# 2 26.5433 61.3025 8.1396 0.0000 -1.6222 0.0000
# 3 14.0453 8.1396 142.2906 0.0000 -10.8043 0.0000
# 4 0.0000 0.0000 0.0000 18.4977 0.0000 -3.4504
# 5 -27.4296 -1.6222 -10.8043 0.0000 64.8386 0.0000
# 6 0.0000 0.0000 0.0000 -3.4504 0.0000 12.7993
#
#
#
# Elastic Compliance Matrix: (Units=1/GPa)
#
#
# Indices 1 2 3 4 5 6 
#
# 1 0.016379 -0.006820 -0.000723 0.000000 0.006638 0.000000
# 2 -0.006820 0.019282 -0.000620 0.000000 -0.002506 0.000000
# 3 -0.000723 -0.000620 0.007201 0.000000 0.000879 0.000000
# 4 0.000000 0.000000 0.000000 0.056923 0.000000 0.015345
# 5 0.006638 -0.002506 0.000879 0.000000 0.018315 0.000000
# 6 0.000000 0.000000 0.000000 0.015345 0.000000 0.082266
#
#
# Mechanical properties :
#
#
# Convention : Reuss Voigt Hill
#
# Bulk Modulus (GPa) = 37.68433 42.76570 40.22501
# Shear Modulus (GPa) = 22.16926 35.14092 28.65509
#
# Velocity S-wave (km/s) = 3.09117 3.89182 3.51437
# Velocity P-wave (km/s) = 5.38358 6.21512 5.81424
#
# Compressibility (1/GPa) = 0.02653623
#
# Stress axis : x y z
#
# Youngs Moduli (GPa) = 61.05296 51.86263 138.86200
#
# Poissons Ratio (x) = 0.35372 0.10034
# Poissons Ratio (y) = 0.41641 0.08610
# Poissons Ratio (z) = 0.04412 0.03216
#
# Static dielectric constant tensor:
#      x y z
#    x 1.881650 0.000000 -0.012020 
#    y 0.000000 1.874030 0.000000 
#    z -0.012020 0.000000 1.984140 
# 
# From -- ./inp_files/86147.got.cif
#   From: 2010.05.17/outbox.cif.g08.bks.cpg/sg15_44_cif.got.tgz:86147.got - 2010.06.03 18:47:42.
