data_PCOD9303894
_publ_section_title
;
Structure prediction by ZEFSAII (Michael W. Deem and Ramdas Pophale) SiO2 
 PCOD9303894
Probable space group: C 2/C
;
_chemical_formula_sum "Si O2"
_cell_formula_units_Z 36
_cell_length_a 9.566050
_cell_length_b 20.421377
_cell_length_c 8.556862
_cell_angle_alpha 90.000000
_cell_angle_beta 66.700963
_cell_angle_gamma 90.000000
_cell_volume 1535.285500
_symmetry_space_group_name_H-M "C 2/C"
_symmetry_group_IT_number 15
_symmetry_cell_setting 'monoclinic'
loop_
_space_group_symop_operation_xyz
x,y,z
-x,y,1/2-z
-x,-y,-z
x,-y,1/2+z
1/2+x,1/2+y,z
1/2-x,1/2+y,1/2-z
1/2-x,1/2-y,-z
1/2+x,1/2-y,1/2+z
loop_
_atom_site_type_symbol
_atom_site_label
_atom_site_fract_x
_atom_site_fract_y
_atom_site_fract_z
Si Si1 0.994064 0.405680 0.415337
Si Si2 0.144947 0.691710 0.103602
Si Si3 0.000000 0.902417 0.250000
Si Si4 0.250634 0.506995 0.330148
Si Si5 0.080196 0.879823 0.878479
O O1 0.071425 0.360874 0.514804
O O2 0.102743 0.468696 0.335437
O O3 0.000000 0.367069 0.250000
O O4 0.828686 0.436255 0.530079
O O5 0.257654 0.654564 0.170139
O O6 0.000000 0.722174 0.250000
O O7 0.250000 0.750000 0.000000
O O8 0.012464 0.869192 0.417377
O O9 0.147325 0.947260 0.156269
O O10 0.369397 0.544669 0.167948
O O11 0.000000 0.860671 0.750000
#
# Coordination Sequence:
#
# PCOD9303894 Si02
#       5
#     8   8   4   8   8
#     4  11  25  43  74 108 147 195 243 308 387 450
#     4  12  29  54  74 102 148 204 265 319 367 447
#     4  12  24  40  70 114 160 194 232 300 384 462
#     4  11  23  40  70 113 159 187 237 303 386 463
#     4  12  27  45  73 113 156 198 245 308 383 455
#
# _framework density 23.448408000000001
#
# number of rings (size 3 to 8) (size 9 to 14) (size 15 to 20)
#    0.000    0.444    5.556    2.000    7.778    0.889 
#    0.000    2.222    0.000    0.000    0.000    0.000 
#    0.000    0.000    0.000    0.000    0.000    0.000 
#
# Total GULP energy -100293.973758 kJ/mol
# GULP energy per Si atom -5571.887431 kJ/mol
# Density = 2.339504 g / cm^3
# Si number density = 23.448408 Si / 1000 Ang^3
#
#
#
# Elastic Constant Matrix: (Units=GPa)
#
#
# Indices 1 2 3 4 5 6 
#
# 1 130.6262 5.7214 76.1504 0.0000 3.1446 0.0000
# 2 5.7214 34.2523 22.2951 0.0000 -3.3004 0.0000
# 3 76.1504 22.2951 175.4577 0.0000 10.6254 0.0000
# 4 0.0000 0.0000 0.0000 27.9574 0.0000 -19.9515
# 5 3.1446 -3.3004 10.6254 0.0000 39.5386 0.0000
# 6 0.0000 0.0000 0.0000 -19.9515 0.0000 24.7871
#
#
#
# Elastic Compliance Matrix: (Units=1/GPa)
#
#
# Indices 1 2 3 4 5 6 
#
# 1 0.010313 0.001380 -0.004685 0.000000 0.000554 0.000000
# 2 0.001380 0.032586 -0.004979 0.000000 0.003948 0.000000
# 3 -0.004685 -0.004979 0.008506 0.000000 -0.002329 0.000000
# 4 0.000000 0.000000 0.000000 0.084047 0.000000 0.067650
# 5 0.000554 0.003948 -0.002329 0.000000 0.026203 0.000000
# 6 0.000000 0.000000 0.000000 0.067650 0.000000 0.094796
#
#
# Mechanical properties :
#
#
# Convention : Reuss Voigt Hill
#
# Bulk Modulus (GPa) = 28.70424 60.96331 44.83378
# Shear Modulus (GPa) = 17.56668 34.20125 25.88397
#
# Velocity S-wave (km/s) = 2.74005 3.82327 3.32606
# Velocity P-wave (km/s) = 4.72002 6.74872 5.82339
#
# Compressibility (1/GPa) = 0.03483805
#
# Stress axis : x y z
#
# Youngs Moduli (GPa) = 96.96808 30.68831 117.56053
#
# Poissons Ratio (x) = -0.04235 0.55074
# Poissons Ratio (y) = -0.13383 0.58530
# Poissons Ratio (z) = 0.45427 0.15279
#
# Static dielectric constant tensor:
#      x y z
#    x 1.922760 0.000000 0.094550 
#    y 0.000000 1.957030 0.000000 
#    z 0.094550 0.000000 2.100050 
# 
# From -- ./inp_files/23295.got.cif
#   From: 2010.05.17/outbox.cif.g08.bks.cpg/sg15_12_cif.got.tgz:23295.got - 2010.06.03 18:47:42.
