data_PCOD9303968
_publ_section_title
;
Structure prediction by ZEFSAII (Michael W. Deem and Ramdas Pophale) SiO2 
 PCOD9303968
Probable space group: C 2/C
;
_chemical_formula_sum "Si O2"
_cell_formula_units_Z 32
_cell_length_a 25.151274
_cell_length_b 5.240598
_cell_length_c 18.922504
_cell_angle_alpha 90.000000
_cell_angle_beta 31.339961
_cell_angle_gamma 90.000000
_cell_volume 1297.235307
_symmetry_space_group_name_H-M "C 2/C"
_symmetry_group_IT_number 15
_symmetry_cell_setting 'monoclinic'
loop_
_space_group_symop_operation_xyz
x,y,z
-x,y,1/2-z
-x,-y,-z
x,-y,1/2+z
1/2+x,1/2+y,z
1/2-x,1/2+y,1/2-z
1/2-x,1/2-y,-z
1/2+x,1/2-y,1/2+z
loop_
_atom_site_type_symbol
_atom_site_label
_atom_site_fract_x
_atom_site_fract_y
_atom_site_fract_z
Si Si1 0.745774 0.330854 0.087207
Si Si2 0.512857 0.591148 0.882845
Si Si3 0.553127 0.097864 0.618824
Si Si4 0.196351 0.086536 0.339360
O O1 0.635062 0.407736 0.243004
O O2 0.786271 0.116863 0.095908
O O3 0.750000 0.250000 0.000000
O O4 0.827605 0.555792 0.003860
O O5 0.476718 0.308339 0.903559
O O6 0.491665 0.821855 0.851347
O O7 0.423142 0.649775 0.042179
O O8 0.500000 0.189338 0.750000
O O9 0.264121 0.313268 0.229726
#
# Coordination Sequence:
#
# PCOD9303968 Si02
#       4
#     8   8   8   8
#     4  11  25  47  77 113 138 193 244 298 360 434
#     4  11  25  44  72 103 146 187 240 295 359 425
#     4  11  23  41  67 107 150 177 225 305 362 414
#     4  11  26  49  70 103 151 195 238 297 359 429
#
# _framework density 24.667846999999998
#
# number of rings (size 3 to 8) (size 9 to 14) (size 15 to 20)
#    0.000    1.000    2.500    3.750    3.500    9.000 
#    0.000    0.000    0.000    0.000    0.000    0.000 
#    0.000    0.000    0.000    0.000    0.000    0.000 
#
# Total GULP energy -89398.943424 kJ/mol
# GULP energy per Si atom -5587.433964 kJ/mol
# Density = 2.461170 g / cm^3
# Si number density = 24.667847 Si / 1000 Ang^3
#
#
#
# Elastic Constant Matrix: (Units=GPa)
#
#
# Indices 1 2 3 4 5 6 
#
# 1 91.5244 31.9900 45.6753 -0.0253 -12.2705 0.0000
# 2 31.9900 95.7663 14.1787 -0.0231 -7.2325 -0.0277
# 3 45.6753 14.1787 195.9592 -0.0070 -42.7338 0.0125
# 4 -0.0253 -0.0231 -0.0070 26.9801 0.0509 4.9982
# 5 -12.2705 -7.2325 -42.7338 0.0509 62.2562 -0.0248
# 6 0.0000 -0.0277 0.0125 4.9982 -0.0248 32.8172
#
#
#
# Elastic Compliance Matrix: (Units=1/GPa)
#
#
# Indices 1 2 3 4 5 6 
#
# 1 0.013856 -0.004183 -0.002866 0.000009 0.000277 -0.000004
# 2 -0.004183 0.011854 0.000280 0.000003 0.000745 0.000010
# 3 -0.002866 0.000280 0.006627 -0.000009 0.004016 0.000002
# 4 0.000009 0.000003 -0.000009 0.038141 -0.000037 -0.005809
# 5 0.000277 0.000745 0.004016 -0.000037 0.018961 0.000019
# 6 -0.000004 0.000010 0.000002 -0.005809 0.000019 0.031357
#
#
# Mechanical properties :
#
#
# Convention : Reuss Voigt Hill
#
# Bulk Modulus (GPa) = 53.19924 62.99309 58.09616
# Shear Modulus (GPa) = 35.56183 43.83777 39.69980
#
# Velocity S-wave (km/s) = 3.80100 4.22017 4.01605
# Velocity P-wave (km/s) = 6.39347 7.02413 6.71620
#
# Compressibility (1/GPa) = 0.01879726
#
# Stress axis : x y z
#
# Youngs Moduli (GPa) = 72.17182 84.35794 150.90134
#
# Poissons Ratio (x) = 0.35288 0.43255
# Poissons Ratio (y) = 0.30190 -0.04221
# Poissons Ratio (z) = 0.20688 -0.02359
#
# Static dielectric constant tensor:
#      x y z
#    x 2.086480 -0.000030 -0.044230 
#    y -0.000030 1.875700 0.000030 
#    z -0.044230 0.000030 2.023910 
# 
# From -- ./inp_files/250707.got.cif
#   From: 2010.05.17/outbox.cif.g08.bks.cpg/sg15_126_cif.got.tgz:250707.got - 2010.06.03 18:47:42.
