data_PCOD9303823
_publ_section_title
;
Structure prediction by ZEFSAII (Michael W. Deem and Ramdas Pophale) SiO2 
 PCOD9303823
Probable space group: C 2/C
;
_chemical_formula_sum "Si O2"
_cell_formula_units_Z 32
_cell_length_a 28.861283
_cell_length_b 5.090361
_cell_length_c 8.865252
_cell_angle_alpha 90.000000
_cell_angle_beta 94.385093
_cell_angle_gamma 90.000000
_cell_volume 1298.620091
_symmetry_space_group_name_H-M "C 2/C"
_symmetry_group_IT_number 15
_symmetry_cell_setting 'monoclinic'
loop_
_space_group_symop_operation_xyz
x,y,z
-x,y,1/2-z
-x,-y,-z
x,-y,1/2+z
1/2+x,1/2+y,z
1/2-x,1/2+y,1/2-z
1/2-x,1/2-y,-z
1/2+x,1/2-y,1/2+z
loop_
_atom_site_type_symbol
_atom_site_label
_atom_site_fract_x
_atom_site_fract_y
_atom_site_fract_z
Si Si1 0.224018 0.541312 0.388519
Si Si2 0.583619 0.635916 0.540223
Si Si3 0.315359 0.678166 0.863728
Si Si4 0.552287 0.844097 0.209804
O O1 0.250000 0.750000 0.500000
O O2 0.269117 0.472242 0.298790
O O3 0.202554 0.322660 0.491712
O O4 0.181028 0.624198 0.274247
O O5 0.636663 0.544332 0.586157
O O6 0.577302 0.727351 0.365859
O O7 0.552958 0.388453 0.584991
O O8 0.573052 0.891552 0.641201
O O9 0.500000 0.901988 0.250000
#
# Coordination Sequence:
#
# PCOD9303823 Si02
#       4
#     8   8   8   8
#     4  11  23  40  61  88 133 172 218 270 325 388
#     4  12  27  44  77 103 143 180 240 286 343 431
#     4  11  25  40  65  95 129 180 223 273 332 393
#     4  12  26  49  73 106 140 183 227 296 361 416
#
# _framework density 24.641541
#
# number of rings (size 3 to 8) (size 9 to 14) (size 15 to 20)
#    0.000    0.500    2.500    5.250    7.000    0.000 
#    0.000    0.000    0.000    0.000    0.000    0.000 
#    0.000    0.000    0.000    0.000    0.000    0.000 
#
# Total GULP energy -89425.369289 kJ/mol
# GULP energy per Si atom -5589.085581 kJ/mol
# Density = 2.458546 g / cm^3
# Si number density = 24.641541 Si / 1000 Ang^3
#
#
#
# Elastic Constant Matrix: (Units=GPa)
#
#
# Indices 1 2 3 4 5 6 
#
# 1 57.9955 -5.5562 -5.9058 0.0000 6.9395 0.0000
# 2 -5.5562 77.9817 0.7823 0.0000 -20.6824 0.0000
# 3 -5.9058 0.7823 84.4988 0.0000 -1.5185 0.0000
# 4 0.0000 0.0000 0.0000 43.9789 0.0000 -5.2233
# 5 6.9395 -20.6824 -1.5185 0.0000 32.5587 0.0000
# 6 0.0000 0.0000 0.0000 -5.2233 0.0000 20.6981
#
#
#
# Elastic Compliance Matrix: (Units=1/GPa)
#
#
# Indices 1 2 3 4 5 6 
#
# 1 0.017817 0.000319 0.001179 0.000000 -0.003540 0.000000
# 2 0.000319 0.015428 0.000054 0.000000 0.009735 0.000000
# 3 0.001179 0.000054 0.011922 0.000000 0.000339 0.000000
# 4 0.000000 0.000000 0.000000 0.023441 0.000000 0.005915
# 5 -0.003540 0.009735 0.000339 0.000000 0.037668 0.000000
# 6 0.000000 0.000000 0.000000 0.005915 0.000000 0.049806
#
#
# Mechanical properties :
#
#
# Convention : Reuss Voigt Hill
#
# Bulk Modulus (GPa) = 20.71657 22.12406 21.42031
# Shear Modulus (GPa) = 29.57381 34.85752 32.21566
#
# Velocity S-wave (km/s) = 3.46809 3.76518 3.61968
# Velocity P-wave (km/s) = 4.94594 5.28204 5.11675
#
# Compressibility (1/GPa) = 0.04827055
#
# Stress axis : x y z
#
# Youngs Moduli (GPa) = 56.12658 64.81915 83.87532
#
# Poissons Ratio (x) = -0.02066 -0.09886
# Poissons Ratio (y) = -0.01789 -0.00456
# Poissons Ratio (z) = -0.06616 -0.00353
#
# Static dielectric constant tensor:
#      x y z
#    x 2.209100 0.000000 0.114620 
#    y 0.000000 2.623780 0.000000 
#    z 0.114620 0.000000 2.097760 
# 
# From -- ./inp_files/67873.got.cif
#   From: 2010.05.17/outbox.cif.g08.bks.cpg/sg15_34_cif.got.tgz:67873.got - 2010.06.03 18:47:42.
