data_PCOD9303289
_publ_section_title
;
Structure prediction by ZEFSAII (Michael W. Deem and Ramdas Pophale) SiO2 
 PCOD9303289
Probable space group: C 2/C
;
_chemical_formula_sum "Si O2"
_cell_formula_units_Z 40
_cell_length_a 19.304752
_cell_length_b 12.387020
_cell_length_c 17.882013
_cell_angle_alpha 90.000000
_cell_angle_beta 21.555020
_cell_angle_gamma 90.000000
_cell_volume 1571.014325
_symmetry_space_group_name_H-M "C 2/C"
_symmetry_group_IT_number 15
_symmetry_cell_setting 'monoclinic'
loop_
_space_group_symop_operation_xyz
x,y,z
-x,y,1/2-z
-x,-y,-z
x,-y,1/2+z
1/2+x,1/2+y,z
1/2-x,1/2+y,1/2-z
1/2-x,1/2-y,-z
1/2+x,1/2-y,1/2+z
loop_
_atom_site_type_symbol
_atom_site_label
_atom_site_fract_x
_atom_site_fract_y
_atom_site_fract_z
Si Si1 0.216281 0.456531 0.061481
Si Si2 0.670746 0.594550 0.214302
Si Si3 0.263215 0.628649 0.814987
Si Si4 0.591465 0.830989 0.326254
Si Si5 0.089578 0.671076 0.237761
O O1 0.213332 0.377806 0.135018
O O2 0.243417 0.580539 0.060894
O O3 0.000000 0.454087 0.250000
O O4 0.330051 0.418902 0.874740
O O5 0.610897 0.478385 0.305888
O O6 0.568132 0.702869 0.341284
O O7 0.884443 0.616532 0.029110
O O8 0.191266 0.646465 0.804173
O O9 0.349434 0.734359 0.767830
O O10 0.077481 0.608848 0.051972
O O11 0.000000 0.713314 0.250000
#
# Coordination Sequence:
#
# PCOD9303289 Si02
#       5
#     8   8   8   8   8
#     4   9  19  40  68  88 126 173 213 259 318 386
#     4  11  23  44  63  97 129 179 218 262 326 389
#     4  12  24  41  68  98 133 170 217 272 330 380
#     4  11  23  40  67  93 136 169 214 270 325 387
#     4  11  22  43  68  96 131 170 218 267 323 388
#
# _framework density 25.461258999999998
#
# number of rings (size 3 to 8) (size 9 to 14) (size 15 to 20)
#    0.000    1.200    6.000    3.000    2.800    0.000 
#    3.600    5.000    0.000    0.000    0.000    0.000 
#    0.000    0.000    0.000    0.000    0.000    0.000 
#
# Total GULP energy -112078.499363 kJ/mol
# GULP energy per Si atom -5603.924968 kJ/mol
# Density = 2.540331 g / cm^3
# Si number density = 25.461259 Si / 1000 Ang^3
#
#
#
# Elastic Constant Matrix: (Units=GPa)
#
#
# Indices 1 2 3 4 5 6 
#
# 1 224.7787 69.8177 26.7251 0.0039 0.2311 -0.0026
# 2 69.8177 144.2530 -2.0099 0.0057 -18.2869 -0.0009
# 3 26.7251 -2.0099 25.2221 0.0202 3.8192 -0.0164
# 4 0.0039 0.0057 0.0202 43.3140 -0.0091 -18.6470
# 5 0.2311 -18.2869 3.8192 -0.0091 37.0837 0.0071
# 6 -0.0026 -0.0009 -0.0164 -18.6470 0.0071 52.6532
#
#
#
# Elastic Compliance Matrix: (Units=1/GPa)
#
#
# Indices 1 2 3 4 5 6 
#
# 1 0.006259 -0.003243 -0.006748 0.000002 -0.000943 -0.000001
# 2 -0.003243 0.009075 0.003534 -0.000002 0.004131 0.000000
# 3 -0.006748 0.003534 0.047551 -0.000019 -0.003112 0.000008
# 4 0.000002 -0.000002 -0.000019 0.027240 0.000006 0.009647
# 5 -0.000943 0.004131 -0.003112 0.000006 0.029330 -0.000003
# 6 -0.000001 0.000000 0.000008 0.009647 -0.000003 0.022409
#
#
# Mechanical properties :
#
#
# Convention : Reuss Voigt Hill
#
# Bulk Modulus (GPa) = 20.01170 64.81328 42.41249
# Shear Modulus (GPa) = 29.16553 46.59157 37.87855
#
# Velocity S-wave (km/s) = 3.38818 4.28237 3.86125
# Velocity P-wave (km/s) = 4.81488 7.06842 6.04754
#
# Compressibility (1/GPa) = 0.04997077
#
# Stress axis : x y z
#
# Youngs Moduli (GPa) = 159.75881 110.19422 21.03013
#
# Poissons Ratio (x) = 0.35737 0.14191
# Poissons Ratio (y) = 0.51812 -0.07432
# Poissons Ratio (z) = 1.07806 -0.38943
#
# Static dielectric constant tensor:
#      x y z
#    x 1.952000 0.000000 -0.045330 
#    y 0.000000 2.001300 0.000000 
#    z -0.045330 0.000000 2.093490 
# 
# From -- ./inp_files/46235.got.cif
#   From: 2010.05.17/outbox.cif.g08.bks.cpg/sg15_24_cif.got.tgz:46235.got - 2010.06.03 18:47:42.
