data_PCOD9303548
_publ_section_title
;
Structure prediction by ZEFSAII (Michael W. Deem and Ramdas Pophale) SiO2 
 PCOD9303548
Probable space group: C 2/C
;
_chemical_formula_sum "Si O2"
_cell_formula_units_Z 44
_cell_length_a 22.677752
_cell_length_b 14.161323
_cell_length_c 10.588058
_cell_angle_alpha 90.000000
_cell_angle_beta 145.410965
_cell_angle_gamma 90.000000
_cell_volume 1930.316326
_symmetry_space_group_name_H-M "C 2/C"
_symmetry_group_IT_number 15
_symmetry_cell_setting 'monoclinic'
loop_
_space_group_symop_operation_xyz
x,y,z
-x,y,1/2-z
-x,-y,-z
x,-y,1/2+z
1/2+x,1/2+y,z
1/2-x,1/2+y,1/2-z
1/2-x,1/2-y,-z
1/2+x,1/2-y,1/2+z
loop_
_atom_site_type_symbol
_atom_site_label
_atom_site_fract_x
_atom_site_fract_y
_atom_site_fract_z
Si Si1 0.892154 0.379439 0.994768
Si Si2 0.602546 0.559269 0.147807
Si Si3 0.729689 0.058617 0.658308
Si Si4 0.000000 0.846407 0.250000
Si Si5 0.118909 0.188210 0.409174
Si Si6 0.865721 0.708446 0.179316
O O1 0.847033 0.296077 0.005316
O O2 0.000000 0.406613 0.250000
O O3 0.823029 0.472041 0.862726
O O4 0.906348 0.331379 0.883600
O O5 0.699741 0.489804 0.324955
O O6 0.617065 0.647752 0.265266
O O7 0.500000 0.500000 0.000000
O O8 0.584866 0.592004 0.973022
O O9 0.647296 0.126042 0.446135
O O10 0.805911 0.878705 0.377631
O O11 0.058702 0.785481 0.247901
O O12 0.000000 0.181645 0.250000
O O13 0.750000 0.750000 0.000000
#
# Coordination Sequence:
#
# PCOD9303548 Si02
#       6
#     8   8   8   4   8   8
#     4  11  26  48  71 101 146 189 236 294 358 424
#     4  12  23  42  71 106 137 177 249 303 350 426
#     4  12  25  44  72 105 140 191 236 297 366 419
#     4  12  26  44  76 102 136 198 238 282 376 428
#     4  11  22  45  70  99 144 186 230 300 362 417
#     4  12  25  50  73 103 150 187 239 302 358 428
#
# _framework density 22.794191999999999
#
# number of rings (size 3 to 8) (size 9 to 14) (size 15 to 20)
#    0.000    0.364    3.636    6.545    1.273    1.455 
#    6.545    0.000    0.000    0.000    0.000    0.000 
#    0.000    0.000    0.000    0.000    0.000    0.000 
#
# Total GULP energy -123237.524196 kJ/mol
# GULP energy per Si atom -5601.705645 kJ/mol
# Density = 2.274231 g / cm^3
# Si number density = 22.794192 Si / 1000 Ang^3
#
#
#
# Elastic Constant Matrix: (Units=GPa)
#
#
# Indices 1 2 3 4 5 6 
#
# 1 39.2533 1.5809 11.9977 0.0000 -5.3220 0.0000
# 2 1.5809 107.0825 26.6861 0.0000 -1.1359 0.0000
# 3 11.9977 26.6861 100.4403 0.0000 -15.7338 0.0000
# 4 0.0000 0.0000 0.0000 34.6830 0.0000 4.8475
# 5 -5.3220 -1.1359 -15.7338 0.0000 41.8513 0.0000
# 6 0.0000 0.0000 0.0000 4.8475 0.0000 28.1426
#
#
#
# Elastic Compliance Matrix: (Units=1/GPa)
#
#
# Indices 1 2 3 4 5 6 
#
# 1 0.026666 0.000358 -0.002920 0.000000 0.002303 0.000000
# 2 0.000358 0.010029 -0.002824 0.000000 -0.000744 0.000000
# 3 -0.002920 -0.002824 0.011672 0.000000 0.003940 0.000000
# 4 0.000000 0.000000 0.000000 0.029544 0.000000 -0.005089
# 5 0.002303 -0.000744 0.003940 0.000000 0.025648 0.000000
# 6 0.000000 0.000000 0.000000 -0.005089 0.000000 0.036410
#
#
# Mechanical properties :
#
#
# Convention : Reuss Voigt Hill
#
# Bulk Modulus (GPa) = 26.59799 36.36725 31.48262
# Shear Modulus (GPa) = 30.62369 34.70280 32.66325
#
# Velocity S-wave (km/s) = 3.66934 3.90608 3.78956
# Velocity P-wave (km/s) = 5.44483 6.02765 5.74363
#
# Compressibility (1/GPa) = 0.03759682
#
# Stress axis : x y z
#
# Youngs Moduli (GPa) = 37.50122 99.70907 85.67159
#
# Poissons Ratio (x) = -0.03573 0.25014
# Poissons Ratio (y) = -0.01344 0.24194
# Poissons Ratio (z) = 0.10949 0.28158
#
# Static dielectric constant tensor:
#      x y z
#    x 1.910780 0.000000 -0.023430 
#    y 0.000000 1.838140 0.000000 
#    z -0.023430 0.000000 1.817380 
# 
# From -- ./inp_files/112855.got.cif
#   From: 2010.05.17/outbox.cif.g08.bks.cpg/sg15_57_cif.got.tgz:112855.got - 2010.06.03 18:47:42.
