data_PCOD9303467
_publ_section_title
;
Structure prediction by ZEFSAII (Michael W. Deem and Ramdas Pophale) SiO2 
 PCOD9303467
Probable space group: C 2/C
;
_chemical_formula_sum "Si O2"
_cell_formula_units_Z 44
_cell_length_a 12.693479
_cell_length_b 14.732591
_cell_length_c 27.290690
_cell_angle_alpha 90.000000
_cell_angle_beta 23.394118
_cell_angle_gamma 90.000000
_cell_volume 2026.392334
_symmetry_space_group_name_H-M "C 2/C"
_symmetry_group_IT_number 15
_symmetry_cell_setting 'monoclinic'
loop_
_space_group_symop_operation_xyz
x,y,z
-x,y,1/2-z
-x,-y,-z
x,-y,1/2+z
1/2+x,1/2+y,z
1/2-x,1/2+y,1/2-z
1/2-x,1/2-y,-z
1/2+x,1/2-y,1/2+z
loop_
_atom_site_type_symbol
_atom_site_label
_atom_site_fract_x
_atom_site_fract_y
_atom_site_fract_z
Si Si1 0.106831 0.154940 0.075993
Si Si2 0.500000 0.607982 0.750000
Si Si3 0.621384 0.188608 0.348278
Si Si4 0.473891 0.993921 0.070397
Si Si5 0.236303 0.243313 0.427455
Si Si6 0.205431 0.938804 0.881399
O O1 0.916041 0.176783 0.203276
O O2 0.926628 0.104379 0.111389
O O3 0.250000 0.250000 0.000000
O O4 0.323766 0.080863 0.997485
O O5 0.321020 0.543782 0.793050
O O6 0.692328 0.673980 0.638147
O O7 0.456372 0.238358 0.376070
O O8 0.554813 0.244929 0.425323
O O9 0.499346 0.089892 0.413816
O O10 0.500000 0.000000 0.000000
O O11 0.260703 0.149943 0.389641
O O12 0.500000 0.982851 0.750000
O O13 0.000000 0.000000 0.000000
#
# Coordination Sequence:
#
# PCOD9303467 Si02
#       6
#     8   4   8   8   8   8
#     4  12  27  47  73 108 143 187 248 301 363 445
#     4  12  22  46  72  96 142 190 232 286 372 416
#     4  11  24  42  70 104 140 184 240 291 359 431
#     4  12  25  44  69 106 142 186 233 301 354 435
#     4  11  22  44  72  99 139 194 231 289 363 439
#     4  12  26  49  76 108 150 195 248 309 375 443
#
# _framework density 21.713464999999999
#
# number of rings (size 3 to 8) (size 9 to 14) (size 15 to 20)
#    0.000    0.364    4.545    4.364    0.000    1.455 
#    0.000    0.000    0.000    0.000    0.000    0.000 
#    0.000    0.000    0.000    0.000    0.000    0.000 
#
# Total GULP energy -122949.637126 kJ/mol
# GULP energy per Si atom -5588.619869 kJ/mol
# Density = 2.166404 g / cm^3
# Si number density = 21.713465 Si / 1000 Ang^3
#
#
#
# Elastic Constant Matrix: (Units=GPa)
#
#
# Indices 1 2 3 4 5 6 
#
# 1 52.3119 -0.7058 15.9588 -0.0085 -4.8547 -0.0151
# 2 -0.7058 72.8518 28.0092 -0.0200 3.7655 0.0119
# 3 15.9588 28.0092 143.4410 -0.0646 -0.4483 -0.0263
# 4 -0.0085 -0.0200 -0.0646 32.3568 0.0083 0.1092
# 5 -4.8547 3.7655 -0.4483 0.0083 32.4275 0.0296
# 6 -0.0151 0.0119 -0.0263 0.1092 0.0296 29.5937
#
#
#
# Elastic Compliance Matrix: (Units=1/GPa)
#
#
# Indices 1 2 3 4 5 6 
#
# 1 0.020134 0.000978 -0.002422 0.000000 0.002867 0.000005
# 2 0.000978 0.014990 -0.003041 0.000004 -0.001636 -0.000007
# 3 -0.002422 -0.003041 0.007835 0.000013 0.000099 0.000007
# 4 0.000000 0.000004 0.000013 0.030906 -0.000008 -0.000114
# 5 0.002867 -0.001636 0.000099 -0.000008 0.031459 -0.000029
# 6 0.000005 -0.000007 0.000007 -0.000114 -0.000029 0.033791
#
#
# Mechanical properties :
#
#
# Convention : Reuss Voigt Hill
#
# Bulk Modulus (GPa) = 29.42108 39.45879 34.43993
# Shear Modulus (GPa) = 31.36475 33.89843 32.63159
#
# Velocity S-wave (km/s) = 3.80476 3.95545 3.88084
# Velocity P-wave (km/s) = 5.73417 6.25082 5.99806
#
# Compressibility (1/GPa) = 0.03398923
#
# Stress axis : x y z
#
# Youngs Moduli (GPa) = 49.66646 66.71255 127.63094
#
# Poissons Ratio (x) = -0.06525 0.30914
# Poissons Ratio (y) = -0.04858 0.38811
# Poissons Ratio (z) = 0.12030 0.20287
#
# Static dielectric constant tensor:
#      x y z
#    x 2.002500 -0.000520 0.261490 
#    y -0.000520 1.851260 -0.000750 
#    z 0.261490 -0.000750 2.465950 
# 
# From -- ./inp_files/313947.got.cif
#   From: 2010.05.17/outbox.cif.g08.bks.cpg/sg15_157_cif.got.tgz:313947.got - 2010.06.03 18:47:42.
