data_PCOD9303118
_publ_section_title
;
Structure prediction by ZEFSAII (Michael W. Deem and Ramdas Pophale) SiO2 
 PCOD9303118
Probable space group: C 2/C
;
_chemical_formula_sum "Si O2"
_cell_formula_units_Z 64
_cell_length_a 29.987046
_cell_length_b 9.095386
_cell_length_c 16.724141
_cell_angle_alpha 90.000000
_cell_angle_beta 139.315275
_cell_angle_gamma 90.000000
_cell_volume 2973.562919
_symmetry_space_group_name_H-M "C 2/C"
_symmetry_group_IT_number 15
_symmetry_cell_setting 'monoclinic'
loop_
_space_group_symop_operation_xyz
x,y,z
-x,y,1/2-z
-x,-y,-z
x,-y,1/2+z
1/2+x,1/2+y,z
1/2-x,1/2+y,1/2-z
1/2-x,1/2-y,-z
1/2+x,1/2-y,1/2+z
loop_
_atom_site_type_symbol
_atom_site_label
_atom_site_fract_x
_atom_site_fract_y
_atom_site_fract_z
Si Si1 0.858051 0.152391 0.473780
Si Si2 0.196706 0.695142 0.748503
Si Si3 0.644424 0.675322 0.582361
Si Si4 0.430810 0.145245 0.201056
Si Si5 0.616890 0.296729 0.230423
Si Si6 0.725005 0.065981 0.384174
Si Si7 0.417735 0.178269 0.648635
Si Si8 0.331046 0.600047 0.141248
O O1 0.853675 0.253160 0.389463
O O2 0.896132 0.231600 0.597951
O O3 0.781223 0.132989 0.401579
O O4 0.880555 0.987114 0.480473
O O5 0.273329 0.677273 0.817205
O O6 0.179075 0.542763 0.768062
O O7 0.196661 0.815969 0.818708
O O8 0.622734 0.704857 0.643555
O O9 0.613801 0.796160 0.481667
O O10 0.500000 0.113566 0.250000
O O11 0.443613 0.214165 0.305888
O O12 0.398025 0.982895 0.155636
O O13 0.679902 0.200709 0.353017
O O14 0.624611 0.462531 0.269098
O O15 0.767850 0.966763 0.504489
O O16 0.500000 0.200912 0.750000
O O17 0.378812 0.295864 0.652162
#
# Coordination Sequence:
#
# PCOD9303118 Si02
#       8
#     8   8   8   8   8   8   8   8
#     4  11  22  42  65  96 136 174 214 272 330 394
#     4  11  23  38  64 101 140 166 218 270 333 392
#     4  11  24  42  66 101 136 173 218 272 333 391
#     4  11  27  48  68  93 128 180 228 272 329 390
#     4  12  24  41  69 100 137 169 219 275 328 395
#     4  11  23  38  62 102 133 177 210 264 338 391
#     4  11  26  49  69  93 130 180 226 271 326 390
#     4  12  23  42  66  99 135 176 218 269 326 401
#
# _framework density 21.523002999999999
#
# number of rings (size 3 to 8) (size 9 to 14) (size 15 to 20)
#    0.000    0.750    6.250    1.500    3.500    2.000 
#    2.250    2.500    0.000    0.000    0.000    0.000 
#    0.000    0.000    0.000    0.000    0.000    0.000 
#
# Total GULP energy -178780.875368 kJ/mol
# GULP energy per Si atom -5586.902355 kJ/mol
# Density = 2.147402 g / cm^3
# Si number density = 21.523003 Si / 1000 Ang^3
#
#
#
# Elastic Constant Matrix: (Units=GPa)
#
#
# Indices 1 2 3 4 5 6 
#
# 1 110.0330 41.6590 17.2634 0.0000 -36.3487 0.0000
# 2 41.6590 121.0374 14.3881 0.0000 -19.0055 0.0000
# 3 17.2634 14.3881 25.8989 0.0000 -22.0342 0.0000
# 4 0.0000 0.0000 0.0000 21.8777 0.0000 72.5292
# 5 -36.3487 -19.0055 -22.0342 0.0000 34.1903 0.0000
# 6 0.0000 0.0000 0.0000 72.5292 0.0000 1701.8611
#
#
#
# Elastic Compliance Matrix: (Units=1/GPa)
#
#
# Indices 1 2 3 4 5 6 
#
# 1 0.015745 -0.003230 0.008884 0.000000 0.020669 0.000000
# 2 -0.003230 0.009747 -0.003484 0.000000 -0.000261 0.000000
# 3 0.008884 -0.003484 0.090795 0.000000 0.066021 0.000000
# 4 0.000000 0.000000 0.000000 0.053229 0.000000 -0.002268
# 5 0.020669 -0.000261 0.066021 0.000000 0.093624 0.000000
# 6 0.000000 0.000000 0.000000 -0.002268 0.000000 0.000684
#
#
# Mechanical properties :
#
#
# Convention : Reuss Voigt Hill
#
# Bulk Modulus (GPa) = 8.29008 44.84337 26.56672
# Shear Modulus (GPa) = 16.68377 363.82975 190.25676
#
# Velocity S-wave (km/s) = 2.78719 13.01573 9.41216
# Velocity P-wave (km/s) = 3.77068 15.70857 11.42316
#
# Compressibility (1/GPa) = 0.12062616
#
# Stress axis : x y z
#
# Youngs Moduli (GPa) = 63.51232 102.59874 11.01388
#
# Poissons Ratio (x) = 0.33137 -0.09784
# Poissons Ratio (y) = 0.20513 0.03837
# Poissons Ratio (z) = -0.56422 0.35745
#
# Static dielectric constant tensor:
#      x y z
#    x 1.841290 0.000000 0.019200 
#    y 0.000000 1.823870 0.000000 
#    z 0.019200 0.000000 1.781110 
# 
# From -- ./inp_files/224640.got.cif
#   From: 2010.05.17/outbox.cif.g08.bks.cpg/sg15_113_cif.got.tgz:224640.got - 2010.06.03 18:47:42.
