data_PCOD9303230
_publ_section_title
;
Structure prediction by ZEFSAII (Michael W. Deem and Ramdas Pophale) SiO2 
 PCOD9303230
Probable space group: C 2/C
;
_chemical_formula_sum "Si O2"
_cell_formula_units_Z 40
_cell_length_a 16.337187
_cell_length_b 6.456539
_cell_length_c 28.693343
_cell_angle_alpha 90.000000
_cell_angle_beta 39.203704
_cell_angle_gamma 90.000000
_cell_volume 1913.065522
_symmetry_space_group_name_H-M "C 2/C"
_symmetry_group_IT_number 15
_symmetry_cell_setting 'monoclinic'
loop_
_space_group_symop_operation_xyz
x,y,z
-x,y,1/2-z
-x,-y,-z
x,-y,1/2+z
1/2+x,1/2+y,z
1/2-x,1/2+y,1/2-z
1/2-x,1/2-y,-z
1/2+x,1/2-y,1/2+z
loop_
_atom_site_type_symbol
_atom_site_label
_atom_site_fract_x
_atom_site_fract_y
_atom_site_fract_z
Si Si1 0.575449 0.067949 0.814114
Si Si2 0.667458 0.659131 0.079530
Si Si3 0.357939 0.090581 0.552172
Si Si4 0.801178 0.133520 0.164800
Si Si5 0.974210 0.181297 0.917273
O O1 0.664716 0.974320 0.734614
O O2 0.534595 0.883633 0.866892
O O3 0.444220 0.181537 0.856813
O O4 0.659864 0.231945 0.806744
O O5 0.763662 0.592401 0.077731
O O6 0.596572 0.456294 0.090307
O O7 0.750000 0.750000 0.000000
O O8 0.304874 0.214454 0.619513
O O9 0.376529 0.244549 0.500270
O O10 0.500000 0.000000 0.500000
O O11 0.913212 0.961210 0.110647
#
# Coordination Sequence:
#
# PCOD9303230 Si02
#       5
#     8   8   8   8   8
#     4  11  22  42  72  97 135 187 222 279 352 422
#     4  11  24  43  71  99 137 181 228 279 347 416
#     4  12  23  43  73 105 132 175 238 291 331 408
#     4  11  23  41  72 100 135 176 233 286 346 411
#     4  11  22  43  73  96 133 180 226 277 348 408
#
# _framework density 20.908852
#
# number of rings (size 3 to 8) (size 9 to 14) (size 15 to 20)
#    0.000    0.800    6.000    2.400    0.000    0.000 
#    0.000    1.000    8.800    0.000    0.000    0.000 
#    0.000    0.000    0.000    0.000    0.000    0.000 
#
# Total GULP energy -111952.871027 kJ/mol
# GULP energy per Si atom -5597.643551 kJ/mol
# Density = 2.086126 g / cm^3
# Si number density = 20.908852 Si / 1000 Ang^3
#
#
#
# Elastic Constant Matrix: (Units=GPa)
#
#
# Indices 1 2 3 4 5 6 
#
# 1 102.0516 47.5650 46.4531 -0.0066 -25.2643 0.0091
# 2 47.5650 101.4747 45.8074 0.0224 -17.2461 0.0900
# 3 46.4531 45.8074 131.3394 -0.0337 -18.7947 0.0039
# 4 -0.0066 0.0224 -0.0337 56.3871 -0.0082 -3.0358
# 5 -25.2643 -17.2461 -18.7947 -0.0082 27.0065 -0.0081
# 6 0.0091 0.0900 0.0039 -3.0358 -0.0081 36.1713
#
#
#
# Elastic Compliance Matrix: (Units=1/GPa)
#
#
# Indices 1 2 3 4 5 6 
#
# 1 0.015451 -0.004433 -0.002505 0.000004 0.009881 0.000010
# 2 -0.004433 0.013648 -0.002819 -0.000009 0.002607 -0.000033
# 3 -0.002505 -0.002819 0.009873 0.000008 0.002727 0.000008
# 4 0.000004 -0.000009 0.000008 0.017815 0.000009 0.001495
# 5 0.009881 0.002607 0.002727 0.000009 0.049834 0.000003
# 6 0.000010 -0.000033 0.000008 0.001495 0.000003 0.027772
#
#
# Mechanical properties :
#
#
# Convention : Reuss Voigt Hill
#
# Bulk Modulus (GPa) = 51.38980 68.27962 59.83471
# Shear Modulus (GPa) = 31.17320 36.91565 34.04443
#
# Velocity S-wave (km/s) = 3.86542 4.20640 4.03951
# Velocity P-wave (km/s) = 6.67483 7.50457 7.10183
#
# Compressibility (1/GPa) = 0.01945911
#
# Stress axis : x y z
#
# Youngs Moduli (GPa) = 64.71951 73.27013 101.28165
#
# Poissons Ratio (x) = 0.32477 0.25372
# Poissons Ratio (y) = 0.28687 0.28554
# Poissons Ratio (z) = 0.16213 0.20657
#
# Static dielectric constant tensor:
#      x y z
#    x 1.764420 0.000000 -0.006700 
#    y 0.000000 1.749360 0.000010 
#    z -0.006700 0.000010 1.720660 
# 
# From -- ./inp_files/314788.got.cif
#   From: 2010.05.17/outbox.cif.g08.bks.cpg/sg15_158_cif.got.tgz:314788.got - 2010.06.03 18:47:42.
