data_PCOD9303824
_publ_section_title
;
Structure prediction by ZEFSAII (Michael W. Deem and Ramdas Pophale) SiO2 
 PCOD9303824
Probable space group: C 2/C
;
_chemical_formula_sum "Si O2"
_cell_formula_units_Z 32
_cell_length_a 11.189808
_cell_length_b 21.687363
_cell_length_c 7.534197
_cell_angle_alpha 90.000000
_cell_angle_beta 136.315798
_cell_angle_gamma 90.000000
_cell_volume 1262.830752
_symmetry_space_group_name_H-M "C 2/C"
_symmetry_group_IT_number 15
_symmetry_cell_setting 'monoclinic'
loop_
_space_group_symop_operation_xyz
x,y,z
-x,y,1/2-z
-x,-y,-z
x,-y,1/2+z
1/2+x,1/2+y,z
1/2-x,1/2+y,1/2-z
1/2-x,1/2-y,-z
1/2+x,1/2-y,1/2+z
loop_
_atom_site_type_symbol
_atom_site_label
_atom_site_fract_x
_atom_site_fract_y
_atom_site_fract_z
Si Si1 0.000000 0.588816 0.750000
Si Si2 0.202724 0.410024 0.981395
Si Si3 0.322851 0.520415 0.961757
Si Si4 0.342334 0.815319 0.313313
Si Si5 0.000000 0.209855 0.250000
O O1 0.014793 0.635283 0.600119
O O2 0.835214 0.546285 0.591857
O O3 0.297324 0.445999 0.924447
O O4 0.294496 0.444285 0.247122
O O5 0.205821 0.337380 0.039421
O O6 0.000000 0.425035 0.750000
O O7 0.500000 0.534615 0.250000
O O8 0.423989 0.751449 0.332313
O O9 0.167494 0.823478 0.009123
#
# Coordination Sequence:
#
# PCOD9303824 Si02
#       5
#     4   8   8   8   4
#     4   9  20  34  62  94 124 160 200 257 292 378
#     4  11  23  40  61  96 132 169 201 258 311 374
#     4  11  23  40  61  90 137 171 208 244 302 378
#     4   9  20  36  66  89 121 158 215 255 319 364
#     4   9  18  42  62  94 114 162 212 277 306 372
#
# _framework density 25.339896
#
# number of rings (size 3 to 8) (size 9 to 14) (size 15 to 20)
#    0.000    2.000    1.250    1.500   10.500    0.000 
#    0.000    1.250    0.000    0.000    0.000    0.000 
#    0.000    0.000    0.000    0.000    0.000    0.000 
#
# Total GULP energy -89211.693942 kJ/mol
# GULP energy per Si atom -5575.730871 kJ/mol
# Density = 2.528222 g / cm^3
# Si number density = 25.339896 Si / 1000 Ang^3
#
#
#
# Elastic Constant Matrix: (Units=GPa)
#
#
# Indices 1 2 3 4 5 6 
#
# 1 74.5559 11.2999 27.9872 0.0000 15.8732 0.0000
# 2 11.2999 71.9066 6.9831 0.0000 -2.7570 0.0000
# 3 27.9872 6.9831 100.8360 0.0000 24.7256 0.0000
# 4 0.0000 0.0000 0.0000 29.9091 0.0000 -9.2632
# 5 15.8732 -2.7570 24.7256 0.0000 50.4997 0.0000
# 6 0.0000 0.0000 0.0000 -9.2632 0.0000 26.5003
#
#
#
# Elastic Compliance Matrix: (Units=1/GPa)
#
#
# Indices 1 2 3 4 5 6 
#
# 1 0.015754 -0.002279 -0.003375 0.000000 -0.003424 0.000000
# 2 -0.002279 0.014420 -0.000835 0.000000 0.001912 0.000000
# 3 -0.003375 -0.000835 0.012118 0.000000 -0.004918 0.000000
# 4 0.000000 0.000000 0.000000 0.037494 0.000000 0.013106
# 5 -0.003424 0.001912 -0.004918 0.000000 0.023390 0.000000
# 6 0.000000 0.000000 0.000000 0.013106 0.000000 0.042317
#
#
# Mechanical properties :
#
#
# Convention : Reuss Voigt Hill
#
# Bulk Modulus (GPa) = 34.11515 37.75987 35.93751
# Shear Modulus (GPa) = 29.71918 34.78369 32.25143
#
# Velocity S-wave (km/s) = 3.42836 3.70900 3.57144
# Velocity P-wave (km/s) = 5.40035 5.76853 5.58747
#
# Compressibility (1/GPa) = 0.02931249
#
# Stress axis : x y z
#
# Youngs Moduli (GPa) = 63.47536 69.35047 82.52493
#
# Poissons Ratio (x) = 0.15806 0.27854
# Poissons Ratio (y) = 0.14467 0.06890
# Poissons Ratio (z) = 0.21424 0.05790
#
# Static dielectric constant tensor:
#      x y z
#    x 2.150540 0.000000 -0.105040 
#    y 0.000000 2.072690 0.000000 
#    z -0.105040 0.000000 1.981540 
# 
# From -- ./inp_files/24178.got.cif
#   From: 2010.05.17/outbox.cif.g08.bks.cpg/sg15_13_cif.got.tgz:24178.got - 2010.06.03 18:47:42.
