data_PCOD9303811
_publ_section_title
;
Structure prediction by ZEFSAII (Michael W. Deem and Ramdas Pophale) SiO2 
 PCOD9303811
Probable space group: C 2/C
;
_chemical_formula_sum "Si O2"
_cell_formula_units_Z 60
_cell_length_a 20.023904
_cell_length_b 18.714872
_cell_length_c 12.702830
_cell_angle_alpha 90.000000
_cell_angle_beta 39.260024
_cell_angle_gamma 90.000000
_cell_volume 3012.524397
_symmetry_space_group_name_H-M "C 2/C"
_symmetry_group_IT_number 15
_symmetry_cell_setting 'monoclinic'
loop_
_space_group_symop_operation_xyz
x,y,z
-x,y,1/2-z
-x,-y,-z
x,-y,1/2+z
1/2+x,1/2+y,z
1/2-x,1/2+y,1/2-z
1/2-x,1/2-y,-z
1/2+x,1/2-y,1/2+z
loop_
_atom_site_type_symbol
_atom_site_label
_atom_site_fract_x
_atom_site_fract_y
_atom_site_fract_z
Si Si1 0.845853 0.180368 0.160155
Si Si2 0.049831 0.323833 0.490421
Si Si3 0.261352 0.910741 0.335440
Si Si4 0.383783 0.169441 0.008437
Si Si5 0.000000 0.592975 0.250000
Si Si6 0.123112 0.017068 0.365163
Si Si7 0.820486 0.523127 0.976198
Si Si8 0.614436 0.696164 0.138943
O O1 0.912291 0.243855 0.028575
O O2 0.720973 0.188996 0.297980
O O3 0.872814 0.098980 0.099541
O O4 0.864936 0.190031 0.262841
O O5 0.152354 0.372420 0.342089
O O6 0.982066 0.322859 0.465806
O O7 0.986493 0.358953 0.663019
O O8 0.316496 0.957300 0.358510
O O9 0.200515 0.848599 0.471477
O O10 0.179439 0.960612 0.373427
O O11 0.369259 0.089948 0.981274
O O12 0.385606 0.224147 0.908460
O O13 0.101906 0.543300 0.106852
O O14 0.201274 0.014669 0.167323
O O15 0.000000 0.000000 0.500000
O O16 0.500000 0.665282 0.250000
#
# Coordination Sequence:
#
# PCOD9303811 Si02
#       8
#     8   8   8   8   4   8   8   8
#     4  11  23  43  65 103 136 174 229 287 345 413
#     4  12  26  45  72  99 140 184 230 290 349 423
#     4  12  24  42  70 102 139 180 227 290 351 410
#     4  11  23  39  69 106 135 169 221 294 353 406
#     4  12  28  48  66  98 144 192 240 270 354 428
#     4  11  25  44  68 101 142 181 230 285 351 416
#     4  11  25  42  67 105 139 181 232 287 347 420
#     4  12  21  37  69 103 136 168 217 285 357 409
#
# _framework density 19.916851999999999
#
# number of rings (size 3 to 8) (size 9 to 14) (size 15 to 20)
#    0.000    0.533    6.667    2.800    4.667    1.067 
#    0.000    2.000    0.000    0.000    0.000    0.000 
#    0.000    0.000    0.000    0.000    0.000    0.000 
#
# Total GULP energy -167715.768539 kJ/mol
# GULP energy per Si atom -5590.525618 kJ/mol
# Density = 1.987152 g / cm^3
# Si number density = 19.916852 Si / 1000 Ang^3
#
#
#
# Elastic Constant Matrix: (Units=GPa)
#
#
# Indices 1 2 3 4 5 6 
#
# 1 72.7250 35.5742 6.8566 0.0000 -20.6018 0.0000
# 2 35.5742 113.7639 31.0582 0.0000 -7.0394 0.0000
# 3 6.8566 31.0582 40.6379 0.0000 -11.9285 0.0000
# 4 0.0000 0.0000 0.0000 30.7928 0.0000 -0.9457
# 5 -20.6018 -7.0394 -11.9285 0.0000 34.8398 0.0000
# 6 0.0000 0.0000 0.0000 -0.9457 0.0000 28.2502
#
#
#
# Elastic Compliance Matrix: (Units=1/GPa)
#
#
# Indices 1 2 3 4 5 6 
#
# 1 0.020220 -0.007100 0.005674 0.000000 0.012465 0.000000
# 2 -0.007100 0.013618 -0.010711 0.000000 -0.005114 0.000000
# 3 0.005674 -0.010711 0.035782 0.000000 0.013442 0.000000
# 4 0.000000 0.000000 0.000000 0.032509 0.000000 0.001088
# 5 0.012465 -0.005114 0.013442 0.000000 0.039642 0.000000
# 6 0.000000 0.000000 0.000000 0.001088 0.000000 0.035434
#
#
# Mechanical properties :
#
#
# Convention : Reuss Voigt Hill
#
# Bulk Modulus (GPa) = 22.05342 41.56718 31.81030
# Shear Modulus (GPa) = 23.08447 29.01908 26.05177
#
# Velocity S-wave (km/s) = 3.40816 3.82122 3.62059
# Velocity P-wave (km/s) = 5.15599 6.35489 5.78657
#
# Compressibility (1/GPa) = 0.04534443
#
# Stress axis : x y z
#
# Youngs Moduli (GPa) = 49.45657 73.43114 27.94693
#
# Poissons Ratio (x) = 0.52140 -0.15857
# Poissons Ratio (y) = 0.35116 0.29934
# Poissons Ratio (z) = -0.28061 0.78653
#
# Static dielectric constant tensor:
#      x y z
#    x 1.686220 0.000000 -0.021350 
#    y 0.000000 1.712330 0.000000 
#    z -0.021350 0.000000 1.714480 
# 
# From -- ./inp_files/113778.got.cif
#   From: 2010.05.17/outbox.cif.g08.bks.cpg/sg15_57_cif.got.tgz:113778.got - 2010.06.03 18:47:42.
