data_PCOD9303586
_publ_section_title
;
Structure prediction by ZEFSAII (Michael W. Deem and Ramdas Pophale) SiO2 
 PCOD9303586
Probable space group: C 2/C
;
_chemical_formula_sum "Si O2"
_cell_formula_units_Z 32
_cell_length_a 8.823706
_cell_length_b 19.235450
_cell_length_c 8.096641
_cell_angle_alpha 90.000000
_cell_angle_beta 73.886069
_cell_angle_gamma 90.000000
_cell_volume 1320.235306
_symmetry_space_group_name_H-M "C 2/C"
_symmetry_group_IT_number 15
_symmetry_cell_setting 'monoclinic'
loop_
_space_group_symop_operation_xyz
x,y,z
-x,y,1/2-z
-x,-y,-z
x,-y,1/2+z
1/2+x,1/2+y,z
1/2-x,1/2+y,1/2-z
1/2-x,1/2-y,-z
1/2+x,1/2-y,1/2+z
loop_
_atom_site_type_symbol
_atom_site_label
_atom_site_fract_x
_atom_site_fract_y
_atom_site_fract_z
Si Si1 0.671358 0.901395 0.321160
Si Si2 0.179877 0.007525 0.002335
Si Si3 0.316551 0.739926 0.794889
Si Si4 0.375906 0.111474 0.137140
O O1 0.714869 0.959767 0.175240
O O2 0.730173 0.826447 0.246328
O O3 0.496678 0.892156 0.445378
O O4 0.768838 0.931695 0.449019
O O5 0.228164 0.062822 0.132238
O O6 0.000000 0.000000 0.000000
O O7 0.500000 0.721648 0.750000
O O8 0.811438 0.687977 0.197750
O O9 0.250000 0.750000 0.000000
O O10 0.500000 0.905860 0.750000
#
# Coordination Sequence:
#
# PCOD9303586 Si02
#       4
#     8   8   8   8
#     4  12  25  48  76 115 158 212 269 331 404 473
#     4  12  27  48  76 116 163 208 266 337 399 480
#     4  11  22  45  79 114 162 210 271 339 396 478
#     4  11  24  48  81 113 156 214 269 330 402 483
#
# _framework density 24.238104
#
# number of rings (size 3 to 8) (size 9 to 14) (size 15 to 20)
#    0.000    0.500    5.000    5.250    0.000    1.000 
#    4.500    0.000    0.000    0.000    0.000    0.000 
#    0.000    0.000    0.000    0.000    0.000    0.000 
#
# Total GULP energy -89369.386764 kJ/mol
# GULP energy per Si atom -5585.586673 kJ/mol
# Density = 2.418294 g / cm^3
# Si number density = 24.238104 Si / 1000 Ang^3
#
#
#
# Elastic Constant Matrix: (Units=GPa)
#
#
# Indices 1 2 3 4 5 6 
#
# 1 166.9532 101.8097 28.6023 0.0000 -14.4447 0.0000
# 2 101.8097 168.3547 48.0415 0.0000 -2.3147 0.0000
# 3 28.6023 48.0415 133.8330 0.0000 -12.1738 0.0000
# 4 0.0000 0.0000 0.0000 54.3584 0.0000 3.1151
# 5 -14.4447 -2.3147 -12.1738 0.0000 34.7523 0.0000
# 6 0.0000 0.0000 0.0000 3.1151 0.0000 54.2409
#
#
#
# Elastic Compliance Matrix: (Units=1/GPa)
#
#
# Indices 1 2 3 4 5 6 
#
# 1 0.009971 -0.006093 0.000409 0.000000 0.003882 0.000000
# 2 -0.006093 0.010347 -0.002665 0.000000 -0.002777 0.000000
# 3 0.000409 -0.002665 0.008615 0.000000 0.003011 0.000000
# 4 0.000000 0.000000 0.000000 0.018457 0.000000 -0.001060
# 5 0.003882 -0.002777 0.003011 0.000000 0.031258 0.000000
# 6 0.000000 0.000000 0.000000 -0.001060 0.000000 0.018497
#
#
# Mechanical properties :
#
#
# Convention : Reuss Voigt Hill
#
# Bulk Modulus (GPa) = 81.72629 91.78311 86.75470
# Shear Modulus (GPa) = 42.40119 48.04948 45.22534
#
# Velocity S-wave (km/s) = 4.18707 4.45724 4.32427
# Velocity P-wave (km/s) = 7.56087 8.02738 7.79761
#
# Compressibility (1/GPa) = 0.01223596
#
# Stress axis : x y z
#
# Youngs Moduli (GPa) = 100.28827 96.64739 116.07917
#
# Poissons Ratio (x) = 0.58891 -0.04753
# Poissons Ratio (y) = 0.61110 0.30930
# Poissons Ratio (z) = -0.04106 0.25752
#
# Static dielectric constant tensor:
#      x y z
#    x 1.980800 0.000000 0.126040 
#    y 0.000000 1.899680 0.000000 
#    z 0.126040 0.000000 2.058460 
# 
# From -- ./inp_files/77234.got.cif
#   From: 2010.05.17/outbox.cif.g08.bks.cpg/sg15_39_cif.got.tgz:77234.got - 2010.06.03 18:47:42.
