data_PCOD9303905
_publ_section_title
;
Structure prediction by ZEFSAII (Michael W. Deem and Ramdas Pophale) SiO2 
 PCOD9303905
Probable space group: C 2/C
;
_chemical_formula_sum "Si O2"
_cell_formula_units_Z 44
_cell_length_a 20.058897
_cell_length_b 19.568295
_cell_length_c 13.313224
_cell_angle_alpha 90.000000
_cell_angle_beta 156.543042
_cell_angle_gamma 90.000000
_cell_volume 2080.136598
_symmetry_space_group_name_H-M "C 2/C"
_symmetry_group_IT_number 15
_symmetry_cell_setting 'monoclinic'
loop_
_space_group_symop_operation_xyz
x,y,z
-x,y,1/2-z
-x,-y,-z
x,-y,1/2+z
1/2+x,1/2+y,z
1/2-x,1/2+y,1/2-z
1/2-x,1/2-y,-z
1/2+x,1/2-y,1/2+z
loop_
_atom_site_type_symbol
_atom_site_label
_atom_site_fract_x
_atom_site_fract_y
_atom_site_fract_z
Si Si1 0.393230 0.293829 0.499653
Si Si2 0.849144 0.422559 0.311970
Si Si3 0.326387 0.965312 0.635969
Si Si4 0.195064 0.016176 0.255539
Si Si5 0.500000 0.617935 0.750000
Si Si6 0.636160 0.328793 0.647070
O O1 0.261093 0.355706 0.330490
O O2 0.509531 0.306811 0.562238
O O3 0.284102 0.225537 0.339544
O O4 0.500000 0.291254 0.750000
O O5 0.865106 0.456499 0.224934
O O6 0.749768 0.484301 0.227182
O O7 0.026050 0.419602 0.612959
O O8 0.154414 0.930310 0.433070
O O9 0.302751 0.974480 0.485056
O O10 0.210515 0.097241 0.279311
O O11 0.000000 0.000000 0.000000
O O12 0.453633 0.660588 0.585428
#
# Coordination Sequence:
#
# PCOD9303905 Si02
#       6
#     8   8   8   8   4   8
#     4  12  28  49  72 106 150 196 244 305 367 440
#     4  11  24  41  70 104 139 182 245 295 358 421
#     4  11  23  40  72 107 139 180 240 307 350 431
#     4  12  21  43  72 102 137 188 241 293 364 419
#     4  12  24  48  74 102 152 190 240 300 366 442
#     4  12  28  46  75 105 146 200 243 293 372 433
#
# _framework density 21.152456999999998
#
# number of rings (size 3 to 8) (size 9 to 14) (size 15 to 20)
#    0.000    0.364    5.455    2.182    3.818    2.182 
#    3.273    0.000    0.000    0.000    0.000    0.000 
#    0.000    0.000    0.000    0.000    0.000    0.000 
#
# Total GULP energy -122954.675607 kJ/mol
# GULP energy per Si atom -5588.848891 kJ/mol
# Density = 2.110431 g / cm^3
# Si number density = 21.152457 Si / 1000 Ang^3
#
#
#
# Elastic Constant Matrix: (Units=GPa)
#
#
# Indices 1 2 3 4 5 6 
#
# 1 68.1166 26.1018 43.8423 0.0000 -28.0815 0.0000
# 2 26.1018 138.8384 59.0403 0.0000 4.2611 0.0000
# 3 43.8423 59.0403 147.7780 0.0000 -11.2571 0.0000
# 4 0.0000 0.0000 0.0000 34.7638 0.0000 14.8116
# 5 -28.0815 4.2611 -11.2571 0.0000 43.8635 0.0000
# 6 0.0000 0.0000 0.0000 14.8116 0.0000 26.7401
#
#
#
# Elastic Compliance Matrix: (Units=1/GPa)
#
#
# Indices 1 2 3 4 5 6 
#
# 1 0.025485 -0.003060 -0.005174 0.000000 0.015285 0.000000
# 2 -0.003060 0.009181 -0.003037 0.000000 -0.003630 0.000000
# 3 -0.005174 -0.003037 0.009470 0.000000 -0.000587 0.000000
# 4 0.000000 0.000000 0.000000 0.037651 0.000000 -0.020856
# 5 0.015285 -0.003630 -0.000587 0.000000 0.032785 0.000000
# 6 0.000000 0.000000 0.000000 -0.020856 0.000000 0.048949
#
#
# Mechanical properties :
#
#
# Convention : Reuss Voigt Hill
#
# Bulk Modulus (GPa) = 46.30770 68.07798 57.19284
# Shear Modulus (GPa) = 25.87180 36.12337 30.99759
#
# Velocity S-wave (km/s) = 3.50109 4.13699 3.83226
# Velocity P-wave (km/s) = 6.18736 7.42118 6.83218
#
# Compressibility (1/GPa) = 0.02159468
#
# Stress axis : x y z
#
# Youngs Moduli (GPa) = 39.23936 108.92533 105.59344
#
# Poissons Ratio (x) = 0.33333 0.54632
# Poissons Ratio (y) = 0.12008 0.32063
# Poissons Ratio (z) = 0.20302 0.33075
#
# Static dielectric constant tensor:
#      x y z
#    x 1.786060 0.000000 -0.014680 
#    y 0.000000 1.752030 0.000000 
#    z -0.014680 0.000000 1.753870 
# 
# From -- ./inp_files/174297.got.cif
#   From: 2010.05.17/outbox.cif.g08.bks.cpg/sg15_88_cif.got.tgz:174297.got - 2010.06.03 18:47:42.
