data_PCOD9303095
_publ_section_title
;
Structure prediction by ZEFSAII (Michael W. Deem and Ramdas Pophale) SiO2 
 PCOD9303095
Probable space group: C 2/C
;
_chemical_formula_sum "Si O2"
_cell_formula_units_Z 60
_cell_length_a 24.335468
_cell_length_b 8.087575
_cell_length_c 28.621970
_cell_angle_alpha 90.000000
_cell_angle_beta 150.847215
_cell_angle_gamma 90.000000
_cell_volume 2744.172935
_symmetry_space_group_name_H-M "C 2/C"
_symmetry_group_IT_number 15
_symmetry_cell_setting 'monoclinic'
loop_
_space_group_symop_operation_xyz
x,y,z
-x,y,1/2-z
-x,-y,-z
x,-y,1/2+z
1/2+x,1/2+y,z
1/2-x,1/2+y,1/2-z
1/2-x,1/2-y,-z
1/2+x,1/2-y,1/2+z
loop_
_atom_site_type_symbol
_atom_site_label
_atom_site_fract_x
_atom_site_fract_y
_atom_site_fract_z
Si Si1 0.688706 0.122005 0.131943
Si Si2 0.587130 0.179277 0.198022
Si Si3 0.296164 0.369805 0.144253
Si Si4 0.500000 0.452650 0.750000
Si Si5 0.136589 0.172249 0.437925
Si Si6 0.156683 0.797518 0.468871
Si Si7 0.502193 0.150572 0.584197
Si Si8 0.738876 0.159533 0.742816
O O1 0.719242 0.305520 0.173009
O O2 0.773137 0.028492 0.159554
O O3 0.701538 0.007272 0.187765
O O4 0.570943 0.116539 0.016658
O O5 0.672278 0.203889 0.304171
O O6 0.654097 0.280838 0.208048
O O7 0.552569 0.005276 0.150579
O O8 0.474892 0.262889 0.135644
O O9 0.395365 0.429761 0.184643
O O10 0.186590 0.318912 0.034595
O O11 0.455064 0.349139 0.672097
O O12 0.250000 0.250000 0.500000
O O13 0.080646 0.267058 0.439621
O O14 0.167391 0.992880 0.481111
O O15 0.250000 0.750000 0.500000
O O16 0.615404 0.249887 0.652730
#
# Coordination Sequence:
#
# PCOD9303095 Si02
#       8
#     8   8   8   4   8   8   8   8
#     4  11  24  47  70  99 141 187 230 293 355 414
#     4  11  24  42  69 103 134 186 237 281 356 421
#     4  11  22  41  76  98 140 187 237 289 349 418
#     4  12  22  44  70 100 142 188 226 298 352 410
#     4  12  27  43  71 108 142 184 239 293 351 419
#     4  12  23  44  71 103 138 185 238 283 352 426
#     4  12  25  46  71  99 148 183 230 299 353 414
#     4  11  25  42  72 102 136 184 236 281 357 421
#
# _framework density 21.864511
#
# number of rings (size 3 to 8) (size 9 to 14) (size 15 to 20)
#    0.000    0.533    5.333    2.800    1.867    2.133 
#    0.000    0.667    0.000    0.000    0.000    0.000 
#    0.000    0.000    0.000    0.000    0.000    0.000 
#
# Total GULP energy -167066.732420 kJ/mol
# GULP energy per Si atom -5568.891081 kJ/mol
# Density = 2.181475 g / cm^3
# Si number density = 21.864511 Si / 1000 Ang^3
#
#
#
# Elastic Constant Matrix: (Units=GPa)
#
#
# Indices 1 2 3 4 5 6 
#
# 1 99.3725 28.0146 23.0214 0.0000 19.2110 0.0001
# 2 28.0146 51.1801 12.6831 0.0000 -6.1773 0.0003
# 3 23.0214 12.6831 100.4492 -0.0002 -7.6714 0.0000
# 4 0.0000 0.0000 -0.0002 43.2029 0.0000 0.2869
# 5 19.2110 -6.1773 -7.6714 0.0000 42.7037 0.0000
# 6 0.0001 0.0003 0.0000 0.2869 0.0000 45.3822
#
#
#
# Elastic Compliance Matrix: (Units=1/GPa)
#
#
# Indices 1 2 3 4 5 6 
#
# 1 0.014711 -0.008328 -0.002958 0.000000 -0.008354 0.000000
# 2 -0.008328 0.025150 -0.000713 0.000000 0.007256 0.000000
# 3 -0.002958 -0.000713 0.010967 0.000000 0.003198 0.000000
# 4 0.000000 0.000000 0.000000 0.023148 0.000000 -0.000146
# 5 -0.008354 0.007256 0.003198 0.000000 0.028800 0.000000
# 6 0.000000 0.000000 0.000000 -0.000146 0.000000 0.022036
#
#
# Mechanical properties :
#
#
# Convention : Reuss Voigt Hill
#
# Bulk Modulus (GPa) = 37.27012 42.04889 39.65950
# Shear Modulus (GPa) = 31.69523 38.74326 35.21925
#
# Velocity S-wave (km/s) = 3.81152 4.21404 4.01783
# Velocity P-wave (km/s) = 6.03765 6.55369 6.30095
#
# Compressibility (1/GPa) = 0.02683115
#
# Stress axis : x y z
#
# Youngs Moduli (GPa) = 67.97533 39.76196 91.17892
#
# Poissons Ratio (x) = 0.33113 0.26972
# Poissons Ratio (y) = 0.56608 0.06498
# Poissons Ratio (z) = 0.20108 0.02834
#
# Static dielectric constant tensor:
#      x y z
#    x 1.878260 0.000000 -0.007830 
#    y 0.000000 1.869170 0.000000 
#    z -0.007830 0.000000 1.802380 
# 
# From -- ./inp_files/302038.got.cif
#   From: 2010.05.17/outbox.cif.g08.bks.cpg/sg15_152_cif.got.tgz:302038.got - 2010.06.03 18:47:42.
