data_PCOD9303873
_publ_section_title
;
Structure prediction by ZEFSAII (Michael W. Deem and Ramdas Pophale) SiO2 
 PCOD9303873
Probable space group: C 2/C
;
_chemical_formula_sum "Si O2"
_cell_formula_units_Z 48
_cell_length_a 21.666561
_cell_length_b 9.167838
_cell_length_c 11.478343
_cell_angle_alpha 90.000000
_cell_angle_beta 106.470732
_cell_angle_gamma 90.000000
_cell_volume 2186.445869
_symmetry_space_group_name_H-M "C 2/C"
_symmetry_group_IT_number 15
_symmetry_cell_setting 'monoclinic'
loop_
_space_group_symop_operation_xyz
x,y,z
-x,y,1/2-z
-x,-y,-z
x,-y,1/2+z
1/2+x,1/2+y,z
1/2-x,1/2+y,1/2-z
1/2-x,1/2-y,-z
1/2+x,1/2-y,1/2+z
loop_
_atom_site_type_symbol
_atom_site_label
_atom_site_fract_x
_atom_site_fract_y
_atom_site_fract_z
Si Si1 0.569132 0.795206 0.551078
Si Si2 0.701740 0.322899 0.227667
Si Si3 0.172989 0.835707 0.709668
Si Si4 0.146045 0.217117 0.930382
Si Si5 0.540999 0.936426 0.874162
Si Si6 0.430893 0.421585 0.661465
O O1 0.637555 0.755801 0.644720
O O2 0.508456 0.813107 0.604570
O O3 0.559085 0.672650 0.448601
O O4 0.564897 0.950103 0.482998
O O5 0.766348 0.254952 0.209827
O O6 0.694144 0.495443 0.203159
O O7 0.703597 0.296199 0.368521
O O8 0.155688 0.772947 0.573604
O O9 0.113381 0.837693 0.767108
O O10 0.103926 0.353712 0.866646
O O11 0.106696 0.068528 0.888487
O O12 0.500000 0.013021 0.750000
O O13 0.500000 0.456393 0.750000
#
# Coordination Sequence:
#
# PCOD9303873 Si02
#       6
#     8   8   8   8   8   8
#     4  11  24  43  65 100 136 170 223 272 329 396
#     4  11  25  46  66  97 134 175 225 270 330 395
#     4  11  26  44  68  98 133 180 220 270 333 390
#     4  11  23  43  70  97 130 174 222 272 329 393
#     4  11  23  40  68 101 133 175 216 272 336 387
#     4  11  24  43  69  99 133 170 218 277 331 392
#
# _framework density 21.953436
#
# number of rings (size 3 to 8) (size 9 to 14) (size 15 to 20)
#    0.000    1.000    3.333    2.500    4.667    4.667 
#    0.000    0.000    0.000    0.000    0.000    0.000 
#    0.000    0.000    0.000    0.000    0.000    0.000 
#
# Total GULP energy -134146.764362 kJ/mol
# GULP energy per Si atom -5589.448515 kJ/mol
# Density = 2.190347 g / cm^3
# Si number density = 21.953436 Si / 1000 Ang^3
#
#
#
# Elastic Constant Matrix: (Units=GPa)
#
#
# Indices 1 2 3 4 5 6 
#
# 1 50.0211 -1.6830 -18.9244 0.0000 8.1066 0.0000
# 2 -1.6830 35.9621 -10.5780 0.0000 6.2077 0.0000
# 3 -18.9244 -10.5780 67.6284 0.0000 12.0362 0.0000
# 4 0.0000 0.0000 0.0000 12.0377 0.0000 6.9989
# 5 8.1066 6.2077 12.0362 0.0000 22.9683 0.0000
# 6 0.0000 0.0000 0.0000 6.9989 0.0000 25.2652
#
#
#
# Elastic Compliance Matrix: (Units=1/GPa)
#
#
# Indices 1 2 3 4 5 6 
#
# 1 0.027975 0.008169 0.012414 0.000000 -0.018587 0.000000
# 2 0.008169 0.034473 0.010863 0.000000 -0.017893 0.000000
# 3 0.012414 0.010863 0.023449 0.000000 -0.019605 0.000000
# 4 0.000000 0.000000 0.000000 0.099021 0.000000 -0.027430
# 5 -0.018587 -0.017893 -0.019605 0.000000 0.065209 0.000000
# 6 0.000000 0.000000 0.000000 -0.027430 0.000000 0.047179
#
#
# Mechanical properties :
#
#
# Convention : Reuss Voigt Hill
#
# Bulk Modulus (GPa) = 6.72091 10.13787 8.42939
# Shear Modulus (GPa) = 17.60503 24.37403 20.98953
#
# Velocity S-wave (km/s) = 2.83490 3.33567 3.09543
# Velocity P-wave (km/s) = 3.71263 4.41175 4.07720
#
# Compressibility (1/GPa) = 0.14878944
#
# Stress axis : x y z
#
# Youngs Moduli (GPa) = 35.74574 29.00807 42.64594
#
# Poissons Ratio (x) = -0.23697 -0.52941
# Poissons Ratio (y) = -0.29202 -0.46324
# Poissons Ratio (z) = -0.44375 -0.31510
#
# Static dielectric constant tensor:
#      x y z
#    x 1.790790 0.000000 -0.009590 
#    y 0.000000 1.762220 0.000000 
#    z -0.009590 0.000000 1.833850 
# 
# From -- ./inp_files/116723.got.cif
#   From: 2010.05.17/outbox.cif.g08.bks.cpg/sg15_59_cif.got.tgz:116723.got - 2010.06.03 18:47:42.
