data_PCOD9303772
_publ_section_title
;
Structure prediction by ZEFSAII (Michael W. Deem and Ramdas Pophale) SiO2 
 PCOD9303772
Probable space group: C 2/C
;
_chemical_formula_sum "Si O2"
_cell_formula_units_Z 56
_cell_length_a 17.732814
_cell_length_b 23.057152
_cell_length_c 7.995323
_cell_angle_alpha 90.000000
_cell_angle_beta 128.623457
_cell_angle_gamma 90.000000
_cell_volume 2553.981209
_symmetry_space_group_name_H-M "C 2/C"
_symmetry_group_IT_number 15
_symmetry_cell_setting 'monoclinic'
loop_
_space_group_symop_operation_xyz
x,y,z
-x,y,1/2-z
-x,-y,-z
x,-y,1/2+z
1/2+x,1/2+y,z
1/2-x,1/2+y,1/2-z
1/2-x,1/2-y,-z
1/2+x,1/2-y,1/2+z
loop_
_atom_site_type_symbol
_atom_site_label
_atom_site_fract_x
_atom_site_fract_y
_atom_site_fract_z
Si Si1 0.240898 0.782173 0.309546
Si Si2 0.182947 0.164653 0.238607
Si Si3 0.170905 0.377664 0.272845
Si Si4 0.191295 0.409943 0.781248
Si Si5 0.884044 0.487787 0.126321
Si Si6 0.018616 0.789674 0.965920
Si Si7 0.515686 0.832609 0.584668
O O1 0.250000 0.750000 0.500000
O O2 0.279447 0.730590 0.241427
O O3 0.301381 0.840469 0.354982
O O4 0.131456 0.803447 0.132100
O O5 0.246029 0.140480 0.481266
O O6 0.207808 0.121417 0.118634
O O7 0.068617 0.166868 0.113918
O O8 0.145001 0.445430 0.256955
O O9 0.064727 0.352262 0.157629
O O10 0.162138 0.451762 0.588038
O O11 0.166737 0.450977 0.903850
O O12 0.117633 0.356380 0.669199
O O13 0.000000 0.493232 0.250000
O O14 0.000000 0.770396 0.750000
O O15 0.009797 0.735907 0.077881
O O16 0.500000 0.856159 0.750000
#
# Coordination Sequence:
#
# PCOD9303772 Si02
#       7
#     8   8   8   8   8   8   8
#     4  12  24  39  64  98 133 171 217 271 328 386
#     4  11  24  41  63  92 127 172 220 264 324 400
#     4  11  23  40  59  91 128 172 221 264 324 398
#     4  11  25  40  62  94 129 171 218 269 331 400
#     4  11  23  39  62  91 129 169 217 274 336 398
#     4  12  24  41  66  93 133 179 215 261 326 401
#     4  12  24  36  61  94 137 171 210 266 329 394
#
# _framework density 21.926552000000001
#
# number of rings (size 3 to 8) (size 9 to 14) (size 15 to 20)
#    0.000    0.571    5.714    3.000    4.000    0.000 
#    0.000    0.000    0.000    0.857    0.000    0.000 
#    0.000    0.000    0.000    0.000    0.000    0.000 
#
# Total GULP energy -156222.523767 kJ/mol
# GULP energy per Si atom -5579.375849 kJ/mol
# Density = 2.187665 g / cm^3
# Si number density = 21.926552 Si / 1000 Ang^3
#
#
#
# Elastic Constant Matrix: (Units=GPa)
#
#
# Indices 1 2 3 4 5 6 
#
# 1 102.1151 43.3809 48.7597 0.0000 10.0575 0.0000
# 2 43.3809 113.5279 20.4455 0.0000 3.8530 0.0000
# 3 48.7597 20.4455 67.7124 0.0000 11.7846 0.0000
# 4 0.0000 0.0000 0.0000 15.4991 0.0000 1.8570
# 5 10.0575 3.8530 11.7846 0.0000 43.0037 0.0000
# 6 0.0000 0.0000 0.0000 1.8570 0.0000 45.6099
#
#
#
# Elastic Compliance Matrix: (Units=1/GPa)
#
#
# Indices 1 2 3 4 5 6 
#
# 1 0.016864 -0.004500 -0.010678 0.000000 -0.000615 0.000000
# 2 -0.004500 0.010516 0.000048 0.000000 0.000097 0.000000
# 3 -0.010678 0.000048 0.023111 0.000000 -0.003840 0.000000
# 4 0.000000 0.000000 0.000000 0.064836 0.000000 -0.002640
# 5 -0.000615 0.000097 -0.003840 0.000000 0.024441 0.000000
# 6 0.000000 0.000000 0.000000 -0.002640 0.000000 0.022033
#
#
# Mechanical properties :
#
#
# Convention : Reuss Voigt Hill
#
# Bulk Modulus (GPa) = 49.42700 56.50308 52.96504
# Shear Modulus (GPa) = 25.15036 32.20716 28.67876
#
# Velocity S-wave (km/s) = 3.39045 3.83674 3.62048
# Velocity P-wave (km/s) = 6.15775 6.74185 6.45641
#
# Compressibility (1/GPa) = 0.02023186
#
# Stress axis : x y z
#
# Youngs Moduli (GPa) = 59.29858 95.09357 43.26893
#
# Poissons Ratio (x) = 0.42793 0.46202
# Poissons Ratio (y) = 0.26685 -0.00209
# Poissons Ratio (z) = 0.63318 -0.00460
#
# Static dielectric constant tensor:
#      x y z
#    x 1.888450 0.000000 -0.083990 
#    y 0.000000 1.814030 0.000000 
#    z -0.083990 0.000000 1.896410 
# 
# From -- ./inp_files/51571.got.cif
#   From: 2010.05.17/outbox.cif.g08.bks.cpg/sg15_26_cif.got.tgz:51571.got - 2010.06.03 18:47:42.
