data_PCOD9303804
_publ_section_title
;
Structure prediction by ZEFSAII (Michael W. Deem and Ramdas Pophale) SiO2 
 PCOD9303804
Probable space group: C 2/C
;
_chemical_formula_sum "Si O2"
_cell_formula_units_Z 48
_cell_length_a 20.676930
_cell_length_b 11.782585
_cell_length_c 19.867212
_cell_angle_alpha 90.000000
_cell_angle_beta 155.397237
_cell_angle_gamma 90.000000
_cell_volume 2015.095710
_symmetry_space_group_name_H-M "C 2/C"
_symmetry_group_IT_number 15
_symmetry_cell_setting 'monoclinic'
loop_
_space_group_symop_operation_xyz
x,y,z
-x,y,1/2-z
-x,-y,-z
x,-y,1/2+z
1/2+x,1/2+y,z
1/2-x,1/2+y,1/2-z
1/2-x,1/2-y,-z
1/2+x,1/2-y,1/2+z
loop_
_atom_site_type_symbol
_atom_site_label
_atom_site_fract_x
_atom_site_fract_y
_atom_site_fract_z
Si Si1 0.518170 0.259358 0.464532
Si Si2 0.847410 0.668092 0.437173
Si Si3 0.732376 0.327689 0.377737
Si Si4 0.315721 0.910043 0.590640
Si Si5 0.177402 0.961215 0.673050
Si Si6 0.836572 0.606864 0.712361
O O1 0.440240 0.216768 0.459254
O O2 0.402614 0.326090 0.305479
O O3 0.600499 0.160523 0.500288
O O4 0.661788 0.339477 0.621755
O O5 0.739737 0.568693 0.305558
O O6 0.747078 0.771911 0.369920
O O7 0.979233 0.625274 0.611861
O O8 0.730746 0.202841 0.411845
O O9 0.723618 0.410107 0.433035
O O10 0.500000 0.900209 0.750000
O O11 0.286986 0.020861 0.607537
O O12 0.284496 0.046516 0.733112
O O13 0.000000 0.000000 0.500000
#
# Coordination Sequence:
#
# PCOD9303804 Si02
#       6
#     8   8   8   8   8   8
#     4  12  20  40  68 104 142 170 222 305 368 413
#     4  12  24  43  72 106 149 184 229 306 366 443
#     4  11  23  39  68 100 145 174 228 302 356 424
#     4  11  24  42  64  97 135 191 243 280 347 422
#     4  12  24  40  66 110 141 180 233 285 376 443
#     4  12  24  45  69 103 147 188 240 292 368 434
#
# _framework density 23.820208999999998
#
# number of rings (size 3 to 8) (size 9 to 14) (size 15 to 20)
#    0.000    0.333    8.333    0.500    0.000    1.333 
#    0.000    0.833    0.000    0.000    0.000    0.000 
#    0.000    0.000    0.000    0.000    0.000    0.000 
#
# Total GULP energy -134440.417555 kJ/mol
# GULP energy per Si atom -5601.684065 kJ/mol
# Density = 2.376599 g / cm^3
# Si number density = 23.820209 Si / 1000 Ang^3
#
#
#
# Elastic Constant Matrix: (Units=GPa)
#
#
# Indices 1 2 3 4 5 6 
#
# 1 52.0391 12.4636 5.9303 0.0008 -6.7683 0.0004
# 2 12.4636 97.8967 35.2106 0.0014 -4.7139 0.0010
# 3 5.9303 35.2106 114.9940 0.0020 -16.1522 0.0012
# 4 0.0008 0.0014 0.0020 41.4092 0.0005 1.0965
# 5 -6.7683 -4.7139 -16.1522 0.0005 39.3719 0.0000
# 6 0.0004 0.0010 0.0012 1.0965 0.0000 27.0587
#
#
#
# Elastic Compliance Matrix: (Units=1/GPa)
#
#
# Indices 1 2 3 4 5 6 
#
# 1 0.020213 -0.002479 0.000173 0.000000 0.003249 0.000000
# 2 -0.002479 0.011783 -0.003546 0.000000 -0.000470 0.000000
# 3 0.000173 -0.003546 0.010312 0.000000 0.003836 0.000000
# 4 0.000000 0.000000 0.000000 0.024175 -0.000001 -0.000980
# 5 0.003249 -0.000470 0.003836 -0.000001 0.027475 0.000000
# 6 0.000000 0.000000 0.000000 -0.000980 0.000000 0.036996
#
#
# Mechanical properties :
#
#
# Convention : Reuss Voigt Hill
#
# Bulk Modulus (GPa) = 32.67612 41.34876 37.01244
# Shear Modulus (GPa) = 32.70971 35.65632 34.18302
#
# Velocity S-wave (km/s) = 3.70968 3.87317 3.79231
# Velocity P-wave (km/s) = 5.66538 6.11541 5.89469
#
# Compressibility (1/GPa) = 0.03060339
#
# Stress axis : x y z
#
# Youngs Moduli (GPa) = 49.47322 84.86588 96.97680
#
# Poissons Ratio (x) = 0.21040 -0.01678
# Poissons Ratio (y) = 0.12265 0.34390
# Poissons Ratio (z) = -0.00856 0.30095
#
# Static dielectric constant tensor:
#      x y z
#    x 1.933520 0.000000 -0.014370 
#    y 0.000000 1.984950 0.000000 
#    z -0.014370 0.000000 1.889770 
# 
# From -- ./inp_files/283561.got.cif
#   From: 2010.05.17/outbox.cif.g08.bks.cpg/sg15_142_cif.got.tgz:283561.got - 2010.06.03 18:47:42.
