data_PCOD9303903
_publ_section_title
;
Structure prediction by ZEFSAII (Michael W. Deem and Ramdas Pophale) SiO2 
 PCOD9303903
Probable space group: C 2/C
;
_chemical_formula_sum "Si O2"
_cell_formula_units_Z 64
_cell_length_a 24.433226
_cell_length_b 13.502619
_cell_length_c 18.219067
_cell_angle_alpha 90.000000
_cell_angle_beta 153.215116
_cell_angle_gamma 90.000000
_cell_volume 2708.673521
_symmetry_space_group_name_H-M "C 2/C"
_symmetry_group_IT_number 15
_symmetry_cell_setting 'monoclinic'
loop_
_space_group_symop_operation_xyz
x,y,z
-x,y,1/2-z
-x,-y,-z
x,-y,1/2+z
1/2+x,1/2+y,z
1/2-x,1/2+y,1/2-z
1/2-x,1/2-y,-z
1/2+x,1/2-y,1/2+z
loop_
_atom_site_type_symbol
_atom_site_label
_atom_site_fract_x
_atom_site_fract_y
_atom_site_fract_z
Si Si1 0.481955 0.258174 0.315482
Si Si2 0.063383 0.591482 0.642243
Si Si3 0.240386 0.932747 0.860981
Si Si4 0.194717 0.366474 0.147864
Si Si5 0.702865 0.830610 0.711166
Si Si6 0.694494 0.905277 0.850909
Si Si7 0.413718 0.524515 0.712673
Si Si8 0.621799 0.196846 0.861252
O O1 0.500000 0.250053 0.250000
O O2 0.589109 0.201204 0.485503
O O3 0.361337 0.197792 0.190672
O O4 0.464182 0.374294 0.308151
O O5 0.150475 0.602986 0.676184
O O6 0.087550 0.483282 0.705771
O O7 0.090481 0.661314 0.742680
O O8 0.928284 0.618904 0.456062
O O9 0.224993 0.856270 0.776054
O O10 0.275577 0.038305 0.866299
O O11 0.120634 0.946991 0.766328
O O12 0.344407 0.890088 0.039656
O O13 0.303615 0.287088 0.285744
O O14 0.757378 0.882250 0.848552
O O15 0.787248 0.947317 0.020844
O O16 0.500000 0.490977 0.750000
O O17 0.500000 0.246026 0.750000
O O18 0.750000 0.250000 0.000000
#
# Coordination Sequence:
#
# PCOD9303903 Si02
#       8
#     8   8   8   8   8   8   8   8
#     4  11  23  40  71 108 144 192 244 307 382 449
#     4  12  25  45  71 103 145 192 252 313 369 446
#     4  12  25  47  77 108 145 203 257 305 380 461
#     4  12  26  46  74 111 151 194 251 311 382 460
#     4  12  24  44  72 109 146 190 249 306 376 446
#     4  12  22  44  69 100 146 190 247 307 373 453
#     4  11  25  45  67 109 152 195 249 314 383 451
#     4  12  28  51  80 113 151 202 262 320 384 461
#
# _framework density 23.627801000000002
#
# number of rings (size 3 to 8) (size 9 to 14) (size 15 to 20)
#    0.000    0.250    5.000    5.250    0.000    0.500 
#    0.000    3.750    0.000    0.000    0.000    0.000 
#    0.000    0.000    0.000    0.000    0.000    0.000 
#
# Total GULP energy -179100.418975 kJ/mol
# GULP energy per Si atom -5596.888093 kJ/mol
# Density = 2.357402 g / cm^3
# Si number density = 23.627801 Si / 1000 Ang^3
#
#
#
# Elastic Constant Matrix: (Units=GPa)
#
#
# Indices 1 2 3 4 5 6 
#
# 1 112.3211 15.3167 10.1299 0.0000 18.1966 0.0000
# 2 15.3167 85.7253 30.8382 0.0000 11.5868 0.0000
# 3 10.1299 30.8382 60.0727 0.0000 8.0003 0.0000
# 4 0.0000 0.0000 0.0000 32.3229 0.0000 2.7236
# 5 18.1966 11.5868 8.0003 0.0000 37.1351 0.0000
# 6 0.0000 0.0000 0.0000 2.7236 0.0000 45.4082
#
#
#
# Elastic Compliance Matrix: (Units=1/GPa)
#
#
# Indices 1 2 3 4 5 6 
#
# 1 0.009794 -0.000949 -0.000581 0.000000 -0.004378 0.000000
# 2 -0.000949 0.014724 -0.007051 0.000000 -0.002610 0.000000
# 3 -0.000581 -0.007051 0.020625 0.000000 -0.001959 0.000000
# 4 0.000000 0.000000 0.000000 0.031095 0.000000 -0.001865
# 5 -0.004378 -0.002610 -0.001959 0.000000 0.030310 0.000000
# 6 0.000000 0.000000 0.000000 -0.001865 0.000000 0.022134
#
#
# Mechanical properties :
#
#
# Convention : Reuss Voigt Hill
#
# Bulk Modulus (GPa) = 35.73924 41.18761 38.46343
# Shear Modulus (GPa) = 32.22233 36.42886 34.32559
#
# Velocity S-wave (km/s) = 3.69690 3.93081 3.81565
# Velocity P-wave (km/s) = 5.77767 6.17020 5.97716
#
# Compressibility (1/GPa) = 0.02798045
#
# Stress axis : x y z
#
# Youngs Moduli (GPa) = 102.10198 67.91651 48.48506
#
# Poissons Ratio (x) = 0.06446 0.02818
# Poissons Ratio (y) = 0.09690 0.34186
# Poissons Ratio (z) = 0.05935 0.47887
#
# Static dielectric constant tensor:
#      x y z
#    x 1.921130 0.000000 0.027570 
#    y 0.000000 1.930740 0.000000 
#    z 0.027570 0.000000 1.926570 
# 
# From -- ./inp_files/219743.got.cif
#   From: 2010.05.17/outbox.cif.g08.bks.cpg/sg15_110_cif.got.tgz:219743.got - 2010.06.03 18:47:42.
