data_PCOD9303058
_publ_section_title
;
Structure prediction by ZEFSAII (Michael W. Deem and Ramdas Pophale) SiO2 
 PCOD9303058
Probable space group: C 2/C
;
_chemical_formula_sum "Si O2"
_cell_formula_units_Z 52
_cell_length_a 7.860579
_cell_length_b 22.218936
_cell_length_c 19.713877
_cell_angle_alpha 90.000000
_cell_angle_beta 134.308438
_cell_angle_gamma 90.000000
_cell_volume 2463.848621
_symmetry_space_group_name_H-M "C 2/C"
_symmetry_group_IT_number 15
_symmetry_cell_setting 'monoclinic'
loop_
_space_group_symop_operation_xyz
x,y,z
-x,y,1/2-z
-x,-y,-z
x,-y,1/2+z
1/2+x,1/2+y,z
1/2-x,1/2+y,1/2-z
1/2-x,1/2-y,-z
1/2+x,1/2-y,1/2+z
loop_
_atom_site_type_symbol
_atom_site_label
_atom_site_fract_x
_atom_site_fract_y
_atom_site_fract_z
Si Si1 0.951571 0.725621 0.317076
Si Si2 0.820458 0.129521 0.455925
Si Si3 0.646725 0.994361 0.972401
Si Si4 0.789352 0.147854 0.826290
Si Si5 0.000000 0.155060 0.250000
Si Si6 0.467537 0.575220 0.358783
Si Si7 0.168111 0.529279 0.732051
O O1 0.913295 0.794499 0.327957
O O2 0.709311 0.692713 0.273420
O O3 0.000000 0.722601 0.250000
O O4 0.162174 0.689643 0.413902
O O5 0.694135 0.072163 0.456560
O O6 0.843583 0.114177 0.382479
O O7 0.074604 0.137559 0.564316
O O8 0.892087 0.026650 0.057715
O O9 0.500000 0.000000 0.000000
O O10 0.501715 0.034044 0.878693
O O11 0.500000 0.156057 0.750000
O O12 0.824400 0.087952 0.790252
O O13 0.897551 0.115980 0.158372
O O14 0.301861 0.533828 0.265754
O O15 0.000000 0.523652 0.750000
#
# Coordination Sequence:
#
# PCOD9303058 Si02
#       7
#     8   8   8   8   4   8   8
#     4  12  26  50  74 103 144 199 249 304 361 428
#     4  12  24  45  75 109 144 194 248 299 375 439
#     4  12  25  40  66 109 148 185 236 299 369 444
#     4  11  25  47  71 103 148 191 251 301 357 442
#     4  12  26  46  74 108 146 188 248 298 362 448
#     4  12  22  43  71 107 143 182 235 297 367 441
#     4  11  22  41  70 103 142 189 230 292 372 430
#
# _framework density 21.105191000000001
#
# number of rings (size 3 to 8) (size 9 to 14) (size 15 to 20)
#    0.000    0.308    5.385    5.538    0.000    1.231 
#    1.385    6.154    0.000    0.000    0.000    0.000 
#    0.000    0.000    0.000    0.000    0.000    0.000 
#
# Total GULP energy -145240.444567 kJ/mol
# GULP energy per Si atom -5586.170945 kJ/mol
# Density = 2.105715 g / cm^3
# Si number density = 21.105191 Si / 1000 Ang^3
#
#
#
# Elastic Constant Matrix: (Units=GPa)
#
#
# Indices 1 2 3 4 5 6 
#
# 1 94.7648 47.0012 24.0904 0.0000 -20.5561 0.0000
# 2 47.0012 110.0958 26.8610 0.0000 -7.8208 0.0000
# 3 24.0904 26.8610 89.3875 0.0000 -2.7007 -0.0001
# 4 0.0000 0.0000 0.0000 18.5693 0.0000 17.1676
# 5 -20.5561 -7.8208 -2.7007 0.0000 43.3091 0.0000
# 6 0.0000 0.0000 -0.0001 17.1676 0.0000 -3.4730
#
#
#
# Elastic Compliance Matrix: (Units=1/GPa)
#
#
# Indices 1 2 3 4 5 6 
#
# 1 0.015166 -0.005494 -0.002253 0.000000 0.006066 0.000000
# 2 -0.005494 0.011902 -0.002114 0.000000 -0.000590 0.000000
# 3 -0.002253 -0.002114 0.012409 0.000000 -0.000677 0.000000
# 4 0.000000 0.000000 0.000000 0.009668 0.000000 0.047792
# 5 0.006066 -0.000590 -0.000677 0.000000 0.025820 0.000000
# 6 0.000000 0.000000 0.000000 0.047792 0.000000 -0.051693
#
#
# Mechanical properties :
#
#
# Convention : Reuss Voigt Hill
#
# Bulk Modulus (GPa) = 50.61844 54.46147 52.53996
# Shear Modulus (GPa) = 100.84975 24.76745 62.80860
#
# Velocity S-wave (km/s) = 6.92012 3.42939 5.46117
# Velocity P-wave (km/s) = 9.37479 6.44529 8.04452
#
# Compressibility (1/GPa) = 0.01975564
#
# Stress axis : x y z
#
# Youngs Moduli (GPa) = 65.93785 84.01803 80.58533
#
# Poissons Ratio (x) = 0.46158 0.18157
# Poissons Ratio (y) = 0.36225 0.17034
# Poissons Ratio (z) = 0.14856 0.17760
#
# Static dielectric constant tensor:
#      x y z
#    x 1.789500 0.000000 0.040700 
#    y 0.000000 1.847310 0.000000 
#    z 0.040700 0.000000 1.750200 
# 
# From -- ./inp_files/192613.got.cif
#   From: 2010.05.17/outbox.cif.g08.bks.cpg/sg15_97_cif.got.tgz:192613.got - 2010.06.03 18:47:42.
