data_PCOD9303739
_publ_section_title
;
Structure prediction by ZEFSAII (Michael W. Deem and Ramdas Pophale) SiO2 
 PCOD9303739
Probable space group: C 2/C
;
_chemical_formula_sum "Si O2"
_cell_formula_units_Z 64
_cell_length_a 27.530112
_cell_length_b 13.946906
_cell_length_c 19.522638
_cell_angle_alpha 90.000000
_cell_angle_beta 158.117561
_cell_angle_gamma 90.000000
_cell_volume 2793.750972
_symmetry_space_group_name_H-M "C 2/C"
_symmetry_group_IT_number 15
_symmetry_cell_setting 'monoclinic'
loop_
_space_group_symop_operation_xyz
x,y,z
-x,y,1/2-z
-x,-y,-z
x,-y,1/2+z
1/2+x,1/2+y,z
1/2-x,1/2+y,1/2-z
1/2-x,1/2-y,-z
1/2+x,1/2-y,1/2+z
loop_
_atom_site_type_symbol
_atom_site_label
_atom_site_fract_x
_atom_site_fract_y
_atom_site_fract_z
Si Si1 0.668973 0.446485 0.335071
Si Si2 0.847668 0.749639 0.263244
Si Si3 0.366236 0.709271 0.317550
Si Si4 0.865493 0.595853 0.533267
Si Si5 0.734766 0.548299 0.072629
Si Si6 0.108733 0.978238 0.555517
Si Si7 0.306737 0.141089 0.842199
Si Si8 0.498785 0.985652 0.415590
O O1 0.652014 0.336006 0.290707
O O2 0.799441 0.497828 0.477341
O O3 0.656535 0.447222 0.400491
O O4 0.543584 0.501617 0.141090
O O5 0.815495 0.646589 0.190711
O O6 0.721988 0.775185 0.143525
O O7 0.978802 0.760706 0.481784
O O8 0.370107 0.620745 0.376673
O O9 0.307713 0.807277 0.271036
O O10 0.255471 0.670775 0.120200
O O11 0.000000 0.616074 0.750000
O O12 0.913535 0.585892 0.515885
O O13 0.658239 0.529383 0.042204
O O14 0.847762 0.470980 0.204381
O O15 0.193450 0.062739 0.698812
O O16 0.439269 0.085729 0.028926
O O17 0.500000 0.000000 0.500000
#
# Coordination Sequence:
#
# PCOD9303739 Si02
#       8
#     8   8   8   8   8   8   8   8
#     4  11  24  41  63  99 138 181 217 276 356 413
#     4  11  23  38  63 100 135 169 226 284 345 404
#     4  11  23  40  66  95 129 175 228 278 329 403
#     4  12  24  44  67  96 137 179 227 282 340 404
#     4  12  22  40  64  97 137 178 218 282 348 416
#     4  11  23  42  65  94 135 180 227 273 334 405
#     4  12  22  40  68  95 128 171 232 286 327 396
#     4  12  23  41  69  95 124 177 233 274 334 403
#
# _framework density 22.908269000000001
#
# number of rings (size 3 to 8) (size 9 to 14) (size 15 to 20)
#    0.000    0.500    7.500    1.500    0.000    2.000 
#    0.000    1.250    0.000    3.000    0.000    0.000 
#    0.000    0.000    0.000    0.000    0.000    0.000 
#
# Total GULP energy -178404.624937 kJ/mol
# GULP energy per Si atom -5575.144529 kJ/mol
# Density = 2.285613 g / cm^3
# Si number density = 22.908269 Si / 1000 Ang^3
#
#
#
# Elastic Constant Matrix: (Units=GPa)
#
#
# Indices 1 2 3 4 5 6 
#
# 1 82.2411 -4.9383 10.2311 0.0000 2.7485 0.0000
# 2 -4.9383 39.6056 -3.8856 0.0000 6.7820 0.0000
# 3 10.2311 -3.8856 100.3032 0.0000 1.8225 0.0000
# 4 0.0000 0.0000 0.0000 24.1513 0.0000 6.7218
# 5 2.7485 6.7820 1.8225 0.0000 32.0328 0.0000
# 6 0.0000 0.0000 0.0000 6.7218 0.0000 32.5571
#
#
#
# Elastic Compliance Matrix: (Units=1/GPa)
#
#
# Indices 1 2 3 4 5 6 
#
# 1 0.012452 0.001669 -0.001181 0.000000 -0.001354 0.000000
# 2 0.001669 0.026548 0.000964 0.000000 -0.005819 0.000000
# 3 -0.001181 0.000964 0.010140 0.000000 -0.000680 0.000000
# 4 0.000000 0.000000 0.000000 0.043930 0.000000 -0.009070
# 5 -0.001354 -0.005819 -0.000680 0.000000 0.032605 0.000000
# 6 0.000000 0.000000 0.000000 -0.009070 0.000000 0.032588
#
#
# Mechanical properties :
#
#
# Convention : Reuss Voigt Hill
#
# Bulk Modulus (GPa) = 19.21483 24.99605 22.10544
# Shear Modulus (GPa) = 28.95086 32.46443 30.70765
#
# Velocity S-wave (km/s) = 3.55882 3.76859 3.66520
# Velocity P-wave (km/s) = 5.02920 5.46547 5.25187
#
# Compressibility (1/GPa) = 0.05204315
#
# Stress axis : x y z
#
# Youngs Moduli (GPa) = 80.31012 37.66764 98.62019
#
# Poissons Ratio (x) = -0.06285 0.11646
# Poissons Ratio (y) = -0.13401 -0.09506
# Poissons Ratio (z) = 0.09483 -0.03631
#
# Static dielectric constant tensor:
#      x y z
#    x 1.937370 0.000000 -0.013560 
#    y 0.000000 1.877570 0.000000 
#    z -0.013560 0.000000 1.907950 
# 
# From -- ./inp_files/123568.got.cif
#   From: 2010.05.17/outbox.cif.g08.bks.cpg/sg15_62_cif.got.tgz:123568.got - 2010.06.03 18:47:42.
