data_PCOD9303410
_publ_section_title
;
Structure prediction by ZEFSAII (Michael W. Deem and Ramdas Pophale) SiO2 
 PCOD9303410
Probable space group: C 2/C
;
_chemical_formula_sum "Si O2"
_cell_formula_units_Z 32
_cell_length_a 8.337443
_cell_length_b 14.081057
_cell_length_c 11.013290
_cell_angle_alpha 90.000000
_cell_angle_beta 100.530712
_cell_angle_gamma 90.000000
_cell_volume 1271.183134
_symmetry_space_group_name_H-M "C 2/C"
_symmetry_group_IT_number 15
_symmetry_cell_setting 'monoclinic'
loop_
_space_group_symop_operation_xyz
x,y,z
-x,y,1/2-z
-x,-y,-z
x,-y,1/2+z
1/2+x,1/2+y,z
1/2-x,1/2+y,1/2-z
1/2-x,1/2-y,-z
1/2+x,1/2-y,1/2+z
loop_
_atom_site_type_symbol
_atom_site_label
_atom_site_fract_x
_atom_site_fract_y
_atom_site_fract_z
Si Si1 0.500000 0.274238 0.250000
Si Si2 0.500000 0.405040 0.750000
Si Si3 0.892148 0.058728 0.889865
Si Si4 0.334281 0.743593 0.380411
Si Si5 0.972473 0.561278 0.615418
O O1 0.514929 0.348024 0.140883
O O2 0.672558 0.221801 0.277084
O O3 0.367241 0.485566 0.771800
O O4 0.527626 0.331015 0.642942
O O5 0.717843 0.087759 0.915508
O O6 0.000000 0.000000 0.000000
O O7 0.250000 0.750000 0.500000
O O8 0.411576 0.846737 0.368137
O O9 0.000000 0.512481 0.750000
O O10 0.000000 0.500000 0.500000
#
# Coordination Sequence:
#
# PCOD9303410 Si02
#       5
#     4   4   8   8   8
#     4  11  22  44  68  99 142 186 244 293 366 448
#     4  11  24  44  70 103 148 178 244 303 376 426
#     4  11  24  43  73 102 140 193 246 301 364 447
#     4  12  25  48  71 107 148 193 243 314 378 442
#     4  12  25  48  75 106 146 193 251 301 372 454
#
# _framework density 25.173397000000001
#
# number of rings (size 3 to 8) (size 9 to 14) (size 15 to 20)
#    0.000    0.500    3.750    4.500    3.500    2.000 
#    4.500    5.000    0.000    0.000    0.000    0.000 
#    0.000    0.000    0.000    0.000    0.000    0.000 
#
# Total GULP energy -89236.537068 kJ/mol
# GULP energy per Si atom -5577.283567 kJ/mol
# Density = 2.511610 g / cm^3
# Si number density = 25.173397 Si / 1000 Ang^3
#
#
#
# Elastic Constant Matrix: (Units=GPa)
#
#
# Indices 1 2 3 4 5 6 
#
# 1 162.0200 26.9368 39.8006 0.0000 -8.4817 0.0000
# 2 26.9368 84.9514 25.2840 0.0000 -13.7912 0.0000
# 3 39.8006 25.2840 123.9850 0.0000 -26.4030 0.0000
# 4 0.0000 0.0000 0.0000 33.5264 0.0000 -4.8256
# 5 -8.4817 -13.7912 -26.4030 0.0000 48.5840 0.0000
# 6 0.0000 0.0000 0.0000 -4.8256 0.0000 27.9388
#
#
#
# Elastic Compliance Matrix: (Units=1/GPa)
#
#
# Indices 1 2 3 4 5 6 
#
# 1 0.006910 -0.001664 -0.001948 0.000000 -0.000325 0.000000
# 2 -0.001664 0.013197 -0.001607 0.000000 0.002582 0.000000
# 3 -0.001948 -0.001607 0.010007 0.000000 0.004642 0.000000
# 4 0.000000 0.000000 0.000000 0.030588 0.000000 0.005283
# 5 -0.000325 0.002582 0.004642 0.000000 0.023782 0.000000
# 6 0.000000 0.000000 0.000000 0.005283 0.000000 0.036705
#
#
# Mechanical properties :
#
#
# Convention : Reuss Voigt Hill
#
# Bulk Modulus (GPa) = 50.82451 61.66660 56.24555
# Shear Modulus (GPa) = 36.18323 40.60550 38.39436
#
# Velocity S-wave (km/s) = 3.79537 4.02061 3.90961
# Velocity P-wave (km/s) = 6.28013 6.78997 6.54002
#
# Compressibility (1/GPa) = 0.01967555
#
# Stress axis : x y z
#
# Youngs Moduli (GPa) = 144.71178 75.77719 99.92877
#
# Poissons Ratio (x) = 0.12610 0.19467
# Poissons Ratio (y) = 0.24081 0.16060
# Poissons Ratio (z) = 0.28191 0.12178
#
# Static dielectric constant tensor:
#      x y z
#    x 2.010240 0.000000 0.072770 
#    y 0.000000 1.958900 0.000000 
#    z 0.072770 0.000000 2.177670 
# 
# From -- ./inp_files/75375.got.cif
#   From: 2010.05.17/outbox.cif.g08.bks.cpg/sg15_38_cif.got.tgz:75375.got - 2010.06.03 18:47:42.
