data_PCOD9303525
_publ_section_title
;
Structure prediction by ZEFSAII (Michael W. Deem and Ramdas Pophale) SiO2 
 PCOD9303525
Probable space group: C 2/C
;
_chemical_formula_sum "Si O2"
_cell_formula_units_Z 44
_cell_length_a 12.814625
_cell_length_b 14.685108
_cell_length_c 11.534249
_cell_angle_alpha 90.000000
_cell_angle_beta 98.277282
_cell_angle_gamma 90.000000
_cell_volume 2147.952004
_symmetry_space_group_name_H-M "C 2/C"
_symmetry_group_IT_number 15
_symmetry_cell_setting 'monoclinic'
loop_
_space_group_symop_operation_xyz
x,y,z
-x,y,1/2-z
-x,-y,-z
x,-y,1/2+z
1/2+x,1/2+y,z
1/2-x,1/2+y,1/2-z
1/2-x,1/2-y,-z
1/2+x,1/2-y,1/2+z
loop_
_atom_site_type_symbol
_atom_site_label
_atom_site_fract_x
_atom_site_fract_y
_atom_site_fract_z
Si Si1 0.070325 0.056242 0.599581
Si Si2 0.738406 0.142746 0.008875
Si Si3 0.123616 0.364687 0.269959
Si Si4 0.500000 0.710019 0.750000
Si Si5 0.230865 0.274842 0.861288
Si Si6 0.256373 0.542547 0.251369
O O1 0.166916 0.093711 0.541099
O O2 0.013788 0.143503 0.642904
O O3 0.127380 0.001548 0.713818
O O4 0.000000 0.000000 0.500000
O O5 0.640875 0.125125 0.910857
O O6 0.750000 0.250000 0.000000
O O7 0.738205 0.103438 0.135863
O O8 0.191560 0.286921 0.210356
O O9 0.171642 0.460864 0.233346
O O10 0.000000 0.346698 0.250000
O O11 0.610703 0.759956 0.794826
O O12 0.249953 0.383119 0.852545
O O13 0.250000 0.250000 0.000000
#
# Coordination Sequence:
#
# PCOD9303525 Si02
#       6
#     8   8   8   4   8   8
#     4  11  23  39  70 102 135 178 225 291 345 412
#     4  11  22  45  68  96 140 177 231 287 343 419
#     4  11  27  48  69 104 142 184 237 290 351 425
#     4  12  22  46  66 100 142 174 234 294 348 414
#     4  12  27  47  71 105 141 184 239 290 354 426
#     4  11  24  45  70 101 138 185 233 282 358 413
#
# _framework density 20.484629000000002
#
# number of rings (size 3 to 8) (size 9 to 14) (size 15 to 20)
#    0.000    0.727    5.455    2.182    6.364    5.091 
#    1.636    0.000    0.000    0.000    0.000    0.000 
#    0.000    0.000    0.000    0.000    0.000    0.000 
#
# Total GULP energy -122636.864940 kJ/mol
# GULP energy per Si atom -5574.402952 kJ/mol
# Density = 2.043801 g / cm^3
# Si number density = 20.484629 Si / 1000 Ang^3
#
#
#
# Elastic Constant Matrix: (Units=GPa)
#
#
# Indices 1 2 3 4 5 6 
#
# 1 117.7894 22.7134 11.6381 0.0000 26.5962 0.0000
# 2 22.7134 86.4201 -6.9629 0.0000 6.9216 0.0000
# 3 11.6381 -6.9629 85.1064 0.0000 9.9351 0.0000
# 4 0.0000 0.0000 0.0000 40.0445 0.0000 -0.9929
# 5 26.5962 6.9216 9.9351 0.0000 19.4116 0.0000
# 6 0.0000 0.0000 0.0000 -0.9929 0.0000 16.7339
#
#
#
# Elastic Compliance Matrix: (Units=1/GPa)
#
#
# Indices 1 2 3 4 5 6 
#
# 1 0.012616 -0.001982 0.000051 0.000000 -0.016605 0.000000
# 2 -0.001982 0.012422 0.001582 0.000000 -0.002524 0.000000
# 3 0.000051 0.001582 0.012706 0.000000 -0.007137 0.000000
# 4 0.000000 0.000000 0.000000 0.025009 0.000000 0.001484
# 5 -0.016605 -0.002524 -0.007137 0.000000 0.078819 0.000000
# 6 0.000000 0.000000 0.000000 0.001484 0.000000 0.059847
#
#
# Mechanical properties :
#
#
# Convention : Reuss Voigt Hill
#
# Bulk Modulus (GPa) = 26.99350 38.23257 32.61303
# Shear Modulus (GPa) = 23.31377 32.69981 28.00679
#
# Velocity S-wave (km/s) = 3.37725 3.99972 3.70159
# Velocity P-wave (km/s) = 5.33046 6.32731 5.85016
#
# Compressibility (1/GPa) = 0.03704596
#
# Stress axis : x y z
#
# Youngs Moduli (GPa) = 79.26322 80.50344 78.70557
#
# Poissons Ratio (x) = 0.15954 -0.00402
# Poissons Ratio (y) = 0.15708 -0.12450
# Poissons Ratio (z) = -0.00405 -0.12735
#
# Static dielectric constant tensor:
#      x y z
#    x 1.825870 0.000000 0.175330 
#    y 0.000000 1.636210 0.000000 
#    z 0.175330 0.000000 2.044150 
# 
# From -- ./inp_files/86105.got.cif
#   From: 2010.05.17/outbox.cif.g08.bks.cpg/sg15_44_cif.got.tgz:86105.got - 2010.06.03 18:47:42.
