data_PCOD9303236
_publ_section_title
;
Structure prediction by ZEFSAII (Michael W. Deem and Ramdas Pophale) SiO2 
 PCOD9303236
Probable space group: C 2/C
;
_chemical_formula_sum "Si O2"
_cell_formula_units_Z 40
_cell_length_a 27.203297
_cell_length_b 7.937726
_cell_length_c 8.807985
_cell_angle_alpha 90.000000
_cell_angle_beta 117.456049
_cell_angle_gamma 90.000000
_cell_volume 1687.704459
_symmetry_space_group_name_H-M "C 2/C"
_symmetry_group_IT_number 15
_symmetry_cell_setting 'monoclinic'
loop_
_space_group_symop_operation_xyz
x,y,z
-x,y,1/2-z
-x,-y,-z
x,-y,1/2+z
1/2+x,1/2+y,z
1/2-x,1/2+y,1/2-z
1/2-x,1/2-y,-z
1/2+x,1/2-y,1/2+z
loop_
_atom_site_type_symbol
_atom_site_label
_atom_site_fract_x
_atom_site_fract_y
_atom_site_fract_z
Si Si1 0.206468 0.171449 0.781910
Si Si2 0.111061 0.328554 0.242668
Si Si3 0.320859 0.979662 0.425013
Si Si4 0.859001 0.981653 0.050615
Si Si5 0.030920 0.850699 0.450097
O O1 0.199428 0.348370 0.686209
O O2 0.161563 0.146045 0.850554
O O3 0.267341 0.111323 0.920510
O O4 0.190196 0.033736 0.630644
O O5 0.153828 0.361120 0.167345
O O6 0.129377 0.469200 0.390502
O O7 0.123311 0.152527 0.340644
O O8 0.049635 0.304044 0.085425
O O9 0.911237 0.924169 0.028723
O O10 0.000000 0.803289 0.250000
O O11 0.000000 0.000000 0.500000
#
# Coordination Sequence:
#
# PCOD9303236 Si02
#       5
#     8   8   8   8   8
#     4  11  23  40  69 108 150 196 225 285 354 443
#     4  11  25  46  69 108 146 188 242 296 359 429
#     4  11  26  43  71 110 159 191 232 284 363 443
#     4  11  22  42  73 104 141 184 250 290 353 432
#     4  12  24  47  79 102 130 185 256 313 362 413
#
# _framework density 23.700832999999999
#
# number of rings (size 3 to 8) (size 9 to 14) (size 15 to 20)
#    0.000    0.800    4.000    2.400    2.800    4.800 
#    0.000    1.000    0.000    0.000    0.000    0.000 
#    0.000    0.000    0.000    0.000    0.000    0.000 
#
# Total GULP energy -111894.033135 kJ/mol
# GULP energy per Si atom -5594.701657 kJ/mol
# Density = 2.364689 g / cm^3
# Si number density = 23.700833 Si / 1000 Ang^3
#
#
#
# Elastic Constant Matrix: (Units=GPa)
#
#
# Indices 1 2 3 4 5 6 
#
# 1 54.4294 28.3451 -5.6827 0.0000 -19.5142 0.0000
# 2 28.3451 95.4552 19.6150 0.0000 5.2783 0.0000
# 3 -5.6827 19.6150 137.0776 0.0000 19.6593 0.0000
# 4 0.0000 0.0000 0.0000 37.8870 0.0000 -1.0166
# 5 -19.5142 5.2783 19.6593 0.0000 43.8867 0.0000
# 6 0.0000 0.0000 0.0000 -1.0166 0.0000 33.5786
#
#
#
# Elastic Compliance Matrix: (Units=1/GPa)
#
#
# Indices 1 2 3 4 5 6 
#
# 1 0.027959 -0.009153 0.000564 0.000000 0.013280 0.000000
# 2 -0.009153 0.013807 -0.001639 0.000000 -0.004996 0.000000
# 3 0.000564 -0.001639 0.008003 0.000000 -0.003137 0.000000
# 4 0.000000 0.000000 0.000000 0.026416 0.000000 0.000800
# 5 0.013280 -0.004996 -0.003137 0.000000 0.030697 0.000000
# 6 0.000000 0.000000 0.000000 0.000800 0.000000 0.029805
#
#
# Mechanical properties :
#
#
# Convention : Reuss Voigt Hill
#
# Bulk Modulus (GPa) = 34.11249 41.27966 37.69608
# Shear Modulus (GPa) = 29.95589 39.38277 34.66933
#
# Velocity S-wave (km/s) = 3.55902 4.08077 3.82879
# Velocity P-wave (km/s) = 5.59580 6.29749 5.95699
#
# Compressibility (1/GPa) = 0.02931478
#
# Stress axis : x y z
#
# Youngs Moduli (GPa) = 35.76681 72.42748 124.95476
#
# Poissons Ratio (x) = 0.66290 -0.07049
# Poissons Ratio (y) = 0.32736 0.20475
# Poissons Ratio (z) = -0.02018 0.11868
#
# Static dielectric constant tensor:
#      x y z
#    x 1.833030 0.000000 0.024100 
#    y 0.000000 1.913040 0.000000 
#    z 0.024100 0.000000 2.034260 
# 
# From -- ./inp_files/68445.got.cif
#   From: 2010.05.17/outbox.cif.g08.bks.cpg/sg15_35_cif.got.tgz:68445.got - 2010.06.03 18:47:42.
