data_PCOD9303493
_publ_section_title
;
Structure prediction by ZEFSAII (Michael W. Deem and Ramdas Pophale) SiO2 
 PCOD9303493
Probable space group: C 2/C
;
_chemical_formula_sum "Si O2"
_cell_formula_units_Z 56
_cell_length_a 20.714611
_cell_length_b 10.056198
_cell_length_c 12.002362
_cell_angle_alpha 90.000000
_cell_angle_beta 71.269198
_cell_angle_gamma 90.000000
_cell_volume 2367.797861
_symmetry_space_group_name_H-M "C 2/C"
_symmetry_group_IT_number 15
_symmetry_cell_setting 'monoclinic'
loop_
_space_group_symop_operation_xyz
x,y,z
-x,y,1/2-z
-x,-y,-z
x,-y,1/2+z
1/2+x,1/2+y,z
1/2-x,1/2+y,1/2-z
1/2-x,1/2-y,-z
1/2+x,1/2-y,1/2+z
loop_
_atom_site_type_symbol
_atom_site_label
_atom_site_fract_x
_atom_site_fract_y
_atom_site_fract_z
Si Si1 0.929615 0.170484 0.256735
Si Si2 0.193684 0.028498 0.290189
Si Si3 0.706619 0.820716 0.617559
Si Si4 0.133347 0.798515 0.464748
Si Si5 0.057062 0.554646 0.881189
Si Si6 0.564524 0.770364 0.785319
Si Si7 0.190301 0.506487 0.438973
O O1 0.877740 0.087290 0.210765
O O2 0.892425 0.190967 0.395514
O O3 0.950446 0.306971 0.180350
O O4 0.000000 0.099547 0.250000
O O5 0.242220 0.143009 0.312690
O O6 0.239232 0.974716 0.162673
O O7 0.177835 0.920360 0.394143
O O8 0.750000 0.750000 0.500000
O O9 0.637947 0.744994 0.689163
O O10 0.686965 0.958895 0.567404
O O11 0.072043 0.782080 0.407788
O O12 0.175543 0.662367 0.437787
O O13 0.061994 0.430644 0.794878
O O14 0.128041 0.563418 0.908746
O O15 0.000000 0.500000 0.000000
O O16 0.500000 0.724861 0.750000
#
# Coordination Sequence:
#
# PCOD9303493 Si02
#       7
#     8   8   8   8   8   8   8
#     4  12  27  47  74 105 146 195 249 313 381 454
#     4  12  27  46  68 105 143 196 250 307 372 454
#     4  12  24  43  68 105 140 190 246 306 380 444
#     4  11  26  46  71 108 143 199 252 301 384 455
#     4  11  22  44  75 111 145 186 246 309 379 441
#     4  11  23  43  70 104 146 186 239 307 375 451
#     4  11  24  43  72 103 147 190 245 316 371 453
#
# _framework density 23.650668
#
# number of rings (size 3 to 8) (size 9 to 14) (size 15 to 20)
#    0.000    0.571    2.857    6.429    2.000    3.429 
#    0.000    0.000    0.000    0.000    0.000    0.000 
#    0.000    0.000    0.000    0.000    0.000    0.000 
#
# Total GULP energy -156709.342472 kJ/mol
# GULP energy per Si atom -5596.762231 kJ/mol
# Density = 2.359684 g / cm^3
# Si number density = 23.650668 Si / 1000 Ang^3
#
#
#
# Elastic Constant Matrix: (Units=GPa)
#
#
# Indices 1 2 3 4 5 6 
#
# 1 156.5308 37.1198 30.7809 0.0000 -3.2693 0.0000
# 2 37.1198 66.0529 41.4130 0.0000 -4.9067 0.0000
# 3 30.7809 41.4130 135.8843 0.0000 -21.6026 0.0000
# 4 0.0000 0.0000 0.0000 30.2353 0.0000 2.8676
# 5 -3.2693 -4.9067 -21.6026 0.0000 40.5311 0.0000
# 6 0.0000 0.0000 0.0000 2.8676 0.0000 18.0340
#
#
#
# Elastic Compliance Matrix: (Units=1/GPa)
#
#
# Indices 1 2 3 4 5 6 
#
# 1 0.007400 -0.003837 -0.000531 0.000000 -0.000151 0.000000
# 2 -0.003837 0.020731 -0.005571 0.000000 -0.000769 0.000000
# 3 -0.000531 -0.005571 0.009902 0.000000 0.004561 0.000000
# 4 0.000000 0.000000 0.000000 0.033580 0.000000 -0.005340
# 5 -0.000151 -0.000769 0.004561 0.000000 0.026998 0.000000
# 6 0.000000 0.000000 0.000000 -0.005340 0.000000 0.056300
#
#
# Mechanical properties :
#
#
# Convention : Reuss Voigt Hill
#
# Bulk Modulus (GPa) = 55.07952 64.12171 59.60062
# Shear Modulus (GPa) = 27.64848 34.37035 31.00941
#
# Velocity S-wave (km/s) = 3.42283 3.81629 3.62490
# Velocity P-wave (km/s) = 6.24182 6.82566 6.54026
#
# Compressibility (1/GPa) = 0.01815557
#
# Stress axis : x y z
#
# Youngs Moduli (GPa) = 135.14235 48.23581 100.98488
#
# Poissons Ratio (x) = 0.18507 0.05360
# Poissons Ratio (y) = 0.51851 0.56263
# Poissons Ratio (z) = 0.07173 0.26874
#
# Static dielectric constant tensor:
#      x y z
#    x 1.951890 0.000000 0.055270 
#    y 0.000000 1.939940 0.000000 
#    z 0.055270 0.000000 2.009950 
# 
# From -- ./inp_files/111554.got.cif
#   From: 2010.05.17/outbox.cif.g08.bks.cpg/sg15_56_cif.got.tgz:111554.got - 2010.06.03 18:47:42.
