data_PCOD9303564
_publ_section_title
;
Structure prediction by ZEFSAII (Michael W. Deem and Ramdas Pophale) SiO2 
 PCOD9303564
Probable space group: C 2/C
;
_chemical_formula_sum "Si O2"
_cell_formula_units_Z 64
_cell_length_a 25.554391
_cell_length_b 15.175194
_cell_length_c 12.011860
_cell_angle_alpha 90.000000
_cell_angle_beta 43.571498
_cell_angle_gamma 90.000000
_cell_volume 3210.647533
_symmetry_space_group_name_H-M "C 2/C"
_symmetry_group_IT_number 15
_symmetry_cell_setting 'monoclinic'
loop_
_space_group_symop_operation_xyz
x,y,z
-x,y,1/2-z
-x,-y,-z
x,-y,1/2+z
1/2+x,1/2+y,z
1/2-x,1/2+y,1/2-z
1/2-x,1/2-y,-z
1/2+x,1/2-y,1/2+z
loop_
_atom_site_type_symbol
_atom_site_label
_atom_site_fract_x
_atom_site_fract_y
_atom_site_fract_z
Si Si1 0.582526 0.583407 0.170306
Si Si2 0.644567 0.363678 0.789588
Si Si3 0.091606 0.407783 0.607043
Si Si4 0.091260 0.108643 0.617174
Si Si5 0.334219 0.738121 0.587805
Si Si6 0.688020 0.917393 0.012358
Si Si7 0.327372 0.831748 0.230284
Si Si8 0.340665 0.757195 0.837895
O O1 0.500000 0.573311 0.250000
O O2 0.582955 0.596989 0.301725
O O3 0.621766 0.490162 0.086876
O O4 0.617560 0.665303 0.051364
O O5 0.721829 0.418713 0.652910
O O6 0.653427 0.261733 0.741863
O O7 0.622938 0.360371 0.950522
O O8 0.138427 0.498745 0.552495
O O9 0.114964 0.366103 0.451632
O O10 0.121949 0.340171 0.655269
O O11 0.000000 0.418865 0.750000
O O12 0.120497 0.171631 0.668379
O O13 0.000000 0.111962 0.750000
O O14 0.337043 0.829905 0.516580
O O15 0.250375 0.694577 0.712203
O O16 0.354300 0.756898 0.684680
O O17 0.681584 0.899755 0.154652
O O18 0.250000 0.750000 0.000000
#
# Coordination Sequence:
#
# PCOD9303564 Si02
#       8
#     8   8   8   8   8   8   8   8
#     4  11  26  39  66 103 132 174 224 284 350 399
#     4  11  22  45  72  93 134 185 230 278 344 411
#     4  12  29  47  69 107 145 184 228 288 355 415
#     4  11  27  43  64 101 141 178 217 287 358 401
#     4  11  23  45  69 103 134 175 240 287 333 409
#     4  11  25  45  73  99 134 186 232 282 344 409
#     4  11  22  47  71  94 137 180 235 286 336 405
#     4  12  25  44  70 101 135 180 233 280 339 421
#
# _framework density 19.933672999999999
#
# number of rings (size 3 to 8) (size 9 to 14) (size 15 to 20)
#    0.000    0.750    5.000    1.875    8.750    2.000 
#    0.000    0.000    0.000    0.000    0.000    0.000 
#    0.000    0.000    0.000    0.000    0.000    0.000 
#
# Total GULP energy -178710.898176 kJ/mol
# GULP energy per Si atom -5584.715568 kJ/mol
# Density = 1.988830 g / cm^3
# Si number density = 19.933673 Si / 1000 Ang^3
#
#
#
# Elastic Constant Matrix: (Units=GPa)
#
#
# Indices 1 2 3 4 5 6 
#
# 1 126.4303 55.0339 46.3825 0.0000 13.5884 0.0000
# 2 55.0339 100.3571 23.6260 0.0000 -11.5720 0.0000
# 3 46.3825 23.6260 88.0032 0.0000 9.7142 0.0000
# 4 0.0000 0.0000 0.0000 19.6972 0.0000 -2.6889
# 5 13.5884 -11.5720 9.7142 0.0000 39.3666 0.0000
# 6 0.0000 0.0000 0.0000 -2.6889 0.0000 10.7656
#
#
#
# Elastic Compliance Matrix: (Units=1/GPa)
#
#
# Indices 1 2 3 4 5 6 
#
# 1 0.013061 -0.006727 -0.004484 0.000000 -0.005379 0.000000
# 2 -0.006727 0.014731 -0.001176 0.000000 0.006942 0.000000
# 3 -0.004484 -0.001176 0.014299 0.000000 -0.002326 0.000000
# 4 0.000000 0.000000 0.000000 0.052561 0.000000 0.013128
# 5 -0.005379 0.006942 -0.002326 0.000000 0.029874 0.000000
# 6 0.000000 0.000000 0.000000 0.013128 0.000000 0.096167
#
#
# Mechanical properties :
#
#
# Convention : Reuss Voigt Hill
#
# Bulk Modulus (GPa) = 57.74557 62.76391 60.25474
# Shear Modulus (GPa) = 19.90148 26.61577 23.25862
#
# Velocity S-wave (km/s) = 3.16315 3.65803 3.41955
# Velocity P-wave (km/s) = 6.50941 7.02825 6.77380
#
# Compressibility (1/GPa) = 0.01731734
#
# Stress axis : x y z
#
# Youngs Moduli (GPa) = 76.56479 67.88600 69.93543
#
# Poissons Ratio (x) = 0.45667 0.31359
# Poissons Ratio (y) = 0.51505 0.08221
# Poissons Ratio (z) = 0.34332 0.07980
#
# Static dielectric constant tensor:
#      x y z
#    x 1.625930 0.000000 -0.001810 
#    y 0.000000 1.746540 0.000000 
#    z -0.001810 0.000000 1.691540 
# 
# From -- ./inp_files/123488.got.cif
#   From: 2010.05.17/outbox.cif.g08.bks.cpg/sg15_62_cif.got.tgz:123488.got - 2010.06.03 18:47:42.
