data_PCOD9303436
_publ_section_title
;
Structure prediction by ZEFSAII (Michael W. Deem and Ramdas Pophale) SiO2 
 PCOD9303436
Probable space group: C 2/C
;
_chemical_formula_sum "Si O2"
_cell_formula_units_Z 36
_cell_length_a 16.482606
_cell_length_b 17.981962
_cell_length_c 10.210593
_cell_angle_alpha 90.000000
_cell_angle_beta 37.151949
_cell_angle_gamma 90.000000
_cell_volume 1827.684230
_symmetry_space_group_name_H-M "C 2/C"
_symmetry_group_IT_number 15
_symmetry_cell_setting 'monoclinic'
loop_
_space_group_symop_operation_xyz
x,y,z
-x,y,1/2-z
-x,-y,-z
x,-y,1/2+z
1/2+x,1/2+y,z
1/2-x,1/2+y,1/2-z
1/2-x,1/2-y,-z
1/2+x,1/2-y,1/2+z
loop_
_atom_site_type_symbol
_atom_site_label
_atom_site_fract_x
_atom_site_fract_y
_atom_site_fract_z
Si Si1 0.801118 0.269716 0.220855
Si Si2 0.619272 0.611718 0.811266
Si Si3 0.000000 0.792096 0.250000
Si Si4 0.146795 0.655415 0.583134
Si Si5 0.391198 0.550694 0.273973
O O1 0.715591 0.339660 0.278023
O O2 0.866419 0.288817 0.276989
O O3 0.701529 0.201607 0.387085
O O4 0.912776 0.252230 0.968510
O O5 0.601464 0.656178 0.700182
O O6 0.653702 0.526419 0.734624
O O7 0.474415 0.602271 0.066548
O O8 0.258782 0.595789 0.479420
O O9 0.000000 0.622343 0.750000
O O10 0.500000 0.536010 0.250000
#
# Coordination Sequence:
#
# PCOD9303436 Si02
#       5
#     8   8   4   8   8
#     4  11  24  41  67  97 134 173 221 275 329 391
#     4  11  23  40  67  97 128 177 223 268 323 396
#     4  12  22  40  62 100 136 170 222 276 336 382
#     4  11  24  42  69 100 129 175 220 275 328 392
#     4  11  22  44  70  94 129 176 226 265 323 398
#
# _framework density 19.697057999999998
#
# number of rings (size 3 to 8) (size 9 to 14) (size 15 to 20)
#    0.000    0.889    5.556    2.000    3.111    0.000 
#    2.000    1.111    0.000    0.000    0.000    0.000 
#    0.000    0.000    0.000    0.000    0.000    0.000 
#
# Total GULP energy -100459.683432 kJ/mol
# GULP energy per Si atom -5581.093524 kJ/mol
# Density = 1.965223 g / cm^3
# Si number density = 19.697058 Si / 1000 Ang^3
#
#
#
# Elastic Constant Matrix: (Units=GPa)
#
#
# Indices 1 2 3 4 5 6 
#
# 1 58.4739 24.9556 29.8870 0.0000 -0.5481 -0.0001
# 2 24.9556 74.4116 45.0684 0.0000 -10.5812 0.0000
# 3 29.8870 45.0684 130.2121 0.0000 4.0799 0.0000
# 4 0.0000 0.0000 0.0000 14.9392 0.0000 2.1955
# 5 -0.5481 -10.5812 4.0799 0.0000 30.7948 0.0000
# 6 -0.0001 0.0000 0.0000 2.1955 0.0000 26.4429
#
#
#
# Elastic Compliance Matrix: (Units=1/GPa)
#
#
# Indices 1 2 3 4 5 6 
#
# 1 0.020875 -0.005412 -0.002884 0.000000 -0.001106 0.000000
# 2 -0.005412 0.019880 -0.005874 0.000000 0.007513 0.000000
# 3 -0.002884 -0.005874 0.010483 0.000000 -0.003458 0.000000
# 4 0.000000 0.000000 0.000000 0.067765 0.000000 -0.005626
# 5 -0.001106 0.007513 -0.003458 0.000000 0.035493 0.000000
# 6 0.000000 0.000000 0.000000 -0.005626 0.000000 0.038284
#
#
# Mechanical properties :
#
#
# Convention : Reuss Voigt Hill
#
# Bulk Modulus (GPa) = 43.66975 51.43550 47.55263
# Shear Modulus (GPa) = 21.85786 25.31450 23.58618
#
# Velocity S-wave (km/s) = 3.33483 3.58885 3.46417
# Velocity P-wave (km/s) = 6.08662 6.58355 6.33995
#
# Compressibility (1/GPa) = 0.02289915
#
# Stress axis : x y z
#
# Youngs Moduli (GPa) = 47.90490 50.30303 95.39208
#
# Poissons Ratio (x) = 0.27222 0.27507
# Poissons Ratio (y) = 0.25924 0.56032
# Poissons Ratio (z) = 0.13814 0.29547
#
# Static dielectric constant tensor:
#      x y z
#    x 1.716360 0.000000 0.019320 
#    y 0.000000 1.683700 0.000000 
#    z 0.019320 0.000000 1.700780 
# 
# From -- ./inp_files/30579.got.cif
#   From: 2010.05.17/outbox.cif.g08.bks.cpg/sg15_16_cif.got.tgz:30579.got - 2010.06.03 18:47:42.
