data_PCOD9303407
_publ_section_title
;
Structure prediction by ZEFSAII (Michael W. Deem and Ramdas Pophale) SiO2 
 PCOD9303407
Probable space group: C 2/C
;
_chemical_formula_sum "Si O2"
_cell_formula_units_Z 52
_cell_length_a 11.156728
_cell_length_b 9.703107
_cell_length_c 25.066488
_cell_angle_alpha 90.000000
_cell_angle_beta 62.811467
_cell_angle_gamma 90.000000
_cell_volume 2413.742488
_symmetry_space_group_name_H-M "C 2/C"
_symmetry_group_IT_number 15
_symmetry_cell_setting 'monoclinic'
loop_
_space_group_symop_operation_xyz
x,y,z
-x,y,1/2-z
-x,-y,-z
x,-y,1/2+z
1/2+x,1/2+y,z
1/2-x,1/2+y,1/2-z
1/2-x,1/2-y,-z
1/2+x,1/2-y,1/2+z
loop_
_atom_site_type_symbol
_atom_site_label
_atom_site_fract_x
_atom_site_fract_y
_atom_site_fract_z
Si Si1 0.607046 0.863475 0.404554
Si Si2 0.000000 0.429004 0.750000
Si Si3 0.413546 0.944948 0.879939
Si Si4 0.908249 0.008455 0.719086
Si Si5 0.110825 0.123509 0.603587
Si Si6 0.734424 0.745694 0.273997
Si Si7 0.116723 0.889379 0.977648
O O1 0.751373 0.920322 0.395188
O O2 0.647135 0.779929 0.343536
O O3 0.571431 0.750610 0.456878
O O4 0.498335 0.977613 0.408911
O O5 0.960244 0.504399 0.813206
O O6 0.868540 0.336805 0.764018
O O7 0.437270 0.778965 0.871645
O O8 0.253778 0.947862 0.923441
O O9 0.851205 0.858875 0.743486
O O10 0.000000 0.054080 0.750000
O O11 0.784338 0.113107 0.738538
O O12 0.995951 0.021264 0.647724
O O13 0.141404 0.133234 0.535163
O O14 0.000000 0.000000 0.000000
#
# Coordination Sequence:
#
# PCOD9303407 Si02
#       7
#     8   4   8   8   8   8   8
#     4  11  22  44  68  97 132 178 230 283 345 413
#     4  12  20  42  72 100 134 186 224 278 360 408
#     4  11  23  42  71  97 133 184 227 289 349 413
#     4  12  24  44  66 100 138 184 232 290 350 415
#     4  11  23  41  68  95 129 181 235 280 344 415
#     4  12  22  43  71  95 142 182 226 287 352 414
#     4  11  25  45  66  97 137 182 232 287 343 411
#
# _framework density 21.543308
#
# number of rings (size 3 to 8) (size 9 to 14) (size 15 to 20)
#    0.000    0.615    6.923    3.692    0.000    3.077 
#    5.538    1.538    0.000    0.000    0.000    0.000 
#    0.000    0.000    0.000    0.000    0.000    0.000 
#
# Total GULP energy -145237.575808 kJ/mol
# GULP energy per Si atom -5586.060608 kJ/mol
# Density = 2.149427 g / cm^3
# Si number density = 21.543308 Si / 1000 Ang^3
#
#
#
# Elastic Constant Matrix: (Units=GPa)
#
#
# Indices 1 2 3 4 5 6 
#
# 1 92.2496 52.3541 22.4576 0.0000 1.4495 0.0000
# 2 52.3541 50.0409 25.3085 0.0000 -10.3698 0.0000
# 3 22.4576 25.3085 106.7109 0.0000 4.4124 0.0000
# 4 0.0000 0.0000 0.0000 17.7231 0.0000 12.2277
# 5 1.4495 -10.3698 4.4124 0.0000 23.0811 0.0000
# 6 0.0000 0.0000 0.0000 12.2277 0.0000 38.7072
#
#
#
# Elastic Compliance Matrix: (Units=1/GPa)
#
#
# Indices 1 2 3 4 5 6 
#
# 1 0.034248 -0.042233 0.003712 0.000000 -0.021835 0.000000
# 2 -0.042233 0.078158 -0.011300 0.000000 0.039927 0.000000
# 3 0.003712 -0.011300 0.011581 0.000000 -0.007524 0.000000
# 4 0.000000 0.000000 0.000000 0.072148 0.000000 -0.022792
# 5 -0.021835 0.039927 -0.007524 0.000000 0.064073 0.000000
# 6 0.000000 0.000000 0.000000 -0.022792 0.000000 0.033035
#
#
# Mechanical properties :
#
#
# Convention : Reuss Voigt Hill
#
# Bulk Modulus (GPa) = 41.07643 49.91578 45.49611
# Shear Modulus (GPa) = 12.46879 25.82768 19.14823
#
# Velocity S-wave (km/s) = 2.40839 3.46623 2.98455
# Velocity P-wave (km/s) = 5.18094 6.26418 5.74813
#
# Compressibility (1/GPa) = 0.02434486
#
# Stress axis : x y z
#
# Youngs Moduli (GPa) = 29.19861 12.79459 86.34850
#
# Poissons Ratio (x) = 0.54036 -0.32050
# Poissons Ratio (y) = 1.23315 0.97570
# Poissons Ratio (z) = -0.10838 0.14457
#
# Static dielectric constant tensor:
#      x y z
#    x 1.819420 0.000000 0.065050 
#    y 0.000000 1.816370 0.000000 
#    z 0.065050 0.000000 1.863260 
# 
# From -- ./inp_files/291483.got.cif
#   From: 2010.05.17/outbox.cif.g08.bks.cpg/sg15_146_cif.got.tgz:291483.got - 2010.06.03 18:47:42.
