data_PCOD9303734
_publ_section_title
;
Structure prediction by ZEFSAII (Michael W. Deem and Ramdas Pophale) SiO2 
 PCOD9303734
Probable space group: C 2/C
;
_chemical_formula_sum "Si O2"
_cell_formula_units_Z 56
_cell_length_a 8.399987
_cell_length_b 18.688268
_cell_length_c 27.605979
_cell_angle_alpha 90.000000
_cell_angle_beta 143.365903
_cell_angle_gamma 90.000000
_cell_volume 2585.881981
_symmetry_space_group_name_H-M "C 2/C"
_symmetry_group_IT_number 15
_symmetry_cell_setting 'monoclinic'
loop_
_space_group_symop_operation_xyz
x,y,z
-x,y,1/2-z
-x,-y,-z
x,-y,1/2+z
1/2+x,1/2+y,z
1/2-x,1/2+y,1/2-z
1/2-x,1/2-y,-z
1/2+x,1/2-y,1/2+z
loop_
_atom_site_type_symbol
_atom_site_label
_atom_site_fract_x
_atom_site_fract_y
_atom_site_fract_z
Si Si1 0.969147 0.274888 0.404976
Si Si2 0.312706 0.132825 0.135329
Si Si3 0.305086 0.332996 0.004416
Si Si4 0.139831 0.594400 0.555095
Si Si5 0.894345 0.301413 0.170949
Si Si6 0.052208 0.137488 0.211370
Si Si7 0.080137 0.962255 0.907804
O O1 0.250000 0.250000 0.500000
O O2 0.985356 0.306699 0.354495
O O3 0.805737 0.201390 0.365401
O O4 0.835052 0.335731 0.405548
O O5 0.629028 0.138673 0.217146
O O6 0.168585 0.060346 0.119116
O O7 0.236753 0.144881 0.060793
O O8 0.122422 0.377040 0.996016
O O9 0.610839 0.338985 0.095156
O O10 0.250000 0.250000 0.000000
O O11 0.381858 0.538517 0.608925
O O12 0.865389 0.554521 0.503047
O O13 0.000000 0.325468 0.250000
O O14 0.906568 0.214578 0.178293
O O15 0.000000 0.100963 0.250000
O O16 0.941183 0.093580 0.140393
#
# Coordination Sequence:
#
# PCOD9303734 Si02
#       7
#     8   8   8   8   8   8   8
#     4  12  20  41  70 105 133 180 239 298 357 423
#     4  12  23  39  73  97 133 188 241 289 352 437
#     4  12  21  39  65  99 135 176 232 296 362 416
#     4  11  24  40  68  98 139 179 231 293 358 429
#     4  11  23  38  62 101 139 172 231 302 359 418
#     4  11  23  41  66  97 132 182 235 291 350 426
#     4  11  23  43  62  99 135 183 236 285 353 440
#
# _framework density 21.656053
#
# number of rings (size 3 to 8) (size 9 to 14) (size 15 to 20)
#    0.000    0.571    5.714    3.857    0.000    0.571 
#    0.000    4.286    0.000    0.000    0.000    0.000 
#    0.000    0.000    0.000    0.000    0.000    0.000 
#
# Total GULP energy -156178.440848 kJ/mol
# GULP energy per Si atom -5577.801459 kJ/mol
# Density = 2.160676 g / cm^3
# Si number density = 21.656053 Si / 1000 Ang^3
#
#
#
# Elastic Constant Matrix: (Units=GPa)
#
#
# Indices 1 2 3 4 5 6 
#
# 1 126.3154 32.9279 48.4348 0.0000 -12.0801 0.0001
# 2 32.9279 79.3612 22.3086 0.0006 7.1294 0.0005
# 3 48.4348 22.3086 107.2597 0.0003 -2.5194 0.0008
# 4 0.0000 0.0006 0.0003 10.5821 -0.0001 6.1270
# 5 -12.0801 7.1294 -2.5194 -0.0001 46.5258 0.0002
# 6 0.0001 0.0005 0.0008 6.1270 0.0002 37.2095
#
#
#
# Elastic Compliance Matrix: (Units=1/GPa)
#
#
# Indices 1 2 3 4 5 6 
#
# 1 0.010685 -0.003586 -0.004006 0.000000 0.003107 0.000000
# 2 -0.003586 0.014816 -0.001539 -0.000001 -0.003285 0.000000
# 3 -0.004006 -0.001539 0.011448 0.000000 -0.000184 0.000000
# 4 0.000000 -0.000001 0.000000 0.104458 0.000000 -0.017200
# 5 0.003107 -0.003285 -0.000184 0.000000 0.022793 0.000000
# 6 0.000000 0.000000 0.000000 -0.017200 0.000000 0.029707
#
#
# Mechanical properties :
#
#
# Convention : Reuss Voigt Hill
#
# Bulk Modulus (GPa) = 53.51618 57.80878 55.66248
# Shear Modulus (GPa) = 22.89380 32.81447 27.85413
#
# Velocity S-wave (km/s) = 3.25492 3.89685 3.59026
# Velocity P-wave (km/s) = 6.23631 6.85560 6.55327
#
# Compressibility (1/GPa) = 0.01868594
#
# Stress axis : x y z
#
# Youngs Moduli (GPa) = 93.59136 67.49281 87.35163
#
# Poissons Ratio (x) = 0.24204 0.34993
# Poissons Ratio (y) = 0.33564 0.13447
# Poissons Ratio (z) = 0.37493 0.10390
#
# Static dielectric constant tensor:
#      x y z
#    x 1.949760 0.000000 0.121260 
#    y 0.000000 1.792920 0.000000 
#    z 0.121260 0.000000 1.833810 
# 
# From -- ./inp_files/308639.got.cif
#   From: 2010.05.17/outbox.cif.g08.bks.cpg/sg15_155_cif.got.tgz:308639.got - 2010.06.03 18:47:42.
