data_PCOD9303156
_publ_section_title
;
Structure prediction by ZEFSAII (Michael W. Deem and Ramdas Pophale) SiO2 
 PCOD9303156
Probable space group: C 2/C
;
_chemical_formula_sum "Si O2"
_cell_formula_units_Z 40
_cell_length_a 7.527877
_cell_length_b 15.570971
_cell_length_c 22.363174
_cell_angle_alpha 90.000000
_cell_angle_beta 50.127500
_cell_angle_gamma 90.000000
_cell_volume 2011.799627
_symmetry_space_group_name_H-M "C 2/C"
_symmetry_group_IT_number 15
_symmetry_cell_setting 'monoclinic'
loop_
_space_group_symop_operation_xyz
x,y,z
-x,y,1/2-z
-x,-y,-z
x,-y,1/2+z
1/2+x,1/2+y,z
1/2-x,1/2+y,1/2-z
1/2-x,1/2-y,-z
1/2+x,1/2-y,1/2+z
loop_
_atom_site_type_symbol
_atom_site_label
_atom_site_fract_x
_atom_site_fract_y
_atom_site_fract_z
Si Si1 0.355935 0.156262 0.988361
Si Si2 0.953880 0.440523 0.827904
Si Si3 0.277062 0.432920 0.333234
Si Si4 0.553091 0.505119 0.574723
Si Si5 0.650628 0.158609 0.038740
O O1 0.580325 0.133468 0.899125
O O2 0.250000 0.250000 0.000000
O O3 0.170927 0.080200 0.022568
O O4 0.439113 0.147452 0.038906
O O5 0.719065 0.496145 0.874734
O O6 0.917419 0.358664 0.878583
O O7 0.000000 0.415137 0.750000
O O8 0.148496 0.499133 0.817589
O O9 0.500000 0.396310 0.250000
O O10 0.372942 0.480092 0.372170
O O11 0.663611 0.585884 0.517545
O O12 0.750000 0.250000 0.000000
#
# Coordination Sequence:
#
# PCOD9303156 Si02
#       5
#     8   8   8   8   8
#     4  11  23  42  69 100 135 184 234 281 334 411
#     4  12  23  39  72  98 135 179 226 285 354 402
#     4  11  22  43  67  97 138 176 225 288 348 399
#     4  11  22  42  68  97 131 180 234 274 339 409
#     4  11  23  41  66 102 136 174 234 282 332 413
#
# _framework density 19.882695999999999
#
# number of rings (size 3 to 8) (size 9 to 14) (size 15 to 20)
#    0.000    0.800    6.000    3.000    2.800    0.000 
#    0.000    9.000    0.000    2.400    0.000    0.000 
#    0.000    0.000    0.000    0.000    0.000    0.000 
#
# Total GULP energy -111748.330275 kJ/mol
# GULP energy per Si atom -5587.416514 kJ/mol
# Density = 1.983744 g / cm^3
# Si number density = 19.882696 Si / 1000 Ang^3
#
#
#
# Elastic Constant Matrix: (Units=GPa)
#
#
# Indices 1 2 3 4 5 6 
#
# 1 112.0229 20.7084 57.7376 -0.0002 15.4601 0.0005
# 2 20.7084 119.2221 56.4426 -0.0001 3.7835 0.0005
# 3 57.7376 56.4426 160.1269 -0.0007 22.2471 0.0000
# 4 -0.0002 -0.0001 -0.0007 16.2397 0.0002 -3.3052
# 5 15.4601 3.7835 22.2471 0.0002 43.7467 -0.0001
# 6 0.0005 0.0005 0.0000 -3.3052 -0.0001 28.4759
#
#
#
# Elastic Compliance Matrix: (Units=1/GPa)
#
#
# Indices 1 2 3 4 5 6 
#
# 1 0.011132 -0.000124 -0.003686 0.000000 -0.002049 0.000000
# 2 -0.000124 0.010110 -0.003663 0.000000 0.001032 0.000000
# 3 -0.003686 -0.003663 0.009297 0.000000 -0.003109 0.000000
# 4 0.000000 0.000000 0.000000 0.063067 0.000000 0.007320
# 5 -0.002049 0.001032 -0.003109 0.000000 0.025075 0.000000
# 6 0.000000 0.000000 0.000000 0.007320 0.000000 0.035967
#
#
# Mechanical properties :
#
#
# Convention : Reuss Voigt Hill
#
# Bulk Modulus (GPa) = 64.12086 73.46100 68.79093
# Shear Modulus (GPa) = 28.60566 34.79134 31.69850
#
# Velocity S-wave (km/s) = 3.79716 4.18764 3.99717
# Velocity P-wave (km/s) = 7.17943 7.77233 7.48175
#
# Compressibility (1/GPa) = 0.01559555
#
# Stress axis : x y z
#
# Youngs Moduli (GPa) = 89.83107 98.90826 107.56311
#
# Poissons Ratio (x) = 0.01223 0.39644
# Poissons Ratio (y) = 0.01111 0.39395
# Poissons Ratio (z) = 0.33108 0.36225
#
# Static dielectric constant tensor:
#      x y z
#    x 1.752610 0.000000 -0.001100 
#    y 0.000000 1.699410 0.000000 
#    z -0.001100 0.000000 1.724050 
# 
# From -- ./inp_files/188447.got.cif
#   From: 2010.05.17/outbox.cif.g08.bks.cpg/sg15_95_cif.got.tgz:188447.got - 2010.06.03 18:47:42.
