data_PCOD9303669
_publ_section_title
;
Structure prediction by ZEFSAII (Michael W. Deem and Ramdas Pophale) SiO2 
 PCOD9303669
Probable space group: C 2/C
;
_chemical_formula_sum "Si O2"
_cell_formula_units_Z 52
_cell_length_a 8.738880
_cell_length_b 16.134282
_cell_length_c 20.640451
_cell_angle_alpha 90.000000
_cell_angle_beta 130.918510
_cell_angle_gamma 90.000000
_cell_volume 2199.078022
_symmetry_space_group_name_H-M "C 2/C"
_symmetry_group_IT_number 15
_symmetry_cell_setting 'monoclinic'
loop_
_space_group_symop_operation_xyz
x,y,z
-x,y,1/2-z
-x,-y,-z
x,-y,1/2+z
1/2+x,1/2+y,z
1/2-x,1/2+y,1/2-z
1/2-x,1/2-y,-z
1/2+x,1/2-y,1/2+z
loop_
_atom_site_type_symbol
_atom_site_label
_atom_site_fract_x
_atom_site_fract_y
_atom_site_fract_z
Si Si1 0.078110 0.377931 0.115249
Si Si2 0.602205 0.728125 0.018018
Si Si3 0.000000 0.545899 0.250000
Si Si4 0.635297 0.759903 0.351150
Si Si5 0.227041 0.091422 0.428277
Si Si6 0.384170 0.547140 0.413598
Si Si7 0.265880 0.545226 0.203373
O O1 0.126502 0.304753 0.076276
O O2 0.233904 0.446822 0.183749
O O3 0.990618 0.332995 0.152949
O O4 0.892055 0.423392 0.028207
O O5 0.648240 0.641501 0.069089
O O6 0.750000 0.750000 0.000000
O O7 0.376577 0.719912 0.922331
O O8 0.828950 0.504551 0.159962
O O9 0.848887 0.581721 0.265031
O O10 0.500000 0.738159 0.250000
O O11 0.636491 0.683621 0.402293
O O12 0.334003 0.083907 0.388861
O O13 0.031138 0.038098 0.391949
O O14 0.500000 0.500000 0.500000
O O15 0.500000 0.563227 0.250000
#
# Coordination Sequence:
#
# PCOD9303669 Si02
#       7
#     8   8   4   8   8   8   8
#     4  11  24  46  71 100 142 193 242 300 379 437
#     4  11  26  45  67 108 148 187 247 304 376 454
#     4  12  30  46  74 112 146 192 252 312 380 442
#     4  11  24  43  75  98 139 195 241 304 373 441
#     4  11  22  48  71  99 141 194 246 296 370 451
#     4  12  26  46  74 103 149 194 243 309 371 444
#     4  12  27  46  73 108 146 190 254 308 372 450
#
# _framework density 23.646274999999999
#
# number of rings (size 3 to 8) (size 9 to 14) (size 15 to 20)
#    0.000    0.615    4.615    2.769    7.538    1.231 
#    1.385    0.000    0.000    0.000    0.000    0.000 
#    0.000    0.000    0.000    0.000    0.000    0.000 
#
# Total GULP energy -144748.747105 kJ/mol
# GULP energy per Si atom -5567.259504 kJ/mol
# Density = 2.359245 g / cm^3
# Si number density = 23.646275 Si / 1000 Ang^3
#
#
#
# Elastic Constant Matrix: (Units=GPa)
#
#
# Indices 1 2 3 4 5 6 
#
# 1 154.8213 33.3482 40.2703 0.0000 -20.4194 0.0000
# 2 33.3482 92.1375 2.8951 0.0000 -0.9703 0.0000
# 3 40.2703 2.8951 108.8353 0.0000 11.0642 0.0000
# 4 0.0000 0.0000 0.0000 -2.6523 0.0000 -11.6503
# 5 -20.4194 -0.9703 11.0642 0.0000 36.0394 0.0000
# 6 0.0000 0.0000 0.0000 -11.6503 0.0000 24.0734
#
#
#
# Elastic Compliance Matrix: (Units=1/GPa)
#
#
# Indices 1 2 3 4 5 6 
#
# 1 0.008928 -0.003046 -0.003849 0.000000 0.006158 0.000000
# 2 -0.003046 0.011907 0.000984 0.000000 -0.001707 0.000000
# 3 -0.003849 0.000984 0.011153 0.000000 -0.005578 0.000000
# 4 0.000000 0.000000 0.000000 -0.120620 0.000000 -0.058374
# 5 0.006158 -0.001707 -0.005578 0.000000 0.032903 0.000000
# 6 0.000000 0.000000 0.000000 -0.058374 0.000000 0.013289
#
#
# Mechanical properties :
#
#
# Convention : Reuss Voigt Hill
#
# Bulk Modulus (GPa) = 49.58563 56.53572 53.06067
# Shear Modulus (GPa) = -209.24200 30.11078 -89.56561
#
# Velocity S-wave (km/s) = -9.41703 3.57232 -6.16113
# Velocity P-wave (km/s) = 9.86029 6.40126 5.30326
#
# Compressibility (1/GPa) = 0.02016714
#
# Stress axis : x y z
#
# Youngs Moduli (GPa) = 112.00233 83.98543 89.66083
#
# Poissons Ratio (x) = 0.25580 0.34507
# Poissons Ratio (y) = 0.34113 -0.08821
# Poissons Ratio (z) = 0.43106 -0.08262
#
# Static dielectric constant tensor:
#      x y z
#    x 1.943210 0.000000 -0.056900 
#    y 0.000000 1.953910 0.000000 
#    z -0.056900 0.000000 2.103390 
# 
# From -- ./inp_files/233103.got.cif
#   From: 2010.05.17/outbox.cif.g08.bks.cpg/sg15_117_cif.got.tgz:233103.got - 2010.06.03 18:47:42.
