data_PCOD9303859
_publ_section_title
;
Structure prediction by ZEFSAII (Michael W. Deem and Ramdas Pophale) SiO2 
 PCOD9303859
Probable space group: C 2/C
;
_chemical_formula_sum "Si O2"
_cell_formula_units_Z 64
_cell_length_a 21.462157
_cell_length_b 14.131842
_cell_length_c 24.127734
_cell_angle_alpha 90.000000
_cell_angle_beta 160.415148
_cell_angle_gamma 90.000000
_cell_volume 2452.990797
_symmetry_space_group_name_H-M "C 2/C"
_symmetry_group_IT_number 15
_symmetry_cell_setting 'monoclinic'
loop_
_space_group_symop_operation_xyz
x,y,z
-x,y,1/2-z
-x,-y,-z
x,-y,1/2+z
1/2+x,1/2+y,z
1/2-x,1/2+y,1/2-z
1/2-x,1/2-y,-z
1/2+x,1/2-y,1/2+z
loop_
_atom_site_type_symbol
_atom_site_label
_atom_site_fract_x
_atom_site_fract_y
_atom_site_fract_z
Si Si1 0.558690 0.160346 0.038070
Si Si2 0.117221 0.949967 0.743100
Si Si3 0.531741 0.863279 0.339392
Si Si4 0.994479 0.580418 0.180072
Si Si5 0.348656 0.642317 0.668024
Si Si6 0.355775 0.710185 0.990357
Si Si7 0.344057 0.713052 0.785705
Si Si8 0.100715 0.942860 0.534455
O O1 0.681058 0.078238 0.112279
O O2 0.656677 0.190937 0.178119
O O3 0.562091 0.244873 0.996098
O O4 0.339258 0.146890 0.860459
O O5 0.998331 0.852765 0.646280
O O6 0.127111 0.030277 0.797574
O O7 0.992069 0.003554 0.594114
O O8 0.500000 0.830878 0.250000
O O9 0.671212 0.801421 0.492436
O O10 0.582838 0.972412 0.381450
O O11 0.319540 0.846950 0.180612
O O12 0.183822 0.567231 0.303159
O O13 0.000000 0.608744 0.250000
O O14 0.853486 0.645956 0.028484
O O15 0.500000 0.669366 0.750000
O O16 0.366852 0.704680 0.738678
O O17 0.517108 0.662117 0.960749
O O18 0.000000 0.000000 0.500000
#
# Coordination Sequence:
#
# PCOD9303859 Si02
#       8
#     8   8   8   8   8   8   8   8
#     4  12  24  44  68 102 143 189 239 291 362 436
#     4  11  23  40  66  97 140 183 229 289 350 424
#     4  11  24  36  59  94 138 190 241 287 351 418
#     4  11  24  44  69  96 137 188 241 297 359 434
#     4  11  27  48  73 105 142 186 245 297 361 433
#     4  12  21  39  59  94 139 187 230 291 344 417
#     4  11  27  44  72 103 145 185 237 298 365 428
#     4  11  25  40  68 102 141 179 237 295 362 423
#
# _framework density 26.090599000000001
#
# number of rings (size 3 to 8) (size 9 to 14) (size 15 to 20)
#    0.000    0.750    3.750    3.375    7.000    1.500 
#    0.000    0.625    0.000    0.750    0.000    0.000 
#    0.000    0.000    0.000    0.000    0.000    0.000 
#
# Total GULP energy -178875.465238 kJ/mol
# GULP energy per Si atom -5589.858289 kJ/mol
# Density = 2.603122 g / cm^3
# Si number density = 26.090599 Si / 1000 Ang^3
#
#
#
# Elastic Constant Matrix: (Units=GPa)
#
#
# Indices 1 2 3 4 5 6 
#
# 1 139.7372 34.9329 32.2237 -0.0216 -11.5383 -0.1204
# 2 34.9329 95.6806 19.6264 -0.0128 -6.0401 -0.1075
# 3 32.2237 19.6264 117.3805 -0.0809 -2.2661 -0.3089
# 4 -0.0216 -0.0128 -0.0809 30.2127 -0.0128 -36.6047
# 5 -11.5383 -6.0401 -2.2661 -0.0128 54.1053 -0.0547
# 6 -0.1204 -0.1075 -0.3089 -36.6047 -0.0547 -134.0628
#
#
#
# Elastic Compliance Matrix: (Units=1/GPa)
#
#
# Indices 1 2 3 4 5 6 
#
# 1 0.008340 -0.002580 -0.001831 -0.000001 0.001414 -0.000001
# 2 -0.002580 0.011691 -0.001233 -0.000004 0.000703 -0.000003
# 3 -0.001831 -0.001233 0.009225 0.000000 -0.000142 -0.000019
# 4 -0.000001 -0.000004 0.000000 0.024871 -0.000002 -0.006791
# 5 0.001414 0.000703 -0.000142 -0.000002 0.018857 -0.000009
# 6 -0.000001 -0.000003 -0.000019 -0.006791 -0.000009 -0.005605
#
#
# Mechanical properties :
#
#
# Convention : Reuss Voigt Hill
#
# Bulk Modulus (GPa) = 55.65321 58.48491 57.06906
# Shear Modulus (GPa) = 59.06233 7.78540 33.42386
#
# Velocity S-wave (km/s) = 4.76304 1.72930 3.58309
# Velocity P-wave (km/s) = 7.18511 5.14315 6.24811
#
# Compressibility (1/GPa) = 0.01796842
#
# Stress axis : x y z
#
# Youngs Moduli (GPa) = 119.90017 85.53771 108.39783
#
# Poissons Ratio (x) = 0.22071 0.19846
# Poissons Ratio (y) = 0.30937 0.13364
# Poissons Ratio (z) = 0.21952 0.10545
#
# Static dielectric constant tensor:
#      x y z
#    x 2.088880 0.000010 0.444870 
#    y 0.000010 2.344890 -0.000030 
#    z 0.444870 -0.000030 1.682560 
# 
# From -- ./inp_files/280528.got.cif
#   From: 2010.05.17/outbox.cif.g08.bks.cpg/sg15_141_cif.got.tgz:280528.got - 2010.06.03 18:47:42.
