data_PCOD9303874
_publ_section_title
;
Structure prediction by ZEFSAII (Michael W. Deem and Ramdas Pophale) SiO2 
 PCOD9303874
Probable space group: C 2/C
;
_chemical_formula_sum "Si O2"
_cell_formula_units_Z 64
_cell_length_a 10.924988
_cell_length_b 15.620309
_cell_length_c 25.944586
_cell_angle_alpha 90.000000
_cell_angle_beta 136.580162
_cell_angle_gamma 90.000000
_cell_volume 3043.184932
_symmetry_space_group_name_H-M "C 2/C"
_symmetry_group_IT_number 15
_symmetry_cell_setting 'monoclinic'
loop_
_space_group_symop_operation_xyz
x,y,z
-x,y,1/2-z
-x,-y,-z
x,-y,1/2+z
1/2+x,1/2+y,z
1/2-x,1/2+y,1/2-z
1/2-x,1/2-y,-z
1/2+x,1/2-y,1/2+z
loop_
_atom_site_type_symbol
_atom_site_label
_atom_site_fract_x
_atom_site_fract_y
_atom_site_fract_z
Si Si1 0.232777 0.810729 0.566365
Si Si2 0.414885 0.929260 0.356274
Si Si3 0.385078 0.510731 0.667960
Si Si4 0.619920 0.648230 0.208372
Si Si5 0.681492 0.830737 0.274999
Si Si6 0.422552 0.360676 0.084857
Si Si7 0.002140 0.560947 0.308474
Si Si8 0.038807 0.251255 0.436746
O O1 0.348714 0.728325 0.585745
O O2 0.180796 0.866537 0.500643
O O3 0.354609 0.864307 0.642408
O O4 0.053630 0.778527 0.538972
O O5 0.306581 0.987311 0.363572
O O6 0.311045 0.884314 0.276308
O O7 0.487390 0.848986 0.409349
O O8 0.545927 0.990332 0.364752
O O9 0.500000 0.552308 0.750000
O O10 0.472833 0.418583 0.684107
O O11 0.388964 0.565697 0.616912
O O12 0.668156 0.729759 0.258245
O O13 0.543163 0.690735 0.132874
O O14 0.802745 0.595746 0.257547
O O15 0.500000 0.849019 0.250000
O O16 0.865636 0.852362 0.359475
O O17 0.000000 0.527847 0.250000
O O18 0.250000 0.250000 0.500000
#
# Coordination Sequence:
#
# PCOD9303874 Si02
#       8
#     8   8   8   8   8   8   8   8
#     4  11  25  44  69 100 139 191 226 282 352 418
#     4  11  25  43  72 101 134 182 230 284 348 411
#     4  12  22  43  71 103 138 176 238 283 343 410
#     4  11  24  40  71 105 134 182 228 297 346 406
#     4  11  23  40  68 102 136 177 232 290 348 403
#     4  11  24  43  68 100 141 184 234 280 345 423
#     4  12  23  44  71 103 141 174 241 286 350 419
#     4  11  26  50  69 101 142 189 233 286 356 422
#
# _framework density 21.030598999999999
#
# number of rings (size 3 to 8) (size 9 to 14) (size 15 to 20)
#    0.000    0.750    6.250    0.750    3.500    1.500 
#    2.250    2.500    0.000    0.000    0.000    0.000 
#    0.000    0.000    0.000    0.000    0.000    0.000 
#
# Total GULP energy -178716.466420 kJ/mol
# GULP energy per Si atom -5584.889576 kJ/mol
# Density = 2.098273 g / cm^3
# Si number density = 21.030599 Si / 1000 Ang^3
#
#
#
# Elastic Constant Matrix: (Units=GPa)
#
#
# Indices 1 2 3 4 5 6 
#
# 1 127.4197 42.4287 14.8213 0.0000 0.5390 0.0000
# 2 42.4287 92.6632 13.7807 0.0000 -4.6154 0.0000
# 3 14.8213 13.7807 43.3588 0.0000 -2.1423 0.0000
# 4 0.0000 0.0000 0.0000 5.6537 0.0000 -6.1659
# 5 0.5390 -4.6154 -2.1423 0.0000 27.4478 0.0000
# 6 0.0000 0.0000 0.0000 -6.1659 0.0000 36.4278
#
#
#
# Elastic Compliance Matrix: (Units=1/GPa)
#
#
# Indices 1 2 3 4 5 6 
#
# 1 0.009441 -0.004079 -0.001981 0.000000 -0.001026 0.000000
# 2 -0.004079 0.013163 -0.002686 0.000000 0.002084 0.000000
# 3 -0.001981 -0.002686 0.024669 0.000000 0.001513 0.000000
# 4 0.000000 0.000000 0.000000 0.216919 0.000000 0.036717
# 5 -0.001026 0.002084 0.001513 0.000000 0.036921 0.000000
# 6 0.000000 0.000000 0.000000 0.036717 0.000000 0.033666
#
#
# Mechanical properties :
#
#
# Convention : Reuss Voigt Hill
#
# Bulk Modulus (GPa) = 33.58031 45.05591 39.31811
# Shear Modulus (GPa) = 13.80450 26.73325 20.26887
#
# Velocity S-wave (km/s) = 2.56481 3.56920 3.10785
# Velocity P-wave (km/s) = 4.97725 6.20130 5.62268
#
# Compressibility (1/GPa) = 0.02977936
#
# Stress axis : x y z
#
# Youngs Moduli (GPa) = 105.91789 75.97092 40.53646
#
# Poissons Ratio (x) = 0.30992 0.08032
# Poissons Ratio (y) = 0.43208 0.10889
# Poissons Ratio (z) = 0.20987 0.20407
#
# Static dielectric constant tensor:
#      x y z
#    x 1.771890 0.000000 -0.003360 
#    y 0.000000 1.751340 0.000000 
#    z -0.003360 0.000000 1.734950 
# 
# From -- ./inp_files/293081.got.cif
#   From: 2010.05.17/outbox.cif.g08.bks.cpg/sg15_147_cif.got.tgz:293081.got - 2010.06.03 18:47:42.
