data_PCOD9303261
_publ_section_title
;
Structure prediction by ZEFSAII (Michael W. Deem and Ramdas Pophale) SiO2 
 PCOD9303261
Probable space group: C 2/C
;
_chemical_formula_sum "Si O2"
_cell_formula_units_Z 60
_cell_length_a 12.711577
_cell_length_b 8.241722
_cell_length_c 29.270530
_cell_angle_alpha 90.000000
_cell_angle_beta 68.326006
_cell_angle_gamma 90.000000
_cell_volume 2849.732252
_symmetry_space_group_name_H-M "C 2/C"
_symmetry_group_IT_number 15
_symmetry_cell_setting 'monoclinic'
loop_
_space_group_symop_operation_xyz
x,y,z
-x,y,1/2-z
-x,-y,-z
x,-y,1/2+z
1/2+x,1/2+y,z
1/2-x,1/2+y,1/2-z
1/2-x,1/2-y,-z
1/2+x,1/2-y,1/2+z
loop_
_atom_site_type_symbol
_atom_site_label
_atom_site_fract_x
_atom_site_fract_y
_atom_site_fract_z
Si Si1 0.875737 0.263402 0.682751
Si Si2 0.500000 0.129034 0.250000
Si Si3 0.496925 0.081228 0.950981
Si Si4 0.794980 0.442893 0.930833
Si Si5 0.590875 0.432415 0.520935
Si Si6 0.271566 0.034114 0.328742
Si Si7 0.789369 0.406194 0.149062
Si Si8 0.893619 0.876159 0.391894
O O1 0.824328 0.439396 0.675378
O O2 0.921258 0.274300 0.727164
O O3 0.990940 0.217342 0.637721
O O4 0.792094 0.111601 0.686956
O O5 0.404783 0.034074 0.294283
O O6 0.418247 0.993510 0.927051
O O7 0.432622 0.245682 0.971962
O O8 0.616195 0.099892 0.906201
O O9 0.500000 0.000000 0.000000
O O10 0.763603 0.495869 0.884565
O O11 0.803143 0.249118 0.927896
O O12 0.709105 0.514583 0.980834
O O13 0.500000 0.500000 0.500000
O O14 0.578790 0.495859 0.574070
O O15 0.222656 0.219882 0.329465
O O16 0.668300 0.439103 0.143812
#
# Coordination Sequence:
#
# PCOD9303261 Si02
#       8
#     8   4   8   8   8   8   8   8
#     4  12  26  49  79 102 149 183 234 304 369 427
#     4  12  26  54  72 116 138 176 246 308 364 442
#     4  12  24  38  63 102 143 192 244 285 341 420
#     4  11  22  43  63  97 144 184 234 298 345 416
#     4  12  24  37  64  97 143 193 243 282 350 423
#     4  11  27  49  77 105 144 188 238 301 365 433
#     4  11  24  48  72 105 145 190 240 290 359 426
#     4  11  22  45  67 102 138 187 237 294 344 425
#
# _framework density 21.05461
#
# number of rings (size 3 to 8) (size 9 to 14) (size 15 to 20)
#    0.000    0.533    4.000    5.600    5.600    0.000 
#    2.400    1.333    0.000    0.000    0.000    0.000 
#    0.000    0.000    0.000    0.000    0.000    0.000 
#
# Total GULP energy -167455.424720 kJ/mol
# GULP energy per Si atom -5581.847491 kJ/mol
# Density = 2.100669 g / cm^3
# Si number density = 21.054610 Si / 1000 Ang^3
#
#
#
# Elastic Constant Matrix: (Units=GPa)
#
#
# Indices 1 2 3 4 5 6 
#
# 1 125.1221 60.1256 12.0781 0.0000 15.3184 0.0000
# 2 60.1256 102.1588 43.8575 0.0000 27.7070 0.0000
# 3 12.0781 43.8575 59.5610 0.0000 0.2768 0.0000
# 4 0.0000 0.0000 0.0000 3.1469 0.0000 10.8288
# 5 15.3184 27.7070 0.2768 0.0000 45.3934 0.0000
# 6 0.0000 0.0000 0.0000 10.8288 0.0000 38.8293
#
#
#
# Elastic Compliance Matrix: (Units=1/GPa)
#
#
# Indices 1 2 3 4 5 6 
#
# 1 0.011847 -0.009350 0.004474 0.000000 0.001682 0.000000
# 2 -0.009350 0.026175 -0.017319 0.000000 -0.012716 0.000000
# 3 0.004474 -0.017319 0.028594 0.000000 0.008887 0.000000
# 4 0.000000 0.000000 0.000000 7.877309 0.000000 -2.196835
# 5 0.001682 -0.012716 0.008887 0.000000 0.029170 0.000000
# 6 0.000000 0.000000 0.000000 -2.196835 0.000000 0.638410
#
#
# Mechanical properties :
#
#
# Convention : Reuss Voigt Hill
#
# Bulk Modulus (GPa) = 44.98922 57.66270 51.32596
# Shear Modulus (GPa) = 0.57715 28.85931 14.71823
#
# Velocity S-wave (km/s) = 0.52413 3.70630 2.64682
# Velocity P-wave (km/s) = 4.66696 6.76478 5.81131
#
# Compressibility (1/GPa) = 0.02222755
#
# Stress axis : x y z
#
# Youngs Moduli (GPa) = 84.40792 38.20377 34.97266
#
# Poissons Ratio (x) = 0.35719 -0.15648
# Poissons Ratio (y) = 0.78918 0.60570
# Poissons Ratio (z) = -0.37766 0.66166
#
# Static dielectric constant tensor:
#      x y z
#    x 1.915380 0.000000 -0.098680 
#    y 0.000000 1.825830 0.000000 
#    z -0.098680 0.000000 1.792320 
# 
# From -- ./inp_files/310268.got.cif
#   From: 2010.05.17/outbox.cif.g08.bks.cpg/sg15_156_cif.got.tgz:310268.got - 2010.06.03 18:47:42.
