data_PCOD9303384
_publ_section_title
;
Structure prediction by ZEFSAII (Michael W. Deem and Ramdas Pophale) SiO2 
 PCOD9303384
Probable space group: C 2/C
;
_chemical_formula_sum "Si O2"
_cell_formula_units_Z 64
_cell_length_a 17.639992
_cell_length_b 19.116157
_cell_length_c 14.119461
_cell_angle_alpha 90.000000
_cell_angle_beta 139.666654
_cell_angle_gamma 90.000000
_cell_volume 3081.613060
_symmetry_space_group_name_H-M "C 2/C"
_symmetry_group_IT_number 15
_symmetry_cell_setting 'monoclinic'
loop_
_space_group_symop_operation_xyz
x,y,z
-x,y,1/2-z
-x,-y,-z
x,-y,1/2+z
1/2+x,1/2+y,z
1/2-x,1/2+y,1/2-z
1/2-x,1/2-y,-z
1/2+x,1/2-y,1/2+z
loop_
_atom_site_type_symbol
_atom_site_label
_atom_site_fract_x
_atom_site_fract_y
_atom_site_fract_z
Si Si1 0.277523 0.455462 0.399408
Si Si2 0.865116 0.091762 0.368096
Si Si3 0.381253 0.486833 0.687740
Si Si4 0.371893 0.213709 0.155642
Si Si5 0.396469 0.663386 0.884934
Si Si6 0.861384 0.682185 0.368197
Si Si7 0.718048 0.883519 0.078216
Si Si8 0.949993 0.572185 0.913268
O O1 0.315925 0.531589 0.392476
O O2 0.319720 0.443465 0.546009
O O3 0.339571 0.397379 0.393699
O O4 0.138687 0.445297 0.255767
O O5 0.904146 0.052628 0.308216
O O6 0.766053 0.147590 0.245645
O O7 0.973634 0.135695 0.512725
O O8 0.500000 0.512295 0.750000
O O9 0.291368 0.548069 0.624490
O O10 0.500000 0.246016 0.250000
O O11 0.379390 0.189898 0.271800
O O12 0.250000 0.250000 0.000000
O O13 0.356987 0.142921 0.080173
O O14 0.385087 0.738457 0.923890
O O15 0.318496 0.667859 0.715589
O O16 0.948445 0.628510 0.502435
O O17 0.630587 0.896582 0.080615
O O18 0.000000 0.500000 0.000000
#
# Coordination Sequence:
#
# PCOD9303384 Si02
#       8
#     8   8   8   8   8   8   8   8
#     4  11  23  44  72  98 131 178 226 292 337 401
#     4  12  24  45  71 102 133 181 233 275 354 414
#     4  12  23  42  70 105 134 172 236 296 339 404
#     4  12  26  42  63 103 142 180 229 276 354 437
#     4  11  24  41  68  98 136 178 223 281 343 412
#     4  12  26  43  69  96 140 189 217 288 350 415
#     4  11  23  40  65  96 137 173 218 278 347 412
#     4  11  22  44  64  95 132 178 227 269 332 412
#
# _framework density 20.768343000000002
#
# number of rings (size 3 to 8) (size 9 to 14) (size 15 to 20)
#    0.000    0.500    7.500    1.875    5.250    0.500 
#    0.000    2.500    2.750    0.000    0.000    0.000 
#    0.000    0.000    0.000    0.000    0.000    0.000 
#
# Total GULP energy -178577.006778 kJ/mol
# GULP energy per Si atom -5580.531462 kJ/mol
# Density = 2.072107 g / cm^3
# Si number density = 20.768343 Si / 1000 Ang^3
#
#
#
# Elastic Constant Matrix: (Units=GPa)
#
#
# Indices 1 2 3 4 5 6 
#
# 1 20.6435 -18.4368 5.4733 0.0000 9.2476 0.0000
# 2 -18.4368 95.7385 20.8228 0.0000 20.0727 0.0000
# 3 5.4733 20.8228 112.1683 0.0000 19.1110 0.0000
# 4 0.0000 0.0000 0.0000 33.8038 0.0000 4.1573
# 5 9.2476 20.0727 19.1110 0.0000 43.9161 0.0000
# 6 0.0000 0.0000 0.0000 4.1573 0.0000 10.4830
#
#
#
# Elastic Compliance Matrix: (Units=1/GPa)
#
#
# Indices 1 2 3 4 5 6 
#
# 1 0.079654 0.021357 -0.003597 0.000000 -0.024969 0.000000
# 2 0.021357 0.017469 -0.002331 0.000000 -0.011467 0.000000
# 3 -0.003597 -0.002331 0.009951 0.000000 -0.002507 0.000000
# 4 0.000000 0.000000 0.000000 0.031099 0.000000 -0.012333
# 5 -0.024969 -0.011467 -0.002507 0.000000 0.034361 0.000000
# 6 0.000000 0.000000 0.000000 -0.012333 0.000000 0.100284
#
#
# Mechanical properties :
#
#
# Convention : Reuss Voigt Hill
#
# Bulk Modulus (GPa) = 7.25001 27.14100 17.19550
# Shear Modulus (GPa) = 17.36479 32.35329 24.85904
#
# Velocity S-wave (km/s) = 2.89471 3.95120 3.46348
# Velocity P-wave (km/s) = 3.83026 5.82347 4.92868
#
# Compressibility (1/GPa) = 0.13793090
#
# Stress axis : x y z
#
# Youngs Moduli (GPa) = 12.55424 57.24356 100.49588
#
# Poissons Ratio (x) = -1.22254 0.36151
# Poissons Ratio (y) = -0.26812 0.23429
# Poissons Ratio (z) = 0.04516 0.13345
#
# Static dielectric constant tensor:
#      x y z
#    x 1.785890 0.000000 0.009210 
#    y 0.000000 1.764640 0.000000 
#    z 0.009210 0.000000 1.796500 
# 
# From -- ./inp_files/163277.got.cif
#   From: 2010.05.17/outbox.cif.g08.bks.cpg/sg15_82_cif.got.tgz:163277.got - 2010.06.03 18:47:42.
