data_PCOD9303608
_publ_section_title
;
Structure prediction by ZEFSAII (Michael W. Deem and Ramdas Pophale) SiO2 
 PCOD9303608
Probable space group: C 2/C
;
_chemical_formula_sum "Si O2"
_cell_formula_units_Z 60
_cell_length_a 8.788478
_cell_length_b 12.493697
_cell_length_c 23.353374
_cell_angle_alpha 90.000000
_cell_angle_beta 74.817233
_cell_angle_gamma 90.000000
_cell_volume 2474.710943
_symmetry_space_group_name_H-M "C 2/C"
_symmetry_group_IT_number 15
_symmetry_cell_setting 'monoclinic'
loop_
_space_group_symop_operation_xyz
x,y,z
-x,y,1/2-z
-x,-y,-z
x,-y,1/2+z
1/2+x,1/2+y,z
1/2-x,1/2+y,1/2-z
1/2-x,1/2-y,-z
1/2+x,1/2-y,1/2+z
loop_
_atom_site_type_symbol
_atom_site_label
_atom_site_fract_x
_atom_site_fract_y
_atom_site_fract_z
Si Si1 0.852733 0.105179 0.915838
Si Si2 0.477596 0.192034 0.349874
Si Si3 0.381928 0.925950 0.977167
Si Si4 0.037558 0.638170 0.677561
Si Si5 0.000000 0.026846 0.250000
Si Si6 0.706824 0.027678 0.335189
Si Si7 0.351301 0.343623 0.662025
Si Si8 0.328377 0.543161 0.584835
O O1 0.932401 0.184341 0.862212
O O2 0.836915 0.026758 0.781608
O O3 0.778817 0.002571 0.889694
O O4 0.001002 0.090578 0.942407
O O5 0.291790 0.146758 0.532388
O O6 0.657349 0.149646 0.324090
O O7 0.340967 0.161012 0.317127
O O8 0.443432 0.858860 0.916814
O O9 0.264996 0.014556 0.962296
O O10 0.500000 0.000000 0.000000
O O11 0.217550 0.615886 0.638311
O O12 0.000000 0.649520 0.750000
O O13 0.954537 0.530639 0.663246
O O14 0.940865 0.730097 0.652465
O O15 0.054144 0.100324 0.296513
O O16 0.367520 0.428115 0.609401
#
# Coordination Sequence:
#
# PCOD9303608 Si02
#       8
#     8   8   8   8   4   8   8   8
#     4  12  24  43  70 102 133 178 234 278 348 413
#     4  11  25  44  70  98 135 183 230 282 344 419
#     4  11  22  46  70  95 138 184 221 289 351 408
#     4  12  24  43  69  97 136 186 228 280 345 417
#     4  12  26  44  66 102 138 176 224 286 344 406
#     4  12  25  45  68  97 141 176 231 289 339 420
#     4  11  23  43  65  98 137 177 224 283 337 411
#     4  11  25  45  66 102 139 175 229 288 347 402
#
# _framework density 24.245256999999999
#
# number of rings (size 3 to 8) (size 9 to 14) (size 15 to 20)
#    0.000    0.533    7.333    1.600    1.867    0.000 
#    0.000    0.667    0.000    0.000    0.000    0.000 
#    0.000    0.000    0.000    0.000    0.000    0.000 
#
# Total GULP energy -167040.639050 kJ/mol
# GULP energy per Si atom -5568.021302 kJ/mol
# Density = 2.419007 g / cm^3
# Si number density = 24.245257 Si / 1000 Ang^3
#
#
#
# Elastic Constant Matrix: (Units=GPa)
#
#
# Indices 1 2 3 4 5 6 
#
# 1 146.6464 25.1966 38.2403 0.0000 13.9750 0.0000
# 2 25.1966 70.8545 3.6132 0.0000 9.1041 0.0000
# 3 38.2403 3.6132 58.1657 0.0000 0.4047 0.0000
# 4 0.0000 0.0000 0.0000 9.9518 0.0000 49.1773
# 5 13.9750 9.1041 0.4047 0.0000 56.9463 0.0000
# 6 0.0000 0.0000 0.0000 49.1773 0.0000 -76.3694
#
#
#
# Elastic Compliance Matrix: (Units=1/GPa)
#
#
# Indices 1 2 3 4 5 6 
#
# 1 0.008925 -0.002662 -0.005690 0.000000 -0.001724 0.000000
# 2 -0.002662 0.015249 0.000815 0.000000 -0.001790 0.000000
# 3 -0.005690 0.000815 0.020875 0.000000 0.001118 0.000000
# 4 0.000000 0.000000 0.000000 0.024027 0.000000 0.015472
# 5 -0.001724 -0.001790 0.001118 0.000000 0.018262 0.000000
# 6 0.000000 0.000000 0.000000 0.015472 0.000000 -0.003131
#
#
# Mechanical properties :
#
#
# Convention : Reuss Voigt Hill
#
# Bulk Modulus (GPa) = 33.36180 45.52966 39.44573
# Shear Modulus (GPa) = 45.75795 12.01351 28.88573
#
# Velocity S-wave (km/s) = 4.34901 2.22840 3.45541
# Velocity P-wave (km/s) = 6.24568 5.04386 5.67667
#
# Compressibility (1/GPa) = 0.02997440
#
# Stress axis : x y z
#
# Youngs Moduli (GPa) = 112.05045 65.58019 47.90507
#
# Poissons Ratio (x) = 0.17457 0.27258
# Poissons Ratio (y) = 0.29828 -0.03906
# Poissons Ratio (z) = 0.63756 -0.05347
#
# Static dielectric constant tensor:
#      x y z
#    x 1.993930 0.000000 -0.056440 
#    y 0.000000 2.065690 0.000000 
#    z -0.056440 0.000000 2.046890 
# 
# From -- ./inp_files/264285.got.cif
#   From: 2010.05.17/outbox.cif.g08.bks.cpg/sg15_133_cif.got.tgz:264285.got - 2010.06.03 18:47:42.
