data_PCOD9303618
_publ_section_title
;
Structure prediction by ZEFSAII (Michael W. Deem and Ramdas Pophale) SiO2 
 PCOD9303618
Probable space group: C 2/C
;
_chemical_formula_sum "Si O2"
_cell_formula_units_Z 64
_cell_length_a 13.093342
_cell_length_b 17.661707
_cell_length_c 21.436281
_cell_angle_alpha 90.000000
_cell_angle_beta 143.542033
_cell_angle_gamma 90.000000
_cell_volume 2945.705505
_symmetry_space_group_name_H-M "C 2/C"
_symmetry_group_IT_number 15
_symmetry_cell_setting 'monoclinic'
loop_
_space_group_symop_operation_xyz
x,y,z
-x,y,1/2-z
-x,-y,-z
x,-y,1/2+z
1/2+x,1/2+y,z
1/2-x,1/2+y,1/2-z
1/2-x,1/2-y,-z
1/2+x,1/2-y,1/2+z
loop_
_atom_site_type_symbol
_atom_site_label
_atom_site_fract_x
_atom_site_fract_y
_atom_site_fract_z
Si Si1 0.681831 0.100539 0.742386
Si Si2 0.244084 0.949810 0.466452
Si Si3 0.874678 0.434797 0.812372
Si Si4 0.409064 0.201068 0.555919
Si Si5 0.299127 0.596598 0.139835
Si Si6 0.290507 0.693040 0.347867
Si Si7 0.505308 0.579720 0.965189
Si Si8 0.811011 0.148450 0.669406
O O1 0.496837 0.142321 0.648801
O O2 0.744014 0.119387 0.702482
O O3 0.823906 0.122924 0.863113
O O4 0.695381 0.010070 0.755093
O O5 0.424685 0.954677 0.589721
O O6 0.094250 0.932972 0.441674
O O7 0.287571 0.884538 0.437613
O O8 0.198553 0.024847 0.405521
O O9 0.788799 0.428694 0.838561
O O10 0.826912 0.357434 0.754572
O O11 0.250000 0.250000 0.500000
O O12 0.330207 0.155280 0.458089
O O13 0.557750 0.261646 0.612982
O O14 0.500000 0.620762 0.250000
O O15 0.375702 0.636135 0.437818
O O16 0.190818 0.761468 0.331136
O O17 0.500000 0.500000 0.000000
O O18 0.000000 0.117880 0.750000
#
# Coordination Sequence:
#
# PCOD9303618 Si02
#       8
#     8   8   8   8   8   8   8   8
#     4  11  22  46  72 100 137 184 234 292 348 424
#     4  12  25  43  75 105 137 188 241 297 352 422
#     4  12  23  44  74 104 138 184 244 292 351 422
#     4  11  26  46  70 107 143 181 231 297 361 426
#     4  12  24  43  80 107 138 184 243 296 355 429
#     4  11  28  44  67 102 150 181 230 296 353 425
#     4  12  27  45  70 101 142 192 242 288 355 426
#     4  11  23  43  70 102 138 172 232 294 352 416
#
# _framework density 21.726544000000001
#
# number of rings (size 3 to 8) (size 9 to 14) (size 15 to 20)
#    0.000    0.500    5.000    3.750    3.500    5.500 
#    0.000    1.250    0.000    0.000    0.000    0.000 
#    0.000    0.000    0.000    0.000    0.000    0.000 
#
# Total GULP energy -178663.982618 kJ/mol
# GULP energy per Si atom -5583.249457 kJ/mol
# Density = 2.167709 g / cm^3
# Si number density = 21.726544 Si / 1000 Ang^3
#
#
#
# Elastic Constant Matrix: (Units=GPa)
#
#
# Indices 1 2 3 4 5 6 
#
# 1 25.0140 2.3527 3.7387 0.0000 5.8429 0.0000
# 2 2.3527 83.6592 1.7284 -0.0001 -15.0007 0.0001
# 3 3.7387 1.7284 98.1344 0.0008 1.9115 0.0002
# 4 0.0000 -0.0001 0.0008 -16.4867 0.0002 27.7635
# 5 5.8429 -15.0007 1.9115 0.0002 34.6800 0.0001
# 6 0.0000 0.0001 0.0002 27.7635 0.0001 7.8748
#
#
#
# Elastic Compliance Matrix: (Units=1/GPa)
#
#
# Indices 1 2 3 4 5 6 
#
# 1 0.042350 -0.002631 -0.001407 0.000000 -0.008196 0.000000
# 2 -0.002631 0.013133 -0.000251 0.000000 0.006138 0.000000
# 3 -0.001407 -0.000251 0.010257 0.000000 -0.000437 0.000000
# 4 0.000000 0.000000 0.000000 -0.008744 0.000000 0.030826
# 5 -0.008196 0.006138 -0.000437 0.000000 0.032895 0.000000
# 6 0.000000 0.000000 0.000000 0.030826 0.000000 0.018306
#
#
# Mechanical properties :
#
#
# Convention : Reuss Voigt Hill
#
# Bulk Modulus (GPa) = 17.49460 24.71636 21.10548
# Shear Modulus (GPa) = 36.81102 18.47947 27.64524
#
# Velocity S-wave (km/s) = 4.12064 2.91958 3.57097
# Velocity P-wave (km/s) = 5.54159 4.77138 5.17084
#
# Compressibility (1/GPa) = 0.05716048
#
# Stress axis : x y z
#
# Youngs Moduli (GPa) = 23.61280 76.14421 97.49778
#
# Poissons Ratio (x) = 0.20037 0.13722
# Poissons Ratio (y) = 0.06214 0.02443
# Poissons Ratio (z) = 0.03323 0.01908
#
# Static dielectric constant tensor:
#      x y z
#    x 1.762110 0.000000 0.137970 
#    y 0.000000 1.806530 0.000000 
#    z 0.137970 0.000000 1.706640 
# 
# From -- ./inp_files/274869.got.cif
#   From: 2010.05.17/outbox.cif.g08.bks.cpg/sg15_138_cif.got.tgz:274869.got - 2010.06.03 18:47:42.
