data_PCOD9303258
_publ_section_title
;
Structure prediction by ZEFSAII (Michael W. Deem and Ramdas Pophale) SiO2 
 PCOD9303258
Probable space group: C 2/C
;
_chemical_formula_sum "Si O2"
_cell_formula_units_Z 40
_cell_length_a 12.502500
_cell_length_b 18.206691
_cell_length_c 9.072281
_cell_angle_alpha 90.000000
_cell_angle_beta 135.686298
_cell_angle_gamma 90.000000
_cell_volume 1442.661749
_symmetry_space_group_name_H-M "C 2/C"
_symmetry_group_IT_number 15
_symmetry_cell_setting 'monoclinic'
loop_
_space_group_symop_operation_xyz
x,y,z
-x,y,1/2-z
-x,-y,-z
x,-y,1/2+z
1/2+x,1/2+y,z
1/2-x,1/2+y,1/2-z
1/2-x,1/2-y,-z
1/2+x,1/2-y,1/2+z
loop_
_atom_site_type_symbol
_atom_site_label
_atom_site_fract_x
_atom_site_fract_y
_atom_site_fract_z
Si Si1 0.519354 0.656519 0.093442
Si Si2 0.500000 0.127194 0.250000
Si Si3 0.347166 0.010711 0.741572
Si Si4 0.872348 0.003879 0.225032
Si Si5 0.500000 0.124637 0.750000
Si Si6 0.311887 0.792091 0.307214
O O1 0.500000 0.666218 0.250000
O O2 0.552162 0.570059 0.107159
O O3 0.660096 0.704810 0.173330
O O4 0.365496 0.686119 0.865729
O O5 0.614361 0.070812 0.276243
O O6 0.593910 0.175554 0.460978
O O7 0.253013 0.030330 0.793244
O O8 0.232617 0.042017 0.503371
O O9 0.502112 0.938666 0.121548
O O10 0.000000 0.964673 0.250000
O O11 0.614899 0.178567 0.775916
#
# Coordination Sequence:
#
# PCOD9303258 Si02
#       6
#     8   4   8   8   4   8
#     4  11  26  46  77 111 151 203 264 327 375 461
#     4  11  28  46  72 112 160 201 252 318 400 469
#     4  11  24  44  73 109 150 204 248 318 383 465
#     4  11  24  44  73 107 149 196 257 315 382 452
#     4  11  22  42  78 108 148 195 262 314 376 453
#     4  12  26  47  75 112 155 206 260 320 387 463
#
# _framework density 27.726524999999999
#
# number of rings (size 3 to 8) (size 9 to 14) (size 15 to 20)
#    0.000    0.800    1.000    6.000    5.600    5.600 
#    0.000    0.000    0.000    0.000    0.000    0.000 
#    0.000    0.000    0.000    0.000    0.000    0.000 
#
# Total GULP energy -111776.639303 kJ/mol
# GULP energy per Si atom -5588.831965 kJ/mol
# Density = 2.766342 g / cm^3
# Si number density = 27.726525 Si / 1000 Ang^3
#
#
#
# Elastic Constant Matrix: (Units=GPa)
#
#
# Indices 1 2 3 4 5 6 
#
# 1 165.5392 15.3549 46.4655 0.0000 -15.9084 0.0000
# 2 15.3549 95.0681 -17.5657 0.0000 -8.1689 0.0000
# 3 46.4655 -17.5657 126.9201 0.0000 -4.7451 0.0000
# 4 0.0000 0.0000 0.0000 24.1734 0.0000 5.6716
# 5 -15.9084 -8.1689 -4.7451 0.0000 51.9717 0.0000
# 6 0.0000 0.0000 0.0000 5.6716 0.0000 43.8828
#
#
#
# Elastic Compliance Matrix: (Units=1/GPa)
#
#
# Indices 1 2 3 4 5 6 
#
# 1 0.007116 -0.001512 -0.002751 0.000000 0.001689 0.000000
# 2 -0.001512 0.011294 0.002173 0.000000 0.001511 0.000000
# 3 -0.002751 0.002173 0.009200 0.000000 0.000339 0.000000
# 4 0.000000 0.000000 0.000000 0.042661 0.000000 -0.005514
# 5 0.001689 0.001511 0.000339 0.000000 0.020027 0.000000
# 6 0.000000 0.000000 0.000000 -0.005514 0.000000 0.023501
#
#
# Mechanical properties :
#
#
# Convention : Reuss Voigt Hill
#
# Bulk Modulus (GPa) = 42.68199 52.89298 47.78748
# Shear Modulus (GPa) = 39.74906 46.89043 43.31975
#
# Velocity S-wave (km/s) = 3.79041 4.11685 3.95700
# Velocity P-wave (km/s) = 5.88079 6.45880 6.17656
#
# Compressibility (1/GPa) = 0.02342909
#
# Stress axis : x y z
#
# Youngs Moduli (GPa) = 140.53343 88.53906 108.69935
#
# Poissons Ratio (x) = 0.13391 0.29906
# Poissons Ratio (y) = 0.21256 -0.23624
# Poissons Ratio (z) = 0.38664 -0.19243
#
# Static dielectric constant tensor:
#      x y z
#    x 2.209000 0.000000 0.055500 
#    y 0.000000 2.217280 0.000000 
#    z 0.055500 0.000000 2.260550 
# 
# From -- ./inp_files/42455.got.cif
#   From: 2010.05.17/outbox.cif.g08.bks.cpg/sg15_22_cif.got.tgz:42455.got - 2010.06.03 18:47:42.
