data_PCOD9303344
_publ_section_title
;
Structure prediction by ZEFSAII (Michael W. Deem and Ramdas Pophale) SiO2 
 PCOD9303344
Probable space group: C 2/C
;
_chemical_formula_sum "Si O2"
_cell_formula_units_Z 40
_cell_length_a 8.544638
_cell_length_b 24.766212
_cell_length_c 8.151901
_cell_angle_alpha 90.000000
_cell_angle_beta 101.045233
_cell_angle_gamma 90.000000
_cell_volume 1693.136382
_symmetry_space_group_name_H-M "C 2/C"
_symmetry_group_IT_number 15
_symmetry_cell_setting 'monoclinic'
loop_
_space_group_symop_operation_xyz
x,y,z
-x,y,1/2-z
-x,-y,-z
x,-y,1/2+z
1/2+x,1/2+y,z
1/2-x,1/2+y,1/2-z
1/2-x,1/2-y,-z
1/2+x,1/2-y,1/2+z
loop_
_atom_site_type_symbol
_atom_site_label
_atom_site_fract_x
_atom_site_fract_y
_atom_site_fract_z
Si Si1 0.500000 0.133514 0.750000
Si Si2 0.210107 0.712644 0.645538
Si Si3 0.216925 0.060051 0.560298
Si Si4 0.000000 0.206340 0.250000
Si Si5 0.692317 0.058559 0.297965
Si Si6 0.576868 0.367708 0.460650
O O1 0.556620 0.173415 0.616023
O O2 0.355933 0.096527 0.664994
O O3 0.250000 0.750000 0.500000
O O4 0.352848 0.669573 0.671555
O O5 0.158231 0.755805 0.772933
O O6 0.233673 0.064172 0.367982
O O7 0.048635 0.083843 0.585450
O O8 0.251499 0.999042 0.620429
O O9 0.001840 0.170689 0.086629
O O10 0.500000 0.060214 0.250000
O O11 0.766905 0.104653 0.426860
#
# Coordination Sequence:
#
# PCOD9303344 Si02
#       6
#     4   8   8   4   8   8
#     4  11  24  46  68 100 146 178 228 281 344 408
#     4   9  21  42  73  96 137 179 227 285 341 411
#     4  12  26  44  68 103 141 181 230 280 338 414
#     4   9  18  44  70  98 142 168 232 285 342 406
#     4  12  25  44  70 100 143 183 225 277 345 414
#     4  11  22  43  72 103 138 177 230 284 341 402
#
# _framework density 23.624794999999999
#
# number of rings (size 3 to 8) (size 9 to 14) (size 15 to 20)
#    0.000    1.200    3.000    2.400    2.800    0.800 
#    0.000   11.000   17.600    0.000    0.000    0.000 
#    0.000    0.000    0.000    0.000    0.000    0.000 
#
# Total GULP energy -111743.976449 kJ/mol
# GULP energy per Si atom -5587.198822 kJ/mol
# Density = 2.357102 g / cm^3
# Si number density = 23.624795 Si / 1000 Ang^3
#
#
#
# Elastic Constant Matrix: (Units=GPa)
#
#
# Indices 1 2 3 4 5 6 
#
# 1 154.0295 66.7484 35.9734 0.0000 -7.6170 0.0000
# 2 66.7484 128.2596 32.1618 0.0000 -11.9481 0.0000
# 3 35.9734 32.1618 47.2297 0.0000 -10.6158 0.0000
# 4 0.0000 0.0000 0.0000 -0.5762 0.0000 -22.4535
# 5 -7.6170 -11.9481 -10.6158 0.0000 41.1869 0.0000
# 6 0.0000 0.0000 0.0000 -22.4535 0.0000 47.3912
#
#
#
# Elastic Compliance Matrix: (Units=1/GPa)
#
#
# Indices 1 2 3 4 5 6 
#
# 1 0.009116 -0.003646 -0.004585 0.000000 -0.000554 0.000000
# 2 -0.003646 0.010911 -0.004345 0.000000 0.001371 0.000000
# 3 -0.004585 -0.004345 0.028820 0.000000 0.005320 0.000000
# 4 0.000000 0.000000 0.000000 -0.089171 0.000000 -0.042248
# 5 -0.000554 0.001371 0.005320 0.000000 0.025946 0.000000
# 6 0.000000 0.000000 0.000000 -0.042248 0.000000 0.001084
#
#
# Mechanical properties :
#
#
# Convention : Reuss Voigt Hill
#
# Bulk Modulus (GPa) = 42.20257 66.58733 54.39495
# Shear Modulus (GPa) = 253.09043 30.57606 141.83324
#
# Velocity S-wave (km/s) = 10.36155 3.60145 7.75668
# Velocity P-wave (km/s) = 12.69060 6.74837 10.16346
#
# Compressibility (1/GPa) = 0.02369524
#
# Stress axis : x y z
#
# Youngs Moduli (GPa) = 109.70255 91.64803 34.69827
#
# Poissons Ratio (x) = 0.33413 0.15909
# Poissons Ratio (y) = 0.39995 0.15077
# Poissons Ratio (z) = 0.50297 0.39822
#
# Static dielectric constant tensor:
#      x y z
#    x 1.891990 0.000000 0.015080 
#    y 0.000000 1.900700 0.000000 
#    z 0.015080 0.000000 1.923770 
# 
# From -- ./inp_files/23812.got.cif
#   From: 2010.05.17/outbox.cif.g08.bks.cpg/sg15_12_cif.got.tgz:23812.got - 2010.06.03 18:47:42.
