data_PCOD9303479
_publ_section_title
;
Structure prediction by ZEFSAII (Michael W. Deem and Ramdas Pophale) SiO2 
 PCOD9303479
Probable space group: C 2/C
;
_chemical_formula_sum "Si O2"
_cell_formula_units_Z 40
_cell_length_a 18.820473
_cell_length_b 7.108348
_cell_length_c 10.640354
_cell_angle_alpha 90.000000
_cell_angle_beta 80.092598
_cell_angle_gamma 90.000000
_cell_volume 1402.264460
_symmetry_space_group_name_H-M "C 2/C"
_symmetry_group_IT_number 15
_symmetry_cell_setting 'monoclinic'
loop_
_space_group_symop_operation_xyz
x,y,z
-x,y,1/2-z
-x,-y,-z
x,-y,1/2+z
1/2+x,1/2+y,z
1/2-x,1/2+y,1/2-z
1/2-x,1/2-y,-z
1/2+x,1/2-y,1/2+z
loop_
_atom_site_type_symbol
_atom_site_label
_atom_site_fract_x
_atom_site_fract_y
_atom_site_fract_z
Si Si1 0.674258 0.252766 0.153317
Si Si2 0.816303 0.605658 0.973148
Si Si3 0.320996 0.657107 0.252971
Si Si4 0.556794 0.836672 0.873872
Si Si5 0.468727 0.719768 0.121256
O O1 0.687125 0.119433 0.029750
O O2 0.742216 0.184231 0.219092
O O3 0.592780 0.221987 0.231068
O O4 0.681147 0.476434 0.155695
O O5 0.843360 0.660060 0.825581
O O6 0.872880 0.658262 0.059155
O O7 0.250000 0.750000 0.500000
O O8 0.387951 0.635180 0.139011
O O9 0.529495 0.050592 0.872148
O O10 0.506033 0.700492 0.972252
O O11 0.500000 0.656641 0.250000
#
# Coordination Sequence:
#
# PCOD9303479 Si02
#       5
#     8   8   8   8   8
#     4  12  24  45  71 102 141 182 234 291 359 421
#     4  12  24  45  73 105 139 179 234 295 351 423
#     4  12  23  43  69  98 140 181 232 293 345 426
#     4  11  22  44  73  99 137 188 230 293 355 415
#     4  11  23  43  70  98 142 183 235 293 350 423
#
# _framework density 28.525288
#
# number of rings (size 3 to 8) (size 9 to 14) (size 15 to 20)
#    0.000    0.400    8.000    0.000    0.000    1.600 
#    3.600    5.000    0.000    0.000    0.000    0.000 
#    0.000    0.000    0.000    0.000    0.000    0.000 
#
# Total GULP energy -111917.975289 kJ/mol
# GULP energy per Si atom -5595.898764 kJ/mol
# Density = 2.846036 g / cm^3
# Si number density = 28.525288 Si / 1000 Ang^3
#
#
#
# Elastic Constant Matrix: (Units=GPa)
#
#
# Indices 1 2 3 4 5 6 
#
# 1 95.7177 19.0483 63.5897 0.0000 -22.0899 0.0000
# 2 19.0483 147.6327 20.2025 0.0000 -27.1386 0.0000
# 3 63.5897 20.2025 114.1888 0.0000 -33.5026 0.0000
# 4 0.0000 0.0000 0.0000 26.2327 0.0000 -1.4003
# 5 -22.0899 -27.1386 -33.5026 0.0000 66.5823 0.0000
# 6 0.0000 0.0000 0.0000 -1.4003 0.0000 41.5601
#
#
#
# Elastic Compliance Matrix: (Units=1/GPa)
#
#
# Indices 1 2 3 4 5 6 
#
# 1 0.016726 -0.000800 -0.008964 0.000000 0.000713 0.000000
# 2 -0.000800 0.007384 -0.000065 0.000000 0.002711 0.000000
# 3 -0.008964 -0.000065 0.015111 0.000000 0.004603 0.000000
# 4 0.000000 0.000000 0.000000 0.038189 0.000000 0.001287
# 5 0.000713 0.002711 0.004603 0.000000 0.018677 0.000000
# 6 0.000000 0.000000 0.000000 0.001287 0.000000 0.024105
#
#
# Mechanical properties :
#
#
# Convention : Reuss Voigt Hill
#
# Bulk Modulus (GPa) = 51.11740 62.58004 56.84872
# Shear Modulus (GPa) = 34.15943 43.85491 39.00717
#
# Velocity S-wave (km/s) = 3.46427 3.92523 3.70193
# Velocity P-wave (km/s) = 5.82756 6.52145 6.18424
#
# Compressibility (1/GPa) = 0.01956281
#
# Stress axis : x y z
#
# Youngs Moduli (GPa) = 59.78629 135.42448 66.17544
#
# Poissons Ratio (x) = 0.10840 0.59319
# Poissons Ratio (y) = 0.04786 0.00431
# Poissons Ratio (z) = 0.53592 0.00882
#
# Static dielectric constant tensor:
#      x y z
#    x 2.243430 0.000000 -0.138060 
#    y 0.000000 2.140040 0.000000 
#    z -0.138060 0.000000 2.349230 
# 
# From -- ./inp_files/103246.got.cif
#   From: 2010.05.17/outbox.cif.g08.bks.cpg/sg15_52_cif.got.tgz:103246.got - 2010.06.03 18:47:42.
