data_PCOD9303167
_publ_section_title
;
Structure prediction by ZEFSAII (Michael W. Deem and Ramdas Pophale) SiO2 
 PCOD9303167
Probable space group: C 2/C
;
_chemical_formula_sum "Si O2"
_cell_formula_units_Z 40
_cell_length_a 24.736195
_cell_length_b 10.136043
_cell_length_c 27.002260
_cell_angle_alpha 90.000000
_cell_angle_beta 164.153312
_cell_angle_gamma 90.000000
_cell_volume 1848.699257
_symmetry_space_group_name_H-M "C 2/C"
_symmetry_group_IT_number 15
_symmetry_cell_setting 'monoclinic'
loop_
_space_group_symop_operation_xyz
x,y,z
-x,y,1/2-z
-x,-y,-z
x,-y,1/2+z
1/2+x,1/2+y,z
1/2-x,1/2+y,1/2-z
1/2-x,1/2-y,-z
1/2+x,1/2-y,1/2+z
loop_
_atom_site_type_symbol
_atom_site_label
_atom_site_fract_x
_atom_site_fract_y
_atom_site_fract_z
Si Si1 0.968040 0.846857 0.430904
Si Si2 0.331260 0.149333 0.641992
Si Si3 0.570439 0.550728 0.260563
Si Si4 0.202662 0.428979 0.274820
Si Si5 0.157117 0.428077 0.076697
O O1 0.811373 0.920781 0.257539
O O2 0.157763 0.941050 0.603404
O O3 0.042301 0.709922 0.474678
O O4 0.846679 0.824550 0.374888
O O5 0.500000 0.112456 0.750000
O O6 0.324880 0.308787 0.635593
O O7 0.123115 0.089597 0.441370
O O8 0.357771 0.105941 0.722431
O O9 0.500000 0.491820 0.250000
O O10 0.710843 0.453942 0.354982
O O11 0.008061 0.458372 0.071065
#
# Coordination Sequence:
#
# PCOD9303167 Si02
#       5
#     8   8   8   8   8
#     4  11  25  42  65  96 134 176 222 269 325 394
#     4  11  22  42  69 102 134 168 221 278 332 394
#     4  11  23  41  67 101 133 175 220 273 334 390
#     4  11  24  43  67  97 133 175 218 273 333 386
#     4  12  23  46  68  95 137 174 221 273 326 394
#
# _framework density 21.636832999999999
#
# number of rings (size 3 to 8) (size 9 to 14) (size 15 to 20)
#    0.000    0.800    4.000    5.400    0.000    4.800 
#    0.000    2.000    0.000    0.000    0.000    0.000 
#    0.000    0.000    0.000    0.000    0.000    0.000 
#
# Total GULP energy -111844.125623 kJ/mol
# GULP energy per Si atom -5592.206281 kJ/mol
# Density = 2.158759 g / cm^3
# Si number density = 21.636833 Si / 1000 Ang^3
#
#
#
# Elastic Constant Matrix: (Units=GPa)
#
#
# Indices 1 2 3 4 5 6 
#
# 1 117.6953 52.2317 53.0321 -0.0167 36.3413 0.0084
# 2 52.2317 61.1562 35.2329 0.0015 23.0855 -0.0252
# 3 53.0321 35.2329 128.1285 0.0601 8.9566 -0.0504
# 4 -0.0167 0.0015 0.0601 34.6141 -0.0012 -2.0272
# 5 36.3413 23.0855 8.9566 -0.0012 43.4548 0.0034
# 6 0.0084 -0.0252 -0.0504 -2.0272 0.0034 40.7550
#
#
#
# Elastic Compliance Matrix: (Units=1/GPa)
#
#
# Indices 1 2 3 4 5 6 
#
# 1 0.016865 -0.008906 -0.003933 0.000014 -0.008562 -0.000012
# 2 -0.008906 0.028777 -0.003733 0.000002 -0.007071 0.000016
# 3 -0.003933 -0.003733 0.010238 -0.000019 0.003162 0.000010
# 4 0.000014 0.000002 -0.000019 0.028974 -0.000008 0.001441
# 5 -0.008562 -0.007071 0.003162 -0.000008 0.033278 -0.000002
# 6 -0.000012 0.000016 0.000010 0.001441 -0.000002 0.024609
#
#
# Mechanical properties :
#
#
# Convention : Reuss Voigt Hill
#
# Bulk Modulus (GPa) = 43.98122 65.33037 54.65579
# Shear Modulus (GPa) = 27.25354 34.86365 31.05860
#
# Velocity S-wave (km/s) = 3.55292 4.01847 3.79284
# Velocity P-wave (km/s) = 6.09936 7.19655 6.67055
#
# Compressibility (1/GPa) = 0.02273698
#
# Stress axis : x y z
#
# Youngs Moduli (GPa) = 59.29571 34.74948 97.67628
#
# Poissons Ratio (x) = 0.30947 0.38414
# Poissons Ratio (y) = 0.52808 0.36461
# Poissons Ratio (z) = 0.23320 0.12972
#
# Static dielectric constant tensor:
#      x y z
#    x 1.829700 -0.000070 -0.011650 
#    y -0.000070 1.755580 0.000000 
#    z -0.011650 0.000000 1.808600 
# 
# From -- ./inp_files/280053.got.cif
#   From: 2010.05.17/outbox.cif.g08.bks.cpg/sg15_141_cif.got.tgz:280053.got - 2010.06.03 18:47:42.
