data_PCOD9303700
_publ_section_title
;
Structure prediction by ZEFSAII (Michael W. Deem and Ramdas Pophale) SiO2 
 PCOD9303700
Probable space group: C 2/C
;
_chemical_formula_sum "Si O2"
_cell_formula_units_Z 40
_cell_length_a 16.473119
_cell_length_b 11.363781
_cell_length_c 11.550995
_cell_angle_alpha 90.000000
_cell_angle_beta 90.859739
_cell_angle_gamma 90.000000
_cell_volume 2162.067222
_symmetry_space_group_name_H-M "C 2/C"
_symmetry_group_IT_number 15
_symmetry_cell_setting 'monoclinic'
loop_
_space_group_symop_operation_xyz
x,y,z
-x,y,1/2-z
-x,-y,-z
x,-y,1/2+z
1/2+x,1/2+y,z
1/2-x,1/2+y,1/2-z
1/2-x,1/2-y,-z
1/2+x,1/2-y,1/2+z
loop_
_atom_site_type_symbol
_atom_site_label
_atom_site_fract_x
_atom_site_fract_y
_atom_site_fract_z
Si Si1 0.818948 0.688027 0.924344
Si Si2 0.228815 0.563388 0.034310
Si Si3 0.523671 0.661029 0.118915
Si Si4 0.260377 0.717539 0.824822
Si Si5 0.396206 0.419227 0.435774
O O1 0.825123 0.551618 0.961048
O O2 0.903665 0.756757 0.924604
O O3 0.783151 0.691739 0.794341
O O4 0.750000 0.750000 0.000000
O O5 0.231377 0.644530 0.147792
O O6 0.210806 0.654050 0.928642
O O7 0.321662 0.526277 0.008819
O O8 0.500000 0.693192 0.250000
O O9 0.555122 0.525819 0.119111
O O10 0.450484 0.656653 0.024816
O O11 0.349173 0.659207 0.840316
#
# Coordination Sequence:
#
# PCOD9303700 Si02
#       5
#     8   8   8   8   8
#     4  12  23  37  64  98 121 159 220 257 302 383
#     4   9  20  39  63  88 121 165 208 253 309 369
#     4  11  23  36  61  91 127 157 208 268 316 359
#     4   9  21  37  64  87 127 163 210 253 315 374
#     4   9  20  38  58  87 121 164 201 254 313 366
#
# _framework density 18.500812
#
# number of rings (size 3 to 8) (size 9 to 14) (size 15 to 20)
#    1.200    0.800    2.000    1.200    8.400    0.000 
#    0.000    1.000    0.000    0.000    0.000    0.000 
#    0.000    0.000    0.000    0.000    0.000    0.000 
#
# Total GULP energy -111403.563853 kJ/mol
# GULP energy per Si atom -5570.178193 kJ/mol
# Density = 1.845870 g / cm^3
# Si number density = 18.500812 Si / 1000 Ang^3
#
#
#
# Elastic Constant Matrix: (Units=GPa)
#
#
# Indices 1 2 3 4 5 6 
#
# 1 76.2013 11.2899 16.3573 0.0000 0.2731 0.0000
# 2 11.2899 87.4426 15.8780 0.0000 -8.7256 0.0000
# 3 16.3573 15.8780 47.6817 0.0000 -1.3487 0.0000
# 4 0.0000 0.0000 0.0000 18.5148 0.0000 -9.5106
# 5 0.2731 -8.7256 -1.3487 0.0000 26.3831 0.0000
# 6 0.0000 0.0000 0.0000 -9.5106 0.0000 36.5251
#
#
#
# Elastic Compliance Matrix: (Units=1/GPa)
#
#
# Indices 1 2 3 4 5 6 
#
# 1 0.014264 -0.001089 -0.004552 0.000000 -0.000741 0.000000
# 2 -0.001089 0.012653 -0.003727 0.000000 0.004005 0.000000
# 3 -0.004552 -0.003727 0.023776 0.000000 0.000030 0.000000
# 4 0.000000 0.000000 0.000000 0.062351 0.000000 0.016235
# 5 -0.000741 0.004005 0.000030 0.000000 0.039237 0.000000
# 6 0.000000 0.000000 0.000000 0.016235 0.000000 0.031606
#
#
# Mechanical properties :
#
#
# Convention : Reuss Voigt Hill
#
# Bulk Modulus (GPa) = 31.29072 33.15287 32.22179
# Shear Modulus (GPa) = 23.44407 27.47130 25.45768
#
# Velocity S-wave (km/s) = 3.56363 3.85758 3.71351
# Velocity P-wave (km/s) = 5.82086 6.14816 5.98675
#
# Compressibility (1/GPa) = 0.03195836
#
# Stress axis : x y z
#
# Youngs Moduli (GPa) = 70.10559 79.03229 42.05989
#
# Poissons Ratio (x) = 0.08607 0.19144
# Poissons Ratio (y) = 0.07635 0.15674
# Poissons Ratio (z) = 0.31909 0.29452
#
# Static dielectric constant tensor:
#      x y z
#    x 1.641290 0.000000 -0.022540 
#    y 0.000000 1.667720 0.000000 
#    z -0.022540 0.000000 1.689100 
# 
# From -- ./inp_files/94854.got.cif
#   From: 2010.05.17/outbox.cif.g08.bks.cpg/sg15_48_cif.got.tgz:94854.got - 2010.06.03 18:47:42.
