data_PCOD9303477
_publ_section_title
;
Structure prediction by ZEFSAII (Michael W. Deem and Ramdas Pophale) SiO2 
 PCOD9303477
Probable space group: C 2/C
;
_chemical_formula_sum "Si O2"
_cell_formula_units_Z 48
_cell_length_a 7.806043
_cell_length_b 25.442363
_cell_length_c 11.959340
_cell_angle_alpha 90.000000
_cell_angle_beta 124.909932
_cell_angle_gamma 90.000000
_cell_volume 1947.768560
_symmetry_space_group_name_H-M "C 2/C"
_symmetry_group_IT_number 15
_symmetry_cell_setting 'monoclinic'
loop_
_space_group_symop_operation_xyz
x,y,z
-x,y,1/2-z
-x,-y,-z
x,-y,1/2+z
1/2+x,1/2+y,z
1/2-x,1/2+y,1/2-z
1/2-x,1/2-y,-z
1/2+x,1/2-y,1/2+z
loop_
_atom_site_type_symbol
_atom_site_label
_atom_site_fract_x
_atom_site_fract_y
_atom_site_fract_z
Si Si1 0.438446 0.872888 0.535728
Si Si2 0.107824 0.262663 0.672096
Si Si3 0.322110 0.032763 0.280339
Si Si4 0.194946 0.414861 0.237862
Si Si5 0.050939 0.894285 0.548532
Si Si6 0.960368 0.783724 0.570020
O O1 0.562800 0.819685 0.602901
O O2 0.590379 0.923416 0.602718
O O3 0.330776 0.875107 0.374547
O O4 0.269568 0.877214 0.572512
O O5 0.004206 0.221255 0.550236
O O6 0.353317 0.258972 0.789315
O O7 0.000000 0.259295 0.750000
O O8 0.500000 0.028726 0.250000
O O9 0.294876 0.973499 0.310651
O O10 0.112160 0.055961 0.146800
O O11 0.394879 0.407282 0.390356
O O12 0.000000 0.409704 0.250000
O O13 0.959521 0.846136 0.586890
O O14 0.750000 0.750000 0.500000
#
# Coordination Sequence:
#
# PCOD9303477 Si02
#       6
#     8   8   8   8   8   8
#     4  11  22  44  73  97 139 191 245 287 352 430
#     4  12  25  48  74 104 133 189 242 289 354 434
#     4   9  19  43  70 101 140 185 241 292 355 426
#     4  11  25  39  67 108 146 184 234 299 359 422
#     4  11  23  44  71  98 142 189 235 295 355 429
#     4  12  28  46  73 105 145 180 237 302 367 423
#
# _framework density 24.643585000000002
#
# number of rings (size 3 to 8) (size 9 to 14) (size 15 to 20)
#    0.000    1.000    3.333    3.000    4.667    0.000 
#    0.000    2.500    0.000    0.000    0.000    0.000 
#    0.000    0.000    0.000    0.000    0.000    0.000 
#
# Total GULP energy -134479.055831 kJ/mol
# GULP energy per Si atom -5603.293993 kJ/mol
# Density = 2.458749 g / cm^3
# Si number density = 24.643585 Si / 1000 Ang^3
#
#
#
# Elastic Constant Matrix: (Units=GPa)
#
#
# Indices 1 2 3 4 5 6 
#
# 1 65.7388 18.2937 5.5869 0.0000 6.5391 0.0000
# 2 18.2937 71.8603 10.4773 0.0000 8.7243 0.0000
# 3 5.5869 10.4773 146.7298 0.0000 14.7505 0.0000
# 4 0.0000 0.0000 0.0000 47.3688 0.0000 -2.4742
# 5 6.5391 8.7243 14.7505 0.0000 39.9782 0.0000
# 6 0.0000 0.0000 0.0000 -2.4742 0.0000 25.1970
#
#
#
# Elastic Compliance Matrix: (Units=1/GPa)
#
#
# Indices 1 2 3 4 5 6 
#
# 1 0.016505 -0.003962 -0.000167 0.000000 -0.001773 0.000000
# 2 -0.003962 0.015322 -0.000698 0.000000 -0.002438 0.000000
# 3 -0.000167 -0.000698 0.007117 0.000000 -0.002446 0.000000
# 4 0.000000 0.000000 0.000000 0.021220 0.000000 0.002084
# 5 -0.001773 -0.002438 -0.002446 0.000000 0.026738 0.000000
# 6 0.000000 0.000000 0.000000 0.002084 0.000000 0.039892
#
#
# Mechanical properties :
#
#
# Convention : Reuss Voigt Hill
#
# Bulk Modulus (GPa) = 34.14165 39.22717 36.68441
# Shear Modulus (GPa) = 34.19676 39.17353 36.68515
#
# Velocity S-wave (km/s) = 3.72916 3.99131 3.86246
# Velocity P-wave (km/s) = 5.69442 6.09861 5.89998
#
# Compressibility (1/GPa) = 0.02928974
#
# Stress axis : x y z
#
# Youngs Moduli (GPa) = 60.58817 65.26438 140.50085
#
# Poissons Ratio (x) = 0.25858 0.02350
# Poissons Ratio (y) = 0.24005 0.09809
# Poissons Ratio (z) = 0.01013 0.04556
#
# Static dielectric constant tensor:
#      x y z
#    x 2.054430 0.000000 -0.013180 
#    y 0.000000 1.922880 0.000000 
#    z -0.013180 0.000000 1.905370 
# 
# From -- ./inp_files/139050.got.cif
#   From: 2010.05.17/outbox.cif.g08.bks.cpg/sg15_70_cif.got.tgz:139050.got - 2010.06.03 18:47:42.
