data_PCOD9303093
_publ_section_title
;
Structure prediction by ZEFSAII (Michael W. Deem and Ramdas Pophale) SiO2 
 PCOD9303093
Probable space group: C 2/C
;
_chemical_formula_sum "Si O2"
_cell_formula_units_Z 64
_cell_length_a 27.643607
_cell_length_b 11.778301
_cell_length_c 15.131212
_cell_angle_alpha 90.000000
_cell_angle_beta 39.184529
_cell_angle_gamma 90.000000
_cell_volume 3112.751594
_symmetry_space_group_name_H-M "C 2/C"
_symmetry_group_IT_number 15
_symmetry_cell_setting 'monoclinic'
loop_
_space_group_symop_operation_xyz
x,y,z
-x,y,1/2-z
-x,-y,-z
x,-y,1/2+z
1/2+x,1/2+y,z
1/2-x,1/2+y,1/2-z
1/2-x,1/2-y,-z
1/2+x,1/2-y,1/2+z
loop_
_atom_site_type_symbol
_atom_site_label
_atom_site_fract_x
_atom_site_fract_y
_atom_site_fract_z
Si Si1 0.659662 0.253616 0.604719
Si Si2 0.083981 0.281702 0.675699
Si Si3 0.601172 0.997798 0.442116
Si Si4 0.077589 0.483459 0.267972
Si Si5 0.892018 0.903532 0.664019
Si Si6 0.177443 0.742034 0.879908
Si Si7 0.932571 0.844636 0.116226
Si Si8 0.344511 0.231642 0.092775
O O1 0.750000 0.250000 0.500000
O O2 0.617059 0.134792 0.686686
O O3 0.623745 0.348798 0.718498
O O4 0.650284 0.275618 0.514094
O O5 0.101471 0.414008 0.670084
O O6 0.145309 0.229350 0.521788
O O7 0.083848 0.221038 0.770332
O O8 0.000000 0.272035 0.750000
O O9 0.599378 0.010985 0.338546
O O10 0.631087 0.871442 0.418520
O O11 0.515140 0.016942 0.600349
O O12 0.653862 0.094956 0.409126
O O13 0.839618 0.839952 0.667050
O O14 0.978139 0.874498 0.512517
O O15 0.885756 0.038419 0.676387
O O16 0.267541 0.723514 0.747340
O O17 0.913538 0.770095 0.057562
#
# Coordination Sequence:
#
# PCOD9303093 Si02
#       8
#     8   8   8   8   8   8   8   8
#     4  12  25  45  69 102 143 180 220 278 353 411
#     4  12  23  44  72 101 132 176 236 286 341 400
#     4  11  22  43  71 103 139 175 226 290 346 403
#     4  11  22  41  76 103 134 176 230 285 342 408
#     4  11  24  47  69  95 139 186 226 277 341 418
#     4  12  25  44  69  98 141 184 219 289 354 401
#     4  11  26  46  69  99 135 180 237 280 331 414
#     4  12  27  43  67 103 138 176 225 289 343 408
#
# _framework density 20.560587000000002
#
# number of rings (size 3 to 8) (size 9 to 14) (size 15 to 20)
#    0.000    0.500    6.250    1.500    1.750    4.000 
#    2.250    0.000    0.000    0.000    0.000    0.000 
#    0.000    0.000    0.000    0.000    0.000    0.000 
#
# Total GULP energy -179040.152369 kJ/mol
# GULP energy per Si atom -5595.004762 kJ/mol
# Density = 2.051379 g / cm^3
# Si number density = 20.560587 Si / 1000 Ang^3
#
#
#
# Elastic Constant Matrix: (Units=GPa)
#
#
# Indices 1 2 3 4 5 6 
#
# 1 64.1279 7.7743 4.1815 0.0000 22.1244 0.0000
# 2 7.7743 84.8001 3.5920 -0.0001 1.7046 0.0000
# 3 4.1815 3.5920 74.6044 0.0000 19.8896 0.0000
# 4 0.0000 -0.0001 0.0000 18.1867 0.0000 -4.5040
# 5 22.1244 1.7046 19.8896 0.0000 41.3642 0.0000
# 6 0.0000 0.0000 0.0000 -4.5040 0.0000 17.2746
#
#
#
# Elastic Compliance Matrix: (Units=1/GPa)
#
#
# Indices 1 2 3 4 5 6 
#
# 1 0.019588 -0.001652 0.002015 0.000000 -0.011378 0.000000
# 2 -0.001652 0.011958 -0.000674 0.000000 0.000715 0.000000
# 3 0.002015 -0.000674 0.015604 0.000000 -0.008553 0.000000
# 4 0.000000 0.000000 0.000000 0.058781 0.000000 0.015326
# 5 -0.011378 0.000715 -0.008553 0.000000 0.034344 0.000000
# 6 0.000000 0.000000 0.000000 0.015326 0.000000 0.061884
#
#
# Mechanical properties :
#
#
# Convention : Reuss Voigt Hill
#
# Bulk Modulus (GPa) = 21.49254 28.29198 24.89226
# Shear Modulus (GPa) = 22.90519 29.23074 26.06796
#
# Velocity S-wave (km/s) = 3.34134 3.77462 3.56457
# Velocity P-wave (km/s) = 5.03607 5.72601 5.39208
#
# Compressibility (1/GPa) = 0.04652778
#
# Stress axis : x y z
#
# Youngs Moduli (GPa) = 51.05108 83.62534 64.08706
#
# Poissons Ratio (x) = 0.13819 -0.12914
# Poissons Ratio (y) = 0.08436 0.04318
# Poissons Ratio (z) = -0.10287 0.05634
#
# Static dielectric constant tensor:
#      x y z
#    x 1.730610 0.000000 0.000520 
#    y 0.000000 1.723940 0.000000 
#    z 0.000520 0.000000 1.719750 
# 
# From -- ./inp_files/177825.got.cif
#   From: 2010.05.17/outbox.cif.g08.bks.cpg/sg15_89_cif.got.tgz:177825.got - 2010.06.03 18:47:42.
