data_PCOD9303957
_publ_section_title
;
Structure prediction by ZEFSAII (Michael W. Deem and Ramdas Pophale) SiO2 
 PCOD9303957
Probable space group: C 2/C
;
_chemical_formula_sum "Si O2"
_cell_formula_units_Z 40
_cell_length_a 16.069500
_cell_length_b 17.971448
_cell_length_c 10.372198
_cell_angle_alpha 90.000000
_cell_angle_beta 141.177064
_cell_angle_gamma 90.000000
_cell_volume 1877.869485
_symmetry_space_group_name_H-M "C 2/C"
_symmetry_group_IT_number 15
_symmetry_cell_setting 'monoclinic'
loop_
_space_group_symop_operation_xyz
x,y,z
-x,y,1/2-z
-x,-y,-z
x,-y,1/2+z
1/2+x,1/2+y,z
1/2-x,1/2+y,1/2-z
1/2-x,1/2-y,-z
1/2+x,1/2-y,1/2+z
loop_
_atom_site_type_symbol
_atom_site_label
_atom_site_fract_x
_atom_site_fract_y
_atom_site_fract_z
Si Si1 0.476152 0.583245 0.423550
Si Si2 0.197905 0.604153 0.395793
Si Si3 0.904562 0.211352 0.522529
Si Si4 0.403841 0.128989 0.941745
Si Si5 0.786614 0.938622 0.478642
O O1 0.500000 0.500000 0.500000
O O2 0.475677 0.644657 0.532855
O O3 0.597356 0.593919 0.471743
O O4 0.334508 0.584612 0.178556
O O5 0.278105 0.674460 0.437928
O O6 0.175333 0.606893 0.522732
O O7 0.277544 0.528237 0.462722
O O8 0.054922 0.605989 0.153962
O O9 0.883152 0.282197 0.406740
O O10 0.000000 0.240855 0.750000
O O11 0.348013 0.090978 0.746250
#
# Coordination Sequence:
#
# PCOD9303957 Si02
#       5
#     8   8   8   8   8
#     4  11  23  41  66  97 123 176 218 271 317 381
#     4  11  23  41  66  96 131 172 218 268 321 390
#     4  12  23  41  68  95 131 170 224 270 322 385
#     4  11  25  41  65  96 133 172 212 269 333 388
#     4  11  23  42  66  93 133 166 222 267 324 386
#
# _framework density 21.300735
#
# number of rings (size 3 to 8) (size 9 to 14) (size 15 to 20)
#    0.000    0.800    4.000    4.800    2.800    0.800 
#    0.000    0.000    0.000    0.000    0.000    0.000 
#    0.000    0.000    0.000    0.000    0.000    0.000 
#
# Total GULP energy -111816.632604 kJ/mol
# GULP energy per Si atom -5590.831630 kJ/mol
# Density = 2.125225 g / cm^3
# Si number density = 21.300735 Si / 1000 Ang^3
#
#
#
# Elastic Constant Matrix: (Units=GPa)
#
#
# Indices 1 2 3 4 5 6 
#
# 1 38.7208 -4.3095 -2.4927 0.0000 11.2889 0.0000
# 2 -4.3095 79.5504 0.0134 0.0000 -5.4320 0.0000
# 3 -2.4927 0.0134 97.1515 0.0000 -8.6261 0.0000
# 4 0.0000 0.0000 0.0000 23.3883 0.0000 -7.7778
# 5 11.2889 -5.4320 -8.6261 0.0000 27.3962 0.0000
# 6 0.0000 0.0000 0.0000 -7.7778 0.0000 26.0377
#
#
#
# Elastic Compliance Matrix: (Units=1/GPa)
#
#
# Indices 1 2 3 4 5 6 
#
# 1 0.029409 0.000769 -0.000317 0.000000 -0.012065 0.000000
# 2 0.000769 0.012768 0.000221 0.000000 0.002284 0.000000
# 3 -0.000317 0.000221 0.010597 0.000000 0.003511 0.000000
# 4 0.000000 0.000000 0.000000 0.047472 0.000000 0.014181
# 5 -0.012065 0.002284 0.003511 0.000000 0.043032 0.000000
# 6 0.000000 0.000000 0.000000 0.014181 0.000000 0.042642
#
#
# Mechanical properties :
#
#
# Convention : Reuss Voigt Hill
#
# Bulk Modulus (GPa) = 18.47732 22.42723 20.45228
# Shear Modulus (GPa) = 24.67762 30.17854 27.42808
#
# Velocity S-wave (km/s) = 3.40742 3.76810 3.59229
# Velocity P-wave (km/s) = 4.91670 5.42984 5.17963
#
# Compressibility (1/GPa) = 0.05412040
#
# Stress axis : x y z
#
# Youngs Moduli (GPa) = 34.00346 78.31919 94.36833
#
# Poissons Ratio (x) = -0.06025 0.02990
# Poissons Ratio (y) = -0.02616 -0.02084
# Poissons Ratio (z) = 0.01077 -0.01729
#
# Static dielectric constant tensor:
#      x y z
#    x 1.788480 0.000000 0.006710 
#    y 0.000000 1.729110 0.000000 
#    z 0.006710 0.000000 1.822490 
# 
# From -- ./inp_files/106248.got.cif
#   From: 2010.05.17/outbox.cif.g08.bks.cpg/sg15_54_cif.got.tgz:106248.got - 2010.06.03 18:47:42.
