data_PCOD9303088
_publ_section_title
;
Structure prediction by ZEFSAII (Michael W. Deem and Ramdas Pophale) SiO2 
 PCOD9303088
Probable space group: C 2/C
;
_chemical_formula_sum "Si O2"
_cell_formula_units_Z 44
_cell_length_a 18.499175
_cell_length_b 24.135324
_cell_length_c 5.103030
_cell_angle_alpha 90.000000
_cell_angle_beta 74.583642
_cell_angle_gamma 90.000000
_cell_volume 2196.440567
_symmetry_space_group_name_H-M "C 2/C"
_symmetry_group_IT_number 15
_symmetry_cell_setting 'monoclinic'
loop_
_space_group_symop_operation_xyz
x,y,z
-x,y,1/2-z
-x,-y,-z
x,-y,1/2+z
1/2+x,1/2+y,z
1/2-x,1/2+y,1/2-z
1/2-x,1/2-y,-z
1/2+x,1/2-y,1/2+z
loop_
_atom_site_type_symbol
_atom_site_label
_atom_site_fract_x
_atom_site_fract_y
_atom_site_fract_z
Si Si1 0.324509 0.321483 0.496895
Si Si2 0.500000 0.539327 0.250000
Si Si3 0.851246 0.890456 0.969274
Si Si4 0.701853 0.962547 0.026701
Si Si5 0.353777 0.197375 0.334097
Si Si6 0.912946 0.636689 0.777766
O O1 0.342437 0.340007 0.773723
O O2 0.359679 0.262362 0.390316
O O3 0.234461 0.317008 0.557200
O O4 0.351280 0.367305 0.263722
O O5 0.500000 0.500000 0.500000
O O6 0.573666 0.576870 0.167837
O O7 0.779674 0.930006 0.994772
O O8 0.635440 0.918917 0.138979
O O9 0.698043 0.011959 0.240931
O O10 0.398304 0.161626 0.505122
O O11 0.381531 0.180596 0.020358
O O12 0.000000 0.626989 0.750000
#
# Coordination Sequence:
#
# PCOD9303088 Si02
#       6
#     8   4   8   8   8   8
#     4  11  22  41  73  96 130 172 215 273 317 394
#     4  12  26  46  66  96 136 180 218 278 340 378
#     4  12  23  44  67  99 131 168 224 270 328 392
#     4  12  24  41  67  94 123 170 221 268 317 383
#     4  11  22  44  67  99 131 171 218 261 331 386
#     4  12  25  44  65  97 138 172 215 270 323 392
#
# _framework density 20.032412999999998
#
# number of rings (size 3 to 8) (size 9 to 14) (size 15 to 20)
#    0.000    0.364    3.636    6.000    0.000    3.636 
#    9.818    0.000    0.000    0.000    0.000    0.000 
#    0.000    0.000    0.000    0.000    0.000    0.000 
#
# Total GULP energy -123208.235583 kJ/mol
# GULP energy per Si atom -5600.374345 kJ/mol
# Density = 1.998682 g / cm^3
# Si number density = 20.032413 Si / 1000 Ang^3
#
#
#
# Elastic Constant Matrix: (Units=GPa)
#
#
# Indices 1 2 3 4 5 6 
#
# 1 81.1042 28.4227 -6.5460 0.0000 -25.3988 0.0000
# 2 28.4227 55.9632 -15.9659 0.0000 -18.6067 0.0000
# 3 -6.5460 -15.9659 49.7798 0.0000 3.6700 0.0000
# 4 0.0000 0.0000 0.0000 40.3595 0.0000 19.5369
# 5 -25.3988 -18.6067 3.6700 0.0000 36.2747 0.0000
# 6 0.0000 0.0000 0.0000 19.5369 0.0000 5.7009
#
#
#
# Elastic Compliance Matrix: (Units=1/GPa)
#
#
# Indices 1 2 3 4 5 6 
#
# 1 0.017181 -0.005778 -0.000264 0.000000 0.009093 0.000000
# 2 -0.005778 0.025526 0.006811 0.000000 0.008358 0.000000
# 3 -0.000264 0.006811 0.022160 0.000000 0.001067 0.000000
# 4 0.000000 0.000000 0.000000 -0.037605 0.000000 0.128870
# 5 0.009093 0.008358 0.001067 0.000000 0.038113 0.000000
# 6 0.000000 0.000000 0.000000 0.128870 0.000000 -0.266220
#
#
# Mechanical properties :
#
#
# Convention : Reuss Voigt Hill
#
# Bulk Modulus (GPa) = 15.05966 22.07431 18.56698
# Shear Modulus (GPa) = -27.73952 28.52945 0.39496
#
# Velocity S-wave (km/s) = -3.72524 3.77790 0.44451
# Velocity P-wave (km/s) = 3.31198 5.48391 3.09064
#
# Compressibility (1/GPa) = 0.06640258
#
# Stress axis : x y z
#
# Youngs Moduli (GPa) = 58.20418 39.17644 45.12734
#
# Poissons Ratio (x) = 0.22637 0.01193
# Poissons Ratio (y) = 0.33631 -0.30735
# Poissons Ratio (z) = 0.01538 -0.26682
#
# Static dielectric constant tensor:
#      x y z
#    x 1.623950 0.000000 -0.024800 
#    y 0.000000 1.689980 0.000000 
#    z -0.024800 0.000000 1.652530 
# 
# From -- ./inp_files/10298.got.cif
#   From: 2010.05.17/outbox.cif.g08.bks.cpg/sg15_6_cif.got.tgz:10298.got - 2010.06.03 18:47:42.
