data_PCOD9303648
_publ_section_title
;
Structure prediction by ZEFSAII (Michael W. Deem and Ramdas Pophale) SiO2 
 PCOD9303648
Probable space group: C 2/C
;
_chemical_formula_sum "Si O2"
_cell_formula_units_Z 64
_cell_length_a 11.841841
_cell_length_b 15.517023
_cell_length_c 15.203060
_cell_angle_alpha 90.000000
_cell_angle_beta 85.572502
_cell_angle_gamma 90.000000
_cell_volume 2785.227582
_symmetry_space_group_name_H-M "C 2/C"
_symmetry_group_IT_number 15
_symmetry_cell_setting 'monoclinic'
loop_
_space_group_symop_operation_xyz
x,y,z
-x,y,1/2-z
-x,-y,-z
x,-y,1/2+z
1/2+x,1/2+y,z
1/2-x,1/2+y,1/2-z
1/2-x,1/2-y,-z
1/2+x,1/2-y,1/2+z
loop_
_atom_site_type_symbol
_atom_site_label
_atom_site_fract_x
_atom_site_fract_y
_atom_site_fract_z
Si Si1 0.677366 0.572078 0.680195
Si Si2 0.105662 0.427273 0.598757
Si Si3 0.668716 0.517902 0.876587
Si Si4 0.069821 0.718024 0.655367
Si Si5 0.075147 0.437759 0.396110
Si Si6 0.462043 0.739404 0.852743
Si Si7 0.696899 0.303780 0.424615
Si Si8 0.037204 0.912323 0.644273
O O1 0.640889 0.563395 0.784623
O O2 0.811915 0.580868 0.664883
O O3 0.613982 0.653129 0.640327
O O4 0.637658 0.482052 0.638802
O O5 0.214327 0.467450 0.639061
O O6 0.113606 0.447746 0.494492
O O7 0.100893 0.325732 0.613734
O O8 0.991508 0.477785 0.633203
O O9 0.682020 0.595127 0.944033
O O10 0.567504 0.453029 0.901732
O O11 0.204009 0.702173 0.655476
O O12 0.000000 0.715139 0.750000
O O13 0.013707 0.641397 0.602669
O O14 0.057782 0.813989 0.617097
O O15 0.500000 0.751095 0.750000
O O16 0.576706 0.730951 0.901520
O O17 0.750000 0.250000 0.500000
O O18 0.000000 0.907090 0.750000
#
# Coordination Sequence:
#
# PCOD9303648 Si02
#       8
#     8   8   8   8   8   8   8   8
#     4  11  23  45  74 102 136 178 236 299 346 410
#     4  11  28  45  65 101 144 185 228 282 357 429
#     4  11  22  47  69  99 139 182 233 296 342 418
#     4  11  24  43  73 103 136 186 236 287 350 422
#     4  11  26  46  65  98 146 182 226 287 353 422
#     4  12  26  44  73 108 137 183 239 291 348 416
#     4  12  25  45  73  99 144 188 231 289 358 421
#     4   9  21  41  68 101 132 166 224 289 346 405
#
# _framework density 22.978373999999999
#
# number of rings (size 3 to 8) (size 9 to 14) (size 15 to 20)
#    0.000    1.000    3.750    1.875    7.000    1.500 
#    2.250    1.250    0.000    0.000    0.000    0.000 
#    0.000    0.000    0.000    0.000    0.000    0.000 
#
# Total GULP energy -179127.724032 kJ/mol
# GULP energy per Si atom -5597.741376 kJ/mol
# Density = 2.292607 g / cm^3
# Si number density = 22.978374 Si / 1000 Ang^3
#
#
#
# Elastic Constant Matrix: (Units=GPa)
#
#
# Indices 1 2 3 4 5 6 
#
# 1 90.2187 47.0105 3.4458 0.0000 19.3716 0.0000
# 2 47.0105 139.6649 16.2783 0.0000 22.1723 0.0000
# 3 3.4458 16.2783 50.4924 0.0000 7.7610 0.0000
# 4 0.0000 0.0000 0.0000 32.8063 0.0000 1.7137
# 5 19.3716 22.1723 7.7610 0.0000 27.6943 0.0000
# 6 0.0000 0.0000 0.0000 1.7137 0.0000 40.6877
#
#
#
# Elastic Compliance Matrix: (Units=1/GPa)
#
#
# Indices 1 2 3 4 5 6 
#
# 1 0.014687 -0.003912 0.001418 0.000000 -0.007539 0.000000
# 2 -0.003912 0.009388 -0.002116 0.000000 -0.004187 0.000000
# 3 0.001418 -0.002116 0.021195 0.000000 -0.005237 0.000000
# 4 0.000000 0.000000 0.000000 0.030549 0.000000 -0.001287
# 5 -0.007539 -0.004187 -0.005237 0.000000 0.046201 0.000000
# 6 0.000000 0.000000 0.000000 -0.001287 0.000000 0.024632
#
#
# Mechanical properties :
#
#
# Convention : Reuss Voigt Hill
#
# Bulk Modulus (GPa) = 27.73956 45.98280 36.86118
# Shear Modulus (GPa) = 29.78132 34.48041 32.13087
#
# Velocity S-wave (km/s) = 3.60399 3.87791 3.74345
# Velocity P-wave (km/s) = 5.42370 6.33290 5.89585
#
# Compressibility (1/GPa) = 0.03604959
#
# Stress axis : x y z
#
# Youngs Moduli (GPa) = 68.08652 106.51805 47.17996
#
# Poissons Ratio (x) = 0.41671 -0.06689
# Poissons Ratio (y) = 0.26636 0.09984
# Poissons Ratio (z) = -0.09652 0.22541
#
# Static dielectric constant tensor:
#      x y z
#    x 1.834410 0.000000 -0.028320 
#    y 0.000000 1.850450 0.000000 
#    z -0.028320 0.000000 1.905290 
# 
# From -- ./inp_files/198357.got.cif
#   From: 2010.05.17/outbox.cif.g08.bks.cpg/sg15_100_cif.got.tgz:198357.got - 2010.06.03 18:47:42.
