data_PCOD9303074
_publ_section_title
;
Structure prediction by ZEFSAII (Michael W. Deem and Ramdas Pophale) SiO2 
 PCOD9303074
Probable space group: C 2/C
;
_chemical_formula_sum "Si O2"
_cell_formula_units_Z 48
_cell_length_a 10.546082
_cell_length_b 15.883119
_cell_length_c 14.220877
_cell_angle_alpha 90.000000
_cell_angle_beta 67.494306
_cell_angle_gamma 90.000000
_cell_volume 2200.649005
_symmetry_space_group_name_H-M "C 2/C"
_symmetry_group_IT_number 15
_symmetry_cell_setting 'monoclinic'
loop_
_space_group_symop_operation_xyz
x,y,z
-x,y,1/2-z
-x,-y,-z
x,-y,1/2+z
1/2+x,1/2+y,z
1/2-x,1/2+y,1/2-z
1/2-x,1/2-y,-z
1/2+x,1/2-y,1/2+z
loop_
_atom_site_type_symbol
_atom_site_label
_atom_site_fract_x
_atom_site_fract_y
_atom_site_fract_z
Si Si1 0.336179 0.431766 0.276496
Si Si2 0.674804 0.505000 0.932576
Si Si3 0.381741 0.213412 0.712806
Si Si4 0.145297 0.459530 0.966700
Si Si5 0.321484 0.228490 0.079759
Si Si6 0.471234 0.349896 0.532238
O O1 0.500000 0.413859 0.250000
O O2 0.335673 0.476587 0.174455
O O3 0.225528 0.354435 0.300107
O O4 0.264662 0.493944 0.372884
O O5 0.660179 0.405096 0.957788
O O6 0.815720 0.536789 0.934915
O O7 0.569525 0.567831 0.018923
O O8 0.500000 0.177988 0.750000
O O9 0.290549 0.267886 0.808945
O O10 0.441842 0.280434 0.620235
O O11 0.125964 0.364554 0.941505
O O12 0.000000 0.500000 0.000000
O O13 0.250000 0.250000 0.000000
O O14 0.441038 0.295848 0.066167
#
# Coordination Sequence:
#
# PCOD9303074 Si02
#       6
#     8   8   8   8   8   8
#     4  12  27  46  72 108 152 197 250 299 385 450
#     4  11  24  47  72 103 150 193 240 313 371 435
#     4  12  24  42  73 105 140 192 250 310 365 440
#     4  12  27  45  73 113 146 192 250 309 372 449
#     4  12  22  42  70 102 138 182 245 294 364 440
#     4  11  22  41  72 100 135 189 241 292 371 438
#
# _framework density 21.811747
#
# number of rings (size 3 to 8) (size 9 to 14) (size 15 to 20)
#    0.000    0.333    5.000    4.000    2.333    1.333 
#    3.000    2.500    0.000    0.000    0.000    0.000 
#    0.000    0.000    0.000    0.000    0.000    0.000 
#
# Total GULP energy -133798.615939 kJ/mol
# GULP energy per Si atom -5574.942331 kJ/mol
# Density = 2.176210 g / cm^3
# Si number density = 21.811747 Si / 1000 Ang^3
#
#
#
# Elastic Constant Matrix: (Units=GPa)
#
#
# Indices 1 2 3 4 5 6 
#
# 1 77.7143 48.3959 32.6122 0.0000 -12.5613 0.0000
# 2 48.3959 145.3975 20.8057 0.0000 -17.0565 0.0000
# 3 32.6122 20.8057 94.6381 0.0000 -11.1217 0.0000
# 4 0.0000 0.0000 0.0000 40.1364 0.0000 -12.9170
# 5 -12.5613 -17.0565 -11.1217 0.0000 26.9113 0.0000
# 6 0.0000 0.0000 0.0000 -12.9170 0.0000 32.4583
#
#
#
# Elastic Compliance Matrix: (Units=1/GPa)
#
#
# Indices 1 2 3 4 5 6 
#
# 1 0.018662 -0.005106 -0.004903 0.000000 0.003449 0.000000
# 2 -0.005106 0.008945 0.000188 0.000000 0.003364 0.000000
# 3 -0.004903 0.000188 0.012570 0.000000 0.003026 0.000000
# 4 0.000000 0.000000 0.000000 0.028575 0.000000 0.011371
# 5 0.003449 0.003364 0.003026 0.000000 0.042151 0.000000
# 6 0.000000 0.000000 0.000000 0.011371 0.000000 0.035334
#
#
# Mechanical properties :
#
#
# Convention : Reuss Voigt Hill
#
# Bulk Modulus (GPa) = 48.69461 57.93083 53.31272
# Shear Modulus (GPa) = 28.94794 34.29694 31.62244
#
# Velocity S-wave (km/s) = 3.64699 3.96966 3.81174
# Velocity P-wave (km/s) = 6.33304 6.90131 6.62327
#
# Compressibility (1/GPa) = 0.02053615
#
# Stress axis : x y z
#
# Youngs Moduli (GPa) = 53.58453 111.79715 79.55190
#
# Poissons Ratio (x) = 0.57079 0.39006
# Poissons Ratio (y) = 0.27358 -0.01497
# Poissons Ratio (z) = 0.26274 -0.02104
#
# Static dielectric constant tensor:
#      x y z
#    x 1.906110 0.000000 -0.047810 
#    y 0.000000 1.753000 0.000000 
#    z -0.047810 0.000000 1.905980 
# 
# From -- ./inp_files/144077.got.cif
#   From: 2010.05.17/outbox.cif.g08.bks.cpg/sg15_73_cif.got.tgz:144077.got - 2010.06.03 18:47:42.
