data_PCOD9303346
_publ_section_title
;
Structure prediction by ZEFSAII (Michael W. Deem and Ramdas Pophale) SiO2 
 PCOD9303346
Probable space group: C 2/C
;
_chemical_formula_sum "Si O2"
_cell_formula_units_Z 36
_cell_length_a 16.053940
_cell_length_b 8.993176
_cell_length_c 11.979248
_cell_angle_alpha 90.000000
_cell_angle_beta 114.197046
_cell_angle_gamma 90.000000
_cell_volume 1577.561796
_symmetry_space_group_name_H-M "C 2/C"
_symmetry_group_IT_number 15
_symmetry_cell_setting 'monoclinic'
loop_
_space_group_symop_operation_xyz
x,y,z
-x,y,1/2-z
-x,-y,-z
x,-y,1/2+z
1/2+x,1/2+y,z
1/2-x,1/2+y,1/2-z
1/2-x,1/2-y,-z
1/2+x,1/2-y,1/2+z
loop_
_atom_site_type_symbol
_atom_site_label
_atom_site_fract_x
_atom_site_fract_y
_atom_site_fract_z
Si Si1 0.370720 0.373638 0.863211
Si Si2 0.000000 0.769078 0.750000
Si Si3 0.254977 0.923427 0.324301
Si Si4 0.412233 0.698436 0.626194
Si Si5 0.916193 0.471854 0.040180
O O1 0.437215 0.367401 0.794774
O O2 0.316952 0.217002 0.828729
O O3 0.298417 0.504612 0.807807
O O4 0.421477 0.373244 0.008906
O O5 0.058106 0.661963 0.864020
O O6 0.179033 0.865594 0.368834
O O7 0.323424 0.043031 0.417952
O O8 0.500000 0.676267 0.750000
O O9 0.403162 0.876118 0.602657
O O10 0.000000 0.500000 0.000000
#
# Coordination Sequence:
#
# PCOD9303346 Si02
#       5
#     8   4   8   8   8
#     4  11  27  47  71 108 140 183 239 290 353 417
#     4  12  24  42  74 108 144 178 242 288 354 414
#     4  11  27  45  72 103 145 186 232 291 350 421
#     4  11  25  45  75  99 143 189 235 288 349 416
#     4  11  22  43  72 104 137 192 234 280 340 431
#
# _framework density 22.820022999999999
#
# number of rings (size 3 to 8) (size 9 to 14) (size 15 to 20)
#    0.000    0.889    5.556    2.667   10.889    1.778 
#    0.000    0.000    0.000    0.000    0.000    0.000 
#    0.000    0.000    0.000    0.000    0.000    0.000 
#
# Total GULP energy -100832.645936 kJ/mol
# GULP energy per Si atom -5601.813663 kJ/mol
# Density = 2.276808 g / cm^3
# Si number density = 22.820023 Si / 1000 Ang^3
#
#
#
# Elastic Constant Matrix: (Units=GPa)
#
#
# Indices 1 2 3 4 5 6 
#
# 1 84.6172 -10.1480 37.0469 0.0000 17.5575 0.0000
# 2 -10.1480 50.1120 18.2976 0.0000 11.4251 0.0000
# 3 37.0469 18.2976 138.0942 0.0000 19.4782 0.0000
# 4 0.0000 0.0000 0.0000 8.4618 0.0000 11.4901
# 5 17.5575 11.4251 19.4782 0.0000 26.0033 0.0000
# 6 0.0000 0.0000 0.0000 11.4901 0.0000 29.9457
#
#
#
# Elastic Compliance Matrix: (Units=1/GPa)
#
#
# Indices 1 2 3 4 5 6 
#
# 1 0.016852 0.007507 -0.003852 0.000000 -0.011791 0.000000
# 2 0.007507 0.025906 -0.003495 0.000000 -0.013833 0.000000
# 3 -0.003852 -0.003495 0.009118 0.000000 -0.002693 0.000000
# 4 0.000000 0.000000 0.000000 0.246727 0.000000 -0.094669
# 5 -0.011791 -0.013833 -0.002693 0.000000 0.054513 0.000000
# 6 0.000000 0.000000 0.000000 -0.094669 0.000000 0.069718
#
#
# Mechanical properties :
#
#
# Convention : Reuss Voigt Hill
#
# Bulk Modulus (GPa) = 19.15915 40.35738 29.75826
# Shear Modulus (GPa) = 11.36591 28.05728 19.71160
#
# Velocity S-wave (km/s) = 2.23416 3.51023 2.94221
# Velocity P-wave (km/s) = 3.88192 5.84401 4.96093
#
# Compressibility (1/GPa) = 0.05219437
#
# Stress axis : x y z
#
# Youngs Moduli (GPa) = 59.34186 38.60152 109.67409
#
# Poissons Ratio (x) = -0.28980 0.42251
# Poissons Ratio (y) = -0.44551 0.38336
# Poissons Ratio (z) = 0.22861 0.13493
#
# Static dielectric constant tensor:
#      x y z
#    x 1.828020 0.000000 0.005750 
#    y 0.000000 1.835780 0.000000 
#    z 0.005750 0.000000 1.842530 
# 
# From -- ./inp_files/94452.got.cif
#   From: 2010.05.17/outbox.cif.g08.bks.cpg/sg15_48_cif.got.tgz:94452.got - 2010.06.03 18:47:42.
