data_PCOD9303256
_publ_section_title
;
Structure prediction by ZEFSAII (Michael W. Deem and Ramdas Pophale) SiO2 
 PCOD9303256
Probable space group: C 2/C
;
_chemical_formula_sum "Si O2"
_cell_formula_units_Z 40
_cell_length_a 15.418721
_cell_length_b 14.080568
_cell_length_c 15.055191
_cell_angle_alpha 90.000000
_cell_angle_beta 28.947192
_cell_angle_gamma 90.000000
_cell_volume 1581.987754
_symmetry_space_group_name_H-M "C 2/C"
_symmetry_group_IT_number 15
_symmetry_cell_setting 'monoclinic'
loop_
_space_group_symop_operation_xyz
x,y,z
-x,y,1/2-z
-x,-y,-z
x,-y,1/2+z
1/2+x,1/2+y,z
1/2-x,1/2+y,1/2-z
1/2-x,1/2-y,-z
1/2+x,1/2-y,1/2+z
loop_
_atom_site_type_symbol
_atom_site_label
_atom_site_fract_x
_atom_site_fract_y
_atom_site_fract_z
Si Si1 0.500000 0.332598 0.250000
Si Si2 0.881798 0.218449 0.671376
Si Si3 0.500000 0.637284 0.250000
Si Si4 0.147200 0.856065 0.794010
Si Si5 0.715553 0.988583 0.576067
Si Si6 0.195350 0.535285 0.802426
O O1 0.566404 0.269772 0.273294
O O2 0.335426 0.398765 0.434153
O O3 0.830709 0.308055 0.658539
O O4 0.720259 0.143172 0.809093
O O5 0.031676 0.161641 0.484382
O O6 0.440812 0.690014 0.213641
O O7 0.323723 0.576129 0.434008
O O8 0.170375 0.968362 0.761529
O O9 0.500000 0.982052 0.750000
O O10 0.730016 0.012000 0.668181
O O11 0.000000 0.500000 0.000000
#
# Coordination Sequence:
#
# PCOD9303256 Si02
#       6
#     4   8   4   8   8   8
#     4  11  24  46  74 105 150 192 242 309 374 433
#     4  12  26  47  72 106 147 192 247 307 368 439
#     4  11  24  46  74 105 150 192 242 309 374 433
#     4  12  26  47  72 106 147 192 247 307 368 439
#     4  11  22  42  77 112 141 191 247 305 376 444
#     4  12  23  46  74 105 147 189 244 308 366 436
#
# _framework density 25.284645999999999
#
# number of rings (size 3 to 8) (size 9 to 14) (size 15 to 20)
#    0.000    0.400    4.000    6.600    0.000    1.600 
#    3.600    0.000    0.000    0.000    0.000    0.000 
#    0.000    0.000    0.000    0.000    0.000    0.000 
#
# Total GULP energy -111939.871843 kJ/mol
# GULP energy per Si atom -5596.993592 kJ/mol
# Density = 2.522710 g / cm^3
# Si number density = 25.284646 Si / 1000 Ang^3
#
#
#
# Elastic Constant Matrix: (Units=GPa)
#
#
# Indices 1 2 3 4 5 6 
#
# 1 217.6197 24.3747 34.0797 -0.0023 27.9546 0.0009
# 2 24.3747 62.2945 4.6296 -0.0031 -11.5697 0.0011
# 3 34.0797 4.6296 140.1405 -0.0051 -9.3459 0.0024
# 4 -0.0023 -0.0031 -0.0051 8.3715 0.0024 -18.5697
# 5 27.9546 -11.5697 -9.3459 0.0024 53.9350 -0.0009
# 6 0.0009 0.0011 0.0024 -18.5697 -0.0009 25.1396
#
#
#
# Elastic Compliance Matrix: (Units=1/GPa)
#
#
# Indices 1 2 3 4 5 6 
#
# 1 0.005634 -0.002794 -0.001530 -0.000001 -0.003784 -0.000001
# 2 -0.002794 0.018118 0.000442 -0.000005 0.005411 -0.000004
# 3 -0.001530 0.000442 0.007641 -0.000004 0.002212 -0.000003
# 4 -0.000001 -0.000005 -0.000004 -0.187079 0.000005 -0.138189
# 5 -0.003784 0.005411 0.002212 0.000005 0.022046 0.000004
# 6 -0.000001 -0.000004 -0.000003 -0.138189 0.000004 -0.062297
#
#
# Mechanical properties :
#
#
# Convention : Reuss Voigt Hill
#
# Bulk Modulus (GPa) = 42.32186 60.69143 51.50664
# Shear Modulus (GPa) = -27.73202 41.28726 6.77762
#
# Velocity S-wave (km/s) = -3.31538 4.04530 1.63901
# Velocity P-wave (km/s) = 1.45563 6.77308 4.89865
#
# Compressibility (1/GPa) = 0.02362845
#
# Stress axis : x y z
#
# Youngs Moduli (GPa) = 177.49934 55.19376 130.87781
#
# Poissons Ratio (x) = 0.15419 0.20026
# Poissons Ratio (y) = 0.49586 -0.05780
# Poissons Ratio (z) = 0.27160 -0.02438
#
# Static dielectric constant tensor:
#      x y z
#    x 2.817090 -0.000010 -0.439670 
#    y -0.000010 2.120580 0.000010 
#    z -0.439670 0.000010 2.220950 
# 
# From -- ./inp_files/133318.got.cif
#   From: 2010.05.17/outbox.cif.g08.bks.cpg/sg15_67_cif.got.tgz:133318.got - 2010.06.03 18:47:42.
