data_PCOD9303688
_publ_section_title
;
Structure prediction by ZEFSAII (Michael W. Deem and Ramdas Pophale) SiO2 
 PCOD9303688
Probable space group: C 2/C
;
_chemical_formula_sum "Si O2"
_cell_formula_units_Z 40
_cell_length_a 18.854803
_cell_length_b 18.079745
_cell_length_c 12.528020
_cell_angle_alpha 90.000000
_cell_angle_beta 150.743921
_cell_angle_gamma 90.000000
_cell_volume 2087.138882
_symmetry_space_group_name_H-M "C 2/C"
_symmetry_group_IT_number 15
_symmetry_cell_setting 'monoclinic'
loop_
_space_group_symop_operation_xyz
x,y,z
-x,y,1/2-z
-x,-y,-z
x,-y,1/2+z
1/2+x,1/2+y,z
1/2-x,1/2+y,1/2-z
1/2-x,1/2-y,-z
1/2+x,1/2-y,1/2+z
loop_
_atom_site_type_symbol
_atom_site_label
_atom_site_fract_x
_atom_site_fract_y
_atom_site_fract_z
Si Si1 0.645223 0.817623 0.886202
Si Si2 0.624640 0.937176 0.681236
Si Si3 0.817552 0.917942 0.739906
Si Si4 0.647322 0.405408 0.184393
Si Si5 0.671719 0.435996 0.981631
O O1 0.500000 0.789056 0.750000
O O2 0.595172 0.869734 0.722052
O O3 0.750000 0.750000 0.000000
O O4 0.739553 0.867180 0.090418
O O5 0.689966 0.904565 0.656954
O O6 0.500000 0.000000 0.500000
O O7 0.751490 0.985611 0.902030
O O8 0.780805 0.900886 0.568277
O O9 0.840380 0.006765 0.777763
O O10 0.977069 0.884827 0.975876
O O11 0.692408 0.392767 0.119858
O O12 0.500000 0.448440 0.750000
#
# Coordination Sequence:
#
# PCOD9303688 Si02
#       5
#     8   8   8   8   8
#     4  12  27  42  61  90 131 173 209 258 323 396
#     4  11  23  35  59  89 129 160 211 268 317 365
#     4   9  17  32  61  90 118 156 199 259 316 374
#     4   9  18  34  58  91 123 152 207 255 309 370
#     4   9  17  32  58  91 117 154 199 262 315 369
#
# _framework density 19.164991000000001
#
# number of rings (size 3 to 8) (size 9 to 14) (size 15 to 20)
#    0.000    2.000    2.000    3.600    2.800    0.000 
#    0.000    0.000    0.000    1.200   10.400    0.000 
#    0.000    0.000    0.000    0.000    0.000    0.000 
#
# Total GULP energy -111458.841272 kJ/mol
# GULP energy per Si atom -5572.942064 kJ/mol
# Density = 1.912137 g / cm^3
# Si number density = 19.164991 Si / 1000 Ang^3
#
#
#
# Elastic Constant Matrix: (Units=GPa)
#
#
# Indices 1 2 3 4 5 6 
#
# 1 161.3457 27.9956 62.2585 0.0000 2.3211 0.0000
# 2 27.9956 41.0932 31.5025 0.0000 9.1999 0.0000
# 3 62.2585 31.5025 70.4031 0.0000 -8.9630 0.0000
# 4 0.0000 0.0000 0.0000 17.1330 0.0000 8.5205
# 5 2.3211 9.1999 -8.9630 0.0000 28.6426 0.0000
# 6 0.0000 0.0000 0.0000 8.5205 0.0000 14.0399
#
#
#
# Elastic Compliance Matrix: (Units=1/GPa)
#
#
# Indices 1 2 3 4 5 6 
#
# 1 0.009866 0.002286 -0.010355 0.000000 -0.004774 0.000000
# 2 0.002286 0.048953 -0.027028 0.000000 -0.024366 0.000000
# 3 -0.010355 -0.027028 0.038188 0.000000 0.021470 0.000000
# 4 0.000000 0.000000 0.000000 0.083597 0.000000 -0.050733
# 5 -0.004774 -0.024366 0.021470 0.000000 0.049845 0.000000
# 6 0.000000 0.000000 0.000000 -0.050733 0.000000 0.102015
#
#
# Mechanical properties :
#
#
# Convention : Reuss Voigt Hill
#
# Bulk Modulus (GPa) = 37.29578 57.37279 47.33429
# Shear Modulus (GPa) = 12.14787 22.03546 17.09167
#
# Velocity S-wave (km/s) = 2.52038 3.39451 2.98957
# Velocity P-wave (km/s) = 5.28889 6.73534 6.05546
#
# Compressibility (1/GPa) = 0.02681268
#
# Stress axis : x y z
#
# Youngs Moduli (GPa) = 101.36290 20.42789 26.18616
#
# Poissons Ratio (x) = -0.04669 0.27115
# Poissons Ratio (y) = -0.23170 0.70775
# Poissons Ratio (z) = 1.04960 0.55212
#
# Static dielectric constant tensor:
#      x y z
#    x 1.778810 0.000000 -0.033210 
#    y 0.000000 1.638620 0.000000 
#    z -0.033210 0.000000 1.694850 
# 
# From -- ./inp_files/106825.got.cif
#   From: 2010.05.17/outbox.cif.g08.bks.cpg/sg15_54_cif.got.tgz:106825.got - 2010.06.03 18:47:42.
