data_PCOD9303526
_publ_section_title
;
Structure prediction by ZEFSAII (Michael W. Deem and Ramdas Pophale) SiO2 
 PCOD9303526
Probable space group: C 2/C
;
_chemical_formula_sum "Si O2"
_cell_formula_units_Z 36
_cell_length_a 12.865053
_cell_length_b 11.781979
_cell_length_c 10.811340
_cell_angle_alpha 90.000000
_cell_angle_beta 71.123205
_cell_angle_gamma 90.000000
_cell_volume 1550.600259
_symmetry_space_group_name_H-M "C 2/C"
_symmetry_group_IT_number 15
_symmetry_cell_setting 'monoclinic'
loop_
_space_group_symop_operation_xyz
x,y,z
-x,y,1/2-z
-x,-y,-z
x,-y,1/2+z
1/2+x,1/2+y,z
1/2-x,1/2+y,1/2-z
1/2-x,1/2-y,-z
1/2+x,1/2-y,1/2+z
loop_
_atom_site_type_symbol
_atom_site_label
_atom_site_fract_x
_atom_site_fract_y
_atom_site_fract_z
Si Si1 0.184716 0.619883 0.742829
Si Si2 0.929036 0.741878 0.484007
Si Si3 0.373331 0.444490 0.337359
Si Si4 0.898254 0.807997 0.889320
Si Si5 0.000000 0.436585 0.750000
O O1 0.300903 0.574835 0.743747
O O2 0.178470 0.707066 0.631215
O O3 0.099783 0.518330 0.750671
O O4 0.141450 0.688743 0.878910
O O5 0.866047 0.844268 0.440574
O O6 0.959712 0.644837 0.374862
O O7 0.041567 0.784279 0.504989
O O8 0.500000 0.443375 0.250000
O O9 0.346206 0.567650 0.402806
O O10 0.000000 0.808430 0.750000
#
# Coordination Sequence:
#
# PCOD9303526 Si02
#       5
#     8   8   8   8   4
#     4  11  24  44  69  96 133 176 211 273 331 380
#     4  11  22  45  68  98 130 170 224 269 324 385
#     4  11  24  43  68  99 135 169 220 268 322 396
#     4   9  21  43  67  95 135 169 212 265 332 384
#     4  12  24  44  68  98 130 168 230 268 320 390
#
# _framework density 23.216816000000001
#
# number of rings (size 3 to 8) (size 9 to 14) (size 15 to 20)
#    0.000    1.333    4.444    2.000    3.111    0.000 
#    8.000    2.222    0.000    0.000    0.000    0.000 
#    0.000    0.000    0.000    0.000    0.000    0.000 
#
# Total GULP energy -100837.908085 kJ/mol
# GULP energy per Si atom -5602.106005 kJ/mol
# Density = 2.316397 g / cm^3
# Si number density = 23.216816 Si / 1000 Ang^3
#
#
#
# Elastic Constant Matrix: (Units=GPa)
#
#
# Indices 1 2 3 4 5 6 
#
# 1 138.3213 56.3044 31.6650 0.0000 52.8042 0.0000
# 2 56.3044 153.7248 26.3558 0.0000 27.4966 0.0000
# 3 31.6650 26.3558 55.8705 0.0000 15.7974 0.0000
# 4 0.0000 0.0000 0.0000 -14.3423 0.0000 -59.5976
# 5 52.8042 27.4966 15.7974 0.0000 53.0778 0.0000
# 6 0.0000 0.0000 0.0000 -59.5976 0.0000 -82.9071
#
#
#
# Elastic Compliance Matrix: (Units=1/GPa)
#
#
# Indices 1 2 3 4 5 6 
#
# 1 0.013031 -0.002281 -0.003252 0.000000 -0.010814 0.000000
# 2 -0.002281 0.007917 -0.002101 0.000000 -0.001207 0.000000
# 3 -0.003252 -0.002101 0.021303 0.000000 -0.002017 0.000000
# 4 0.000000 0.000000 0.000000 0.035088 0.000000 -0.025223
# 5 -0.010814 -0.001207 -0.002017 0.000000 0.030824 0.000000
# 6 0.000000 0.000000 0.000000 -0.025223 0.000000 0.006070
#
#
# Mechanical properties :
#
#
# Convention : Reuss Voigt Hill
#
# Bulk Modulus (GPa) = 37.05916 64.06299 50.56107
# Shear Modulus (GPa) = 36.10287 6.73845 21.42066
#
# Velocity S-wave (km/s) = 3.94767 1.70549 3.04079
# Velocity P-wave (km/s) = 6.06429 5.61529 5.84411
#
# Compressibility (1/GPa) = 0.02698388
#
# Stress axis : x y z
#
# Youngs Moduli (GPa) = 76.74209 126.31779 46.94250
#
# Poissons Ratio (x) = 0.28812 0.15264
# Poissons Ratio (y) = 0.17504 0.09860
# Poissons Ratio (z) = 0.24953 0.26533
#
# Static dielectric constant tensor:
#      x y z
#    x 1.913910 0.000000 -0.048800 
#    y 0.000000 1.862230 0.000000 
#    z -0.048800 0.000000 1.860710 
# 
# From -- ./inp_files/84341.got.cif
#   From: 2010.05.17/outbox.cif.g08.bks.cpg/sg15_43_cif.got.tgz:84341.got - 2010.06.03 18:47:42.
