data_PCOD9303959
_publ_section_title
;
Structure prediction by ZEFSAII (Michael W. Deem and Ramdas Pophale) SiO2 
 PCOD9303959
Probable space group: C 2/C
;
_chemical_formula_sum "Si O2"
_cell_formula_units_Z 48
_cell_length_a 18.367084
_cell_length_b 17.122642
_cell_length_c 14.322215
_cell_angle_alpha 90.000000
_cell_angle_beta 32.699865
_cell_angle_gamma 90.000000
_cell_volume 2433.361195
_symmetry_space_group_name_H-M "C 2/C"
_symmetry_group_IT_number 15
_symmetry_cell_setting 'monoclinic'
loop_
_space_group_symop_operation_xyz
x,y,z
-x,y,1/2-z
-x,-y,-z
x,-y,1/2+z
1/2+x,1/2+y,z
1/2-x,1/2+y,1/2-z
1/2-x,1/2-y,-z
1/2+x,1/2-y,1/2+z
loop_
_atom_site_type_symbol
_atom_site_label
_atom_site_fract_x
_atom_site_fract_y
_atom_site_fract_z
Si Si1 0.234741 0.765014 0.862556
Si Si2 0.633889 0.194572 0.665774
Si Si3 0.011621 0.050001 0.082162
Si Si4 0.159710 0.363973 0.577836
Si Si5 0.722948 0.531075 0.014039
Si Si6 0.499607 0.276351 0.521304
O O1 0.272890 0.820499 0.907193
O O2 0.360507 0.764290 0.656657
O O3 0.094605 0.789999 0.967185
O O4 0.218347 0.677917 0.922555
O O5 0.500000 0.205404 0.750000
O O6 0.750000 0.250000 0.500000
O O7 0.685407 0.106462 0.602341
O O8 0.590938 0.222044 0.814687
O O9 0.878284 0.045396 0.290187
O O10 0.030276 0.141088 0.036743
O O11 0.131994 0.020758 0.019248
O O12 0.000000 0.000000 0.000000
O O13 0.193177 0.454449 0.551724
O O14 0.000000 0.350284 0.750000
#
# Coordination Sequence:
#
# PCOD9303959 Si02
#       6
#     8   8   8   8   8   8
#     4  11  24  42  69 100 128 182 216 281 331 395
#     4  12  24  43  66  95 132 177 216 273 336 398
#     4  11  23  41  66  98 133 178 225 276 332 401
#     4  11  23  45  66  94 140 171 226 275 340 395
#     4  11  24  42  66  99 135 176 221 277 341 399
#     4  12  23  41  69  97 136 169 233 267 331 410
#
# _framework density 19.725802000000002
#
# number of rings (size 3 to 8) (size 9 to 14) (size 15 to 20)
#    0.000    0.667    3.333    5.500    0.000    1.333 
#    0.000    0.833    0.000    0.000    0.000    0.000 
#    0.000    0.000    0.000    0.000    0.000    0.000 
#
# Total GULP energy -134250.452077 kJ/mol
# GULP energy per Si atom -5593.768837 kJ/mol
# Density = 1.968090 g / cm^3
# Si number density = 19.725802 Si / 1000 Ang^3
#
#
#
# Elastic Constant Matrix: (Units=GPa)
#
#
# Indices 1 2 3 4 5 6 
#
# 1 74.8775 -9.3477 4.8186 0.0000 -5.4787 0.0000
# 2 -9.3477 85.2719 11.0267 0.0000 9.3803 0.0000
# 3 4.8186 11.0267 80.3889 -0.0001 2.7058 0.0001
# 4 0.0000 0.0000 -0.0001 28.0170 0.0001 -1.3684
# 5 -5.4787 9.3803 2.7058 0.0001 38.2827 -0.0001
# 6 0.0000 0.0000 0.0001 -1.3684 -0.0001 33.6480
#
#
#
# Elastic Compliance Matrix: (Units=1/GPa)
#
#
# Indices 1 2 3 4 5 6 
#
# 1 0.013730 0.001460 -0.001080 0.000000 0.001684 0.000000
# 2 0.001460 0.012405 -0.001698 0.000000 -0.002711 0.000000
# 3 -0.001080 -0.001698 0.012759 0.000000 -0.000640 0.000000
# 4 0.000000 0.000000 0.000000 0.035764 0.000000 0.001454
# 5 0.001684 -0.002711 -0.000640 0.000000 0.027072 0.000000
# 6 0.000000 0.000000 0.000000 0.001454 0.000000 0.029779
#
#
# Mechanical properties :
#
#
# Convention : Reuss Voigt Hill
#
# Bulk Modulus (GPa) = 27.58053 28.17038 27.87545
# Shear Modulus (GPa) = 34.19275 35.59225 34.89250
#
# Velocity S-wave (km/s) = 4.16793 4.25237 4.21036
# Velocity P-wave (km/s) = 6.09709 6.19857 6.14804
#
# Compressibility (1/GPa) = 0.03625746
#
# Stress axis : x y z
#
# Youngs Moduli (GPa) = 72.83296 80.61314 78.37799
#
# Poissons Ratio (x) = -0.11766 0.08464
# Poissons Ratio (y) = -0.10630 0.13307
# Poissons Ratio (z) = 0.07865 0.13686
#
# Static dielectric constant tensor:
#      x y z
#    x 1.685950 0.000000 0.000030 
#    y 0.000000 1.665180 0.000000 
#    z 0.000030 0.000000 1.660790 
# 
# From -- ./inp_files/163196.got.cif
#   From: 2010.05.17/outbox.cif.g08.bks.cpg/sg15_82_cif.got.tgz:163196.got - 2010.06.03 18:47:42.
