data_PCOD9303273
_publ_section_title
;
Structure prediction by ZEFSAII (Michael W. Deem and Ramdas Pophale) SiO2 
 PCOD9303273
Probable space group: C 2/C
;
_chemical_formula_sum "Si O2"
_cell_formula_units_Z 40
_cell_length_a 21.715341
_cell_length_b 7.905120
_cell_length_c 24.787645
_cell_angle_alpha 90.000000
_cell_angle_beta 156.689739
_cell_angle_gamma 90.000000
_cell_volume 1683.787925
_symmetry_space_group_name_H-M "C 2/C"
_symmetry_group_IT_number 15
_symmetry_cell_setting 'monoclinic'
loop_
_space_group_symop_operation_xyz
x,y,z
-x,y,1/2-z
-x,-y,-z
x,-y,1/2+z
1/2+x,1/2+y,z
1/2-x,1/2+y,1/2-z
1/2-x,1/2-y,-z
1/2+x,1/2-y,1/2+z
loop_
_atom_site_type_symbol
_atom_site_label
_atom_site_fract_x
_atom_site_fract_y
_atom_site_fract_z
Si Si1 0.039208 0.889803 0.116098
Si Si2 0.680106 0.107206 0.906917
Si Si3 0.541203 0.773516 0.840531
Si Si4 0.353709 0.034446 0.344116
Si Si5 0.230980 0.481710 0.336354
O O1 0.187745 0.012192 0.239950
O O2 0.115174 0.718430 0.155168
O O3 0.952918 0.849939 0.103570
O O4 0.900836 0.940097 0.964375
O O5 0.500000 0.142161 0.750000
O O6 0.756581 0.133214 0.909221
O O7 0.669287 0.921519 0.929692
O O8 0.750000 0.250000 0.000000
O O9 0.500000 0.689891 0.750000
O O10 0.388330 0.882508 0.734284
O O11 0.340836 0.925306 0.278038
O O12 0.500000 0.000000 0.500000
#
# Coordination Sequence:
#
# PCOD9303273 Si02
#       5
#     8   8   8   8   8
#     4  11  22  43  66  96 129 171 214 268 320 382
#     4   9  19  41  64  93 130 167 208 266 326 386
#     4   8  18  37  65  91 126 160 206 263 322 380
#     4  11  23  42  64  91 130 170 221 264 323 381
#     4   9  20  40  64  90 128 168 210 267 318 383
#
# _framework density 23.755960000000002
#
# number of rings (size 3 to 8) (size 9 to 14) (size 15 to 20)
#    0.000    2.800    0.000    3.000    0.000    3.200 
#   21.600    9.000    0.000    0.000    0.000    0.000 
#    0.000    0.000    0.000    0.000    0.000    0.000 
#
# Total GULP energy -111412.064111 kJ/mol
# GULP energy per Si atom -5570.603206 kJ/mol
# Density = 2.370189 g / cm^3
# Si number density = 23.755960 Si / 1000 Ang^3
#
#
#
# Elastic Constant Matrix: (Units=GPa)
#
#
# Indices 1 2 3 4 5 6 
#
# 1 175.9846 43.5329 68.9644 0.0000 -10.8121 -0.0002
# 2 43.5329 51.4439 32.1297 0.0003 -8.7787 0.0000
# 3 68.9644 32.1297 126.1077 0.0000 -10.2386 0.0026
# 4 0.0000 0.0003 0.0000 2.2957 0.0000 12.9803
# 5 -10.8121 -8.7787 -10.2386 0.0000 61.0994 0.0007
# 6 -0.0002 0.0000 0.0026 12.9803 0.0007 24.9239
#
#
#
# Elastic Compliance Matrix: (Units=1/GPa)
#
#
# Indices 1 2 3 4 5 6 
#
# 1 0.008153 -0.004864 -0.003203 0.000001 0.000207 0.000000
# 2 -0.004864 0.026361 -0.003871 0.000003 0.002278 -0.000001
# 3 -0.003203 -0.003871 0.010722 -0.000004 0.000674 0.000001
# 4 0.000001 0.000003 -0.000004 -0.223994 -0.000001 0.116656
# 5 0.000207 0.002278 0.000674 -0.000001 0.016844 0.000000
# 6 0.000000 -0.000001 0.000001 0.116656 0.000000 -0.020632
#
#
# Mechanical properties :
#
#
# Convention : Reuss Voigt Hill
#
# Bulk Modulus (GPa) = 46.81491 71.42113 59.11802
# Shear Modulus (GPa) = -32.99251 31.59108 -0.70072
#
# Velocity S-wave (km/s) = -3.73072 3.65062 -0.54370
# Velocity P-wave (km/s) = 1.09166 6.92092 4.95434
#
# Compressibility (1/GPa) = 0.02136071
#
# Stress axis : x y z
#
# Youngs Moduli (GPa) = 122.64999 37.93456 93.26363
#
# Poissons Ratio (x) = 0.18451 0.29870
# Poissons Ratio (y) = 0.59654 0.36107
# Poissons Ratio (z) = 0.39282 0.14686
#
# Static dielectric constant tensor:
#      x y z
#    x 2.174280 0.000000 -0.444200 
#    y 0.000000 2.010540 0.000000 
#    z -0.444200 0.000000 3.044770 
# 
# From -- ./inp_files/302147.got.cif
#   From: 2010.05.17/outbox.cif.g08.bks.cpg/sg15_152_cif.got.tgz:302147.got - 2010.06.03 18:47:42.
