data_PCOD9303584
_publ_section_title
;
Structure prediction by ZEFSAII (Michael W. Deem and Ramdas Pophale) SiO2 
 PCOD9303584
Probable space group: C 2/C
;
_chemical_formula_sum "Si O2"
_cell_formula_units_Z 40
_cell_length_a 13.961911
_cell_length_b 10.651857
_cell_length_c 11.210273
_cell_angle_alpha 90.000000
_cell_angle_beta 96.873057
_cell_angle_gamma 90.000000
_cell_volume 1655.214013
_symmetry_space_group_name_H-M "C 2/C"
_symmetry_group_IT_number 15
_symmetry_cell_setting 'monoclinic'
loop_
_space_group_symop_operation_xyz
x,y,z
-x,y,1/2-z
-x,-y,-z
x,-y,1/2+z
1/2+x,1/2+y,z
1/2-x,1/2+y,1/2-z
1/2-x,1/2-y,-z
1/2+x,1/2-y,1/2+z
loop_
_atom_site_type_symbol
_atom_site_label
_atom_site_fract_x
_atom_site_fract_y
_atom_site_fract_z
Si Si1 0.703327 0.692465 0.613022
Si Si2 0.815348 0.250747 0.628979
Si Si3 0.966940 0.390556 0.406948
Si Si4 0.353054 0.980151 0.191004
Si Si5 0.516998 0.640401 0.957129
O O1 0.750000 0.750000 0.500000
O O2 0.734158 0.747526 0.747312
O O3 0.747850 0.553335 0.629327
O O4 0.588286 0.692265 0.594515
O O5 0.750000 0.250000 0.500000
O O6 0.874280 0.381111 0.649529
O O7 0.897079 0.143699 0.627042
O O8 0.873404 0.456680 0.332715
O O9 0.000000 0.500000 0.500000
O O10 0.066708 0.384552 0.346305
O O11 0.948149 0.249279 0.446029
O O12 0.500000 0.500000 0.000000
#
# Coordination Sequence:
#
# PCOD9303584 Si02
#       5
#     8   8   8   8   8
#     4  12  27  47  72 113 155 201 255 326 402 472
#     4  12  27  49  77 115 154 208 266 330 402 482
#     4  11  22  45  78 107 146 199 267 320 392 474
#     4  11  25  43  76 108 148 204 263 324 388 488
#     4  12  26  49  76 113 161 207 260 335 405 473
#
# _framework density 24.166059000000001
#
# number of rings (size 3 to 8) (size 9 to 14) (size 15 to 20)
#    0.000    0.400    4.000    4.200    2.800    1.600 
#    7.200    0.000    0.000    0.000    0.000    0.000 
#    0.000    0.000    0.000    0.000    0.000    0.000 
#
# Total GULP energy -111471.825421 kJ/mol
# GULP energy per Si atom -5573.591271 kJ/mol
# Density = 2.411106 g / cm^3
# Si number density = 24.166059 Si / 1000 Ang^3
#
#
#
# Elastic Constant Matrix: (Units=GPa)
#
#
# Indices 1 2 3 4 5 6 
#
# 1 107.3755 3.3534 51.7973 0.0000 6.7958 0.0000
# 2 3.3534 130.4518 47.6003 0.0000 -1.3202 0.0000
# 3 51.7973 47.6003 155.5925 0.0000 5.9895 0.0000
# 4 0.0000 0.0000 0.0000 35.6325 0.0000 -0.8577
# 5 6.7958 -1.3202 5.9895 0.0000 50.6487 0.0000
# 6 0.0000 0.0000 0.0000 -0.8577 0.0000 46.0214
#
#
#
# Elastic Compliance Matrix: (Units=1/GPa)
#
#
# Indices 1 2 3 4 5 6 
#
# 1 0.011314 0.001192 -0.004092 0.000000 -0.001003 0.000000
# 2 0.001192 0.008769 -0.003096 0.000000 0.000435 0.000000
# 3 -0.004092 -0.003096 0.008759 0.000000 -0.000567 0.000000
# 4 0.000000 0.000000 0.000000 0.028077 0.000000 0.000523
# 5 -0.001003 0.000435 -0.000567 0.000000 0.019957 0.000000
# 6 0.000000 0.000000 0.000000 0.000523 0.000000 0.021739
#
#
# Mechanical properties :
#
#
# Convention : Reuss Voigt Hill
#
# Bulk Modulus (GPa) = 59.35353 66.54686 62.95019
# Shear Modulus (GPa) = 43.02072 45.83845 44.42958
#
# Velocity S-wave (km/s) = 4.22383 4.35996 4.29244
# Velocity P-wave (km/s) = 6.95713 7.27618 7.11845
#
# Compressibility (1/GPa) = 0.01684820
#
# Stress axis : x y z
#
# Youngs Moduli (GPa) = 88.38965 114.03455 114.17384
#
# Poissons Ratio (x) = -0.13597 0.46725
# Poissons Ratio (y) = -0.10539 0.35353
# Poissons Ratio (z) = 0.36173 0.35310
#
# Static dielectric constant tensor:
#      x y z
#    x 2.222530 0.000000 -0.209400 
#    y 0.000000 2.070460 0.000000 
#    z -0.209400 0.000000 2.276400 
# 
# From -- ./inp_files/95134.got.cif
#   From: 2010.05.17/outbox.cif.g08.bks.cpg/sg15_48_cif.got.tgz:95134.got - 2010.06.03 18:47:42.
