data_PCOD9303160
_publ_section_title
;
Structure prediction by ZEFSAII (Michael W. Deem and Ramdas Pophale) SiO2 
 PCOD9303160
Probable space group: C 2/C
;
_chemical_formula_sum "Si O2"
_cell_formula_units_Z 56
_cell_length_a 27.458967
_cell_length_b 5.329645
_cell_length_c 25.441495
_cell_angle_alpha 90.000000
_cell_angle_beta 142.390843
_cell_angle_gamma 90.000000
_cell_volume 2272.209613
_symmetry_space_group_name_H-M "C 2/C"
_symmetry_group_IT_number 15
_symmetry_cell_setting 'monoclinic'
loop_
_space_group_symop_operation_xyz
x,y,z
-x,y,1/2-z
-x,-y,-z
x,-y,1/2+z
1/2+x,1/2+y,z
1/2-x,1/2+y,1/2-z
1/2-x,1/2-y,-z
1/2+x,1/2-y,1/2+z
loop_
_atom_site_type_symbol
_atom_site_label
_atom_site_fract_x
_atom_site_fract_y
_atom_site_fract_z
Si Si1 0.119386 0.561534 0.290252
Si Si2 0.461408 0.177315 0.386075
Si Si3 0.217109 0.843393 0.245111
Si Si4 0.715054 0.552892 0.931429
Si Si5 0.766808 0.697372 0.383486
Si Si6 0.554657 0.312513 0.956224
Si Si7 0.432156 0.276608 0.658342
O O1 0.059217 0.623024 0.192667
O O2 0.159665 0.816631 0.341417
O O3 0.190451 0.379361 0.328951
O O4 0.081012 0.451269 0.310707
O O5 0.374919 0.254358 0.335233
O O6 0.516428 0.420702 0.437446
O O7 0.506026 0.920331 0.440694
O O8 0.235916 0.078179 0.221815
O O9 0.242917 0.989051 0.320262
O O10 0.781163 0.430044 0.952275
O O11 0.656168 0.386522 0.914109
O O12 0.750000 0.750000 0.000000
O O13 0.853327 0.812628 0.446710
O O14 0.547549 0.277217 0.886086
O O15 0.500000 0.425624 0.750000
#
# Coordination Sequence:
#
# PCOD9303160 Si02
#       7
#     8   8   8   8   8   8   8
#     4  11  22  42  68  97 151 200 255 286 341 441
#     4  12  26  48  72 110 142 190 240 311 370 442
#     4  12  27  52  84 106 135 189 257 313 384 464
#     4  11  23  39  66  99 151 195 253 284 347 435
#     4  11  26  46  71 110 147 198 246 311 371 436
#     4  12  27  44  71 109 160 190 238 305 376 424
#     4  11  23  38  62 106 146 208 248 288 346 429
#
# _framework density 24.645613999999998
#
# number of rings (size 3 to 8) (size 9 to 14) (size 15 to 20)
#    0.000    0.571    2.857    5.143    6.000    2.857 
#    0.000    4.286    0.000    0.000    0.000    0.000 
#    0.000    0.000    0.000    0.000    0.000    0.000 
#
# Total GULP energy -156423.994571 kJ/mol
# GULP energy per Si atom -5586.571235 kJ/mol
# Density = 2.458952 g / cm^3
# Si number density = 24.645614 Si / 1000 Ang^3
#
#
#
# Elastic Constant Matrix: (Units=GPa)
#
#
# Indices 1 2 3 4 5 6 
#
# 1 94.4687 41.6443 30.1166 -0.0041 6.9495 -0.1140
# 2 41.6443 120.9211 22.9482 -0.0159 14.1143 -0.1309
# 3 30.1166 22.9482 77.1554 -0.0030 13.8122 0.0056
# 4 -0.0041 -0.0159 -0.0030 68.1496 -0.0116 58.2173
# 5 6.9495 14.1143 13.8122 -0.0116 32.3977 -0.0425
# 6 -0.1140 -0.1309 0.0056 58.2173 -0.0425 174.4692
#
#
#
# Elastic Compliance Matrix: (Units=1/GPa)
#
#
# Indices 1 2 3 4 5 6 
#
# 1 0.013644 -0.003963 -0.004257 -0.000008 0.000615 0.000009
# 2 -0.003963 0.010180 -0.000909 -0.000003 -0.003198 0.000005
# 3 -0.004257 -0.000909 0.015870 0.000005 -0.005457 -0.000007
# 4 -0.000008 -0.000003 0.000005 0.020524 -0.000001 -0.006849
# 5 0.000615 -0.003198 -0.005457 -0.000001 0.034454 0.000007
# 6 0.000009 0.000005 -0.000007 -0.006849 0.000007 0.008017
#
#
# Mechanical properties :
#
#
# Convention : Reuss Voigt Hill
#
# Bulk Modulus (GPa) = 46.64840 53.55149 50.09994
# Shear Modulus (GPa) = 39.03423 68.19237 53.61330
#
# Velocity S-wave (km/s) = 3.98404 5.26586 4.66914
# Velocity P-wave (km/s) = 6.33500 7.66473 7.03137
#
# Compressibility (1/GPa) = 0.02143696
#
# Stress axis : x y z
#
# Youngs Moduli (GPa) = 73.28975 98.22882 63.01291
#
# Poissons Ratio (x) = 0.38926 0.26827
# Poissons Ratio (y) = 0.29044 0.05726
# Poissons Ratio (z) = 0.31202 0.08925
#
# Static dielectric constant tensor:
#      x y z
#    x 2.099640 0.000070 -0.044860 
#    y 0.000070 2.075760 -0.000870 
#    z -0.044860 -0.000870 2.303610 
# 
# From -- ./inp_files/302933.got.cif
#   From: 2010.05.17/outbox.cif.g08.bks.cpg/sg15_152_cif.got.tgz:302933.got - 2010.06.03 18:47:42.
