data_PCOD9303750
_publ_section_title
;
Structure prediction by ZEFSAII (Michael W. Deem and Ramdas Pophale) SiO2 
 PCOD9303750
Probable space group: C 2/C
;
_chemical_formula_sum "Si O2"
_cell_formula_units_Z 64
_cell_length_a 12.230203
_cell_length_b 26.548682
_cell_length_c 13.926673
_cell_angle_alpha 90.000000
_cell_angle_beta 138.985404
_cell_angle_gamma 90.000000
_cell_volume 2967.523491
_symmetry_space_group_name_H-M "C 2/C"
_symmetry_group_IT_number 15
_symmetry_cell_setting 'monoclinic'
loop_
_space_group_symop_operation_xyz
x,y,z
-x,y,1/2-z
-x,-y,-z
x,-y,1/2+z
1/2+x,1/2+y,z
1/2-x,1/2+y,1/2-z
1/2-x,1/2-y,-z
1/2+x,1/2-y,1/2+z
loop_
_atom_site_type_symbol
_atom_site_label
_atom_site_fract_x
_atom_site_fract_y
_atom_site_fract_z
Si Si1 0.239408 0.437327 0.496216
Si Si2 0.838690 0.582593 0.343190
Si Si3 0.492453 0.706136 0.484008
Si Si4 0.376262 0.949440 0.584997
Si Si5 0.565285 0.375631 0.397095
Si Si6 0.324951 0.173890 0.592432
Si Si7 0.988403 0.941330 0.976324
Si Si8 0.810614 0.697822 0.363032
O O1 0.244175 0.436581 0.613783
O O2 0.172935 0.492758 0.425834
O O3 0.145809 0.385863 0.406404
O O4 0.409434 0.429541 0.551302
O O5 0.700914 0.573806 0.170297
O O6 0.869135 0.642005 0.373032
O O7 0.009477 0.554227 0.433794
O O8 0.418715 0.671650 0.520531
O O9 0.666475 0.683405 0.556464
O O10 0.355638 0.708665 0.308635
O O11 0.548368 0.760459 0.559545
O O12 0.500000 0.931279 0.750000
O O13 0.222293 0.911604 0.478117
O O14 0.500000 0.359863 0.250000
O O15 0.451061 0.412496 0.388222
O O16 0.500000 0.194450 0.750000
O O17 0.281348 0.196442 0.458744
O O18 0.000000 0.000000 0.000000
#
# Coordination Sequence:
#
# PCOD9303750 Si02
#       8
#     8   8   8   8   8   8   8   8
#     4  11  23  38  68 106 143 183 230 281 355 423
#     4  11  24  44  69 104 141 185 229 294 346 417
#     4  12  24  48  70  99 138 183 240 290 361 420
#     4  12  23  45  65  99 145 190 232 280 348 417
#     4  12  28  46  71 100 139 189 237 296 346 426
#     4  11  23  40  68 109 147 181 228 295 358 425
#     4  12  22  43  72 101 143 188 235 281 356 429
#     4  11  24  44  73 102 136 185 235 298 355 417
#
# _framework density 21.566804999999999
#
# number of rings (size 3 to 8) (size 9 to 14) (size 15 to 20)
#    0.000    0.500    5.000    2.625    1.750    5.000 
#    2.250    3.125    0.000    0.000    0.000    0.000 
#    0.000    0.000    0.000    0.000    0.000    0.000 
#
# Total GULP energy -178701.596497 kJ/mol
# GULP energy per Si atom -5584.424891 kJ/mol
# Density = 2.151772 g / cm^3
# Si number density = 21.566805 Si / 1000 Ang^3
#
#
#
# Elastic Constant Matrix: (Units=GPa)
#
#
# Indices 1 2 3 4 5 6 
#
# 1 123.5456 21.4579 47.7893 0.0000 -7.3231 0.0000
# 2 21.4579 112.0287 29.2902 0.0000 0.8367 0.0000
# 3 47.7893 29.2902 119.1797 0.0000 -7.1418 0.0000
# 4 0.0000 0.0000 0.0000 18.5720 0.0000 -0.4454
# 5 -7.3231 0.8367 -7.1418 0.0000 23.9184 0.0000
# 6 0.0000 0.0000 0.0000 -0.4454 0.0000 32.8357
#
#
#
# Elastic Compliance Matrix: (Units=1/GPa)
#
#
# Indices 1 2 3 4 5 6 
#
# 1 0.009752 -0.000952 -0.003559 0.000000 0.001956 0.000000
# 2 -0.000952 0.009658 -0.002067 0.000000 -0.001246 0.000000
# 3 -0.003559 -0.002067 0.010452 0.000000 0.002103 0.000000
# 4 0.000000 0.000000 0.000000 0.053862 0.000000 0.000731
# 5 0.001956 -0.001246 0.002103 0.000000 0.043080 0.000000
# 6 0.000000 0.000000 0.000000 0.000731 0.000000 0.030465
#
#
# Mechanical properties :
#
#
# Convention : Reuss Voigt Hill
#
# Bulk Modulus (GPa) = 59.85666 61.31431 60.58548
# Shear Modulus (GPa) = 28.41020 32.14633 30.27826
#
# Velocity S-wave (km/s) = 3.63342 3.86495 3.75097
# Velocity P-wave (km/s) = 6.73918 6.95764 6.84928
#
# Compressibility (1/GPa) = 0.01670658
#
# Stress axis : x y z
#
# Youngs Moduli (GPa) = 102.54015 103.53840 95.67667
#
# Poissons Ratio (x) = 0.09856 0.34054
# Poissons Ratio (y) = 0.09761 0.19773
# Poissons Ratio (z) = 0.36497 0.21398
#
# Static dielectric constant tensor:
#      x y z
#    x 1.815950 0.000000 -0.014060 
#    y 0.000000 1.802300 0.000000 
#    z -0.014060 0.000000 1.783990 
# 
# From -- ./inp_files/148775.got.cif
#   From: 2010.05.17/outbox.cif.g08.bks.cpg/sg15_75_cif.got.tgz:148775.got - 2010.06.03 18:47:42.
