data_PCOD9303678
_publ_section_title
;
Structure prediction by ZEFSAII (Michael W. Deem and Ramdas Pophale) SiO2 
 PCOD9303678
Probable space group: C 2/C
;
_chemical_formula_sum "Si O2"
_cell_formula_units_Z 52
_cell_length_a 14.321513
_cell_length_b 11.332886
_cell_length_c 18.094880
_cell_angle_alpha 90.000000
_cell_angle_beta 43.559511
_cell_angle_gamma 90.000000
_cell_volume 2023.821399
_symmetry_space_group_name_H-M "C 2/C"
_symmetry_group_IT_number 15
_symmetry_cell_setting 'monoclinic'
loop_
_space_group_symop_operation_xyz
x,y,z
-x,y,1/2-z
-x,-y,-z
x,-y,1/2+z
1/2+x,1/2+y,z
1/2-x,1/2+y,1/2-z
1/2-x,1/2-y,-z
1/2+x,1/2-y,1/2+z
loop_
_atom_site_type_symbol
_atom_site_label
_atom_site_fract_x
_atom_site_fract_y
_atom_site_fract_z
Si Si1 0.734383 0.128703 0.551593
Si Si2 0.461893 0.245275 0.184753
Si Si3 0.887976 0.409452 0.096396
Si Si4 0.287620 0.116581 0.501977
Si Si5 0.242813 0.436951 0.700678
Si Si6 0.483203 0.660473 0.511323
Si Si7 0.000000 0.532350 0.750000
O O1 0.750000 0.250000 0.500000
O O2 0.831622 0.141482 0.567644
O O3 0.570731 0.117778 0.650836
O O4 0.776824 0.005412 0.488018
O O5 0.500000 0.275429 0.250000
O O6 0.554759 0.128702 0.112769
O O7 0.490893 0.329716 0.097094
O O8 0.311370 0.196551 0.254686
O O9 0.804272 0.472829 0.209322
O O10 0.779097 0.389819 0.094057
O O11 0.000000 0.500000 0.000000
O O12 0.969035 0.286483 0.050382
O O13 0.250000 0.250000 0.500000
O O14 0.399247 0.425646 0.588460
O O15 0.138488 0.468722 0.694595
#
# Coordination Sequence:
#
# PCOD9303678 Si02
#       7
#     8   8   8   8   8   8   4
#     4  12  27  53  82 119 174 224 277 359 441 529
#     4  11  24  45  81 115 166 228 290 353 435 514
#     4  11  22  50  79 114 168 228 282 353 435 522
#     4  11  25  49  84 117 162 218 284 350 421 509
#     4  12  24  48  80 119 161 228 290 350 438 516
#     4  11  28  46  81 127 168 217 303 365 426 525
#     4  12  26  50  82 106 162 230 278 336 454 516
#
# _framework density 25.693968000000002
#
# number of rings (size 3 to 8) (size 9 to 14) (size 15 to 20)
#    0.000    0.615    5.385    1.846    8.615    3.077 
#    2.769    0.000    0.000    0.000    0.000    0.000 
#    0.000    0.000    0.000    0.000    0.000    0.000 
#
# Total GULP energy -144940.445047 kJ/mol
# GULP energy per Si atom -5574.632502 kJ/mol
# Density = 2.563549 g / cm^3
# Si number density = 25.693968 Si / 1000 Ang^3
#
#
#
# Elastic Constant Matrix: (Units=GPa)
#
#
# Indices 1 2 3 4 5 6 
#
# 1 135.0330 57.1765 40.6780 0.0000 20.5197 0.0000
# 2 57.1765 154.1851 42.2510 0.0000 8.3683 0.0000
# 3 40.6780 42.2510 115.2143 0.0000 -6.7369 0.0000
# 4 0.0000 0.0000 0.0000 51.3760 0.0000 -0.8050
# 5 20.5197 8.3683 -6.7369 0.0000 66.8309 0.0000
# 6 0.0000 0.0000 0.0000 -0.8050 0.0000 60.5536
#
#
#
# Elastic Compliance Matrix: (Units=1/GPa)
#
#
# Indices 1 2 3 4 5 6 
#
# 1 0.009810 -0.002760 -0.002623 0.000000 -0.002931 0.000000
# 2 -0.002760 0.008080 -0.002010 0.000000 -0.000367 0.000000
# 3 -0.002623 -0.002010 0.010466 0.000000 0.002112 0.000000
# 4 0.000000 0.000000 0.000000 0.019468 0.000000 0.000259
# 5 -0.002931 -0.000367 0.002112 0.000000 0.016122 0.000000
# 6 0.000000 0.000000 0.000000 0.000259 0.000000 0.016518
#
#
# Mechanical properties :
#
#
# Convention : Reuss Voigt Hill
#
# Bulk Modulus (GPa) = 73.69064 76.07151 74.88108
# Shear Modulus (GPa) = 50.11404 53.37389 51.74396
#
# Velocity S-wave (km/s) = 4.42115 4.56268 4.49247
# Velocity P-wave (km/s) = 7.40300 7.57815 7.49109
#
# Compressibility (1/GPa) = 0.01357024
#
# Stress axis : x y z
#
# Youngs Moduli (GPa) = 101.94024 123.76365 95.54694
#
# Poissons Ratio (x) = 0.34158 0.25059
# Poissons Ratio (y) = 0.28135 0.19205
# Poissons Ratio (z) = 0.26736 0.24877
#
# Static dielectric constant tensor:
#      x y z
#    x 2.129470 0.000000 -0.031960 
#    y 0.000000 2.227930 0.000000 
#    z -0.031960 0.000000 2.592880 
# 
# From -- ./inp_files/243628.got.cif
#   From: 2010.05.17/outbox.cif.g08.bks.cpg/sg15_122_cif.got.tgz:243628.got - 2010.06.03 18:47:42.
