data_PCOD9303982
_publ_section_title
;
Structure prediction by ZEFSAII (Michael W. Deem and Ramdas Pophale) SiO2 
 PCOD9303982
Probable space group: C 2/C
;
_chemical_formula_sum "Si O2"
_cell_formula_units_Z 64
_cell_length_a 18.578312
_cell_length_b 26.634971
_cell_length_c 8.064122
_cell_angle_alpha 90.000000
_cell_angle_beta 138.094193
_cell_angle_gamma 90.000000
_cell_volume 2665.214749
_symmetry_space_group_name_H-M "C 2/C"
_symmetry_group_IT_number 15
_symmetry_cell_setting 'monoclinic'
loop_
_space_group_symop_operation_xyz
x,y,z
-x,y,1/2-z
-x,-y,-z
x,-y,1/2+z
1/2+x,1/2+y,z
1/2-x,1/2+y,1/2-z
1/2-x,1/2-y,-z
1/2+x,1/2-y,1/2+z
loop_
_atom_site_type_symbol
_atom_site_label
_atom_site_fract_x
_atom_site_fract_y
_atom_site_fract_z
Si Si1 0.903978 0.215893 0.484067
Si Si2 0.598755 0.533200 0.049325
Si Si3 0.555289 0.046934 0.175839
Si Si4 0.292733 0.445065 0.085682
Si Si5 0.750768 0.671646 0.002007
Si Si6 0.704867 0.189835 0.785942
Si Si7 0.983155 0.650323 0.531390
Si Si8 0.081415 0.867746 0.734140
O O1 0.821212 0.192795 0.473943
O O2 0.842843 0.254428 0.257650
O O3 0.959130 0.170560 0.477172
O O4 0.000000 0.242324 0.750000
O O5 0.591029 0.576625 0.173938
O O6 0.500000 0.534122 0.750000
O O7 0.694522 0.546885 0.088370
O O8 0.378356 0.521248 0.832822
O O9 0.500000 0.064073 0.250000
O O10 0.676598 0.034473 0.433343
O O11 0.547852 0.091948 0.033153
O O12 0.500000 0.000000 0.000000
O O13 0.288648 0.385433 0.104983
O O14 0.875253 0.674623 0.272641
O O15 0.751122 0.697932 0.825087
O O16 0.593951 0.158694 0.621064
O O17 0.800053 0.156403 0.029052
O O18 0.000000 0.666546 0.750000
O O19 0.000000 0.867124 0.750000
#
# Coordination Sequence:
#
# PCOD9303982 Si02
#       8
#     8   8   8   8   8   8   8   8
#     4  12  25  50  77 110 150 198 251 314 388 453
#     4  12  28  49  75 109 152 202 262 315 382 455
#     4  11  23  41  68 104 148 193 250 301 379 450
#     4  11  26  45  74 107 152 202 253 312 382 455
#     4  11  24  47  73 112 152 199 249 316 385 454
#     4  12  27  45  79 108 150 193 256 313 382 462
#     4  11  24  42  69 106 148 194 242 307 375 450
#     4  12  29  49  77 111 152 200 255 319 386 464
#
# _framework density 24.013074
#
# number of rings (size 3 to 8) (size 9 to 14) (size 15 to 20)
#    0.000    0.500    1.250    6.750    7.000    2.000 
#    0.000    0.000    0.000    0.000    0.000    0.000 
#    0.000    0.000    0.000    0.000    0.000    0.000 
#
# Total GULP energy -178968.621036 kJ/mol
# GULP energy per Si atom -5592.769407 kJ/mol
# Density = 2.395842 g / cm^3
# Si number density = 24.013074 Si / 1000 Ang^3
#
#
#
# Elastic Constant Matrix: (Units=GPa)
#
#
# Indices 1 2 3 4 5 6 
#
# 1 122.9164 13.0208 22.8814 0.0000 12.2790 0.0000
# 2 13.0208 102.5547 50.4363 0.0000 12.7351 0.0000
# 3 22.8814 50.4363 134.3174 0.0000 25.2875 0.0000
# 4 0.0000 0.0000 0.0000 28.4236 0.0000 0.9145
# 5 12.2790 12.7351 25.2875 0.0000 34.1140 0.0000
# 6 0.0000 0.0000 0.0000 0.9145 0.0000 35.5139
#
#
#
# Elastic Compliance Matrix: (Units=1/GPa)
#
#
# Indices 1 2 3 4 5 6 
#
# 1 0.008569 -0.000365 -0.000892 0.000000 -0.002287 0.000000
# 2 -0.000365 0.012026 -0.004222 0.000000 -0.001228 0.000000
# 3 -0.000892 -0.004222 0.010257 0.000000 -0.005706 0.000000
# 4 0.000000 0.000000 0.000000 0.035211 0.000000 -0.000907
# 5 -0.002287 -0.001228 -0.005706 0.000000 0.034824 0.000000
# 6 0.000000 0.000000 0.000000 -0.000907 0.000000 0.028181
#
#
# Mechanical properties :
#
#
# Convention : Reuss Voigt Hill
#
# Bulk Modulus (GPa) = 50.27075 59.16287 54.71681
# Shear Modulus (GPa) = 34.09264 37.84029 35.96647
#
# Velocity S-wave (km/s) = 3.77205 3.97397 3.87432
# Velocity P-wave (km/s) = 6.32071 6.76371 6.54596
#
# Compressibility (1/GPa) = 0.01989228
#
# Stress axis : x y z
#
# Youngs Moduli (GPa) = 116.70252 83.15049 97.49695
#
# Poissons Ratio (x) = 0.03037 0.08697
# Poissons Ratio (y) = 0.04263 0.41168
# Poissons Ratio (z) = 0.10411 0.35110
#
# Static dielectric constant tensor:
#      x y z
#    x 1.906970 0.000000 0.018490 
#    y 0.000000 1.905780 0.000000 
#    z 0.018490 0.000000 1.984830 
# 
# From -- ./inp_files/52851.got.cif
#   From: 2010.05.17/outbox.cif.g08.bks.cpg/sg15_27_cif.got.tgz:52851.got - 2010.06.03 18:47:42.
