data_PCOD9303887
_publ_section_title
;
Structure prediction by ZEFSAII (Michael W. Deem and Ramdas Pophale) SiO2 
 PCOD9303887
Probable space group: C 2/C
;
_chemical_formula_sum "Si O2"
_cell_formula_units_Z 48
_cell_length_a 11.990062
_cell_length_b 18.080793
_cell_length_c 10.202175
_cell_angle_alpha 90.000000
_cell_angle_beta 106.679388
_cell_angle_gamma 90.000000
_cell_volume 2118.671120
_symmetry_space_group_name_H-M "C 2/C"
_symmetry_group_IT_number 15
_symmetry_cell_setting 'monoclinic'
loop_
_space_group_symop_operation_xyz
x,y,z
-x,y,1/2-z
-x,-y,-z
x,-y,1/2+z
1/2+x,1/2+y,z
1/2-x,1/2+y,1/2-z
1/2-x,1/2-y,-z
1/2+x,1/2-y,1/2+z
loop_
_atom_site_type_symbol
_atom_site_label
_atom_site_fract_x
_atom_site_fract_y
_atom_site_fract_z
Si Si1 0.034508 0.118243 0.391744
Si Si2 0.772125 0.002696 0.133596
Si Si3 0.226868 0.197477 0.615639
Si Si4 0.364525 0.048775 0.668537
Si Si5 0.128861 0.718624 0.330877
Si Si6 0.666838 0.365633 0.492656
O O1 0.111490 0.154808 0.530232
O O2 0.000000 0.165182 0.250000
O O3 0.916923 0.098378 0.428021
O O4 0.118544 0.056050 0.358250
O O5 0.710977 0.998587 0.252941
O O6 0.821227 0.920820 0.123308
O O7 0.676272 0.023864 0.990360
O O8 0.250000 0.250000 0.500000
O O9 0.325017 0.135020 0.668359
O O10 0.199308 0.246506 0.732751
O O11 0.500000 0.041020 0.750000
O O12 0.205146 0.652377 0.411612
O O13 0.120158 0.785494 0.432414
O O14 0.000000 0.695247 0.250000
#
# Coordination Sequence:
#
# PCOD9303887 Si02
#       6
#     8   8   8   8   8   8
#     4  11  23  41  67 101 134 178 232 295 346 420
#     4  11  24  44  68 102 137 182 240 296 352 421
#     4  11  24  42  66  96 136 181 233 285 349 423
#     4  11  25  44  69  99 139 186 235 297 359 425
#     4  11  23  42  66  99 140 181 231 288 346 422
#     4  11  23  40  69  98 137 184 230 282 361 411
#
# _framework density 22.655711
#
# number of rings (size 3 to 8) (size 9 to 14) (size 15 to 20)
#    0.000    1.000    3.333    3.000    0.000    7.333 
#    0.000    0.000    0.000    0.000    0.000    0.000 
#    0.000    0.000    0.000    0.000    0.000    0.000 
#
# Total GULP energy -134199.368858 kJ/mol
# GULP energy per Si atom -5591.640369 kJ/mol
# Density = 2.260415 g / cm^3
# Si number density = 22.655711 Si / 1000 Ang^3
#
#
#
# Elastic Constant Matrix: (Units=GPa)
#
#
# Indices 1 2 3 4 5 6 
#
# 1 128.5831 30.4047 24.8677 0.0000 13.5431 0.0000
# 2 30.4047 51.1041 0.3194 0.0000 -11.4208 0.0000
# 3 24.8677 0.3194 77.0733 0.0000 -5.1821 0.0000
# 4 0.0000 0.0000 0.0000 30.9085 0.0000 -3.3174
# 5 13.5431 -11.4208 -5.1821 0.0000 43.1129 0.0000
# 6 0.0000 0.0000 0.0000 -3.3174 0.0000 13.1617
#
#
#
# Elastic Compliance Matrix: (Units=1/GPa)
#
#
# Indices 1 2 3 4 5 6 
#
# 1 0.011039 -0.007891 -0.003935 0.000000 -0.006031 0.000000
# 2 -0.007891 0.026446 0.003099 0.000000 0.009857 0.000000
# 3 -0.003935 0.003099 0.014487 0.000000 0.003798 0.000000
# 4 0.000000 0.000000 0.000000 0.033253 0.000000 0.008381
# 5 -0.006031 0.009857 0.003798 0.000000 0.028157 0.000000
# 6 0.000000 0.000000 0.000000 0.008381 0.000000 0.078091
#
#
# Mechanical properties :
#
#
# Convention : Reuss Voigt Hill
#
# Bulk Modulus (GPa) = 28.96936 40.88265 34.92601
# Shear Modulus (GPa) = 22.68269 30.84787 26.76528
#
# Velocity S-wave (km/s) = 3.16759 3.69398 3.44087
# Velocity P-wave (km/s) = 5.11788 6.02315 5.58888
#
# Compressibility (1/GPa) = 0.03451923
#
# Stress axis : x y z
#
# Youngs Moduli (GPa) = 90.58674 37.81259 69.02884
#
# Poissons Ratio (x) = 0.29838 0.27160
# Poissons Ratio (y) = 0.71482 -0.21393
# Poissons Ratio (z) = 0.35642 -0.11719
#
# Static dielectric constant tensor:
#      x y z
#    x 2.103460 0.000000 0.270400 
#    y 0.000000 1.867080 0.000000 
#    z 0.270400 0.000000 2.089540 
# 
# From -- ./inp_files/87875.got.cif
#   From: 2010.05.17/outbox.cif.g08.bks.cpg/sg15_44_cif.got.tgz:87875.got - 2010.06.03 18:47:42.
