data_PCOD9303541
_publ_section_title
;
Structure prediction by ZEFSAII (Michael W. Deem and Ramdas Pophale) SiO2 
 PCOD9303541
Probable space group: C 2/C
;
_chemical_formula_sum "Si O2"
_cell_formula_units_Z 56
_cell_length_a 15.769527
_cell_length_b 10.886561
_cell_length_c 29.615673
_cell_angle_alpha 90.000000
_cell_angle_beta 30.481050
_cell_angle_gamma 90.000000
_cell_volume 2579.027162
_symmetry_space_group_name_H-M "C 2/C"
_symmetry_group_IT_number 15
_symmetry_cell_setting 'monoclinic'
loop_
_space_group_symop_operation_xyz
x,y,z
-x,y,1/2-z
-x,-y,-z
x,-y,1/2+z
1/2+x,1/2+y,z
1/2-x,1/2+y,1/2-z
1/2-x,1/2-y,-z
1/2+x,1/2-y,1/2+z
loop_
_atom_site_type_symbol
_atom_site_label
_atom_site_fract_x
_atom_site_fract_y
_atom_site_fract_z
Si Si1 0.131963 0.858638 0.304464
Si Si2 0.867809 0.417870 0.678125
Si Si3 0.966557 0.328251 0.990057
Si Si4 0.887649 0.071822 0.843392
Si Si5 0.840277 0.420628 0.431011
Si Si6 0.537268 0.436349 0.030494
Si Si7 0.764707 0.176769 0.423695
O O1 0.192890 0.716202 0.275866
O O2 0.956932 0.863921 0.357074
O O3 0.109377 0.902596 0.366791
O O4 0.240669 0.967886 0.232590
O O5 0.950075 0.386557 0.592296
O O6 0.017233 0.477617 0.638819
O O7 0.887895 0.196616 0.014272
O O8 0.113460 0.306360 0.958242
O O9 0.807583 0.406913 0.077416
O O10 0.000000 0.111505 0.750000
O O11 0.893999 0.926008 0.848375
O O12 0.664035 0.478615 0.498962
O O13 0.860700 0.302188 0.390254
O O14 0.822127 0.371770 0.490394
O O15 0.500000 0.500000 0.000000
#
# Coordination Sequence:
#
# PCOD9303541 Si02
#       7
#     8   8   8   8   8   8   8
#     4  11  26  44  68 105 139 188 231 297 346 415
#     4  11  25  45  72  99 145 185 235 293 351 416
#     4  11  23  44  71 101 137 183 237 282 350 419
#     4  12  25  41  68 103 142 181 233 287 350 416
#     4  11  23  42  70  98 135 183 226 289 350 415
#     4  11  22  45  70  95 134 180 231 285 350 417
#     4  11  23  40  67 104 134 180 229 284 346 418
#
# _framework density 21.713614
#
# number of rings (size 3 to 8) (size 9 to 14) (size 15 to 20)
#    0.000    0.857    4.286    2.143    4.000    3.429 
#    0.000    0.714    0.000    0.000    0.000    0.000 
#    0.000    0.000    0.000    0.000    0.000    0.000 
#
# Total GULP energy -156388.970373 kJ/mol
# GULP energy per Si atom -5585.320370 kJ/mol
# Density = 2.166419 g / cm^3
# Si number density = 21.713614 Si / 1000 Ang^3
#
#
#
# Elastic Constant Matrix: (Units=GPa)
#
#
# Indices 1 2 3 4 5 6 
#
# 1 92.3374 29.5323 16.9513 0.0000 1.4311 0.0000
# 2 29.5323 154.4109 25.5655 0.0001 5.3938 0.0000
# 3 16.9513 25.5655 43.1837 0.0004 2.0171 0.0000
# 4 0.0000 0.0001 0.0004 30.7424 0.0000 -1.0958
# 5 1.4311 5.3938 2.0171 0.0000 21.0945 0.0000
# 6 0.0000 0.0000 0.0000 -1.0958 0.0000 24.5744
#
#
#
# Elastic Compliance Matrix: (Units=1/GPa)
#
#
# Indices 1 2 3 4 5 6 
#
# 1 0.012055 -0.001687 -0.003732 0.000000 -0.000030 0.000000
# 2 -0.001687 0.007460 -0.003687 0.000000 -0.001440 0.000000
# 3 -0.003732 -0.003687 0.026869 0.000000 -0.001373 0.000000
# 4 0.000000 0.000000 0.000000 0.032580 0.000000 0.001453
# 5 -0.000030 -0.001440 -0.001373 0.000000 0.047907 0.000000
# 6 0.000000 0.000000 0.000000 0.001453 0.000000 0.040757
#
#
# Mechanical properties :
#
#
# Convention : Reuss Voigt Hill
#
# Bulk Modulus (GPa) = 35.49623 48.22556 41.86090
# Shear Modulus (GPa) = 25.61082 29.80779 27.70931
#
# Velocity S-wave (km/s) = 3.43808 3.70911 3.57617
# Velocity P-wave (km/s) = 5.66952 6.37192 6.03096
#
# Compressibility (1/GPa) = 0.02817200
#
# Stress axis : x y z
#
# Youngs Moduli (GPa) = 82.95392 134.05644 37.21801
#
# Poissons Ratio (x) = 0.22610 0.13890
# Poissons Ratio (y) = 0.13991 0.13722
# Poissons Ratio (z) = 0.30959 0.49424
#
# Static dielectric constant tensor:
#      x y z
#    x 1.804380 0.000000 0.004700 
#    y 0.000000 1.845340 0.000000 
#    z 0.004700 0.000000 1.796180 
# 
# From -- ./inp_files/313712.got.cif
#   From: 2010.05.17/outbox.cif.g08.bks.cpg/sg15_157_cif.got.tgz:313712.got - 2010.06.03 18:47:42.
