data_PCOD9303537
_publ_section_title
;
Structure prediction by ZEFSAII (Michael W. Deem and Ramdas Pophale) SiO2 
 PCOD9303537
Probable space group: C 2/C
;
_chemical_formula_sum "Si O2"
_cell_formula_units_Z 60
_cell_length_a 25.101783
_cell_length_b 13.898107
_cell_length_c 20.055796
_cell_angle_alpha 90.000000
_cell_angle_beta 156.276697
_cell_angle_gamma 90.000000
_cell_volume 2814.957982
_symmetry_space_group_name_H-M "C 2/C"
_symmetry_group_IT_number 15
_symmetry_cell_setting 'monoclinic'
loop_
_space_group_symop_operation_xyz
x,y,z
-x,y,1/2-z
-x,-y,-z
x,-y,1/2+z
1/2+x,1/2+y,z
1/2-x,1/2+y,1/2-z
1/2-x,1/2-y,-z
1/2+x,1/2-y,1/2+z
loop_
_atom_site_type_symbol
_atom_site_label
_atom_site_fract_x
_atom_site_fract_y
_atom_site_fract_z
Si Si1 0.144259 0.514215 0.848377
Si Si2 0.483064 0.926673 0.919587
Si Si3 0.696640 0.674834 0.097104
Si Si4 0.048312 0.198144 0.438858
Si Si5 0.500000 0.182523 0.750000
Si Si6 0.651493 0.763038 0.175219
Si Si7 0.843296 0.683900 0.061095
Si Si8 0.413987 0.510171 0.085969
O O1 0.024899 0.479884 0.661683
O O2 0.112128 0.608072 0.854010
O O3 0.177120 0.425111 0.935432
O O4 0.264791 0.537520 0.937068
O O5 0.344293 0.868351 0.761655
O O6 0.594060 0.850202 0.065609
O O7 0.500000 0.000000 0.000000
O O8 0.656107 0.677608 0.127287
O O9 0.691603 0.776336 0.052316
O O10 0.597726 0.600219 0.948700
O O11 0.198098 0.216536 0.633126
O O12 0.033954 0.084230 0.409257
O O13 0.032348 0.251659 0.349989
O O14 0.943661 0.240065 0.371843
O O15 0.000000 0.701617 0.250000
O O16 0.750000 0.750000 0.000000
O O17 0.500000 0.519300 0.250000
#
# Coordination Sequence:
#
# PCOD9303537 Si02
#       8
#     8   8   8   8   4   8   8   8
#     4  11  25  42  73 107 138 189 240 287 362 429
#     4  11  22  45  69  98 144 191 235 281 350 435
#     4  11  25  42  72 105 150 185 234 293 369 420
#     4  12  27  48  74  99 143 187 247 293 355 415
#     4  12  26  48  74 104 136 186 248 296 340 440
#     4  12  26  46  70 104 140 192 232 297 355 428
#     4  12  23  43  70 109 148 183 231 294 359 428
#     4  11  24  44  68 105 141 189 231 304 358 407
#
# _framework density 21.314705
#
# number of rings (size 3 to 8) (size 9 to 14) (size 15 to 20)
#    0.000    0.533    5.333    4.400    1.867    1.600 
#    0.000    0.000    0.000    0.000    0.000    0.000 
#    0.000    0.000    0.000    0.000    0.000    0.000 
#
# Total GULP energy -167592.287959 kJ/mol
# GULP energy per Si atom -5586.409599 kJ/mol
# Density = 2.126619 g / cm^3
# Si number density = 21.314705 Si / 1000 Ang^3
#
#
#
# Elastic Constant Matrix: (Units=GPa)
#
#
# Indices 1 2 3 4 5 6 
#
# 1 96.3073 3.7638 14.5504 0.0001 -22.4415 0.0000
# 2 3.7638 52.4846 -5.9252 0.0000 -15.4840 0.0000
# 3 14.5504 -5.9252 68.0936 0.0001 -8.7490 0.0000
# 4 0.0001 0.0000 0.0001 15.4580 0.0001 -9.4828
# 5 -22.4415 -15.4840 -8.7490 0.0001 29.8020 0.0001
# 6 0.0000 0.0000 0.0000 -9.4828 0.0001 8.2184
#
#
#
# Elastic Compliance Matrix: (Units=1/GPa)
#
#
# Indices 1 2 3 4 5 6 
#
# 1 0.012917 0.002001 -0.001250 -0.000001 0.010400 -0.000001
# 2 0.002001 0.023693 0.003543 -0.000001 0.014856 -0.000002
# 3 -0.001250 0.003543 0.015979 -0.000001 0.005591 -0.000001
# 4 -0.000001 -0.000001 -0.000001 0.221422 -0.000003 0.255488
# 5 0.010400 0.014856 0.005591 -0.000003 0.050746 -0.000004
# 6 -0.000001 -0.000002 -0.000001 0.255488 -0.000004 0.416474
#
#
# Mechanical properties :
#
#
# Convention : Reuss Voigt Hill
#
# Bulk Modulus (GPa) = 16.34611 26.85150 21.59881
# Shear Modulus (GPa) = 6.63978 24.32879 15.48429
#
# Velocity S-wave (km/s) = 1.76688 3.38214 2.69822
# Velocity P-wave (km/s) = 3.44211 5.27985 4.45673
#
# Compressibility (1/GPa) = 0.06117665
#
# Stress axis : x y z
#
# Youngs Moduli (GPa) = 77.41509 42.20720 62.58070
#
# Poissons Ratio (x) = -0.08444 0.07822
# Poissons Ratio (y) = -0.15488 -0.22172
# Poissons Ratio (z) = 0.09676 -0.14954
#
# Static dielectric constant tensor:
#      x y z
#    x 1.781650 -0.000140 -0.022030 
#    y -0.000140 19.479810 0.000010 
#    z -0.022030 0.000010 1.793980 
# 
# From -- ./inp_files/219600.got.cif
#   From: 2010.05.17/outbox.cif.g08.bks.cpg/sg15_110_cif.got.tgz:219600.got - 2010.06.03 18:47:42.
