data_PCOD9303743
_publ_section_title
;
Structure prediction by ZEFSAII (Michael W. Deem and Ramdas Pophale) SiO2 
 PCOD9303743
Probable space group: C 2/C
;
_chemical_formula_sum "Si O2"
_cell_formula_units_Z 56
_cell_length_a 30.222569
_cell_length_b 13.567021
_cell_length_c 9.088646
_cell_angle_alpha 90.000000
_cell_angle_beta 35.117092
_cell_angle_gamma 90.000000
_cell_volume 2143.735276
_symmetry_space_group_name_H-M "C 2/C"
_symmetry_group_IT_number 15
_symmetry_cell_setting 'monoclinic'
loop_
_space_group_symop_operation_xyz
x,y,z
-x,y,1/2-z
-x,-y,-z
x,-y,1/2+z
1/2+x,1/2+y,z
1/2-x,1/2+y,1/2-z
1/2-x,1/2-y,-z
1/2+x,1/2-y,1/2+z
loop_
_atom_site_type_symbol
_atom_site_label
_atom_site_fract_x
_atom_site_fract_y
_atom_site_fract_z
Si Si1 0.279816 0.142446 0.210958
Si Si2 0.609028 0.289406 0.112654
Si Si3 0.831698 0.347658 0.244072
Si Si4 0.922303 0.000284 0.879597
Si Si5 0.311853 0.554994 0.444462
Si Si6 0.554623 0.981278 0.711094
Si Si7 0.918144 0.305540 0.512021
O O1 0.199405 0.195748 0.399003
O O2 0.243660 0.039129 0.369488
O O3 0.334202 0.210288 0.167467
O O4 0.327201 0.123207 0.928550
O O5 0.565984 0.393963 0.234029
O O6 0.582821 0.215986 0.312266
O O7 0.614031 0.245634 0.934980
O O8 0.742122 0.352034 0.441247
O O9 0.867715 0.421603 0.022854
O O10 0.877319 0.930464 0.889254
O O11 0.000000 0.970561 0.750000
O O12 0.857940 0.024352 0.175004
O O13 0.500000 0.921396 0.750000
O O14 0.573310 0.083473 0.575647
O O15 0.500000 0.000000 0.000000
O O16 0.000000 0.256384 0.250000
#
# Coordination Sequence:
#
# PCOD9303743 Si02
#       7
#     8   8   8   8   8   8   8
#     4  11  24  44  68 104 138 188 242 300 358 430
#     4  11  26  44  69 103 143 184 238 298 371 437
#     4  12  23  42  73 102 143 190 233 295 364 436
#     4  11  26  49  74 106 143 188 247 308 372 428
#     4  11  23  44  75 104 137 188 248 298 358 432
#     4  11  23  38  64 101 139 184 229 280 347 430
#     4  11  24  43  67 100 142 186 234 289 362 433
#
# _framework density 26.122626
#
# number of rings (size 3 to 8) (size 9 to 14) (size 15 to 20)
#    0.000    0.857    4.286    3.857    4.000    1.714 
#    0.000    2.857    0.000    0.000    0.000    0.000 
#    0.000    0.000    0.000    0.000    0.000    0.000 
#
# Total GULP energy -156021.997277 kJ/mol
# GULP energy per Si atom -5572.214188 kJ/mol
# Density = 2.606317 g / cm^3
# Si number density = 26.122626 Si / 1000 Ang^3
#
#
#
# Elastic Constant Matrix: (Units=GPa)
#
#
# Indices 1 2 3 4 5 6 
#
# 1 122.4070 -8.3327 19.3899 0.0000 -1.1671 0.0000
# 2 -8.3327 52.2390 21.2890 0.0000 17.4567 0.0000
# 3 19.3899 21.2890 158.0056 0.0000 28.2004 0.0000
# 4 0.0000 0.0000 0.0000 20.4303 0.0000 8.9449
# 5 -1.1671 17.4567 28.2004 0.0000 47.1349 0.0000
# 6 0.0000 0.0000 0.0000 8.9449 0.0000 26.4762
#
#
#
# Elastic Compliance Matrix: (Units=1/GPa)
#
#
# Indices 1 2 3 4 5 6 
#
# 1 0.008508 0.001788 -0.001348 0.000000 0.000355 0.000000
# 2 0.001788 0.022627 -0.001993 0.000000 -0.007143 0.000000
# 3 -0.001348 -0.001993 0.007431 0.000000 -0.003741 0.000000
# 4 0.000000 0.000000 0.000000 0.057444 0.000000 -0.019407
# 5 0.000355 -0.007143 -0.003741 0.000000 0.026108 0.000000
# 6 0.000000 0.000000 0.000000 -0.019407 0.000000 0.044326
#
#
# Mechanical properties :
#
#
# Convention : Reuss Voigt Hill
#
# Bulk Modulus (GPa) = 28.20172 44.14934 36.17553
# Shear Modulus (GPa) = 27.56774 38.82865 33.19820
#
# Velocity S-wave (km/s) = 3.25209 3.85957 3.56878
# Velocity P-wave (km/s) = 4.99208 6.06623 5.55518
#
# Compressibility (1/GPa) = 0.03545883
#
# Stress axis : x y z
#
# Youngs Moduli (GPa) = 117.53425 44.19428 134.57931
#
# Poissons Ratio (x) = -0.07902 0.18147
# Poissons Ratio (y) = -0.21015 0.26824
# Poissons Ratio (z) = 0.15848 0.08809
#
# Static dielectric constant tensor:
#      x y z
#    x 2.960160 0.000000 -0.590390 
#    y 0.000000 2.218700 0.000000 
#    z -0.590390 0.000000 2.455770 
# 
# From -- ./inp_files/70471.got.cif
#   From: 2010.05.17/outbox.cif.g08.bks.cpg/sg15_36_cif.got.tgz:70471.got - 2010.06.03 18:47:42.
