data_PCOD9303200
_publ_section_title
;
Structure prediction by ZEFSAII (Michael W. Deem and Ramdas Pophale) SiO2 
 PCOD9303200
Probable space group: C 2/C
;
_chemical_formula_sum "Si O2"
_cell_formula_units_Z 56
_cell_length_a 8.818685
_cell_length_b 12.188903
_cell_length_c 25.293655
_cell_angle_alpha 90.000000
_cell_angle_beta 103.437683
_cell_angle_gamma 90.000000
_cell_volume 2644.385018
_symmetry_space_group_name_H-M "C 2/C"
_symmetry_group_IT_number 15
_symmetry_cell_setting 'monoclinic'
loop_
_space_group_symop_operation_xyz
x,y,z
-x,y,1/2-z
-x,-y,-z
x,-y,1/2+z
1/2+x,1/2+y,z
1/2-x,1/2+y,1/2-z
1/2-x,1/2-y,-z
1/2+x,1/2-y,1/2+z
loop_
_atom_site_type_symbol
_atom_site_label
_atom_site_fract_x
_atom_site_fract_y
_atom_site_fract_z
Si Si1 0.812688 0.240626 0.155861
Si Si2 0.972296 0.958868 0.806014
Si Si3 0.340307 0.052366 0.006495
Si Si4 0.783611 0.833675 0.454712
Si Si5 0.638462 0.980119 0.302448
Si Si6 0.587236 0.372261 0.403963
Si Si7 0.533011 0.147780 0.378984
O O1 0.835776 0.288758 0.098970
O O2 0.806247 0.353731 0.187972
O O3 0.652302 0.169993 0.140819
O O4 0.945410 0.158769 0.184841
O O5 0.787910 0.951169 0.797263
O O6 0.000000 0.008686 0.750000
O O7 0.037326 0.029719 0.860773
O O8 0.396141 0.133836 0.056684
O O9 0.243734 0.954322 0.025216
O O10 0.238952 0.101058 0.950735
O O11 0.500000 0.000000 0.000000
O O12 0.750000 0.750000 0.500000
O O13 0.946370 0.844855 0.434585
O O14 0.500000 0.986052 0.250000
O O15 0.579048 0.039710 0.350739
O O16 0.605911 0.264760 0.368710
#
# Coordination Sequence:
#
# PCOD9303200 Si02
#       7
#     8   8   8   8   8   8   8
#     4  11  24  49  70 105 146 184 242 300 363 437
#     4  12  25  48  73 102 140 192 240 303 373 429
#     4  12  23  38  67 108 144 188 236 292 355 438
#     4  11  22  42  71 103 145 191 236 295 363 435
#     4  12  26  48  73 102 141 185 247 304 360 434
#     4  11  24  45  70 103 152 187 247 298 363 445
#     4  11  23  46  69 103 145 184 238 294 358 431
#
# _framework density 21.176946999999998
#
# number of rings (size 3 to 8) (size 9 to 14) (size 15 to 20)
#    0.000    0.571    4.286    5.571    0.000    2.857 
#    7.714    0.000    0.000    0.000    0.000    0.000 
#    0.000    0.000    0.000    0.000    0.000    0.000 
#
# Total GULP energy -156251.708127 kJ/mol
# GULP energy per Si atom -5580.418147 kJ/mol
# Density = 2.112875 g / cm^3
# Si number density = 21.176947 Si / 1000 Ang^3
#
#
#
# Elastic Constant Matrix: (Units=GPa)
#
#
# Indices 1 2 3 4 5 6 
#
# 1 83.3927 37.1384 37.2361 0.0000 21.4865 0.0000
# 2 37.1384 99.2465 15.5665 0.0000 5.6209 0.0000
# 3 37.2361 15.5665 115.8107 0.0000 23.3001 0.0000
# 4 0.0000 0.0000 0.0000 13.3599 0.0000 15.5342
# 5 21.4865 5.6209 23.3001 0.0000 34.8721 0.0000
# 6 0.0000 0.0000 0.0000 15.5342 0.0000 21.3520
#
#
#
# Elastic Compliance Matrix: (Units=1/GPa)
#
#
# Indices 1 2 3 4 5 6 
#
# 1 0.018171 -0.005806 -0.003463 0.000000 -0.007946 0.000000
# 2 -0.005806 0.012170 -0.000109 0.000000 0.001689 0.000000
# 3 -0.003463 -0.000109 0.010779 0.000000 -0.005051 0.000000
# 4 0.000000 0.000000 0.000000 0.485836 0.000000 -0.353459
# 5 -0.007946 0.001689 -0.005051 0.000000 0.036675 0.000000
# 6 0.000000 0.000000 0.000000 -0.353459 0.000000 0.303986
#
#
# Mechanical properties :
#
#
# Convention : Reuss Voigt Hill
#
# Bulk Modulus (GPa) = 44.71566 53.14801 48.93184
# Shear Modulus (GPa) = 5.59392 27.81738 16.70565
#
# Velocity S-wave (km/s) = 1.62704 3.62825 2.81171
# Velocity P-wave (km/s) = 4.96898 6.53482 5.80494
#
# Compressibility (1/GPa) = 0.02236353
#
# Stress axis : x y z
#
# Youngs Moduli (GPa) = 55.03243 82.16846 92.77220
#
# Poissons Ratio (x) = 0.47711 0.32130
# Poissons Ratio (y) = 0.31954 0.01008
# Poissons Ratio (z) = 0.19059 0.00893
#
# Static dielectric constant tensor:
#      x y z
#    x 1.777340 0.000000 -0.047290 
#    y 0.000000 1.502620 0.000000 
#    z -0.047290 0.000000 1.764360 
# 
# From -- ./inp_files/288048.got.cif
#   From: 2010.05.17/outbox.cif.g08.bks.cpg/sg15_145_cif.got.tgz:288048.got - 2010.06.03 18:47:42.
