data_PCOD9303742
_publ_section_title
;
Structure prediction by ZEFSAII (Michael W. Deem and Ramdas Pophale) SiO2 
 PCOD9303742
Probable space group: C 2/C
;
_chemical_formula_sum "Si O2"
_cell_formula_units_Z 60
_cell_length_a 17.160048
_cell_length_b 15.358033
_cell_length_c 13.095967
_cell_angle_alpha 90.000000
_cell_angle_beta 130.032727
_cell_angle_gamma 90.000000
_cell_volume 2642.636080
_symmetry_space_group_name_H-M "C 2/C"
_symmetry_group_IT_number 15
_symmetry_cell_setting 'monoclinic'
loop_
_space_group_symop_operation_xyz
x,y,z
-x,y,1/2-z
-x,-y,-z
x,-y,1/2+z
1/2+x,1/2+y,z
1/2-x,1/2+y,1/2-z
1/2-x,1/2-y,-z
1/2+x,1/2-y,1/2+z
loop_
_atom_site_type_symbol
_atom_site_label
_atom_site_fract_x
_atom_site_fract_y
_atom_site_fract_z
Si Si1 0.381252 0.471671 0.903044
Si Si2 0.168113 0.204970 0.051516
Si Si3 0.959184 0.305264 0.392716
Si Si4 0.842196 0.253733 0.843793
Si Si5 0.815636 0.048604 0.121257
Si Si6 0.387957 0.642069 0.693244
Si Si7 0.000000 0.164512 0.250000
Si Si8 0.278364 0.112066 0.641668
O O1 0.380302 0.389229 0.974368
O O2 0.340903 0.435969 0.760434
O O3 0.296547 0.540453 0.870344
O O4 0.500000 0.500000 0.000000
O O5 0.105828 0.275736 0.063368
O O6 0.272657 0.198650 0.202207
O O7 0.154836 0.215353 0.919497
O O8 0.968817 0.227301 0.317162
O O9 0.892131 0.380411 0.283119
O O10 0.073159 0.312930 0.532027
O O11 0.889545 0.177893 0.810333
O O12 0.773254 0.204796 0.870646
O O13 0.909105 0.099069 0.144732
O O14 0.819441 0.943970 0.124122
O O15 0.722676 0.088651 0.979370
O O16 0.500000 0.619770 0.750000
#
# Coordination Sequence:
#
# PCOD9303742 Si02
#       8
#     8   8   8   8   8   8   4   8
#     4  12  22  40  66  97 128 160 214 279 334 388
#     4  11  23  38  63  94 124 166 217 270 334 391
#     4  11  24  41  61  92 132 175 212 264 331 402
#     4  11  23  41  61  92 130 171 215 267 330 396
#     4  12  22  34  63  98 127 158 206 271 331 380
#     4  12  21  35  64  96 127 161 212 276 334 384
#     4  12  22  36  62  96 128 160 212 264 324 394
#     4  11  24  40  64  96 131 168 217 270 337 395
#
# _framework density 22.704601
#
# number of rings (size 3 to 8) (size 9 to 14) (size 15 to 20)
#    0.000    0.533    7.333    2.800    0.000    1.600 
#    0.000    0.667    0.000    0.000    0.000    0.000 
#    0.000    0.000    0.000    0.000    0.000    0.000 
#
# Total GULP energy -167372.762158 kJ/mol
# GULP energy per Si atom -5579.092072 kJ/mol
# Density = 2.265292 g / cm^3
# Si number density = 22.704601 Si / 1000 Ang^3
#
#
#
# Elastic Constant Matrix: (Units=GPa)
#
#
# Indices 1 2 3 4 5 6 
#
# 1 41.3132 14.7526 41.7004 0.0000 -11.0317 0.0000
# 2 14.7526 38.4053 20.7760 0.0000 -0.2170 0.0000
# 3 41.7004 20.7760 179.6584 0.0000 -5.6612 0.0000
# 4 0.0000 0.0000 0.0000 38.9099 0.0000 -1.1613
# 5 -11.0317 -0.2170 -5.6612 0.0000 39.7126 0.0000
# 6 0.0000 0.0000 0.0000 -1.1613 0.0000 29.5168
#
#
#
# Elastic Compliance Matrix: (Units=1/GPa)
#
#
# Indices 1 2 3 4 5 6 
#
# 1 0.037812 -0.010544 -0.007261 0.000000 0.009411 0.000000
# 2 -0.010544 0.030719 -0.001198 0.000000 -0.002932 0.000000
# 3 -0.007261 -0.001198 0.007359 0.000000 -0.000974 0.000000
# 4 0.000000 0.000000 0.000000 0.025731 0.000000 0.001012
# 5 0.009411 -0.002932 -0.000974 0.000000 0.027640 0.000000
# 6 0.000000 0.000000 0.000000 0.001012 0.000000 0.033919
#
#
# Mechanical properties :
#
#
# Convention : Reuss Voigt Hill
#
# Bulk Modulus (GPa) = 26.39442 45.98166 36.18804
# Shear Modulus (GPa) = 23.38487 33.77105 28.57796
#
# Velocity S-wave (km/s) = 3.21278 3.86088 3.55164
# Velocity P-wave (km/s) = 5.04113 6.33808 5.72644
#
# Compressibility (1/GPa) = 0.03788679
#
# Stress axis : x y z
#
# Youngs Moduli (GPa) = 26.44654 32.55264 135.88489
#
# Poissons Ratio (x) = 0.34323 0.98662
# Poissons Ratio (y) = 0.27885 0.16273
# Poissons Ratio (z) = 0.19202 0.03898
#
# Static dielectric constant tensor:
#      x y z
#    x 1.980030 0.000000 -0.061440 
#    y 0.000000 1.847080 0.000000 
#    z -0.061440 0.000000 1.935530 
# 
# From -- ./inp_files/168638.got.cif
#   From: 2010.05.17/outbox.cif.g08.bks.cpg/sg15_85_cif.got.tgz:168638.got - 2010.06.03 18:47:42.
