data_PCOD9303949
_publ_section_title
;
Structure prediction by ZEFSAII (Michael W. Deem and Ramdas Pophale) SiO2 
 PCOD9303949
Probable space group: C 2/C
;
_chemical_formula_sum "Si O2"
_cell_formula_units_Z 40
_cell_length_a 5.084414
_cell_length_b 13.276933
_cell_length_c 25.007990
_cell_angle_alpha 90.000000
_cell_angle_beta 105.251420
_cell_angle_gamma 90.000000
_cell_volume 1628.718805
_symmetry_space_group_name_H-M "C 2/C"
_symmetry_group_IT_number 15
_symmetry_cell_setting 'monoclinic'
loop_
_space_group_symop_operation_xyz
x,y,z
-x,y,1/2-z
-x,-y,-z
x,-y,1/2+z
1/2+x,1/2+y,z
1/2-x,1/2+y,1/2-z
1/2-x,1/2-y,-z
1/2+x,1/2-y,1/2+z
loop_
_atom_site_type_symbol
_atom_site_label
_atom_site_fract_x
_atom_site_fract_y
_atom_site_fract_z
Si Si1 0.867689 0.906424 0.859039
Si Si2 0.428190 0.010881 0.408659
Si Si3 0.045634 0.713014 0.033670
Si Si4 0.647556 0.697614 0.874771
Si Si5 0.500000 0.375380 0.250000
Si Si6 0.000000 0.512873 0.250000
O O1 0.718432 0.978960 0.894564
O O2 0.839825 0.794836 0.879375
O O3 0.675426 0.918719 0.798258
O O4 0.172910 0.938826 0.862880
O O5 0.440955 0.091731 0.457747
O O6 0.320796 0.897377 0.405633
O O7 0.071376 0.767851 0.092738
O O8 0.750000 0.750000 0.000000
O O9 0.250000 0.750000 0.000000
O O10 0.515173 0.677945 0.809155
O O11 0.223678 0.440647 0.235267
#
# Coordination Sequence:
#
# PCOD9303949 Si02
#       6
#     8   8   8   8   4   4
#     4  11  23  41  66 100 143 181 231 288 353 430
#     4  11  24  44  71 102 139 182 237 299 353 428
#     4  11  26  47  72 107 143 191 253 305 360 428
#     4  11  25  46  74 104 145 192 238 296 378 433
#     4  12  25  42  71 108 138 190 237 288 375 456
#     4  12  21  42  65 100 146 184 231 296 349 438
#
# _framework density 24.559183000000001
#
# number of rings (size 3 to 8) (size 9 to 14) (size 15 to 20)
#    0.000    0.800    4.000    3.000    0.000   11.200 
#    0.000    2.000    0.000    0.000    0.000    0.000 
#    0.000    0.000    0.000    0.000    0.000    0.000 
#
# Total GULP energy -111874.442728 kJ/mol
# GULP energy per Si atom -5593.722136 kJ/mol
# Density = 2.450329 g / cm^3
# Si number density = 24.559183 Si / 1000 Ang^3
#
#
#
# Elastic Constant Matrix: (Units=GPa)
#
#
# Indices 1 2 3 4 5 6 
#
# 1 129.9586 22.3153 47.0507 0.0000 -2.4550 0.0000
# 2 22.3153 165.4142 46.5814 0.0000 -8.9713 0.0000
# 3 47.0507 46.5814 126.9312 0.0000 -27.0578 0.0000
# 4 0.0000 0.0000 0.0000 46.1851 0.0000 0.2332
# 5 -2.4550 -8.9713 -27.0578 0.0000 40.7674 0.0000
# 6 0.0000 0.0000 0.0000 0.2332 0.0000 21.3769
#
#
#
# Elastic Compliance Matrix: (Units=1/GPa)
#
#
# Indices 1 2 3 4 5 6 
#
# 1 0.009032 -0.000295 -0.003655 0.000000 -0.001947 0.000000
# 2 -0.000295 0.006753 -0.002395 0.000000 -0.000121 0.000000
# 3 -0.003655 -0.002395 0.011593 0.000000 0.006947 0.000000
# 4 0.000000 0.000000 0.000000 0.021653 0.000000 -0.000236
# 5 -0.001947 -0.000121 0.006947 0.000000 0.028996 0.000000
# 6 0.000000 0.000000 0.000000 -0.000236 0.000000 0.046782
#
#
# Mechanical properties :
#
#
# Convention : Reuss Voigt Hill
#
# Bulk Modulus (GPa) = 68.07807 72.68876 70.38341
# Shear Modulus (GPa) = 35.11386 42.08966 38.60176
#
# Velocity S-wave (km/s) = 3.78533 4.14430 3.96888
# Velocity P-wave (km/s) = 6.84727 7.24996 7.05149
#
# Compressibility (1/GPa) = 0.01468902
#
# Stress axis : x y z
#
# Youngs Moduli (GPa) = 110.72044 148.08206 86.26097
#
# Poissons Ratio (x) = 0.04366 0.31525
# Poissons Ratio (y) = 0.03265 0.20657
# Poissons Ratio (z) = 0.40464 0.35462
#
# Static dielectric constant tensor:
#      x y z
#    x 1.878680 0.000000 0.013120 
#    y 0.000000 1.950750 0.000000 
#    z 0.013120 0.000000 2.071670 
# 
# From -- ./inp_files/285275.got.cif
#   From: 2010.05.17/outbox.cif.g08.bks.cpg/sg15_143_cif.got.tgz:285275.got - 2010.06.03 18:47:42.
