data_PCOD9303787
_publ_section_title
;
Structure prediction by ZEFSAII (Michael W. Deem and Ramdas Pophale) SiO2 
 PCOD9303787
Probable space group: C 2/C
;
_chemical_formula_sum "Si O2"
_cell_formula_units_Z 36
_cell_length_a 25.877663
_cell_length_b 7.592857
_cell_length_c 13.491627
_cell_angle_alpha 90.000000
_cell_angle_beta 139.398811
_cell_angle_gamma 90.000000
_cell_volume 1725.184123
_symmetry_space_group_name_H-M "C 2/C"
_symmetry_group_IT_number 15
_symmetry_cell_setting 'monoclinic'
loop_
_space_group_symop_operation_xyz
x,y,z
-x,y,1/2-z
-x,-y,-z
x,-y,1/2+z
1/2+x,1/2+y,z
1/2-x,1/2+y,1/2-z
1/2-x,1/2-y,-z
1/2+x,1/2-y,1/2+z
loop_
_atom_site_type_symbol
_atom_site_label
_atom_site_fract_x
_atom_site_fract_y
_atom_site_fract_z
Si Si1 0.582635 0.828554 0.059830
Si Si2 0.556665 0.224116 0.008412
Si Si3 0.182677 0.576722 0.324100
Si Si4 0.640774 0.307434 0.437850
Si Si5 0.500000 0.456863 0.750000
O O1 0.545359 0.015150 0.967862
O O2 0.647562 0.893332 0.234472
O O3 0.513236 0.729742 0.016448
O O4 0.622210 0.735266 0.024918
O O5 0.641011 0.218937 0.188204
O O6 0.546821 0.339192 0.897404
O O7 0.276653 0.590048 0.454074
O O8 0.152502 0.633367 0.388302
O O9 0.565410 0.419821 0.293594
#
# Coordination Sequence:
#
# PCOD9303787 Si02
#       5
#     8   8   8   8   4
#     4   9  21  41  67  80 122 170 204 242 306 379
#     4   9  22  40  62  89 118 164 210 244 309 366
#     4   9  22  41  62  90 120 166 208 250 302 375
#     4  11  23  39  64  92 128 159 205 262 309 354
#     4  12  26  36  64 100 126 154 206 270 302 358
#
# _framework density 20.867339000000001
#
# number of rings (size 3 to 8) (size 9 to 14) (size 15 to 20)
#    1.333    0.889    0.000    1.333    6.222    3.556 
#    4.000    1.111    0.000    0.000    0.000    0.000 
#    0.000    0.000    0.000    0.000    0.000    0.000 
#
# Total GULP energy -100357.722883 kJ/mol
# GULP energy per Si atom -5575.429049 kJ/mol
# Density = 2.081984 g / cm^3
# Si number density = 20.867339 Si / 1000 Ang^3
#
#
#
# Elastic Constant Matrix: (Units=GPa)
#
#
# Indices 1 2 3 4 5 6 
#
# 1 59.1200 6.4736 0.8483 0.0000 12.5837 0.0000
# 2 6.4736 25.5004 -3.7097 0.0000 2.1603 0.0000
# 3 0.8483 -3.7097 74.6417 0.0000 18.8731 0.0000
# 4 0.0000 0.0000 0.0000 30.2070 0.0000 -13.0175
# 5 12.5837 2.1603 18.8731 0.0000 28.9263 0.0000
# 6 0.0000 0.0000 0.0000 -13.0175 0.0000 11.7436
#
#
#
# Elastic Compliance Matrix: (Units=1/GPa)
#
#
# Indices 1 2 3 4 5 6 
#
# 1 0.019305 -0.003819 0.001967 0.000000 -0.009396 0.000000
# 2 -0.003819 0.040886 0.002907 0.000000 -0.003289 0.000000
# 3 0.001967 0.002907 0.016515 0.000000 -0.011848 0.000000
# 4 0.000000 0.000000 0.000000 0.063381 0.000000 0.070257
# 5 -0.009396 -0.003289 -0.011848 0.000000 0.046634 0.000000
# 6 0.000000 0.000000 0.000000 0.070257 0.000000 0.163030
#
#
# Mechanical properties :
#
#
# Convention : Reuss Voigt Hill
#
# Bulk Modulus (GPa) = 12.68778 18.49849 15.59314
# Shear Modulus (GPa) = 13.37209 24.55206 18.96207
#
# Velocity S-wave (km/s) = 2.53418 3.43385 3.01773
# Velocity P-wave (km/s) = 3.82834 4.96043 4.43069
#
# Compressibility (1/GPa) = 0.07881598
#
# Stress axis : x y z
#
# Youngs Moduli (GPa) = 51.80119 24.45821 60.55012
#
# Poissons Ratio (x) = 0.09340 -0.11908
# Poissons Ratio (y) = 0.19781 -0.17603
# Poissons Ratio (z) = -0.10187 -0.07110
#
# Static dielectric constant tensor:
#      x y z
#    x 1.720470 0.000000 -0.014770 
#    y 0.000000 1.759670 0.000000 
#    z -0.014770 0.000000 1.753910 
# 
# From -- ./inp_files/116145.got.cif
#   From: 2010.05.17/outbox.cif.g08.bks.cpg/sg15_59_cif.got.tgz:116145.got - 2010.06.03 18:47:42.
