data_PCOD9303361
_publ_section_title
;
Structure prediction by ZEFSAII (Michael W. Deem and Ramdas Pophale) SiO2 
 PCOD9303361
Probable space group: C 2/C
;
_chemical_formula_sum "Si O2"
_cell_formula_units_Z 40
_cell_length_a 13.955626
_cell_length_b 22.491043
_cell_length_c 8.621236
_cell_angle_alpha 90.000000
_cell_angle_beta 40.937955
_cell_angle_gamma 90.000000
_cell_volume 1773.085860
_symmetry_space_group_name_H-M "C 2/C"
_symmetry_group_IT_number 15
_symmetry_cell_setting 'monoclinic'
loop_
_space_group_symop_operation_xyz
x,y,z
-x,y,1/2-z
-x,-y,-z
x,-y,1/2+z
1/2+x,1/2+y,z
1/2-x,1/2+y,1/2-z
1/2-x,1/2-y,-z
1/2+x,1/2-y,1/2+z
loop_
_atom_site_type_symbol
_atom_site_label
_atom_site_fract_x
_atom_site_fract_y
_atom_site_fract_z
Si Si1 0.331444 0.875810 0.986906
Si Si2 0.116323 0.488238 0.989679
Si Si3 0.561790 0.692583 0.348822
Si Si4 0.875070 0.086245 0.019979
Si Si5 0.280263 0.259616 0.279784
O O1 0.500000 0.860958 0.750000
O O2 0.227247 0.873005 0.964361
O O3 0.272448 0.828222 0.181953
O O4 0.331605 0.946398 0.021053
O O5 0.259899 0.455306 0.751224
O O6 0.000000 0.457274 0.250000
O O7 0.000000 0.500000 0.000000
O O8 0.500000 0.688882 0.250000
O O9 0.549100 0.628560 0.446936
O O10 0.453679 0.739598 0.559719
O O11 0.716595 0.718332 0.220461
O O12 0.000000 0.060469 0.750000
O O13 0.250000 0.250000 0.500000
#
# Coordination Sequence:
#
# PCOD9303361 Si02
#       5
#     8   8   8   8   8
#     4  11  22  43  74 106 140 193 252 283 368 445
#     4  11  24  46  72 108 150 191 246 303 364 446
#     4  12  27  46  70 113 149 182 244 316 373 434
#     4  12  24  49  75 107 148 197 250 302 368 445
#     4  12  23  46  77 103 139 198 245 297 365 454
#
# _framework density 22.559539000000001
#
# number of rings (size 3 to 8) (size 9 to 14) (size 15 to 20)
#    0.000    0.400    8.000    2.400    0.000    2.400 
#    0.000    2.000    0.000    0.000    0.000    0.000 
#    0.000    0.000    0.000    0.000    0.000    0.000 
#
# Total GULP energy -111380.545868 kJ/mol
# GULP energy per Si atom -5569.027293 kJ/mol
# Density = 2.250819 g / cm^3
# Si number density = 22.559539 Si / 1000 Ang^3
#
#
#
# Elastic Constant Matrix: (Units=GPa)
#
#
# Indices 1 2 3 4 5 6 
#
# 1 120.3116 20.7329 34.9380 0.0000 11.3684 0.0000
# 2 20.7329 84.5004 34.4008 0.0000 3.6315 0.0000
# 3 34.9380 34.4008 127.8268 0.0000 -6.9167 0.0000
# 4 0.0000 0.0000 0.0000 30.4915 0.0000 -2.1012
# 5 11.3684 3.6315 -6.9167 0.0000 42.4724 0.0000
# 6 0.0000 0.0000 0.0000 -2.1012 0.0000 35.8503
#
#
#
# Elastic Compliance Matrix: (Units=1/GPa)
#
#
# Indices 1 2 3 4 5 6 
#
# 1 0.009492 -0.001223 -0.002418 0.000000 -0.002830 0.000000
# 2 -0.001223 0.013576 -0.003394 0.000000 -0.001386 0.000000
# 3 -0.002418 -0.003394 0.009532 0.000000 0.002490 0.000000
# 4 0.000000 0.000000 0.000000 0.032929 0.000000 0.001930
# 5 -0.002830 -0.001386 0.002490 0.000000 0.024826 0.000000
# 6 0.000000 0.000000 0.000000 0.001930 0.000000 0.028007
#
#
# Mechanical properties :
#
#
# Convention : Reuss Voigt Hill
#
# Bulk Modulus (GPa) = 53.96922 56.97582 55.47252
# Shear Modulus (GPa) = 36.07248 37.93399 37.00323
#
# Velocity S-wave (km/s) = 4.00308 4.10506 4.05439
# Velocity P-wave (km/s) = 6.73358 6.91226 6.82350
#
# Compressibility (1/GPa) = 0.01852908
#
# Stress axis : x y z
#
# Youngs Moduli (GPa) = 105.34964 73.66100 104.90624
#
# Poissons Ratio (x) = 0.09007 0.25372
# Poissons Ratio (y) = 0.12882 0.35608
# Poissons Ratio (z) = 0.25479 0.25003
#
# Static dielectric constant tensor:
#      x y z
#    x 1.533870 0.000000 -0.188500 
#    y 0.000000 1.814140 0.000000 
#    z -0.188500 0.000000 1.748110 
# 
# From -- ./inp_files/41958.got.cif
#   From: 2010.05.17/outbox.cif.g08.bks.cpg/sg15_21_cif.got.tgz:41958.got - 2010.06.03 18:47:42.
