data_PCOD9303454
_publ_section_title
;
Structure prediction by ZEFSAII (Michael W. Deem and Ramdas Pophale) SiO2 
 PCOD9303454
Probable space group: C 2/C
;
_chemical_formula_sum "Si O2"
_cell_formula_units_Z 60
_cell_length_a 9.075106
_cell_length_b 23.377733
_cell_length_c 21.080211
_cell_angle_alpha 90.000000
_cell_angle_beta 139.338180
_cell_angle_gamma 90.000000
_cell_volume 2914.107084
_symmetry_space_group_name_H-M "C 2/C"
_symmetry_group_IT_number 15
_symmetry_cell_setting 'monoclinic'
loop_
_space_group_symop_operation_xyz
x,y,z
-x,y,1/2-z
-x,-y,-z
x,-y,1/2+z
1/2+x,1/2+y,z
1/2-x,1/2+y,1/2-z
1/2-x,1/2-y,-z
1/2+x,1/2-y,1/2+z
loop_
_atom_site_type_symbol
_atom_site_label
_atom_site_fract_x
_atom_site_fract_y
_atom_site_fract_z
Si Si1 0.542975 0.258825 0.978310
Si Si2 0.189416 0.744675 0.261612
Si Si3 0.647052 0.141989 0.526548
Si Si4 0.248792 0.634912 0.200071
Si Si5 0.639072 0.668046 0.633865
Si Si6 0.500000 0.069126 0.750000
Si Si7 0.208783 0.014580 0.236882
Si Si8 0.234875 0.476342 0.101689
O O1 0.364377 0.282497 0.869274
O O2 0.438000 0.199488 0.968439
O O3 0.750000 0.250000 0.000000
O O4 0.622453 0.293424 0.065557
O O5 0.153047 0.692238 0.201532
O O6 0.235712 0.797082 0.227353
O O7 0.000000 0.764183 0.250000
O O8 0.439576 0.121316 0.414690
O O9 0.712508 0.091869 0.596047
O O10 0.878320 0.153793 0.564413
O O11 0.500000 0.642895 0.250000
O O12 0.264238 0.583014 0.255468
O O13 0.792539 0.612867 0.669520
O O14 0.601525 0.024923 0.732248
O O15 0.227522 0.000795 0.316978
O O16 0.956044 0.995291 0.133860
O O17 0.000000 0.500000 0.000000
#
# Coordination Sequence:
#
# PCOD9303454 Si02
#       8
#     8   8   8   8   8   4   8   8
#     4  12  26  43  68 106 137 182 236 287 359 433
#     4  12  26  44  72 103 139 189 231 299 370 425
#     4  12  23  44  73  97 140 185 231 295 362 433
#     4  12  24  46  70 103 142 185 237 300 360 426
#     4  12  26  48  68 104 147 185 238 296 364 436
#     4  12  28  46  68 102 148 194 234 308 354 420
#     4  11  25  46  68 101 140 188 246 289 357 431
#     4  11  22  44  72 101 129 181 241 289 360 428
#
# _framework density 20.589497000000001
#
# number of rings (size 3 to 8) (size 9 to 14) (size 15 to 20)
#    0.000    0.267    6.667    2.800    5.600    0.000 
#    0.000    1.333    0.000    0.000    0.000    0.000 
#    0.000    0.000    0.000    0.000    0.000    0.000 
#
# Total GULP energy -167272.653406 kJ/mol
# GULP energy per Si atom -5575.755114 kJ/mol
# Density = 2.054263 g / cm^3
# Si number density = 20.589497 Si / 1000 Ang^3
#
#
#
# Elastic Constant Matrix: (Units=GPa)
#
#
# Indices 1 2 3 4 5 6 
#
# 1 113.8401 23.0378 28.8733 0.0000 14.6007 0.0000
# 2 23.0378 72.4292 6.3978 0.0000 0.8453 0.0000
# 3 28.8733 6.3978 70.8828 -0.0001 6.9887 0.0000
# 4 0.0000 0.0000 -0.0001 79.4344 0.0000 12.5901
# 5 14.6007 0.8453 6.9887 0.0000 31.6670 0.0000
# 6 0.0000 0.0000 0.0000 12.5901 0.0000 32.3488
#
#
#
# Elastic Compliance Matrix: (Units=1/GPa)
#
#
# Indices 1 2 3 4 5 6 
#
# 1 0.010887 -0.003083 -0.003751 0.000000 -0.004109 0.000000
# 2 -0.003083 0.014791 -0.000184 0.000000 0.001068 0.000000
# 3 -0.003751 -0.000184 0.015826 0.000000 -0.001758 0.000000
# 4 0.000000 0.000000 0.000000 0.013417 0.000000 -0.005222
# 5 -0.004109 0.001068 -0.001758 0.000000 0.033833 0.000000
# 6 0.000000 0.000000 0.000000 -0.005222 0.000000 0.032945
#
#
# Mechanical properties :
#
#
# Convention : Reuss Voigt Hill
#
# Bulk Modulus (GPa) = 36.40871 41.52998 38.96935
# Shear Modulus (GPa) = 34.50858 41.94623 38.22741
#
# Velocity S-wave (km/s) = 4.09837 4.51850 4.31356
# Velocity P-wave (km/s) = 6.33381 6.88743 6.61641
#
# Compressibility (1/GPa) = 0.02746596
#
# Stress axis : x y z
#
# Youngs Moduli (GPa) = 91.85518 67.60785 63.18814
#
# Poissons Ratio (x) = 0.20847 0.23703
# Poissons Ratio (y) = 0.28323 0.01164
# Poissons Ratio (z) = 0.34456 0.01246
#
# Static dielectric constant tensor:
#      x y z
#    x 1.715270 0.000000 0.037870 
#    y 0.000000 1.771000 0.000000 
#    z 0.037870 0.000000 1.735760 
# 
# From -- ./inp_files/234593.got.cif
#   From: 2010.05.17/outbox.cif.g08.bks.cpg/sg15_118_cif.got.tgz:234593.got - 2010.06.03 18:47:42.
