data_PCOD9303604
_publ_section_title
;
Structure prediction by ZEFSAII (Michael W. Deem and Ramdas Pophale) SiO2 
 PCOD9303604
Probable space group: C 2/C
;
_chemical_formula_sum "Si O2"
_cell_formula_units_Z 36
_cell_length_a 15.829373
_cell_length_b 6.632067
_cell_length_c 16.343153
_cell_angle_alpha 90.000000
_cell_angle_beta 103.517435
_cell_angle_gamma 90.000000
_cell_volume 1668.200439
_symmetry_space_group_name_H-M "C 2/C"
_symmetry_group_IT_number 15
_symmetry_cell_setting 'monoclinic'
loop_
_space_group_symop_operation_xyz
x,y,z
-x,y,1/2-z
-x,-y,-z
x,-y,1/2+z
1/2+x,1/2+y,z
1/2-x,1/2+y,1/2-z
1/2-x,1/2-y,-z
1/2+x,1/2-y,1/2+z
loop_
_atom_site_type_symbol
_atom_site_label
_atom_site_fract_x
_atom_site_fract_y
_atom_site_fract_z
Si Si1 0.186318 0.715834 0.633532
Si Si2 0.446521 0.550947 0.904164
Si Si3 0.326376 0.039158 0.697959
Si Si4 0.500000 0.217267 0.250000
Si Si5 0.218313 0.321359 0.579359
O O1 0.261448 0.878301 0.643758
O O2 0.200184 0.571201 0.714186
O O3 0.191936 0.554210 0.563821
O O4 0.098167 0.837205 0.626894
O O5 0.488403 0.647609 0.830789
O O6 0.367459 0.702838 0.909492
O O7 0.500000 0.500000 0.000000
O O8 0.419084 0.933525 0.717675
O O9 0.301919 0.254620 0.653230
O O10 0.250000 0.250000 0.500000
#
# Coordination Sequence:
#
# PCOD9303604 Si02
#       5
#     8   8   8   4   8
#     4  11  22  46  69  96 138 183 233 277 347 420
#     4  11  28  45  67 105 143 180 236 291 349 422
#     4  11  23  43  71 100 135 180 236 282 345 421
#     4  12  26  46  68 106 144 184 228 298 358 410
#     4  11  26  44  71 101 134 187 231 289 348 418
#
# _framework density 21.580138999999999
#
# number of rings (size 3 to 8) (size 9 to 14) (size 15 to 20)
#    0.000    0.889    4.444    1.333    6.222    5.333 
#    0.000    0.000    0.000    0.000    0.000    0.000 
#    0.000    0.000    0.000    0.000    0.000    0.000 
#
# Total GULP energy -100329.306544 kJ/mol
# GULP energy per Si atom -5573.850364 kJ/mol
# Density = 2.153102 g / cm^3
# Si number density = 21.580139 Si / 1000 Ang^3
#
#
#
# Elastic Constant Matrix: (Units=GPa)
#
#
# Indices 1 2 3 4 5 6 
#
# 1 73.5807 32.5942 37.6788 0.0000 -1.8091 0.0000
# 2 32.5942 113.7300 13.3526 0.0000 4.7449 0.0000
# 3 37.6788 13.3526 79.7224 0.0000 -1.8453 0.0000
# 4 0.0000 0.0000 0.0000 32.2403 0.0000 0.8442
# 5 -1.8091 4.7449 -1.8453 0.0000 39.7841 0.0000
# 6 0.0000 0.0000 0.0000 0.8442 0.0000 27.4475
#
#
#
# Elastic Compliance Matrix: (Units=1/GPa)
#
#
# Indices 1 2 3 4 5 6 
#
# 1 0.020217 -0.004815 -0.008724 0.000000 0.001089 0.000000
# 2 -0.004815 0.010168 0.000540 0.000000 -0.001407 0.000000
# 3 -0.008724 0.000540 0.016583 0.000000 0.000308 0.000000
# 4 0.000000 0.000000 0.000000 0.031042 0.000000 -0.000955
# 5 0.001089 -0.001407 0.000308 0.000000 0.025367 0.000000
# 6 0.000000 0.000000 0.000000 -0.000955 0.000000 0.036463
#
#
# Mechanical properties :
#
#
# Convention : Reuss Voigt Hill
#
# Bulk Modulus (GPa) = 47.68412 48.25378 47.96895
# Shear Modulus (GPa) = 28.93043 32.12155 30.52599
#
# Velocity S-wave (km/s) = 3.66540 3.86226 3.76512
# Velocity P-wave (km/s) = 6.32912 6.50371 6.41701
#
# Compressibility (1/GPa) = 0.02097134
#
# Stress axis : x y z
#
# Youngs Moduli (GPa) = 49.46210 98.34703 60.30226
#
# Poissons Ratio (x) = 0.47358 0.52605
# Poissons Ratio (y) = 0.23818 -0.03258
# Poissons Ratio (z) = 0.43149 -0.05314
#
# Static dielectric constant tensor:
#      x y z
#    x 1.752000 0.000000 0.081410 
#    y 0.000000 3.011990 0.000000 
#    z 0.081410 0.000000 1.549720 
# 
# From -- ./inp_files/207844.got.cif
#   From: 2010.05.17/outbox.cif.g08.bks.cpg/sg15_104_cif.got.tgz:207844.got - 2010.06.03 18:47:42.
