data_PCOD9303117
_publ_section_title
;
Structure prediction by ZEFSAII (Michael W. Deem and Ramdas Pophale) SiO2 
 PCOD9303117
Probable space group: C 2/C
;
_chemical_formula_sum "Si O2"
_cell_formula_units_Z 48
_cell_length_a 30.110617
_cell_length_b 10.137425
_cell_length_c 14.456033
_cell_angle_alpha 90.000000
_cell_angle_beta 148.959310
_cell_angle_gamma 90.000000
_cell_volume 2275.352401
_symmetry_space_group_name_H-M "C 2/C"
_symmetry_group_IT_number 15
_symmetry_cell_setting 'monoclinic'
loop_
_space_group_symop_operation_xyz
x,y,z
-x,y,1/2-z
-x,-y,-z
x,-y,1/2+z
1/2+x,1/2+y,z
1/2-x,1/2+y,1/2-z
1/2-x,1/2-y,-z
1/2+x,1/2-y,1/2+z
loop_
_atom_site_type_symbol
_atom_site_label
_atom_site_fract_x
_atom_site_fract_y
_atom_site_fract_z
Si Si1 0.847039 0.280011 0.944985
Si Si2 0.899981 0.023971 0.293664
Si Si3 0.401327 0.926408 0.558228
Si Si4 0.668297 0.285644 0.695912
Si Si5 0.758970 0.176354 0.612015
Si Si6 0.902776 0.989982 0.082432
O O1 0.771005 0.277956 0.885389
O O2 0.797426 0.271754 0.758830
O O3 0.896913 0.416006 0.041679
O O4 0.897372 0.142652 0.042123
O O5 0.876850 0.168670 0.290719
O O6 0.882274 0.993175 0.154777
O O7 0.831488 0.934346 0.226093
O O8 0.000000 0.000000 0.500000
O O9 0.500000 0.885929 0.750000
O O10 0.366964 0.852308 0.405569
O O11 0.331720 0.880909 0.511822
O O12 0.647733 0.394374 0.577869
O O13 0.750000 0.250000 0.500000
O O14 0.000000 0.941919 0.250000
#
# Coordination Sequence:
#
# PCOD9303117 Si02
#       6
#     8   8   8   8   8   8
#     4  11  22  45  64  92 135 169 208 274 333 378
#     4  12  23  40  70 101 124 168 233 267 313 395
#     4  11  24  42  66  94 134 173 213 265 335 389
#     4  11  22  42  65  96 125 171 219 266 316 387
#     4  11  24  43  67  95 132 175 217 270 331 388
#     4  12  23  42  70  94 128 172 214 274 323 378
#
# _framework density 21.095634
#
# number of rings (size 3 to 8) (size 9 to 14) (size 15 to 20)
#    0.000    0.667    5.000    4.000    2.333    0.667 
#    3.000    0.833    0.000    0.000    0.000    0.000 
#    0.000    0.000    0.000    0.000    0.000    0.000 
#
# Total GULP energy -134039.808356 kJ/mol
# GULP energy per Si atom -5584.992015 kJ/mol
# Density = 2.104762 g / cm^3
# Si number density = 21.095634 Si / 1000 Ang^3
#
#
#
# Elastic Constant Matrix: (Units=GPa)
#
#
# Indices 1 2 3 4 5 6 
#
# 1 93.6200 -2.8409 27.6537 0.0000 2.2434 0.0000
# 2 -2.8409 84.2041 17.5091 0.0000 9.2743 0.0000
# 3 27.6537 17.5091 81.4644 0.0000 17.3428 0.0000
# 4 0.0000 0.0000 0.0000 15.1061 0.0000 -6.4357
# 5 2.2434 9.2743 17.3428 0.0000 37.9840 0.0000
# 6 0.0000 0.0000 0.0000 -6.4357 0.0000 23.1087
#
#
#
# Elastic Compliance Matrix: (Units=1/GPa)
#
#
# Indices 1 2 3 4 5 6 
#
# 1 0.012048 0.001241 -0.004586 0.000000 0.001079 0.000000
# 2 0.001241 0.012700 -0.002742 0.000000 -0.001922 0.000000
# 3 -0.004586 -0.002742 0.015752 0.000000 -0.006252 0.000000
# 4 0.000000 0.000000 0.000000 0.075110 0.000000 0.020918
# 5 0.001079 -0.001922 -0.006252 0.000000 0.029587 0.000000
# 6 0.000000 0.000000 0.000000 0.020918 0.000000 0.049099
#
#
# Mechanical properties :
#
#
# Convention : Reuss Voigt Hill
#
# Bulk Modulus (GPa) = 35.30262 38.21472 36.75867
# Shear Modulus (GPa) = 23.15756 29.70419 26.43087
#
# Velocity S-wave (km/s) = 3.31681 3.75650 3.54348
# Velocity P-wave (km/s) = 5.60707 6.08025 5.84844
#
# Compressibility (1/GPa) = 0.02832651
#
# Stress axis : x y z
#
# Youngs Moduli (GPa) = 83.00121 78.74268 63.48232
#
# Poissons Ratio (x) = -0.09774 0.29115
# Poissons Ratio (y) = -0.10303 0.17405
# Poissons Ratio (z) = 0.38067 0.21588
#
# Static dielectric constant tensor:
#      x y z
#    x 1.785610 0.000000 0.027700 
#    y 0.000000 1.792050 0.000000 
#    z 0.027700 0.000000 1.650020 
# 
# From -- ./inp_files/181820.got.cif
#   From: 2010.05.17/outbox.cif.g08.bks.cpg/sg15_91_cif.got.tgz:181820.got - 2010.06.03 18:47:42.
