data_PCOD9303495
_publ_section_title
;
Structure prediction by ZEFSAII (Michael W. Deem and Ramdas Pophale) SiO2 
 PCOD9303495
Probable space group: C 2/C
;
_chemical_formula_sum "Si O2"
_cell_formula_units_Z 24
_cell_length_a 20.214942
_cell_length_b 5.229769
_cell_length_c 8.755619
_cell_angle_alpha 90.000000
_cell_angle_beta 79.902186
_cell_angle_gamma 90.000000
_cell_volume 911.301186
_symmetry_space_group_name_H-M "C 2/C"
_symmetry_group_IT_number 15
_symmetry_cell_setting 'monoclinic'
loop_
_space_group_symop_operation_xyz
x,y,z
-x,y,1/2-z
-x,-y,-z
x,-y,1/2+z
1/2+x,1/2+y,z
1/2-x,1/2+y,1/2-z
1/2-x,1/2-y,-z
1/2+x,1/2-y,1/2+z
loop_
_atom_site_type_symbol
_atom_site_label
_atom_site_fract_x
_atom_site_fract_y
_atom_site_fract_z
Si Si1 0.366928 0.720878 0.705426
Si Si2 0.257269 0.998776 0.395890
Si Si3 0.547428 0.364690 0.605174
O O1 0.328359 0.967283 0.783959
O O2 0.306048 0.526541 0.690617
O O3 0.412748 0.579352 0.812579
O O4 0.403961 0.783338 0.530889
O O5 0.250000 0.750000 0.500000
O O6 0.250000 0.250000 0.500000
O O7 0.500000 0.224983 0.750000
O O8 0.500000 0.500000 0.500000
#
# Coordination Sequence:
#
# PCOD9303495 Si02
#       3
#     8   8   8
#     4  11  22  44  75 120 164 208 270 336 410 480
#     4  12  26  45  75 124 158 208 257 336 413 480
#     4   9  20  41  77 116 160 223 273 329 393 489
#
# _framework density 26.335971000000001
#
# number of rings (size 3 to 8) (size 9 to 14) (size 15 to 20)
#    0.000    1.333    3.333    2.000    0.000    0.000 
#    0.000    0.000    0.000   26.000    0.000    0.000 
#    0.000    0.000    0.000    0.000    0.000    0.000 
#
# Total GULP energy -67245.742667 kJ/mol
# GULP energy per Si atom -5603.811889 kJ/mol
# Density = 2.627603 g / cm^3
# Si number density = 26.335971 Si / 1000 Ang^3
#
#
#
# Elastic Constant Matrix: (Units=GPa)
#
#
# Indices 1 2 3 4 5 6 
#
# 1 151.4002 38.2926 106.5595 0.0000 -4.5982 0.0000
# 2 38.2926 143.4599 79.3156 0.0000 -9.1317 0.0000
# 3 106.5595 79.3156 241.1546 0.0000 -39.8516 0.0000
# 4 0.0000 0.0000 0.0000 61.4331 0.0000 -9.3002
# 5 -4.5982 -9.1317 -39.8516 0.0000 110.8483 0.0000
# 6 0.0000 0.0000 0.0000 -9.3002 0.0000 16.5911
#
#
#
# Elastic Compliance Matrix: (Units=1/GPa)
#
#
# Indices 1 2 3 4 5 6 
#
# 1 0.009744 -0.000229 -0.004430 0.000000 -0.001207 0.000000
# 2 -0.000229 0.008536 -0.002756 0.000000 -0.000297 0.000000
# 3 -0.004430 -0.002756 0.007381 0.000000 0.002243 0.000000
# 4 0.000000 0.000000 0.000000 0.017787 0.000000 0.009971
# 5 -0.001207 -0.000297 0.002243 0.000000 0.009753 0.000000
# 6 0.000000 0.000000 0.000000 0.009971 0.000000 0.065862
#
#
# Mechanical properties :
#
#
# Convention : Reuss Voigt Hill
#
# Bulk Modulus (GPa) = 92.30915 109.37224 100.84070
# Shear Modulus (GPa) = 36.36264 58.56428 47.46346
#
# Velocity S-wave (km/s) = 3.71984 4.72077 4.24987
# Velocity P-wave (km/s) = 7.31958 8.44594 7.90285
#
# Compressibility (1/GPa) = 0.01083316
#
# Stress axis : x y z
#
# Youngs Moduli (GPa) = 102.62634 117.14781 135.47962
#
# Poissons Ratio (x) = 0.02677 0.60017
# Poissons Ratio (y) = 0.02345 0.37334
# Poissons Ratio (z) = 0.45463 0.32282
#
# Static dielectric constant tensor:
#      x y z
#    x 2.202670 0.000000 -0.039500 
#    y 0.000000 1.913680 0.000000 
#    z -0.039500 0.000000 2.118390 
# 
# From -- ./inp_files/59453.got.cif
#   From: 2010.05.17/outbox.cif.g08.bks.cpg/sg15_30_cif.got.tgz:59453.got - 2010.06.03 18:47:42.
