data_PCOD9303442
_publ_section_title
;
Structure prediction by ZEFSAII (Michael W. Deem and Ramdas Pophale) SiO2 
 PCOD9303442
Probable space group: C 2/C
;
_chemical_formula_sum "Si O2"
_cell_formula_units_Z 52
_cell_length_a 9.172105
_cell_length_b 26.470918
_cell_length_c 10.800686
_cell_angle_alpha 90.000000
_cell_angle_beta 58.785094
_cell_angle_gamma 90.000000
_cell_volume 2242.704293
_symmetry_space_group_name_H-M "C 2/C"
_symmetry_group_IT_number 15
_symmetry_cell_setting 'monoclinic'
loop_
_space_group_symop_operation_xyz
x,y,z
-x,y,1/2-z
-x,-y,-z
x,-y,1/2+z
1/2+x,1/2+y,z
1/2-x,1/2+y,1/2-z
1/2-x,1/2-y,-z
1/2+x,1/2-y,1/2+z
loop_
_atom_site_type_symbol
_atom_site_label
_atom_site_fract_x
_atom_site_fract_y
_atom_site_fract_z
Si Si1 0.478352 0.155756 0.399415
Si Si2 0.913951 0.125442 0.560157
Si Si3 0.128820 0.444362 0.090263
Si Si4 0.500000 0.443923 0.250000
Si Si5 0.342731 0.321660 0.725912
Si Si6 0.351123 0.795654 0.210858
Si Si7 0.355879 0.952597 0.993135
O O1 0.500000 0.177777 0.250000
O O2 0.677430 0.149309 0.346141
O O3 0.404240 0.186557 0.549188
O O4 0.370971 0.104125 0.434522
O O5 0.797277 0.089534 0.523514
O O6 0.795441 0.168143 0.673304
O O7 0.978406 0.089262 0.638405
O O8 0.073677 0.152835 0.429223
O O9 0.156423 0.503991 0.105008
O O10 0.000000 0.422591 0.250000
O O11 0.020108 0.449364 0.012220
O O12 0.312102 0.467040 0.351847
O O13 0.500000 0.322962 0.750000
O O14 0.297771 0.262816 0.728768
O O15 0.500000 0.798672 0.250000
#
# Coordination Sequence:
#
# PCOD9303442 Si02
#       7
#     8   8   8   4   8   8   8
#     4  12  24  44  66 101 146 182 225 300 360 416
#     4  12  24  44  72 101 143 188 231 294 353 424
#     4  11  22  44  70  97 130 185 234 285 357 422
#     4  12  24  44  66 102 138 186 234 286 352 424
#     4  11  25  43  70 109 137 183 243 297 346 418
#     4  11  23  45  74  97 141 197 243 283 355 438
#     4  11  24  43  68  98 136 182 234 287 354 424
#
# _framework density 23.186292999999999
#
# number of rings (size 3 to 8) (size 9 to 14) (size 15 to 20)
#    0.000    0.615    3.077    5.538    0.000    3.692 
#    9.692    0.000    0.000    0.000    0.000    0.000 
#    0.000    0.000    0.000    0.000    0.000    0.000 
#
# Total GULP energy -145111.609143 kJ/mol
# GULP energy per Si atom -5581.215736 kJ/mol
# Density = 2.313352 g / cm^3
# Si number density = 23.186293 Si / 1000 Ang^3
#
#
#
# Elastic Constant Matrix: (Units=GPa)
#
#
# Indices 1 2 3 4 5 6 
#
# 1 94.8421 43.6750 2.8556 0.0000 -2.4445 0.0000
# 2 43.6750 92.0632 43.7533 0.0000 -5.1806 0.0000
# 3 2.8556 43.7533 66.2353 0.0000 -9.4611 0.0000
# 4 0.0000 0.0000 0.0000 44.7690 0.0000 3.8501
# 5 -2.4445 -5.1806 -9.4611 0.0000 49.6419 0.0000
# 6 0.0000 0.0000 0.0000 3.8501 0.0000 -11.2586
#
#
#
# Elastic Compliance Matrix: (Units=1/GPa)
#
#
# Indices 1 2 3 4 5 6 
#
# 1 0.014944 -0.009902 0.006018 0.000000 0.000850 0.000000
# 2 -0.009902 0.022399 -0.014500 0.000000 -0.000914 0.000000
# 3 0.006018 -0.014500 0.024921 0.000000 0.003533 0.000000
# 4 0.000000 0.000000 0.000000 0.021699 0.000000 0.007420
# 5 0.000850 -0.000914 0.003533 0.000000 0.020764 0.000000
# 6 0.000000 0.000000 0.000000 0.007420 0.000000 -0.086283
#
#
# Mechanical properties :
#
#
# Convention : Reuss Voigt Hill
#
# Bulk Modulus (GPa) = 39.22022 48.18984 43.70503
# Shear Modulus (GPa) = 78.47881 27.48757 52.98319
#
# Velocity S-wave (km/s) = 5.82414 3.44686 4.78547
# Velocity P-wave (km/s) = 7.88539 6.05558 7.03027
#
# Compressibility (1/GPa) = 0.02549705
#
# Stress axis : x y z
#
# Youngs Moduli (GPa) = 66.91467 44.64416 40.12654
#
# Poissons Ratio (x) = 0.44206 -0.24148
# Poissons Ratio (y) = 0.66258 0.58183
# Poissons Ratio (z) = -0.40269 0.64734
#
# Static dielectric constant tensor:
#      x y z
#    x 1.946090 0.000000 0.010900 
#    y 0.000000 1.927640 0.000000 
#    z 0.010900 0.000000 2.081880 
# 
# From -- ./inp_files/81157.got.cif
#   From: 2010.05.17/outbox.cif.g08.bks.cpg/sg15_41_cif.got.tgz:81157.got - 2010.06.03 18:47:42.
