data_PCOD9303528
_publ_section_title
;
Structure prediction by ZEFSAII (Michael W. Deem and Ramdas Pophale) SiO2 
 PCOD9303528
Probable space group: C 2/C
;
_chemical_formula_sum "Si O2"
_cell_formula_units_Z 44
_cell_length_a 15.887062
_cell_length_b 10.359327
_cell_length_c 10.882371
_cell_angle_alpha 90.000000
_cell_angle_beta 101.516242
_cell_angle_gamma 90.000000
_cell_volume 1754.956278
_symmetry_space_group_name_H-M "C 2/C"
_symmetry_group_IT_number 15
_symmetry_cell_setting 'monoclinic'
loop_
_space_group_symop_operation_xyz
x,y,z
-x,y,1/2-z
-x,-y,-z
x,-y,1/2+z
1/2+x,1/2+y,z
1/2-x,1/2+y,1/2-z
1/2-x,1/2-y,-z
1/2+x,1/2-y,1/2+z
loop_
_atom_site_type_symbol
_atom_site_label
_atom_site_fract_x
_atom_site_fract_y
_atom_site_fract_z
Si Si1 0.953829 0.041506 0.611843
Si Si2 0.043659 0.296962 0.600204
Si Si3 0.242844 0.033114 0.883794
Si Si4 0.649639 0.856316 0.405488
Si Si5 0.000000 0.520352 0.750000
Si Si6 0.733458 0.787512 0.745251
O O1 0.000000 0.990601 0.750000
O O2 0.973166 0.193132 0.611128
O O3 0.852857 0.018205 0.590483
O O4 0.000000 0.000000 0.500000
O O5 0.080327 0.287491 0.473899
O O6 0.131171 0.275829 0.702887
O O7 0.005117 0.432024 0.631022
O O8 0.245823 0.940612 0.761291
O O9 0.259506 0.183479 0.856371
O O10 0.309044 0.969337 0.998983
O O11 0.721830 0.768818 0.364882
O O12 0.588445 0.904296 0.279168
#
# Coordination Sequence:
#
# PCOD9303528 Si02
#       6
#     8   8   8   8   4   8
#     4  12  24  46  74 108 147 194 247 309 378 445
#     4  11  22  46  68  97 148 193 232 312 380 439
#     4  11  24  44  74 106 145 192 245 308 377 446
#     4  11  24  43  70  99 140 194 246 307 365 448
#     4  12  24  46  66 100 142 192 252 302 374 442
#     4  11  22  45  69 100 141 189 238 299 371 443
#
# _framework density 25.071849
#
# number of rings (size 3 to 8) (size 9 to 14) (size 15 to 20)
#    0.000    0.727    2.727    7.091    0.000    0.000 
#    9.818    4.545    0.000    0.000    0.000    0.000 
#    0.000    0.000    0.000    0.000    0.000    0.000 
#
# Total GULP energy -123066.116892 kJ/mol
# GULP energy per Si atom -5593.914404 kJ/mol
# Density = 2.501478 g / cm^3
# Si number density = 25.071849 Si / 1000 Ang^3
#
#
#
# Elastic Constant Matrix: (Units=GPa)
#
#
# Indices 1 2 3 4 5 6 
#
# 1 137.2122 42.4678 23.1391 0.0000 -13.0523 0.0000
# 2 42.4678 59.6951 13.0112 0.0000 2.4898 0.0000
# 3 23.1391 13.0112 84.0487 0.0000 -19.2299 0.0000
# 4 0.0000 0.0000 0.0000 27.5637 0.0000 -7.6446
# 5 -13.0523 2.4898 -19.2299 0.0000 48.6599 0.0000
# 6 0.0000 0.0000 0.0000 -7.6446 0.0000 42.7965
#
#
#
# Elastic Compliance Matrix: (Units=1/GPa)
#
#
# Indices 1 2 3 4 5 6 
#
# 1 0.009839 -0.006877 -0.001055 0.000000 0.002574 0.000000
# 2 -0.006877 0.022349 -0.002474 0.000000 -0.003966 0.000000
# 3 -0.001055 -0.002474 0.013782 0.000000 0.005290 0.000000
# 4 0.000000 0.000000 0.000000 0.038171 0.000000 0.006818
# 5 0.002574 -0.003966 0.005290 0.000000 0.023535 0.000000
# 6 0.000000 0.000000 0.000000 0.006818 0.000000 0.024584
#
#
# Mechanical properties :
#
#
# Convention : Reuss Voigt Hill
#
# Bulk Modulus (GPa) = 39.74967 48.68805 44.21886
# Shear Modulus (GPa) = 30.96787 37.29321 34.13054
#
# Velocity S-wave (km/s) = 3.51830 3.86094 3.69359
# Velocity P-wave (km/s) = 5.69151 6.27195 5.98877
#
# Compressibility (1/GPa) = 0.02515744
#
# Stress axis : x y z
#
# Youngs Moduli (GPa) = 101.63314 44.74499 72.56034
#
# Poissons Ratio (x) = 0.30772 0.07657
# Poissons Ratio (y) = 0.69895 0.17950
# Poissons Ratio (z) = 0.10725 0.11069
#
# Static dielectric constant tensor:
#      x y z
#    x 1.870860 0.000000 0.007100 
#    y 0.000000 2.080370 0.000000 
#    z 0.007100 0.000000 2.098310 
# 
# From -- ./inp_files/94989.got.cif
#   From: 2010.05.17/outbox.cif.g08.bks.cpg/sg15_48_cif.got.tgz:94989.got - 2010.06.03 18:47:42.
