data_PCOD9303310
_publ_section_title
;
Structure prediction by ZEFSAII (Michael W. Deem and Ramdas Pophale) SiO2 
 PCOD9303310
Probable space group: C 2/C
;
_chemical_formula_sum "Si O2"
_cell_formula_units_Z 60
_cell_length_a 12.037499
_cell_length_b 16.707435
_cell_length_c 14.945183
_cell_angle_alpha 90.000000
_cell_angle_beta 108.778435
_cell_angle_gamma 90.000000
_cell_volume 2845.718867
_symmetry_space_group_name_H-M "C 2/C"
_symmetry_group_IT_number 15
_symmetry_cell_setting 'monoclinic'
loop_
_space_group_symop_operation_xyz
x,y,z
-x,y,1/2-z
-x,-y,-z
x,-y,1/2+z
1/2+x,1/2+y,z
1/2-x,1/2+y,1/2-z
1/2-x,1/2-y,-z
1/2+x,1/2-y,1/2+z
loop_
_atom_site_type_symbol
_atom_site_label
_atom_site_fract_x
_atom_site_fract_y
_atom_site_fract_z
Si Si1 0.500000 0.253022 0.250000
Si Si2 0.846593 0.643845 0.825395
Si Si3 0.763431 0.139590 0.892481
Si Si4 0.826197 0.313699 0.856519
Si Si5 0.565983 0.924349 0.467826
Si Si6 0.311320 0.674779 0.564662
Si Si7 0.898926 0.177367 0.290385
Si Si8 0.482907 0.408021 0.980993
O O1 0.589334 0.209035 0.204760
O O2 0.587104 0.299784 0.339165
O O3 0.779118 0.617553 0.718743
O O4 0.779390 0.625040 0.899421
O O5 0.855300 0.740817 0.826000
O O6 0.974089 0.607331 0.870247
O O7 0.760621 0.237610 0.887515
O O8 0.688753 0.085542 0.943039
O O9 0.899853 0.129672 0.948382
O O10 0.714200 0.360349 0.787259
O O11 0.906697 0.360978 0.946521
O O12 0.500000 0.000000 0.500000
O O13 0.250000 0.750000 0.500000
O O14 0.370359 0.622624 0.504364
O O15 0.960769 0.117793 0.374251
O O16 0.000000 0.204970 0.250000
O O17 0.500000 0.500000 0.000000
#
# Coordination Sequence:
#
# PCOD9303310 Si02
#       8
#     4   8   8   8   8   8   8   8
#     4  12  20  42  66 104 124 168 230 288 336 380
#     4  11  22  43  72  95 126 175 230 289 330 404
#     4  11  23  46  68  95 130 178 236 279 334 404
#     4  11  22  43  72  99 129 175 235 289 329 402
#     4  12  27  43  65 100 139 180 219 280 356 416
#     4  12  21  42  71  97 133 169 232 285 336 401
#     4  11  22  43  69  98 127 174 235 283 332 395
#     4  12  26  42  65 100 139 181 216 278 353 418
#
# _framework density 21.084302999999998
#
# number of rings (size 3 to 8) (size 9 to 14) (size 15 to 20)
#    0.000    0.533    5.333    4.800    1.867    1.067 
#    6.000    0.000    0.000    0.000    0.000    0.000 
#    0.000    0.000    0.000    0.000    0.000    0.000 
#
# Total GULP energy -167303.698881 kJ/mol
# GULP energy per Si atom -5576.789963 kJ/mol
# Density = 2.103631 g / cm^3
# Si number density = 21.084303 Si / 1000 Ang^3
#
#
#
# Elastic Constant Matrix: (Units=GPa)
#
#
# Indices 1 2 3 4 5 6 
#
# 1 95.8840 8.9787 -4.6875 0.0000 -16.4702 0.0000
# 2 8.9787 61.9992 23.9896 0.0000 -1.0075 0.0000
# 3 -4.6875 23.9896 79.3912 0.0000 9.3683 0.0000
# 4 0.0000 0.0000 0.0000 -44.6123 0.0000 -14.7615
# 5 -16.4702 -1.0075 9.3683 0.0000 46.5494 0.0000
# 6 0.0000 0.0000 0.0000 -14.7615 0.0000 23.0608
#
#
#
# Elastic Compliance Matrix: (Units=1/GPa)
#
#
# Indices 1 2 3 4 5 6 
#
# 1 0.011296 -0.001878 0.000786 0.000000 0.003798 0.000000
# 2 -0.001878 0.018686 -0.005866 0.000000 0.000920 0.000000
# 3 0.000786 -0.005866 0.014747 0.000000 -0.002817 0.000000
# 4 0.000000 0.000000 0.000000 -0.018498 0.000000 -0.011840
# 5 0.003798 0.000920 -0.002817 0.000000 0.023413 0.000000
# 6 0.000000 0.000000 0.000000 -0.011840 0.000000 0.035784
#
#
# Mechanical properties :
#
#
# Convention : Reuss Voigt Hill
#
# Bulk Modulus (GPa) = 32.45352 32.64844 32.55098
# Shear Modulus (GPa) = 45.61386 18.93250 32.27318
#
# Velocity S-wave (km/s) = 4.65629 2.99982 3.91663
# Velocity P-wave (km/s) = 6.65835 5.24565 5.99377
#
# Compressibility (1/GPa) = 0.03081329
#
# Stress axis : x y z
#
# Youngs Moduli (GPa) = 88.52704 53.51621 67.80982
#
# Poissons Ratio (x) = 0.10053 -0.05333
# Poissons Ratio (y) = 0.16629 0.39776
# Poissons Ratio (z) = -0.06962 0.31392
#
# Static dielectric constant tensor:
#      x y z
#    x 1.834780 0.000000 -0.002370 
#    y 0.000000 1.810510 0.000000 
#    z -0.002370 0.000000 1.728730 
# 
# From -- ./inp_files/146136.got.cif
#   From: 2010.05.17/outbox.cif.g08.bks.cpg/sg15_74_cif.got.tgz:146136.got - 2010.06.03 18:47:42.
