data_PCOD9303030
_publ_section_title
;
Structure prediction by ZEFSAII (Michael W. Deem and Ramdas Pophale) SiO2 
 PCOD9303030
Probable space group: C 2/C
;
_chemical_formula_sum "Si O2"
_cell_formula_units_Z 40
_cell_length_a 19.329267
_cell_length_b 11.345947
_cell_length_c 13.073667
_cell_angle_alpha 90.000000
_cell_angle_beta 138.160890
_cell_angle_gamma 90.000000
_cell_volume 1912.520934
_symmetry_space_group_name_H-M "C 2/C"
_symmetry_group_IT_number 15
_symmetry_cell_setting 'monoclinic'
loop_
_space_group_symop_operation_xyz
x,y,z
-x,y,1/2-z
-x,-y,-z
x,-y,1/2+z
1/2+x,1/2+y,z
1/2-x,1/2+y,1/2-z
1/2-x,1/2-y,-z
1/2+x,1/2-y,1/2+z
loop_
_atom_site_type_symbol
_atom_site_label
_atom_site_fract_x
_atom_site_fract_y
_atom_site_fract_z
Si Si1 0.327588 0.072405 0.818079
Si Si2 0.600530 0.802659 0.405388
Si Si3 0.444519 0.821448 0.922048
Si Si4 0.708145 0.418135 0.971234
Si Si5 0.810971 0.160804 0.641378
O O1 0.261957 0.093828 0.641984
O O2 0.256991 0.112615 0.836580
O O3 0.372287 0.939115 0.850733
O O4 0.435066 0.144374 0.948707
O O5 0.500000 0.866814 0.250000
O O6 0.576464 0.762499 0.492208
O O7 0.626233 0.686487 0.369497
O O8 0.698519 0.886993 0.503411
O O9 0.406172 0.735493 0.791406
O O10 0.663838 0.545206 0.897229
O O11 0.750000 0.250000 0.500000
#
# Coordination Sequence:
#
# PCOD9303030 Si02
#       5
#     8   8   8   8   8
#     4  11  23  42  68  95 131 181 223 269 337 406
#     4  11  22  41  68  95 128 179 230 270 324 411
#     4  11  23  41  69  99 131 175 229 276 330 406
#     4  11  23  41  67  95 134 179 223 271 338 399
#     4  12  25  43  67 103 140 170 221 293 341 394
#
# _framework density 20.914804
#
# number of rings (size 3 to 8) (size 9 to 14) (size 15 to 20)
#    0.000    0.800    8.000    0.000    0.000    0.800 
#    3.600    1.000    0.000    0.000    0.000    0.000 
#    0.000    0.000    0.000    0.000    0.000    0.000 
#
# Total GULP energy -111600.532463 kJ/mol
# GULP energy per Si atom -5580.026623 kJ/mol
# Density = 2.086720 g / cm^3
# Si number density = 20.914804 Si / 1000 Ang^3
#
#
#
# Elastic Constant Matrix: (Units=GPa)
#
#
# Indices 1 2 3 4 5 6 
#
# 1 31.9871 7.7501 21.5549 0.0000 4.3875 0.0000
# 2 7.7501 116.8850 32.9954 0.0000 5.5974 0.0000
# 3 21.5549 32.9954 104.0127 0.0000 -8.4369 0.0000
# 4 0.0000 0.0000 0.0000 35.0738 0.0000 -7.4233
# 5 4.3875 5.5974 -8.4369 0.0000 29.3134 0.0000
# 6 0.0000 0.0000 0.0000 -7.4233 0.0000 13.8502
#
#
#
# Elastic Compliance Matrix: (Units=1/GPa)
#
#
# Indices 1 2 3 4 5 6 
#
# 1 0.038171 0.000316 -0.008681 0.000000 -0.008272 0.000000
# 2 0.000316 0.009616 -0.003347 0.000000 -0.002847 0.000000
# 3 -0.008681 -0.003347 0.012934 0.000000 0.005661 0.000000
# 4 0.000000 0.000000 0.000000 0.032159 0.000000 0.017236
# 5 -0.008272 -0.002847 0.005661 0.000000 0.037525 0.000000
# 6 0.000000 0.000000 0.000000 0.017236 0.000000 0.081439
#
#
# Mechanical properties :
#
#
# Convention : Reuss Voigt Hill
#
# Bulk Modulus (GPa) = 26.81249 41.94285 34.37767
# Shear Modulus (GPa) = 20.18565 28.35311 24.26938
#
# Velocity S-wave (km/s) = 3.11004 3.68591 3.41015
# Velocity P-wave (km/s) = 5.07387 6.18160 5.65492
#
# Compressibility (1/GPa) = 0.03729605
#
# Stress axis : x y z
#
# Youngs Moduli (GPa) = 26.19801 103.99869 77.31489
#
# Poissons Ratio (x) = -0.03285 0.67121
# Poissons Ratio (y) = -0.00828 0.25874
# Poissons Ratio (z) = 0.22744 0.34805
#
# Static dielectric constant tensor:
#      x y z
#    x 1.752110 0.000000 -0.017460 
#    y 0.000000 1.775910 0.000000 
#    z -0.017460 0.000000 1.779280 
# 
# From -- ./inp_files/103945.got.cif
#   From: 2010.05.17/outbox.cif.g08.bks.cpg/sg15_52_cif.got.tgz:103945.got - 2010.06.03 18:47:42.
