data_PCOD9303878
_publ_section_title
;
Structure prediction by ZEFSAII (Michael W. Deem and Ramdas Pophale) SiO2 
 PCOD9303878
Probable space group: C 2/C
;
_chemical_formula_sum "Si O2"
_cell_formula_units_Z 40
_cell_length_a 14.337744
_cell_length_b 11.906933
_cell_length_c 12.433486
_cell_angle_alpha 90.000000
_cell_angle_beta 57.081305
_cell_angle_gamma 90.000000
_cell_volume 1781.823326
_symmetry_space_group_name_H-M "C 2/C"
_symmetry_group_IT_number 15
_symmetry_cell_setting 'monoclinic'
loop_
_space_group_symop_operation_xyz
x,y,z
-x,y,1/2-z
-x,-y,-z
x,-y,1/2+z
1/2+x,1/2+y,z
1/2-x,1/2+y,1/2-z
1/2-x,1/2-y,-z
1/2+x,1/2-y,1/2+z
loop_
_atom_site_type_symbol
_atom_site_label
_atom_site_fract_x
_atom_site_fract_y
_atom_site_fract_z
Si Si1 0.297035 0.861985 0.915464
Si Si2 0.568201 0.386453 0.954044
Si Si3 0.841324 0.590633 0.980213
Si Si4 0.833094 0.236900 0.304409
Si Si5 0.900824 0.717631 0.143388
O O1 0.191149 0.911627 0.918227
O O2 0.385486 0.834437 0.768742
O O3 0.339765 0.958468 0.966598
O O4 0.250000 0.750000 0.000000
O O5 0.582805 0.321989 0.830769
O O6 0.500000 0.500000 0.000000
O O7 0.501592 0.302271 0.072657
O O8 0.872463 0.660441 0.853491
O O9 0.717681 0.639553 0.086244
O O10 0.911598 0.629023 0.039312
O O11 0.720889 0.272867 0.308792
#
# Coordination Sequence:
#
# PCOD9303878 Si02
#       5
#     8   8   8   8   8
#     4  11  25  42  64  95 137 169 205 272 334 373
#     4  11  23  40  69 101 124 163 226 276 304 382
#     4   9  19  43  64  86 130 180 206 253 322 398
#     4   8  19  39  65  92 125 165 217 258 316 370
#     4   9  21  40  59  94 127 166 208 262 327 370
#
# _framework density 22.448915
#
# number of rings (size 3 to 8) (size 9 to 14) (size 15 to 20)
#    1.200    1.200    0.000    1.200    2.800    4.800 
#    0.000    6.000    0.000    0.000    0.000    0.000 
#    0.000    0.000    0.000    0.000    0.000    0.000 
#
# Total GULP energy -111655.690644 kJ/mol
# GULP energy per Si atom -5582.784532 kJ/mol
# Density = 2.239782 g / cm^3
# Si number density = 22.448915 Si / 1000 Ang^3
#
#
#
# Elastic Constant Matrix: (Units=GPa)
#
#
# Indices 1 2 3 4 5 6 
#
# 1 61.9710 22.0436 29.5353 0.0000 -4.4982 0.0000
# 2 22.0436 78.7333 16.7279 0.0000 -6.1599 0.0000
# 3 29.5353 16.7279 77.2216 0.0000 -21.5296 0.0000
# 4 0.0000 0.0000 0.0000 23.7398 0.0000 -4.7627
# 5 -4.4982 -6.1599 -21.5296 0.0000 24.8844 0.0000
# 6 0.0000 0.0000 0.0000 -4.7627 0.0000 28.4114
#
#
#
# Elastic Compliance Matrix: (Units=1/GPa)
#
#
# Indices 1 2 3 4 5 6 
#
# 1 0.021484 -0.004567 -0.008514 0.000000 -0.004613 0.000000
# 2 -0.004567 0.014306 -0.000784 0.000000 0.002037 0.000000
# 3 -0.008514 -0.000784 0.020945 0.000000 0.016388 0.000000
# 4 0.000000 0.000000 0.000000 0.043589 0.000000 0.007307
# 5 -0.004613 0.002037 0.016388 0.000000 0.054035 0.000000
# 6 0.000000 0.000000 0.000000 0.007307 0.000000 0.036422
#
#
# Mechanical properties :
#
#
# Convention : Reuss Voigt Hill
#
# Bulk Modulus (GPa) = 34.47736 39.39327 36.93532
# Shear Modulus (GPa) = 21.91254 25.38170 23.64712
#
# Velocity S-wave (km/s) = 3.12766 3.36615 3.24909
# Velocity P-wave (km/s) = 5.33240 5.71787 5.52850
#
# Compressibility (1/GPa) = 0.02900454
#
# Stress axis : x y z
#
# Youngs Moduli (GPa) = 46.54624 69.90179 47.74404
#
# Poissons Ratio (x) = 0.31925 0.40649
# Poissons Ratio (y) = 0.21258 0.03744
# Poissons Ratio (z) = 0.39629 0.05481
#
# Static dielectric constant tensor:
#      x y z
#    x 1.939330 0.000000 0.043920 
#    y 0.000000 1.859910 0.000000 
#    z 0.043920 0.000000 1.873010 
# 
# From -- ./inp_files/167085.got.cif
#   From: 2010.05.17/outbox.cif.g08.bks.cpg/sg15_84_cif.got.tgz:167085.got - 2010.06.03 18:47:42.
