data_PCOD9303641
_publ_section_title
;
Structure prediction by ZEFSAII (Michael W. Deem and Ramdas Pophale) SiO2 
 PCOD9303641
Probable space group: C 2/C
;
_chemical_formula_sum "Si O2"
_cell_formula_units_Z 44
_cell_length_a 12.307125
_cell_length_b 8.575516
_cell_length_c 21.068648
_cell_angle_alpha 90.000000
_cell_angle_beta 53.216009
_cell_angle_gamma 90.000000
_cell_volume 1780.865564
_symmetry_space_group_name_H-M "C 2/C"
_symmetry_group_IT_number 15
_symmetry_cell_setting 'monoclinic'
loop_
_space_group_symop_operation_xyz
x,y,z
-x,y,1/2-z
-x,-y,-z
x,-y,1/2+z
1/2+x,1/2+y,z
1/2-x,1/2+y,1/2-z
1/2-x,1/2-y,-z
1/2+x,1/2-y,1/2+z
loop_
_atom_site_type_symbol
_atom_site_label
_atom_site_fract_x
_atom_site_fract_y
_atom_site_fract_z
Si Si1 0.917478 0.437331 0.088457
Si Si2 0.296619 0.300901 0.798070
Si Si3 0.826136 0.642135 0.922742
Si Si4 0.790578 0.104676 0.112556
Si Si5 0.403997 0.568436 0.683044
Si Si6 0.000000 0.295242 0.750000
O O1 0.821988 0.577006 0.143593
O O2 0.840547 0.280899 0.094008
O O3 0.025804 0.397087 0.104376
O O4 0.000000 0.500000 0.000000
O O5 0.334921 0.222798 0.850873
O O6 0.399859 0.412665 0.726138
O O7 0.234638 0.171236 0.772626
O O8 0.740388 0.483981 0.941699
O O9 0.750000 0.750000 0.000000
O O10 0.640994 0.110640 0.198920
O O11 0.900857 0.000398 0.112855
O O12 0.502652 0.685601 0.685865
#
# Coordination Sequence:
#
# PCOD9303641 Si02
#       6
#     8   8   8   8   8   4
#     4  12  25  47  71 102 147 186 239 293 347 433
#     4  11  22  47  67 103 140 179 236 288 354 422
#     4  11  26  47  70 102 141 190 237 288 355 429
#     4  11  27  45  72 106 141 186 239 294 358 425
#     4  11  23  43  70 103 140 177 229 296 355 415
#     4  12  22  42  72 102 140 178 232 288 360 416
#
# _framework density 24.707087000000001
#
# number of rings (size 3 to 8) (size 9 to 14) (size 15 to 20)
#    0.000    0.727    5.455    1.091    2.545    1.455 
#    0.000    0.000    0.000    0.000    0.000    0.000 
#    0.000    0.000    0.000    0.000    0.000    0.000 
#
# Total GULP energy -123117.386140 kJ/mol
# GULP energy per Si atom -5596.244825 kJ/mol
# Density = 2.465085 g / cm^3
# Si number density = 24.707087 Si / 1000 Ang^3
#
#
#
# Elastic Constant Matrix: (Units=GPa)
#
#
# Indices 1 2 3 4 5 6 
#
# 1 163.1223 74.5541 26.6500 0.0000 14.4670 0.0000
# 2 74.5541 157.3484 29.1156 0.0000 5.4990 0.0000
# 3 26.6500 29.1156 37.4814 0.0000 6.3891 0.0000
# 4 0.0000 0.0000 0.0000 32.1388 0.0000 16.1898
# 5 14.4670 5.4990 6.3891 0.0000 30.0497 0.0000
# 6 0.0000 0.0000 0.0000 16.1898 0.0000 62.5246
#
#
#
# Elastic Compliance Matrix: (Units=1/GPa)
#
#
# Indices 1 2 3 4 5 6 
#
# 1 0.008376 -0.003337 -0.002885 0.000000 -0.002808 0.000000
# 2 -0.003337 0.008752 -0.004593 0.000000 0.000981 0.000000
# 3 -0.002885 -0.004593 0.033119 0.000000 -0.004812 0.000000
# 4 0.000000 0.000000 0.000000 0.035782 0.000000 -0.009265
# 5 -0.002808 0.000981 -0.004812 0.000000 0.035474 0.000000
# 6 0.000000 0.000000 0.000000 -0.009265 0.000000 0.018393
#
#
# Mechanical properties :
#
#
# Convention : Reuss Voigt Hill
#
# Bulk Modulus (GPa) = 34.94337 68.73238 51.83787
# Shear Modulus (GPa) = 29.22866 40.11811 34.67338
#
# Velocity S-wave (km/s) = 3.44322 4.03395 3.75023
# Velocity P-wave (km/s) = 5.47553 7.04104 6.30705
#
# Compressibility (1/GPa) = 0.02861773
#
# Stress axis : x y z
#
# Youngs Moduli (GPa) = 119.39295 114.26067 30.19371
#
# Poissons Ratio (x) = 0.38124 0.08710
# Poissons Ratio (y) = 0.39837 0.13869
# Poissons Ratio (z) = 0.34441 0.52485
#
# Static dielectric constant tensor:
#      x y z
#    x 1.968130 0.000000 0.005300 
#    y 0.000000 1.939840 0.000000 
#    z 0.005300 0.000000 1.992370 
# 
# From -- ./inp_files/236138.got.cif
#   From: 2010.05.17/outbox.cif.g08.bks.cpg/sg15_119_cif.got.tgz:236138.got - 2010.06.03 18:47:42.
