data_PCOD9303452
_publ_section_title
;
Structure prediction by ZEFSAII (Michael W. Deem and Ramdas Pophale) SiO2 
 PCOD9303452
Probable space group: C 2/C
;
_chemical_formula_sum "Si O2"
_cell_formula_units_Z 48
_cell_length_a 21.371562
_cell_length_b 12.429120
_cell_length_c 10.664728
_cell_angle_alpha 90.000000
_cell_angle_beta 46.369420
_cell_angle_gamma 90.000000
_cell_volume 2050.440750
_symmetry_space_group_name_H-M "C 2/C"
_symmetry_group_IT_number 15
_symmetry_cell_setting 'monoclinic'
loop_
_space_group_symop_operation_xyz
x,y,z
-x,y,1/2-z
-x,-y,-z
x,-y,1/2+z
1/2+x,1/2+y,z
1/2-x,1/2+y,1/2-z
1/2-x,1/2-y,-z
1/2+x,1/2-y,1/2+z
loop_
_atom_site_type_symbol
_atom_site_label
_atom_site_fract_x
_atom_site_fract_y
_atom_site_fract_z
Si Si1 0.317407 0.586210 0.457024
Si Si2 0.552217 0.765134 0.312738
Si Si3 0.897342 0.855156 0.354992
Si Si4 0.157445 0.579314 0.492000
Si Si5 0.417246 0.149348 0.455803
Si Si6 0.140607 0.216863 0.875247
O O1 0.380648 0.667476 0.294646
O O2 0.358260 0.471625 0.433117
O O3 0.237301 0.572387 0.475916
O O4 0.300974 0.646013 0.612081
O O5 0.585327 0.861336 0.177551
O O6 0.551894 0.818437 0.449824
O O7 0.457099 0.713869 0.431958
O O8 0.864190 0.752343 0.478788
O O9 0.000000 0.861799 0.250000
O O10 0.873184 0.825834 0.244950
O O11 0.130912 0.462934 0.482604
O O12 0.169602 0.660032 0.357414
O O13 0.500000 0.137792 0.250000
#
# Coordination Sequence:
#
# PCOD9303452 Si02
#       6
#     8   8   8   8   8   8
#     4  11  26  43  66 100 135 174 214 263 333 396
#     4  11  22  44  71  95 128 173 222 271 318 381
#     4  11  24  44  68  99 129 167 224 276 318 378
#     4  11  26  43  66 100 135 174 214 263 333 396
#     4  11  24  44  68  99 129 167 224 276 318 378
#     4  11  22  44  71  95 128 173 222 271 318 381
#
# _framework density 23.409603000000001
#
# number of rings (size 3 to 8) (size 9 to 14) (size 15 to 20)
#    0.000    1.000    3.333    6.000    4.667    6.000 
#    0.000    0.000    0.000    0.000    0.000    0.000 
#    0.000    0.000    0.000    0.000    0.000    0.000 
#
# Total GULP energy -134241.601759 kJ/mol
# GULP energy per Si atom -5593.400073 kJ/mol
# Density = 2.335632 g / cm^3
# Si number density = 23.409603 Si / 1000 Ang^3
#
#
#
# Elastic Constant Matrix: (Units=GPa)
#
#
# Indices 1 2 3 4 5 6 
#
# 1 107.6650 43.3827 1.1826 0.0000 14.3094 0.0000
# 2 43.3827 202.4981 21.9541 0.0000 -2.9040 0.0000
# 3 1.1826 21.9541 42.0054 0.0000 16.5726 0.0000
# 4 0.0000 0.0000 0.0000 23.2127 0.0000 -18.3096
# 5 14.3094 -2.9040 16.5726 0.0000 30.8333 0.0000
# 6 0.0000 0.0000 0.0000 -18.3096 0.0000 88.5620
#
#
#
# Elastic Compliance Matrix: (Units=1/GPa)
#
#
# Indices 1 2 3 4 5 6 
#
# 1 0.011545 -0.003072 0.004453 0.000000 -0.008041 0.000000
# 2 -0.003072 0.006207 -0.005014 0.000000 0.004705 0.000000
# 3 0.004453 -0.005014 0.034652 0.000000 -0.021164 0.000000
# 4 0.000000 0.000000 0.000000 0.051474 0.000000 0.010642
# 5 -0.008041 0.004705 -0.021164 0.000000 0.047982 0.000000
# 6 0.000000 0.000000 0.000000 0.010642 0.000000 0.013492
#
#
# Mechanical properties :
#
#
# Convention : Reuss Voigt Hill
#
# Bulk Modulus (GPa) = 22.15416 53.91192 38.03304
# Shear Modulus (GPa) = 26.64325 47.56488 37.10406
#
# Velocity S-wave (km/s) = 3.37728 4.51250 3.98552
# Velocity P-wave (km/s) = 4.96914 7.08731 6.12055
#
# Compressibility (1/GPa) = 0.04513825
#
# Stress axis : x y z
#
# Youngs Moduli (GPa) = 86.61421 161.09670 28.85868
#
# Poissons Ratio (x) = 0.49481 -0.12850
# Poissons Ratio (y) = 0.26604 0.14470
# Poissons Ratio (z) = -0.38566 0.80778
#
# Static dielectric constant tensor:
#      x y z
#    x 1.949580 0.000000 -0.019460 
#    y 0.000000 1.846140 0.000000 
#    z -0.019460 0.000000 1.958780 
# 
# From -- ./inp_files/110890.got.cif
#   From: 2010.05.17/outbox.cif.g08.bks.cpg/sg15_56_cif.got.tgz:110890.got - 2010.06.03 18:47:42.
