data_PCOD9303174
_publ_section_title
;
Structure prediction by ZEFSAII (Michael W. Deem and Ramdas Pophale) SiO2 
 PCOD9303174
Probable space group: C 2/C
;
_chemical_formula_sum "Si O2"
_cell_formula_units_Z 56
_cell_length_a 27.475063
_cell_length_b 8.765835
_cell_length_c 13.986090
_cell_angle_alpha 90.000000
_cell_angle_beta 56.505288
_cell_angle_gamma 90.000000
_cell_volume 2809.062644
_symmetry_space_group_name_H-M "C 2/C"
_symmetry_group_IT_number 15
_symmetry_cell_setting 'monoclinic'
loop_
_space_group_symop_operation_xyz
x,y,z
-x,y,1/2-z
-x,-y,-z
x,-y,1/2+z
1/2+x,1/2+y,z
1/2-x,1/2+y,1/2-z
1/2-x,1/2-y,-z
1/2+x,1/2-y,1/2+z
loop_
_atom_site_type_symbol
_atom_site_label
_atom_site_fract_x
_atom_site_fract_y
_atom_site_fract_z
Si Si1 0.847967 0.179729 0.306876
Si Si2 0.932585 0.968653 0.098841
Si Si3 0.862280 0.001564 0.484311
Si Si4 0.934876 0.238659 0.781698
Si Si5 0.846959 0.488431 0.869934
Si Si6 0.728103 0.978258 0.868323
Si Si7 0.258279 0.167121 0.338911
O O1 0.899535 0.110432 0.186080
O O2 0.856937 0.125988 0.406517
O O3 0.845515 0.361564 0.306612
O O4 0.786985 0.105903 0.339789
O O5 0.929992 0.836626 0.181828
O O6 0.896600 0.940811 0.040434
O O7 0.000000 0.000000 0.000000
O O8 0.896977 0.862952 0.396269
O O9 0.799387 0.934676 0.581594
O O10 0.908839 0.407592 0.807834
O O11 0.000000 0.234050 0.750000
O O12 0.801961 0.361447 0.878768
O O13 0.822001 0.534986 0.999327
O O14 0.711457 0.898594 0.788122
O O15 0.742518 0.157062 0.841870
#
# Coordination Sequence:
#
# PCOD9303174 Si02
#       7
#     8   8   8   8   8   8   8
#     4  11  25  41  66  98 131 176 219 271 334 397
#     4  11  23  44  71  94 126 172 229 274 321 396
#     4  11  22  42  69  94 130 171 220 274 328 392
#     4  11  24  46  69  95 130 181 220 274 337 389
#     4  12  26  43  63  98 141 170 218 277 334 395
#     4  12  24  41  66  99 137 173 217 265 335 397
#     4  12  24  39  68  99 132 177 217 271 333 398
#
# _framework density 19.935476999999999
#
# number of rings (size 3 to 8) (size 9 to 14) (size 15 to 20)
#    0.000    0.571    5.714    3.429    2.000    0.000 
#    2.571    0.714    0.000    0.000    0.000    0.000 
#    0.000    0.000    0.000    0.000    0.000    0.000 
#
# Total GULP energy -156673.657745 kJ/mol
# GULP energy per Si atom -5595.487777 kJ/mol
# Density = 1.989010 g / cm^3
# Si number density = 19.935477 Si / 1000 Ang^3
#
#
#
# Elastic Constant Matrix: (Units=GPa)
#
#
# Indices 1 2 3 4 5 6 
#
# 1 72.9136 -3.1573 13.5232 0.0000 17.0650 0.0000
# 2 -3.1573 73.2954 12.8918 0.0000 -3.5845 0.0000
# 3 13.5232 12.8918 105.9311 0.0000 9.3068 0.0000
# 4 0.0000 0.0000 0.0000 12.3420 0.0000 0.8418
# 5 17.0650 -3.5845 9.3068 0.0000 32.6115 0.0000
# 6 0.0000 0.0000 0.0000 0.8418 0.0000 19.2317
#
#
#
# Elastic Compliance Matrix: (Units=1/GPa)
#
#
# Indices 1 2 3 4 5 6 
#
# 1 0.015829 0.000545 -0.001400 0.000000 -0.007824 0.000000
# 2 0.000545 0.014098 -0.001945 0.000000 0.001819 0.000000
# 3 -0.001400 -0.001945 0.010062 0.000000 -0.002353 0.000000
# 4 0.000000 0.000000 0.000000 0.081267 0.000000 -0.003557
# 5 -0.007824 0.001819 -0.002353 0.000000 0.035629 0.000000
# 6 0.000000 0.000000 0.000000 -0.003557 0.000000 0.052153
#
#
# Mechanical properties :
#
#
# Convention : Reuss Voigt Hill
#
# Bulk Modulus (GPa) = 29.07785 33.18394 31.13090
# Shear Modulus (GPa) = 22.11397 28.09587 25.10492
#
# Velocity S-wave (km/s) = 3.33419 3.75819 3.55252
# Velocity P-wave (km/s) = 5.42587 5.95935 5.69886
#
# Compressibility (1/GPa) = 0.03439043
#
# Stress axis : x y z
#
# Youngs Moduli (GPa) = 63.17442 70.93185 99.38137
#
# Poissons Ratio (x) = -0.03869 0.13911
# Poissons Ratio (y) = -0.03446 0.19332
# Poissons Ratio (z) = 0.08843 0.13798
#
# Static dielectric constant tensor:
#      x y z
#    x 1.680530 0.000000 0.021070 
#    y 0.000000 1.689660 0.000000 
#    z 0.021070 0.000000 1.704250 
# 
# From -- ./inp_files/172286.got.cif
#   From: 2010.05.17/outbox.cif.g08.bks.cpg/sg15_87_cif.got.tgz:172286.got - 2010.06.03 18:47:42.
