data_PCOD9303371
_publ_section_title
;
Structure prediction by ZEFSAII (Michael W. Deem and Ramdas Pophale) SiO2 
 PCOD9303371
Probable space group: C 2/C
;
_chemical_formula_sum "Si O2"
_cell_formula_units_Z 48
_cell_length_a 29.047523
_cell_length_b 10.145294
_cell_length_c 16.842024
_cell_angle_alpha 90.000000
_cell_angle_beta 153.342437
_cell_angle_gamma 90.000000
_cell_volume 2226.807377
_symmetry_space_group_name_H-M "C 2/C"
_symmetry_group_IT_number 15
_symmetry_cell_setting 'monoclinic'
loop_
_space_group_symop_operation_xyz
x,y,z
-x,y,1/2-z
-x,-y,-z
x,-y,1/2+z
1/2+x,1/2+y,z
1/2-x,1/2+y,1/2-z
1/2-x,1/2-y,-z
1/2+x,1/2-y,1/2+z
loop_
_atom_site_type_symbol
_atom_site_label
_atom_site_fract_x
_atom_site_fract_y
_atom_site_fract_z
Si Si1 0.640192 0.202091 0.603546
Si Si2 0.385412 0.546592 0.335780
Si Si3 0.662913 0.502544 0.919289
Si Si4 0.136619 0.210216 0.606285
Si Si5 0.382965 0.955962 0.834836
Si Si6 0.000000 0.798744 0.250000
Si Si7 0.500000 0.689377 0.250000
O O1 0.616528 0.302585 0.639153
O O2 0.751173 0.250526 0.747758
O O3 0.559751 0.220566 0.409393
O O4 0.644182 0.050060 0.633032
O O5 0.500000 0.500000 0.500000
O O6 0.336548 0.521325 0.174470
O O7 0.354292 0.444154 0.357512
O O8 0.588357 0.619636 0.837601
O O9 0.599887 0.385805 0.866660
O O10 0.782380 0.518104 0.125897
O O11 0.112584 0.300017 0.644558
O O12 0.052913 0.246642 0.410450
O O13 0.500000 0.000000 0.000000
#
# Coordination Sequence:
#
# PCOD9303371 Si02
#       7
#     8   8   8   8   8   4   4
#     4  12  25  45  71 104 139 182 229 287 345 408
#     4  12  23  42  76 102 130 186 242 274 330 427
#     4  11  23  44  74 102 133 188 239 276 334 425
#     4  12  25  45  71 104 139 182 229 287 345 408
#     4  12  28  44  66 109 150 166 219 309 355 379
#     4  11  22  43  76 100 132 188 242 272 334 426
#     4  11  22  43  76 100 132 188 242 272 334 426
#
# _framework density 21.555524999999999
#
# number of rings (size 3 to 8) (size 9 to 14) (size 15 to 20)
#    0.000    0.333    6.667    3.000    0.000    4.667 
#    0.000    0.000    0.000    0.000    0.000    0.000 
#    0.000    0.000    0.000    0.000    0.000    0.000 
#
# Total GULP energy -133705.750427 kJ/mol
# GULP energy per Si atom -5571.072934 kJ/mol
# Density = 2.150646 g / cm^3
# Si number density = 21.555525 Si / 1000 Ang^3
#
#
#
# Elastic Constant Matrix: (Units=GPa)
#
#
# Indices 1 2 3 4 5 6 
#
# 1 59.3197 -3.2844 37.7233 0.0000 6.6897 0.0000
# 2 -3.2844 45.5822 3.2154 0.0000 -3.3792 0.0000
# 3 37.7233 3.2154 200.9844 0.0000 -9.0044 0.0000
# 4 0.0000 0.0000 0.0000 12.5879 0.0000 13.6211
# 5 6.6897 -3.3792 -9.0044 0.0000 56.2344 0.0000
# 6 0.0000 0.0000 0.0000 13.6211 0.0000 11.9606
#
#
#
# Elastic Compliance Matrix: (Units=1/GPa)
#
#
# Indices 1 2 3 4 5 6 
#
# 1 0.019714 0.001479 -0.003852 0.000000 -0.002873 0.000000
# 2 0.001479 0.022165 -0.000585 0.000000 0.001062 0.000000
# 3 -0.003852 -0.000585 0.005768 0.000000 0.001347 0.000000
# 4 0.000000 0.000000 0.000000 -0.341977 0.000000 0.389453
# 5 -0.002873 0.001062 0.001347 0.000000 0.018404 0.000000
# 6 0.000000 0.000000 0.000000 0.389453 0.000000 -0.359912
#
#
# Mechanical properties :
#
#
# Convention : Reuss Voigt Hill
#
# Bulk Modulus (GPa) = 23.96294 42.35498 33.15896
# Shear Modulus (GPa) = -8.11673 34.03873 12.96100
#
# Velocity S-wave (km/s) = -1.94259 3.97812 2.45477
# Velocity P-wave (km/s) = 2.47172 6.38690 4.84262
#
# Compressibility (1/GPa) = 0.04173110
#
# Stress axis : x y z
#
# Youngs Moduli (GPa) = 50.72626 45.11623 173.36167
#
# Poissons Ratio (x) = -0.06674 0.66787
# Poissons Ratio (y) = -0.07504 0.10136
# Poissons Ratio (z) = 0.19542 0.02638
#
# Static dielectric constant tensor:
#      x y z
#    x 1.803990 0.000000 -0.002480 
#    y 0.000000 1.824140 0.000000 
#    z -0.002480 0.000000 1.787690 
# 
# From -- ./inp_files/152515.got.cif
#   From: 2010.05.17/outbox.cif.g08.bks.cpg/sg15_77_cif.got.tgz:152515.got - 2010.06.03 18:47:42.
