data_PCOD9303776
_publ_section_title
;
Structure prediction by ZEFSAII (Michael W. Deem and Ramdas Pophale) SiO2 
 PCOD9303776
Probable space group: C 2/C
;
_chemical_formula_sum "Si O2"
_cell_formula_units_Z 40
_cell_length_a 27.404530
_cell_length_b 5.345727
_cell_length_c 12.300270
_cell_angle_alpha 90.000000
_cell_angle_beta 98.024377
_cell_angle_gamma 90.000000
_cell_volume 1784.310971
_symmetry_space_group_name_H-M "C 2/C"
_symmetry_group_IT_number 15
_symmetry_cell_setting 'monoclinic'
loop_
_space_group_symop_operation_xyz
x,y,z
-x,y,1/2-z
-x,-y,-z
x,-y,1/2+z
1/2+x,1/2+y,z
1/2-x,1/2+y,1/2-z
1/2-x,1/2-y,-z
1/2+x,1/2-y,1/2+z
loop_
_atom_site_type_symbol
_atom_site_label
_atom_site_fract_x
_atom_site_fract_y
_atom_site_fract_z
Si Si1 0.366327 0.191568 0.557572
Si Si2 0.600776 0.334111 0.156727
Si Si3 0.213839 0.650435 0.583098
Si Si4 0.057042 0.648364 0.739594
Si Si5 0.808646 0.015533 0.226100
O O1 0.388744 0.356413 0.467706
O O2 0.411639 0.090295 0.641807
O O3 0.332954 0.338057 0.633841
O O4 0.329840 0.999243 0.486899
O O5 0.577116 0.588796 0.196592
O O6 0.653061 0.290657 0.237670
O O7 0.568105 0.088103 0.165969
O O8 0.250000 0.750000 0.500000
O O9 0.191172 0.851555 0.657249
O O10 0.252109 0.509801 0.674223
O O11 0.000000 0.671718 0.750000
#
# Coordination Sequence:
#
# PCOD9303776 Si02
#       5
#     8   8   8   8   8
#     4  11  23  41  66  95 135 178 222 274 334 395
#     4  11  24  44  68  98 133 173 220 274 335 398
#     4  12  22  38  64  97 138 183 226 271 330 393
#     4  11  26  46  70 100 132 170 223 281 336 400
#     4  11  23  39  62  97 135 175 224 273 325 396
#
# _framework density 22.417615000000001
#
# number of rings (size 3 to 8) (size 9 to 14) (size 15 to 20)
#    0.000    0.800    0.000    8.400    0.000    6.400 
#    0.000    0.000    0.000    0.000    0.000    0.000 
#    0.000    0.000    0.000    0.000    0.000    0.000 
#
# Total GULP energy -111820.039055 kJ/mol
# GULP energy per Si atom -5591.001953 kJ/mol
# Density = 2.236659 g / cm^3
# Si number density = 22.417615 Si / 1000 Ang^3
#
#
#
# Elastic Constant Matrix: (Units=GPa)
#
#
# Indices 1 2 3 4 5 6 
#
# 1 152.4075 46.2608 40.1674 0.0000 -8.6855 0.0000
# 2 46.2608 83.9211 37.2774 0.0000 -15.9365 0.0000
# 3 40.1674 37.2774 116.6739 0.0000 -30.3479 0.0000
# 4 0.0000 0.0000 0.0000 29.4683 0.0000 -1.9979
# 5 -8.6855 -15.9365 -30.3479 0.0000 23.0170 0.0000
# 6 0.0000 0.0000 0.0000 -1.9979 0.0000 39.0282
#
#
#
# Elastic Compliance Matrix: (Units=1/GPa)
#
#
# Indices 1 2 3 4 5 6 
#
# 1 0.008225 -0.004046 -0.002223 0.000000 -0.002628 0.000000
# 2 -0.004046 0.016392 -0.001962 0.000000 0.007235 0.000000
# 3 -0.002223 -0.001962 0.014294 0.000000 0.016649 0.000000
# 4 0.000000 0.000000 0.000000 0.034053 0.000000 0.001743
# 5 -0.002628 0.007235 0.016649 0.000000 0.069415 0.000000
# 6 0.000000 0.000000 0.000000 0.001743 0.000000 0.025712
#
#
# Mechanical properties :
#
#
# Convention : Reuss Voigt Hill
#
# Bulk Modulus (GPa) = 44.54568 66.71261 55.62915
# Shear Modulus (GPa) = 26.03684 33.58916 29.81300
#
# Velocity S-wave (km/s) = 3.41170 3.87504 3.65072
# Velocity P-wave (km/s) = 5.95261 7.06009 6.52987
#
# Compressibility (1/GPa) = 0.02244887
#
# Stress axis : x y z
#
# Youngs Moduli (GPa) = 121.57365 61.00571 69.96183
#
# Poissons Ratio (x) = 0.24683 0.15550
# Poissons Ratio (y) = 0.49188 0.13729
# Poissons Ratio (z) = 0.27022 0.11972
#
# Static dielectric constant tensor:
#      x y z
#    x 1.838590 0.000000 0.007210 
#    y 0.000000 1.926660 0.000000 
#    z 0.007210 0.000000 1.839060 
# 
# From -- ./inp_files/120808.got.cif
#   From: 2010.05.17/outbox.cif.g08.bks.cpg/sg15_61_cif.got.tgz:120808.got - 2010.06.03 18:47:42.
