data_PCOD9303974
_publ_section_title
;
Structure prediction by ZEFSAII (Michael W. Deem and Ramdas Pophale) SiO2 
 PCOD9303974
Probable space group: C 2/C
;
_chemical_formula_sum "Si O2"
_cell_formula_units_Z 40
_cell_length_a 24.312113
_cell_length_b 7.221868
_cell_length_c 9.278938
_cell_angle_alpha 90.000000
_cell_angle_beta 89.307283
_cell_angle_gamma 90.000000
_cell_volume 1629.066387
_symmetry_space_group_name_H-M "C 2/C"
_symmetry_group_IT_number 15
_symmetry_cell_setting 'monoclinic'
loop_
_space_group_symop_operation_xyz
x,y,z
-x,y,1/2-z
-x,-y,-z
x,-y,1/2+z
1/2+x,1/2+y,z
1/2-x,1/2+y,1/2-z
1/2-x,1/2-y,-z
1/2+x,1/2-y,1/2+z
loop_
_atom_site_type_symbol
_atom_site_label
_atom_site_fract_x
_atom_site_fract_y
_atom_site_fract_z
Si Si1 0.065242 0.663935 0.876503
Si Si2 0.046702 0.280228 0.037906
Si Si3 0.778578 0.025456 0.221747
Si Si4 0.190696 0.628478 0.926258
Si Si5 0.834851 0.783254 0.994774
O O1 0.059145 0.668099 0.704515
O O2 0.128091 0.704182 0.912504
O O3 0.016677 0.784427 0.952545
O O4 0.051476 0.457985 0.933783
O O5 0.100693 0.167480 0.993464
O O6 0.776621 0.172410 0.091720
O O7 0.811811 0.111142 0.355282
O O8 0.721147 0.967569 0.290700
O O9 0.806453 0.852808 0.142155
O O10 0.177790 0.437734 0.016697
#
# Coordination Sequence:
#
# PCOD9303974 Si02
#       5
#     8   8   8   8   8
#     4   9  18  35  67  92 123 171 214 274 323 386
#     4   9  18  38  64  94 125 162 226 272 321 389
#     4  12  25  42  66 100 137 179 217 275 335 398
#     4  11  23  41  67  97 134 174 222 270 332 397
#     4  11  25  44  65  99 136 176 226 271 334 401
#
# _framework density 24.553941999999999
#
# number of rings (size 3 to 8) (size 9 to 14) (size 15 to 20)
#    0.000    1.600    4.000    0.600    0.000    2.400 
#    3.600    1.000    0.000    0.000    0.000    0.000 
#    0.000    0.000    0.000    0.000    0.000    0.000 
#
# Total GULP energy -111371.633557 kJ/mol
# GULP energy per Si atom -5568.581678 kJ/mol
# Density = 2.449806 g / cm^3
# Si number density = 24.553942 Si / 1000 Ang^3
#
#
#
# Elastic Constant Matrix: (Units=GPa)
#
#
# Indices 1 2 3 4 5 6 
#
# 1 -4521.9934 -794.9459-1221.8026 0.0000 -416.4629 0.0000
# 2 -794.9459 -37.8544 -210.2777 0.0000 -71.5345 0.0000
# 3 -1221.8026 -210.2777 -282.4766 0.0000 -139.5615 0.0000
# 4 0.0000 0.0000 0.0000 29.2465 0.0000 -31.4295
# 5 -416.4629 -71.5345 -139.5615 0.0000 9.1461 0.0000
# 6 0.0000 0.0000 0.0000 -31.4295 0.0000 -2.7641
#
#
#
# Elastic Compliance Matrix: (Units=1/GPa)
#
#
# Indices 1 2 3 4 5 6 
#
# 1 0.003322 -0.001168 -0.009804 0.000000 -0.007478 0.000000
# 2 -0.001168 0.009910 -0.001679 0.000000 -0.001306 0.000000
# 3 -0.009804 -0.001679 0.031288 0.000000 0.017868 0.000000
# 4 0.000000 0.000000 0.000000 0.002586 0.000000 -0.029410
# 5 -0.007478 -0.001306 0.017868 0.000000 0.031268 0.000000
# 6 0.000000 0.000000 0.000000 -0.029410 0.000000 -0.027368
#
#
# Mechanical properties :
#
#
# Convention : Reuss Voigt Hill
#
# Bulk Modulus (GPa) = 52.03718 -1032.93075 -490.44678
# Shear Modulus (GPa) = 60.44850 -167.22751 -53.38950
#
# Velocity S-wave (km/s) = 4.96710 -8.26160 -4.66808
# Velocity P-wave (km/s) = 7.35766 22.64060 15.14037
#
# Compressibility (1/GPa) = 0.01921703
#
# Stress axis : x y z
#
# Youngs Moduli (GPa) = 301.03260 100.90837 31.96142
#
# Poissons Ratio (x) = 0.11789 0.31335
# Poissons Ratio (y) = 0.35168 0.05366
# Poissons Ratio (z) = 2.95135 0.16942
#
# Static dielectric constant tensor:
#      x y z
#    x 2.118690 0.000000 0.014600 
#    y 0.000000 2.024900 0.000000 
#    z 0.014600 0.000000 1.896840 
# 
# From -- ./inp_files/125153.got.cif
#   From: 2010.05.17/outbox.cif.g08.bks.cpg/sg15_63_cif.got.tgz:125153.got - 2010.06.03 18:47:42.
