data_PCOD9303857
_publ_section_title
;
Structure prediction by ZEFSAII (Michael W. Deem and Ramdas Pophale) SiO2 
 PCOD9303857
Probable space group: C 2/C
;
_chemical_formula_sum "Si O2"
_cell_formula_units_Z 52
_cell_length_a 14.337561
_cell_length_b 18.847994
_cell_length_c 9.493214
_cell_angle_alpha 90.000000
_cell_angle_beta 88.187635
_cell_angle_gamma 90.000000
_cell_volume 2564.108380
_symmetry_space_group_name_H-M "C 2/C"
_symmetry_group_IT_number 15
_symmetry_cell_setting 'monoclinic'
loop_
_space_group_symop_operation_xyz
x,y,z
-x,y,1/2-z
-x,-y,-z
x,-y,1/2+z
1/2+x,1/2+y,z
1/2-x,1/2+y,1/2-z
1/2-x,1/2-y,-z
1/2+x,1/2-y,1/2+z
loop_
_atom_site_type_symbol
_atom_site_label
_atom_site_fract_x
_atom_site_fract_y
_atom_site_fract_z
Si Si1 0.239903 0.574657 0.424443
Si Si2 0.550691 0.859061 0.550844
Si Si3 0.897768 0.162978 0.323613
Si Si4 0.000000 0.612290 0.750000
Si Si5 0.137879 0.509138 0.156878
Si Si6 0.229815 0.717135 0.150862
Si Si7 0.367910 0.778129 0.572761
O O1 0.348249 0.592299 0.389453
O O2 0.185939 0.545837 0.288758
O O3 0.216191 0.516515 0.542953
O O4 0.195364 0.652645 0.463390
O O5 0.538012 0.847122 0.384214
O O6 0.557241 0.941944 0.589307
O O7 0.648175 0.835876 0.610021
O O8 0.464085 0.815284 0.612966
O O9 0.825007 0.184904 0.205057
O O10 0.889579 0.223552 0.445982
O O11 0.000000 0.156400 0.250000
O O12 0.915248 0.562307 0.798767
O O13 0.184142 0.756393 0.289386
O O14 0.250000 0.750000 0.000000
#
# Coordination Sequence:
#
# PCOD9303857 Si02
#       7
#     8   8   8   4   8   8   8
#     4  11  23  42  64  95 135 177 219 270 330 396
#     4  12  23  37  62  98 136 162 209 264 337 403
#     4  11  25  46  67  91 129 181 235 275 324 378
#     4  12  24  32  62 102 132 168 200 252 338 420
#     4  12  22  39  62  95 137 170 208 263 335 403
#     4  11  24  39  62  91 133 170 212 273 328 393
#     4  11  23  40  66  95 135 171 210 275 341 404
#
# _framework density 20.279954
#
# number of rings (size 3 to 8) (size 9 to 14) (size 15 to 20)
#    0.000    0.615    6.154    4.615    3.231    1.231 
#    0.000    0.769    0.000    0.000    0.000    0.000 
#    0.000    0.000    0.000    0.000    0.000    0.000 
#
# Total GULP energy -144980.620338 kJ/mol
# GULP energy per Si atom -5576.177705 kJ/mol
# Density = 2.023380 g / cm^3
# Si number density = 20.279954 Si / 1000 Ang^3
#
#
#
# Elastic Constant Matrix: (Units=GPa)
#
#
# Indices 1 2 3 4 5 6 
#
# 1 151.2697 27.7492 51.4799 0.0000 -10.2598 0.0000
# 2 27.7492 36.8037 30.9365 0.0000 -4.1146 0.0000
# 3 51.4799 30.9365 123.7854 0.0000 -7.5416 0.0000
# 4 0.0000 0.0000 0.0000 -566.6662 0.0000 263.3416
# 5 -10.2598 -4.1146 -7.5416 0.0000 32.6340 0.0000
# 6 0.0000 0.0000 0.0000 263.3416 0.0000 -94.9210
#
#
#
# Elastic Compliance Matrix: (Units=1/GPa)
#
#
# Indices 1 2 3 4 5 6 
#
# 1 0.008256 -0.004108 -0.002313 0.000000 0.001543 0.000000
# 2 -0.004108 0.036625 -0.007346 0.000000 0.001629 0.000000
# 3 -0.002313 -0.007346 0.010929 0.000000 0.000872 0.000000
# 4 0.000000 0.000000 0.000000 0.006100 0.000000 0.016924
# 5 0.001543 0.001629 0.000872 0.000000 0.031535 0.000000
# 6 0.000000 0.000000 0.000000 0.016924 0.000000 0.036417
#
#
# Mechanical properties :
#
#
# Convention : Reuss Voigt Hill
#
# Bulk Modulus (GPa) = 35.36396 59.13222 47.24809
# Shear Modulus (GPa) = 29.97193 -112.34440 -41.18623
#
# Velocity S-wave (km/s) = 3.84853 -7.45098 -4.51142
# Velocity P-wave (km/s) = 6.10115 6.69339 1.94647
#
# Compressibility (1/GPa) = 0.02827738
#
# Stress axis : x y z
#
# Youngs Moduli (GPa) = 121.12277 27.30343 91.49706
#
# Poissons Ratio (x) = 0.11217 0.21161
# Poissons Ratio (y) = 0.49761 0.67211
# Poissons Ratio (z) = 0.28013 0.20056
#
# Static dielectric constant tensor:
#      x y z
#    x 1.758990 0.000000 -0.115800 
#    y 0.000000 1.964920 0.000000 
#    z -0.115800 0.000000 1.938310 
# 
# From -- ./inp_files/40791.got.cif
#   From: 2010.05.17/outbox.cif.g08.bks.cpg/sg15_21_cif.got.tgz:40791.got - 2010.06.03 18:47:42.
