data_PCOD9303398
_publ_section_title
;
Structure prediction by ZEFSAII (Michael W. Deem and Ramdas Pophale) SiO2 
 PCOD9303398
Probable space group: C 2/C
;
_chemical_formula_sum "Si O2"
_cell_formula_units_Z 64
_cell_length_a 12.488711
_cell_length_b 25.027908
_cell_length_c 14.495846
_cell_angle_alpha 90.000000
_cell_angle_beta 45.349069
_cell_angle_gamma 90.000000
_cell_volume 3223.298876
_symmetry_space_group_name_H-M "C 2/C"
_symmetry_group_IT_number 15
_symmetry_cell_setting 'monoclinic'
loop_
_space_group_symop_operation_xyz
x,y,z
-x,y,1/2-z
-x,-y,-z
x,-y,1/2+z
1/2+x,1/2+y,z
1/2-x,1/2+y,1/2-z
1/2-x,1/2-y,-z
1/2+x,1/2-y,1/2+z
loop_
_atom_site_type_symbol
_atom_site_label
_atom_site_fract_x
_atom_site_fract_y
_atom_site_fract_z
Si Si1 0.640961 0.121073 0.429354
Si Si2 0.436647 0.894117 0.884346
Si Si3 0.645967 0.221382 0.134689
Si Si4 0.090735 0.871472 0.446527
Si Si5 0.588238 0.821996 0.292587
Si Si6 0.904035 0.071179 0.898036
Si Si7 0.369794 0.555108 0.401585
Si Si8 0.650293 0.700750 0.310822
O O1 0.553716 0.096880 0.394761
O O2 0.518846 0.153693 0.563257
O O3 0.717823 0.074469 0.442870
O O4 0.768322 0.161667 0.312125
O O5 0.500000 0.917334 0.750000
O O6 0.418100 0.830790 0.877814
O O7 0.269247 0.912664 0.006309
O O8 0.500000 0.255689 0.250000
O O9 0.736891 0.206828 0.170967
O O10 0.750000 0.250000 0.000000
O O11 0.248004 0.850155 0.310219
O O12 0.123010 0.913737 0.507237
O O13 0.982850 0.899186 0.436201
O O14 0.999141 0.824839 0.554452
O O15 0.500000 0.830101 0.250000
O O16 0.615625 0.758999 0.291746
O O17 0.000000 0.085597 0.750000
O O18 0.897185 0.006916 0.907336
O O19 0.500000 0.570757 0.250000
#
# Coordination Sequence:
#
# PCOD9303398 Si02
#       8
#     8   8   8   8   8   8   8   8
#     4  12  23  46  67  96 148 179 232 285 344 414
#     4  11  22  44  67  99 136 179 225 289 345 410
#     4  11  23  40  62  99 138 180 234 278 345 411
#     4  12  24  48  71  99 143 179 230 287 341 415
#     4  12  28  42  66 106 141 183 232 284 350 413
#     4  11  25  46  72 103 132 175 235 289 354 405
#     4  11  25  44  73 102 130 186 232 285 348 417
#     4  12  25  41  70  99 136 194 224 279 347 417
#
# _framework density 19.855433999999999
#
# number of rings (size 3 to 8) (size 9 to 14) (size 15 to 20)
#    0.000    0.500    6.250    2.625    3.500    2.000 
#    2.250    0.000    0.000    0.000    0.000    0.000 
#    0.000    0.000    0.000    0.000    0.000    0.000 
#
# Total GULP energy -178849.615362 kJ/mol
# GULP energy per Si atom -5589.050480 kJ/mol
# Density = 1.981024 g / cm^3
# Si number density = 19.855434 Si / 1000 Ang^3
#
#
#
# Elastic Constant Matrix: (Units=GPa)
#
#
# Indices 1 2 3 4 5 6 
#
# 1 51.1275 25.1174 -3.8107 0.0000 -2.9400 0.0000
# 2 25.1174 65.9121 39.2861 0.0000 -1.0914 0.0000
# 3 -3.8107 39.2861 139.3415 0.0000 -13.6733 -0.0001
# 4 0.0000 0.0000 0.0000 14.5276 0.0000 29.8537
# 5 -2.9400 -1.0914 -13.6733 0.0000 35.9006 0.0001
# 6 0.0000 0.0000 -0.0001 29.8537 0.0001 486.4502
#
#
#
# Elastic Compliance Matrix: (Units=1/GPa)
#
#
# Indices 1 2 3 4 5 6 
#
# 1 0.026393 -0.012785 0.004675 0.000000 0.003553 0.000000
# 2 -0.012785 0.024504 -0.007571 0.000000 -0.003186 0.000000
# 3 0.004675 -0.007571 0.009821 0.000000 0.003893 0.000000
# 4 0.000000 0.000000 0.000000 0.078769 0.000000 -0.004834
# 5 0.003553 -0.003186 0.003893 0.000000 0.029532 0.000000
# 6 0.000000 0.000000 0.000000 -0.004834 0.000000 0.002352
#
#
# Mechanical properties :
#
#
# Convention : Reuss Voigt Hill
#
# Bulk Modulus (GPa) = 34.06523 41.95185 38.00854
# Shear Modulus (GPa) = 23.52753 120.42823 71.97788
#
# Velocity S-wave (km/s) = 3.44603 7.79642 6.02741
# Velocity P-wave (km/s) = 5.74695 10.11040 8.22337
#
# Compressibility (1/GPa) = 0.02935544
#
# Stress axis : x y z
#
# Youngs Moduli (GPa) = 37.88921 40.81031 101.82243
#
# Poissons Ratio (x) = 0.52177 -0.47604
# Poissons Ratio (y) = 0.48443 0.77088
# Poissons Ratio (z) = -0.17714 0.30897
#
# Static dielectric constant tensor:
#      x y z
#    x 1.692750 0.000000 -0.030330 
#    y 0.000000 1.729050 0.000000 
#    z -0.030330 0.000000 1.781870 
# 
# From -- ./inp_files/148767.got.cif
#   From: 2010.05.17/outbox.cif.g08.bks.cpg/sg15_75_cif.got.tgz:148767.got - 2010.06.03 18:47:42.
