data_PCOD9303768
_publ_section_title
;
Structure prediction by ZEFSAII (Michael W. Deem and Ramdas Pophale) SiO2 
 PCOD9303768
Probable space group: C 2/C
;
_chemical_formula_sum "Si O2"
_cell_formula_units_Z 52
_cell_length_a 27.029202
_cell_length_b 8.818277
_cell_length_c 13.406298
_cell_angle_alpha 90.000000
_cell_angle_beta 55.014139
_cell_angle_gamma 90.000000
_cell_volume 2617.974257
_symmetry_space_group_name_H-M "C 2/C"
_symmetry_group_IT_number 15
_symmetry_cell_setting 'monoclinic'
loop_
_space_group_symop_operation_xyz
x,y,z
-x,y,1/2-z
-x,-y,-z
x,-y,1/2+z
1/2+x,1/2+y,z
1/2-x,1/2+y,1/2-z
1/2-x,1/2-y,-z
1/2+x,1/2-y,1/2+z
loop_
_atom_site_type_symbol
_atom_site_label
_atom_site_fract_x
_atom_site_fract_y
_atom_site_fract_z
Si Si1 0.098672 0.427493 0.400036
Si Si2 0.811149 0.186900 0.237685
Si Si3 0.128982 0.730492 0.295712
Si Si4 0.869449 0.010594 0.845561
Si Si5 0.500000 0.586027 0.250000
Si Si6 0.204322 0.906322 0.376479
Si Si7 0.474963 0.186155 0.954328
O O1 0.142063 0.291260 0.378904
O O2 0.135213 0.549455 0.290365
O O3 0.066875 0.537427 0.518422
O O4 0.042155 0.364348 0.403279
O O5 0.849067 0.103342 0.280358
O O6 0.760899 0.300955 0.337451
O O7 0.781319 0.057593 0.203778
O O8 0.164454 0.804532 0.347066
O O9 0.058471 0.752047 0.408851
O O10 0.145497 0.821805 0.178332
O O11 0.941022 0.002795 0.782085
O O12 0.833424 0.959670 0.984684
O O13 0.523290 0.694294 0.134754
#
# Coordination Sequence:
#
# PCOD9303768 Si02
#       7
#     8   8   8   8   4   8   8
#     4   9  18  40  58  85 116 163 198 244 304 351
#     4  11  23  41  67  83 124 162 202 251 307 354
#     4   9  20  39  60  86 126 155 201 251 296 358
#     4  11  23  39  61  93 124 157 204 252 304 364
#     4  12  20  36  60  94 120 166 202 242 308 370
#     4  11  23  41  60  92 118 163 206 248 305 361
#     4   9  19  36  61  84 121 157 200 242 301 356
#
# _framework density 19.862687000000001
#
# number of rings (size 3 to 8) (size 9 to 14) (size 15 to 20)
#    0.923    0.923    3.077    1.385    0.000    1.846 
#    2.769    8.462    0.000    0.000    0.000    0.000 
#    0.000    0.000    0.000    0.000    0.000    0.000 
#
# Total GULP energy -144802.261955 kJ/mol
# GULP energy per Si atom -5569.317768 kJ/mol
# Density = 1.981748 g / cm^3
# Si number density = 19.862687 Si / 1000 Ang^3
#
#
#
# Elastic Constant Matrix: (Units=GPa)
#
#
# Indices 1 2 3 4 5 6 
#
# 1 57.9589 21.4571 11.9890 0.0000 -11.2242 0.0000
# 2 21.4571 63.5357 2.8841 0.0000 -15.3205 0.0000
# 3 11.9890 2.8841 40.7897 0.0000 -6.1901 0.0000
# 4 0.0000 0.0000 0.0000 6.9023 0.0000 -27.8205
# 5 -11.2242 -15.3205 -6.1901 0.0000 21.7908 0.0000
# 6 0.0000 0.0000 0.0000 -27.8205 0.0000 11.0292
#
#
#
# Elastic Compliance Matrix: (Units=1/GPa)
#
#
# Indices 1 2 3 4 5 6 
#
# 1 0.021492 -0.005666 -0.005059 0.000000 0.005649 0.000000
# 2 -0.005666 0.020466 0.002047 0.000000 0.012052 0.000000
# 3 -0.005059 0.002047 0.026838 0.000000 0.006458 0.000000
# 4 0.000000 0.000000 0.000000 -0.015804 0.000000 -0.039866
# 5 0.005649 0.012052 0.006458 0.000000 0.059109 0.000000
# 6 0.000000 0.000000 0.000000 -0.039866 0.000000 -0.009891
#
#
# Mechanical properties :
#
#
# Convention : Reuss Voigt Hill
#
# Bulk Modulus (GPa) = 19.44006 26.10497 22.77251
# Shear Modulus (GPa) = 36.57317 16.34138 26.45728
#
# Velocity S-wave (km/s) = 4.29569 2.87142 3.65363
# Velocity P-wave (km/s) = 5.86621 4.91575 5.41189
#
# Compressibility (1/GPa) = 0.05144017
#
# Stress axis : x y z
#
# Youngs Moduli (GPa) = 46.52922 48.86160 37.26034
#
# Poissons Ratio (x) = 0.27686 0.18850
# Poissons Ratio (y) = 0.26365 -0.07628
# Poissons Ratio (z) = 0.23539 -0.10004
#
# Static dielectric constant tensor:
#      x y z
#    x 1.687710 0.000000 -0.030490 
#    y 0.000000 1.710750 0.000000 
#    z -0.030490 0.000000 1.709890 
# 
# From -- ./inp_files/176489.got.cif
#   From: 2010.05.17/outbox.cif.g08.bks.cpg/sg15_89_cif.got.tgz:176489.got - 2010.06.03 18:47:42.
