data_PCOD9303707
_publ_section_title
;
Structure prediction by ZEFSAII (Michael W. Deem and Ramdas Pophale) SiO2 
 PCOD9303707
Probable space group: C 2/C
;
_chemical_formula_sum "Si O2"
_cell_formula_units_Z 40
_cell_length_a 22.665241
_cell_length_b 12.418736
_cell_length_c 25.105518
_cell_angle_alpha 90.000000
_cell_angle_beta 163.231157
_cell_angle_gamma 90.000000
_cell_volume 2038.776207
_symmetry_space_group_name_H-M "C 2/C"
_symmetry_group_IT_number 15
_symmetry_cell_setting 'monoclinic'
loop_
_space_group_symop_operation_xyz
x,y,z
-x,y,1/2-z
-x,-y,-z
x,-y,1/2+z
1/2+x,1/2+y,z
1/2-x,1/2+y,1/2-z
1/2-x,1/2-y,-z
1/2+x,1/2-y,1/2+z
loop_
_atom_site_type_symbol
_atom_site_label
_atom_site_fract_x
_atom_site_fract_y
_atom_site_fract_z
Si Si1 0.604430 0.969314 0.503765
Si Si2 0.019832 0.880858 0.540074
Si Si3 0.521333 0.638284 0.331390
Si Si4 0.018613 0.344800 0.529737
Si Si5 0.650760 0.126020 0.803172
O O1 0.833515 0.927585 0.694181
O O2 0.479391 0.888880 0.435922
O O3 0.486662 0.962443 0.345646
O O4 0.598614 0.083329 0.528551
O O5 0.244295 0.871534 0.758011
O O6 0.009304 0.782164 0.489615
O O7 0.847753 0.858237 0.435278
O O8 0.000000 0.000000 0.500000
O O9 0.500000 0.624187 0.250000
O O10 0.480706 0.764545 0.308517
O O11 0.740180 0.606451 0.545740
#
# Coordination Sequence:
#
# PCOD9303707 Si02
#       5
#     8   8   8   8   8
#     4  11  23  38  57  84 126 164 201 252 305 371
#     4  12  22  37  61  92 128 169 201 249 312 380
#     4  12  24  37  60  90 126 165 212 264 313 368
#     4  11  23  37  57  90 127 163 205 247 310 374
#     4  12  21  37  55  87 127 165 202 250 313 373
#
# _framework density 19.619613999999999
#
# number of rings (size 3 to 8) (size 9 to 14) (size 15 to 20)
#    0.000    0.400    8.000    1.800    2.800    0.000 
#    0.000    0.000    0.000    0.000    0.000    7.000 
#    0.000    0.000    0.000    0.000    0.000    0.000 
#
# Total GULP energy -111819.959966 kJ/mol
# GULP energy per Si atom -5590.997998 kJ/mol
# Density = 1.957496 g / cm^3
# Si number density = 19.619614 Si / 1000 Ang^3
#
#
#
# Elastic Constant Matrix: (Units=GPa)
#
#
# Indices 1 2 3 4 5 6 
#
# 1 77.2141 47.0405 20.4174 0.0139 -18.0181 -0.0008
# 2 47.0405 126.6028 10.7940 -0.0192 -10.5384 -0.0018
# 3 20.4174 10.7940 80.6368 -0.0395 -29.4488 0.0019
# 4 0.0139 -0.0192 -0.0395 23.0523 -0.0061 1.1273
# 5 -18.0181 -10.5384 -29.4488 -0.0061 36.6688 0.0028
# 6 -0.0008 -0.0018 0.0019 1.1273 0.0028 25.1417
#
#
#
# Elastic Compliance Matrix: (Units=1/GPa)
#
#
# Indices 1 2 3 4 5 6 
#
# 1 0.018618 -0.006275 -0.001686 -0.000018 0.005991 0.000000
# 2 -0.006275 0.010214 0.000237 0.000013 0.000042 0.000000
# 3 -0.001686 0.000237 0.017714 0.000035 0.013466 -0.000004
# 4 -0.000018 0.000013 0.000035 0.043475 0.000031 -0.001949
# 5 0.005991 0.000042 0.013466 0.000031 0.041041 -0.000007
# 6 0.000000 0.000000 -0.000004 -0.001949 -0.000007 0.039862
#
#
# Mechanical properties :
#
#
# Convention : Reuss Voigt Hill
#
# Bulk Modulus (GPa) = 32.15737 48.99529 40.57633
# Shear Modulus (GPa) = 25.41445 30.71936 28.06691
#
# Velocity S-wave (km/s) = 3.60301 3.96125 3.78637
# Velocity P-wave (km/s) = 5.80818 6.77855 6.31204
#
# Compressibility (1/GPa) = 0.03109707
#
# Stress axis : x y z
#
# Youngs Moduli (GPa) = 53.71206 97.90827 56.45144
#
# Poissons Ratio (x) = 0.61439 0.09520
# Poissons Ratio (y) = 0.33705 -0.01339
# Poissons Ratio (z) = 0.09058 -0.02322
#
# Static dielectric constant tensor:
#      x y z
#    x 1.752850 0.000000 -0.048720 
#    y 0.000000 1.690130 0.000000 
#    z -0.048720 0.000000 1.748630 
# 
# From -- ./inp_files/54167.got.cif
#   From: 2010.05.17/outbox.cif.g08.bks.cpg/sg15_28_cif.got.tgz:54167.got - 2010.06.03 18:47:42.
