data_PCOD9303821
_publ_section_title
;
Structure prediction by ZEFSAII (Michael W. Deem and Ramdas Pophale) SiO2 
 PCOD9303821
Probable space group: C 2/C
;
_chemical_formula_sum "Si O2"
_cell_formula_units_Z 60
_cell_length_a 20.029211
_cell_length_b 21.645762
_cell_length_c 8.468305
_cell_angle_alpha 90.000000
_cell_angle_beta 49.821450
_cell_angle_gamma 90.000000
_cell_volume 2805.097451
_symmetry_space_group_name_H-M "C 2/C"
_symmetry_group_IT_number 15
_symmetry_cell_setting 'monoclinic'
loop_
_space_group_symop_operation_xyz
x,y,z
-x,y,1/2-z
-x,-y,-z
x,-y,1/2+z
1/2+x,1/2+y,z
1/2-x,1/2+y,1/2-z
1/2-x,1/2-y,-z
1/2+x,1/2-y,1/2+z
loop_
_atom_site_type_symbol
_atom_site_label
_atom_site_fract_x
_atom_site_fract_y
_atom_site_fract_z
Si Si1 0.682538 0.875557 0.927288
Si Si2 0.247480 0.245809 0.694978
Si Si3 0.791017 0.070476 0.513097
Si Si4 0.500000 0.822201 0.250000
Si Si5 0.328590 0.564845 0.011345
Si Si6 0.444204 0.618995 0.084857
Si Si7 0.138797 0.130974 0.834942
Si Si8 0.943090 0.738485 0.496095
O O1 0.725662 0.809378 0.817931
O O2 0.705569 0.903356 0.062673
O O3 0.735954 0.922833 0.736001
O O4 0.580962 0.863902 0.071130
O O5 0.250000 0.250000 0.500000
O O6 0.167982 0.198199 0.846425
O O7 0.341612 0.222741 0.613603
O O8 0.868480 0.114466 0.329815
O O9 0.793356 0.082962 0.693551
O O10 0.820493 0.000740 0.440362
O O11 0.528013 0.786268 0.371834
O O12 0.346006 0.623036 0.873378
O O13 0.408959 0.569401 0.011437
O O14 0.539847 0.609179 0.007599
O O15 0.447753 0.687163 0.005547
O O16 0.000000 0.721411 0.250000
#
# Coordination Sequence:
#
# PCOD9303821 Si02
#       8
#     8   8   8   4   8   8   8   8
#     4  11  24  47  66  99 143 175 243 305 362 434
#     4  12  22  42  69 101 141 191 230 298 372 439
#     4  11  25  41  65  95 134 187 234 293 350 426
#     4  12  28  44  76 106 148 192 240 312 380 444
#     4  11  23  44  66  89 138 188 236 291 354 423
#     4  11  23  40  59  98 140 182 232 290 348 430
#     4  12  23  35  66  96 131 184 235 278 360 429
#     4  12  25  43  70 108 152 192 236 295 370 449
#
# _framework density 21.389631999999999
#
# number of rings (size 3 to 8) (size 9 to 14) (size 15 to 20)
#    0.000    0.533    4.000    6.400    3.733    4.267 
#    0.000    0.667    0.000    0.000    0.000    0.000 
#    0.000    0.000    0.000    0.000    0.000    0.000 
#
# Total GULP energy -167316.490067 kJ/mol
# GULP energy per Si atom -5577.216336 kJ/mol
# Density = 2.134095 g / cm^3
# Si number density = 21.389632 Si / 1000 Ang^3
#
#
#
# Elastic Constant Matrix: (Units=GPa)
#
#
# Indices 1 2 3 4 5 6 
#
# 1 147.2251 38.5938 26.4566 0.0000 -2.1617 0.0000
# 2 38.5938 77.7667 0.4177 0.0000 5.1887 0.0000
# 3 26.4566 0.4177 57.0795 0.0000 -11.7342 0.0000
# 4 0.0000 0.0000 0.0000 12.9587 0.0000 15.7869
# 5 -2.1617 5.1887 -11.7342 0.0000 41.3069 0.0000
# 6 0.0000 0.0000 0.0000 15.7869 0.0000 6.2749
#
#
#
# Elastic Compliance Matrix: (Units=1/GPa)
#
#
# Indices 1 2 3 4 5 6 
#
# 1 0.008622 -0.004247 -0.003996 0.000000 -0.000150 0.000000
# 2 -0.004247 0.015071 0.001512 0.000000 -0.001686 0.000000
# 3 -0.003996 0.001512 0.020474 0.000000 0.005417 0.000000
# 4 0.000000 0.000000 0.000000 -0.037371 0.000000 0.094020
# 5 -0.000150 -0.001686 0.005417 0.000000 0.025952 0.000000
# 6 0.000000 0.000000 0.000000 0.094020 0.000000 -0.077177
#
#
# Mechanical properties :
#
#
# Convention : Reuss Voigt Hill
#
# Bulk Modulus (GPa) = 32.56914 45.88973 39.22944
# Shear Modulus (GPa) = -241.18134 26.54833 -107.31650
#
# Velocity S-wave (km/s) = -10.63019 3.52686 -7.09092
# Velocity P-wave (km/s) = 11.63651 6.17136 6.97576
#
# Compressibility (1/GPa) = 0.03070391
#
# Stress axis : x y z
#
# Youngs Moduli (GPa) = 115.98831 66.35214 48.84208
#
# Poissons Ratio (x) = 0.28181 0.19517
# Poissons Ratio (y) = 0.49262 -0.07383
# Poissons Ratio (z) = 0.46349 -0.10030
#
# Static dielectric constant tensor:
#      x y z
#    x 1.832250 0.000000 0.084680 
#    y 0.000000 1.773380 0.000000 
#    z 0.084680 0.000000 1.865790 
# 
# From -- ./inp_files/58080.got.cif
#   From: 2010.05.17/outbox.cif.g08.bks.cpg/sg15_30_cif.got.tgz:58080.got - 2010.06.03 18:47:42.
