data_PCOD9303471
_publ_section_title
;
Structure prediction by ZEFSAII (Michael W. Deem and Ramdas Pophale) SiO2 
 PCOD9303471
Probable space group: C 2/C
;
_chemical_formula_sum "Si O2"
_cell_formula_units_Z 52
_cell_length_a 18.815083
_cell_length_b 7.601383
_cell_length_c 19.001427
_cell_angle_alpha 90.000000
_cell_angle_beta 60.873871
_cell_angle_gamma 90.000000
_cell_volume 2373.957343
_symmetry_space_group_name_H-M "C 2/C"
_symmetry_group_IT_number 15
_symmetry_cell_setting 'monoclinic'
loop_
_space_group_symop_operation_xyz
x,y,z
-x,y,1/2-z
-x,-y,-z
x,-y,1/2+z
1/2+x,1/2+y,z
1/2-x,1/2+y,1/2-z
1/2-x,1/2-y,-z
1/2+x,1/2-y,1/2+z
loop_
_atom_site_type_symbol
_atom_site_label
_atom_site_fract_x
_atom_site_fract_y
_atom_site_fract_z
Si Si1 0.858898 0.893072 0.677137
Si Si2 0.863272 0.030855 0.326042
Si Si3 0.808533 0.391579 0.089054
Si Si4 0.117264 0.766058 0.405262
Si Si5 0.952271 0.810034 0.918580
Si Si6 0.454546 0.109327 0.417671
Si Si7 0.000000 0.763022 0.250000
O O1 0.842431 0.854389 0.767188
O O2 0.817120 0.754912 0.645112
O O3 0.956721 0.882335 0.619569
O O4 0.837923 0.093083 0.665448
O O5 0.908420 0.130456 0.367821
O O6 0.783282 0.929442 0.390107
O O7 0.926637 0.890153 0.264294
O O8 0.838651 0.579965 0.105095
O O9 0.870011 0.343780 0.996148
O O10 0.102808 0.858283 0.487901
O O11 0.027988 0.710661 0.420363
O O12 0.962479 0.600093 0.919155
O O13 0.464780 0.154980 0.331454
#
# Coordination Sequence:
#
# PCOD9303471 Si02
#       7
#     8   8   8   8   8   8   4
#     4  12  23  43  73  97 138 192 227 291 355 425
#     4  12  27  44  66 109 144 181 246 295 360 434
#     4  11  27  46  68 105 144 182 238 298 351 429
#     4  11  22  44  73 102 132 185 245 278 356 444
#     4  11  22  44  73  95 138 188 230 297 352 428
#     4  11  23  44  73 103 137 189 241 287 359 434
#     4  12  26  42  68 100 140 184 240 292 350 440
#
# _framework density 21.904353
#
# number of rings (size 3 to 8) (size 9 to 14) (size 15 to 20)
#    0.000    0.615    6.154    1.385    6.462    3.077 
#    2.769    0.000    0.000    0.000    0.000    0.000 
#    0.000    0.000    0.000    0.000    0.000    0.000 
#
# Total GULP energy -145386.545229 kJ/mol
# GULP energy per Si atom -5591.790201 kJ/mol
# Density = 2.185450 g / cm^3
# Si number density = 21.904353 Si / 1000 Ang^3
#
#
#
# Elastic Constant Matrix: (Units=GPa)
#
#
# Indices 1 2 3 4 5 6 
#
# 1 50.2488 27.7012 21.7408 0.0000 -10.5211 -0.0004
# 2 27.7012 74.1499 22.2663 0.0002 6.3046 -0.0008
# 3 21.7408 22.2663 69.9676 0.0000 19.9479 0.0001
# 4 0.0000 0.0002 0.0000 18.9522 0.0000 16.7603
# 5 -10.5211 6.3046 19.9479 0.0000 44.8054 0.0000
# 6 -0.0004 -0.0008 0.0001 16.7603 0.0000 20.5081
#
#
#
# Elastic Compliance Matrix: (Units=1/GPa)
#
#
# Indices 1 2 3 4 5 6 
#
# 1 0.033424 -0.010349 -0.011162 -0.000001 0.014274 0.000001
# 2 -0.010349 0.018115 -0.001294 -0.000002 -0.004403 0.000002
# 3 -0.011162 -0.001294 0.021611 0.000001 -0.012060 -0.000001
# 4 -0.000001 -0.000002 0.000001 0.190301 0.000000 -0.155523
# 5 0.014274 -0.004403 -0.012060 0.000000 0.031660 0.000001
# 6 0.000001 0.000002 -0.000001 -0.155523 0.000001 0.175863
#
#
# Mechanical properties :
#
#
# Convention : Reuss Voigt Hill
#
# Bulk Modulus (GPa) = 36.30974 37.53145 36.92059
# Shear Modulus (GPa) = 9.50999 25.03033 17.27016
#
# Velocity S-wave (km/s) = 2.08591 3.38407 2.81095
# Velocity P-wave (km/s) = 4.73433 5.69567 5.23710
#
# Compressibility (1/GPa) = 0.02754082
#
# Stress axis : x y z
#
# Youngs Moduli (GPa) = 29.91851 55.20222 46.27271
#
# Poissons Ratio (x) = 0.57126 0.51650
# Poissons Ratio (y) = 0.30961 0.05988
# Poissons Ratio (z) = 0.33395 0.07144
#
# Static dielectric constant tensor:
#      x y z
#    x 1.825110 0.000000 0.038020 
#    y 0.000000 1.811490 0.000000 
#    z 0.038020 0.000000 1.851130 
# 
# From -- ./inp_files/209457.got.cif
#   From: 2010.05.17/outbox.cif.g08.bks.cpg/sg15_105_cif.got.tgz:209457.got - 2010.06.03 18:47:42.
