data_PCOD9303908
_publ_section_title
;
Structure prediction by ZEFSAII (Michael W. Deem and Ramdas Pophale) SiO2 
 PCOD9303908
Probable space group: C 2/C
;
_chemical_formula_sum "Si O2"
_cell_formula_units_Z 64
_cell_length_a 19.477719
_cell_length_b 15.119485
_cell_length_c 18.817027
_cell_angle_alpha 90.000000
_cell_angle_beta 36.197106
_cell_angle_gamma 90.000000
_cell_volume 3272.606129
_symmetry_space_group_name_H-M "C 2/C"
_symmetry_group_IT_number 15
_symmetry_cell_setting 'monoclinic'
loop_
_space_group_symop_operation_xyz
x,y,z
-x,y,1/2-z
-x,-y,-z
x,-y,1/2+z
1/2+x,1/2+y,z
1/2-x,1/2+y,1/2-z
1/2-x,1/2-y,-z
1/2+x,1/2-y,1/2+z
loop_
_atom_site_type_symbol
_atom_site_label
_atom_site_fract_x
_atom_site_fract_y
_atom_site_fract_z
Si Si1 0.230432 0.367454 0.722257
Si Si2 0.475199 0.090114 0.854958
Si Si3 0.227231 0.342237 0.177054
Si Si4 0.414936 0.474131 0.257572
Si Si5 0.744448 0.644770 0.126512
Si Si6 0.521850 0.936189 0.550227
Si Si7 0.747624 0.830165 0.326151
Si Si8 0.906093 0.010781 0.515410
O O1 0.252533 0.370106 0.789726
O O2 0.250982 0.274746 0.665764
O O3 0.307620 0.440554 0.619259
O O4 0.095727 0.388642 0.831600
O O5 0.500000 0.097636 0.750000
O O6 0.600773 0.112864 0.783408
O O7 0.443566 0.992892 0.909844
O O8 0.368110 0.142856 0.981018
O O9 0.207964 0.247882 0.155030
O O10 0.269188 0.336342 0.223618
O O11 0.331319 0.401374 0.059443
O O12 0.500000 0.448215 0.250000
O O13 0.336630 0.563918 0.333861
O O14 0.334384 0.393573 0.297096
O O15 0.510047 0.494879 0.119349
O O16 0.620944 0.868463 0.446885
O O17 0.500000 0.000000 0.500000
O O18 0.000000 0.000000 0.500000
#
# Coordination Sequence:
#
# PCOD9303908 Si02
#       8
#     8   8   8   8   8   8   8   8
#     4  11  23  40  74 103 129 172 235 295 334 395
#     4  12  26  42  67  99 137 179 228 281 349 413
#     4  11  24  41  69  99 135 174 232 284 332 409
#     4  12  27  45  67  97 147 187 219 280 359 415
#     4  11  24  43  67 102 134 181 226 281 349 407
#     4  12  20  43  72  94 131 179 231 285 336 404
#     4  11  23  42  69 101 128 179 232 281 336 405
#     4  12  23  42  67 101 135 178 232 281 337 412
#
# _framework density 19.556279
#
# number of rings (size 3 to 8) (size 9 to 14) (size 15 to 20)
#    0.000    0.500    7.500    0.000    5.250    1.000 
#    0.000    1.250    0.000    0.000    0.000    0.000 
#    0.000    0.000    0.000    0.000    0.000    0.000 
#
# Total GULP energy -178297.890536 kJ/mol
# GULP energy per Si atom -5571.809079 kJ/mol
# Density = 1.951177 g / cm^3
# Si number density = 19.556279 Si / 1000 Ang^3
#
#
#
# Elastic Constant Matrix: (Units=GPa)
#
#
# Indices 1 2 3 4 5 6 
#
# 1 75.9996 67.0678 69.4821 0.0000 -22.6779 0.0000
# 2 67.0678 273.3183 251.3444 0.0000 -65.3771 0.0000
# 3 69.4821 251.3444 398.5229 0.0000 -85.3104 0.0000
# 4 0.0000 0.0000 0.0000 34.0900 0.0000 -6.5433
# 5 -22.6779 -65.3771 -85.3104 0.0000 45.1953 0.0000
# 6 0.0000 0.0000 0.0000 -6.5433 0.0000 8.0102
#
#
#
# Elastic Compliance Matrix: (Units=1/GPa)
#
#
# Indices 1 2 3 4 5 6 
#
# 1 0.017235 -0.003122 -0.000254 0.000000 0.003653 0.000000
# 2 -0.003122 0.009671 -0.004859 0.000000 0.003251 0.000000
# 3 -0.000254 -0.004859 0.006857 0.000000 0.005787 0.000000
# 4 0.000000 0.000000 0.000000 0.034789 0.000000 0.028418
# 5 0.003653 0.003251 0.005787 0.000000 0.039584 0.000000
# 6 0.000000 0.000000 0.000000 0.028418 0.000000 0.148054
#
#
# Mechanical properties :
#
#
# Convention : Reuss Voigt Hill
#
# Bulk Modulus (GPa) = 57.82778 169.29214 113.55996
# Shear Modulus (GPa) = 17.95825 41.45555 29.70690
#
# Velocity S-wave (km/s) = 3.03361 4.60913 3.90172
# Velocity P-wave (km/s) = 6.47337 10.72754 8.85959
#
# Compressibility (1/GPa) = 0.01729273
#
# Stress axis : x y z
#
# Youngs Moduli (GPa) = 58.02096 103.40373 145.83907
#
# Poissons Ratio (x) = 0.32281 0.03706
# Poissons Ratio (y) = 0.18113 0.70865
# Poissons Ratio (z) = 0.01474 0.50245
#
# Static dielectric constant tensor:
#      x y z
#    x 1.671220 0.000000 0.012490 
#    y 0.000000 2.654610 0.000000 
#    z 0.012490 0.000000 1.628480 
# 
# From -- ./inp_files/211391.got.cif
#   From: 2010.05.17/outbox.cif.g08.bks.cpg/sg15_106_cif.got.tgz:211391.got - 2010.06.03 18:47:42.
