data_PCOD9303964
_publ_section_title
;
Structure prediction by ZEFSAII (Michael W. Deem and Ramdas Pophale) SiO2 
 PCOD9303964
Probable space group: C 2/C
;
_chemical_formula_sum "Si O2"
_cell_formula_units_Z 36
_cell_length_a 10.116556
_cell_length_b 24.139910
_cell_length_c 9.297518
_cell_angle_alpha 90.000000
_cell_angle_beta 48.654572
_cell_angle_gamma 90.000000
_cell_volume 1704.610932
_symmetry_space_group_name_H-M "C 2/C"
_symmetry_group_IT_number 15
_symmetry_cell_setting 'monoclinic'
loop_
_space_group_symop_operation_xyz
x,y,z
-x,y,1/2-z
-x,-y,-z
x,-y,1/2+z
1/2+x,1/2+y,z
1/2-x,1/2+y,1/2-z
1/2-x,1/2-y,-z
1/2+x,1/2-y,1/2+z
loop_
_atom_site_type_symbol
_atom_site_label
_atom_site_fract_x
_atom_site_fract_y
_atom_site_fract_z
Si Si1 0.500000 0.078974 0.250000
Si Si2 0.421580 0.625004 0.645757
Si Si3 0.207617 0.688704 0.584354
Si Si4 0.752234 0.394934 0.701570
Si Si5 0.706716 0.481012 0.141338
O O1 0.576358 0.115849 0.324016
O O2 0.338734 0.041627 0.424567
O O3 0.500000 0.634287 0.750000
O O4 0.308043 0.673939 0.659439
O O5 0.583689 0.613659 0.423496
O O6 0.303049 0.569154 0.737160
O O7 0.250000 0.750000 0.500000
O O8 0.263979 0.643868 0.424209
O O9 0.000000 0.683104 0.750000
O O10 0.768186 0.459248 0.646989
O O11 0.500000 0.487532 0.250000
#
# Coordination Sequence:
#
# PCOD9303964 Si02
#       5
#     4   8   8   8   8
#     4  12  24  40  64 110 140 196 244 294 358 448
#     4  11  23  47  74 104 147 191 237 297 367 427
#     4  12  28  50  74 107 141 192 248 302 362 431
#     4  12  25  43  73 101 151 187 247 296 368 424
#     4  11  23  41  67 103 149 191 238 297 366 426
#
# _framework density 21.119188000000001
#
# number of rings (size 3 to 8) (size 9 to 14) (size 15 to 20)
#    0.000    0.444    4.444    6.000    4.667    0.000 
#    2.000    2.222    0.000    0.000    0.000    0.000 
#    0.000    0.000    0.000    0.000    0.000    0.000 
#
# Total GULP energy -100682.329582 kJ/mol
# GULP energy per Si atom -5593.462755 kJ/mol
# Density = 2.107112 g / cm^3
# Si number density = 21.119188 Si / 1000 Ang^3
#
#
#
# Elastic Constant Matrix: (Units=GPa)
#
#
# Indices 1 2 3 4 5 6 
#
# 1 101.6582 42.8529 25.1389 0.0000 13.2076 0.0000
# 2 42.8529 118.6913 33.5635 0.0000 19.2834 0.0000
# 3 25.1389 33.5635 139.7012 0.0000 -8.8507 0.0000
# 4 0.0000 0.0000 0.0000 37.5607 0.0000 -3.6532
# 5 13.2076 19.2834 -8.8507 0.0000 36.1708 0.0000
# 6 0.0000 0.0000 0.0000 -3.6532 0.0000 31.9075
#
#
#
# Elastic Compliance Matrix: (Units=1/GPa)
#
#
# Indices 1 2 3 4 5 6 
#
# 1 0.012046 -0.003440 -0.001527 0.000000 -0.002939 0.000000
# 2 -0.003440 0.011212 -0.002411 0.000000 -0.005311 0.000000
# 3 -0.001527 -0.002411 0.008257 0.000000 0.003864 0.000000
# 4 0.000000 0.000000 0.000000 0.026923 0.000000 0.003083
# 5 -0.002939 -0.005311 0.003864 0.000000 0.032497 0.000000
# 6 0.000000 0.000000 0.000000 0.003083 0.000000 0.031694
#
#
# Mechanical properties :
#
#
# Convention : Reuss Voigt Hill
#
# Bulk Modulus (GPa) = 59.67194 62.57349 61.12272
# Shear Modulus (GPa) = 34.97184 38.36083 36.66634
#
# Velocity S-wave (km/s) = 4.07372 4.26654 4.17125
# Velocity P-wave (km/s) = 7.10233 7.34604 7.22521
#
# Compressibility (1/GPa) = 0.01675829
#
# Stress axis : x y z
#
# Youngs Moduli (GPa) = 83.01183 89.19072 121.10851
#
# Poissons Ratio (x) = 0.30681 0.18499
# Poissons Ratio (y) = 0.28556 0.29201
# Poissons Ratio (z) = 0.12680 0.21505
#
# Static dielectric constant tensor:
#      x y z
#    x 1.817820 0.000000 0.013380 
#    y 0.000000 1.748790 0.000000 
#    z 0.013380 0.000000 1.763620 
# 
# From -- ./inp_files/31698.got.cif
#   From: 2010.05.17/outbox.cif.g08.bks.cpg/sg15_16_cif.got.tgz:31698.got - 2010.06.03 18:47:42.
