data_PCOD9303794
_publ_section_title
;
Structure prediction by ZEFSAII (Michael W. Deem and Ramdas Pophale) SiO2 
 PCOD9303794
Probable space group: C 2/C
;
_chemical_formula_sum "Si O2"
_cell_formula_units_Z 52
_cell_length_a 7.453754
_cell_length_b 21.226458
_cell_length_c 16.547367
_cell_angle_alpha 90.000000
_cell_angle_beta 54.290595
_cell_angle_gamma 90.000000
_cell_volume 2125.841844
_symmetry_space_group_name_H-M "C 2/C"
_symmetry_group_IT_number 15
_symmetry_cell_setting 'monoclinic'
loop_
_space_group_symop_operation_xyz
x,y,z
-x,y,1/2-z
-x,-y,-z
x,-y,1/2+z
1/2+x,1/2+y,z
1/2-x,1/2+y,1/2-z
1/2-x,1/2-y,-z
1/2+x,1/2-y,1/2+z
loop_
_atom_site_type_symbol
_atom_site_label
_atom_site_fract_x
_atom_site_fract_y
_atom_site_fract_z
Si Si1 0.359178 0.541239 0.179314
Si Si2 0.183725 0.178028 0.498710
Si Si3 0.500000 0.651761 0.250000
Si Si4 0.145776 0.096252 0.816732
Si Si5 0.590788 0.947254 0.597306
Si Si6 0.449967 0.085340 0.896948
Si Si7 0.344563 0.314219 0.942306
O O1 0.480708 0.601653 0.181709
O O2 0.464858 0.472944 0.165211
O O3 0.301513 0.546871 0.101215
O O4 0.130103 0.547934 0.289822
O O5 0.250000 0.250000 0.500000
O O6 0.372438 0.122576 0.447357
O O7 0.015586 0.150856 0.611279
O O8 0.065228 0.178057 0.441228
O O9 0.646619 0.697032 0.157253
O O10 0.308332 0.085700 0.850831
O O11 0.303927 0.104252 0.697274
O O12 0.575351 0.015365 0.559585
O O13 0.331869 0.133477 0.985786
O O14 0.250000 0.250000 0.000000
#
# Coordination Sequence:
#
# PCOD9303794 Si02
#       7
#     8   8   4   8   8   8   8
#     4   9  19  37  63  95 126 166 219 273 338 384
#     4  11  23  39  66 101 136 178 227 277 341 402
#     4  12  24  40  66  96 130 174 216 288 328 406
#     4   8  17  36  65  95 129 166 219 274 330 400
#     4   9  18  38  65  96 125 167 225 276 329 397
#     4   8  17  38  67  93 124 175 219 275 333 396
#     4  11  26  43  63  97 133 177 229 267 342 404
#
# _framework density 24.460896999999999
#
# number of rings (size 3 to 8) (size 9 to 14) (size 15 to 20)
#    0.000    2.462    1.538    1.846    4.308    4.308 
#    0.000    6.154    0.000    0.000    0.000    0.000 
#    0.000    0.000    0.000    0.000    0.000    0.000 
#
# Total GULP energy -144873.040064 kJ/mol
# GULP energy per Si atom -5572.040002 kJ/mol
# Density = 2.440522 g / cm^3
# Si number density = 24.460897 Si / 1000 Ang^3
#
#
#
# Elastic Constant Matrix: (Units=GPa)
#
#
# Indices 1 2 3 4 5 6 
#
# 1 50.9145 20.3479 25.1115 0.0000 20.1010 0.0000
# 2 20.3479 194.6769 89.5282 0.0000 -13.0147 0.0000
# 3 25.1115 89.5282 152.6251 0.0000 7.3826 0.0000
# 4 0.0000 0.0000 0.0000 41.2549 0.0000 -4.9647
# 5 20.1010 -13.0147 7.3826 0.0000 27.6611 0.0000
# 6 0.0000 0.0000 0.0000 -4.9647 0.0000 12.1373
#
#
#
# Elastic Compliance Matrix: (Units=1/GPa)
#
#
# Indices 1 2 3 4 5 6 
#
# 1 0.031895 -0.004284 -0.001536 0.000000 -0.024784 0.000000
# 2 -0.004284 0.008201 -0.004501 0.000000 0.008173 0.000000
# 3 -0.001536 -0.004501 0.009618 0.000000 -0.003569 0.000000
# 4 0.000000 0.000000 0.000000 0.025495 0.000000 0.010428
# 5 -0.024784 0.008173 -0.003569 0.000000 0.058960 0.000000
# 6 0.000000 0.000000 0.000000 0.010428 0.000000 0.086656
#
#
# Mechanical properties :
#
#
# Convention : Reuss Voigt Hill
#
# Bulk Modulus (GPa) = 34.39820 74.24351 54.32086
# Shear Modulus (GPa) = 19.90789 33.75925 26.83357
#
# Velocity S-wave (km/s) = 2.85593 3.71904 3.31569
# Velocity P-wave (km/s) = 4.99681 6.98996 6.07568
#
# Compressibility (1/GPa) = 0.02907129
#
# Stress axis : x y z
#
# Youngs Moduli (GPa) = 31.35285 121.93907 103.97704
#
# Poissons Ratio (x) = 0.52242 0.15969
# Poissons Ratio (y) = 0.13432 0.46800
# Poissons Ratio (z) = 0.04815 0.54884
#
# Static dielectric constant tensor:
#      x y z
#    x 2.110010 0.000000 0.064920 
#    y 0.000000 1.804570 0.000000 
#    z 0.064920 0.000000 1.139310 
# 
# From -- ./inp_files/192445.got.cif
#   From: 2010.05.17/outbox.cif.g08.bks.cpg/sg15_97_cif.got.tgz:192445.got - 2010.06.03 18:47:42.
