data_PCOD9303815
_publ_section_title
;
Structure prediction by ZEFSAII (Michael W. Deem and Ramdas Pophale) SiO2 
 PCOD9303815
Probable space group: C 2/C
;
_chemical_formula_sum "Si O2"
_cell_formula_units_Z 56
_cell_length_a 10.949526
_cell_length_b 14.619817
_cell_length_c 16.742683
_cell_angle_alpha 90.000000
_cell_angle_beta 89.875507
_cell_angle_gamma 90.000000
_cell_volume 2680.163479
_symmetry_space_group_name_H-M "C 2/C"
_symmetry_group_IT_number 15
_symmetry_cell_setting 'monoclinic'
loop_
_space_group_symop_operation_xyz
x,y,z
-x,y,1/2-z
-x,-y,-z
x,-y,1/2+z
1/2+x,1/2+y,z
1/2-x,1/2+y,1/2-z
1/2-x,1/2-y,-z
1/2+x,1/2-y,1/2+z
loop_
_atom_site_type_symbol
_atom_site_label
_atom_site_fract_x
_atom_site_fract_y
_atom_site_fract_z
Si Si1 0.258174 0.833029 0.938388
Si Si2 0.684087 0.439319 0.193163
Si Si3 0.136203 0.114878 0.282466
Si Si4 0.645389 0.496208 0.520195
Si Si5 0.216472 0.815761 0.428104
Si Si6 0.027628 0.756211 0.162980
Si Si7 0.641237 0.195479 0.727839
O O1 0.151644 0.850253 0.872854
O O2 0.379586 0.808237 0.887115
O O3 0.250000 0.750000 0.000000
O O4 0.234372 0.921772 0.991864
O O5 0.681622 0.511998 0.266272
O O6 0.666602 0.502801 0.115502
O O7 0.585834 0.357392 0.180429
O O8 0.801057 0.376516 0.210440
O O9 0.195078 0.201434 0.236963
O O10 0.000000 0.108980 0.250000
O O11 0.500000 0.500000 0.500000
O O12 0.687676 0.409834 0.471034
O O13 0.250000 0.750000 0.500000
O O14 0.321623 0.829571 0.361841
O O15 0.096232 0.776943 0.384161
O O16 0.000000 0.715321 0.250000
O O17 0.500000 0.200056 0.750000
#
# Coordination Sequence:
#
# PCOD9303815 Si02
#       7
#     8   8   8   8   8   8   8
#     4  12  23  43  68 111 147 188 240 311 376 419
#     4  12  22  44  72 105 141 185 247 301 360 432
#     4  11  23  39  71 104 135 189 252 294 351 436
#     4  12  24  42  72 110 139 190 249 306 354 427
#     4  12  26  47  71 108 148 186 241 309 367 428
#     4  12  24  45  74 103 148 194 239 302 371 440
#     4  11  25  47  68  98 145 195 242 294 369 443
#
# _framework density 20.894248000000001
#
# number of rings (size 3 to 8) (size 9 to 14) (size 15 to 20)
#    0.000    0.286    5.714    3.000    0.000    4.571 
#    0.000   10.000    0.000    0.000    0.000    0.000 
#    0.000    0.000    0.000    0.000    0.000    0.000 
#
# Total GULP energy -156124.384144 kJ/mol
# GULP energy per Si atom -5575.870862 kJ/mol
# Density = 2.084669 g / cm^3
# Si number density = 20.894248 Si / 1000 Ang^3
#
#
#
# Elastic Constant Matrix: (Units=GPa)
#
#
# Indices 1 2 3 4 5 6 
#
# 1 110.0798 45.3820 49.9249 0.0000 -4.2316 0.0000
# 2 45.3820 109.0525 22.1986 0.0000 -2.0129 0.0000
# 3 49.9249 22.1986 120.4975 0.0000 -5.8185 0.0000
# 4 0.0000 0.0000 0.0000 41.5048 0.0000 2.3765
# 5 -4.2316 -2.0129 -5.8185 0.0000 39.8899 0.0000
# 6 0.0000 0.0000 0.0000 2.3765 0.0000 26.5198
#
#
#
# Elastic Compliance Matrix: (Units=1/GPa)
#
#
# Indices 1 2 3 4 5 6 
#
# 1 0.013010 -0.004481 -0.004541 0.000000 0.000492 0.000000
# 2 -0.004481 0.011072 -0.000181 0.000000 0.000057 0.000000
# 3 -0.004541 -0.000181 0.010262 0.000000 0.001006 0.000000
# 4 0.000000 0.000000 0.000000 0.024218 0.000000 -0.002170
# 5 0.000492 0.000057 0.001006 0.000000 0.025271 0.000000
# 6 0.000000 0.000000 0.000000 -0.002170 0.000000 0.037902
#
#
# Mechanical properties :
#
#
# Convention : Reuss Voigt Hill
#
# Bulk Modulus (GPa) = 62.73601 63.84898 63.29249
# Shear Modulus (GPa) = 34.37528 36.39120 35.38324
#
# Velocity S-wave (km/s) = 4.06051 4.17788 4.11961
# Velocity P-wave (km/s) = 7.21625 7.34148 7.27914
#
# Compressibility (1/GPa) = 0.01593981
#
# Stress axis : x y z
#
# Youngs Moduli (GPa) = 76.86410 90.31540 97.44417
#
# Poissons Ratio (x) = 0.40467 0.44251
# Poissons Ratio (y) = 0.34440 0.01760
# Poissons Ratio (z) = 0.34905 0.01631
#
# Static dielectric constant tensor:
#      x y z
#    x 1.813910 0.000000 -0.018630 
#    y 0.000000 1.786760 0.000000 
#    z -0.018630 0.000000 1.859670 
# 
# From -- ./inp_files/144221.got.cif
#   From: 2010.05.17/outbox.cif.g08.bks.cpg/sg15_73_cif.got.tgz:144221.got - 2010.06.03 18:47:42.
