data_PCOD9303720
_publ_section_title
;
Structure prediction by ZEFSAII (Michael W. Deem and Ramdas Pophale) SiO2 
 PCOD9303720
Probable space group: C 2/C
;
_chemical_formula_sum "Si O2"
_cell_formula_units_Z 60
_cell_length_a 23.331774
_cell_length_b 6.557026
_cell_length_c 20.583695
_cell_angle_alpha 90.000000
_cell_angle_beta 106.458915
_cell_angle_gamma 90.000000
_cell_volume 3020.001052
_symmetry_space_group_name_H-M "C 2/C"
_symmetry_group_IT_number 15
_symmetry_cell_setting 'monoclinic'
loop_
_space_group_symop_operation_xyz
x,y,z
-x,y,1/2-z
-x,-y,-z
x,-y,1/2+z
1/2+x,1/2+y,z
1/2-x,1/2+y,1/2-z
1/2-x,1/2-y,-z
1/2+x,1/2-y,1/2+z
loop_
_atom_site_type_symbol
_atom_site_label
_atom_site_fract_x
_atom_site_fract_y
_atom_site_fract_z
Si Si1 0.644995 0.451107 0.864197
Si Si2 0.762555 0.653439 0.933989
Si Si3 0.977448 0.808453 0.161168
Si Si4 0.850658 0.692629 0.504516
Si Si5 0.500000 0.058963 0.750000
Si Si6 0.916306 0.888962 0.785482
Si Si7 0.368863 0.576227 0.416226
Si Si8 0.453355 0.869440 0.523468
O O1 0.699164 0.610591 0.880589
O O2 0.580740 0.550348 0.859654
O O3 0.632649 0.373114 0.787460
O O4 0.659170 0.300288 0.928849
O O5 0.795951 0.440238 0.959341
O O6 0.806897 0.802446 0.909368
O O7 0.750000 0.750000 0.000000
O O8 0.963290 0.598743 0.194026
O O9 0.988239 0.745336 0.091004
O O10 0.036787 0.922075 0.205978
O O11 0.903264 0.528089 0.531860
O O12 0.865426 0.862373 0.454237
O O13 0.459695 0.196218 0.784678
O O14 0.886053 0.917350 0.845809
O O15 0.419687 0.706871 0.468459
O O16 0.500000 0.000000 0.500000
#
# Coordination Sequence:
#
# PCOD9303720 Si02
#       8
#     8   8   8   8   4   8   8   8
#     4  12  22  45  68  96 130 179 227 269 340 405
#     4  11  24  47  70  99 128 172 239 285 331 403
#     4  12  23  42  65 100 133 175 227 275 328 423
#     4  11  23  44  71  97 129 178 228 284 333 398
#     4  12  22  44  66  92 144 180 216 278 346 394
#     4  12  26  44  65 101 142 176 222 278 349 415
#     4  11  25  44  65  99 140 173 227 286 335 407
#     4  11  23  37  66 101 130 174 221 276 341 394
#
# _framework density 19.867543000000001
#
# number of rings (size 3 to 8) (size 9 to 14) (size 15 to 20)
#    0.000    0.533    5.333    3.600    1.867    2.133 
#    2.400    0.000    0.000    0.000    0.000    0.000 
#    0.000    0.000    0.000    0.000    0.000    0.000 
#
# Total GULP energy -167488.858728 kJ/mol
# GULP energy per Si atom -5582.961958 kJ/mol
# Density = 1.982232 g / cm^3
# Si number density = 19.867543 Si / 1000 Ang^3
#
#
#
# Elastic Constant Matrix: (Units=GPa)
#
#
# Indices 1 2 3 4 5 6 
#
# 1 83.9086 25.1049 30.3789 0.0000 -11.4072 0.0000
# 2 25.1049 81.6572 31.7191 0.0000 -13.8360 0.0000
# 3 30.3789 31.7191 81.0576 0.0000 -21.9436 0.0000
# 4 0.0000 0.0000 0.0000 17.9524 0.0000 -14.7313
# 5 -11.4072 -13.8360 -21.9436 0.0000 41.5562 0.0000
# 6 0.0000 0.0000 0.0000 -14.7313 0.0000 13.4801
#
#
#
# Elastic Compliance Matrix: (Units=1/GPa)
#
#
# Indices 1 2 3 4 5 6 
#
# 1 0.014313 -0.002665 -0.004082 0.000000 0.000887 0.000000
# 2 -0.002665 0.015101 -0.004372 0.000000 0.001987 0.000000
# 3 -0.004082 -0.004372 0.017362 0.000000 0.006592 0.000000
# 4 0.000000 0.000000 0.000000 0.539461 0.000000 0.589536
# 5 0.000887 0.001987 0.006592 0.000000 0.028450 0.000000
# 6 0.000000 0.000000 0.000000 0.589536 0.000000 0.718442
#
#
# Mechanical properties :
#
#
# Convention : Reuss Voigt Hill
#
# Bulk Modulus (GPa) = 40.75227 46.78104 43.76665
# Shear Modulus (GPa) = 3.66691 25.22578 14.44634
#
# Velocity S-wave (km/s) = 1.36003 3.56715 2.69947
# Velocity P-wave (km/s) = 4.79820 6.36896 5.63855
#
# Compressibility (1/GPa) = 0.02453851
#
# Stress axis : x y z
#
# Youngs Moduli (GPa) = 69.86528 66.22173 57.59673
#
# Poissons Ratio (x) = 0.17647 0.23508
# Poissons Ratio (y) = 0.18618 0.25184
# Poissons Ratio (z) = 0.28516 0.28955
#
# Static dielectric constant tensor:
#      x y z
#    x 1.706840 0.000000 -0.001500 
#    y 0.000000 1.725070 0.000000 
#    z -0.001500 0.000000 1.738030 
# 
# From -- ./inp_files/256781.got.cif
#   From: 2010.05.17/outbox.cif.g08.bks.cpg/sg15_129_cif.got.tgz:256781.got - 2010.06.03 18:47:42.
