data_PCOD9303036
_publ_section_title
;
Structure prediction by ZEFSAII (Michael W. Deem and Ramdas Pophale) SiO2 
 PCOD9303036
Probable space group: C 2/C
;
_chemical_formula_sum "Si O2"
_cell_formula_units_Z 60
_cell_length_a 9.577311
_cell_length_b 31.062260
_cell_length_c 10.848147
_cell_angle_alpha 90.000000
_cell_angle_beta 101.184775
_cell_angle_gamma 90.000000
_cell_volume 3165.951015
_symmetry_space_group_name_H-M "C 2/C"
_symmetry_group_IT_number 15
_symmetry_cell_setting 'monoclinic'
loop_
_space_group_symop_operation_xyz
x,y,z
-x,y,1/2-z
-x,-y,-z
x,-y,1/2+z
1/2+x,1/2+y,z
1/2-x,1/2+y,1/2-z
1/2-x,1/2-y,-z
1/2+x,1/2-y,1/2+z
loop_
_atom_site_type_symbol
_atom_site_label
_atom_site_fract_x
_atom_site_fract_y
_atom_site_fract_z
Si Si1 0.331109 0.105569 0.204590
Si Si2 0.012406 0.794355 0.900021
Si Si3 0.221516 0.833376 0.474847
Si Si4 0.995233 0.301987 0.101777
Si Si5 0.742481 0.861643 0.549254
Si Si6 0.500000 0.623736 0.750000
Si Si7 0.124588 0.063052 0.566889
Si Si8 0.612439 0.530591 0.156501
O O1 0.500000 0.100181 0.250000
O O2 0.278030 0.135374 0.307960
O O3 0.243839 0.061527 0.206281
O O4 0.288129 0.127776 0.068099
O O5 0.121933 0.831694 0.956697
O O6 0.000000 0.796202 0.750000
O O7 0.058764 0.745924 0.941019
O O8 0.865230 0.804247 0.943455
O O9 0.349635 0.809147 0.429458
O O10 0.108226 0.849418 0.353592
O O11 0.000000 0.304945 0.250000
O O12 0.892213 0.338543 0.032666
O O13 0.770256 0.909247 0.500370
O O14 0.590720 0.593045 0.676587
O O15 0.980702 0.054030 0.464976
O O16 0.166800 0.015683 0.619729
O O17 0.500000 0.525115 0.250000
#
# Coordination Sequence:
#
# PCOD9303036 Si02
#       8
#     8   8   8   8   8   4   8   8
#     4  12  24  43  69  98 132 169 218 270 332 397
#     4  11  23  41  69  96 129 170 229 278 318 389
#     4  12  24  43  66  95 132 177 221 271 330 392
#     4  11  26  44  61  96 139 175 218 271 337 396
#     4  12  22  43  69  94 128 179 215 272 333 390
#     4  12  22  38  64  92 130 168 218 266 316 392
#     4  11  23  38  67  98 125 167 219 267 320 385
#     4  11  22  41  68  97 127 165 219 273 319 389
#
# _framework density 18.951650999999998
#
# number of rings (size 3 to 8) (size 9 to 14) (size 15 to 20)
#    0.000    0.533    7.333    1.600    0.000    0.000 
#    0.000    2.667    0.000    0.000    0.000    0.000 
#    0.000    0.000    0.000    0.000    0.000    0.000 
#
# Total GULP energy -167597.044960 kJ/mol
# GULP energy per Si atom -5586.568165 kJ/mol
# Density = 1.890852 g / cm^3
# Si number density = 18.951651 Si / 1000 Ang^3
#
#
#
# Elastic Constant Matrix: (Units=GPa)
#
#
# Indices 1 2 3 4 5 6 
#
# 1 111.7714 49.9251 33.5690 0.0000 -10.7206 0.0000
# 2 49.9251 117.6489 41.8612 0.0000 6.2673 0.0000
# 3 33.5690 41.8612 91.8566 0.0000 -8.4134 0.0000
# 4 0.0000 0.0000 0.0000 -8.1472 0.0000 -13.6251
# 5 -10.7206 6.2673 -8.4134 0.0000 32.1536 0.0000
# 6 0.0000 0.0000 0.0000 -13.6251 0.0000 -20.7106
#
#
#
# Elastic Compliance Matrix: (Units=1/GPa)
#
#
# Indices 1 2 3 4 5 6 
#
# 1 0.012018 -0.004676 -0.001855 0.000000 0.004433 0.000000
# 2 -0.004676 0.012310 -0.004369 0.000000 -0.005102 0.000000
# 3 -0.001855 -0.004369 0.013910 0.000000 0.003873 0.000000
# 4 0.000000 0.000000 0.000000 1.224707 0.000000 -0.805711
# 5 0.004433 -0.005102 0.003873 0.000000 0.034586 0.000000
# 6 0.000000 0.000000 0.000000 -0.805711 0.000000 0.481778
#
#
# Mechanical properties :
#
#
# Convention : Reuss Voigt Hill
#
# Bulk Modulus (GPa) = 60.83019 63.55416 62.19217
# Shear Modulus (GPa) = 2.76765 13.72060 8.24413
#
# Velocity S-wave (km/s) = 1.20977 2.69361 2.08795
# Velocity P-wave (km/s) = 5.84112 6.57888 6.22095
#
# Compressibility (1/GPa) = 0.01643921
#
# Stress axis : x y z
#
# Youngs Moduli (GPa) = 83.21031 81.23280 71.89082
#
# Poissons Ratio (x) = 0.37984 0.13335
# Poissons Ratio (y) = 0.38909 0.31406
# Poissons Ratio (z) = 0.15435 0.35487
#
# Static dielectric constant tensor:
#      x y z
#    x 1.638350 0.000000 -0.017480 
#    y 0.000000 1.646680 0.000000 
#    z -0.017480 0.000000 1.662790 
# 
# From -- ./inp_files/82653.got.cif
#   From: 2010.05.17/outbox.cif.g08.bks.cpg/sg15_42_cif.got.tgz:82653.got - 2010.06.03 18:47:42.
