data_PCOD9303025
_publ_section_title
;
Structure prediction by ZEFSAII (Michael W. Deem and Ramdas Pophale) SiO2 
 PCOD9303025
Probable space group: C 2/C
;
_chemical_formula_sum "Si O2"
_cell_formula_units_Z 36
_cell_length_a 24.071822
_cell_length_b 5.032525
_cell_length_c 13.416595
_cell_angle_alpha 90.000000
_cell_angle_beta 75.925330
_cell_angle_gamma 90.000000
_cell_volume 1576.521233
_symmetry_space_group_name_H-M "C 2/C"
_symmetry_group_IT_number 15
_symmetry_cell_setting 'monoclinic'
loop_
_space_group_symop_operation_xyz
x,y,z
-x,y,1/2-z
-x,-y,-z
x,-y,1/2+z
1/2+x,1/2+y,z
1/2-x,1/2+y,1/2-z
1/2-x,1/2-y,-z
1/2+x,1/2-y,1/2+z
loop_
_atom_site_type_symbol
_atom_site_label
_atom_site_fract_x
_atom_site_fract_y
_atom_site_fract_z
Si Si1 0.710780 0.228052 0.264696
Si Si2 0.063326 0.820142 0.883754
Si Si3 0.877991 0.568772 0.817739
Si Si4 0.891317 0.312416 0.534046
Si Si5 0.500000 0.054694 0.750000
O O1 0.760256 0.011464 0.262406
O O2 0.674355 0.117906 0.186945
O O3 0.666272 0.221588 0.375672
O O4 0.065868 0.097321 0.937101
O O5 0.111467 0.783173 0.775237
O O6 0.007585 0.737647 0.844877
O O7 0.919409 0.403311 0.044585
O O8 0.939318 0.409801 0.784382
O O9 0.875555 0.702995 0.925632
#
# Coordination Sequence:
#
# PCOD9303025 Si02
#       5
#     8   8   8   8   4
#     4  11  24  43  65  92 133 169 217 271 310 376
#     4   9  22  40  60  99 131 161 208 262 310 387
#     4   9  22  43  65  99 128 168 215 260 324 383
#     4  11  22  41  68  92 129 172 211 259 329 377
#     4   8  20  46  62 102 130 168 202 278 310 388
#
# _framework density 22.835090000000001
#
# number of rings (size 3 to 8) (size 9 to 14) (size 15 to 20)
#    1.333    0.889    0.000    2.667    0.000    9.778 
#    0.000    0.000    0.000    0.000    0.000    0.000 
#    0.000    0.000    0.000    0.000    0.000    0.000 
#
# Total GULP energy -100504.177185 kJ/mol
# GULP energy per Si atom -5583.565399 kJ/mol
# Density = 2.278312 g / cm^3
# Si number density = 22.835090 Si / 1000 Ang^3
#
#
#
# Elastic Constant Matrix: (Units=GPa)
#
#
# Indices 1 2 3 4 5 6 
#
# 1 111.0722 -0.0953 9.0526 0.0000 0.2804 0.0000
# 2 -0.0953 45.2614 18.0967 0.0000 2.9839 0.0000
# 3 9.0526 18.0967 100.7052 0.0000 32.9649 0.0000
# 4 0.0000 0.0000 0.0000 7.1419 0.0000 0.5556
# 5 0.2804 2.9839 32.9649 0.0000 35.1305 0.0000
# 6 0.0000 0.0000 0.0000 0.5556 0.0000 17.3339
#
#
#
# Elastic Compliance Matrix: (Units=1/GPa)
#
#
# Indices 1 2 3 4 5 6 
#
# 1 0.009102 0.000447 -0.001245 0.000000 0.001057 0.000000
# 2 0.000447 0.024029 -0.005324 0.000000 0.002952 0.000000
# 3 -0.001245 -0.005324 0.015656 0.000000 -0.014229 0.000000
# 4 0.000000 0.000000 0.000000 0.140369 0.000000 -0.004499
# 5 0.001057 0.002952 -0.014229 0.000000 0.041558 0.000000
# 6 0.000000 0.000000 0.000000 -0.004499 0.000000 0.057835
#
#
# Mechanical properties :
#
#
# Convention : Reuss Voigt Hill
#
# Bulk Modulus (GPa) = 27.36435 34.57184 30.96810
# Shear Modulus (GPa) = 15.97572 27.25357 21.61465
#
# Velocity S-wave (km/s) = 2.64789 3.45845 3.07995
# Velocity P-wave (km/s) = 4.62146 5.57857 5.12242
#
# Compressibility (1/GPa) = 0.03654389
#
# Stress axis : x y z
#
# Youngs Moduli (GPa) = 109.86216 41.61623 63.87155
#
# Poissons Ratio (x) = -0.01861 0.07950
# Poissons Ratio (y) = -0.04912 0.34008
# Poissons Ratio (z) = 0.13674 0.22158
#
# Static dielectric constant tensor:
#      x y z
#    x 1.887780 0.000000 -0.043000 
#    y 0.000000 1.839040 0.000000 
#    z -0.043000 0.000000 1.862690 
# 
# From -- ./inp_files/170462.got.cif
#   From: 2010.05.17/outbox.cif.g08.bks.cpg/sg15_86_cif.got.tgz:170462.got - 2010.06.03 18:47:42.
