data_PCOD9303431
_publ_section_title
;
Structure prediction by ZEFSAII (Michael W. Deem and Ramdas Pophale) SiO2 
 PCOD9303431
Probable space group: C 2/C
;
_chemical_formula_sum "Si O2"
_cell_formula_units_Z 48
_cell_length_a 17.342679
_cell_length_b 11.176406
_cell_length_c 12.021719
_cell_angle_alpha 90.000000
_cell_angle_beta 76.778686
_cell_angle_gamma 90.000000
_cell_volume 2268.392264
_symmetry_space_group_name_H-M "C 2/C"
_symmetry_group_IT_number 15
_symmetry_cell_setting 'monoclinic'
loop_
_space_group_symop_operation_xyz
x,y,z
-x,y,1/2-z
-x,-y,-z
x,-y,1/2+z
1/2+x,1/2+y,z
1/2-x,1/2+y,1/2-z
1/2-x,1/2-y,-z
1/2+x,1/2-y,1/2+z
loop_
_atom_site_type_symbol
_atom_site_label
_atom_site_fract_x
_atom_site_fract_y
_atom_site_fract_z
Si Si1 0.563481 0.086770 0.327471
Si Si2 0.414503 0.552905 0.812932
Si Si3 0.815660 0.210064 0.686710
Si Si4 0.030929 0.223483 0.507185
Si Si5 0.632466 0.822185 0.283431
Si Si6 0.878729 0.825112 0.932807
O O1 0.500000 0.095041 0.250000
O O2 0.641918 0.168217 0.287501
O O3 0.514396 0.152565 0.442982
O O4 0.595229 0.952110 0.319623
O O5 0.500000 0.501630 0.750000
O O6 0.372124 0.609705 0.720987
O O7 0.359275 0.449864 0.880583
O O8 0.434902 0.655658 0.896716
O O9 0.727181 0.186092 0.754827
O O10 0.820041 0.209207 0.551465
O O11 0.097527 0.242162 0.393528
O O12 0.961108 0.151890 0.469761
O O13 0.609948 0.772765 0.167916
#
# Coordination Sequence:
#
# PCOD9303431 Si02
#       6
#     8   8   8   8   8   8
#     4  11  22  48  71  95 142 187 230 281 341 423
#     4  12  22  44  72  97 134 180 234 286 343 418
#     4  11  26  47  65 103 139 184 225 293 357 395
#     4  11  22  44  70 104 130 189 233 280 340 418
#     4  12  27  41  70 107 139 178 235 286 351 412
#     4  11  25  43  72  98 140 179 230 282 349 417
#
# _framework density 21.160361000000002
#
# number of rings (size 3 to 8) (size 9 to 14) (size 15 to 20)
#    0.000    0.667    5.000    4.000    4.667    2.000 
#    3.000    0.000    0.000    0.000    0.000    0.000 
#    0.000    0.000    0.000    0.000    0.000    0.000 
#
# Total GULP energy -134039.960461 kJ/mol
# GULP energy per Si atom -5584.998353 kJ/mol
# Density = 2.111220 g / cm^3
# Si number density = 21.160361 Si / 1000 Ang^3
#
#
#
# Elastic Constant Matrix: (Units=GPa)
#
#
# Indices 1 2 3 4 5 6 
#
# 1 73.3348 3.9110 35.2198 0.0000 -0.0364 0.0000
# 2 3.9110 73.5424 13.7731 0.0000 6.2077 0.0000
# 3 35.2198 13.7731 84.4312 0.0000 -9.6981 0.0000
# 4 0.0000 0.0000 0.0000 77.9027 0.0000 -3.8754
# 5 -0.0364 6.2077 -9.6981 0.0000 35.0628 0.0000
# 6 0.0000 0.0000 0.0000 -3.8754 0.0000 20.3012
#
#
#
# Elastic Compliance Matrix: (Units=1/GPa)
#
#
# Indices 1 2 3 4 5 6 
#
# 1 0.017223 0.000682 -0.007548 0.000000 -0.002191 0.000000
# 2 0.000682 0.014414 -0.003025 0.000000 -0.003388 0.000000
# 3 -0.007548 -0.003025 0.016057 0.000000 0.004969 0.000000
# 4 0.000000 0.000000 0.000000 0.012960 0.000000 0.002474
# 5 -0.002191 -0.003388 0.004969 0.000000 0.030492 0.000000
# 6 0.000000 0.000000 0.000000 0.002474 0.000000 0.049731
#
#
# Mechanical properties :
#
#
# Convention : Reuss Voigt Hill
#
# Bulk Modulus (GPa) = 35.82511 37.45736 36.64124
# Shear Modulus (GPa) = 29.41853 38.54697 33.98275
#
# Velocity S-wave (km/s) = 3.73267 4.27272 4.01179
# Velocity P-wave (km/s) = 5.96189 6.48703 6.23000
#
# Compressibility (1/GPa) = 0.02791338
#
# Stress axis : x y z
#
# Youngs Moduli (GPa) = 58.06058 69.37787 62.27976
#
# Poissons Ratio (x) = -0.04735 0.47006
# Poissons Ratio (y) = -0.03962 0.18840
# Poissons Ratio (z) = 0.43821 0.20988
#
# Static dielectric constant tensor:
#      x y z
#    x 1.737590 0.000000 -0.002290 
#    y 0.000000 1.779380 0.000000 
#    z -0.002290 0.000000 1.768200 
# 
# From -- ./inp_files/103689.got.cif
#   From: 2010.05.17/outbox.cif.g08.bks.cpg/sg15_52_cif.got.tgz:103689.got - 2010.06.03 18:47:42.
