data_PCOD9303674
_publ_section_title
;
Structure prediction by ZEFSAII (Michael W. Deem and Ramdas Pophale) SiO2 
 PCOD9303674
Probable space group: C 2/C
;
_chemical_formula_sum "Si O2"
_cell_formula_units_Z 60
_cell_length_a 8.969182
_cell_length_b 21.144986
_cell_length_c 21.872376
_cell_angle_alpha 90.000000
_cell_angle_beta 42.397465
_cell_angle_gamma 90.000000
_cell_volume 2796.983183
_symmetry_space_group_name_H-M "C 2/C"
_symmetry_group_IT_number 15
_symmetry_cell_setting 'monoclinic'
loop_
_space_group_symop_operation_xyz
x,y,z
-x,y,1/2-z
-x,-y,-z
x,-y,1/2+z
1/2+x,1/2+y,z
1/2-x,1/2+y,1/2-z
1/2-x,1/2-y,-z
1/2+x,1/2-y,1/2+z
loop_
_atom_site_type_symbol
_atom_site_label
_atom_site_fract_x
_atom_site_fract_y
_atom_site_fract_z
Si Si1 0.000000 0.000000 0.000000
Si Si2 0.687852 0.497897 0.143340
Si Si3 0.863747 0.091940 0.446876
Si Si4 0.836754 0.842649 0.739955
Si Si5 0.308599 0.314685 0.449441
Si Si6 0.368281 0.137759 0.612014
Si Si7 0.295264 0.806008 0.266671
Si Si8 0.937290 0.426281 0.904414
O O1 0.069878 0.068852 0.006799
O O2 0.262805 0.973242 0.925849
O O3 0.500000 0.512809 0.250000
O O4 0.623641 0.526880 0.097480
O O5 0.728386 0.423811 0.135163
O O6 0.912608 0.532050 0.095429
O O7 0.622125 0.121689 0.521608
O O8 0.025881 0.138561 0.361665
O O9 0.775166 0.768955 0.758804
O O10 0.621795 0.887699 0.809639
O O11 0.000000 0.851153 0.750000
O O12 0.250000 0.250000 0.500000
O O13 0.568931 0.326296 0.367073
O O14 0.190077 0.372761 0.518881
O O15 0.216465 0.309230 0.408440
O O16 0.330882 0.156419 0.693082
O O17 0.500000 0.815281 0.250000
#
# Coordination Sequence:
#
# PCOD9303674 Si02
#       8
#     4   8   8   8   8   8   8   8
#     4  12  30  40  64 112 150 180 236 304 386 414
#     4  12  22  46  81 103 136 198 249 300 360 450
#     4  12  24  45  74 108 143 194 245 300 364 451
#     4  11  22  48  79 104 135 195 255 295 351 439
#     4  12  25  46  78 104 144 199 247 307 361 442
#     4  12  26  47  71 110 150 194 245 299 374 448
#     4  11  28  48  72 109 150 191 247 308 369 431
#     4  12  23  48  73 106 145 186 247 299 371 438
#
# _framework density 21.451684
#
# number of rings (size 3 to 8) (size 9 to 14) (size 15 to 20)
#    0.000    0.267    6.667    2.400    3.733    2.133 
#    2.400    1.333    0.000    0.000    0.000    0.000 
#    0.000    0.000    0.000    0.000    0.000    0.000 
#
# Total GULP energy -167331.350569 kJ/mol
# GULP energy per Si atom -5577.711686 kJ/mol
# Density = 2.140286 g / cm^3
# Si number density = 21.451684 Si / 1000 Ang^3
#
#
#
# Elastic Constant Matrix: (Units=GPa)
#
#
# Indices 1 2 3 4 5 6 
#
# 1 49.5415 14.3797 20.1648 0.0006 -19.2786 -0.0011
# 2 14.3797 81.3490 29.8974 0.0001 5.4831 -0.0003
# 3 20.1648 29.8974 145.6283 0.0012 -21.7993 -0.0012
# 4 0.0006 0.0001 0.0012 39.3588 -0.0005 5.8861
# 5 -19.2786 5.4831 -21.7993 -0.0005 28.6439 0.0007
# 6 -0.0011 -0.0003 -0.0012 5.8861 0.0007 27.9788
#
#
#
# Elastic Compliance Matrix: (Units=1/GPa)
#
#
# Indices 1 2 3 4 5 6 
#
# 1 0.030809 -0.007181 0.000585 0.000000 0.022555 0.000001
# 2 -0.007181 0.015698 -0.003839 0.000000 -0.010760 0.000000
# 3 0.000585 -0.003839 0.008738 0.000000 0.007779 0.000000
# 4 0.000000 0.000000 0.000000 0.026233 0.000000 -0.005519
# 5 0.022555 -0.010760 0.007779 0.000000 0.058072 0.000000
# 6 0.000001 0.000000 0.000000 -0.005519 0.000000 0.036902
#
#
# Mechanical properties :
#
#
# Convention : Reuss Voigt Hill
#
# Bulk Modulus (GPa) = 29.09172 45.04474 37.06823
# Shear Modulus (GPa) = 23.94852 33.33475 28.64164
#
# Velocity S-wave (km/s) = 3.34487 3.94629 3.65796
# Velocity P-wave (km/s) = 5.33934 6.46592 5.92944
#
# Compressibility (1/GPa) = 0.03437404
#
# Stress axis : x y z
#
# Youngs Moduli (GPa) = 32.45853 63.70124 114.43689
#
# Poissons Ratio (x) = 0.45744 -0.06689
# Poissons Ratio (y) = 0.23308 0.43934
# Poissons Ratio (z) = -0.01897 0.24456
#
# Static dielectric constant tensor:
#      x y z
#    x 1.802450 0.000000 0.011330 
#    y 0.000000 1.777200 0.000000 
#    z 0.011330 0.000000 1.783200 
# 
# From -- ./inp_files/266222.got.cif
#   From: 2010.05.17/outbox.cif.g08.bks.cpg/sg15_134_cif.got.tgz:266222.got - 2010.06.03 18:47:42.
