data_PCOD9303148
_publ_section_title
;
Structure prediction by ZEFSAII (Michael W. Deem and Ramdas Pophale) SiO2 
 PCOD9303148
Probable space group: C 2/C
;
_chemical_formula_sum "Si O2"
_cell_formula_units_Z 32
_cell_length_a 9.698577
_cell_length_b 20.568715
_cell_length_c 13.058037
_cell_angle_alpha 90.000000
_cell_angle_beta 32.540814
_cell_angle_gamma 90.000000
_cell_volume 1401.182878
_symmetry_space_group_name_H-M "C 2/C"
_symmetry_group_IT_number 15
_symmetry_cell_setting 'monoclinic'
loop_
_space_group_symop_operation_xyz
x,y,z
-x,y,1/2-z
-x,-y,-z
x,-y,1/2+z
1/2+x,1/2+y,z
1/2-x,1/2+y,1/2-z
1/2-x,1/2-y,-z
1/2+x,1/2-y,1/2+z
loop_
_atom_site_type_symbol
_atom_site_label
_atom_site_fract_x
_atom_site_fract_y
_atom_site_fract_z
Si Si1 0.779083 0.319084 0.036132
Si Si2 0.887613 0.554522 0.716628
Si Si3 0.258447 0.133267 0.148110
Si Si4 0.187064 0.913559 0.916843
O O1 0.500000 0.333026 0.250000
O O2 0.750000 0.250000 0.000000
O O3 0.821509 0.376304 0.926813
O O4 0.998927 0.319092 0.985066
O O5 0.808802 0.482019 0.803713
O O6 0.000000 0.586701 0.750000
O O7 0.102637 0.570945 0.495663
O O8 0.607426 0.578941 0.861169
O O9 0.167513 0.123225 0.321342
O O10 0.000000 0.151400 0.250000
#
# Coordination Sequence:
#
# PCOD9303148 Si02
#       4
#     8   8   8   8
#     4  12  26  50  75 102 146 197 249 301 360 442
#     4  11  22  42  68 105 148 186 234 303 362 435
#     4  12  24  44  72 108 146 187 242 303 368 428
#     4  11  24  43  70 102 143 193 243 288 366 436
#
# _framework density 22.837847
#
# number of rings (size 3 to 8) (size 9 to 14) (size 15 to 20)
#    0.000    0.500    5.000    4.500    0.000    0.000 
#    0.000    6.250    0.000    0.000    0.000    0.000 
#    0.000    0.000    0.000    0.000    0.000    0.000 
#
# Total GULP energy -89110.909284 kJ/mol
# GULP energy per Si atom -5569.431830 kJ/mol
# Density = 2.278587 g / cm^3
# Si number density = 22.837847 Si / 1000 Ang^3
#
#
#
# Elastic Constant Matrix: (Units=GPa)
#
#
# Indices 1 2 3 4 5 6 
#
# 1 199.5741 41.0945 31.8940 -0.0023 -41.5407 0.0020
# 2 41.0945 61.3265 27.0667 0.0006 -12.8268 0.0025
# 3 31.8940 27.0667 135.0508 -0.0023 -9.9673 0.0166
# 4 -0.0023 0.0006 -0.0023 24.5194 0.0028 11.6702
# 5 -41.5407 -12.8268 -9.9673 0.0028 39.9206 -0.0056
# 6 0.0020 0.0025 0.0166 11.6702 -0.0056 17.0540
#
#
#
# Elastic Compliance Matrix: (Units=1/GPa)
#
#
# Indices 1 2 3 4 5 6 
#
# 1 0.007038 -0.003176 -0.000571 -0.000002 0.006161 0.000003
# 2 -0.003176 0.020333 -0.003145 -0.000003 0.002444 0.000003
# 3 -0.000571 -0.003145 0.008202 0.000006 0.000443 -0.000012
# 4 -0.000002 -0.000003 0.000006 0.060483 -0.000011 -0.041389
# 5 0.006161 0.002444 0.000443 -0.000011 0.032356 0.000017
# 6 0.000003 0.000003 -0.000012 -0.041389 0.000017 0.086960
#
#
# Mechanical properties :
#
#
# Convention : Reuss Voigt Hill
#
# Bulk Modulus (GPa) = 45.89073 66.22909 56.05991
# Shear Modulus (GPa) = 21.14878 36.02524 28.58701
#
# Velocity S-wave (km/s) = 3.04639 3.97600 3.54183
# Velocity P-wave (km/s) = 5.70191 7.08102 6.42855
#
# Compressibility (1/GPa) = 0.02179089
#
# Stress axis : x y z
#
# Youngs Moduli (GPa) = 142.08200 49.18067 121.91445
#
# Poissons Ratio (x) = 0.15618 0.06961
# Poissons Ratio (y) = 0.45120 0.38340
# Poissons Ratio (z) = 0.08113 0.15467
#
# Static dielectric constant tensor:
#      x y z
#    x 1.910960 0.000000 -0.091620 
#    y 0.000000 1.973470 -0.000090 
#    z -0.091620 -0.000090 2.108840 
# 
# From -- ./inp_files/80148.got.cif
#   From: 2010.05.17/outbox.cif.g08.bks.cpg/sg15_41_cif.got.tgz:80148.got - 2010.06.03 18:47:42.
