data_PCOD9303773
_publ_section_title
;
Structure prediction by ZEFSAII (Michael W. Deem and Ramdas Pophale) SiO2 
 PCOD9303773
Probable space group: C 2/C
;
_chemical_formula_sum "Si O2"
_cell_formula_units_Z 44
_cell_length_a 17.177157
_cell_length_b 16.827612
_cell_length_c 13.254347
_cell_angle_alpha 90.000000
_cell_angle_beta 145.794609
_cell_angle_gamma 90.000000
_cell_volume 2153.738520
_symmetry_space_group_name_H-M "C 2/C"
_symmetry_group_IT_number 15
_symmetry_cell_setting 'monoclinic'
loop_
_space_group_symop_operation_xyz
x,y,z
-x,y,1/2-z
-x,-y,-z
x,-y,1/2+z
1/2+x,1/2+y,z
1/2-x,1/2+y,1/2-z
1/2-x,1/2-y,-z
1/2+x,1/2-y,1/2+z
loop_
_atom_site_type_symbol
_atom_site_label
_atom_site_fract_x
_atom_site_fract_y
_atom_site_fract_z
Si Si1 0.580276 0.117372 0.995186
Si Si2 0.721417 0.029272 0.538934
Si Si3 0.241306 0.081508 0.127926
Si Si4 0.130154 0.218738 0.446755
Si Si5 0.500000 0.435892 0.250000
Si Si6 0.727109 0.090432 0.760191
O O1 0.646003 0.050881 0.992083
O O2 0.679190 0.125174 0.198779
O O3 0.569829 0.201931 0.932415
O O4 0.430727 0.088890 0.870629
O O5 0.668523 0.066514 0.376961
O O6 0.721980 0.089167 0.633673
O O7 0.883139 0.014762 0.683872
O O8 0.209331 0.994037 0.138396
O O9 0.095405 0.113861 0.929700
O O10 0.250000 0.250000 0.500000
O O11 0.194341 0.160586 0.598959
O O12 0.000000 0.179847 0.250000
#
# Coordination Sequence:
#
# PCOD9303773 Si02
#       6
#     8   8   8   8   4   8
#     4  11  23  40  61  93 121 168 213 254 309 374
#     4   9  20  39  65  90 127 156 210 264 301 366
#     4   9  20  38  64  91 124 156 209 264 298 366
#     4  12  26  42  63  92 133 164 205 256 316 380
#     4   8  20  36  56 102 116 154 202 250 332 346
#     4  11  23  39  62  94 121 170 211 248 320 365
#
# _framework density 20.429593000000001
#
# number of rings (size 3 to 8) (size 9 to 14) (size 15 to 20)
#    1.091    0.727    1.818    3.273    1.273    6.545 
#    0.000    0.909    0.000    0.000    0.000    0.000 
#    0.000    0.000    0.000    0.000    0.000    0.000 
#
# Total GULP energy -122672.858535 kJ/mol
# GULP energy per Si atom -5576.039024 kJ/mol
# Density = 2.038309 g / cm^3
# Si number density = 20.429593 Si / 1000 Ang^3
#
#
#
# Elastic Constant Matrix: (Units=GPa)
#
#
# Indices 1 2 3 4 5 6 
#
# 1 81.8558 2.6087 -2.2225 0.0000 0.0359 0.0000
# 2 2.6087 35.7049 2.7069 0.0000 -5.6919 0.0000
# 3 -2.2225 2.7069 86.5735 0.0000 -1.1638 0.0000
# 4 0.0000 0.0000 0.0000 18.9390 0.0000 0.6736
# 5 0.0359 -5.6919 -1.1638 0.0000 48.9185 0.0000
# 6 0.0000 0.0000 0.0000 0.6736 0.0000 15.2313
#
#
#
# Elastic Compliance Matrix: (Units=1/GPa)
#
#
# Indices 1 2 3 4 5 6 
#
# 1 0.012256 -0.000939 0.000343 0.000000 -0.000110 0.000000
# 2 -0.000939 0.028671 -0.000876 0.000000 0.003316 0.000000
# 3 0.000343 -0.000876 0.011589 0.000000 0.000174 0.000000
# 4 0.000000 0.000000 0.000000 0.052884 0.000000 -0.002339
# 5 -0.000110 0.003316 0.000174 0.000000 0.020832 0.000000
# 6 0.000000 0.000000 0.000000 -0.002339 0.000000 0.065758
#
#
# Mechanical properties :
#
#
# Convention : Reuss Voigt Hill
#
# Bulk Modulus (GPa) = 20.17295 23.36893 21.77094
# Shear Modulus (GPa) = 23.64523 30.02051 26.83287
#
# Velocity S-wave (km/s) = 3.40575 3.83751 3.62806
# Velocity P-wave (km/s) = 5.03600 5.57664 5.31320
#
# Compressibility (1/GPa) = 0.04957134
#
# Stress axis : x y z
#
# Youngs Moduli (GPa) = 81.59352 34.87849 86.28574
#
# Poissons Ratio (x) = 0.03275 -0.02955
# Poissons Ratio (y) = 0.07661 0.07559
# Poissons Ratio (z) = -0.02795 0.03055
#
# Static dielectric constant tensor:
#      x y z
#    x 1.763320 0.000000 -0.026420 
#    y 0.000000 1.721090 0.000000 
#    z -0.026420 0.000000 1.784460 
# 
# From -- ./inp_files/163137.got.cif
#   From: 2010.05.17/outbox.cif.g08.bks.cpg/sg15_82_cif.got.tgz:163137.got - 2010.06.03 18:47:42.
