data_PCOD9303862
_publ_section_title
;
Structure prediction by ZEFSAII (Michael W. Deem and Ramdas Pophale) SiO2 
 PCOD9303862
Probable space group: C 2/C
;
_chemical_formula_sum "Si O2"
_cell_formula_units_Z 52
_cell_length_a 19.623773
_cell_length_b 21.740721
_cell_length_c 10.235046
_cell_angle_alpha 90.000000
_cell_angle_beta 38.037389
_cell_angle_gamma 90.000000
_cell_volume 2690.609853
_symmetry_space_group_name_H-M "C 2/C"
_symmetry_group_IT_number 15
_symmetry_cell_setting 'monoclinic'
loop_
_space_group_symop_operation_xyz
x,y,z
-x,y,1/2-z
-x,-y,-z
x,-y,1/2+z
1/2+x,1/2+y,z
1/2-x,1/2+y,1/2-z
1/2-x,1/2-y,-z
1/2+x,1/2-y,1/2+z
loop_
_atom_site_type_symbol
_atom_site_label
_atom_site_fract_x
_atom_site_fract_y
_atom_site_fract_z
Si Si1 0.837130 0.756012 0.480102
Si Si2 0.000000 0.347978 0.250000
Si Si3 0.696543 0.250397 0.439984
Si Si4 0.500000 0.636423 0.750000
Si Si5 0.936568 0.432902 0.097387
Si Si6 0.000000 0.643965 0.250000
Si Si7 0.009059 0.928907 0.957521
Si Si8 0.824620 0.103744 0.529641
O O1 0.750000 0.750000 0.500000
O O2 0.786527 0.766242 0.697524
O O3 0.906806 0.816105 0.345444
O O4 0.900253 0.691604 0.386465
O O5 0.028710 0.392673 0.328086
O O6 0.899605 0.300165 0.426152
O O7 0.750000 0.250000 0.500000
O O8 0.669985 0.322285 0.462664
O O9 0.526314 0.600678 0.575709
O O10 0.800318 0.425630 0.291460
O O11 0.000000 0.500000 0.000000
O O12 0.982699 0.397615 0.901732
O O13 0.106918 0.912819 0.706225
O O14 0.895091 0.915899 0.050413
O O15 0.000000 0.000000 0.000000
#
# Coordination Sequence:
#
# PCOD9303862 Si02
#       8
#     8   4   8   4   8   4   8   8
#     4  11  23  40  67 100 136 171 220 293 354 401
#     4  12  25  44  72 108 137 182 246 284 356 420
#     4  12  22  43  72 100 136 178 229 295 345 412
#     4  11  24  40  70 106 130 173 234 280 346 401
#     4  12  27  47  69 102 145 195 235 280 345 434
#     4  11  23  46  64  96 141 175 230 280 348 417
#     4  11  25  46  69 101 135 181 236 285 339 416
#     4  11  24  48  72  98 141 187 232 289 357 407
#
# _framework density 19.326474000000001
#
# number of rings (size 3 to 8) (size 9 to 14) (size 15 to 20)
#    0.000    0.615    3.077    5.077    0.000    6.154 
#    5.538    0.000    0.000    0.000    0.000    0.000 
#    0.000    0.000    0.000    0.000    0.000    0.000 
#
# Total GULP energy -144953.853803 kJ/mol
# GULP energy per Si atom -5575.148223 kJ/mol
# Density = 1.928249 g / cm^3
# Si number density = 19.326474 Si / 1000 Ang^3
#
#
#
# Elastic Constant Matrix: (Units=GPa)
#
#
# Indices 1 2 3 4 5 6 
#
# 1 131.2247 38.2471 22.0251 0.0000 -4.8058 0.0000
# 2 38.2471 148.8815 21.5186 0.0000 -15.1630 0.0000
# 3 22.0251 21.5186 81.5284 0.0000 -6.4944 0.0000
# 4 0.0000 0.0000 0.0000 26.1882 0.0000 -1.2258
# 5 -4.8058 -15.1630 -6.4944 0.0000 35.1093 0.0000
# 6 0.0000 0.0000 0.0000 -1.2258 0.0000 29.2908
#
#
#
# Elastic Compliance Matrix: (Units=1/GPa)
#
#
# Indices 1 2 3 4 5 6 
#
# 1 0.008480 -0.001920 -0.001784 0.000000 0.000001 0.000000
# 2 -0.001920 0.007683 -0.001285 0.000000 0.002818 0.000000
# 3 -0.001784 -0.001285 0.013218 0.000000 0.001646 0.000000
# 4 0.000000 0.000000 0.000000 0.038260 0.000000 0.001601
# 5 0.000001 0.002818 0.001646 0.000000 0.030004 0.000000
# 6 0.000000 0.000000 0.000000 0.001601 0.000000 0.034207
#
#
# Mechanical properties :
#
#
# Convention : Reuss Voigt Hill
#
# Bulk Modulus (GPa) = 51.53958 58.35737 54.94848
# Shear Modulus (GPa) = 33.71619 36.77391 35.24505
#
# Velocity S-wave (km/s) = 4.18132 4.36681 4.27507
# Velocity P-wave (km/s) = 7.07369 7.46234 7.27061
#
# Compressibility (1/GPa) = 0.01940256
#
# Stress axis : x y z
#
# Youngs Moduli (GPa) = 117.92864 130.16224 75.65598
#
# Poissons Ratio (x) = 0.24997 0.13496
# Poissons Ratio (y) = 0.22648 0.09718
# Poissons Ratio (z) = 0.21036 0.16720
#
# Static dielectric constant tensor:
#      x y z
#    x 1.661660 0.000000 -0.019330 
#    y 0.000000 1.711790 0.000000 
#    z -0.019330 0.000000 1.688040 
# 
# From -- ./inp_files/50615.got.cif
#   From: 2010.05.17/outbox.cif.g08.bks.cpg/sg15_26_cif.got.tgz:50615.got - 2010.06.03 18:47:42.
