data_PCOD9303163
_publ_section_title
;
Structure prediction by ZEFSAII (Michael W. Deem and Ramdas Pophale) SiO2 
 PCOD9303163
Probable space group: C 2/C
;
_chemical_formula_sum "Si O2"
_cell_formula_units_Z 56
_cell_length_a 9.447928
_cell_length_b 14.498239
_cell_length_c 25.607652
_cell_angle_alpha 90.000000
_cell_angle_beta 45.372660
_cell_angle_gamma 90.000000
_cell_volume 2496.393320
_symmetry_space_group_name_H-M "C 2/C"
_symmetry_group_IT_number 15
_symmetry_cell_setting 'monoclinic'
loop_
_space_group_symop_operation_xyz
x,y,z
-x,y,1/2-z
-x,-y,-z
x,-y,1/2+z
1/2+x,1/2+y,z
1/2-x,1/2+y,1/2-z
1/2-x,1/2-y,-z
1/2+x,1/2-y,1/2+z
loop_
_atom_site_type_symbol
_atom_site_label
_atom_site_fract_x
_atom_site_fract_y
_atom_site_fract_z
Si Si1 0.451967 0.783591 0.609592
Si Si2 0.393532 0.163749 0.831132
Si Si3 0.919670 0.041575 0.466413
Si Si4 0.018624 0.608130 0.901979
Si Si5 0.248505 0.630862 0.949114
Si Si6 0.286335 0.039119 0.315467
Si Si7 0.222266 0.947808 0.714238
O O1 0.297641 0.727851 0.613411
O O2 0.580655 0.705826 0.604235
O O3 0.605547 0.839660 0.533908
O O4 0.328459 0.849528 0.679376
O O5 0.500000 0.192154 0.750000
O O6 0.530068 0.170158 0.846822
O O7 0.331310 0.056391 0.835571
O O8 0.852815 0.962727 0.442238
O O9 0.718276 0.096506 0.528971
O O10 0.000000 0.000000 0.500000
O O11 0.112145 0.090762 0.391389
O O12 0.116840 0.629891 0.931510
O O13 0.133410 0.515719 0.854830
O O14 0.500000 0.085395 0.250000
O O15 0.213390 0.019059 0.276060
O O16 0.000000 0.945948 0.750000
#
# Coordination Sequence:
#
# PCOD9303163 Si02
#       7
#     8   8   8   8   8   8   8
#     4  11  25  46  64  97 144 181 218 285 357 406
#     4  11  22  45  70  94 136 186 224 274 353 411
#     4  12  21  41  74 102 134 182 229 287 337 405
#     4  12  24  43  75 103 133 181 246 279 332 412
#     4  11  25  42  70 101 139 178 233 286 339 409
#     4  11  22  42  68  99 133 178 230 275 340 419
#     4  12  25  42  70 104 138 176 233 295 338 400
#
# _framework density 22.432362999999999
#
# number of rings (size 3 to 8) (size 9 to 14) (size 15 to 20)
#    0.000    0.571    7.143    1.714    2.000    0.571 
#    0.000    2.857    0.000    0.000    0.000    0.000 
#    0.000    0.000    0.000    0.000    0.000    0.000 
#
# Total GULP energy -156462.405502 kJ/mol
# GULP energy per Si atom -5587.943054 kJ/mol
# Density = 2.238131 g / cm^3
# Si number density = 22.432363 Si / 1000 Ang^3
#
#
#
# Elastic Constant Matrix: (Units=GPa)
#
#
# Indices 1 2 3 4 5 6 
#
# 1 110.7444 -5.6780 9.3634 0.0000 1.6837 -0.0001
# 2 -5.6780 19.1781 2.2364 0.0000 -5.7653 0.0000
# 3 9.3634 2.2364 97.4503 -0.0002 -25.2674 0.0001
# 4 0.0000 0.0000 -0.0002 1.6871 0.0000 -6.7018
# 5 1.6837 -5.7653 -25.2674 0.0000 42.9974 0.0000
# 6 -0.0001 0.0000 0.0001 -6.7018 0.0000 11.6305
#
#
#
# Elastic Compliance Matrix: (Units=1/GPa)
#
#
# Indices 1 2 3 4 5 6 
#
# 1 0.009272 0.002676 -0.001125 0.000000 -0.000665 0.000000
# 2 0.002676 0.055153 0.000433 0.000000 0.007545 0.000000
# 3 -0.001125 0.000433 0.012253 0.000000 0.007303 0.000000
# 4 0.000000 0.000000 0.000000 -0.459830 0.000000 -0.264967
# 5 -0.000665 0.007545 0.007303 0.000000 0.028586 0.000000
# 6 0.000000 0.000000 0.000000 -0.264967 0.000000 -0.066701
#
#
# Mechanical properties :
#
#
# Convention : Reuss Voigt Hill
#
# Bulk Modulus (GPa) = 12.39954 26.57962 19.48958
# Shear Modulus (GPa) = -12.55165 26.02639 6.73737
#
# Velocity S-wave (km/s) = -2.36801 3.40989 1.73492
# Velocity P-wave (km/s) = 1.39180 5.23236 3.56655
#
# Compressibility (1/GPa) = 0.08064816
#
# Stress axis : x y z
#
# Youngs Moduli (GPa) = 107.84880 18.13148 81.61083
#
# Poissons Ratio (x) = -0.04853 0.09180
# Poissons Ratio (y) = -0.28864 -0.03537
# Poissons Ratio (z) = 0.12131 -0.00786
#
# Static dielectric constant tensor:
#      x y z
#    x 1.833590 0.000000 -0.009130 
#    y 0.000000 1.859380 0.000000 
#    z -0.009130 0.000000 1.851890 
# 
# From -- ./inp_files/265493.got.cif
#   From: 2010.05.17/outbox.cif.g08.bks.cpg/sg15_133_cif.got.tgz:265493.got - 2010.06.03 18:47:42.
