data_PCOD9303692
_publ_section_title
;
Structure prediction by ZEFSAII (Michael W. Deem and Ramdas Pophale) SiO2 
 PCOD9303692
Probable space group: C 2/C
;
_chemical_formula_sum "Si O2"
_cell_formula_units_Z 32
_cell_length_a 9.541510
_cell_length_b 10.322090
_cell_length_c 15.252046
_cell_angle_alpha 90.000000
_cell_angle_beta 111.144528
_cell_angle_gamma 90.000000
_cell_volume 1401.014031
_symmetry_space_group_name_H-M "C 2/C"
_symmetry_group_IT_number 15
_symmetry_cell_setting 'monoclinic'
loop_
_space_group_symop_operation_xyz
x,y,z
-x,y,1/2-z
-x,-y,-z
x,-y,1/2+z
1/2+x,1/2+y,z
1/2-x,1/2+y,1/2-z
1/2-x,1/2-y,-z
1/2+x,1/2-y,1/2+z
loop_
_atom_site_type_symbol
_atom_site_label
_atom_site_fract_x
_atom_site_fract_y
_atom_site_fract_z
Si Si1 0.440399 0.151710 0.334862
Si Si2 0.654901 0.372429 0.868833
Si Si3 0.056407 0.066021 0.601973
Si Si4 0.361828 0.908121 0.088360
O O1 0.500000 0.170582 0.250000
O O2 0.261683 0.136565 0.308603
O O3 0.481620 0.282262 0.397577
O O4 0.519246 0.022067 0.387582
O O5 0.534311 0.485280 0.847202
O O6 0.579120 0.233784 0.872286
O O7 0.773027 0.394422 0.976370
O O8 0.236198 0.058858 0.633949
O O9 0.000000 0.000000 0.500000
#
# Coordination Sequence:
#
# PCOD9303692 Si02
#       4
#     8   8   8   8
#     4  11  23  36  54  85 119 147 182 231 285 337
#     4   9  19  36  58  81 109 145 189 234 272 328
#     4   9  20  38  60  84 109 146 194 236 274 328
#     4   9  19  37  58  83 111 145 190 231 274 332
#
# _framework density 22.840598
#
# number of rings (size 3 to 8) (size 9 to 14) (size 15 to 20)
#    0.000    2.500    0.000    2.250    0.000   10.000 
#    0.000    1.250    0.000    0.000    0.000    0.000 
#    0.000    0.000    0.000    0.000    0.000    0.000 
#
# Total GULP energy -89376.454221 kJ/mol
# GULP energy per Si atom -5586.028389 kJ/mol
# Density = 2.278861 g / cm^3
# Si number density = 22.840598 Si / 1000 Ang^3
#
#
#
# Elastic Constant Matrix: (Units=GPa)
#
#
# Indices 1 2 3 4 5 6 
#
# 1 84.0396 70.2455 11.7049 0.0000 -29.7237 0.0000
# 2 70.2455 196.2239 21.1039 0.0000 -6.0252 0.0000
# 3 11.7049 21.1039 95.3044 0.0000 -22.0330 0.0000
# 4 0.0000 0.0000 0.0000 4.6009 0.0000 -27.1391
# 5 -29.7237 -6.0252 -22.0330 0.0000 37.8939 0.0000
# 6 0.0000 0.0000 0.0000 -27.1391 0.0000 32.5346
#
#
#
# Elastic Compliance Matrix: (Units=1/GPa)
#
#
# Indices 1 2 3 4 5 6 
#
# 1 0.026947 -0.009386 0.003825 0.000000 0.021868 0.000000
# 2 -0.009386 0.008491 -0.002446 0.000000 -0.007435 0.000000
# 3 0.003825 -0.002446 0.012903 0.000000 0.010113 0.000000
# 4 0.000000 0.000000 0.000000 -0.055440 0.000000 -0.046246
# 5 0.021868 -0.007435 0.010113 0.000000 0.048241 0.000000
# 6 0.000000 0.000000 0.000000 -0.046246 0.000000 -0.007840
#
#
# Mechanical properties :
#
#
# Convention : Reuss Voigt Hill
#
# Bulk Modulus (GPa) = 30.93645 64.63073 47.78359
# Shear Modulus (GPa) = 83.20569 33.17344 58.18957
#
# Velocity S-wave (km/s) = 6.04218 3.81516 5.05289
# Velocity P-wave (km/s) = 7.88994 6.91123 7.41675
#
# Compressibility (1/GPa) = 0.03232433
#
# Stress axis : x y z
#
# Youngs Moduli (GPa) = 37.11050 117.76881 77.50316
#
# Poissons Ratio (x) = 1.10542 -0.29642
# Poissons Ratio (y) = 0.34833 0.18960
# Poissons Ratio (z) = -0.14193 0.28810
#
# Static dielectric constant tensor:
#      x y z
#    x 1.802660 0.000000 -0.038430 
#    y 0.000000 1.813590 0.000000 
#    z -0.038430 0.000000 1.940100 
# 
# From -- ./inp_files/140517.got.cif
#   From: 2010.05.17/outbox.cif.g08.bks.cpg/sg15_71_cif.got.tgz:140517.got - 2010.06.03 18:47:42.
