data_PCOD9303744
_publ_section_title
;
Structure prediction by ZEFSAII (Michael W. Deem and Ramdas Pophale) SiO2 
 PCOD9303744
Probable space group: C 2/C
;
_chemical_formula_sum "Si O2"
_cell_formula_units_Z 36
_cell_length_a 7.766080
_cell_length_b 26.104330
_cell_length_c 9.253921
_cell_angle_alpha 90.000000
_cell_angle_beta 111.073678
_cell_angle_gamma 90.000000
_cell_volume 1750.560593
_symmetry_space_group_name_H-M "C 2/C"
_symmetry_group_IT_number 15
_symmetry_cell_setting 'monoclinic'
loop_
_space_group_symop_operation_xyz
x,y,z
-x,y,1/2-z
-x,-y,-z
x,-y,1/2+z
1/2+x,1/2+y,z
1/2-x,1/2+y,1/2-z
1/2-x,1/2-y,-z
1/2+x,1/2-y,1/2+z
loop_
_atom_site_type_symbol
_atom_site_label
_atom_site_fract_x
_atom_site_fract_y
_atom_site_fract_z
Si Si1 0.836436 0.784090 0.901081
Si Si2 0.501875 0.445262 0.078464
Si Si3 0.000000 0.705361 0.750000
Si Si4 0.298807 0.111247 0.204073
Si Si5 0.204067 0.142911 0.498303
O O1 0.854263 0.743909 0.777160
O O2 0.695483 0.829979 0.840996
O O3 0.750000 0.750000 0.000000
O O4 0.034976 0.815401 0.964886
O O5 0.500000 0.451594 0.250000
O O6 0.665649 0.405373 0.090609
O O7 0.500000 0.500000 0.000000
O O8 0.331450 0.416937 0.949048
O O9 0.891675 0.671327 0.600607
O O10 0.500000 0.087523 0.250000
O O11 0.219574 0.117725 0.343109
#
# Coordination Sequence:
#
# PCOD9303744 Si02
#       5
#     8   8   4   8   8
#     4  11  23  38  64  93 142 189 228 275 334 400
#     4  11  25  49  75  98 133 176 221 286 356 411
#     4  12  24  38  62 102 140 188 228 276 338 396
#     4  11  24  45  68 102 136 181 231 285 340 409
#     4  11  25  43  65 100 141 177 236 285 336 412
#
# _framework density 20.564841999999999
#
# number of rings (size 3 to 8) (size 9 to 14) (size 15 to 20)
#    0.000    0.889    2.222    5.333   12.444    0.000 
#    2.000    2.222    0.000    0.000    0.000    0.000 
#    0.000    0.000    0.000    0.000    0.000    0.000 
#
# Total GULP energy -100315.342789 kJ/mol
# GULP energy per Si atom -5573.074599 kJ/mol
# Density = 2.051804 g / cm^3
# Si number density = 20.564842 Si / 1000 Ang^3
#
#
#
# Elastic Constant Matrix: (Units=GPa)
#
#
# Indices 1 2 3 4 5 6 
#
# 1 68.9969 30.2881 43.5343 0.0000 2.6535 0.0000
# 2 30.2881 117.2978 69.5443 0.0000 -15.9887 0.0000
# 3 43.5343 69.5443 152.3444 0.0000 -22.0876 0.0000
# 4 0.0000 0.0000 0.0000 40.5942 0.0000 -14.4857
# 5 2.6535 -15.9887 -22.0876 0.0000 50.9360 0.0000
# 6 0.0000 0.0000 0.0000 -14.4857 0.0000 2.5175
#
#
#
# Elastic Compliance Matrix: (Units=1/GPa)
#
#
# Indices 1 2 3 4 5 6 
#
# 1 0.018759 -0.002549 -0.004754 0.000000 -0.003839 0.000000
# 2 -0.002549 0.012136 -0.004525 0.000000 0.001980 0.000000
# 3 -0.004754 -0.004525 0.010477 0.000000 0.003370 0.000000
# 4 0.000000 0.000000 0.000000 -0.023389 0.000000 -0.134578
# 5 -0.003839 0.001980 0.003370 0.000000 0.021916 0.000000
# 6 0.000000 0.000000 0.000000 -0.134578 0.000000 -0.377137
#
#
# Mechanical properties :
#
#
# Convention : Reuss Voigt Hill
#
# Bulk Modulus (GPa) = 56.44066 69.48581 62.96324
# Shear Modulus (GPa) = -16.25072 31.82770 7.78849
#
# Velocity S-wave (km/s) = -2.81413 3.93832 1.94821
# Velocity P-wave (km/s) = 4.11651 7.38529 5.97863
#
# Compressibility (1/GPa) = 0.01771772
#
# Stress axis : x y z
#
# Youngs Moduli (GPa) = 53.30689 82.40024 95.45082
#
# Poissons Ratio (x) = 0.21002 0.45375
# Poissons Ratio (y) = 0.13587 0.43187
# Poissons Ratio (z) = 0.25341 0.37282
#
# Static dielectric constant tensor:
#      x y z
#    x 1.785580 0.000000 -0.059950 
#    y 0.000000 1.707290 0.000000 
#    z -0.059950 0.000000 1.793730 
# 
# From -- ./inp_files/23176.got.cif
#   From: 2010.05.17/outbox.cif.g08.bks.cpg/sg15_12_cif.got.tgz:23176.got - 2010.06.03 18:47:42.
