data_PCOD9303180
_publ_section_title
;
Structure prediction by ZEFSAII (Michael W. Deem and Ramdas Pophale) SiO2 
 PCOD9303180
Probable space group: C 2/C
;
_chemical_formula_sum "Si O2"
_cell_formula_units_Z 60
_cell_length_a 28.536314
_cell_length_b 20.883667
_cell_length_c 16.446518
_cell_angle_alpha 90.000000
_cell_angle_beta 163.252519
_cell_angle_gamma 90.000000
_cell_volume 2824.252395
_symmetry_space_group_name_H-M "C 2/C"
_symmetry_group_IT_number 15
_symmetry_cell_setting 'monoclinic'
loop_
_space_group_symop_operation_xyz
x,y,z
-x,y,1/2-z
-x,-y,-z
x,-y,1/2+z
1/2+x,1/2+y,z
1/2-x,1/2+y,1/2-z
1/2-x,1/2-y,-z
1/2+x,1/2-y,1/2+z
loop_
_atom_site_type_symbol
_atom_site_label
_atom_site_fract_x
_atom_site_fract_y
_atom_site_fract_z
Si Si1 0.267289 0.334199 0.907285
Si Si2 0.833375 0.077241 0.205418
Si Si3 0.975498 0.310832 0.533031
Si Si4 0.183726 0.950666 0.225564
Si Si5 0.000000 0.640221 0.250000
Si Si6 0.182254 0.028928 0.055836
Si Si7 0.376138 0.060375 0.783704
Si Si8 0.386624 0.681911 0.430144
O O1 0.129476 0.301582 0.731099
O O2 0.218760 0.408254 0.806431
O O3 0.428876 0.330324 0.231271
O O4 0.292088 0.308595 0.857779
O O5 0.838227 0.122274 0.293117
O O6 0.008829 0.083511 0.450955
O O7 0.811358 0.003117 0.194631
O O8 0.673437 0.089365 0.885290
O O9 0.012241 0.317404 0.689575
O O10 0.909382 0.380388 0.397923
O O11 0.870400 0.246910 0.351865
O O12 0.337114 0.903225 0.480447
O O13 0.202964 0.993557 0.175883
O O14 0.210211 0.974452 0.036418
O O15 0.000000 0.053931 0.750000
O O16 0.500000 0.000000 0.000000
#
# Coordination Sequence:
#
# PCOD9303180 Si02
#       8
#     8   8   8   8   4   8   8   8
#     4  11  22  42  69  97 131 173 224 280 334 403
#     4  11  24  41  65  98 137 178 225 274 335 415
#     4  12  26  43  65  96 136 175 223 283 337 402
#     4  11  23  38  66 103 134 166 222 280 338 403
#     4  12  24  40  68 104 134 166 228 288 346 388
#     4  12  20  40  66  97 131 171 216 271 343 399
#     4  12  25  42  66  98 136 174 220 285 348 394
#     4  11  24  43  66  94 130 182 227 269 339 410
#
# _framework density 21.244561000000001
#
# number of rings (size 3 to 8) (size 9 to 14) (size 15 to 20)
#    0.000    0.533    6.667    2.800    1.867    1.600 
#    0.000    0.000    0.000    0.000    0.000    0.000 
#    0.000    0.000    0.000    0.000    0.000    0.000 
#
# Total GULP energy -167316.295347 kJ/mol
# GULP energy per Si atom -5577.209845 kJ/mol
# Density = 2.119621 g / cm^3
# Si number density = 21.244561 Si / 1000 Ang^3
#
#
#
# Elastic Constant Matrix: (Units=GPa)
#
#
# Indices 1 2 3 4 5 6 
#
# 1 100.9385 22.2135 29.5151 0.0000 -2.5869 0.0000
# 2 22.2135 93.4514 21.0024 0.0000 1.5729 0.0000
# 3 29.5151 21.0024 62.5788 0.0000 -7.2701 0.0000
# 4 0.0000 0.0000 0.0000 17.7367 0.0000 4.3250
# 5 -2.5869 1.5729 -7.2701 0.0000 31.8002 0.0000
# 6 0.0000 0.0000 0.0000 4.3250 0.0000 26.0502
#
#
#
# Elastic Compliance Matrix: (Units=1/GPa)
#
#
# Indices 1 2 3 4 5 6 
#
# 1 0.011729 -0.001666 -0.004985 0.000000 -0.000103 0.000000
# 2 -0.001666 0.011880 -0.003375 0.000000 -0.001495 0.000000
# 3 -0.004985 -0.003375 0.019966 0.000000 0.004326 0.000000
# 4 0.000000 0.000000 0.000000 0.058759 0.000000 -0.009755
# 5 -0.000103 -0.001495 0.004326 0.000000 0.032501 0.000000
# 6 0.000000 0.000000 0.000000 -0.009755 0.000000 0.040007
#
#
# Mechanical properties :
#
#
# Convention : Reuss Voigt Hill
#
# Bulk Modulus (GPa) = 42.51022 44.71451 43.61237
# Shear Modulus (GPa) = 24.66276 27.39994 26.03135
#
# Velocity S-wave (km/s) = 3.41089 3.59519 3.50425
# Velocity P-wave (km/s) = 5.96369 6.19088 6.07835
#
# Compressibility (1/GPa) = 0.02352375
#
# Stress axis : x y z
#
# Youngs Moduli (GPa) = 85.26228 84.17197 50.08478
#
# Poissons Ratio (x) = 0.14022 0.24965
# Poissons Ratio (y) = 0.14204 0.16905
# Poissons Ratio (z) = 0.42500 0.28410
#
# Static dielectric constant tensor:
#      x y z
#    x 1.811320 0.000000 0.016020 
#    y 0.000000 1.772400 0.000000 
#    z 0.016020 0.000000 1.807880 
# 
# From -- ./inp_files/179148.got.cif
#   From: 2010.05.17/outbox.cif.g08.bks.cpg/sg15_90_cif.got.tgz:179148.got - 2010.06.03 18:47:42.
