data_PCOD9303492
_publ_section_title
;
Structure prediction by ZEFSAII (Michael W. Deem and Ramdas Pophale) SiO2 
 PCOD9303492
Probable space group: C 2/C
;
_chemical_formula_sum "Si O2"
_cell_formula_units_Z 64
_cell_length_a 12.145929
_cell_length_b 15.871323
_cell_length_c 26.764355
_cell_angle_alpha 90.000000
_cell_angle_beta 36.734565
_cell_angle_gamma 90.000000
_cell_volume 3085.892478
_symmetry_space_group_name_H-M "C 2/C"
_symmetry_group_IT_number 15
_symmetry_cell_setting 'monoclinic'
loop_
_space_group_symop_operation_xyz
x,y,z
-x,y,1/2-z
-x,-y,-z
x,-y,1/2+z
1/2+x,1/2+y,z
1/2-x,1/2+y,1/2-z
1/2-x,1/2-y,-z
1/2+x,1/2-y,1/2+z
loop_
_atom_site_type_symbol
_atom_site_label
_atom_site_fract_x
_atom_site_fract_y
_atom_site_fract_z
Si Si1 0.318920 0.973000 0.351583
Si Si2 0.331500 0.719458 0.841262
Si Si3 0.787257 0.282709 0.346407
Si Si4 0.784860 0.176730 0.447706
Si Si5 0.554105 0.777498 0.592575
Si Si6 0.681024 0.617260 0.335381
Si Si7 0.059548 0.545554 0.347551
Si Si8 0.940271 0.433713 0.064019
O O1 0.500000 0.971857 0.250000
O O2 0.187759 0.042403 0.374005
O O3 0.395683 0.001835 0.376635
O O4 0.249593 0.877861 0.378547
O O5 0.500000 0.679462 0.750000
O O6 0.419265 0.759767 0.858674
O O7 0.252026 0.797331 0.837063
O O8 0.186013 0.645786 0.905566
O O9 0.768844 0.217179 0.398432
O O10 0.629991 0.265243 0.362446
O O11 0.000000 0.278055 0.250000
O O12 0.750000 0.250000 0.500000
O O13 0.630174 0.107784 0.511968
O O14 0.983167 0.137616 0.385369
O O15 0.750000 0.750000 0.500000
O O16 0.524156 0.875552 0.593131
O O17 0.805045 0.584638 0.243771
O O18 0.144262 0.482380 0.357301
O O19 0.000000 0.500000 0.000000
#
# Coordination Sequence:
#
# PCOD9303492 Si02
#       8
#     8   8   8   8   8   8   8   8
#     4   9  20  38  66 101 133 167 236 300 340 396
#     4  12  24  45  76 103 136 192 245 292 361 432
#     4  11  25  44  68 105 140 189 244 296 355 433
#     4  12  25  44  71 100 147 194 232 292 371 430
#     4  12  25  43  70 102 146 187 239 296 363 436
#     4  11  22  44  75 105 135 186 249 297 356 425
#     4  11  22  45  69  98 141 186 238 300 347 426
#     4  12  28  46  66 105 153 187 231 297 368 430
#
# _framework density 20.739543999999999
#
# number of rings (size 3 to 8) (size 9 to 14) (size 15 to 20)
#    0.000    0.750    3.750    4.125    0.000    5.000 
#    0.000    2.500    0.000    0.000    0.000    0.000 
#    0.000    0.000    0.000    0.000    0.000    0.000 
#
# Total GULP energy -178796.641539 kJ/mol
# GULP energy per Si atom -5587.395048 kJ/mol
# Density = 2.069234 g / cm^3
# Si number density = 20.739544 Si / 1000 Ang^3
#
#
#
# Elastic Constant Matrix: (Units=GPa)
#
#
# Indices 1 2 3 4 5 6 
#
# 1 106.2341 45.0936 32.0511 0.0001 -23.4554 -0.0004
# 2 45.0936 107.0490 16.9065 0.0001 -8.7844 -0.0002
# 3 32.0511 16.9065 66.8538 0.0006 -6.1120 -0.0005
# 4 0.0001 0.0001 0.0006 23.1455 -0.0001 8.8830
# 5 -23.4554 -8.7844 -6.1120 -0.0001 28.0567 0.0000
# 6 -0.0004 -0.0002 -0.0005 8.8830 0.0000 44.1913
#
#
#
# Elastic Compliance Matrix: (Units=1/GPa)
#
#
# Indices 1 2 3 4 5 6 
#
# 1 0.015231 -0.004769 -0.005171 0.000000 0.010113 0.000000
# 2 -0.004769 0.011407 -0.000649 0.000000 -0.000557 0.000000
# 3 -0.005171 -0.000649 0.017537 0.000000 -0.000706 0.000000
# 4 0.000000 0.000000 0.000000 0.046817 0.000000 -0.009411
# 5 0.010113 -0.000557 -0.000706 0.000000 0.043768 0.000000
# 6 0.000000 0.000000 0.000000 -0.009411 0.000000 0.024521
#
#
# Mechanical properties :
#
#
# Convention : Reuss Voigt Hill
#
# Bulk Modulus (GPa) = 43.48686 52.02659 47.75672
# Shear Modulus (GPa) = 26.57806 31.48439 29.03123
#
# Velocity S-wave (km/s) = 3.58371 3.90049 3.74545
# Velocity P-wave (km/s) = 6.17556 6.73982 6.46385
#
# Compressibility (1/GPa) = 0.02299545
#
# Stress axis : x y z
#
# Youngs Moduli (GPa) = 65.65727 87.66288 57.02276
#
# Poissons Ratio (x) = 0.41808 0.29488
# Poissons Ratio (y) = 0.31313 0.03702
# Poissons Ratio (z) = 0.33953 0.05691
#
# Static dielectric constant tensor:
#      x y z
#    x 1.687650 0.000000 0.046960 
#    y 0.000000 1.745380 0.000000 
#    z 0.046960 0.000000 1.801280 
# 
# From -- ./inp_files/198356.got.cif
#   From: 2010.05.17/outbox.cif.g08.bks.cpg/sg15_100_cif.got.tgz:198356.got - 2010.06.03 18:47:42.
