data_PCOD9303870
_publ_section_title
;
Structure prediction by ZEFSAII (Michael W. Deem and Ramdas Pophale) SiO2 
 PCOD9303870
Probable space group: C 2/C
;
_chemical_formula_sum "Si O2"
_cell_formula_units_Z 52
_cell_length_a 9.279354
_cell_length_b 22.001645
_cell_length_c 12.397647
_cell_angle_alpha 90.000000
_cell_angle_beta 85.575698
_cell_angle_gamma 90.000000
_cell_volume 2523.574242
_symmetry_space_group_name_H-M "C 2/C"
_symmetry_group_IT_number 15
_symmetry_cell_setting 'monoclinic'
loop_
_space_group_symop_operation_xyz
x,y,z
-x,y,1/2-z
-x,-y,-z
x,-y,1/2+z
1/2+x,1/2+y,z
1/2-x,1/2+y,1/2-z
1/2-x,1/2-y,-z
1/2+x,1/2-y,1/2+z
loop_
_atom_site_type_symbol
_atom_site_label
_atom_site_fract_x
_atom_site_fract_y
_atom_site_fract_z
Si Si1 0.993758 0.427682 0.622252
Si Si2 0.146342 0.445209 0.403517
Si Si3 0.500000 0.852673 0.250000
Si Si4 0.000000 0.135797 0.750000
Si Si5 0.728673 0.342219 0.589506
Si Si6 0.478102 0.519878 0.882208
Si Si7 0.727406 0.707082 0.853813
Si Si8 0.500000 0.412827 0.750000
O O1 0.960142 0.499053 0.615476
O O2 0.860079 0.389858 0.580081
O O3 0.000000 0.411915 0.750000
O O4 0.124012 0.420613 0.527624
O O5 0.305161 0.473040 0.376029
O O6 0.099501 0.393864 0.321729
O O7 0.606984 0.811865 0.173265
O O8 0.975397 0.086771 0.655796
O O9 0.134345 0.180173 0.760727
O O10 0.681550 0.321761 0.472024
O O11 0.782688 0.279530 0.639571
O O12 0.603629 0.373107 0.669260
O O13 0.570668 0.465849 0.819668
O O14 0.500000 0.500000 0.000000
#
# Coordination Sequence:
#
# PCOD9303870 Si02
#       8
#     8   8   4   4   8   8   8   4
#     4  11  24  39  64  97 134 164 220 283 337 395
#     4  11  23  40  67  98 128 177 217 282 342 401
#     4  12  21  46  70  94 133 180 232 274 332 410
#     4  11  24  40  64  98 132 173 218 280 336 403
#     4  11  24  44  66  95 133 183 225 274 335 400
#     4  11  24  39  65  96 133 167 216 276 347 405
#     4  11  25  44  68  94 137 180 231 278 330 400
#     4  11  23  42  66  94 127 175 216 268 340 401
#
# _framework density 20.605694
#
# number of rings (size 3 to 8) (size 9 to 14) (size 15 to 20)
#    0.000    0.923    5.385    1.385    3.231    0.000 
#    0.000    0.000    0.000    5.538    0.000    0.000 
#    0.000    0.000    0.000    0.000    0.000    0.000 
#
# Total GULP energy -144735.865888 kJ/mol
# GULP energy per Si atom -5566.764073 kJ/mol
# Density = 2.055879 g / cm^3
# Si number density = 20.605694 Si / 1000 Ang^3
#
#
#
# Elastic Constant Matrix: (Units=GPa)
#
#
# Indices 1 2 3 4 5 6 
#
# 1 52.2588 13.0292 17.0196 0.0000 -15.2499 0.0000
# 2 13.0292 99.8497 34.4486 0.0000 -9.0184 0.0000
# 3 17.0196 34.4486 95.2401 0.0000 -18.9280 0.0000
# 4 0.0000 0.0000 0.0000 -473.7396 0.0000 -918.2020
# 5 -15.2499 -9.0184 -18.9280 0.0000 34.5907 0.0000
# 6 0.0000 0.0000 0.0000 -918.2020 0.0000-1671.8343
#
#
#
# Elastic Compliance Matrix: (Units=1/GPa)
#
#
# Indices 1 2 3 4 5 6 
#
# 1 0.022608 -0.001565 -0.001767 0.000000 0.008593 0.000000
# 2 -0.001565 0.011571 -0.003863 0.000000 0.000213 0.000000
# 3 -0.001767 -0.003863 0.013305 0.000000 0.005494 0.000000
# 4 0.000000 0.000000 0.000000 0.032729 0.000000 -0.017975
# 5 0.008593 0.000213 0.005494 0.000000 0.035760 0.000000
# 6 0.000000 0.000000 0.000000 -0.017975 0.000000 0.009274
#
#
# Mechanical properties :
#
#
# Convention : Reuss Voigt Hill
#
# Bulk Modulus (GPa) = 30.21563 41.81593 36.01578
# Shear Modulus (GPa) = 33.18535 -410.00656 -188.41060
#
# Velocity S-wave (km/s) = 4.01745 -14.12123 -9.57260
# Velocity P-wave (km/s) = 6.01793 15.66977 10.23050
#
# Compressibility (1/GPa) = 0.03309545
#
# Stress axis : x y z
#
# Youngs Moduli (GPa) = 44.23133 86.42024 75.16068
#
# Poissons Ratio (x) = 0.13521 0.13277
# Poissons Ratio (y) = 0.06920 0.29038
# Poissons Ratio (z) = 0.07814 0.33388
#
# Static dielectric constant tensor:
#      x y z
#    x 1.706480 0.000000 -0.191100 
#    y 0.000000 1.724250 0.000000 
#    z -0.191100 0.000000 0.872420 
# 
# From -- ./inp_files/136017.got.cif
#   From: 2010.05.17/outbox.cif.g08.bks.cpg/sg15_69_cif.got.tgz:136017.got - 2010.06.03 18:47:42.
