data_PCOD9303984
_publ_section_title
;
Structure prediction by ZEFSAII (Michael W. Deem and Ramdas Pophale) SiO2 
 PCOD9303984
Probable space group: C 2/C
;
_chemical_formula_sum "Si O2"
_cell_formula_units_Z 44
_cell_length_a 8.355448
_cell_length_b 21.365259
_cell_length_c 11.302065
_cell_angle_alpha 90.000000
_cell_angle_beta 106.412578
_cell_angle_gamma 90.000000
_cell_volume 1935.389600
_symmetry_space_group_name_H-M "C 2/C"
_symmetry_group_IT_number 15
_symmetry_cell_setting 'monoclinic'
loop_
_space_group_symop_operation_xyz
x,y,z
-x,y,1/2-z
-x,-y,-z
x,-y,1/2+z
1/2+x,1/2+y,z
1/2-x,1/2+y,1/2-z
1/2-x,1/2-y,-z
1/2+x,1/2-y,1/2+z
loop_
_atom_site_type_symbol
_atom_site_label
_atom_site_fract_x
_atom_site_fract_y
_atom_site_fract_z
Si Si1 0.784830 0.354947 0.005477
Si Si2 0.883335 0.920883 0.085718
Si Si3 0.044044 0.544595 0.622455
Si Si4 0.000000 0.805000 0.250000
Si Si5 0.297354 0.256377 0.694690
Si Si6 0.986779 0.942607 0.881725
O O1 0.766736 0.299937 0.096017
O O2 0.950422 0.390960 0.075053
O O3 0.772371 0.319814 0.877873
O O4 0.644738 0.408439 0.974474
O O5 0.736854 0.938688 0.144902
O O6 0.959801 0.854838 0.137482
O O7 0.999217 0.982561 0.116553
O O8 0.836477 0.921421 0.935959
O O9 0.000000 0.525229 0.750000
O O10 0.000000 0.500000 0.500000
O O11 0.831650 0.763980 0.229496
O O12 0.500000 0.261228 0.750000
O O13 0.000000 0.921885 0.750000
#
# Coordination Sequence:
#
# PCOD9303984 Si02
#       6
#     8   8   8   4   8   8
#     4  11  23  48  69 102 141 193 248 303 374 432
#     4  11  24  40  71 104 145 191 240 303 376 455
#     4  12  27  45  74 112 156 197 241 305 381 452
#     4  12  22  46  72 108 144 190 254 302 384 450
#     4  11  25  47  74  98 143 198 250 310 364 446
#     4  11  23  41  68 105 147 189 244 308 372 447
#
# _framework density 22.734439999999999
#
# number of rings (size 3 to 8) (size 9 to 14) (size 15 to 20)
#    0.000    0.727    4.545    3.273    2.545    0.000 
#    8.182    2.727    0.000    0.000    0.000    0.000 
#    0.000    0.000    0.000    0.000    0.000    0.000 
#
# Total GULP energy -122610.841772 kJ/mol
# GULP energy per Si atom -5573.220081 kJ/mol
# Density = 2.268270 g / cm^3
# Si number density = 22.734440 Si / 1000 Ang^3
#
#
#
# Elastic Constant Matrix: (Units=GPa)
#
#
# Indices 1 2 3 4 5 6 
#
# 1 106.4558 28.0882 54.9873 0.0000 -18.8935 0.0000
# 2 28.0882 106.9050 31.1851 0.0000 -4.2433 0.0000
# 3 54.9873 31.1851 127.2962 0.0000 -26.6488 0.0000
# 4 0.0000 0.0000 0.0000 28.2231 0.0000 10.7145
# 5 -18.8935 -4.2433 -26.6488 0.0000 38.3009 0.0000
# 6 0.0000 0.0000 0.0000 10.7145 0.0000 23.8964
#
#
#
# Elastic Compliance Matrix: (Units=1/GPa)
#
#
# Indices 1 2 3 4 5 6 
#
# 1 0.012702 -0.001940 -0.004383 0.000000 0.003001 0.000000
# 2 -0.001940 0.010386 -0.001950 0.000000 -0.001163 0.000000
# 3 -0.004383 -0.001950 0.011388 0.000000 0.005545 0.000000
# 4 0.000000 0.000000 0.000000 0.042700 0.000000 -0.019146
# 5 0.003001 -0.001163 0.005545 0.000000 0.031319 0.000000
# 6 0.000000 0.000000 0.000000 -0.019146 0.000000 0.050432
#
#
# Mechanical properties :
#
#
# Convention : Reuss Voigt Hill
#
# Bulk Modulus (GPa) = 55.77226 63.24202 59.50714
# Shear Modulus (GPa) = 27.55583 33.17717 30.36650
#
# Velocity S-wave (km/s) = 3.48526 3.82427 3.65869
# Velocity P-wave (km/s) = 6.38603 6.88318 6.63926
#
# Compressibility (1/GPa) = 0.01793006
#
# Stress axis : x y z
#
# Youngs Moduli (GPa) = 78.72718 96.27981 87.81397
#
# Poissons Ratio (x) = 0.18674 0.38493
# Poissons Ratio (y) = 0.15269 0.17125
# Poissons Ratio (z) = 0.34510 0.18776
#
# Static dielectric constant tensor:
#      x y z
#    x 1.911050 0.000000 -0.058990 
#    y 0.000000 1.820340 0.000000 
#    z -0.058990 0.000000 2.001250 
# 
# From -- ./inp_files/78301.got.cif
#   From: 2010.05.17/outbox.cif.g08.bks.cpg/sg15_40_cif.got.tgz:78301.got - 2010.06.03 18:47:42.
