data_PCOD9303913
_publ_section_title
;
Structure prediction by ZEFSAII (Michael W. Deem and Ramdas Pophale) SiO2 
 PCOD9303913
Probable space group: C 2/C
;
_chemical_formula_sum "Si O2"
_cell_formula_units_Z 56
_cell_length_a 9.261935
_cell_length_b 27.396316
_cell_length_c 21.670702
_cell_angle_alpha 90.000000
_cell_angle_beta 150.749092
_cell_angle_gamma 90.000000
_cell_volume 2686.900029
_symmetry_space_group_name_H-M "C 2/C"
_symmetry_group_IT_number 15
_symmetry_cell_setting 'monoclinic'
loop_
_space_group_symop_operation_xyz
x,y,z
-x,y,1/2-z
-x,-y,-z
x,-y,1/2+z
1/2+x,1/2+y,z
1/2-x,1/2+y,1/2-z
1/2-x,1/2-y,-z
1/2+x,1/2-y,1/2+z
loop_
_atom_site_type_symbol
_atom_site_label
_atom_site_fract_x
_atom_site_fract_y
_atom_site_fract_z
Si Si1 0.640021 0.982756 0.487180
Si Si2 0.839555 0.680365 0.004816
Si Si3 0.668539 0.146245 0.249464
Si Si4 0.749494 0.692373 0.511187
Si Si5 0.336733 0.279239 0.389825
Si Si6 0.333023 0.971069 0.751882
Si Si7 0.839225 0.618511 0.888113
O O1 0.550628 0.925913 0.449605
O O2 0.993491 0.988905 0.621820
O O3 0.500000 0.000000 0.500000
O O4 0.498132 0.008670 0.374279
O O5 0.002382 0.669005 0.129432
O O6 0.987379 0.729139 0.032415
O O7 0.504675 0.694174 0.896882
O O8 0.868159 0.635325 0.969668
O O9 0.500000 0.159370 0.250000
O O10 0.673019 0.087795 0.246014
O O11 0.997559 0.167523 0.376039
O O12 0.750000 0.750000 0.500000
O O13 0.663221 0.686560 0.550404
O O14 0.055449 0.665758 0.610796
O O15 0.000000 0.267151 0.250000
O O16 0.500000 0.984033 0.750000
O O17 0.500000 0.605345 0.750000
#
# Coordination Sequence:
#
# PCOD9303913 Si02
#       7
#     8   8   8   8   8   8   8
#     4  12  25  47  74 109 146 183 236 306 372 432
#     4  11  24  41  64  96 132 182 233 278 343 413
#     4  11  23  43  70  98 136 180 237 284 339 422
#     4  12  23  42  66  98 141 185 230 283 340 413
#     4  11  23  41  61  93 134 183 231 281 338 407
#     4  11  25  47  76 107 142 189 241 296 366 442
#     4  12  26  44  67 103 140 181 232 291 358 418
#
# _framework density 20.841861000000002
#
# number of rings (size 3 to 8) (size 9 to 14) (size 15 to 20)
#    0.000    0.571    4.286    4.286    0.000    1.714 
#    0.000    2.143    0.000    0.000    0.000    0.000 
#    0.000    0.000    0.000    0.000    0.000    0.000 
#
# Total GULP energy -156647.025047 kJ/mol
# GULP energy per Si atom -5594.536609 kJ/mol
# Density = 2.079442 g / cm^3
# Si number density = 20.841861 Si / 1000 Ang^3
#
#
#
# Elastic Constant Matrix: (Units=GPa)
#
#
# Indices 1 2 3 4 5 6 
#
# 1 125.8157 26.9162 56.9877 -0.0005 0.8617 0.0000
# 2 26.9162 68.2675 13.7065 -0.0001 -5.8798 0.0001
# 3 56.9877 13.7065 110.0068 0.0025 7.3436 -0.0029
# 4 -0.0005 -0.0001 0.0025 31.0163 -0.0012 -2.5826
# 5 0.8617 -5.8798 7.3436 -0.0012 44.4489 -0.0002
# 6 0.0000 0.0001 -0.0029 -2.5826 -0.0002 40.1259
#
#
#
# Elastic Compliance Matrix: (Units=1/GPa)
#
#
# Indices 1 2 3 4 5 6 
#
# 1 0.011065 -0.003270 -0.005340 0.000001 0.000235 0.000000
# 2 -0.003270 0.016231 -0.000481 0.000000 0.002290 0.000000
# 3 -0.005340 -0.000481 0.012047 -0.000001 -0.001950 0.000001
# 4 0.000001 0.000000 -0.000001 0.032415 0.000001 0.002086
# 5 0.000235 0.002290 -0.001950 0.000001 0.023118 0.000000
# 6 0.000000 0.000000 0.000001 0.002086 0.000000 0.025056
#
#
# Mechanical properties :
#
#
# Convention : Reuss Voigt Hill
#
# Bulk Modulus (GPa) = 47.25882 55.47897 51.36889
# Shear Modulus (GPa) = 34.44254 36.88352 35.66303
#
# Velocity S-wave (km/s) = 4.06959 4.21133 4.14106
# Velocity P-wave (km/s) = 6.69374 7.09393 6.89674
#
# Compressibility (1/GPa) = 0.02116007
#
# Stress axis : x y z
#
# Youngs Moduli (GPa) = 90.37497 61.60873 83.00815
#
# Poissons Ratio (x) = 0.20147 0.44329
# Poissons Ratio (y) = 0.29554 0.03994
# Poissons Ratio (z) = 0.48263 0.02964
#
# Static dielectric constant tensor:
#      x y z
#    x 1.770390 0.000000 0.004730 
#    y 0.000000 1.727780 0.000000 
#    z 0.004730 0.000000 1.742030 
# 
# From -- ./inp_files/234985.got.cif
#   From: 2010.05.17/outbox.cif.g08.bks.cpg/sg15_118_cif.got.tgz:234985.got - 2010.06.03 18:47:42.
