data_PCOD9303505
_publ_section_title
;
Structure prediction by ZEFSAII (Michael W. Deem and Ramdas Pophale) SiO2 
 PCOD9303505
Probable space group: C 2/C
;
_chemical_formula_sum "Si O2"
_cell_formula_units_Z 40
_cell_length_a 17.241910
_cell_length_b 9.461165
_cell_length_c 26.384771
_cell_angle_alpha 90.000000
_cell_angle_beta 21.625153
_cell_angle_gamma 90.000000
_cell_volume 1586.205088
_symmetry_space_group_name_H-M "C 2/C"
_symmetry_group_IT_number 15
_symmetry_cell_setting 'monoclinic'
loop_
_space_group_symop_operation_xyz
x,y,z
-x,y,1/2-z
-x,-y,-z
x,-y,1/2+z
1/2+x,1/2+y,z
1/2-x,1/2+y,1/2-z
1/2-x,1/2-y,-z
1/2+x,1/2-y,1/2+z
loop_
_atom_site_type_symbol
_atom_site_label
_atom_site_fract_x
_atom_site_fract_y
_atom_site_fract_z
Si Si1 0.745657 0.023411 0.647863
Si Si2 0.252161 0.318533 0.798664
Si Si3 0.439790 0.844433 0.904981
Si Si4 0.332592 0.338997 0.998488
Si Si5 0.755795 0.565299 0.096858
O O1 0.683704 0.173344 0.711981
O O2 0.717862 0.046038 0.603529
O O3 0.601572 0.907465 0.764460
O O4 0.000000 0.000000 0.500000
O O5 0.443835 0.393177 0.653922
O O6 0.193473 0.439844 0.874538
O O7 0.083016 0.271158 0.860475
O O8 0.250000 0.750000 0.000000
O O9 0.329012 0.962767 0.007922
O O10 0.250000 0.250000 0.000000
O O11 0.367088 0.211799 0.015989
O O12 0.500000 0.577889 0.250000
#
# Coordination Sequence:
#
# PCOD9303505 Si02
#       5
#     8   8   8   8   8
#     4  11  25  47  78 112 152 215 270 336 402 487
#     4  11  24  47  79 109 151 209 276 327 400 483
#     4  12  28  49  75 118 168 210 257 337 418 488
#     4  11  22  44  78 113 145 194 280 332 385 468
#     4  11  24  45  75 112 150 206 256 336 398 478
#
# _framework density 25.217419
#
# number of rings (size 3 to 8) (size 9 to 14) (size 15 to 20)
#    0.000    0.800    6.000    0.600    0.000    4.800 
#    3.600    0.000    0.000    0.000    0.000    0.000 
#    0.000    0.000    0.000    0.000    0.000    0.000 
#
# Total GULP energy -111531.251809 kJ/mol
# GULP energy per Si atom -5576.562590 kJ/mol
# Density = 2.516002 g / cm^3
# Si number density = 25.217419 Si / 1000 Ang^3
#
#
#
# Elastic Constant Matrix: (Units=GPa)
#
#
# Indices 1 2 3 4 5 6 
#
# 1 164.3434 28.7633 80.5592 -0.0112 8.7347 -0.0111
# 2 28.7633 57.1355 42.9534 0.0124 17.7953 0.0021
# 3 80.5592 42.9534 186.0975 -0.0208 40.6177 -0.0095
# 4 -0.0112 0.0124 -0.0208 -2.6516 -0.0007 -32.0456
# 5 8.7347 17.7953 40.6177 -0.0007 50.4498 -0.0095
# 6 -0.0111 0.0021 -0.0095 -32.0456 -0.0095 14.4950
#
#
#
# Elastic Compliance Matrix: (Units=1/GPa)
#
#
# Indices 1 2 3 4 5 6 
#
# 1 0.008036 -0.002112 -0.003458 -0.000003 0.002137 -0.000001
# 2 -0.002112 0.022525 -0.003191 0.000010 -0.005010 0.000011
# 3 -0.003458 -0.003191 0.008772 -0.000002 -0.005338 -0.000005
# 4 -0.000003 0.000010 -0.000002 -0.013606 -0.000007 -0.030080
# 5 0.002137 -0.005010 -0.005338 -0.000007 0.025517 0.000001
# 6 -0.000001 0.000011 -0.000005 -0.030080 0.000001 0.002489
#
#
# Mechanical properties :
#
#
# Convention : Reuss Voigt Hill
#
# Bulk Modulus (GPa) = 45.84771 79.12537 62.48654
# Shear Modulus (GPa) = 63.67447 29.47866 46.57656
#
# Velocity S-wave (km/s) = 5.03041 3.42274 4.30234
# Velocity P-wave (km/s) = 7.20836 6.86044 7.03655
#
# Compressibility (1/GPa) = 0.02181134
#
# Stress axis : x y z
#
# Youngs Moduli (GPa) = 124.44447 44.39506 113.99897
#
# Poissons Ratio (x) = 0.09375 0.39417
# Poissons Ratio (y) = 0.26278 0.36381
# Poissons Ratio (z) = 0.43029 0.14168
#
# Static dielectric constant tensor:
#      x y z
#    x 2.129370 -0.000010 -0.069540 
#    y -0.000010 1.979750 0.000060 
#    z -0.069540 0.000060 2.360810 
# 
# From -- ./inp_files/316023.got.cif
#   From: 2010.05.17/outbox.cif.g08.bks.cpg/sg15_159_cif.got.tgz:316023.got - 2010.06.03 18:47:42.
