data_PCOD9303039
_publ_section_title
;
Structure prediction by ZEFSAII (Michael W. Deem and Ramdas Pophale) SiO2 
 PCOD9303039
Probable space group: C 2/C
;
_chemical_formula_sum "Si O2"
_cell_formula_units_Z 40
_cell_length_a 13.396819
_cell_length_b 12.919818
_cell_length_c 13.351224
_cell_angle_alpha 90.000000
_cell_angle_beta 133.719479
_cell_angle_gamma 90.000000
_cell_volume 1670.154262
_symmetry_space_group_name_H-M "C 2/C"
_symmetry_group_IT_number 15
_symmetry_cell_setting 'monoclinic'
loop_
_space_group_symop_operation_xyz
x,y,z
-x,y,1/2-z
-x,-y,-z
x,-y,1/2+z
1/2+x,1/2+y,z
1/2-x,1/2+y,1/2-z
1/2-x,1/2-y,-z
1/2+x,1/2-y,1/2+z
loop_
_atom_site_type_symbol
_atom_site_label
_atom_site_fract_x
_atom_site_fract_y
_atom_site_fract_z
Si Si1 0.323138 0.308575 0.640502
Si Si2 0.580568 0.112958 0.673788
Si Si3 0.580988 0.823341 0.618347
Si Si4 0.895196 0.921094 0.373367
Si Si5 0.000000 0.989803 0.750000
Si Si6 0.000000 0.443173 0.750000
O O1 0.250000 0.250000 0.500000
O O2 0.412165 0.224672 0.766484
O O3 0.218939 0.351325 0.652625
O O4 0.393319 0.405379 0.633972
O O5 0.544110 0.129570 0.533043
O O6 0.735007 0.067613 0.792987
O O7 0.470334 0.033001 0.645206
O O8 0.569818 0.700104 0.594619
O O9 0.581356 0.863891 0.732526
O O10 0.919064 0.944890 0.273626
O O11 0.000000 0.000000 0.500000
#
# Coordination Sequence:
#
# PCOD9303039 Si02
#       6
#     8   8   8   8   4   4
#     4  11  22  41  68  98 133 178 230 280 334 413
#     4  11  24  43  67  95 132 179 223 275 342 414
#     4  11  25  45  66  99 136 175 230 284 343 413
#     4  11  25  44  66  95 132 174 219 274 338 407
#     4  12  22  40  66  96 128 174 224 278 340 396
#     4  12  24  42  68 100 136 178 222 288 348 400
#
# _framework density 23.949881999999999
#
# number of rings (size 3 to 8) (size 9 to 14) (size 15 to 20)
#    0.000    0.800    0.000    9.000    0.000    4.800 
#    0.000    6.000    0.000    0.000    0.000    0.000 
#    0.000    0.000    0.000    0.000    0.000    0.000 
#
# Total GULP energy -111512.626989 kJ/mol
# GULP energy per Si atom -5575.631349 kJ/mol
# Density = 2.389537 g / cm^3
# Si number density = 23.949882 Si / 1000 Ang^3
#
#
#
# Elastic Constant Matrix: (Units=GPa)
#
#
# Indices 1 2 3 4 5 6 
#
# 1 132.6231 28.6651 29.8251 0.0000 -12.1833 0.0000
# 2 28.6651 122.9457 27.6889 0.0000 -3.9119 0.0000
# 3 29.8251 27.6889 57.9425 0.0000 -2.6419 0.0000
# 4 0.0000 0.0000 0.0000 31.9023 0.0000 -14.6433
# 5 -12.1833 -3.9119 -2.6419 0.0000 34.9655 0.0000
# 6 0.0000 0.0000 0.0000 -14.6433 0.0000 50.7606
#
#
#
# Elastic Compliance Matrix: (Units=1/GPa)
#
#
# Indices 1 2 3 4 5 6 
#
# 1 0.008911 -0.001106 -0.003936 0.000000 0.002684 0.000000
# 2 -0.001106 0.009269 -0.003844 0.000000 0.000361 0.000000
# 3 -0.003936 -0.003844 0.021112 0.000000 -0.000206 0.000000
# 4 0.000000 0.000000 0.000000 0.036130 0.000000 0.010423
# 5 0.002684 0.000361 -0.000206 0.000000 0.029560 0.000000
# 6 0.000000 0.000000 0.000000 0.010423 0.000000 0.022707
#
#
# Mechanical properties :
#
#
# Convention : Reuss Voigt Hill
#
# Bulk Modulus (GPa) = 46.46685 53.98550 50.22618
# Shear Modulus (GPa) = 32.75860 38.68115 35.71987
#
# Velocity S-wave (km/s) = 3.70239 4.02317 3.86611
# Velocity P-wave (km/s) = 6.14172 6.64614 6.39890
#
# Compressibility (1/GPa) = 0.02152072
#
# Stress axis : x y z
#
# Youngs Moduli (GPa) = 112.22274 107.89133 47.36693
#
# Poissons Ratio (x) = 0.11930 0.18643
# Poissons Ratio (y) = 0.12409 0.18206
# Poissons Ratio (z) = 0.44171 0.41468
#
# Static dielectric constant tensor:
#      x y z
#    x 1.994690 0.000000 0.068250 
#    y 0.000000 1.936710 0.000000 
#    z 0.068250 0.000000 1.991980 
# 
# From -- ./inp_files/95178.got.cif
#   From: 2010.05.17/outbox.cif.g08.bks.cpg/sg15_48_cif.got.tgz:95178.got - 2010.06.03 18:47:42.
