data_PCOD9303165
_publ_section_title
;
Structure prediction by ZEFSAII (Michael W. Deem and Ramdas Pophale) SiO2 
 PCOD9303165
Probable space group: C 2/C
;
_chemical_formula_sum "Si O2"
_cell_formula_units_Z 52
_cell_length_a 8.099502
_cell_length_b 11.398394
_cell_length_c 28.526200
_cell_angle_alpha 90.000000
_cell_angle_beta 116.660445
_cell_angle_gamma 90.000000
_cell_volume 2353.578071
_symmetry_space_group_name_H-M "C 2/C"
_symmetry_group_IT_number 15
_symmetry_cell_setting 'monoclinic'
loop_
_space_group_symop_operation_xyz
x,y,z
-x,y,1/2-z
-x,-y,-z
x,-y,1/2+z
1/2+x,1/2+y,z
1/2-x,1/2+y,1/2-z
1/2-x,1/2-y,-z
1/2+x,1/2-y,1/2+z
loop_
_atom_site_type_symbol
_atom_site_label
_atom_site_fract_x
_atom_site_fract_y
_atom_site_fract_z
Si Si1 0.329585 0.354921 0.479284
Si Si2 0.355111 0.964361 0.610724
Si Si3 0.515807 0.721812 0.909305
Si Si4 0.623510 0.306649 0.839325
Si Si5 0.951705 0.968079 0.588213
Si Si6 0.500000 0.499804 0.250000
Si Si7 0.104976 0.414962 0.214206
O O1 0.250000 0.250000 0.500000
O O2 0.180975 0.430288 0.430633
O O3 0.468086 0.302036 0.457887
O O4 0.412967 0.441295 0.529023
O O5 0.375310 0.840367 0.587294
O O6 0.173220 0.962691 0.620011
O O7 0.526692 0.994263 0.665642
O O8 0.318409 0.740717 0.858156
O O9 0.607858 0.599411 0.905272
O O10 0.634007 0.367300 0.891271
O O11 0.577566 0.413044 0.799341
O O12 0.462482 0.211845 0.812481
O O13 0.324942 0.426292 0.245802
O O14 0.000000 0.434927 0.250000
#
# Coordination Sequence:
#
# PCOD9303165 Si02
#       7
#     8   8   8   8   8   4   8
#     4  11  22  42  69 101 140 184 228 285 347 414
#     4  11  23  43  70  99 138 185 228 285 357 414
#     4  11  23  43  68  97 139 178 227 285 337 421
#     4  12  24  48  69  97 142 178 227 299 345 416
#     4  11  24  43  70 100 138 183 229 285 352 416
#     4  12  28  44  74 106 132 190 240 286 366 420
#     4  12  25  49  72 102 142 182 236 297 356 423
#
# _framework density 22.09402
#
# number of rings (size 3 to 8) (size 9 to 14) (size 15 to 20)
#    0.000    0.615    6.923    2.769    0.000    4.308 
#    6.923    0.000    0.000    0.000    0.000    0.000 
#    0.000    0.000    0.000    0.000    0.000    0.000 
#
# Total GULP energy -145349.251504 kJ/mol
# GULP energy per Si atom -5590.355827 kJ/mol
# Density = 2.204373 g / cm^3
# Si number density = 22.094020 Si / 1000 Ang^3
#
#
#
# Elastic Constant Matrix: (Units=GPa)
#
#
# Indices 1 2 3 4 5 6 
#
# 1 49.2476 32.3705 14.2140 0.0000 3.5882 0.0000
# 2 32.3705 150.2757 15.8920 0.0000 -16.9285 0.0000
# 3 14.2140 15.8920 86.8309 0.0000 -12.4469 0.0000
# 4 0.0000 0.0000 0.0000 36.3623 0.0000 -2.0076
# 5 3.5882 -16.9285 -12.4469 0.0000 26.6037 0.0000
# 6 0.0000 0.0000 0.0000 -2.0076 0.0000 37.2313
#
#
#
# Elastic Compliance Matrix: (Units=1/GPa)
#
#
# Indices 1 2 3 4 5 6 
#
# 1 0.026488 -0.006318 -0.004575 0.000000 -0.009734 0.000000
# 2 -0.006318 0.008716 0.000382 0.000000 0.006577 0.000000
# 3 -0.004575 0.000382 0.013205 0.000000 0.007038 0.000000
# 4 0.000000 0.000000 0.000000 0.027583 0.000000 0.001487
# 5 -0.009734 0.006577 0.007038 0.000000 0.046379 0.000000
# 6 0.000000 0.000000 0.000000 0.001487 0.000000 0.026939
#
#
# Mechanical properties :
#
#
# Convention : Reuss Voigt Hill
#
# Bulk Modulus (GPa) = 36.51524 45.70079 41.10802
# Shear Modulus (GPa) = 27.86100 34.96464 31.41282
#
# Velocity S-wave (km/s) = 3.55494 3.98243 3.77474
# Velocity P-wave (km/s) = 5.78041 6.47116 6.13552
#
# Compressibility (1/GPa) = 0.02738582
#
# Stress axis : x y z
#
# Youngs Moduli (GPa) = 37.75251 114.73162 75.73169
#
# Poissons Ratio (x) = 0.72493 0.34647
# Poissons Ratio (y) = 0.23854 -0.02892
# Poissons Ratio (z) = 0.17272 -0.04382
#
# Static dielectric constant tensor:
#      x y z
#    x 1.815220 0.000000 0.001790 
#    y 0.000000 1.814840 0.000000 
#    z 0.001790 0.000000 1.850530 
# 
# From -- ./inp_files/288123.got.cif
#   From: 2010.05.17/outbox.cif.g08.bks.cpg/sg15_145_cif.got.tgz:288123.got - 2010.06.03 18:47:42.
