data_PCOD9303114
_publ_section_title
;
Structure prediction by ZEFSAII (Michael W. Deem and Ramdas Pophale) SiO2 
 PCOD9303114
Probable space group: C 2/C
;
_chemical_formula_sum "Si O2"
_cell_formula_units_Z 48
_cell_length_a 8.394345
_cell_length_b 17.883832
_cell_length_c 16.642050
_cell_angle_alpha 90.000000
_cell_angle_beta 113.656378
_cell_angle_gamma 90.000000
_cell_volume 2288.414473
_symmetry_space_group_name_H-M "C 2/C"
_symmetry_group_IT_number 15
_symmetry_cell_setting 'monoclinic'
loop_
_space_group_symop_operation_xyz
x,y,z
-x,y,1/2-z
-x,-y,-z
x,-y,1/2+z
1/2+x,1/2+y,z
1/2-x,1/2+y,1/2-z
1/2-x,1/2-y,-z
1/2+x,1/2-y,1/2+z
loop_
_atom_site_type_symbol
_atom_site_label
_atom_site_fract_x
_atom_site_fract_y
_atom_site_fract_z
Si Si1 0.771651 0.323453 0.891776
Si Si2 0.794906 0.253185 0.723225
Si Si3 0.508858 0.568249 0.941903
Si Si4 0.986952 0.222947 0.461912
Si Si5 0.676780 0.998057 0.584901
Si Si6 0.194359 0.081054 0.749850
O O1 0.753354 0.301113 0.794646
O O2 0.622273 0.285260 0.915291
O O3 0.759425 0.412446 0.900212
O O4 0.949183 0.290396 0.967652
O O5 0.695444 0.271537 0.620759
O O6 0.751316 0.166920 0.732991
O O7 0.000000 0.258891 0.750000
O O8 0.687426 0.553850 0.930340
O O9 0.344164 0.562152 0.849604
O O10 0.500000 0.500000 0.000000
O O11 0.506390 0.648123 0.983762
O O12 0.500000 0.000000 0.500000
O O13 0.674647 0.028440 0.675530
O O14 0.000000 0.073829 0.750000
#
# Coordination Sequence:
#
# PCOD9303114 Si02
#       6
#     8   8   8   8   8   8
#     4  11  24  43  64  99 132 172 225 276 339 404
#     4  11  24  41  65  96 127 172 225 277 338 399
#     4  11  22  42  65  93 130 179 215 261 336 409
#     4  11  24  42  68  93 135 176 219 279 339 407
#     4  11  24  41  67  95 131 169 220 277 332 396
#     4   9  21  42  62  90 130 173 213 265 335 399
#
# _framework density 20.97522
#
# number of rings (size 3 to 8) (size 9 to 14) (size 15 to 20)
#    0.000    1.333    3.333    1.500    4.667    2.000 
#    0.000    0.833    0.000    0.000    0.000    0.000 
#    0.000    0.000    0.000    0.000    0.000    0.000 
#
# Total GULP energy -134090.200406 kJ/mol
# GULP energy per Si atom -5587.091684 kJ/mol
# Density = 2.092748 g / cm^3
# Si number density = 20.975220 Si / 1000 Ang^3
#
#
#
# Elastic Constant Matrix: (Units=GPa)
#
#
# Indices 1 2 3 4 5 6 
#
# 1 26.2948 1.7308 17.4621 0.0000 8.9648 0.0000
# 2 1.7308 48.6359 25.5267 0.0000 -7.9309 0.0000
# 3 17.4621 25.5267 168.8901 0.0000 17.5562 0.0000
# 4 0.0000 0.0000 0.0000 42.9838 0.0000 -3.8294
# 5 8.9648 -7.9309 17.5562 0.0000 31.3797 0.0000
# 6 0.0000 0.0000 0.0000 -3.8294 0.0000 20.5284
#
#
#
# Elastic Compliance Matrix: (Units=1/GPa)
#
#
# Indices 1 2 3 4 5 6 
#
# 1 0.044066 -0.001776 -0.003113 0.000000 -0.011296 0.000000
# 2 -0.001776 0.024469 -0.004470 0.000000 0.009193 0.000000
# 3 -0.003113 -0.004470 0.007372 0.000000 -0.004365 0.000000
# 4 0.000000 0.000000 0.000000 0.023658 0.000000 0.004413
# 5 -0.011296 0.009193 -0.004365 0.000000 0.039860 0.000000
# 6 0.000000 0.000000 0.000000 0.004413 0.000000 0.049536
#
#
# Mechanical properties :
#
#
# Convention : Reuss Voigt Hill
#
# Bulk Modulus (GPa) = 17.48618 37.02889 27.25754
# Shear Modulus (GPa) = 22.05122 32.25179 27.15150
#
# Velocity S-wave (km/s) = 3.24589 3.92550 3.60176
# Velocity P-wave (km/s) = 4.73312 6.18369 5.50638
#
# Compressibility (1/GPa) = 0.05718802
#
# Stress axis : x y z
#
# Youngs Moduli (GPa) = 22.69321 40.86721 135.64217
#
# Poissons Ratio (x) = 0.07258 0.42231
# Poissons Ratio (y) = 0.04031 0.60637
# Poissons Ratio (z) = 0.07065 0.18269
#
# Static dielectric constant tensor:
#      x y z
#    x 1.828360 0.000000 -0.039760 
#    y 0.000000 1.765370 0.000000 
#    z -0.039760 0.000000 1.798350 
# 
# From -- ./inp_files/190602.got.cif
#   From: 2010.05.17/outbox.cif.g08.bks.cpg/sg15_96_cif.got.tgz:190602.got - 2010.06.03 18:47:42.
