data_PCOD9303806
_publ_section_title
;
Structure prediction by ZEFSAII (Michael W. Deem and Ramdas Pophale) SiO2 
 PCOD9303806
Probable space group: C 2/C
;
_chemical_formula_sum "Si O2"
_cell_formula_units_Z 56
_cell_length_a 14.323142
_cell_length_b 13.780149
_cell_length_c 12.196422
_cell_angle_alpha 90.000000
_cell_angle_beta 91.525961
_cell_angle_gamma 90.000000
_cell_volume 2406.415459
_symmetry_space_group_name_H-M "C 2/C"
_symmetry_group_IT_number 15
_symmetry_cell_setting 'monoclinic'
loop_
_space_group_symop_operation_xyz
x,y,z
-x,y,1/2-z
-x,-y,-z
x,-y,1/2+z
1/2+x,1/2+y,z
1/2-x,1/2+y,1/2-z
1/2-x,1/2-y,-z
1/2+x,1/2-y,1/2+z
loop_
_atom_site_type_symbol
_atom_site_label
_atom_site_fract_x
_atom_site_fract_y
_atom_site_fract_z
Si Si1 0.278646 0.657623 0.291299
Si Si2 0.073783 0.066968 0.349334
Si Si3 0.644029 0.945040 0.410869
Si Si4 0.657319 0.860132 0.183438
Si Si5 0.015332 0.727855 0.953010
Si Si6 0.432578 0.863917 0.647181
Si Si7 0.306397 0.561286 0.512940
O O1 0.326910 0.586018 0.208134
O O2 0.304504 0.764600 0.255907
O O3 0.169553 0.653776 0.307846
O O4 0.322245 0.634907 0.412912
O O5 0.099338 0.979847 0.431774
O O6 0.000000 0.045927 0.250000
O O7 0.043150 0.166780 0.408393
O O8 0.645108 0.936933 0.278959
O O9 0.602185 0.847217 0.458876
O O10 0.746076 0.972871 0.458403
O O11 0.579738 0.039846 0.427946
O O12 0.559715 0.824935 0.129191
O O13 0.734726 0.890450 0.096990
O O14 0.968344 0.722842 0.071234
O O15 0.500000 0.880432 0.750000
#
# Coordination Sequence:
#
# PCOD9303806 Si02
#       7
#     8   8   8   8   8   8   8
#     4  11  24  47  71  98 139 199 237 290 364 438
#     4  12  26  47  73 104 142 190 243 296 361 435
#     4  11  23  39  68 105 137 181 231 297 360 422
#     4  12  22  45  70  97 141 195 241 282 360 433
#     4  12  23  43  72 103 139 190 234 293 361 433
#     4  11  25  41  69 108 144 180 238 297 356 425
#     4  11  26  42  71 103 142 184 242 301 357 421
#
# _framework density 23.271127
#
# number of rings (size 3 to 8) (size 9 to 14) (size 15 to 20)
#    0.000    0.571    5.714    3.857    4.000    2.286 
#    0.000    0.714    0.000    0.000    0.000    0.000 
#    0.000    0.000    0.000    0.000    0.000    0.000 
#
# Total GULP energy -156689.660654 kJ/mol
# GULP energy per Si atom -5596.059309 kJ/mol
# Density = 2.321816 g / cm^3
# Si number density = 23.271127 Si / 1000 Ang^3
#
#
#
# Elastic Constant Matrix: (Units=GPa)
#
#
# Indices 1 2 3 4 5 6 
#
# 1 90.1195 23.1451 30.9006 0.0000 -0.2797 0.0000
# 2 23.1451 61.5094 10.5292 0.0000 10.0861 0.0000
# 3 30.9006 10.5292 57.4460 0.0000 -0.2307 0.0000
# 4 0.0000 0.0000 0.0000 29.8236 0.0000 -3.8955
# 5 -0.2797 10.0861 -0.2307 0.0000 48.3889 0.0000
# 6 0.0000 0.0000 0.0000 -3.8955 0.0000 35.6358
#
#
#
# Elastic Compliance Matrix: (Units=1/GPa)
#
#
# Indices 1 2 3 4 5 6 
#
# 1 0.014672 -0.004472 -0.007068 0.000000 0.000983 0.000000
# 2 -0.004472 0.018767 -0.001050 0.000000 -0.003943 0.000000
# 3 -0.007068 -0.001050 0.021403 0.000000 0.000280 0.000000
# 4 0.000000 0.000000 0.000000 0.034016 0.000000 0.003718
# 5 0.000983 -0.003943 0.000280 0.000000 0.021495 0.000000
# 6 0.000000 0.000000 0.000000 0.003718 0.000000 0.028468
#
#
# Mechanical properties :
#
#
# Convention : Reuss Voigt Hill
#
# Bulk Modulus (GPa) = 33.71446 37.58053 35.64750
# Shear Modulus (GPa) = 28.75411 32.40300 30.57856
#
# Velocity S-wave (km/s) = 3.51894 3.73555 3.62886
# Velocity P-wave (km/s) = 5.57043 5.89829 5.73671
#
# Compressibility (1/GPa) = 0.02966086
#
# Stress axis : x y z
#
# Youngs Moduli (GPa) = 68.15906 53.28604 46.72169
#
# Poissons Ratio (x) = 0.23829 0.33024
# Poissons Ratio (y) = 0.30480 0.04906
# Poissons Ratio (z) = 0.48177 0.05595
#
# Static dielectric constant tensor:
#      x y z
#    x 1.889670 0.000000 -0.024350 
#    y 0.000000 1.850840 0.000000 
#    z -0.024350 0.000000 1.870070 
# 
# From -- ./inp_files/97063.got.cif
#   From: 2010.05.17/outbox.cif.g08.bks.cpg/sg15_49_cif.got.tgz:97063.got - 2010.06.03 18:47:42.
