data_PCOD9303901
_publ_section_title
;
Structure prediction by ZEFSAII (Michael W. Deem and Ramdas Pophale) SiO2 
 PCOD9303901
Probable space group: C 2/C
;
_chemical_formula_sum "Si O2"
_cell_formula_units_Z 16
_cell_length_a 10.162506
_cell_length_b 8.792583
_cell_length_c 10.876475
_cell_angle_alpha 90.000000
_cell_angle_beta 39.527321
_cell_angle_gamma 90.000000
_cell_volume 618.538990
_symmetry_space_group_name_H-M "C 2/C"
_symmetry_group_IT_number 15
_symmetry_cell_setting 'monoclinic'
loop_
_space_group_symop_operation_xyz
x,y,z
-x,y,1/2-z
-x,-y,-z
x,-y,1/2+z
1/2+x,1/2+y,z
1/2-x,1/2+y,1/2-z
1/2-x,1/2-y,-z
1/2+x,1/2-y,1/2+z
loop_
_atom_site_type_symbol
_atom_site_label
_atom_site_fract_x
_atom_site_fract_y
_atom_site_fract_z
Si Si1 0.854186 0.369822 0.016706
Si Si2 0.678179 0.405059 0.803963
O O1 0.714393 0.515964 0.145919
O O2 0.872008 0.270184 0.131031
O O3 0.750000 0.250000 0.000000
O O4 0.085629 0.416008 0.815888
O O5 0.500000 0.500000 0.000000
#
# Coordination Sequence:
#
# PCOD9303901 Si02
#       2
#     8   8
#     4  11  24  44  71 100 142 189 232 293 358 419
#     4  11  23  40  71 103 137 184 241 286 351 432
#
# _framework density 25.867408000000001
#
# number of rings (size 3 to 8) (size 9 to 14) (size 15 to 20)
#    0.000    1.000    5.000    1.500    0.000    0.000 
#    0.000    2.500   22.000    0.000    0.000    0.000 
#    0.000    0.000    0.000    0.000    0.000    0.000 
#
# Total GULP energy -44627.958429 kJ/mol
# GULP energy per Si atom -5578.494804 kJ/mol
# Density = 2.580853 g / cm^3
# Si number density = 25.867408 Si / 1000 Ang^3
#
#
#
# Elastic Constant Matrix: (Units=GPa)
#
#
# Indices 1 2 3 4 5 6 
#
# 1 108.1929 47.0252 48.8590 -0.0003 -34.1822 0.0002
# 2 47.0252 140.7315 45.2694 -0.0001 -5.9094 0.0000
# 3 48.8590 45.2694 191.6572 -0.0003 -54.4238 0.0003
# 4 -0.0003 -0.0001 -0.0003 64.6990 0.0003 9.5614
# 5 -34.1822 -5.9094 -54.4238 0.0003 50.7531 -0.0002
# 6 0.0002 0.0000 0.0003 9.5614 -0.0002 60.8966
#
#
#
# Elastic Compliance Matrix: (Units=1/GPa)
#
#
# Indices 1 2 3 4 5 6 
#
# 1 0.013900 -0.004265 -0.000027 0.000000 0.008836 0.000000
# 2 -0.004265 0.009080 -0.002262 0.000000 -0.004240 0.000000
# 3 -0.000027 -0.002262 0.008165 0.000000 0.008474 0.000000
# 4 0.000000 0.000000 0.000000 0.015823 0.000000 -0.002484
# 5 0.008836 -0.004240 0.008474 0.000000 0.034248 0.000000
# 6 0.000000 0.000000 0.000000 -0.002484 0.000000 0.016811
#
#
# Mechanical properties :
#
#
# Convention : Reuss Voigt Hill
#
# Bulk Modulus (GPa) = 55.43709 80.32097 67.87903
# Shear Modulus (GPa) = 42.68080 55.23159 48.95619
#
# Velocity S-wave (km/s) = 4.06641 4.62581 4.35510
# Velocity P-wave (km/s) = 6.59737 7.72330 7.18243
#
# Compressibility (1/GPa) = 0.01803847
#
# Stress axis : x y z
#
# Youngs Moduli (GPa) = 71.93994 110.12793 122.47301
#
# Poissons Ratio (x) = 0.46971 0.00331
# Poissons Ratio (y) = 0.30683 0.27699
# Poissons Ratio (z) = 0.00194 0.24907
#
# Static dielectric constant tensor:
#      x y z
#    x 2.191580 0.000000 0.144920 
#    y 0.000000 2.034470 0.000000 
#    z 0.144920 0.000000 2.109330 
# 
# From -- ./inp_files/20485.got.cif
#   From: 2010.05.17/outbox.cif.g08.bks.cpg/sg15_11_cif.got.tgz:20485.got - 2010.06.03 18:47:42.
