data_PCOD9303360
_publ_section_title
;
Structure prediction by ZEFSAII (Michael W. Deem and Ramdas Pophale) SiO2 
 PCOD9303360
Probable space group: C 2/C
;
_chemical_formula_sum "Si O2"
_cell_formula_units_Z 52
_cell_length_a 18.541632
_cell_length_b 16.246439
_cell_length_c 9.320485
_cell_angle_alpha 90.000000
_cell_angle_beta 61.016194
_cell_angle_gamma 90.000000
_cell_volume 2456.020175
_symmetry_space_group_name_H-M "C 2/C"
_symmetry_group_IT_number 15
_symmetry_cell_setting 'monoclinic'
loop_
_space_group_symop_operation_xyz
x,y,z
-x,y,1/2-z
-x,-y,-z
x,-y,1/2+z
1/2+x,1/2+y,z
1/2-x,1/2+y,1/2-z
1/2-x,1/2-y,-z
1/2+x,1/2-y,1/2+z
loop_
_atom_site_type_symbol
_atom_site_label
_atom_site_fract_x
_atom_site_fract_y
_atom_site_fract_z
Si Si1 0.645987 0.441508 0.610495
Si Si2 0.696714 0.967061 0.495328
Si Si3 0.083952 0.520275 0.832516
Si Si4 0.579995 0.409625 0.988225
Si Si5 0.682979 0.314655 0.106822
Si Si6 0.000000 0.666466 0.750000
Si Si7 0.572702 0.307543 0.481010
O O1 0.743522 0.459730 0.507313
O O2 0.623880 0.436280 0.799062
O O3 0.591946 0.513244 0.584625
O O4 0.620689 0.357627 0.557555
O O5 0.653832 0.977194 0.385135
O O6 0.764065 0.896077 0.414087
O O7 0.621590 0.956614 0.680026
O O8 0.065319 0.603938 0.761150
O O9 0.000000 0.500000 0.000000
O O10 0.624371 0.335992 0.030092
O O11 0.492572 0.372698 0.024462
O O12 0.632156 0.286436 0.293067
O O13 0.750000 0.250000 0.000000
O O14 0.033648 0.727631 0.593994
#
# Coordination Sequence:
#
# PCOD9303360 Si02
#       7
#     8   8   8   8   8   4   8
#     4  11  22  43  74 105 147 186 237 301 368 445
#     4  11  24  45  71 104 138 187 243 301 369 430
#     4  12  25  49  74 101 135 192 255 303 353 440
#     4  11  23  44  70 108 143 197 240 292 361 448
#     4  11  27  44  67 104 148 191 237 309 373 432
#     4  12  28  46  76 106 146 192 250 304 370 428
#     4  12  25  47  68 109 147 190 241 297 374 443
#
# _framework density 21.172466
#
# number of rings (size 3 to 8) (size 9 to 14) (size 15 to 20)
#    0.000    0.615    3.077    5.538    4.308    3.692 
#    0.000    2.308    0.000    0.000    0.000    0.000 
#    0.000    0.000    0.000    0.000    0.000    0.000 
#
# Total GULP energy -145266.906532 kJ/mol
# GULP energy per Si atom -5587.188713 kJ/mol
# Density = 2.112428 g / cm^3
# Si number density = 21.172466 Si / 1000 Ang^3
#
#
#
# Elastic Constant Matrix: (Units=GPa)
#
#
# Indices 1 2 3 4 5 6 
#
# 1 105.8440 26.8955 24.1553 0.0000 14.5650 0.0000
# 2 26.8955 39.7826 19.0478 0.0000 1.4588 0.0000
# 3 24.1553 19.0478 175.7747 0.0000 0.4468 0.0000
# 4 0.0000 0.0000 0.0000 30.2525 0.0000 -5.4939
# 5 14.5650 1.4588 0.4468 0.0000 43.2025 0.0000
# 6 0.0000 0.0000 0.0000 -5.4939 0.0000 25.0194
#
#
#
# Elastic Compliance Matrix: (Units=1/GPa)
#
#
# Indices 1 2 3 4 5 6 
#
# 1 0.012105 -0.007649 -0.000825 0.000000 -0.003814 0.000000
# 2 -0.007649 0.031378 -0.002353 0.000000 0.001543 0.000000
# 3 -0.000825 -0.002353 0.006057 0.000000 0.000295 0.000000
# 4 0.000000 0.000000 0.000000 0.034428 0.000000 0.007560
# 5 -0.003814 0.001543 0.000295 0.000000 0.024378 0.000000
# 6 0.000000 0.000000 0.000000 0.007560 0.000000 0.041629
#
#
# Mechanical properties :
#
#
# Convention : Reuss Voigt Hill
#
# Bulk Modulus (GPa) = 35.86066 51.28873 43.57469
# Shear Modulus (GPa) = 27.63624 36.44837 32.04231
#
# Velocity S-wave (km/s) = 3.61680 4.15360 3.89446
# Velocity P-wave (km/s) = 5.86650 6.87604 6.39124
#
# Compressibility (1/GPa) = 0.02788571
#
# Stress axis : x y z
#
# Youngs Moduli (GPa) = 82.61381 31.86984 165.10649
#
# Poissons Ratio (x) = 0.24376 0.13619
# Poissons Ratio (y) = 0.63188 0.38851
# Poissons Ratio (z) = 0.06815 0.07499
#
# Static dielectric constant tensor:
#      x y z
#    x 1.779400 0.000000 0.004440 
#    y 0.000000 1.596550 0.000000 
#    z 0.004440 0.000000 1.782090 
# 
# From -- ./inp_files/48930.got.cif
#   From: 2010.05.17/outbox.cif.g08.bks.cpg/sg15_25_cif.got.tgz:48930.got - 2010.06.03 18:47:42.
