data_PCOD9303598
_publ_section_title
;
Structure prediction by ZEFSAII (Michael W. Deem and Ramdas Pophale) SiO2 
 PCOD9303598
Probable space group: C 2/C
;
_chemical_formula_sum "Si O2"
_cell_formula_units_Z 52
_cell_length_a 17.207494
_cell_length_b 9.129547
_cell_length_c 18.892552
_cell_angle_alpha 90.000000
_cell_angle_beta 128.676195
_cell_angle_gamma 90.000000
_cell_volume 2317.054031
_symmetry_space_group_name_H-M "C 2/C"
_symmetry_group_IT_number 15
_symmetry_cell_setting 'monoclinic'
loop_
_space_group_symop_operation_xyz
x,y,z
-x,y,1/2-z
-x,-y,-z
x,-y,1/2+z
1/2+x,1/2+y,z
1/2-x,1/2+y,1/2-z
1/2-x,1/2-y,-z
1/2+x,1/2-y,1/2+z
loop_
_atom_site_type_symbol
_atom_site_label
_atom_site_fract_x
_atom_site_fract_y
_atom_site_fract_z
Si Si1 0.438395 0.023167 0.126306
Si Si2 0.844295 0.240179 0.677266
Si Si3 0.861140 0.370891 0.819908
Si Si4 0.848515 0.395863 0.430195
Si Si5 0.000000 0.007446 0.750000
Si Si6 0.631756 0.716716 0.417159
Si Si7 0.024415 0.829268 0.005272
O O1 0.388809 0.149316 0.145053
O O2 0.553766 0.058072 0.181761
O O3 0.409582 0.866849 0.139857
O O4 0.403924 0.020827 0.024983
O O5 0.793587 0.306855 0.719506
O O6 0.751607 0.158733 0.590383
O O7 0.927869 0.123059 0.749396
O O8 0.824308 0.493366 0.852821
O O9 0.908431 0.242115 0.894337
O O10 0.924293 0.269099 0.449473
O O11 0.919752 0.910676 0.660376
O O12 0.750000 0.750000 0.500000
O O13 0.582632 0.689726 0.465381
O O14 0.000000 0.000000 0.000000
#
# Coordination Sequence:
#
# PCOD9303598 Si02
#       7
#     8   8   8   8   4   8   8
#     4  11  22  47  70  97 138 196 238 290 375 450
#     4  12  26  44  73 104 143 191 252 307 373 443
#     4  11  22  46  68  94 139 184 232 297 361 437
#     4  11  24  45  72 100 141 192 245 306 371 452
#     4  12  28  44  70 110 150 180 258 328 356 450
#     4  12  27  46  73 106 147 195 245 309 381 452
#     4  11  24  43  68 100 141 183 238 301 374 437
#
# _framework density 22.442291000000001
#
# number of rings (size 3 to 8) (size 9 to 14) (size 15 to 20)
#    0.000    0.615    4.615    3.231    6.462    2.462 
#    0.000    0.000    0.000    0.000    0.000    0.000 
#    0.000    0.000    0.000    0.000    0.000    0.000 
#
# Total GULP energy -145076.581928 kJ/mol
# GULP energy per Si atom -5579.868536 kJ/mol
# Density = 2.239121 g / cm^3
# Si number density = 22.442291 Si / 1000 Ang^3
#
#
#
# Elastic Constant Matrix: (Units=GPa)
#
#
# Indices 1 2 3 4 5 6 
#
# 1 90.7772 42.6673 27.2449 0.0000 -12.6576 0.0000
# 2 42.6673 143.7764 16.1610 0.0000 -10.9717 0.0000
# 3 27.2449 16.1610 58.3399 0.0000 -6.3546 0.0000
# 4 0.0000 0.0000 0.0000 14.0478 0.0000 -14.8945
# 5 -12.6576 -10.9717 -6.3546 0.0000 14.6042 0.0000
# 6 0.0000 0.0000 0.0000 -14.8945 0.0000 29.6975
#
#
#
# Elastic Compliance Matrix: (Units=1/GPa)
#
#
# Indices 1 2 3 4 5 6 
#
# 1 0.015357 -0.003309 -0.005328 0.000000 0.008505 0.000000
# 2 -0.003309 0.008221 -0.000390 0.000000 0.003138 0.000000
# 3 -0.005328 -0.000390 0.020158 0.000000 0.003860 0.000000
# 4 0.000000 0.000000 0.000000 0.152032 0.000000 0.076250
# 5 0.008505 0.003138 0.003860 0.000000 0.079882 0.000000
# 6 0.000000 0.000000 0.000000 0.076250 0.000000 0.071916
#
#
# Mechanical properties :
#
#
# Convention : Reuss Voigt Hill
#
# Bulk Modulus (GPa) = 38.94146 51.67110 45.30628
# Shear Modulus (GPa) = 13.36257 25.45792 19.41024
#
# Velocity S-wave (km/s) = 2.44277 3.37170 2.94410
# Velocity P-wave (km/s) = 5.03445 6.18318 5.63815
#
# Compressibility (1/GPa) = 0.02567957
#
# Stress axis : x y z
#
# Youngs Moduli (GPa) = 65.11883 121.64551 49.60859
#
# Poissons Ratio (x) = 0.40256 0.26434
# Poissons Ratio (y) = 0.21550 0.01935
# Poissons Ratio (z) = 0.34698 0.04744
#
# Static dielectric constant tensor:
#      x y z
#    x 1.815700 0.000000 0.070950 
#    y 0.000000 1.943210 0.000000 
#    z 0.070950 0.000000 1.980240 
# 
# From -- ./inp_files/209713.got.cif
#   From: 2010.05.17/outbox.cif.g08.bks.cpg/sg15_105_cif.got.tgz:209713.got - 2010.06.03 18:47:42.
