data_PCOD9303951
_publ_section_title
;
Structure prediction by ZEFSAII (Michael W. Deem and Ramdas Pophale) SiO2 
 PCOD9303951
Probable space group: C 2/C
;
_chemical_formula_sum "Si O2"
_cell_formula_units_Z 56
_cell_length_a 12.431535
_cell_length_b 18.077207
_cell_length_c 18.752742
_cell_angle_alpha 90.000000
_cell_angle_beta 43.491045
_cell_angle_gamma 90.000000
_cell_volume 2900.424273
_symmetry_space_group_name_H-M "C 2/C"
_symmetry_group_IT_number 15
_symmetry_cell_setting 'monoclinic'
loop_
_space_group_symop_operation_xyz
x,y,z
-x,y,1/2-z
-x,-y,-z
x,-y,1/2+z
1/2+x,1/2+y,z
1/2-x,1/2+y,1/2-z
1/2-x,1/2-y,-z
1/2+x,1/2-y,1/2+z
loop_
_atom_site_type_symbol
_atom_site_label
_atom_site_fract_x
_atom_site_fract_y
_atom_site_fract_z
Si Si1 0.374833 0.357578 0.244881
Si Si2 0.963451 0.564042 0.572983
Si Si3 0.237829 0.306995 0.747690
Si Si4 0.411242 0.041406 0.219932
Si Si5 0.386344 0.553762 0.597023
Si Si6 0.768799 0.680951 0.083586
Si Si7 0.415849 0.333218 0.961801
O O1 0.500000 0.360019 0.250000
O O2 0.211382 0.400353 0.342872
O O3 0.332138 0.272118 0.244406
O O4 0.436790 0.399721 0.143341
O O5 0.995200 0.520357 0.631278
O O6 0.000000 0.500000 0.500000
O O7 0.086470 0.626265 0.494886
O O8 0.122115 0.377356 0.795828
O O9 0.278641 0.305275 0.812093
O O10 0.396429 0.325198 0.627784
O O11 0.500000 0.052742 0.250000
O O12 0.248668 0.000565 0.312486
O O13 0.500000 0.500000 0.500000
O O14 0.346976 0.611508 0.553632
O O15 0.635646 0.650722 0.094575
O O16 0.837001 0.756817 0.021014
#
# Coordination Sequence:
#
# PCOD9303951 Si02
#       7
#     8   8   8   8   8   8   8
#     4  11  26  44  67  94 130 172 211 261 323 383
#     4  11  23  45  63  91 131 162 213 265 308 383
#     4  12  22  44  64  96 134 160 218 266 308 390
#     4  11  24  40  65  94 126 166 207 261 323 373
#     4  11  23  45  63  91 131 162 213 265 308 383
#     4  11  23  41  66  92 125 170 211 260 319 372
#     4  11  23  41  66  92 125 170 211 260 319 372
#
# _framework density 19.307518999999999
#
# number of rings (size 3 to 8) (size 9 to 14) (size 15 to 20)
#    0.000    0.857    5.714    1.714    0.000    2.286 
#    0.000    1.429    0.000    0.000    0.000    0.000 
#    0.000    0.000    0.000    0.000    0.000    0.000 
#
# Total GULP energy -156035.582865 kJ/mol
# GULP energy per Si atom -5572.699388 kJ/mol
# Density = 1.926357 g / cm^3
# Si number density = 19.307519 Si / 1000 Ang^3
#
#
#
# Elastic Constant Matrix: (Units=GPa)
#
#
# Indices 1 2 3 4 5 6 
#
# 1 102.4313 42.8327 10.8848 0.0004 25.4331 -0.0001
# 2 42.8327 136.0133 25.7691 0.0005 10.1339 -0.0002
# 3 10.8848 25.7691 66.0923 0.0014 15.0845 -0.0007
# 4 0.0004 0.0005 0.0014 21.1127 -0.0006 16.6163
# 5 25.4331 10.1339 15.0845 -0.0006 30.1785 0.0002
# 6 -0.0001 -0.0002 -0.0007 16.6163 0.0002 13.7724
#
#
#
# Elastic Compliance Matrix: (Units=1/GPa)
#
#
# Indices 1 2 3 4 5 6 
#
# 1 0.014045 -0.003917 0.001823 -0.000018 -0.011433 0.000022
# 2 -0.003917 0.009074 -0.003331 0.000004 0.001919 -0.000005
# 3 0.001823 -0.003331 0.018313 -0.000045 -0.009572 0.000056
# 4 -0.000018 0.000004 -0.000045 0.938699 0.000065 -1.132532
# 5 -0.011433 0.001919 -0.009572 0.000065 0.046912 -0.000080
# 6 0.000022 -0.000005 0.000056 -1.132532 -0.000080 1.438997
#
#
# Mechanical properties :
#
#
# Convention : Reuss Voigt Hill
#
# Bulk Modulus (GPa) = 32.69642 51.50114 42.09878
# Shear Modulus (GPa) = 2.01039 28.01608 15.01323
#
# Velocity S-wave (km/s) = 1.02152 3.81339 2.79155
# Velocity P-wave (km/s) = 4.28517 6.79127 5.67820
#
# Compressibility (1/GPa) = 0.03058439
#
# Stress axis : x y z
#
# Youngs Moduli (GPa) = 71.19736 110.20819 54.60509
#
# Poissons Ratio (x) = 0.43166 -0.09956
# Poissons Ratio (y) = 0.27886 0.18187
# Poissons Ratio (z) = -0.12982 0.36707
#
# Static dielectric constant tensor:
#      x y z
#    x 1.705080 0.000000 0.037650 
#    y 0.000000 1.581970 0.000000 
#    z 0.037650 0.000000 1.705170 
# 
# From -- ./inp_files/199428.got.cif
#   From: 2010.05.17/outbox.cif.g08.bks.cpg/sg15_100_cif.got.tgz:199428.got - 2010.06.03 18:47:42.
