data_PCOD9303440
_publ_section_title
;
Structure prediction by ZEFSAII (Michael W. Deem and Ramdas Pophale) SiO2 
 PCOD9303440
Probable space group: C 2/C
;
_chemical_formula_sum "Si O2"
_cell_formula_units_Z 48
_cell_length_a 16.541407
_cell_length_b 9.237646
_cell_length_c 16.010960
_cell_angle_alpha 90.000000
_cell_angle_beta 84.507469
_cell_angle_gamma 90.000000
_cell_volume 2435.300516
_symmetry_space_group_name_H-M "C 2/C"
_symmetry_group_IT_number 15
_symmetry_cell_setting 'monoclinic'
loop_
_space_group_symop_operation_xyz
x,y,z
-x,y,1/2-z
-x,-y,-z
x,-y,1/2+z
1/2+x,1/2+y,z
1/2-x,1/2+y,1/2-z
1/2-x,1/2-y,-z
1/2+x,1/2-y,1/2+z
loop_
_atom_site_type_symbol
_atom_site_label
_atom_site_fract_x
_atom_site_fract_y
_atom_site_fract_z
Si Si1 0.336877 0.290459 0.947835
Si Si2 0.354326 0.632597 0.948493
Si Si3 0.682677 0.184802 0.893832
Si Si4 0.966513 0.671179 0.332538
Si Si5 0.077909 0.428140 0.951447
Si Si6 0.903788 0.366135 0.276373
O O1 0.352499 0.460728 0.942566
O O2 0.357711 0.220659 0.855259
O O3 0.250000 0.250000 0.000000
O O4 0.400554 0.215733 0.003135
O O5 0.278822 0.685151 0.898037
O O6 0.428349 0.721473 0.902451
O O7 0.346743 0.681915 0.045866
O O8 0.646145 0.168083 0.804385
O O9 0.650764 0.041216 0.944975
O O10 0.910991 0.533078 0.310925
O O11 0.000000 0.756279 0.250000
O O12 0.048110 0.601899 0.362078
O O13 0.000000 0.500000 0.000000
O O14 0.000000 0.326326 0.250000
#
# Coordination Sequence:
#
# PCOD9303440 Si02
#       6
#     8   8   8   8   8   8
#     4  12  26  44  67 104 143 181 228 286 350 410
#     4  11  26  42  65 105 141 177 225 286 348 402
#     4  11  22  44  70  96 137 183 224 282 347 410
#     4  11  23  42  72 100 128 181 237 276 335 414
#     4  12  20  43  72  92 134 184 230 271 344 424
#     4  11  23  44  72  98 132 185 240 279 341 421
#
# _framework density 19.710093000000001
#
# number of rings (size 3 to 8) (size 9 to 14) (size 15 to 20)
#    0.000    0.667    8.333    0.000    2.333    4.000 
#    3.000    0.000    0.000    0.000    0.000    0.000 
#    0.000    0.000    0.000    0.000    0.000    0.000 
#
# Total GULP energy -133697.500629 kJ/mol
# GULP energy per Si atom -5570.729193 kJ/mol
# Density = 1.966523 g / cm^3
# Si number density = 19.710093 Si / 1000 Ang^3
#
#
#
# Elastic Constant Matrix: (Units=GPa)
#
#
# Indices 1 2 3 4 5 6 
#
# 1 68.4062 24.2967 24.9183 0.0000 -0.1046 0.0000
# 2 24.2967 132.2629 58.9125 0.0000 -12.4189 0.0000
# 3 24.9183 58.9125 122.5451 0.0000 8.9355 0.0000
# 4 0.0000 0.0000 0.0000 25.7758 0.0000 7.0668
# 5 -0.1046 -12.4189 8.9355 0.0000 37.2143 0.0000
# 6 0.0000 0.0000 0.0000 7.0668 0.0000 23.5450
#
#
#
# Elastic Compliance Matrix: (Units=1/GPa)
#
#
# Indices 1 2 3 4 5 6 
#
# 1 0.016160 -0.001920 -0.002361 0.000000 -0.000028 0.000000
# 2 -0.001920 0.010612 -0.005058 0.000000 0.004750 0.000000
# 3 -0.002361 -0.005058 0.011395 0.000000 -0.004431 0.000000
# 4 0.000000 0.000000 0.000000 0.042275 0.000000 -0.012688
# 5 -0.000028 0.004750 -0.004431 0.000000 0.029520 0.000000
# 6 0.000000 0.000000 0.000000 -0.012688 0.000000 0.046280
#
#
# Mechanical properties :
#
#
# Convention : Reuss Voigt Hill
#
# Bulk Modulus (GPa) = 51.30721 59.94104 55.62413
# Shear Modulus (GPa) = 27.56083 31.64613 29.60348
#
# Velocity S-wave (km/s) = 3.74346 4.01132 3.87970
# Velocity P-wave (km/s) = 6.69119 7.20636 6.95355
#
# Compressibility (1/GPa) = 0.01949044
#
# Stress axis : x y z
#
# Youngs Moduli (GPa) = 61.87959 94.23096 87.75838
#
# Poissons Ratio (x) = 0.18089 0.20721
# Poissons Ratio (y) = 0.11879 0.44386
# Poissons Ratio (z) = 0.14611 0.47660
#
# Static dielectric constant tensor:
#      x y z
#    x 1.696210 0.000000 -0.011230 
#    y 0.000000 1.671450 0.000000 
#    z -0.011230 0.000000 1.757390 
# 
# From -- ./inp_files/159714.got.cif
#   From: 2010.05.17/outbox.cif.g08.bks.cpg/sg15_80_cif.got.tgz:159714.got - 2010.06.03 18:47:42.
