data_PCOD9303971
_publ_section_title
;
Structure prediction by ZEFSAII (Michael W. Deem and Ramdas Pophale) SiO2 
 PCOD9303971
Probable space group: C 2/C
;
_chemical_formula_sum "Si O2"
_cell_formula_units_Z 44
_cell_length_a 8.486996
_cell_length_b 30.763865
_cell_length_c 8.235360
_cell_angle_alpha 90.000000
_cell_angle_beta 110.191776
_cell_angle_gamma 90.000000
_cell_volume 2018.047859
_symmetry_space_group_name_H-M "C 2/C"
_symmetry_group_IT_number 15
_symmetry_cell_setting 'monoclinic'
loop_
_space_group_symop_operation_xyz
x,y,z
-x,y,1/2-z
-x,-y,-z
x,-y,1/2+z
1/2+x,1/2+y,z
1/2-x,1/2+y,1/2-z
1/2-x,1/2-y,-z
1/2+x,1/2-y,1/2+z
loop_
_atom_site_type_symbol
_atom_site_label
_atom_site_fract_x
_atom_site_fract_y
_atom_site_fract_z
Si Si1 0.500000 0.651382 0.250000
Si Si2 0.390072 0.628801 0.550295
Si Si3 0.000000 0.362565 0.250000
Si Si4 0.793539 0.722051 0.356805
Si Si5 0.500000 0.998035 0.750000
Si Si6 0.671306 0.797931 0.092582
Si Si7 0.388473 0.065173 0.928707
O O1 0.484099 0.625139 0.412737
O O2 0.664463 0.682013 0.315843
O O3 0.500000 0.632933 0.750000
O O4 0.283751 0.673502 0.513428
O O5 0.268038 0.588954 0.546642
O O6 0.856650 0.329700 0.259650
O O7 0.008905 0.395967 0.404897
O O8 0.750000 0.750000 0.500000
O O9 0.754408 0.754273 0.191607
O O10 0.987910 0.709190 0.449161
O O11 0.462700 0.965721 0.591009
O O12 0.360011 0.032303 0.766526
#
# Coordination Sequence:
#
# PCOD9303971 Si02
#       7
#     4   8   4   8   4   8   8
#     4  12  27  44  69  96 140 180 244 292 347 404
#     4  11  27  48  67 101 137 185 229 293 344 411
#     4   9  17  34  64  94 130 176 214 280 326 402
#     4  12  21  41  64 100 131 188 236 300 346 403
#     4   9  18  42  71 106 136 162 220 266 333 446
#     4  11  23  41  67  92 140 184 241 288 355 400
#     4   9  20  39  69 103 131 174 212 270 341 410
#
# _framework density 21.803250999999999
#
# number of rings (size 3 to 8) (size 9 to 14) (size 15 to 20)
#    0.000    1.455    3.636    1.091    2.545    4.364 
#    9.818    0.909    0.000    0.000    0.000    0.000 
#    0.000    0.000    0.000    0.000    0.000    0.000 
#
# Total GULP energy -122757.218412 kJ/mol
# GULP energy per Si atom -5579.873564 kJ/mol
# Density = 2.175363 g / cm^3
# Si number density = 21.803251 Si / 1000 Ang^3
#
#
#
# Elastic Constant Matrix: (Units=GPa)
#
#
# Indices 1 2 3 4 5 6 
#
# 1 82.0396 51.0935 67.7299 0.0000 -21.3743 0.0000
# 2 51.0935 134.6538 49.4048 0.0000 -6.1551 0.0000
# 3 67.7299 49.4048 108.9018 0.0000 -16.3662 0.0000
# 4 0.0000 0.0000 0.0000 31.6123 0.0000 -5.5808
# 5 -21.3743 -6.1551 -16.3662 0.0000 48.4890 0.0000
# 6 0.0000 0.0000 0.0000 -5.5808 0.0000 20.3662
#
#
#
# Elastic Compliance Matrix: (Units=1/GPa)
#
#
# Indices 1 2 3 4 5 6 
#
# 1 0.029955 -0.005520 -0.015008 0.000000 0.007438 0.000000
# 2 -0.005520 0.009929 -0.001315 0.000000 -0.001616 0.000000
# 3 -0.015008 -0.001315 0.019061 0.000000 -0.000349 0.000000
# 4 0.000000 0.000000 0.000000 0.033241 0.000000 0.009109
# 5 0.007438 -0.001616 -0.000349 0.000000 0.023579 0.000000
# 6 0.000000 0.000000 0.000000 0.009109 0.000000 0.051597
#
#
# Mechanical properties :
#
#
# Convention : Reuss Voigt Hill
#
# Bulk Modulus (GPa) = 65.53065 73.56128 69.54596
# Shear Modulus (GPa) = 23.13371 30.58464 26.85918
#
# Velocity S-wave (km/s) = 3.26087 3.74940 3.51363
# Velocity P-wave (km/s) = 6.65570 7.24955 6.95896
#
# Compressibility (1/GPa) = 0.01526004
#
# Stress axis : x y z
#
# Youngs Moduli (GPa) = 33.38301 100.71195 52.46390
#
# Poissons Ratio (x) = 0.55590 0.78740
# Poissons Ratio (y) = 0.18427 0.06897
# Poissons Ratio (z) = 0.50102 0.13239
#
# Static dielectric constant tensor:
#      x y z
#    x 1.979350 0.000000 0.012660 
#    y 0.000000 1.972480 0.000000 
#    z 0.012660 0.000000 1.918430 
# 
# From -- ./inp_files/25757.got.cif
#   From: 2010.05.17/outbox.cif.g08.bks.cpg/sg15_13_cif.got.tgz:25757.got - 2010.06.03 18:47:42.
