data_PCOD9303368
_publ_section_title
;
Structure prediction by ZEFSAII (Michael W. Deem and Ramdas Pophale) SiO2 
 PCOD9303368
Probable space group: C 2/C
;
_chemical_formula_sum "Si O2"
_cell_formula_units_Z 60
_cell_length_a 18.053238
_cell_length_b 14.966750
_cell_length_c 10.782161
_cell_angle_alpha 90.000000
_cell_angle_beta 105.453462
_cell_angle_gamma 90.000000
_cell_volume 2807.996831
_symmetry_space_group_name_H-M "C 2/C"
_symmetry_group_IT_number 15
_symmetry_cell_setting 'monoclinic'
loop_
_space_group_symop_operation_xyz
x,y,z
-x,y,1/2-z
-x,-y,-z
x,-y,1/2+z
1/2+x,1/2+y,z
1/2-x,1/2+y,1/2-z
1/2-x,1/2-y,-z
1/2+x,1/2-y,1/2+z
loop_
_atom_site_type_symbol
_atom_site_label
_atom_site_fract_x
_atom_site_fract_y
_atom_site_fract_z
Si Si1 0.954841 0.099275 0.099886
Si Si2 0.687374 0.718243 0.377920
Si Si3 0.077965 0.207791 0.994628
Si Si4 0.826449 0.038125 0.477697
Si Si5 0.500000 0.192755 0.250000
Si Si6 0.423712 0.156661 0.787505
Si Si7 0.745520 0.959416 0.684181
Si Si8 0.067133 0.466911 0.623147
O O1 0.887115 0.169194 0.099811
O O2 0.000000 0.078003 0.250000
O O3 0.907342 0.016648 0.020927
O O4 0.012761 0.147395 0.031926
O O5 0.750000 0.750000 0.500000
O O6 0.653949 0.806670 0.303458
O O7 0.725250 0.642657 0.310567
O O8 0.151097 0.142579 0.021570
O O9 0.056157 0.242967 0.850331
O O10 0.079487 0.297317 0.079230
O O11 0.775760 0.010649 0.334280
O O12 0.785047 0.013499 0.588819
O O13 0.456723 0.125471 0.324157
O O14 0.500000 0.189483 0.750000
O O15 0.425965 0.050758 0.781891
O O16 0.654599 0.959465 0.616318
O O17 0.000000 0.500000 0.500000
#
# Coordination Sequence:
#
# PCOD9303368 Si02
#       8
#     8   8   8   8   4   8   8   8
#     4  11  22  43  75 106 146 196 241 286 359 448
#     4  11  24  41  71 107 138 187 246 294 351 430
#     4  12  23  45  69 109 149 179 242 300 361 428
#     4  11  26  47  73 113 151 191 231 305 380 437
#     4  12  30  42  72 110 138 190 248 298 358 418
#     4  12  23  45  76  98 138 190 244 294 350 431
#     4  11  28  49  73 106 154 187 243 300 375 436
#     4  12  29  50  71  99 143 194 248 297 358 434
#
# _framework density 21.367545
#
# number of rings (size 3 to 8) (size 9 to 14) (size 15 to 20)
#    0.000    0.533    6.000    1.200   12.133    0.000 
#    2.400    1.333    0.000    0.000    0.000    0.000 
#    0.000    0.000    0.000    0.000    0.000    0.000 
#
# Total GULP energy -167465.995420 kJ/mol
# GULP energy per Si atom -5582.199847 kJ/mol
# Density = 2.131891 g / cm^3
# Si number density = 21.367545 Si / 1000 Ang^3
#
#
#
# Elastic Constant Matrix: (Units=GPa)
#
#
# Indices 1 2 3 4 5 6 
#
# 1 108.2972 25.7047 42.3853 0.0000 16.2487 0.0000
# 2 25.7047 76.8720 30.3381 0.0000 4.5285 0.0000
# 3 42.3853 30.3381 147.7869 0.0000 22.2961 0.0000
# 4 0.0000 0.0000 0.0000 154.8873 0.0000 43.3248
# 5 16.2487 4.5285 22.2961 0.0000 28.6779 0.0000
# 6 0.0000 0.0000 0.0000 43.3248 0.0000 15.8618
#
#
#
# Elastic Compliance Matrix: (Units=1/GPa)
#
#
# Indices 1 2 3 4 5 6 
#
# 1 0.011337 -0.002732 -0.002024 0.000000 -0.004419 0.000000
# 2 -0.002732 0.014814 -0.002422 0.000000 0.001092 0.000000
# 3 -0.002024 -0.002422 0.008625 0.000000 -0.005176 0.000000
# 4 0.000000 0.000000 0.000000 0.027360 0.000000 -0.074730
# 5 -0.004419 0.001092 -0.005176 0.000000 0.041226 0.000000
# 6 0.000000 0.000000 0.000000 -0.074730 0.000000 0.267163
#
#
# Mechanical properties :
#
#
# Convention : Reuss Voigt Hill
#
# Bulk Modulus (GPa) = 48.97188 58.86802 53.91995
# Shear Modulus (GPa) = 12.76526 55.52059 34.14292
#
# Velocity S-wave (km/s) = 2.44686 5.10294 4.00169
# Velocity P-wave (km/s) = 5.56340 7.89494 6.82940
#
# Compressibility (1/GPa) = 0.02041988
#
# Stress axis : x y z
#
# Youngs Moduli (GPa) = 88.20330 67.50476 115.93904
#
# Poissons Ratio (x) = 0.18442 0.23468
# Poissons Ratio (y) = 0.24096 0.28083
# Poissons Ratio (z) = 0.17854 0.16351
#
# Static dielectric constant tensor:
#      x y z
#    x 1.771930 0.000000 -0.034620 
#    y 0.000000 1.814160 0.000000 
#    z -0.034620 0.000000 1.771750 
# 
# From -- ./inp_files/105769.got.cif
#   From: 2010.05.17/outbox.cif.g08.bks.cpg/sg15_53_cif.got.tgz:105769.got - 2010.06.03 18:47:42.
