data_PCOD9303358
_publ_section_title
;
Structure prediction by ZEFSAII (Michael W. Deem and Ramdas Pophale) SiO2 
 PCOD9303358
Probable space group: C 2/C
;
_chemical_formula_sum "Si O2"
_cell_formula_units_Z 40
_cell_length_a 19.676046
_cell_length_b 8.364614
_cell_length_c 12.379222
_cell_angle_alpha 90.000000
_cell_angle_beta 110.353518
_cell_angle_gamma 90.000000
_cell_volume 1910.197286
_symmetry_space_group_name_H-M "C 2/C"
_symmetry_group_IT_number 15
_symmetry_cell_setting 'monoclinic'
loop_
_space_group_symop_operation_xyz
x,y,z
-x,y,1/2-z
-x,-y,-z
x,-y,1/2+z
1/2+x,1/2+y,z
1/2-x,1/2+y,1/2-z
1/2-x,1/2-y,-z
1/2+x,1/2-y,1/2+z
loop_
_atom_site_type_symbol
_atom_site_label
_atom_site_fract_x
_atom_site_fract_y
_atom_site_fract_z
Si Si1 0.833192 0.290672 0.065388
Si Si2 0.429493 0.852278 0.771178
Si Si3 0.891720 0.315884 0.329355
Si Si4 0.033874 0.828716 0.994797
Si Si5 0.829438 0.323145 0.528566
O O1 0.855575 0.248971 0.201033
O O2 0.838051 0.482886 0.045247
O O3 0.750000 0.250000 0.000000
O O4 0.888693 0.193157 0.020246
O O5 0.500000 0.921991 0.750000
O O6 0.458131 0.744638 0.882445
O O7 0.380889 0.764870 0.654814
O O8 0.387113 0.994562 0.806291
O O9 0.855557 0.275563 0.423637
O O10 0.975295 0.266579 0.390348
O O11 0.000000 0.000000 0.000000
O O12 0.750000 0.250000 0.500000
#
# Coordination Sequence:
#
# PCOD9303358 Si02
#       5
#     8   8   8   8   8
#     4  11  27  45  68 104 143 181 231 292 353 415
#     4  11  22  43  73  97 129 180 236 285 343 424
#     4  11  23  46  71  96 138 181 233 287 350 422
#     4  12  26  44  70 102 141 186 235 292 346 419
#     4  11  25  42  72 104 136 182 228 287 357 420
#
# _framework density 20.940245999999998
#
# number of rings (size 3 to 8) (size 9 to 14) (size 15 to 20)
#    0.000    0.800    4.000    3.600    5.600    3.200 
#    0.000    0.000    0.000    0.000    0.000    0.000 
#    0.000    0.000    0.000    0.000    0.000    0.000 
#
# Total GULP energy -111719.667799 kJ/mol
# GULP energy per Si atom -5585.983390 kJ/mol
# Density = 2.089258 g / cm^3
# Si number density = 20.940246 Si / 1000 Ang^3
#
#
#
# Elastic Constant Matrix: (Units=GPa)
#
#
# Indices 1 2 3 4 5 6 
#
# 1 156.0125 18.3547 69.7393 0.0000 3.9924 0.0000
# 2 18.3547 54.3978 34.6067 0.0000 -6.5364 0.0000
# 3 69.7393 34.6067 183.5254 0.0000 8.0607 0.0000
# 4 0.0000 0.0000 0.0000 18.5454 0.0000 4.4290
# 5 3.9924 -6.5364 8.0607 0.0000 31.0967 0.0000
# 6 0.0000 0.0000 0.0000 4.4290 0.0000 32.8682
#
#
#
# Elastic Compliance Matrix: (Units=1/GPa)
#
#
# Indices 1 2 3 4 5 6 
#
# 1 0.007762 -0.000924 -0.002754 0.000000 -0.000477 0.000000
# 2 -0.000924 0.021963 -0.004044 0.000000 0.005783 0.000000
# 3 -0.002754 -0.004044 0.007364 0.000000 -0.002405 0.000000
# 4 0.000000 0.000000 0.000000 0.055715 0.000000 -0.007508
# 5 -0.000477 0.005783 -0.002405 0.000000 0.034058 0.000000
# 6 0.000000 0.000000 0.000000 -0.007508 0.000000 0.031436
#
#
# Mechanical properties :
#
#
# Convention : Reuss Voigt Hill
#
# Bulk Modulus (GPa) = 46.20433 71.03746 58.62089
# Shear Modulus (GPa) = 27.63089 34.58441 31.10765
#
# Velocity S-wave (km/s) = 3.63645 4.06837 3.85846
# Velocity P-wave (km/s) = 6.30432 7.48775 6.92137
#
# Compressibility (1/GPa) = 0.02164300
#
# Stress axis : x y z
#
# Youngs Moduli (GPa) = 128.83510 45.53170 135.80072
#
# Poissons Ratio (x) = 0.04207 0.37404
# Poissons Ratio (y) = 0.11905 0.54922
# Poissons Ratio (z) = 0.35485 0.18414
#
# Static dielectric constant tensor:
#      x y z
#    x 1.766740 0.000000 -0.309440 
#    y 0.000000 1.928500 0.000000 
#    z -0.309440 0.000000 -8.799700 
# 
# From -- ./inp_files/102689.got.cif
#   From: 2010.05.17/outbox.cif.g08.bks.cpg/sg15_52_cif.got.tgz:102689.got - 2010.06.03 18:47:42.
