data_PCOD9303359
_publ_section_title
;
Structure prediction by ZEFSAII (Michael W. Deem and Ramdas Pophale) SiO2 
 PCOD9303359
Probable space group: C 2/C
;
_chemical_formula_sum "Si O2"
_cell_formula_units_Z 44
_cell_length_a 11.290310
_cell_length_b 18.683564
_cell_length_c 10.178384
_cell_angle_alpha 90.000000
_cell_angle_beta 121.599697
_cell_angle_gamma 90.000000
_cell_volume 1828.715796
_symmetry_space_group_name_H-M "C 2/C"
_symmetry_group_IT_number 15
_symmetry_cell_setting 'monoclinic'
loop_
_space_group_symop_operation_xyz
x,y,z
-x,y,1/2-z
-x,-y,-z
x,-y,1/2+z
1/2+x,1/2+y,z
1/2-x,1/2+y,1/2-z
1/2-x,1/2-y,-z
1/2+x,1/2-y,1/2+z
loop_
_atom_site_type_symbol
_atom_site_label
_atom_site_fract_x
_atom_site_fract_y
_atom_site_fract_z
Si Si1 0.801820 0.117332 0.091507
Si Si2 0.114029 0.144221 0.648582
Si Si3 0.636505 0.197818 0.203725
Si Si4 0.500000 0.514761 0.750000
Si Si5 0.906717 0.507252 0.573147
Si Si6 0.664187 0.139814 0.497375
O O1 0.758008 0.177157 0.171303
O O2 0.877519 0.045992 0.191199
O O3 0.878216 0.141667 0.004287
O O4 0.659638 0.084190 0.954873
O O5 0.064889 0.224574 0.649851
O O6 0.031943 0.073902 0.652845
O O7 0.257948 0.149367 0.818789
O O8 0.697710 0.184739 0.385293
O O9 0.503328 0.147280 0.097003
O O10 0.798452 0.442124 0.514274
O O11 0.000000 0.494642 0.750000
O O12 0.000000 0.500000 0.500000
#
# Coordination Sequence:
#
# PCOD9303359 Si02
#       6
#     8   8   8   4   8   8
#     4  12  27  44  72 104 140 183 235 291 354 413
#     4  12  27  47  69 103 144 188 233 289 356 421
#     4  11  25  46  71 106 140 184 235 291 357 418
#     4  12  28  46  70 104 146 192 236 286 354 432
#     4  12  21  40  70 103 132 166 232 296 342 397
#     4  11  22  43  73  99 133 183 232 287 344 421
#
# _framework density 24.060600000000001
#
# number of rings (size 3 to 8) (size 9 to 14) (size 15 to 20)
#    0.000    0.364    5.455    3.818    2.545    2.909 
#    0.000    0.000    0.000    0.000    0.000    0.000 
#    0.000    0.000    0.000    0.000    0.000    0.000 
#
# Total GULP energy -122570.295259 kJ/mol
# GULP energy per Si atom -5571.377057 kJ/mol
# Density = 2.400584 g / cm^3
# Si number density = 24.060600 Si / 1000 Ang^3
#
#
#
# Elastic Constant Matrix: (Units=GPa)
#
#
# Indices 1 2 3 4 5 6 
#
# 1 71.8977 16.1010 30.6875 0.0000 -28.9187 0.0000
# 2 16.1010 115.9681 28.5025 0.0000 -21.0537 0.0000
# 3 30.6875 28.5025 76.3523 0.0000 -24.5872 0.0000
# 4 0.0000 0.0000 0.0000 28.3342 0.0000 -4.7018
# 5 -28.9187 -21.0537 -24.5872 0.0000 52.0745 0.0000
# 6 0.0000 0.0000 0.0000 -4.7018 0.0000 22.4514
#
#
#
# Elastic Compliance Matrix: (Units=1/GPa)
#
#
# Indices 1 2 3 4 5 6 
#
# 1 0.019472 0.000090 -0.005149 0.000000 0.008419 0.000000
# 2 0.000090 0.009791 -0.002831 0.000000 0.002672 0.000000
# 3 -0.005149 -0.002831 0.017612 0.000000 0.004312 0.000000
# 4 0.000000 0.000000 0.000000 0.036564 0.000000 0.007657
# 5 0.008419 0.002672 0.004312 0.000000 0.026995 0.000000
# 6 0.000000 0.000000 0.000000 0.007657 0.000000 0.046144
#
#
# Mechanical properties :
#
#
# Convention : Reuss Voigt Hill
#
# Bulk Modulus (GPa) = 32.15774 46.08888 39.12331
# Shear Modulus (GPa) = 27.36380 33.16715 30.26547
#
# Velocity S-wave (km/s) = 3.37603 3.71682 3.55052
# Velocity P-wave (km/s) = 5.34706 6.13324 5.75359
#
# Compressibility (1/GPa) = 0.03109672
#
# Stress axis : x y z
#
# Youngs Moduli (GPa) = 51.35460 102.13003 56.77979
#
# Poissons Ratio (x) = -0.00924 0.29236
# Poissons Ratio (y) = -0.00464 0.16074
# Poissons Ratio (z) = 0.26442 0.28913
#
# Static dielectric constant tensor:
#      x y z
#    x 1.987000 0.000000 0.034300 
#    y 0.000000 1.925810 0.000000 
#    z 0.034300 0.000000 1.957180 
# 
# From -- ./inp_files/31011.got.cif
#   From: 2010.05.17/outbox.cif.g08.bks.cpg/sg15_16_cif.got.tgz:31011.got - 2010.06.03 18:47:42.
