data_PCOD9303133
_publ_section_title
;
Structure prediction by ZEFSAII (Michael W. Deem and Ramdas Pophale) SiO2 
 PCOD9303133
Probable space group: C 2/C
;
_chemical_formula_sum "Si O2"
_cell_formula_units_Z 36
_cell_length_a 9.802749
_cell_length_b 11.237587
_cell_length_c 13.542152
_cell_angle_alpha 90.000000
_cell_angle_beta 112.478857
_cell_angle_gamma 90.000000
_cell_volume 1378.447809
_symmetry_space_group_name_H-M "C 2/C"
_symmetry_group_IT_number 15
_symmetry_cell_setting 'monoclinic'
loop_
_space_group_symop_operation_xyz
x,y,z
-x,y,1/2-z
-x,-y,-z
x,-y,1/2+z
1/2+x,1/2+y,z
1/2-x,1/2+y,1/2-z
1/2-x,1/2-y,-z
1/2+x,1/2-y,1/2+z
loop_
_atom_site_type_symbol
_atom_site_label
_atom_site_fract_x
_atom_site_fract_y
_atom_site_fract_z
Si Si1 0.925853 0.239291 0.841059
Si Si2 0.500000 0.574189 0.250000
Si Si3 0.633760 0.222424 0.661005
Si Si4 0.959290 0.486991 0.624858
Si Si5 0.679824 0.405293 0.437106
O O1 0.757086 0.202643 0.781393
O O2 0.000000 0.237384 0.750000
O O3 0.947681 0.372375 0.887393
O O4 0.022964 0.146145 0.929276
O O5 0.439505 0.656854 0.321877
O O6 0.629440 0.494898 0.334892
O O7 0.732393 0.204702 0.590663
O O8 0.518379 0.116689 0.616424
O O9 0.792122 0.465195 0.544245
O O10 0.000000 0.480878 0.750000
#
# Coordination Sequence:
#
# PCOD9303133 Si02
#       5
#     8   4   8   8   8
#     4   9  20  40  69  92 136 182 230 283 351 411
#     4  12  24  44  72 104 144 178 242 286 352 428
#     4  11  22  42  67 103 138 181 232 289 354 414
#     4  11  23  43  67 102 139 182 241 284 349 425
#     4  11  23  46  71 100 143 189 227 298 354 410
#
# _framework density 26.116333999999998
#
# number of rings (size 3 to 8) (size 9 to 14) (size 15 to 20)
#    0.000    1.333    4.444    2.667    0.000    0.889 
#    4.000    1.111    0.000    0.000    0.000    0.000 
#    0.000    0.000    0.000    0.000    0.000    0.000 
#
# Total GULP energy -100570.615750 kJ/mol
# GULP energy per Si atom -5587.256431 kJ/mol
# Density = 2.605689 g / cm^3
# Si number density = 26.116334 Si / 1000 Ang^3
#
#
#
# Elastic Constant Matrix: (Units=GPa)
#
#
# Indices 1 2 3 4 5 6 
#
# 1 48.4477 28.3429 32.8069 0.0000 1.6156 0.0000
# 2 28.3429 138.5445 42.7409 0.0000 2.8508 0.0000
# 3 32.8069 42.7409 190.6287 0.0000 13.3857 0.0000
# 4 0.0000 0.0000 0.0000 -65.3947 0.0000 155.8756
# 5 1.6156 2.8508 13.3857 0.0000 41.6028 0.0000
# 6 0.0000 0.0000 0.0000 155.8756 0.0000 -148.4358
#
#
#
# Elastic Compliance Matrix: (Units=1/GPa)
#
#
# Indices 1 2 3 4 5 6 
#
# 1 0.025397 -0.004133 -0.003473 0.000000 0.000414 0.000000
# 2 -0.004133 0.008427 -0.001175 0.000000 -0.000039 0.000000
# 3 -0.003473 -0.001175 0.006233 0.000000 -0.001790 0.000000
# 4 0.000000 0.000000 0.000000 0.010174 0.000000 0.010684
# 5 0.000414 -0.000039 -0.001790 0.000000 0.024599 0.000000
# 6 0.000000 0.000000 0.000000 0.010684 0.000000 0.004482
#
#
# Mechanical properties :
#
#
# Convention : Reuss Voigt Hill
#
# Bulk Modulus (GPa) = 44.45708 65.04469 54.75089
# Shear Modulus (GPa) = 47.90582 -16.19685 15.85448
#
# Velocity S-wave (km/s) = 4.28755 -2.49304 2.46656
# Velocity P-wave (km/s) = 6.44751 4.08323 5.39644
#
# Compressibility (1/GPa) = 0.02249361
#
# Stress axis : x y z
#
# Youngs Moduli (GPa) = 39.37536 118.66990 160.44220
#
# Poissons Ratio (x) = 0.49041 0.55726
# Poissons Ratio (y) = 0.16272 0.18859
# Poissons Ratio (z) = 0.13676 0.13949
#
# Static dielectric constant tensor:
#      x y z
#    x 2.097110 0.000000 -0.107980 
#    y 0.000000 2.080700 0.000000 
#    z -0.107980 0.000000 2.210580 
# 
# From -- ./inp_files/84472.got.cif
#   From: 2010.05.17/outbox.cif.g08.bks.cpg/sg15_43_cif.got.tgz:84472.got - 2010.06.03 18:47:42.
