data_PCOD9303130
_publ_section_title
;
Structure prediction by ZEFSAII (Michael W. Deem and Ramdas Pophale) SiO2 
 PCOD9303130
Probable space group: C 2/C
;
_chemical_formula_sum "Si O2"
_cell_formula_units_Z 64
_cell_length_a 17.575199
_cell_length_b 17.673279
_cell_length_c 21.332883
_cell_angle_alpha 90.000000
_cell_angle_beta 26.923074
_cell_angle_gamma 90.000000
_cell_volume 3000.318929
_symmetry_space_group_name_H-M "C 2/C"
_symmetry_group_IT_number 15
_symmetry_cell_setting 'monoclinic'
loop_
_space_group_symop_operation_xyz
x,y,z
-x,y,1/2-z
-x,-y,-z
x,-y,1/2+z
1/2+x,1/2+y,z
1/2-x,1/2+y,1/2-z
1/2-x,1/2-y,-z
1/2+x,1/2-y,1/2+z
loop_
_atom_site_type_symbol
_atom_site_label
_atom_site_fract_x
_atom_site_fract_y
_atom_site_fract_z
Si Si1 0.746332 0.931813 0.705165
Si Si2 0.013342 0.738156 0.536689
Si Si3 0.850003 0.741951 0.193734
Si Si4 0.958803 0.987076 0.434101
Si Si5 0.235872 0.877289 0.604669
Si Si6 0.407371 0.972390 0.003529
Si Si7 0.386231 0.641877 0.434732
Si Si8 0.892912 0.862583 0.265817
O O1 0.704213 0.845097 0.754252
O O2 0.872091 0.973755 0.661567
O O3 0.848937 0.943426 0.566202
O O4 0.562690 0.968682 0.841551
O O5 0.020869 0.757406 0.457475
O O6 0.117891 0.662298 0.464939
O O7 0.099837 0.800844 0.517652
O O8 0.827636 0.723221 0.697601
O O9 0.897346 0.786161 0.221688
O O10 0.856427 0.058046 0.482712
O O11 0.015730 0.928082 0.340744
O O12 0.273189 0.965757 0.579141
O O13 0.236710 0.844628 0.533452
O O14 0.065261 0.860202 0.767025
O O15 0.500000 0.000000 0.000000
O O16 0.299259 0.894605 0.086424
O O17 0.000000 0.852729 0.250000
#
# Coordination Sequence:
#
# PCOD9303130 Si02
#       8
#     8   8   8   8   8   8   8   8
#     4  11  24  43  68 101 135 172 230 292 334 395
#     4  12  23  42  66  99 132 182 230 277 337 413
#     4  12  25  45  68 101 135 179 231 286 338 409
#     4  11  22  43  71 100 134 179 228 286 352 400
#     4  11  23  41  65 100 143 176 221 281 353 404
#     4  12  22  42  73 103 129 181 241 283 330 416
#     4  11  22  42  66  98 142 181 216 282 354 414
#     4  12  26  45  72 102 139 187 232 283 358 422
#
# _framework density 21.331066
#
# number of rings (size 3 to 8) (size 9 to 14) (size 15 to 20)
#    0.000    0.500    5.000    4.125    1.750    0.000 
#    0.000   10.625    0.000    0.000    0.000    0.000 
#    0.000    0.000    0.000    0.000    0.000    0.000 
#
# Total GULP energy -178770.261216 kJ/mol
# GULP energy per Si atom -5586.570663 kJ/mol
# Density = 2.128252 g / cm^3
# Si number density = 21.331066 Si / 1000 Ang^3
#
#
#
# Elastic Constant Matrix: (Units=GPa)
#
#
# Indices 1 2 3 4 5 6 
#
# 1 109.4354 30.0423 21.1514 -0.0073 19.8439 0.0005
# 2 30.0423 83.1409 16.4970 0.0139 18.3854 -0.0020
# 3 21.1514 16.4970 77.7342 0.0230 11.8066 -0.0041
# 4 -0.0073 0.0139 0.0230 23.2208 -0.0051 3.4330
# 5 19.8439 18.3854 11.8066 -0.0051 29.0481 -0.0003
# 6 0.0005 -0.0020 -0.0041 3.4330 -0.0003 31.5751
#
#
#
# Elastic Compliance Matrix: (Units=1/GPa)
#
#
# Indices 1 2 3 4 5 6 
#
# 1 0.011117 -0.002505 -0.001685 0.000006 -0.005324 -0.000001
# 2 -0.002505 0.014772 -0.001378 -0.000010 -0.007078 0.000002
# 3 -0.001685 -0.001378 0.014184 -0.000015 -0.003742 0.000003
# 4 0.000006 -0.000010 -0.000015 0.043768 0.000016 -0.004759
# 5 -0.005324 -0.007078 -0.003742 0.000016 0.044063 -0.000002
# 6 -0.000001 0.000002 0.000003 -0.004759 -0.000002 0.032188
#
#
# Mechanical properties :
#
#
# Convention : Reuss Voigt Hill
#
# Bulk Modulus (GPa) = 34.55951 45.07690 39.81821
# Shear Modulus (GPa) = 27.64378 30.27677 28.96028
#
# Velocity S-wave (km/s) = 3.60382 3.77155 3.68864
# Velocity P-wave (km/s) = 5.79253 6.33593 6.07031
#
# Compressibility (1/GPa) = 0.02893559
#
# Stress axis : x y z
#
# Youngs Moduli (GPa) = 89.95622 67.69719 70.50434
#
# Poissons Ratio (x) = 0.16961 0.11877
# Poissons Ratio (y) = 0.22537 0.09717
# Poissons Ratio (z) = 0.15153 0.09330
#
# Static dielectric constant tensor:
#      x y z
#    x 1.805300 0.000000 -0.013970 
#    y 0.000000 1.789110 0.000010 
#    z -0.013970 0.000010 1.778610 
# 
# From -- ./inp_files/249629.got.cif
#   From: 2010.05.17/outbox.cif.g08.bks.cpg/sg15_125_cif.got.tgz:249629.got - 2010.06.03 18:47:42.
