data_PCOD9303844
_publ_section_title
;
Structure prediction by ZEFSAII (Michael W. Deem and Ramdas Pophale) SiO2 
 PCOD9303844
Probable space group: C 2/C
;
_chemical_formula_sum "Si O2"
_cell_formula_units_Z 44
_cell_length_a 17.365204
_cell_length_b 15.376395
_cell_length_c 22.155268
_cell_angle_alpha 90.000000
_cell_angle_beta 161.760445
_cell_angle_gamma 90.000000
_cell_volume 1851.581437
_symmetry_space_group_name_H-M "C 2/C"
_symmetry_group_IT_number 15
_symmetry_cell_setting 'monoclinic'
loop_
_space_group_symop_operation_xyz
x,y,z
-x,y,1/2-z
-x,-y,-z
x,-y,1/2+z
1/2+x,1/2+y,z
1/2-x,1/2+y,1/2-z
1/2-x,1/2-y,-z
1/2+x,1/2-y,1/2+z
loop_
_atom_site_type_symbol
_atom_site_label
_atom_site_fract_x
_atom_site_fract_y
_atom_site_fract_z
Si Si1 0.586045 0.334322 0.382680
Si Si2 0.000000 0.366071 0.250000
Si Si3 0.329871 0.648747 0.814573
Si Si4 0.151334 0.536747 0.169159
Si Si5 0.497380 0.699302 0.431621
Si Si6 0.741068 0.996789 0.523151
O O1 0.500000 0.346374 0.250000
O O2 0.750000 0.250000 0.500000
O O3 0.402648 0.323775 0.301439
O O4 0.707971 0.426955 0.487066
O O5 0.236125 0.316722 0.398691
O O6 0.110953 0.421670 0.388379
O O7 0.321755 0.545136 0.813367
O O8 0.080705 0.702444 0.640382
O O9 0.499889 0.683863 0.994320
O O10 0.301120 0.624312 0.265425
O O11 0.000000 0.500000 0.000000
O O12 0.948856 0.540825 0.071116
O O13 0.000000 0.971834 0.750000
#
# Coordination Sequence:
#
# PCOD9303844 Si02
#       6
#     8   4   8   8   8   8
#     4  11  23  40  65 102 140 183 236 302 368 435
#     4  12  26  48  74 104 146 196 256 300 366 440
#     4  12  25  45  70 104 148 188 244 302 364 443
#     4  12  24  47  75 106 146 193 242 305 374 441
#     4  12  27  47  73 111 143 197 249 300 374 437
#     4  11  25  44  71 109 145 191 244 305 371 442
#
# _framework density 23.763470999999999
#
# number of rings (size 3 to 8) (size 9 to 14) (size 15 to 20)
#    0.000    0.364    1.818    8.182    3.818    0.727 
#    1.636    0.000    0.000    0.000    0.000    0.000 
#    0.000    0.000    0.000    0.000    0.000    0.000 
#
# Total GULP energy -122971.814688 kJ/mol
# GULP energy per Si atom -5589.627940 kJ/mol
# Density = 2.370938 g / cm^3
# Si number density = 23.763471 Si / 1000 Ang^3
#
#
#
# Elastic Constant Matrix: (Units=GPa)
#
#
# Indices 1 2 3 4 5 6 
#
# 1 113.0064 22.7109 47.3876 -0.0041 23.1020 0.0023
# 2 22.7109 64.1153 22.4176 -0.0403 12.5089 0.0618
# 3 47.3876 22.4176 82.7672 -0.0684 18.6064 0.0679
# 4 -0.0041 -0.0403 -0.0684 43.0013 0.0504 -4.8725
# 5 23.1020 12.5089 18.6064 0.0504 51.6273 0.0136
# 6 0.0023 0.0618 0.0679 -4.8725 0.0136 13.2073
#
#
#
# Elastic Compliance Matrix: (Units=1/GPa)
#
#
# Indices 1 2 3 4 5 6 
#
# 1 0.012269 -0.001708 -0.005899 -0.000002 -0.002950 0.000038
# 2 -0.001708 0.017823 -0.003319 0.000007 -0.002358 -0.000061
# 3 -0.005899 -0.003319 0.016958 0.000020 -0.002668 -0.000061
# 4 -0.000002 0.000007 0.000020 0.024270 -0.000034 0.008954
# 5 -0.002950 -0.002358 -0.002668 -0.000034 0.022223 -0.000010
# 6 0.000038 -0.000061 -0.000061 0.008954 -0.000010 0.079020
#
#
# Mechanical properties :
#
#
# Convention : Reuss Voigt Hill
#
# Bulk Modulus (GPa) = 39.68585 49.43566 44.56075
# Shear Modulus (GPa) = 24.65325 32.72535 28.68930
#
# Velocity S-wave (km/s) = 3.22443 3.71499 3.47837
# Velocity P-wave (km/s) = 5.53166 6.26498 5.90970
#
# Compressibility (1/GPa) = 0.02519790
#
# Stress axis : x y z
#
# Youngs Moduli (GPa) = 81.50640 56.10882 58.96858
#
# Poissons Ratio (x) = 0.09583 0.34784
# Poissons Ratio (y) = 0.13920 0.19574
# Poissons Ratio (z) = 0.48078 0.18624
#
# Static dielectric constant tensor:
#      x y z
#    x 2.000070 -0.000450 0.097690 
#    y -0.000450 2.131640 -0.000560 
#    z 0.097690 -0.000560 2.361470 
# 
# From -- ./inp_files/277673.got.cif
#   From: 2010.05.17/outbox.cif.g08.bks.cpg/sg15_139_cif.got.tgz:277673.got - 2010.06.03 18:47:42.
