data_PCOD9303501
_publ_section_title
;
Structure prediction by ZEFSAII (Michael W. Deem and Ramdas Pophale) SiO2 
 PCOD9303501
Probable space group: C 2/C
;
_chemical_formula_sum "Si O2"
_cell_formula_units_Z 40
_cell_length_a 9.308343
_cell_length_b 15.245578
_cell_length_c 11.771422
_cell_angle_alpha 90.000000
_cell_angle_beta 97.006804
_cell_angle_gamma 90.000000
_cell_volume 1658.019278
_symmetry_space_group_name_H-M "C 2/C"
_symmetry_group_IT_number 15
_symmetry_cell_setting 'monoclinic'
loop_
_space_group_symop_operation_xyz
x,y,z
-x,y,1/2-z
-x,-y,-z
x,-y,1/2+z
1/2+x,1/2+y,z
1/2-x,1/2+y,1/2-z
1/2-x,1/2-y,-z
1/2+x,1/2-y,1/2+z
loop_
_atom_site_type_symbol
_atom_site_label
_atom_site_fract_x
_atom_site_fract_y
_atom_site_fract_z
Si Si1 0.996060 0.911819 0.430627
Si Si2 0.775755 0.038838 0.745171
Si Si3 0.446644 0.728886 0.368980
Si Si4 0.161544 0.647749 0.320870
Si Si5 0.051959 0.593088 0.552063
O O1 0.027671 0.836026 0.522956
O O2 0.837124 0.910375 0.359418
O O3 0.110662 0.933806 0.342360
O O4 0.000000 0.000000 0.500000
O O5 0.746101 0.935862 0.772287
O O6 0.628818 0.069457 0.676453
O O7 0.500000 0.700055 0.250000
O O8 0.271330 0.730182 0.332047
O O9 0.525944 0.817796 0.416893
O O10 0.141483 0.625801 0.451390
O O11 0.000000 0.659539 0.250000
O O12 0.000000 0.500000 0.500000
#
# Coordination Sequence:
#
# PCOD9303501 Si02
#       5
#     8   8   8   8   8
#     4  11  22  44  77 112 158 202 261 320 387 468
#     4  11  23  43  77 112 152 204 260 314 398 460
#     4  12  28  50  79 117 157 208 268 322 388 472
#     4  12  25  46  80 112 158 208 257 320 397 468
#     4  12  27  49  73 109 160 205 264 324 392 463
#
# _framework density 24.125171000000002
#
# number of rings (size 3 to 8) (size 9 to 14) (size 15 to 20)
#    0.000    0.400    6.000    1.800    2.800    1.600 
#    0.000    2.000    0.000    0.000    0.000    0.000 
#    0.000    0.000    0.000    0.000    0.000    0.000 
#
# Total GULP energy -111505.487005 kJ/mol
# GULP energy per Si atom -5575.274350 kJ/mol
# Density = 2.407026 g / cm^3
# Si number density = 24.125171 Si / 1000 Ang^3
#
#
#
# Elastic Constant Matrix: (Units=GPa)
#
#
# Indices 1 2 3 4 5 6 
#
# 1 112.6071 46.0420 57.2350 0.0000 24.2633 0.0000
# 2 46.0420 101.5506 42.1290 0.0000 15.1968 0.0000
# 3 57.2350 42.1290 146.1620 0.0000 18.1392 0.0000
# 4 0.0000 0.0000 0.0000 39.2955 0.0000 6.3547
# 5 24.2633 15.1968 18.1392 0.0000 46.2184 0.0000
# 6 0.0000 0.0000 0.0000 6.3547 0.0000 10.4231
#
#
#
# Elastic Compliance Matrix: (Units=1/GPa)
#
#
# Indices 1 2 3 4 5 6 
#
# 1 0.013167 -0.003876 -0.003510 0.000000 -0.004260 0.000000
# 2 -0.003876 0.012616 -0.001951 0.000000 -0.001347 0.000000
# 3 -0.003510 -0.001951 0.008904 0.000000 -0.001010 0.000000
# 4 0.000000 0.000000 0.000000 0.028232 0.000000 -0.017212
# 5 -0.004260 -0.001347 -0.001010 0.000000 0.024713 0.000000
# 6 0.000000 0.000000 0.000000 -0.017212 0.000000 0.106434
#
#
# Mechanical properties :
#
#
# Convention : Reuss Voigt Hill
#
# Bulk Modulus (GPa) = 62.45283 72.34795 67.40039
# Shear Modulus (GPa) = 22.92754 33.51499 28.22127
#
# Velocity S-wave (km/s) = 3.08613 3.73126 3.42392
# Velocity P-wave (km/s) = 6.21628 6.97257 6.60526
#
# Compressibility (1/GPa) = 0.01601208
#
# Stress axis : x y z
#
# Youngs Moduli (GPa) = 75.94512 79.26528 112.30838
#
# Poissons Ratio (x) = 0.30725 0.39422
# Poissons Ratio (y) = 0.29438 0.21914
# Poissons Ratio (z) = 0.26658 0.15467
#
# Static dielectric constant tensor:
#      x y z
#    x 2.068860 0.000000 0.056710 
#    y 0.000000 2.140610 0.000000 
#    z 0.056710 0.000000 1.776990 
# 
# From -- ./inp_files/85952.got.cif
#   From: 2010.05.17/outbox.cif.g08.bks.cpg/sg15_43_cif.got.tgz:85952.got - 2010.06.03 18:47:42.
