data_PCOD9303417
_publ_section_title
;
Structure prediction by ZEFSAII (Michael W. Deem and Ramdas Pophale) SiO2 
 PCOD9303417
Probable space group: C 2/C
;
_chemical_formula_sum "Si O2"
_cell_formula_units_Z 32
_cell_length_a 26.858409
_cell_length_b 8.254841
_cell_length_c 18.806721
_cell_angle_alpha 90.000000
_cell_angle_beta 18.646054
_cell_angle_gamma 90.000000
_cell_volume 1333.132336
_symmetry_space_group_name_H-M "C 2/C"
_symmetry_group_IT_number 15
_symmetry_cell_setting 'monoclinic'
loop_
_space_group_symop_operation_xyz
x,y,z
-x,y,1/2-z
-x,-y,-z
x,-y,1/2+z
1/2+x,1/2+y,z
1/2-x,1/2+y,1/2-z
1/2-x,1/2-y,-z
1/2+x,1/2-y,1/2+z
loop_
_atom_site_type_symbol
_atom_site_label
_atom_site_fract_x
_atom_site_fract_y
_atom_site_fract_z
Si Si1 0.893637 0.610897 0.694228
Si Si2 0.004966 0.838939 0.138332
Si Si3 0.578232 0.714495 0.069408
Si Si4 0.749293 0.282125 0.904784
O O1 0.785202 0.469906 0.873484
O O2 0.000000 0.500000 0.500000
O O3 0.999943 0.690012 0.610471
O O4 0.765786 0.722435 0.827127
O O5 0.909250 0.814537 0.196102
O O6 0.885481 0.750516 0.355038
O O7 0.031698 0.026863 0.118284
O O8 0.171253 0.762399 0.933055
O O9 0.500000 0.765961 0.250000
#
# Coordination Sequence:
#
# PCOD9303417 Si02
#       4
#     8   8   8   8
#     4  11  25  42  64  98 135 169 217 277 335 390
#     4   9  17  34  59  88 121 160 211 260 303 377
#     4  11  22  44  69  95 129 177 225 266 323 400
#     4   9  18  34  55  90 124 156 207 256 315 371
#
# _framework density 24.003616999999998
#
# number of rings (size 3 to 8) (size 9 to 14) (size 15 to 20)
#    0.000    2.000    5.000    0.750    0.000    6.000 
#    4.500    2.500    0.000    0.000    0.000    0.000 
#    0.000    0.000    0.000    0.000    0.000    0.000 
#
# Total GULP energy -89188.898039 kJ/mol
# GULP energy per Si atom -5574.306127 kJ/mol
# Density = 2.394898 g / cm^3
# Si number density = 24.003617 Si / 1000 Ang^3
#
#
#
# Elastic Constant Matrix: (Units=GPa)
#
#
# Indices 1 2 3 4 5 6 
#
# 1 224.8045 71.0020 104.4200 0.0000 -75.0093 0.0000
# 2 71.0020 37.1593 28.2808 0.0000 -23.6235 0.0000
# 3 104.4200 28.2808 129.3223 0.0000 -52.3686 0.0000
# 4 0.0000 0.0000 0.0000 19.5229 0.0000 -13.0717
# 5 -75.0093 -23.6235 -52.3686 0.0000 50.4932 0.0000
# 6 0.0000 0.0000 0.0000 -13.0717 0.0000 39.8418
#
#
#
# Elastic Compliance Matrix: (Units=1/GPa)
#
#
# Indices 1 2 3 4 5 6 
#
# 1 0.017295 -0.023068 -0.004976 0.000000 0.009739 0.000000
# 2 -0.023068 0.069353 0.004693 0.000000 0.003047 0.000000
# 3 -0.004976 0.004693 0.014862 0.000000 0.010217 0.000000
# 4 0.000000 0.000000 0.000000 0.065642 0.000000 0.021536
# 5 0.009739 0.003047 0.010217 0.000000 0.046293 0.000000
# 6 0.000000 0.000000 0.000000 0.021536 0.000000 0.032165
#
#
# Mechanical properties :
#
#
# Convention : Reuss Voigt Hill
#
# Bulk Modulus (GPa) = 18.24572 88.74354 53.49463
# Shear Modulus (GPa) = 16.09890 34.47713 25.28801
#
# Velocity S-wave (km/s) = 2.59257 3.79401 3.24930
# Velocity P-wave (km/s) = 4.07181 7.49959 6.03421
#
# Compressibility (1/GPa) = 0.05480738
#
# Stress axis : x y z
#
# Youngs Moduli (GPa) = 57.82050 14.41906 67.28690
#
# Poissons Ratio (x) = 0.33261 0.33485
# Poissons Ratio (y) = 1.33378 -0.31579
# Poissons Ratio (z) = 0.28774 -0.06767
#
# Static dielectric constant tensor:
#      x y z
#    x 2.088300 0.000000 -0.017370 
#    y 0.000000 1.926730 0.000000 
#    z -0.017370 0.000000 2.036070 
# 
# From -- ./inp_files/258666.got.cif
#   From: 2010.05.17/outbox.cif.g08.bks.cpg/sg15_130_cif.got.tgz:258666.got - 2010.06.03 18:47:42.
