data_PCOD9303446
_publ_section_title
;
Structure prediction by ZEFSAII (Michael W. Deem and Ramdas Pophale) SiO2 
 PCOD9303446
Probable space group: C 2/C
;
_chemical_formula_sum "Si O2"
_cell_formula_units_Z 40
_cell_length_a 8.343532
_cell_length_b 16.636346
_cell_length_c 23.728235
_cell_angle_alpha 90.000000
_cell_angle_beta 34.738932
_cell_angle_gamma 90.000000
_cell_volume 1876.829177
_symmetry_space_group_name_H-M "C 2/C"
_symmetry_group_IT_number 15
_symmetry_cell_setting 'monoclinic'
loop_
_space_group_symop_operation_xyz
x,y,z
-x,y,1/2-z
-x,-y,-z
x,-y,1/2+z
1/2+x,1/2+y,z
1/2-x,1/2+y,1/2-z
1/2-x,1/2-y,-z
1/2+x,1/2-y,1/2+z
loop_
_atom_site_type_symbol
_atom_site_label
_atom_site_fract_x
_atom_site_fract_y
_atom_site_fract_z
Si Si1 0.310760 0.097363 0.470468
Si Si2 0.771354 0.515163 0.714251
Si Si3 0.241818 0.863345 0.435687
Si Si4 0.403836 0.548103 0.407217
Si Si5 0.284805 0.300940 0.864293
O O1 0.465679 0.180810 0.437651
O O2 0.995460 0.108470 0.539828
O O3 0.514307 0.054073 0.367045
O O4 0.288607 0.030609 0.526095
O O5 0.500000 0.520294 0.750000
O O6 0.681758 0.494311 0.803395
O O7 0.955384 0.595395 0.658450
O O8 0.120045 0.898283 0.529667
O O9 0.285077 0.769465 0.410334
O O10 0.354030 0.613459 0.372749
O O11 0.500000 0.285414 0.750000
#
# Coordination Sequence:
#
# PCOD9303446 Si02
#       5
#     8   8   8   8   8
#     4  11  23  44  71  99 134 178 222 276 339 404
#     4  11  22  44  71 100 132 184 230 274 334 403
#     4  11  28  41  70 106 135 171 228 288 333 395
#     4  11  22  44  73  93 135 180 233 260 334 412
#     4  12  24  47  66  99 142 178 217 281 349 396
#
# _framework density 21.312542000000001
#
# number of rings (size 3 to 8) (size 9 to 14) (size 15 to 20)
#    0.000    0.800    4.000    4.200    5.600    2.400 
#    0.000    0.000    0.000    0.000    0.000    0.000 
#    0.000    0.000    0.000    0.000    0.000    0.000 
#
# Total GULP energy -111442.933156 kJ/mol
# GULP energy per Si atom -5572.146658 kJ/mol
# Density = 2.126403 g / cm^3
# Si number density = 21.312542 Si / 1000 Ang^3
#
#
#
# Elastic Constant Matrix: (Units=GPa)
#
#
# Indices 1 2 3 4 5 6 
#
# 1 50.8578 28.2815 31.0816 -0.0251 -25.8164 0.0093
# 2 28.2815 108.1261 52.9707 -0.0104 -5.6173 0.0115
# 3 31.0816 52.9707 128.5150 -0.0761 10.6366 0.0257
# 4 -0.0251 -0.0104 -0.0761 -35.9248 0.0961 9.2952
# 5 -25.8164 -5.6173 10.6366 0.0961 30.7630 -0.0154
# 6 0.0093 0.0115 0.0257 9.2952 -0.0154 43.2644
#
#
#
# Elastic Compliance Matrix: (Units=1/GPa)
#
#
# Indices 1 2 3 4 5 6 
#
# 1 0.062729 -0.004514 -0.018118 0.000148 0.058082 -0.000013
# 2 -0.004514 0.012381 -0.003999 0.000007 -0.000145 -0.000002
# 3 -0.018118 -0.003999 0.015576 -0.000075 -0.021320 0.000004
# 4 0.000148 0.000007 -0.000075 -0.026369 0.000237 0.005665
# 5 0.058082 -0.000145 -0.021320 0.000237 0.088594 -0.000019
# 6 -0.000013 -0.000002 0.000004 0.005665 -0.000019 0.021896
#
#
# Mechanical properties :
#
#
# Convention : Reuss Voigt Hill
#
# Bulk Modulus (GPa) = 26.72107 56.90737 41.81422
# Shear Modulus (GPa) = 20.78626 19.29819 20.04223
#
# Velocity S-wave (km/s) = 3.12638 3.01239 3.06991
# Velocity P-wave (km/s) = 5.05937 6.23367 5.67697
#
# Compressibility (1/GPa) = 0.03742365
#
# Stress axis : x y z
#
# Youngs Moduli (GPa) = 15.94156 80.76923 64.20181
#
# Poissons Ratio (x) = 0.36461 1.16318
# Poissons Ratio (y) = 0.07196 0.25677
# Poissons Ratio (z) = 0.28882 0.32302
#
# Static dielectric constant tensor:
#      x y z
#    x 1.869410 0.000000 -0.019110 
#    y 0.000000 1.780700 -0.000030 
#    z -0.019110 -0.000030 1.833990 
# 
# From -- ./inp_files/190692.got.cif
#   From: 2010.05.17/outbox.cif.g08.bks.cpg/sg15_96_cif.got.tgz:190692.got - 2010.06.03 18:47:42.
