data_PCOD9303375
_publ_section_title
;
Structure prediction by ZEFSAII (Michael W. Deem and Ramdas Pophale) SiO2 
 PCOD9303375
Probable space group: C 2/C
;
_chemical_formula_sum "Si O2"
_cell_formula_units_Z 48
_cell_length_a 18.949242
_cell_length_b 12.181169
_cell_length_c 10.319277
_cell_angle_alpha 90.000000
_cell_angle_beta 60.919155
_cell_angle_gamma 90.000000
_cell_volume 2081.656644
_symmetry_space_group_name_H-M "C 2/C"
_symmetry_group_IT_number 15
_symmetry_cell_setting 'monoclinic'
loop_
_space_group_symop_operation_xyz
x,y,z
-x,y,1/2-z
-x,-y,-z
x,-y,1/2+z
1/2+x,1/2+y,z
1/2-x,1/2+y,1/2-z
1/2-x,1/2-y,-z
1/2+x,1/2-y,1/2+z
loop_
_atom_site_type_symbol
_atom_site_label
_atom_site_fract_x
_atom_site_fract_y
_atom_site_fract_z
Si Si1 0.574771 0.513585 0.531155
Si Si2 0.500000 0.671165 0.250000
Si Si3 0.464175 0.908409 0.936278
Si Si4 0.000000 0.210635 0.750000
Si Si5 0.234900 0.930359 0.751720
Si Si6 0.638026 0.215455 0.777014
Si Si7 0.673518 0.991898 0.087095
O O1 0.500000 0.500000 0.500000
O O2 0.566901 0.409601 0.630516
O O3 0.562885 0.624937 0.627208
O O4 0.655038 0.510042 0.376495
O O5 0.448736 0.739990 0.194677
O O6 0.517753 0.801984 0.846174
O O7 0.417993 0.973185 0.863051
O O8 0.387289 0.851247 0.074038
O O9 0.500000 0.000000 0.000000
O O10 0.201900 0.809865 0.748083
O O11 0.293842 0.934852 0.823291
O O12 0.272081 0.985692 0.590672
O O13 0.671501 0.131394 0.642728
#
# Coordination Sequence:
#
# PCOD9303375 Si02
#       7
#     8   4   8   4   8   8   8
#     4  11  23  44  71 106 146 190 248 310 372 446
#     4  11  22  43  76 108 142 187 252 309 364 442
#     4  12  25  49  76 106 148 198 259 312 367 451
#     4  11  24  43  74 108 144 193 262 305 380 440
#     4  12  26  48  73 107 154 189 245 306 378 455
#     4  12  24  48  72 109 145 195 252 301 380 442
#     4  12  28  50  72 110 152 197 247 311 379 449
#
# _framework density 23.058555999999999
#
# number of rings (size 3 to 8) (size 9 to 14) (size 15 to 20)
#    0.000    0.333    5.000    3.500    2.333    0.667 
#    3.000    0.000    0.000    0.000    0.000    0.000 
#    0.000    0.000    0.000    0.000    0.000    0.000 
#
# Total GULP energy -134067.049245 kJ/mol
# GULP energy per Si atom -5586.127052 kJ/mol
# Density = 2.300607 g / cm^3
# Si number density = 23.058556 Si / 1000 Ang^3
#
#
#
# Elastic Constant Matrix: (Units=GPa)
#
#
# Indices 1 2 3 4 5 6 
#
# 1 132.3597 47.6685 18.8311 0.0000 14.4682 0.0000
# 2 47.6685 119.3614 33.9907 0.0000 4.5541 0.0000
# 3 18.8311 33.9907 132.4647 0.0000 -7.7800 0.0000
# 4 0.0000 0.0000 0.0000 37.0559 0.0000 7.7687
# 5 14.4682 4.5541 -7.7800 0.0000 35.2121 0.0000
# 6 0.0000 0.0000 0.0000 7.7687 0.0000 26.9324
#
#
#
# Elastic Compliance Matrix: (Units=1/GPa)
#
#
# Indices 1 2 3 4 5 6 
#
# 1 0.009246 -0.003372 -0.000655 0.000000 -0.003508 0.000000
# 2 -0.003372 0.010370 -0.002208 0.000000 -0.000443 0.000000
# 3 -0.000655 -0.002208 0.008350 0.000000 0.002400 0.000000
# 4 0.000000 0.000000 0.000000 0.028723 0.000000 -0.008285
# 5 -0.003508 -0.000443 0.002400 0.000000 0.030428 0.000000
# 6 0.000000 0.000000 0.000000 -0.008285 0.000000 0.039520
#
#
# Mechanical properties :
#
#
# Convention : Reuss Voigt Hill
#
# Bulk Modulus (GPa) = 64.53195 65.01848 64.77522
# Shear Modulus (GPa) = 34.65649 38.75311 36.70480
#
# Velocity S-wave (km/s) = 3.88103 4.10401 3.99408
# Velocity P-wave (km/s) = 6.93758 7.12148 7.03013
#
# Compressibility (1/GPa) = 0.01549620
#
# Stress axis : x y z
#
# Youngs Moduli (GPa) = 108.15139 96.42958 119.76414
#
# Poissons Ratio (x) = 0.32518 0.07846
# Poissons Ratio (y) = 0.36471 0.26440
# Poissons Ratio (z) = 0.07086 0.21289
#
# Static dielectric constant tensor:
#      x y z
#    x 1.817300 0.000000 -0.086880 
#    y 0.000000 1.851360 0.000000 
#    z -0.086880 0.000000 1.513100 
# 
# From -- ./inp_files/110901.got.cif
#   From: 2010.05.17/outbox.cif.g08.bks.cpg/sg15_56_cif.got.tgz:110901.got - 2010.06.03 18:47:42.
