data_PCOD9303042
_publ_section_title
;
Structure prediction by ZEFSAII (Michael W. Deem and Ramdas Pophale) SiO2 
 PCOD9303042
Probable space group: C 2/C
;
_chemical_formula_sum "Si O2"
_cell_formula_units_Z 32
_cell_length_a 10.748288
_cell_length_b 15.925976
_cell_length_c 12.031213
_cell_angle_alpha 90.000000
_cell_angle_beta 49.410312
_cell_angle_gamma 90.000000
_cell_volume 1563.935139
_symmetry_space_group_name_H-M "C 2/C"
_symmetry_group_IT_number 15
_symmetry_cell_setting 'monoclinic'
loop_
_space_group_symop_operation_xyz
x,y,z
-x,y,1/2-z
-x,-y,-z
x,-y,1/2+z
1/2+x,1/2+y,z
1/2-x,1/2+y,1/2-z
1/2-x,1/2-y,-z
1/2+x,1/2-y,1/2+z
loop_
_atom_site_type_symbol
_atom_site_label
_atom_site_fract_x
_atom_site_fract_y
_atom_site_fract_z
Si Si1 0.756587 0.568005 0.876587
Si Si2 0.493310 0.863210 0.428748
Si Si3 0.475648 0.673106 0.131020
Si Si4 0.628840 0.885331 0.764205
O O1 0.831061 0.618948 0.728852
O O2 0.795995 0.471740 0.827134
O O3 0.864527 0.593666 0.920720
O O4 0.576107 0.599222 0.011828
O O5 0.458985 0.763840 0.444546
O O6 0.471090 0.898850 0.564066
O O7 0.500000 0.665795 0.250000
O O8 0.713993 0.668769 0.292817
O O9 0.500000 0.850002 0.750000
#
# Coordination Sequence:
#
# PCOD9303042 Si02
#       4
#     8   8   8   8
#     4  11  22  41  69 101 128 176 226 278 320 394
#     4  11  22  42  73  95 132 177 233 265 331 396
#     4  12  23  43  71 104 128 175 236 280 315 400
#     4  12  26  42  65 100 144 176 212 279 350 393
#
# _framework density 20.461206000000001
#
# number of rings (size 3 to 8) (size 9 to 14) (size 15 to 20)
#    0.000    0.500    7.500    3.750    0.000    1.000 
#    0.000    1.250    0.000    0.000    0.000    0.000 
#    0.000    0.000    0.000    0.000    0.000    0.000 
#
# Total GULP energy -89423.576545 kJ/mol
# GULP energy per Si atom -5588.973534 kJ/mol
# Density = 2.041463 g / cm^3
# Si number density = 20.461206 Si / 1000 Ang^3
#
#
#
# Elastic Constant Matrix: (Units=GPa)
#
#
# Indices 1 2 3 4 5 6 
#
# 1 132.6040 25.1259 62.7508 0.0000 6.6978 0.0000
# 2 25.1259 73.1871 9.2182 0.0000 14.6430 0.0000
# 3 62.7508 9.2182 107.4337 0.0000 10.5623 0.0000
# 4 0.0000 0.0000 0.0000 20.1745 0.0000 1.2842
# 5 6.6978 14.6430 10.5623 0.0000 30.2067 0.0000
# 6 0.0000 0.0000 0.0000 1.2842 0.0000 14.1225
#
#
#
# Elastic Compliance Matrix: (Units=1/GPa)
#
#
# Indices 1 2 3 4 5 6 
#
# 1 0.011089 -0.003279 -0.006328 0.000000 0.001343 0.000000
# 2 -0.003279 0.016138 0.001272 0.000000 -0.007541 0.000000
# 3 -0.006328 0.001272 0.013274 0.000000 -0.003855 0.000000
# 4 0.000000 0.000000 0.000000 0.049856 0.000000 -0.004534
# 5 0.001343 -0.007541 -0.003855 0.000000 0.037811 0.000000
# 6 0.000000 0.000000 0.000000 -0.004534 0.000000 0.071221
#
#
# Mechanical properties :
#
#
# Convention : Reuss Voigt Hill
#
# Bulk Modulus (GPa) = 41.96164 56.37939 49.17051
# Shear Modulus (GPa) = 22.32125 27.30941 24.81533
#
# Velocity S-wave (km/s) = 3.30647 3.65731 3.48630
# Velocity P-wave (km/s) = 5.92701 6.74156 6.34736
#
# Compressibility (1/GPa) = 0.02383129
#
# Stress axis : x y z
#
# Youngs Moduli (GPa) = 90.17902 61.96646 75.33594
#
# Poissons Ratio (x) = 0.20317 0.47670
# Poissons Ratio (y) = 0.29567 -0.09581
# Poissons Ratio (z) = 0.57063 -0.07881
#
# Static dielectric constant tensor:
#      x y z
#    x 1.738820 0.000000 -0.045470 
#    y 0.000000 1.731260 0.000000 
#    z -0.045470 0.000000 1.735200 
# 
# From -- ./inp_files/75953.got.cif
#   From: 2010.05.17/outbox.cif.g08.bks.cpg/sg15_38_cif.got.tgz:75953.got - 2010.06.03 18:47:42.
