data_PCOD9303723
_publ_section_title
;
Structure prediction by ZEFSAII (Michael W. Deem and Ramdas Pophale) SiO2 
 PCOD9303723
Probable space group: C 2/C
;
_chemical_formula_sum "Si O2"
_cell_formula_units_Z 40
_cell_length_a 28.345953
_cell_length_b 10.943680
_cell_length_c 13.502051
_cell_angle_alpha 90.000000
_cell_angle_beta 152.705948
_cell_angle_gamma 90.000000
_cell_volume 1920.648124
_symmetry_space_group_name_H-M "C 2/C"
_symmetry_group_IT_number 15
_symmetry_cell_setting 'monoclinic'
loop_
_space_group_symop_operation_xyz
x,y,z
-x,y,1/2-z
-x,-y,-z
x,-y,1/2+z
1/2+x,1/2+y,z
1/2-x,1/2+y,1/2-z
1/2-x,1/2-y,-z
1/2+x,1/2-y,1/2+z
loop_
_atom_site_type_symbol
_atom_site_label
_atom_site_fract_x
_atom_site_fract_y
_atom_site_fract_z
Si Si1 0.592669 0.807061 0.687410
Si Si2 0.716640 0.691506 0.541044
Si Si3 0.570431 0.122395 0.466324
Si Si4 0.857702 0.648452 0.430558
Si Si5 0.699028 0.586606 0.981886
O O1 0.498962 0.873805 0.564724
O O2 0.583907 0.788964 0.553219
O O3 0.615260 0.678437 0.782609
O O4 0.697249 0.889152 0.891103
O O5 0.750000 0.750000 0.500000
O O6 0.644538 0.776591 0.473439
O O7 0.673849 0.555581 0.440464
O O8 0.820461 0.676429 0.799597
O O9 0.500000 0.182455 0.250000
O O10 0.597447 0.986971 0.478766
O O11 0.742554 0.629427 0.169868
#
# Coordination Sequence:
#
# PCOD9303723 Si02
#       5
#     8   8   8   8   8
#     4   9  18  39  63  94 121 167 222 263 311 382
#     4  11  24  38  58  98 135 172 209 262 330 387
#     4  11  23  37  69  94 124 164 228 268 311 381
#     4   9  20  34  57  89 127 168 213 263 316 369
#     4   8  19  36  66  87 134 166 211 253 340 374
#
# _framework density 20.826304
#
# number of rings (size 3 to 8) (size 9 to 14) (size 15 to 20)
#    1.200    1.200    0.000    1.800    2.800    1.600 
#    0.000    1.000    0.000   10.800    0.000    0.000 
#    0.000    0.000    0.000    0.000    0.000    0.000 
#
# Total GULP energy -111434.601935 kJ/mol
# GULP energy per Si atom -5571.730097 kJ/mol
# Density = 2.077890 g / cm^3
# Si number density = 20.826304 Si / 1000 Ang^3
#
#
#
# Elastic Constant Matrix: (Units=GPa)
#
#
# Indices 1 2 3 4 5 6 
#
# 1 130.2210 69.3904 8.8256 0.0000 2.6055 0.0000
# 2 69.3904 116.6275 15.4571 0.0000 4.4656 0.0000
# 3 8.8256 15.4571 65.9563 0.0000 -10.0222 0.0000
# 4 0.0000 0.0000 0.0000 -4.5709 0.0000 -4.0521
# 5 2.6055 4.4656 -10.0222 0.0000 31.2878 0.0000
# 6 0.0000 0.0000 0.0000 -4.0521 0.0000 35.6896
#
#
#
# Elastic Compliance Matrix: (Units=1/GPa)
#
#
# Indices 1 2 3 4 5 6 
#
# 1 0.011244 -0.006701 0.000072 0.000000 0.000043 0.000000
# 2 -0.006701 0.012967 -0.002458 0.000000 -0.002080 0.000000
# 3 0.000072 -0.002458 0.016588 0.000000 0.005658 0.000000
# 4 0.000000 0.000000 0.000000 -0.198769 0.000000 -0.022568
# 5 0.000043 -0.002080 0.005658 0.000000 0.034067 0.000000
# 6 0.000000 0.000000 0.000000 -0.022568 0.000000 0.025457
#
#
# Mechanical properties :
#
#
# Convention : Reuss Voigt Hill
#
# Bulk Modulus (GPa) = 44.19932 55.57232 49.88582
# Shear Modulus (GPa) = -68.74715 27.09010 -20.82853
#
# Velocity S-wave (km/s) = -5.75165 3.61052 -3.16588
# Velocity P-wave (km/s) = 4.77909 6.64250 3.26214
#
# Compressibility (1/GPa) = 0.02262478
#
# Stress axis : x y z
#
# Youngs Moduli (GPa) = 88.93289 77.11932 60.28551
#
# Poissons Ratio (x) = 0.51681 -0.00437
# Poissons Ratio (y) = 0.59598 0.14819
# Poissons Ratio (z) = -0.00644 0.18958
#
# Static dielectric constant tensor:
#      x y z
#    x 1.758960 0.000000 -0.010890 
#    y 0.000000 1.744890 0.000000 
#    z -0.010890 0.000000 1.815290 
# 
# From -- ./inp_files/177424.got.cif
#   From: 2010.05.17/outbox.cif.g08.bks.cpg/sg15_89_cif.got.tgz:177424.got - 2010.06.03 18:47:42.
