data_PCOD9303533
_publ_section_title
;
Structure prediction by ZEFSAII (Michael W. Deem and Ramdas Pophale) SiO2 
 PCOD9303533
Probable space group: C 2/C
;
_chemical_formula_sum "Si O2"
_cell_formula_units_Z 56
_cell_length_a 9.967307
_cell_length_b 11.120826
_cell_length_c 27.883324
_cell_angle_alpha 90.000000
_cell_angle_beta 120.751359
_cell_angle_gamma 90.000000
_cell_volume 2656.145654
_symmetry_space_group_name_H-M "C 2/C"
_symmetry_group_IT_number 15
_symmetry_cell_setting 'monoclinic'
loop_
_space_group_symop_operation_xyz
x,y,z
-x,y,1/2-z
-x,-y,-z
x,-y,1/2+z
1/2+x,1/2+y,z
1/2-x,1/2+y,1/2-z
1/2-x,1/2-y,-z
1/2+x,1/2-y,1/2+z
loop_
_atom_site_type_symbol
_atom_site_label
_atom_site_fract_x
_atom_site_fract_y
_atom_site_fract_z
Si Si1 0.849186 0.433334 0.494387
Si Si2 0.468223 0.916403 0.294064
Si Si3 0.172614 0.929330 0.292523
Si Si4 0.038316 0.622370 0.378887
Si Si5 0.159425 0.836812 0.946184
Si Si6 0.683211 0.233379 0.600341
Si Si7 0.295065 0.307733 0.658515
O O1 0.895345 0.397810 0.556069
O O2 0.705060 0.526706 0.468169
O O3 0.822291 0.323077 0.453771
O O4 0.000000 0.500000 0.500000
O O5 0.500000 0.983448 0.250000
O O6 0.283049 0.899332 0.267264
O O7 0.580169 0.799531 0.311975
O O8 0.504670 0.996295 0.347066
O O9 0.264634 0.869271 0.353460
O O10 0.000000 0.882784 0.250000
O O11 0.155480 0.069178 0.305425
O O12 0.173985 0.676837 0.372110
O O13 0.883163 0.704221 0.355231
O O14 0.212261 0.823829 0.900524
O O15 0.979161 0.797286 0.916661
O O16 0.250000 0.750000 0.000000
#
# Coordination Sequence:
#
# PCOD9303533 Si02
#       7
#     8   8   8   8   8   8   8
#     4  12  21  42  69  96 137 180 220 273 339 413
#     4  11  25  46  70  98 133 181 237 283 343 407
#     4  11  25  45  69  98 133 179 232 286 342 409
#     4  11  26  42  67 103 143 170 223 286 344 408
#     4  12  22  37  72  98 133 180 223 274 336 415
#     4  12  25  42  65 105 137 175 226 282 346 412
#     4  11  22  45  69  97 131 181 231 274 341 412
#
# _framework density 21.083182000000001
#
# number of rings (size 3 to 8) (size 9 to 14) (size 15 to 20)
#    0.000    0.571    5.714    2.571    2.000    3.429 
#    2.571    0.000    0.000    0.000    0.000    0.000 
#    0.000    0.000    0.000    0.000    0.000    0.000 
#
# Total GULP energy -156349.593937 kJ/mol
# GULP energy per Si atom -5583.914069 kJ/mol
# Density = 2.103520 g / cm^3
# Si number density = 21.083182 Si / 1000 Ang^3
#
#
#
# Elastic Constant Matrix: (Units=GPa)
#
#
# Indices 1 2 3 4 5 6 
#
# 1 159.9823 50.3023 50.1588 0.0000 32.6279 0.0000
# 2 50.3023 71.1594 10.6401 0.0000 22.2635 0.0000
# 3 50.1588 10.6401 91.0886 0.0000 2.8643 0.0000
# 4 0.0000 0.0000 0.0000 405.9096 0.0000 -85.8734
# 5 32.6279 22.2635 2.8643 0.0000 41.9657 0.0000
# 6 0.0000 0.0000 0.0000 -85.8734 0.0000 68.8711
#
#
#
# Elastic Compliance Matrix: (Units=1/GPa)
#
#
# Indices 1 2 3 4 5 6 
#
# 1 0.010444 -0.005037 -0.005002 0.000000 -0.005107 0.000000
# 2 -0.005037 0.019543 0.000695 0.000000 -0.006499 0.000000
# 3 -0.005002 0.000695 0.013570 0.000000 0.002594 0.000000
# 4 0.000000 0.000000 0.000000 0.003346 0.000000 0.004172
# 5 -0.005107 -0.006499 0.002594 0.000000 0.031070 0.000000
# 6 0.000000 0.000000 0.000000 0.004172 0.000000 0.019722
#
#
# Mechanical properties :
#
#
# Convention : Reuss Voigt Hill
#
# Bulk Modulus (GPa) = 40.21062 60.49251 50.35157
# Shear Modulus (GPa) = 40.10433 117.42457 78.76445
#
# Velocity S-wave (km/s) = 4.36615 7.47106 6.11882
# Velocity P-wave (km/s) = 6.67319 10.15761 8.59385
#
# Compressibility (1/GPa) = 0.02486905
#
# Stress axis : x y z
#
# Youngs Moduli (GPa) = 95.74489 51.16853 73.69149
#
# Poissons Ratio (x) = 0.25776 0.36863
# Poissons Ratio (y) = 0.48231 -0.05125
# Poissons Ratio (z) = 0.47895 -0.03558
#
# Static dielectric constant tensor:
#      x y z
#    x 1.915470 0.000000 -0.049580 
#    y 0.000000 1.816080 0.000000 
#    z -0.049580 0.000000 1.832960 
# 
# From -- ./inp_files/307540.got.cif
#   From: 2010.05.17/outbox.cif.g08.bks.cpg/sg15_154_cif.got.tgz:307540.got - 2010.06.03 18:47:42.
