data_PCOD9303502
_publ_section_title
;
Structure prediction by ZEFSAII (Michael W. Deem and Ramdas Pophale) SiO2 
 PCOD9303502
Probable space group: C 2/C
;
_chemical_formula_sum "Si O2"
_cell_formula_units_Z 44
_cell_length_a 5.073019
_cell_length_b 25.305416
_cell_length_c 14.491366
_cell_angle_alpha 90.000000
_cell_angle_beta 101.559353
_cell_angle_gamma 90.000000
_cell_volume 1822.595227
_symmetry_space_group_name_H-M "C 2/C"
_symmetry_group_IT_number 15
_symmetry_cell_setting 'monoclinic'
loop_
_space_group_symop_operation_xyz
x,y,z
-x,y,1/2-z
-x,-y,-z
x,-y,1/2+z
1/2+x,1/2+y,z
1/2-x,1/2+y,1/2-z
1/2-x,1/2-y,-z
1/2+x,1/2-y,1/2+z
loop_
_atom_site_type_symbol
_atom_site_label
_atom_site_fract_x
_atom_site_fract_y
_atom_site_fract_z
Si Si1 0.840240 0.747511 0.142300
Si Si2 0.500000 0.462496 0.250000
Si Si3 0.198464 0.686596 0.907946
Si Si4 0.026902 0.356204 0.591576
Si Si5 0.226717 0.451883 0.844505
Si Si6 0.500000 0.367004 0.750000
Si Si7 0.500000 0.895720 0.250000
O O1 0.552198 0.774717 0.129304
O O2 0.000000 0.752406 0.250000
O O3 0.030605 0.780298 0.085797
O O4 0.806230 0.687948 0.102859
O O5 0.588746 0.496459 0.164044
O O6 0.227955 0.429525 0.212607
O O7 0.171949 0.640348 0.830910
O O8 0.152235 0.660033 0.003567
O O9 0.237625 0.342015 0.688871
O O10 0.931712 0.418007 0.587578
O O11 0.422571 0.405919 0.826620
O O12 0.000000 0.458357 0.750000
#
# Coordination Sequence:
#
# PCOD9303502 Si02
#       7
#     8   4   8   8   8   4   4
#     4  12  24  45  70 100 141 190 235 272 343 416
#     4  11  22  44  77  94 127 186 238 288 351 402
#     4  12  27  46  66 103 146 185 237 277 337 421
#     4  11  25  40  72 106 143 180 224 297 348 404
#     4   9  19  41  67 103 130 170 231 286 352 406
#     4   9  20  37  66  98 138 174 217 276 355 398
#     4  12  24  47  69  94 135 196 225 284 344 410
#
# _framework density 24.141401999999999
#
# number of rings (size 3 to 8) (size 9 to 14) (size 15 to 20)
#    0.000    1.091    2.727    3.818    7.636    0.000 
#    0.000    1.818    0.000    0.000    0.000    0.000 
#    0.000    0.000    0.000    0.000    0.000    0.000 
#
# Total GULP energy -122700.992557 kJ/mol
# GULP energy per Si atom -5577.317844 kJ/mol
# Density = 2.408646 g / cm^3
# Si number density = 24.141402 Si / 1000 Ang^3
#
#
#
# Elastic Constant Matrix: (Units=GPa)
#
#
# Indices 1 2 3 4 5 6 
#
# 1 116.4803 34.6344 -16.5313 0.0000 3.8953 0.0000
# 2 34.6344 103.1460 0.5754 0.0000 -2.5032 0.0000
# 3 -16.5313 0.5754 58.7470 0.0000 -1.0023 0.0000
# 4 0.0000 0.0000 0.0000 0.0513 0.0000 -42.0085
# 5 3.8953 -2.5032 -1.0023 0.0000 31.8817 0.0000
# 6 0.0000 0.0000 0.0000 -42.0085 0.0000 -134.3566
#
#
#
# Elastic Compliance Matrix: (Units=1/GPa)
#
#
# Indices 1 2 3 4 5 6 
#
# 1 0.010054 -0.003426 0.002839 0.000000 -0.001408 0.000000
# 2 -0.003426 0.010881 -0.001049 0.000000 0.001240 0.000000
# 3 0.002839 -0.001049 0.017833 0.000000 0.000131 0.000000
# 4 0.000000 0.000000 0.000000 0.075839 0.000000 -0.023712
# 5 -0.001408 0.001240 0.000131 0.000000 0.031639 0.000000
# 6 0.000000 0.000000 0.000000 -0.023712 0.000000 -0.000029
#
#
# Mechanical properties :
#
#
# Convention : Reuss Voigt Hill
#
# Bulk Modulus (GPa) = 28.17290 35.08116 31.62703
# Shear Modulus (GPa) = 30.99367 -3.17174 13.91096
#
# Velocity S-wave (km/s) = 3.58696 -1.14746 2.40308
# Velocity P-wave (km/s) = 5.37125 3.57876 4.56387
#
# Compressibility (1/GPa) = 0.03549511
#
# Stress axis : x y z
#
# Youngs Moduli (GPa) = 99.46542 91.90097 56.07441
#
# Poissons Ratio (x) = 0.31484 -0.15917
# Poissons Ratio (y) = 0.34075 0.05885
# Poissons Ratio (z) = -0.28235 0.09645
#
# Static dielectric constant tensor:
#      x y z
#    x -0.004440 0.000000 0.348760 
#    y 0.000000 1.981330 0.000000 
#    z 0.348760 0.000000 1.917660 
# 
# From -- ./inp_files/129857.got.cif
#   From: 2010.05.17/outbox.cif.g08.bks.cpg/sg15_65_cif.got.tgz:129857.got - 2010.06.03 18:47:42.
